# generated using pymatgen
data_LiSnPO4
_symmetry_space_group_name_H-M   'P 1'
_cell_length_a   5.01330300
_cell_length_b   8.28783500
_cell_length_c   18.72252100
_cell_angle_alpha   90.00000000
_cell_angle_beta   90.00000000
_cell_angle_gamma   90.00000000
_symmetry_Int_Tables_number   1
_chemical_formula_structural   LiSnPO4
_chemical_formula_sum   'Li8 Sn8 P8 O32'
_cell_volume   777.91003956
_cell_formula_units_Z   8
loop_
 _symmetry_equiv_pos_site_id
 _symmetry_equiv_pos_as_xyz
  1  'x, y, z'
loop_
 _atom_site_type_symbol
 _atom_site_label
 _atom_site_symmetry_multiplicity
 _atom_site_fract_x
 _atom_site_fract_y
 _atom_site_fract_z
 _atom_site_occupancy
  Li  Li0  1  0.94713400  0.01119600  0.94387000  1
  Li  Li1  1  0.43834400  0.17433100  0.34613200  1
  Li  Li2  1  0.93834400  0.32566900  0.84613200  1
  Li  Li3  1  0.44713400  0.48880400  0.44387000  1
  Li  Li4  1  0.94713400  0.51119600  0.55613000  1
  Li  Li5  1  0.43834400  0.67433100  0.15386800  1
  Li  Li6  1  0.93834400  0.82566900  0.65386800  1
  Li  Li7  1  0.44713400  0.98880400  0.05613000  1
  Sn  Sn0  1  0.46708200  0.06140100  0.77609300  1
  Sn  Sn1  1  0.54017200  0.15933800  0.55511900  1
  Sn  Sn2  1  0.04017200  0.34066200  0.05511900  1
  Sn  Sn3  1  0.96708200  0.43859900  0.27609300  1
  Sn  Sn4  1  0.46708200  0.56140100  0.72390700  1
  Sn  Sn5  1  0.54017200  0.65933800  0.94488100  1
  Sn  Sn6  1  0.04017200  0.84066200  0.44488100  1
  Sn  Sn7  1  0.96708200  0.93859900  0.22390700  1
  P  P0  1  0.94407800  0.20751000  0.67863200  1
  P  P1  1  0.44298700  0.23537800  0.92897600  1
  P  P2  1  0.94298700  0.26462200  0.42897600  1
  P  P3  1  0.44407800  0.29249000  0.17863200  1
  P  P4  1  0.94407800  0.70751000  0.82136800  1
  P  P5  1  0.44298700  0.73537800  0.57102400  1
  P  P6  1  0.94298700  0.76462200  0.07102400  1
  P  P7  1  0.44407800  0.79249000  0.32136800  1
  O  O0  1  0.81443000  0.05509400  0.64166100  1
  O  O1  1  0.30562500  0.09725000  0.96966200  1
  O  O2  1  0.87617200  0.10202100  0.47073300  1
  O  O3  1  0.38584400  0.14476800  0.13249700  1
  O  O4  1  0.24928900  0.17982200  0.68810900  1
  O  O5  1  0.74613200  0.21335500  0.92250900  1
  O  O6  1  0.81408700  0.22200900  0.75496300  1
  O  O7  1  0.31979600  0.25294900  0.85180300  1
  O  O8  1  0.81979600  0.24705100  0.35180300  1
  O  O9  1  0.31408700  0.27799100  0.25496300  1
  O  O10  1  0.24613200  0.28664500  0.42250900  1
  O  O11  1  0.74928900  0.32017800  0.18810900  1
  O  O12  1  0.88584400  0.35523200  0.63249700  1
  O  O13  1  0.37617200  0.39797900  0.97073300  1
  O  O14  1  0.80562500  0.40275000  0.46966300  1
  O  O15  1  0.31443000  0.44490600  0.14166100  1
  O  O16  1  0.81443000  0.55509400  0.85833900  1
  O  O17  1  0.30562500  0.59725000  0.53033800  1
  O  O18  1  0.87617200  0.60202100  0.02926700  1
  O  O19  1  0.38584400  0.64476800  0.36750300  1
  O  O20  1  0.24928900  0.67982200  0.81189100  1
  O  O21  1  0.74613200  0.71335500  0.57749100  1
  O  O22  1  0.81408700  0.72200900  0.74503700  1
  O  O23  1  0.31979600  0.75294900  0.64819700  1
  O  O24  1  0.81979600  0.74705100  0.14819700  1
  O  O25  1  0.31408700  0.77799100  0.24503700  1
  O  O26  1  0.24613200  0.78664500  0.07749100  1
  O  O27  1  0.74928900  0.82017800  0.31189100  1
  O  O28  1  0.88584400  0.85523200  0.86750300  1
  O  O29  1  0.37617200  0.89797900  0.52926700  1
  O  O30  1  0.80562500  0.90275000  0.03033800  1
  O  O31  1  0.31443000  0.94490600  0.35833900  1
loop_
_geom_bond_atom_site_label_1
_geom_bond_atom_site_label_2
_geom_bond_distance
_geom_bond_site_symmetry_2
Li0 O28 1.951798 1_545
Li0 O30 1.982910 1_546
Li0 O1 1.992951 1_655
Li0 O5 1.995630 1_555
Li1 O10 1.959550 1_555
Li1 O8 2.007868 1_555
Li1 O9 2.009897 1_555
Li1 O31 2.013357 1_545
Li2 O5 1.959550 1_555
Li2 O7 2.007868 1_655
Li2 O6 2.009897 1_555
Li2 O16 2.013357 1_555
Li3 O19 1.951798 1_555
Li3 O17 1.982910 1_555
Li3 O14 1.992956 1_555
Li3 O10 1.995630 1_555
Li4 O12 1.951798 1_555
Li4 O14 1.982895 1_555
Li4 O17 1.992951 1_655
Li4 O21 1.995630 1_555
Li5 O26 1.959550 1_555
Li5 O24 2.007868 1_555
Li5 O25 2.009897 1_555
Li5 O15 2.013357 1_555
Li6 O21 1.959550 1_555
Li6 O23 2.007868 1_655
Li6 O22 2.009897 1_555
Li6 O0 2.013357 1_565
Li7 O3 1.951798 1_565
Li7 O1 1.982910 1_564
Li7 O30 1.992951 1_555
Li7 O26 1.995630 1_555
O0 P0 1.580270 1_555
O0 Sn1 2.293948 1_555
O1 P1 1.537856 1_555
O2 P2 1.593568 1_555
O2 Sn1 2.357804 1_555
O2 Sn6 2.366906 1_645
O3 P3 1.526505 1_555
O4 P0 1.557367 1_455
O4 Sn0 2.206571 1_555
O5 P1 1.535460 1_555
O6 P0 1.575273 1_555
O6 Sn0 2.225907 1_555
O7 P1 1.578064 1_555
O7 Sn0 2.252707 1_555
O8 P2 1.578064 1_555
O8 Sn3 2.252707 1_555
O9 P3 1.575273 1_555
O9 Sn3 2.225907 1_455
O10 P2 1.535460 1_455
O11 P3 1.557367 1_555
O11 Sn3 2.206571 1_555
O12 P0 1.526505 1_555
O13 P1 1.593568 1_555
O13 Sn2 2.357804 1_556
O13 Sn5 2.366906 1_555
O14 P2 1.537866 1_555
O15 P3 1.580270 1_555
O15 Sn2 2.293948 1_555
O16 P4 1.580270 1_555
O16 Sn5 2.293948 1_555
O17 P5 1.537856 1_555
O18 P6 1.593568 1_555
O18 Sn5 2.357804 1_554
O18 Sn2 2.366906 1_655
O19 P7 1.526505 1_555
O20 P4 1.557367 1_455
O20 Sn4 2.206571 1_555
O21 P5 1.535460 1_555
O22 P4 1.575273 1_555
O22 Sn4 2.225907 1_555
O23 P5 1.578064 1_555
O23 Sn4 2.252707 1_555
O24 P6 1.578064 1_555
O24 Sn7 2.252707 1_555
O25 P7 1.575273 1_555
O25 Sn7 2.225907 1_455
O26 P6 1.535460 1_455
O27 P7 1.557367 1_555
O27 Sn7 2.206571 1_555
O28 P4 1.526505 1_555
O29 P5 1.593568 1_555
O29 Sn6 2.357804 1_555
O29 Sn1 2.366906 1_565
O30 P6 1.537856 1_555
O31 P7 1.580270 1_555
O31 Sn6 2.293948 1_555
