# generated using pymatgen
data_V2CuS4
_symmetry_space_group_name_H-M   'P 1'
_cell_length_a   6.98174627
_cell_length_b   6.98273443
_cell_length_c   6.98247475
_cell_angle_alpha   89.94155822
_cell_angle_beta   120.05016096
_cell_angle_gamma   120.03570246
_symmetry_Int_Tables_number   1
_chemical_formula_structural   V2CuS4
_chemical_formula_sum   'V4 Cu2 S8'
_cell_volume   240.51458503
_cell_formula_units_Z   2
loop_
 _symmetry_equiv_pos_site_id
 _symmetry_equiv_pos_as_xyz
  1  'x, y, z'
loop_
 _atom_site_type_symbol
 _atom_site_label
 _atom_site_symmetry_multiplicity
 _atom_site_fract_x
 _atom_site_fract_y
 _atom_site_fract_z
 _atom_site_occupancy
  V  V0  1  0.73216700  0.49129900  0.75948500  1
  V  V1  1  0.26792100  0.02742300  0.75913500  1
  V  V2  1  0.26878800  0.49181500  0.76087200  1
  V  V3  1  0.73127900  0.49217900  0.22313500  1
  Cu  Cu0  1  0.99992200  0.12600900  0.12594100  1
  Cu  Cu1  1  0.49983200  0.87706600  0.37719900  1
  S  S0  1  0.74489100  0.74189700  0.99699100  1
  S  S1  1  0.25513200  0.25211500  0.99704900  1
  S  S2  1  0.76949100  0.28024600  0.51051600  1
  S  S3  1  0.23043500  0.74099200  0.51084000  1
  S  S4  1  0.23174200  0.74130800  0.97273600  1
  S  S5  1  0.76832700  0.74109300  0.50960000  1
  S  S6  1  0.74428600  0.25426500  0.99857300  1
  S  S7  1  0.25578700  0.25429400  0.50992800  1
loop_
_geom_bond_atom_site_label_1
_geom_bond_atom_site_label_2
_geom_bond_distance
_geom_bond_site_symmetry_2
Cu0 S6 2.187983 1_554
Cu0 S7 2.188242 1_655
Cu0 S0 2.189394 1_544
Cu0 S1 2.189508 1_654
Cu1 S3 2.297417 1_555
Cu1 S2 2.298052 1_565
Cu1 S4 2.304994 1_554
Cu1 S5 2.305313 1_555
S0 V3 2.349838 1_556
S0 V0 2.350080 1_555
S0 V2 2.350141 1_555
S1 V2 2.349932 1_555
S1 V1 2.350195 1_555
S1 V3 2.350365 1_556
S2 V0 2.470880 1_555
S2 V2 2.477306 1_655
S2 V3 2.478061 1_555
S3 V1 2.470459 1_565
S3 V3 2.476593 1_455
S3 V2 2.477713 1_555
S4 V2 2.475871 1_555
S4 V0 2.477619 1_455
S4 V1 2.479066 1_565
S5 V3 2.475420 1_555
S5 V1 2.477656 1_665
S5 V0 2.478838 1_555
S6 V3 2.350681 1_556
S6 V0 2.350902 1_555
S6 V1 2.351228 1_555
S7 V2 2.350571 1_555
S7 V1 2.350697 1_555
S7 V0 2.351291 1_555
