# generated using pymatgen
data_Rb3Bi
_symmetry_space_group_name_H-M   'P 1'
_cell_length_a   6.37578162
_cell_length_b   6.37578265
_cell_length_c   6.37578049
_cell_angle_alpha   59.99999008
_cell_angle_beta   59.99998476
_cell_angle_gamma   59.99999208
_symmetry_Int_Tables_number   1
_chemical_formula_structural   Rb3Bi
_chemical_formula_sum   'Rb3 Bi1'
_cell_volume   183.26738674
_cell_formula_units_Z   1
loop_
 _symmetry_equiv_pos_site_id
 _symmetry_equiv_pos_as_xyz
  1  'x, y, z'
loop_
 _atom_site_type_symbol
 _atom_site_label
 _atom_site_symmetry_multiplicity
 _atom_site_fract_x
 _atom_site_fract_y
 _atom_site_fract_z
 _atom_site_occupancy
  Rb  Rb0  1  0.75000000  0.75000000  0.75000000  1
  Rb  Rb1  1  0.50000000  0.50000000  0.50000000  1
  Rb  Rb2  1  0.25000000  0.25000000  0.25000000  1
  Bi  Bi0  1  0.00000000  -0.00000000  -0.00000000  1
loop_
_geom_bond_atom_site_label_1
_geom_bond_atom_site_label_2
_geom_bond_distance
_geom_bond_site_symmetry_2
Rb0 Rb1 3.904352 1_556
Rb0 Rb1 3.904352 1_655
Rb0 Rb1 3.904353 1_565
Rb0 Rb1 3.904353 1_555
Rb1 Rb2 3.904352 1_556
Rb1 Rb2 3.904352 1_655
Rb1 Rb2 3.904353 1_565
Rb1 Rb2 3.904353 1_555
Bi0 Rb2 3.904352 1_554
Bi0 Rb0 3.904352 1_445
Bi0 Rb0 3.904352 1_544
Bi0 Rb2 3.904352 1_455
Bi0 Rb2 3.904353 1_545
Bi0 Rb0 3.904353 1_454
Bi0 Rb2 3.904353 1_555
Bi0 Rb0 3.904353 1_444
