# generated using pymatgen
data_CsSr2MgNb3O10
_symmetry_space_group_name_H-M   'P 1'
_cell_length_a   4.05186360
_cell_length_b   4.03456134
_cell_length_c   17.48045454
_cell_angle_alpha   90.00000000
_cell_angle_beta   90.00000000
_cell_angle_gamma   90.00000000
_symmetry_Int_Tables_number   1
_chemical_formula_structural   CsSr2MgNb3O10
_chemical_formula_sum   'Cs1 Sr2 Mg1 Nb3 O10'
_cell_volume   285.76159487
_cell_formula_units_Z   1
loop_
 _symmetry_equiv_pos_site_id
 _symmetry_equiv_pos_as_xyz
  1  'x, y, z'
loop_
 _atom_site_type_symbol
 _atom_site_label
 _atom_site_symmetry_multiplicity
 _atom_site_fract_x
 _atom_site_fract_y
 _atom_site_fract_z
 _atom_site_occupancy
  Cs  Cs0  1  0.50000000  0.50000000  0.41039425  1
  Sr  Sr0  1  0.50000000  0.50000000  0.88308741  1
  Sr  Sr1  1  0.50000000  0.50000000  0.13156523  1
  Mg  Mg0  1  0.50000000  0.00000000  0.63735731  1
  Nb  Nb0  1  -0.00000000  -0.00000000  0.76559798  1
  Nb  Nb1  1  -0.00000000  -0.00000000  0.24862455  1
  Nb  Nb2  1  0.00000000  -0.00000000  0.00386832  1
  O  O0  1  -0.00000000  -0.00000000  0.65150252  1
  O  O1  1  -0.00000000  0.00000000  0.35352778  1
  O  O2  1  0.50000000  0.00000000  0.76102573  1
  O  O3  1  0.00000000  0.50000000  0.78369458  1
  O  O4  1  0.50000000  -0.00000000  0.22996481  1
  O  O5  1  -0.00000000  0.50000000  0.22870123  1
  O  O6  1  -0.00000000  0.50000000  0.99897585  1
  O  O7  1  0.50000000  -0.00000000  0.00073580  1
  O  O8  1  -0.00000000  -0.00000000  0.11645018  1
  O  O9  1  -0.00000000  0.00000000  0.88659347  1
loop_
_geom_bond_atom_site_label_1
_geom_bond_atom_site_label_2
_geom_bond_distance
_geom_bond_site_symmetry_2
Cs0 O1 3.026873 1_555
Cs0 O1 3.026873 1_565
Cs0 O1 3.026873 1_665
Cs0 O1 3.026873 1_655
Mg0 O0 2.040965 1_655
Mg0 O0 2.040965 1_555
Mg0 O2 2.161780 1_555
Nb0 O0 1.994441 1_555
Nb0 O2 2.027508 1_455
Nb0 O2 2.027508 1_555
Nb0 O3 2.041933 1_555
Nb0 O3 2.041933 1_545
Nb0 O9 2.115056 1_555
Nb1 O1 1.833756 1_555
Nb1 O5 2.047123 1_545
Nb1 O5 2.047123 1_555
Nb1 O4 2.052022 1_455
Nb1 O4 2.052022 1_555
Nb1 O8 2.310468 1_555
Nb2 O8 1.967982 1_555
Nb2 O6 2.019093 1_554
Nb2 O6 2.019093 1_544
Nb2 O7 2.026672 1_455
Nb2 O7 2.026672 1_555
Nb2 O9 2.050018 1_554
O2 Sr0 2.936336 1_545
O2 Sr0 2.936336 1_555
O3 Sr0 2.668908 1_555
O3 Sr0 2.668908 1_455
O4 Sr1 2.651049 1_555
O4 Sr1 2.651049 1_545
O5 Sr1 2.643396 1_555
O5 Sr1 2.643396 1_455
O6 Sr0 2.864995 1_455
O6 Sr0 2.864995 1_555
O6 Sr1 3.078350 1_556
O6 Sr1 3.078350 1_456
O7 Sr0 2.880765 1_554
O7 Sr0 2.880765 1_544
O7 Sr1 3.049524 1_545
O7 Sr1 3.049524 1_555
O8 Sr1 2.871173 1_455
O8 Sr1 2.871173 1_545
O8 Sr1 2.871173 1_555
O8 Sr1 2.871173 1_445
O9 Sr0 2.859646 1_445
O9 Sr0 2.859646 1_545
O9 Sr0 2.859646 1_455
O9 Sr0 2.859646 1_555
