# generated using pymatgen
data_Na6Sc6Ta2Si5S7O48
_symmetry_space_group_name_H-M   'P 1'
_cell_length_a   17.90317794
_cell_length_b   8.98964247
_cell_length_c   23.16726805
_cell_angle_alpha   90.04215644
_cell_angle_beta   90.15520098
_cell_angle_gamma   120.12334074
_symmetry_Int_Tables_number   1
_chemical_formula_structural   Na6Sc6Ta2Si5S7O48
_chemical_formula_sum   'Na18 Sc18 Ta6 Si15 S21 O144'
_cell_volume   3225.03196898
_cell_formula_units_Z   3
loop_
 _symmetry_equiv_pos_site_id
 _symmetry_equiv_pos_as_xyz
  1  'x, y, z'
loop_
 _atom_site_type_symbol
 _atom_site_label
 _atom_site_symmetry_multiplicity
 _atom_site_fract_x
 _atom_site_fract_y
 _atom_site_fract_z
 _atom_site_occupancy
  Na  Na0  1  0.98890127  0.67628265  0.91294591  1
  Na  Na1  1  0.34871464  0.03000678  0.91546753  1
  Na  Na2  1  0.17004948  0.30318925  0.91425972  1
  Na  Na3  1  0.48845143  0.30342271  0.41855758  1
  Na  Na4  1  0.66956190  0.03505319  0.41660915  1
  Na  Na5  1  0.84739245  0.66706079  0.41779398  1
  Na  Na6  1  0.99935323  0.00118800  0.49599564  1
  Na  Na7  1  0.49844333  0.99809842  0.50030738  1
  Na  Na8  1  0.99944131  0.00215572  0.99780102  1
  Na  Na9  1  0.49907237  0.99747289  0.99419009  1
  Na  Na10  1  0.33575734  0.33989094  0.83559499  1
  Na  Na11  1  0.82991463  0.32652211  0.82453488  1
  Na  Na12  1  0.33068391  0.33543358  0.32749801  1
  Na  Na13  1  0.83497291  0.33034678  0.33952794  1
  Na  Na14  1  0.17020470  0.67096719  0.16702288  1
  Na  Na15  1  0.66490158  0.66552356  0.16798945  1
  Na  Na16  1  0.16704211  0.66552837  0.66718547  1
  Na  Na17  1  0.66346710  0.66038108  0.66210256  1
  Sc  Sc0  1  0.00443440  0.99896129  0.35734226  1
  Sc  Sc1  1  0.49664413  0.00362404  0.34856973  1
  Sc  Sc2  1  0.99700149  0.99051578  0.84697894  1
  Sc  Sc3  1  0.50369950  0.00995718  0.85478046  1
  Sc  Sc4  1  0.33736840  0.34457081  0.68017028  1
  Sc  Sc5  1  0.83379926  0.33444139  0.69245258  1
  Sc  Sc6  1  0.33490334  0.33366085  0.19325473  1
  Sc  Sc7  1  0.82962941  0.31842559  0.18313067  1
  Sc  Sc8  1  0.33999985  0.34553093  0.97415584  1
  Sc  Sc9  1  0.82945934  0.31036141  0.98363761  1
  Sc  Sc10  1  0.33630075  0.34637864  0.48869487  1
  Sc  Sc11  1  0.83868476  0.33175917  0.47513709  1
  Sc  Sc12  1  0.17283821  0.67981405  0.01355116  1
  Sc  Sc13  1  0.66501365  0.66576036  0.01953841  1
  Sc  Sc14  1  0.16535541  0.66423108  0.52124998  1
  Sc  Sc15  1  0.66729031  0.65640120  0.51709056  1
  Sc  Sc16  1  0.66882084  0.65890106  0.31662447  1
  Sc  Sc17  1  0.17069657  0.68164528  0.81389626  1
  Ta  Ta0  1  0.99560536  0.98898151  0.65162927  1
  Ta  Ta1  1  0.50015056  0.01457755  0.64242907  1
  Ta  Ta2  1  0.00082977  0.99676545  0.14707524  1
  Ta  Ta3  1  0.49439237  0.00034417  0.15189528  1
  Ta  Ta4  1  0.16586200  0.67476265  0.31187327  1
  Ta  Ta5  1  0.66236311  0.65413489  0.80814181  1
  Si  Si0  1  0.14413067  0.00220071  0.25153749  1
  Si  Si1  1  0.35306197  0.70492577  0.25299130  1
  Si  Si2  1  0.50349958  0.30258853  0.25205550  1
  Si  Si3  1  0.64358549  0.28107554  0.75087086  1
  Si  Si4  1  0.00265499  0.70364758  0.75166229  1
  Si  Si5  1  0.85375957  0.00159369  0.75261446  1
  Si  Si6  1  0.48168834  0.34585100  0.58232688  1
  Si  Si7  1  0.33101123  0.62541883  0.58485418  1
  Si  Si8  1  0.83150839  0.03525396  0.08416817  1
  Si  Si9  1  0.31331441  0.66893948  0.91479680  1
  Si  Si10  1  0.52499973  0.37902950  0.91771669  1
  Si  Si11  1  0.16432716  0.95915163  0.91760852  1
  Si  Si12  1  0.81183676  0.95478678  0.41613603  1
  Si  Si13  1  0.66486415  0.36942721  0.41698866  1
  Si  Si14  1  0.02410359  0.66857570  0.41845711  1
  S  S0  1  0.64509617  0.00068775  0.24924909  1
  S  S1  1  0.85623570  0.71022456  0.24914619  1
  S  S2  1  0.99967725  0.28702087  0.25060737  1
  S  S3  1  0.14597412  0.28997620  0.74954078  1
  S  S4  1  0.49901339  0.71193260  0.75092221  1
  S  S5  1  0.35621794  0.00224658  0.74919226  1
  S  S6  1  0.97869880  0.33032876  0.58473597  1
  S  S7  1  0.18558486  0.04121813  0.58421422  1
  S  S8  1  0.68822180  0.04265428  0.58437743  1
  S  S9  1  0.83470697  0.62595753  0.58439417  1
  S  S10  1  0.47888477  0.62716105  0.08469957  1
  S  S11  1  0.97905336  0.62456107  0.08412098  1
  S  S12  1  0.33378490  0.04214898  0.08449015  1
  S  S13  1  0.18722733  0.33362322  0.08473948  1
  S  S14  1  0.68637937  0.33055437  0.08392779  1
  S  S15  1  0.80987536  0.66527762  0.91653751  1
  S  S16  1  0.01983603  0.37544870  0.91707887  1
  S  S17  1  0.66734983  0.95395806  0.91582356  1
  S  S18  1  0.30971570  0.95458476  0.41678346  1
  S  S19  1  0.16835491  0.38142073  0.41593172  1
  S  S20  1  0.51943524  0.66527574  0.41644510  1
  O  O0  1  0.09760343  0.02755268  0.30546900  1
  O  O1  1  0.60768689  0.02742438  0.30172212  1
  O  O2  1  0.41357114  0.79661651  0.30717414  1
  O  O3  1  0.90762212  0.78721486  0.30085950  1
  O  O4  1  0.48678377  0.18105485  0.30783233  1
  O  O5  1  0.98561145  0.18527621  0.30107728  1
  O  O6  1  0.10668412  0.18812144  0.80242566  1
  O  O7  1  0.59954987  0.17065208  0.80698462  1
  O  O8  1  0.48767449  0.78825764  0.80289672  1
  O  O9  1  0.98655595  0.79010191  0.80862838  1
  O  O10  1  0.40705009  0.02598926  0.80180040  1
  O  O11  1  0.91320180  0.03048111  0.80771135  1
  O  O12  1  0.40060896  0.97793088  0.69714078  1
  O  O13  1  0.90318901  0.97064286  0.69430353  1
  O  O14  1  0.08815117  0.19700414  0.69728337  1
  O  O15  1  0.58065888  0.19030041  0.69374671  1
  O  O16  1  0.01351945  0.83770081  0.69451255  1
  O  O17  1  0.51418959  0.81684197  0.69869699  1
  O  O18  1  0.40272735  0.83498604  0.19414010  1
  O  O19  1  0.90203531  0.82521533  0.19623522  1
  O  O20  1  0.01289424  0.20436090  0.19730471  1
  O  O21  1  0.51341571  0.18874010  0.19402510  1
  O  O22  1  0.08041014  0.96940352  0.19326662  1
  O  O23  1  0.58862754  0.97977910  0.19665835  1
  O  O24  1  0.43313683  0.35605566  0.63929179  1
  O  O25  1  0.93898236  0.35591741  0.63546994  1
  O  O26  1  0.23795042  0.12029522  0.63608751  1
  O  O27  1  0.74080328  0.12570936  0.63485629  1
  O  O28  1  0.31625842  0.50711271  0.64082657  1
  O  O29  1  0.82435273  0.52308203  0.63481638  1
  O  O30  1  0.43906625  0.52224908  0.13540363  1
  O  O31  1  0.93604418  0.52114349  0.13543789  1
  O  O32  1  0.32318255  0.12357893  0.13487976  1
  O  O33  1  0.82110620  0.13407570  0.13976222  1
  O  O34  1  0.23963876  0.35706929  0.13498593  1
  O  O35  1  0.74010204  0.35686649  0.13577434  1
  O  O36  1  0.22007048  0.29817966  0.03135969  1
  O  O37  1  0.72633602  0.30434952  0.03204533  1
  O  O38  1  0.42619022  0.55405721  0.03232037  1
  O  O39  1  0.92729826  0.55441017  0.03087125  1
  O  O40  1  0.34926658  0.14121456  0.03102161  1
  O  O41  1  0.85177074  0.16085965  0.02823203  1
  O  O42  1  0.22310143  0.14584419  0.53183324  1
  O  O43  1  0.72183339  0.14547165  0.53115452  1
  O  O44  1  0.35119368  0.54624150  0.52749550  1
  O  O45  1  0.85050829  0.55751704  0.53094276  1
  O  O46  1  0.42296146  0.29688496  0.52331757  1
  O  O47  1  0.92623041  0.29835339  0.53220756  1
  O  O48  1  0.26960956  0.70231789  0.97244098  1
  O  O49  1  0.77123966  0.69127075  0.96864362  1
  O  O50  1  0.07328526  0.45288671  0.96974251  1
  O  O51  1  0.58405771  0.47139766  0.97354305  1
  O  O52  1  0.14313053  0.83160284  0.97321914  1
  O  O53  1  0.65670622  0.85313382  0.96849061  1
  O  O54  1  0.27096383  0.85119772  0.46767177  1
  O  O55  1  0.76831360  0.83405008  0.47271164  1
  O  O56  1  0.15634129  0.46099704  0.46762813  1
  O  O57  1  0.64339873  0.45412672  0.47174256  1
  O  O58  1  0.08467387  0.69659172  0.47294000  1
  O  O59  1  0.57302465  0.69555782  0.46848771  1
  O  O60  1  0.07442801  0.64205784  0.36037757  1
  O  O61  1  0.55836291  0.63556383  0.36457576  1
  O  O62  1  0.25530337  0.86526793  0.36319977  1
  O  O63  1  0.74936903  0.87349903  0.35913968  1
  O  O64  1  0.18002070  0.49076778  0.36307571  1
  O  O65  1  0.68468925  0.49297193  0.36070001  1
  O  O66  1  0.05756997  0.48152129  0.86558995  1
  O  O67  1  0.57500087  0.50768003  0.86098241  1
  O  O68  1  0.18361756  0.87267988  0.86218365  1
  O  O69  1  0.68132223  0.87374873  0.86389163  1
  O  O70  1  0.24817960  0.62380653  0.86005129  1
  O  O71  1  0.75609912  0.64213810  0.86414892  1
  O  O72  1  0.00998797  0.83204037  0.41004327  1
  O  O73  1  0.51198234  0.82150622  0.41014359  1
  O  O74  1  0.39694235  0.97550983  0.41014143  1
  O  O75  1  0.90644727  0.97251018  0.40832143  1
  O  O76  1  0.09014765  0.21190057  0.40934134  1
  O  O77  1  0.57996002  0.17382534  0.41122339  1
  O  O78  1  0.01111820  0.20323348  0.91161805  1
  O  O79  1  0.50992762  0.18640581  0.91054957  1
  O  O80  1  0.07937068  0.98503803  0.91271930  1
  O  O81  1  0.59038599  0.97116417  0.91032655  1
  O  O82  1  0.40704232  0.84164437  0.90957043  1
  O  O83  1  0.89779868  0.81895137  0.91111385  1
  O  O84  1  0.48897558  0.16347186  0.59239352  1
  O  O85  1  0.99010212  0.17350470  0.59264341  1
  O  O86  1  0.09713670  0.02563842  0.59169859  1
  O  O87  1  0.59761627  0.02167475  0.59293862  1
  O  O88  1  0.42061266  0.81699940  0.59720939  1
  O  O89  1  0.91648484  0.80803074  0.59202655  1
  O  O90  1  0.49033634  0.80695044  0.09269143  1
  O  O91  1  0.98738744  0.80270698  0.09197471  1
  O  O92  1  0.41502568  0.02233445  0.09180768  1
  O  O93  1  0.92084221  0.02106260  0.09635712  1
  O  O94  1  0.09597833  0.17121453  0.09386588  1
  O  O95  1  0.59918840  0.17002176  0.09118517  1
  O  O96  1  0.34591461  0.15392438  0.74215605  1
  O  O97  1  0.84167945  0.16200623  0.74103262  1
  O  O98  1  0.23052582  0.30189325  0.74246011  1
  O  O99  1  0.73904788  0.31725978  0.74160157  1
  O  O100  1  0.42475300  0.53495620  0.74477111  1
  O  O101  1  0.91630352  0.52379551  0.74134160  1
  O  O102  1  0.34148639  0.52130555  0.24050371  1
  O  O103  1  0.84800273  0.53962845  0.23933135  1
  O  O104  1  0.41674903  0.30824367  0.24110861  1
  O  O105  1  0.92534158  0.31503417  0.24092822  1
  O  O106  1  0.23825589  0.15947827  0.24026165  1
  O  O107  1  0.73069148  0.15947635  0.24142714  1
  O  O108  1  0.31769456  0.49345729  0.92468341  1
  O  O109  1  0.82140158  0.51224688  0.92205031  1
  O  O110  1  0.42812266  0.35332418  0.92097306  1
  O  O111  1  0.93345408  0.36433167  0.92450861  1
  O  O112  1  0.25085315  0.14728377  0.92601609  1
  O  O113  1  0.74544925  0.13003861  0.92198866  1
  O  O114  1  0.31853776  0.12728720  0.41880278  1
  O  O115  1  0.81802157  0.14203252  0.42397536  1
  O  O116  1  0.24558762  0.36193654  0.42028066  1
  O  O117  1  0.75129220  0.35350674  0.42476193  1
  O  O118  1  0.43291231  0.50564130  0.42202584  1
  O  O119  1  0.92730862  0.50154471  0.42066229  1
  O  O120  1  0.17182826  0.48051956  0.07835170  1
  O  O121  1  0.67636224  0.48214276  0.07819646  1
  O  O122  1  0.06575918  0.64617791  0.07950285  1
  O  O123  1  0.56643828  0.65036861  0.07772846  1
  O  O124  1  0.25810395  0.86501238  0.07966613  1
  O  O125  1  0.74940279  0.84586746  0.07677507  1
  O  O126  1  0.17459087  0.86869578  0.57791342  1
  O  O127  1  0.67529389  0.86841480  0.57791823  1
  O  O128  1  0.24969708  0.65473271  0.57601624  1
  O  O129  1  0.76037720  0.65343709  0.57954886  1
  O  O130  1  0.06606740  0.48203206  0.57777548  1
  O  O131  1  0.57776336  0.50872758  0.57896918  1
  O  O132  1  0.15162062  0.82200401  0.25901232  1
  O  O133  1  0.65299397  0.84740599  0.25141782  1
  O  O134  1  0.25713277  0.69000661  0.25999890  1
  O  O135  1  0.77153992  0.69865904  0.25063092  1
  O  O136  1  0.08041260  0.46221730  0.25511875  1
  O  O137  1  0.59023253  0.48810189  0.25235445  1
  O  O138  1  0.15172294  0.45761191  0.75226590  1
  O  O139  1  0.65151859  0.47803420  0.75934327  1
  O  O140  1  0.08959180  0.69199382  0.75322755  1
  O  O141  1  0.58082403  0.69644669  0.75757417  1
  O  O142  1  0.27132222  0.84306641  0.75183558  1
  O  O143  1  0.75796786  0.82457249  0.76140914  1
loop_
_geom_bond_atom_site_label_1
_geom_bond_atom_site_label_2
_geom_bond_distance
_geom_bond_site_symmetry_2
Na0 O80 2.411449 1_655
Na0 O111 2.475843 1_555
Na0 O83 2.531070 1_555
Na0 O109 2.603268 1_555
Na0 O9 2.633551 1_555
Na0 O52 2.762264 1_655
Na0 O66 2.818762 1_655
Na0 O39 2.947620 1_556
Na1 O82 2.398268 1_545
Na1 O112 2.469168 1_555
Na1 O79 2.499795 1_555
Na1 O110 2.517178 1_555
Na1 O68 2.835908 1_545
Na1 O10 2.842401 1_555
Na1 O40 2.855215 1_556
Na1 O48 2.872983 1_545
Na2 O108 2.329999 1_555
Na2 O80 2.481108 1_545
Na2 O112 2.482893 1_555
Na2 O78 2.517939 1_555
Na2 O70 2.794505 1_555
Na2 O6 2.805702 1_555
Na2 O36 2.862038 1_556
Na2 O50 2.968819 1_555
Na3 O77 2.446872 1_555
Na3 O118 2.472714 1_555
Na3 O74 2.561582 1_545
Na3 O114 2.631802 1_555
Na3 O46 2.686068 1_555
Na3 O57 2.693653 1_555
Na3 O4 2.784549 1_555
Na3 O61 2.882478 1_555
Na4 O115 2.334543 1_555
Na4 O77 2.480522 1_555
Na4 O117 2.483029 1_555
Na4 O73 2.495600 1_545
Na4 O43 2.820195 1_555
Na4 O63 2.830831 1_545
Na4 O1 2.867674 1_555
Na4 O59 2.910023 1_545
Na5 O75 2.407079 1_555
Na5 O117 2.462911 1_555
Na5 O72 2.524971 1_655
Na5 O119 2.530184 1_555
Na5 O45 2.811134 1_555
Na5 O55 2.831397 1_555
Na5 O65 2.843273 1_555
Na5 O3 2.918815 1_555
Na6 O75 2.551323 1_545
Na6 O72 2.569396 1_645
Na6 O76 2.682039 1_655
Na6 O89 2.757473 1_545
Na6 O86 2.760604 1_655
Na6 O85 2.773963 1_555
Na7 O77 2.567463 1_565
Na7 O84 2.653376 1_565
Na7 O74 2.704689 1_555
Na7 O73 2.706713 1_555
Na7 O88 2.716106 1_555
Na7 O87 2.720976 1_565
Na8 O80 2.488483 1_645
Na8 O78 2.631723 1_655
Na8 O83 2.650338 1_545
Na8 O93 2.734826 1_556
Na8 O94 2.754572 1_656
Na8 O91 2.764287 1_546
Na9 O82 2.486368 1_555
Na9 O79 2.520477 1_565
Na9 O81 2.628298 1_555
Na9 O92 2.789956 1_566
Na9 O95 2.801906 1_566
Na9 O90 2.811453 1_556
Na10 O110 2.538300 1_555
Na10 O108 2.591856 1_555
Na10 O112 2.660382 1_555
Na10 O100 2.694484 1_555
Na10 O98 2.766333 1_555
Na10 O96 2.795689 1_555
Na11 O99 2.488340 1_555
Na11 O97 2.506921 1_555
Na11 O101 2.553417 1_555
Na11 O113 2.801319 1_555
Na11 O109 2.857683 1_555
Na11 O111 2.873892 1_555
Na12 O102 2.563984 1_555
Na12 O106 2.583555 1_555
Na12 O104 2.614110 1_555
Na12 O116 2.716533 1_555
Na12 O114 2.760952 1_555
Na12 O118 2.765736 1_555
Na13 O119 2.461648 1_555
Na13 O115 2.505577 1_555
Na13 O117 2.552548 1_555
Na13 O105 2.845622 1_555
Na13 O107 2.846711 1_555
Na13 O103 2.924236 1_555
Na14 O134 2.608636 1_555
Na14 O124 2.623417 1_555
Na14 O132 2.636099 1_555
Na14 O120 2.682741 1_555
Na14 O122 2.686617 1_555
Na14 O136 2.695684 1_555
Na15 O137 2.455543 1_555
Na15 O133 2.608075 1_555
Na15 O135 2.609175 1_555
Na15 O125 2.634993 1_555
Na15 O123 2.690223 1_555
Na15 O121 2.724701 1_555
Na16 O140 2.509615 1_555
Na16 O128 2.611725 1_555
Na16 O142 2.619824 1_555
Na16 O138 2.635852 1_555
Na16 O130 2.694675 1_555
Na16 O126 2.718591 1_555
Na17 O131 2.408898 1_555
Na17 O129 2.607384 1_555
Na17 O127 2.637459 1_555
Na17 O139 2.732040 1_555
Na17 O141 2.772102 1_555
Na17 O143 2.793112 1_555
O0 Si0 1.581989 1_555
O0 Sc0 1.968142 1_545
O1 S0 1.466187 1_555
O1 Sc1 2.181979 1_555
O2 Si1 1.588558 1_555
O2 Sc1 1.950992 1_565
O3 S1 1.454108 1_555
O3 Sc0 2.238824 1_655
O4 Si2 1.621412 1_555
O4 Sc1 1.936482 1_555
O5 S2 1.427979 1_555
O5 Sc0 2.277138 1_645
O6 S3 1.481264 1_555
O6 Sc2 2.142290 1_445
O7 Si3 1.587096 1_555
O7 Sc3 1.944776 1_555
O8 S4 1.449752 1_555
O8 Sc3 2.218076 1_565
O9 Si4 1.629181 1_655
O9 Sc2 1.931028 1_555
O10 S5 1.468960 1_555
O10 Sc3 2.181834 1_555
O11 Si5 1.595005 1_555
O11 Sc2 1.934328 1_545
O12 S5 1.520769 1_565
O12 Ta1 2.077167 1_565
O13 Si5 1.714220 1_565
O13 Ta0 1.864790 1_555
O14 S3 1.535965 1_555
O14 Ta0 2.058787 1_445
O15 Si3 1.659548 1_555
O15 Ta1 1.920664 1_555
O16 Si4 1.735376 1_555
O16 Ta0 1.837776 1_455
O17 S4 1.474251 1_555
O17 Ta1 2.317827 1_565
O18 Si1 1.726842 1_555
O18 Ta3 1.850136 1_565
O19 S1 1.549210 1_555
O19 Ta2 2.019767 1_655
O20 S2 1.519805 1_455
O20 Ta2 2.115276 1_545
O21 Si2 1.751584 1_555
O21 Ta3 1.831329 1_555
O22 Si0 1.692412 1_565
O22 Ta2 1.891943 1_555
O23 S0 1.531047 1_565
O23 Ta3 2.063935 1_565
O24 Si6 1.609878 1_555
O24 Sc4 1.917948 1_555
O25 S6 1.451999 1_555
O25 Sc5 2.230485 1_555
O26 S7 1.467039 1_555
O26 Sc4 2.158965 1_555
O27 S8 1.448637 1_555
O27 Sc5 2.218550 1_555
O28 Si7 1.613783 1_555
O28 Sc4 1.913927 1_555
O29 S9 1.443916 1_555
O29 Sc5 2.230989 1_555
O30 S10 1.452193 1_555
O30 Sc6 2.234203 1_555
O31 S11 1.469250 1_555
O31 Sc7 2.168181 1_555
O32 S12 1.440174 1_555
O32 Sc6 2.244234 1_555
O33 Si8 1.627394 1_555
O33 Sc7 1.876726 1_555
O34 S13 1.440544 1_555
O34 Sc6 2.263545 1_555
O35 S14 1.479439 1_555
O35 Sc7 2.106920 1_555
O36 S13 1.472416 1_555
O36 Sc8 2.376234 1_554
O37 S14 1.478293 1_555
O37 Sc9 2.140179 1_554
O38 S10 1.471312 1_555
O38 Sc8 2.189188 1_554
O39 S11 1.477937 1_555
O39 Sc9 2.282045 1_554
O40 S12 1.469721 1_555
O40 Sc8 2.333441 1_554
O41 Si8 1.636906 1_555
O41 Sc9 1.889924 1_554
O42 S7 1.476624 1_555
O42 Sc10 2.168503 1_555
O43 S8 1.477908 1_555
O43 Sc11 2.316603 1_555
O44 Si7 1.631675 1_555
O44 Sc10 1.903345 1_555
O45 S9 1.472240 1_555
O45 Sc11 2.323481 1_555
O46 Si6 1.641619 1_555
O46 Sc10 1.983727 1_555
O47 S6 1.472488 1_555
O47 Sc11 2.180980 1_555
O48 Si9 1.651197 1_555
O48 Sc12 1.899222 1_556
O49 S15 1.468543 1_555
O49 Sc13 2.152770 1_556
O50 S16 1.487503 1_555
O50 Sc12 2.169330 1_556
O51 Si10 1.609333 1_555
O51 Sc13 1.932893 1_556
O52 Si11 1.639101 1_555
O52 Sc12 1.935332 1_556
O53 S17 1.475169 1_555
O53 Sc13 2.124020 1_556
O54 S18 1.447024 1_555
O54 Sc14 2.183259 1_555
O55 Si12 1.631530 1_555
O55 Sc15 1.997994 1_555
O56 S19 1.465256 1_555
O56 Sc14 2.146357 1_555
O57 Si13 1.622176 1_555
O57 Sc15 1.951219 1_555
O58 Si14 1.597042 1_555
O58 Sc14 1.958879 1_555
O59 S20 1.476269 1_555
O59 Sc15 2.196933 1_555
O60 Si14 1.703154 1_555
O60 Ta4 1.885786 1_555
O61 S20 1.480531 1_555
O61 Sc16 2.187380 1_555
O62 S18 1.530230 1_555
O62 Ta4 2.035957 1_555
O63 Si12 1.642748 1_555
O63 Sc16 1.992116 1_555
O64 S19 1.518701 1_555
O64 Ta4 2.151592 1_555
O65 Si13 1.633705 1_555
O65 Sc16 1.942780 1_555
O66 S16 1.465610 1_555
O66 Sc17 2.265355 1_555
O67 Si10 1.684025 1_555
O67 Ta5 1.903714 1_555
O68 Si11 1.625642 1_555
O68 Sc17 1.962455 1_555
O69 S17 1.487075 1_555
O69 Ta5 2.236580 1_555
O70 Si9 1.627693 1_555
O70 Sc17 2.013644 1_555
O71 S15 1.495172 1_555
O71 Ta5 2.163689 1_555
O72 Si14 1.623009 1_555
O72 Sc0 1.975866 1_555
O73 S20 1.483208 1_555
O73 Sc1 2.289805 1_565
O74 S18 1.484674 1_555
O74 Sc1 2.201430 1_565
O75 Si12 1.630351 1_555
O75 Sc0 2.030236 1_655
O76 S19 1.470685 1_555
O76 Sc0 2.123337 1_545
O77 Si13 1.654112 1_555
O77 Sc1 2.089765 1_555
O78 S16 1.481289 1_555
O78 Sc2 2.339184 1_445
O79 Si10 1.621487 1_555
O79 Sc3 2.004117 1_555
O80 Si11 1.653714 1_555
O80 Sc2 2.134833 1_455
O81 S17 1.466883 1_555
O81 Sc3 2.172389 1_565
O82 Si9 1.620896 1_555
O82 Sc3 2.069243 1_565
O83 S15 1.490203 1_555
O83 Sc2 2.238077 1_555
O84 Si6 1.724686 1_555
O84 Ta1 1.856114 1_555
O85 S6 1.533565 1_555
O85 Ta0 2.189840 1_545
O86 S7 1.528424 1_555
O86 Ta0 2.180275 1_445
O87 S8 1.549494 1_555
O87 Ta1 2.064632 1_555
O88 Si7 1.686743 1_555
O88 Ta1 1.931450 1_565
O89 S9 1.564194 1_555
O89 Ta0 2.057327 1_555
O90 S10 1.534702 1_555
O90 Ta3 2.185931 1_565
O91 S11 1.542612 1_555
O91 Ta2 2.074714 1_655
O92 S12 1.560352 1_555
O92 Ta3 2.065807 1_555
O93 Si8 1.690080 1_555
O93 Ta2 1.945318 1_645
O94 S13 1.566338 1_555
O94 Ta2 2.052698 1_545
O95 S14 1.512702 1_555
O95 Ta3 2.229328 1_555
O96 S5 1.473917 1_555
O96 Sc4 2.299677 1_555
O97 Si5 1.584795 1_555
O97 Sc5 1.977549 1_555
O98 S3 1.472551 1_555
O98 Sc4 2.273267 1_555
O99 Si3 1.586494 1_555
O99 Sc5 1.986383 1_555
O100 S4 1.481417 1_555
O100 Sc4 2.216449 1_555
O101 Si4 1.596818 1_655
O101 Sc5 1.956168 1_555
O102 Si1 1.583351 1_555
O102 Sc6 1.963322 1_555
O103 S1 1.482487 1_555
O103 Sc7 2.257220 1_555
O104 Si2 1.598809 1_555
O104 Sc6 1.938047 1_555
O105 S2 1.489869 1_555
O105 Sc7 2.184081 1_555
O106 Si0 1.586962 1_555
O106 Sc6 1.981162 1_555
O107 S0 1.491664 1_555
O107 Sc7 2.116284 1_555
O108 Si9 1.634561 1_555
O108 Sc8 1.942748 1_555
O109 S15 1.495486 1_555
O109 Sc9 2.369781 1_555
O110 Si10 1.632700 1_555
O110 Sc8 1.977818 1_555
O111 S16 1.509188 1_655
O111 Sc9 2.164822 1_555
O112 Si11 1.632835 1_545
O112 Sc8 2.024764 1_555
O113 S17 1.502697 1_545
O113 Sc9 2.113655 1_555
O114 S18 1.480278 1_545
O114 Sc10 2.442529 1_555
O115 Si12 1.640430 1_545
O115 Sc11 1.952451 1_555
O116 S19 1.481582 1_555
O116 Sc10 2.320260 1_555
O117 Si13 1.633393 1_555
O117 Sc11 2.036098 1_555
O118 S20 1.498578 1_555
O118 Sc10 2.226935 1_555
O119 Si14 1.627617 1_655
O119 Sc11 2.005678 1_555
O120 S13 1.485676 1_555
O120 Sc12 2.331406 1_555
O121 S14 1.467055 1_555
O121 Sc13 2.225109 1_555
O122 S11 1.468681 1_455
O122 Sc12 2.352825 1_555
O123 S10 1.483173 1_555
O123 Sc13 2.172362 1_555
O124 S12 1.489074 1_565
O124 Sc12 2.209260 1_555
O125 Si8 1.604656 1_565
O125 Sc13 2.047707 1_555
O126 S7 1.469182 1_565
O126 Sc14 2.195296 1_555
O127 S8 1.471394 1_565
O127 Sc15 2.315124 1_555
O128 Si7 1.616846 1_555
O128 Sc14 2.004083 1_555
O129 S9 1.474341 1_555
O129 Sc15 2.214372 1_555
O130 S6 1.480902 1_455
O130 Sc14 2.156575 1_555
O131 Si6 1.606709 1_555
O131 Sc15 2.065426 1_555
O132 Si0 1.700110 1_565
O132 Ta4 1.912129 1_555
O133 S0 1.454951 1_565
O133 Sc16 2.391114 1_555
O134 Si1 1.662613 1_555
O134 Ta4 1.979715 1_555
O135 S1 1.467405 1_555
O135 Sc16 2.281112 1_555
O136 S2 1.514803 1_455
O136 Ta4 2.184364 1_555
O137 Si2 1.610317 1_555
O137 Sc16 2.090705 1_555
O138 S3 1.459359 1_555
O138 Sc17 2.348745 1_555
O139 Si3 1.714820 1_555
O139 Ta5 1.873396 1_555
O140 Si4 1.611886 1_555
O140 Sc17 2.053603 1_555
O141 S4 1.546563 1_555
O141 Ta5 2.048631 1_555
O142 S5 1.476187 1_565
O142 Sc17 2.193527 1_555
O143 Si5 1.666774 1_565
O143 Ta5 1.956935 1_555
