# generated using pymatgen
data_MgMn6O7F5
_symmetry_space_group_name_H-M   'P 1'
_cell_length_a   8.43729396
_cell_length_b   5.84681957
_cell_length_c   6.03223904
_cell_angle_alpha   64.49888138
_cell_angle_beta   62.28256974
_cell_angle_gamma   64.34936302
_symmetry_Int_Tables_number   1
_chemical_formula_structural   MgMn6O7F5
_chemical_formula_sum   'Mg1 Mn6 O7 F5'
_cell_volume   227.46617875
_cell_formula_units_Z   1
loop_
 _symmetry_equiv_pos_site_id
 _symmetry_equiv_pos_as_xyz
  1  'x, y, z'
loop_
 _atom_site_type_symbol
 _atom_site_label
 _atom_site_symmetry_multiplicity
 _atom_site_fract_x
 _atom_site_fract_y
 _atom_site_fract_z
 _atom_site_occupancy
  Mg  Mg0  1  0.66983757  0.34766207  0.82758548  1
  Mn  Mn0  1  0.89591577  0.68699677  0.72214292  1
  Mn  Mn1  1  0.67880856  0.31821645  0.33125047  1
  Mn  Mn2  1  0.32130764  0.66115138  0.65931825  1
  Mn  Mn3  1  0.13790739  0.30658082  0.30550648  1
  Mn  Mn4  1  0.47823035  0.96844306  0.98611225  1
  Mn  Mn5  1  0.01663881  0.01700988  0.98161481  1
  O  O0  1  0.69119308  0.06829885  0.67524737  1
  O  O1  1  0.36155381  0.35187093  0.97108455  1
  O  O2  1  0.94702906  0.25373024  0.17953314  1
  O  O3  1  0.06241580  0.75657982  0.82620010  1
  O  O4  1  0.29812339  0.94386101  0.34396462  1
  O  O5  1  0.64476430  0.60063617  0.00648187  1
  O  O6  1  0.96600638  0.30729481  0.67359668  1
  F  F0  1  0.30973529  0.92343293  0.84814853  1
  F  F1  1  0.59986693  0.61258811  0.52782492  1
  F  F2  1  0.71313140  0.05587633  0.13371846  1
  F  F3  1  0.40765622  0.38272927  0.46286472  1
  F  F4  1  0.04094924  0.69894410  0.29971237  1
loop_
_geom_bond_atom_site_label_1
_geom_bond_atom_site_label_2
_geom_bond_distance
_geom_bond_site_symmetry_2
Mg0 O5 2.070784 1_556
Mg0 O0 2.104394 1_555
Mg0 O6 2.163751 1_555
Mg0 O1 2.320347 1_555
Mn0 O3 2.016924 1_655
Mn0 O5 2.118218 1_556
Mn0 O0 2.147418 1_565
Mn0 O6 2.150849 1_555
Mn1 O2 1.932081 1_555
Mn1 O0 1.977542 1_555
Mn1 O5 1.993616 1_555
Mn2 O3 1.865223 1_555
Mn2 O4 1.935956 1_555
Mn2 O1 2.014020 1_555
Mn3 O4 1.940324 1_545
Mn3 O6 2.010186 1_455
Mn3 O1 2.032724 1_554
Mn3 O2 2.244572 1_455
Mn4 O4 1.964734 1_556
Mn4 O0 1.979164 1_565
Mn4 O5 1.982694 1_556
Mn4 O1 2.000120 1_565
Mn5 O3 1.931278 1_545
Mn5 O2 1.937198 1_456
Mn5 O6 1.977548 1_455
F0 Mn4 2.096664 1_555
F0 Mn5 2.102101 1_565
F0 Mn2 2.220284 1_555
F1 Mg0 1.951184 1_555
F1 Mn2 2.028704 1_555
F1 Mn1 2.200496 1_555
F2 Mg0 1.956874 1_554
F2 Mn1 2.173609 1_555
F2 Mn5 2.222877 1_654
F3 Mn1 1.956460 1_555
F3 Mn2 2.101504 1_555
F4 Mn5 2.036092 1_564
F4 Mn3 2.065433 1_555
F4 Mn0 2.239584 1_455
