# generated using pymatgen
data_KBrO4
_symmetry_space_group_name_H-M   'P 1'
_cell_length_a   6.07594300
_cell_length_b   7.70010600
_cell_length_c   9.17788400
_cell_angle_alpha   90.00000000
_cell_angle_beta   90.00000000
_cell_angle_gamma   90.00000000
_symmetry_Int_Tables_number   1
_chemical_formula_structural   KBrO4
_chemical_formula_sum   'K4 Br4 O16'
_cell_volume   429.39102136
_cell_formula_units_Z   4
loop_
 _symmetry_equiv_pos_site_id
 _symmetry_equiv_pos_as_xyz
  1  'x, y, z'
loop_
 _atom_site_type_symbol
 _atom_site_label
 _atom_site_symmetry_multiplicity
 _atom_site_fract_x
 _atom_site_fract_y
 _atom_site_fract_z
 _atom_site_occupancy
  K  K0  1  0.25000000  0.16271100  0.17758000  1
  K  K1  1  0.75000000  0.83728900  0.82242000  1
  K  K2  1  0.75000000  0.66271100  0.32242000  1
  K  K3  1  0.25000000  0.33728900  0.67758000  1
  Br  Br0  1  0.25000000  0.68405700  0.07010800  1
  Br  Br1  1  0.75000000  0.31594300  0.92989200  1
  Br  Br2  1  0.75000000  0.18405700  0.42989200  1
  Br  Br3  1  0.25000000  0.81594300  0.57010800  1
  O  O0  1  0.52905700  0.30945500  0.41940600  1
  O  O1  1  0.02905700  0.69054500  0.58059400  1
  O  O2  1  0.47094300  0.80945500  0.08059400  1
  O  O3  1  0.97094300  0.19054500  0.91940600  1
  O  O4  1  0.47094300  0.69054500  0.58059400  1
  O  O5  1  0.97094300  0.30945500  0.41940600  1
  O  O6  1  0.52905700  0.19054500  0.91940600  1
  O  O7  1  0.02905700  0.80945500  0.08059400  1
  O  O8  1  0.25000000  0.54704500  0.20826700  1
  O  O9  1  0.75000000  0.45295500  0.79173300  1
  O  O10  1  0.75000000  0.04704500  0.29173300  1
  O  O11  1  0.25000000  0.95295500  0.70826700  1
  O  O12  1  0.25000000  0.57914900  0.91414500  1
  O  O13  1  0.75000000  0.42085100  0.08585500  1
  O  O14  1  0.75000000  0.07914900  0.58585500  1
  O  O15  1  0.25000000  0.92085100  0.41414500  1
loop_
_geom_bond_atom_site_label_1
_geom_bond_atom_site_label_2
_geom_bond_distance
_geom_bond_site_symmetry_2
K0 O15 2.860472 1_545
K0 O6 2.921517 1_554
K0 O3 2.921517 1_454
K0 O8 2.972784 1_555
K0 O0 3.012901 1_555
K0 O5 3.012901 1_455
K0 O7 3.161242 1_545
K0 O2 3.161242 1_545
K0 O10 3.334689 1_555
K0 O10 3.334689 1_455
K1 O14 2.860472 1_565
K1 O7 2.921517 1_656
K1 O2 2.921517 1_556
K1 O9 2.972784 1_555
K1 O1 3.012901 1_655
K1 O4 3.012901 1_555
K1 O3 3.161242 1_565
K1 O6 3.161242 1_565
K1 O11 3.334689 1_555
K1 O11 3.334689 1_655
K2 O13 2.860472 1_555
K2 O1 2.921517 1_655
K2 O4 2.921517 1_555
K2 O10 2.972784 1_565
K2 O7 3.012901 1_655
K2 O2 3.012901 1_555
K2 O0 3.161242 1_555
K2 O5 3.161242 1_555
K2 O8 3.334689 1_655
K2 O8 3.334689 1_555
K3 O12 2.860472 1_555
K3 O0 2.921517 1_555
K3 O5 2.921517 1_455
K3 O11 2.972784 1_545
K3 O3 3.012901 1_455
K3 O6 3.012901 1_555
K3 O1 3.161242 1_555
K3 O4 3.161242 1_555
K3 O9 3.334689 1_555
K3 O9 3.334689 1_455
Br0 O12 1.643618 1_554
Br0 O8 1.649510 1_555
Br0 O2 1.656424 1_555
Br0 O7 1.656424 1_555
Br1 O13 1.643618 1_556
Br1 O9 1.649510 1_555
Br1 O3 1.656424 1_555
Br1 O6 1.656424 1_555
Br2 O14 1.643618 1_555
Br2 O10 1.649510 1_555
Br2 O0 1.656424 1_555
Br2 O5 1.656424 1_555
Br3 O15 1.643618 1_555
Br3 O11 1.649510 1_555
Br3 O4 1.656424 1_555
Br3 O1 1.656424 1_555
