# generated using pymatgen
data_KMgBiO3
_symmetry_space_group_name_H-M   'P 1'
_cell_length_a   4.48396100
_cell_length_b   5.40685100
_cell_length_c   4.48395800
_cell_angle_alpha   90.00000000
_cell_angle_beta   90.00000000
_cell_angle_gamma   90.00000000
_symmetry_Int_Tables_number   1
_chemical_formula_structural   KMgBiO3
_chemical_formula_sum   'K1 Mg1 Bi1 O3'
_cell_volume   108.70956658
_cell_formula_units_Z   1
loop_
 _symmetry_equiv_pos_site_id
 _symmetry_equiv_pos_as_xyz
  1  'x, y, z'
loop_
 _atom_site_type_symbol
 _atom_site_label
 _atom_site_symmetry_multiplicity
 _atom_site_fract_x
 _atom_site_fract_y
 _atom_site_fract_z
 _atom_site_occupancy
  K  K0  1  0.00000000  0.00000000  0.00000000  1
  Mg  Mg0  1  0.00000000  0.50000000  0.00000000  1
  Bi  Bi0  1  0.49999900  0.49999900  0.49999900  1
  O  O0  1  0.49999900  0.49999900  0.00000000  1
  O  O1  1  0.49999900  0.00000000  0.49999900  1
  O  O2  1  0.00000000  0.49999900  0.49999900  1
loop_
_geom_bond_atom_site_label_1
_geom_bond_atom_site_label_2
_geom_bond_distance
_geom_bond_site_symmetry_2
K0 Mg0 2.703425 1_555
K0 Mg0 2.703425 1_545
K0 O1 3.170632 1_555
K0 O1 3.170638 1_554
K0 O1 3.170638 1_455
K0 O1 3.170645 1_454
Mg0 O2 2.241975 1_555
Mg0 O0 2.241976 1_555
Mg0 O2 2.241983 1_554
Mg0 O0 2.241985 1_455
Bi0 O0 2.241975 1_555
Bi0 O2 2.241976 1_555
Bi0 O0 2.241983 1_556
Bi0 O2 2.241985 1_655
Bi0 O1 2.703420 1_555
Bi0 O1 2.703431 1_565
