# generated using pymatgen
data_MgV2O4
_symmetry_space_group_name_H-M   'P 1'
_cell_length_a   3.05828407
_cell_length_b   3.06279545
_cell_length_c   10.55000975
_cell_angle_alpha   90.51090529
_cell_angle_beta   89.70069864
_cell_angle_gamma   120.05095977
_symmetry_Int_Tables_number   1
_chemical_formula_structural   MgV2O4
_chemical_formula_sum   'Mg1 V2 O4'
_cell_volume   85.53397080
_cell_formula_units_Z   1
loop_
 _symmetry_equiv_pos_site_id
 _symmetry_equiv_pos_as_xyz
  1  'x, y, z'
loop_
 _atom_site_type_symbol
 _atom_site_label
 _atom_site_symmetry_multiplicity
 _atom_site_fract_x
 _atom_site_fract_y
 _atom_site_fract_z
 _atom_site_occupancy
  Mg  Mg0  1  0.66913500  0.33522800  0.75169700  1
  V  V0  1  0.99653800  0.99581600  0.49655600  1
  V  V1  1  0.99538400  0.00168000  0.00703900  1
  O  O0  1  0.66306600  0.32718100  0.42070100  1
  O  O1  1  0.66137400  0.33667600  0.08302000  1
  O  O2  1  0.33403000  0.66847300  0.62994400  1
  O  O3  1  0.33381400  0.66671700  0.87350200  1
loop_
_geom_bond_atom_site_label_1
_geom_bond_atom_site_label_2
_geom_bond_distance
_geom_bond_site_symmetry_2
Mg0 O3 2.177051 1_555
Mg0 O2 2.177482 1_545
Mg0 O2 2.178071 1_655
Mg0 O3 2.179753 1_655
Mg0 O3 2.196700 1_545
Mg0 O2 2.196987 1_555
O0 V0 1.936779 1_445
O0 V0 1.939570 1_555
O0 V0 1.941705 1_545
O1 V1 1.937309 1_455
O1 V1 1.940417 1_555
O1 V1 1.941973 1_565
O2 V0 2.247580 1_555
O2 V0 2.263601 1_445
O2 V0 2.264417 1_455
O3 V1 2.248553 1_566
O3 V1 2.264811 1_456
O3 V1 2.265173 1_466
