# generated using pymatgen
data_TaNbSi(PO6)2
_symmetry_space_group_name_H-M   'P 1'
_cell_length_a   8.84091460
_cell_length_b   8.84481040
_cell_length_c   22.77118667
_cell_angle_alpha   89.97458204
_cell_angle_beta   89.98512580
_cell_angle_gamma   120.02765504
_symmetry_Int_Tables_number   1
_chemical_formula_structural   TaNbSi(PO6)2
_chemical_formula_sum   'Ta6 Nb6 Si6 P12 O72'
_cell_volume   1541.63235189
_cell_formula_units_Z   6
loop_
 _symmetry_equiv_pos_site_id
 _symmetry_equiv_pos_as_xyz
  1  'x, y, z'
loop_
 _atom_site_type_symbol
 _atom_site_label
 _atom_site_symmetry_multiplicity
 _atom_site_fract_x
 _atom_site_fract_y
 _atom_site_fract_z
 _atom_site_occupancy
  Ta  Ta0  1  0.99682185  0.99421166  0.85706636  1
  Ta  Ta1  1  0.66530336  0.33032873  0.19007259  1
  Ta  Ta2  1  0.66856543  0.33215933  0.97621410  1
  Ta  Ta3  1  0.33920013  0.66863807  0.02351719  1
  Ta  Ta4  1  0.32994223  0.66833070  0.52369183  1
  Ta  Ta5  1  0.33466426  0.66478075  0.80999636  1
  Nb  Nb0  1  0.99666831  0.99290862  0.35724518  1
  Nb  Nb1  1  0.00306677  0.99572629  0.64279780  1
  Nb  Nb2  1  0.99260553  0.99604867  0.14253091  1
  Nb  Nb3  1  0.66538694  0.33041633  0.69069268  1
  Nb  Nb4  1  0.66311506  0.33187985  0.47605221  1
  Nb  Nb5  1  0.32975395  0.66460672  0.30929572  1
  Si  Si0  1  0.71223105  0.71098950  0.24995022  1
  Si  Si1  1  0.00085384  0.71284588  0.75055090  1
  Si  Si2  1  0.38193603  0.04692033  0.58328415  1
  Si  Si3  1  0.66501040  0.04818312  0.08312926  1
  Si  Si4  1  0.61897884  0.66517616  0.91658878  1
  Si  Si5  1  0.04711960  0.66514738  0.41693242  1
  P  P0  1  0.28521115  0.00080781  0.24981577  1
  P  P1  1  0.99891214  0.28401910  0.24981634  1
  P  P2  1  0.28383502  0.28468758  0.75027248  1
  P  P3  1  0.71529924  0.99914888  0.75034122  1
  P  P4  1  0.95178339  0.33262338  0.58324965  1
  P  P5  1  0.66476220  0.61784419  0.58322589  1
  P  P6  1  0.95211582  0.61679326  0.08313281  1
  P  P7  1  0.38219486  0.33290722  0.08318336  1
  P  P8  1  0.04930688  0.38159944  0.91668736  1
  P  P9  1  0.33319843  0.95116744  0.91672133  1
  P  P10  1  0.61748725  0.95066333  0.41688697  1
  P  P11  1  0.33193490  0.38186679  0.41681093  1
  O  O0  1  0.20298907  0.03263205  0.30476953  1
  O  O1  1  0.83676228  0.80689320  0.30686827  1
  O  O2  1  0.96940114  0.17232192  0.30462792  1
  O  O3  1  0.20018769  0.17169867  0.80495344  1
  O  O4  1  0.97113560  0.80850017  0.80694409  1
  O  O5  1  0.83074180  0.03101600  0.80503940  1
  O  O6  1  0.79733327  0.96953357  0.69557542  1
  O  O7  1  0.17011171  0.20272771  0.69541281  1
  O  O8  1  0.02975267  0.83662189  0.69326344  1
  O  O9  1  0.80713891  0.83659794  0.19312295  1
  O  O10  1  0.03143669  0.20195610  0.19501433  1
  O  O11  1  0.17241369  0.97066018  0.19522653  1
  O  O12  1  0.86952087  0.36627611  0.63805064  1
  O  O13  1  0.50256500  0.13925330  0.64057971  1
  O  O14  1  0.63645942  0.50406726  0.63793643  1
  O  O15  1  0.86556325  0.50286261  0.13780487  1
  O  O16  1  0.63701978  0.13986878  0.14044887  1
  O  O17  1  0.49812538  0.36552116  0.13788791  1
  O  O18  1  0.46901792  0.30521245  0.02862862  1
  O  O19  1  0.83567618  0.53315491  0.02856641  1
  O  O20  1  0.69608792  0.16984618  0.02608404  1
  O  O21  1  0.47258238  0.16918651  0.52620181  1
  O  O22  1  0.69854648  0.53571017  0.52855413  1
  O  O23  1  0.83768790  0.30446311  0.52867934  1
  O  O24  1  0.52497929  0.69563030  0.97350233  1
  O  O25  1  0.16179699  0.46675010  0.97136001  1
  O  O26  1  0.30082226  0.83563811  0.97135447  1
  O  O27  1  0.53433150  0.83558078  0.47151789  1
  O  O28  1  0.30532711  0.46726664  0.47148828  1
  O  O29  1  0.17066578  0.69584017  0.47364551  1
  O  O30  1  0.13915629  0.63691527  0.35957830  1
  O  O31  1  0.50385988  0.86734052  0.36218376  1
  O  O32  1  0.36463673  0.49705701  0.36190426  1
  O  O33  1  0.13320930  0.49765375  0.86194194  1
  O  O34  1  0.36316582  0.86636824  0.86217656  1
  O  O35  1  0.49708771  0.63703167  0.85972918  1
  O  O36  1  0.02803688  0.83822250  0.40696020  1
  O  O37  1  0.80227869  0.97613575  0.40729411  1
  O  O38  1  0.17205537  0.19989170  0.40651349  1
  O  O39  1  0.02736265  0.19982423  0.90577916  1
  O  O40  1  0.17431004  0.97693156  0.90644939  1
  O  O41  1  0.81060985  0.83829837  0.90656082  1
  O  O42  1  0.97265471  0.17204261  0.59360941  1
  O  O43  1  0.18932248  0.02659976  0.59319325  1
  O  O44  1  0.82503096  0.80212603  0.59308843  1
  O  O45  1  0.97589245  0.80074517  0.09295263  1
  O  O46  1  0.83701782  0.02676393  0.09314763  1
  O  O47  1  0.20048330  0.17215363  0.09337927  1
  O  O48  1  0.69328325  0.16097532  0.74113829  1
  O  O49  1  0.46778431  0.30823673  0.74046848  1
  O  O50  1  0.83021003  0.52196874  0.73890042  1
  O  O51  1  0.69156814  0.52102046  0.23856350  1
  O  O52  1  0.83910036  0.30831452  0.23944351  1
  O  O53  1  0.46924124  0.16238553  0.24014213  1
  O  O54  1  0.64292320  0.49725543  0.92818934  1
  O  O55  1  0.86588460  0.36055366  0.92647503  1
  O  O56  1  0.49443867  0.13472315  0.92689761  1
  O  O57  1  0.64020995  0.13430943  0.42650418  1
  O  O58  1  0.49451941  0.36104542  0.42614650  1
  O  O59  1  0.85445958  0.49749969  0.42779841  1
  O  O60  1  0.35781015  0.49286686  0.07300714  1
  O  O61  1  0.13374832  0.63770981  0.07258184  1
  O  O62  1  0.49506372  0.85527286  0.07303729  1
  O  O63  1  0.35988914  0.85503283  0.57316498  1
  O  O64  1  0.50411650  0.63873201  0.57263302  1
  O  O65  1  0.13615284  0.49285501  0.57301820  1
  O  O66  1  0.30902442  0.84076978  0.25989421  1
  O  O67  1  0.52190069  0.69169779  0.26113859  1
  O  O68  1  0.16069740  0.46820056  0.25906528  1
  O  O69  1  0.30666715  0.46876843  0.76004144  1
  O  O70  1  0.17046813  0.69167316  0.76158708  1
  O  O71  1  0.53122312  0.83931654  0.76085955  1
loop_
_geom_bond_atom_site_label_1
_geom_bond_atom_site_label_2
_geom_bond_distance
_geom_bond_site_symmetry_2
Nb0 O36 1.899715 1_655
Nb0 O1 1.922517 1_555
Nb0 O37 2.004508 1_555
Nb0 O38 2.043570 1_665
Nb0 O0 2.058058 1_665
Nb0 O2 2.095996 1_565
Nb1 O43 1.900188 1_565
Nb1 O8 1.920306 1_555
Nb1 O44 1.999019 1_455
Nb1 O42 2.043799 1_465
Nb1 O7 2.065268 1_565
Nb1 O6 2.093609 1_455
Nb2 O46 1.898679 1_565
Nb2 O9 1.920401 1_555
Nb2 O45 2.006670 1_555
Nb2 O47 2.046667 1_665
Nb2 O10 2.058969 1_665
Nb2 O11 2.091734 1_655
Nb3 O50 1.931449 1_555
Nb3 O13 1.949299 1_555
Nb3 O48 1.998730 1_555
Nb3 O49 2.007721 1_555
Nb3 O12 2.054321 1_555
Nb3 O14 2.063796 1_555
Nb4 O59 1.931940 1_555
Nb4 O21 1.945206 1_555
Nb4 O58 1.991264 1_555
Nb4 O57 2.003837 1_555
Nb4 O22 2.052938 1_555
Nb4 O23 2.062095 1_555
Nb5 O67 1.933161 1_555
Nb5 O30 1.948361 1_555
Nb5 O68 1.990984 1_555
Nb5 O66 2.002790 1_555
Nb5 O32 2.045092 1_555
Nb5 O31 2.067735 1_555
O0 P0 1.542132 1_555
O1 Si0 1.636629 1_555
O2 P1 1.530580 1_555
O3 P2 1.534526 1_555
O3 Ta0 2.068231 1_445
O4 Si1 1.630061 1_655
O4 Ta0 1.918537 1_555
O5 P3 1.544520 1_545
O5 Ta0 2.035769 1_545
O6 P3 1.529633 1_555
O7 P2 1.539131 1_555
O8 Si1 1.638340 1_555
O9 Si0 1.636463 1_555
O10 P1 1.541521 1_455
O11 P0 1.531529 1_565
O12 P4 1.546368 1_555
O13 Si2 1.623731 1_555
O14 P5 1.540814 1_555
O15 P6 1.541926 1_555
O15 Ta1 2.042834 1_555
O16 Si3 1.619914 1_555
O16 Ta1 1.938420 1_555
O17 P7 1.546128 1_555
O17 Ta1 2.038257 1_555
O18 P7 1.542859 1_555
O18 Ta2 2.042428 1_554
O19 P6 1.546027 1_555
O19 Ta2 2.034323 1_554
O20 Si3 1.619719 1_555
O20 Ta2 1.938590 1_554
O21 Si2 1.622379 1_555
O22 P5 1.544217 1_555
O23 P4 1.540498 1_555
O24 Si4 1.632961 1_555
O24 Ta3 1.912613 1_556
O25 P8 1.535594 1_555
O25 Ta3 2.063719 1_556
O26 P9 1.542635 1_555
O26 Ta3 2.051347 1_556
O27 P10 1.540644 1_555
O27 Ta4 2.046225 1_555
O28 P11 1.534469 1_555
O28 Ta4 2.058578 1_555
O29 Si5 1.624434 1_555
O29 Ta4 1.919455 1_555
O30 Si5 1.622722 1_555
O31 P10 1.537679 1_555
O32 P11 1.545547 1_555
O33 P8 1.547345 1_555
O33 Ta5 2.029479 1_555
O34 P9 1.541091 1_555
O34 Ta5 2.051049 1_555
O35 Si4 1.622401 1_555
O35 Ta5 1.938578 1_555
O36 Si5 1.637564 1_555
O37 P10 1.548845 1_555
O38 P11 1.538530 1_555
O39 P8 1.540277 1_555
O39 Ta0 2.030062 1_445
O40 P9 1.549313 1_555
O40 Ta0 1.997732 1_455
O41 Si4 1.634082 1_555
O41 Ta0 1.899392 1_555
O42 P4 1.539153 1_555
O43 Si2 1.635991 1_555
O44 P5 1.550441 1_555
O45 P6 1.549010 1_555
O46 Si3 1.639802 1_555
O47 P7 1.539409 1_555
O48 P3 1.552119 1_545
O49 P2 1.548794 1_555
O50 Si1 1.627308 1_655
O51 Si0 1.617720 1_555
O51 Ta1 1.930728 1_555
O52 P1 1.549903 1_555
O52 Ta1 1.990692 1_555
O53 P0 1.552560 1_555
O53 Ta1 1.982804 1_555
O54 Si4 1.623220 1_555
O54 Ta2 1.926045 1_555
O55 P8 1.552947 1_655
O55 Ta2 1.987298 1_555
O56 P9 1.551068 1_545
O56 Ta2 1.998148 1_555
O57 P10 1.549346 1_545
O58 P11 1.552505 1_555
O59 Si5 1.622602 1_655
O60 P7 1.551408 1_555
O60 Ta3 1.992133 1_555
O61 P6 1.540445 1_455
O61 Ta3 2.030696 1_555
O62 Si3 1.629828 1_565
O62 Ta3 1.902947 1_555
O63 Si2 1.625081 1_565
O63 Ta4 1.905364 1_555
O64 P5 1.540191 1_555
O64 Ta4 2.021336 1_555
O65 P4 1.551513 1_455
O65 Ta4 1.985431 1_555
O66 P0 1.548756 1_565
O67 Si0 1.624150 1_555
O68 P1 1.553202 1_455
O69 P2 1.553239 1_555
O69 Ta5 1.983267 1_555
O70 Si1 1.621132 1_555
O70 Ta5 1.930069 1_555
O71 P3 1.549597 1_555
O71 Ta5 1.991846 1_555
