# generated using pymatgen
data_Na30Ta16Zn8Si27(SO16)9
_symmetry_space_group_name_H-M   'P 1'
_cell_length_a   18.05124254
_cell_length_b   9.03360693
_cell_length_c   22.53485933
_cell_angle_alpha   90.07678473
_cell_angle_beta   90.12074246
_cell_angle_gamma   120.16611435
_symmetry_Int_Tables_number   1
_chemical_formula_structural   Na30Ta16Zn8Si27(SO16)9
_chemical_formula_sum   'Na30 Ta16 Zn8 Si27 S9 O144'
_cell_volume   3177.03314070
_cell_formula_units_Z   1
loop_
 _symmetry_equiv_pos_site_id
 _symmetry_equiv_pos_as_xyz
  1  'x, y, z'
loop_
 _atom_site_type_symbol
 _atom_site_label
 _atom_site_symmetry_multiplicity
 _atom_site_fract_x
 _atom_site_fract_y
 _atom_site_fract_z
 _atom_site_occupancy
  Na  Na0  1  0.18345181  0.00736427  0.74295085  1
  Na  Na1  1  0.65619460  0.33788453  0.58727555  1
  Na  Na2  1  0.01309910  0.68271786  0.58760355  1
  Na  Na3  1  0.51135375  0.67934266  0.58756416  1
  Na  Na4  1  0.65578484  0.97381907  0.08621877  1
  Na  Na5  1  0.51023213  0.34349096  0.08714206  1
  Na  Na6  1  0.48205103  0.68048687  0.91040811  1
  Na  Na7  1  0.98406184  0.68301354  0.91133506  1
  Na  Na8  1  0.35569866  0.03194502  0.91598410  1
  Na  Na9  1  0.85591086  0.03267816  0.91381577  1
  Na  Na10  1  0.15990803  0.28861852  0.91600119  1
  Na  Na11  1  0.66024331  0.28787556  0.91371395  1
  Na  Na12  1  0.48297585  0.28483802  0.40921326  1
  Na  Na13  1  0.98384967  0.28833116  0.41556657  1
  Na  Na14  1  0.16055501  0.03351996  0.41515524  1
  Na  Na15  1  0.65974833  0.03209954  0.41338551  1
  Na  Na16  1  0.35695358  0.67939915  0.41439043  1
  Na  Na17  1  0.85542874  0.67891403  0.41419170  1
  Na  Na18  1  0.00005010  0.00916036  0.49581556  1
  Na  Na19  1  0.49625691  0.00123390  0.49384044  1
  Na  Na20  1  0.00089928  -0.00000997  0.99332105  1
  Na  Na21  1  0.49535964  0.99017554  0.99330620  1
  Na  Na22  1  0.34280955  0.35594059  0.82619581  1
  Na  Na23  1  0.83705059  0.34276071  0.82286147  1
  Na  Na24  1  0.33829799  0.33162287  0.32214176  1
  Na  Na25  1  0.83249596  0.33283456  0.32520378  1
  Na  Na26  1  0.16687911  0.66694030  0.16151796  1
  Na  Na27  1  0.66953052  0.66391823  0.16713766  1
  Na  Na28  1  0.16835950  0.65534706  0.66534031  1
  Na  Na29  1  0.67017991  0.67604578  0.66852257  1
  Ta  Ta0  1  0.00131483  0.99647776  0.64384871  1
  Ta  Ta1  1  0.49962805  0.98929418  0.64489632  1
  Ta  Ta2  1  0.00173970  0.99888093  0.14047855  1
  Ta  Ta3  1  0.49754040  0.00864859  0.14406426  1
  Ta  Ta4  1  0.33286050  0.33533361  0.98164907  1
  Ta  Ta5  1  0.83470585  0.33569459  0.98136076  1
  Ta  Ta6  1  0.33384703  0.33240705  0.48152806  1
  Ta  Ta7  1  0.83424021  0.33215944  0.48123942  1
  Ta  Ta8  1  0.16599080  0.66186912  0.02249720  1
  Ta  Ta9  1  0.66887590  0.66721970  0.02056766  1
  Ta  Ta10  1  0.16765236  0.66751316  0.52196372  1
  Ta  Ta11  1  0.66872323  0.67255733  0.52015510  1
  Ta  Ta12  1  0.16691880  0.66735244  0.31393458  1
  Ta  Ta13  1  0.66265171  0.65663344  0.31243224  1
  Ta  Ta14  1  0.16200126  0.66499915  0.81468822  1
  Ta  Ta15  1  0.66291310  0.66829438  0.81300514  1
  Zn  Zn0  1  0.99923923  0.99933000  0.35450924  1
  Zn  Zn1  1  0.49969599  0.01081645  0.35245324  1
  Zn  Zn2  1  0.99670902  0.98549480  0.85396089  1
  Zn  Zn3  1  0.49910256  0.98710602  0.85398252  1
  Zn  Zn4  1  0.34282627  0.35434537  0.67922415  1
  Zn  Zn5  1  0.84049426  0.34807214  0.68038208  1
  Zn  Zn6  1  0.34039861  0.33244630  0.17913230  1
  Zn  Zn7  1  0.83415651  0.33457802  0.17247772  1
  Si  Si0  1  0.49446091  0.29115770  0.25338460  1
  Si  Si1  1  0.99519685  0.69871450  0.75264016  1
  Si  Si2  1  0.49559996  0.69795680  0.75353586  1
  Si  Si3  1  0.47886617  0.32973243  0.58429596  1
  Si  Si4  1  0.97842828  0.33069798  0.58510507  1
  Si  Si5  1  0.19198470  0.04763707  0.58803937  1
  Si  Si6  1  0.69297944  0.04626777  0.58741304  1
  Si  Si7  1  0.32940089  0.61833066  0.58528610  1
  Si  Si8  1  0.83144641  0.62187778  0.58497110  1
  Si  Si9  1  0.47858502  0.62660398  0.08487524  1
  Si  Si10  1  0.97882034  0.61774245  0.08661057  1
  Si  Si11  1  0.32816627  0.04008727  0.08509766  1
  Si  Si12  1  0.83377485  0.04562452  0.08578631  1
  Si  Si13  1  0.19369613  0.33926173  0.08795316  1
  Si  Si14  1  0.69073915  0.33938397  0.08614147  1
  Si  Si15  1  0.30988908  0.66450255  0.91636591  1
  Si  Si16  1  0.81040436  0.66360172  0.91509525  1
  Si  Si17  1  0.02005912  0.37331619  0.91708869  1
  Si  Si18  1  0.52029895  0.37505040  0.91663449  1
  Si  Si19  1  0.16811477  0.95850451  0.91806538  1
  Si  Si20  1  0.66839796  0.95966142  0.91753036  1
  Si  Si21  1  0.31131529  0.95786971  0.41701880  1
  Si  Si22  1  0.81074402  0.95753351  0.41412569  1
  Si  Si23  1  0.16765113  0.37811426  0.41640065  1
  Si  Si24  1  0.66829419  0.37727092  0.41741038  1
  Si  Si25  1  0.02102449  0.66533204  0.41666857  1
  Si  Si26  1  0.52043067  0.66592710  0.41617886  1
  S  S0  1  0.14294857  0.99639257  0.25221740  1
  S  S1  1  0.64730124  0.00073837  0.25132638  1
  S  S2  1  0.35354558  0.71021959  0.25184466  1
  S  S3  1  0.85571695  0.71109114  0.25168707  1
  S  S4  1  0.00025558  0.29050009  0.25164971  1
  S  S5  1  0.14451366  0.29264933  0.75143677  1
  S  S6  1  0.64541972  0.29218696  0.75131545  1
  S  S7  1  0.35457728  0.99824558  0.75152812  1
  S  S8  1  0.85476978  0.99823488  0.75137900  1
  O  O0  1  0.10305185  0.01088769  0.30666711  1
  O  O1  1  0.60567176  0.01354137  0.30552642  1
  O  O2  1  0.40114112  0.78704684  0.30667230  1
  O  O3  1  0.90402704  0.79058691  0.30661197  1
  O  O4  1  0.48967439  0.18930294  0.31272450  1
  O  O5  1  0.99280069  0.19647085  0.30670728  1
  O  O6  1  0.10399523  0.19524337  0.80571572  1
  O  O7  1  0.60291962  0.19593560  0.80529576  1
  O  O8  1  0.48975001  0.79101000  0.81240805  1
  O  O9  1  0.99327273  0.79467399  0.81206861  1
  O  O10  1  0.40346566  0.01917117  0.80614604  1
  O  O11  1  0.90323498  0.01919161  0.80640955  1
  O  O12  1  0.40040219  0.98037275  0.69811481  1
  O  O13  1  0.90098174  0.97759137  0.69848204  1
  O  O14  1  0.08851425  0.20583531  0.69777929  1
  O  O15  1  0.58972547  0.20640073  0.69641582  1
  O  O16  1  0.01391590  0.83478002  0.69397794  1
  O  O17  1  0.51025657  0.82895819  0.69359030  1
  O  O18  1  0.39858546  0.82202382  0.19878711  1
  O  O19  1  0.90056388  0.82275218  0.19893453  1
  O  O20  1  0.01223695  0.20246096  0.19903259  1
  O  O21  1  0.51009352  0.19064587  0.19391331  1
  O  O22  1  0.08682561  0.97214434  0.19921422  1
  O  O23  1  0.59265900  0.97566084  0.19676566  1
  O  O24  1  0.44560984  0.38895736  0.63875201  1
  O  O25  1  0.94528149  0.39226425  0.63908917  1
  O  O26  1  0.24344372  0.11891422  0.64813237  1
  O  O27  1  0.74832350  0.12803402  0.64433840  1
  O  O28  1  0.31027034  0.50805035  0.64260616  1
  O  O29  1  0.80351516  0.49687557  0.63954816  1
  O  O30  1  0.44641568  0.50164815  0.13960178  1
  O  O31  1  0.94304550  0.51114387  0.14519686  1
  O  O32  1  0.31255468  0.11384190  0.14346693  1
  O  O33  1  0.80523484  0.11051441  0.14173004  1
  O  O34  1  0.24917915  0.37116556  0.14535953  1
  O  O35  1  0.74357106  0.37118175  0.14473672  1
  O  O36  1  0.23331568  0.30096045  0.02552791  1
  O  O37  1  0.73196367  0.29769615  0.02585543  1
  O  O38  1  0.41920122  0.53807804  0.02375789  1
  O  O39  1  0.91778761  0.53409738  0.02572051  1
  O  O40  1  0.35203397  0.16700903  0.02490433  1
  O  O41  1  0.84976306  0.16425676  0.02504720  1
  O  O42  1  0.23552924  0.16643130  0.52697082  1
  O  O43  1  0.73292610  0.16711995  0.52557135  1
  O  O44  1  0.35200783  0.53780741  0.52477931  1
  O  O45  1  0.85240532  0.53855485  0.52441512  1
  O  O46  1  0.41906611  0.30071983  0.52335722  1
  O  O47  1  0.91869694  0.30037543  0.52347234  1
  O  O48  1  0.25974517  0.68765688  0.97198132  1
  O  O49  1  0.75986607  0.68600607  0.97186722  1
  O  O50  1  0.08305897  0.47029455  0.97243801  1
  O  O51  1  0.58057445  0.46987105  0.97464902  1
  O  O52  1  0.15387857  0.82770921  0.97158932  1
  O  O53  1  0.65544085  0.83691234  0.97443979  1
  O  O54  1  0.25932327  0.83240016  0.47185469  1
  O  O55  1  0.76209116  0.83425638  0.47143999  1
  O  O56  1  0.15292349  0.47662574  0.47159870  1
  O  O57  1  0.65553081  0.47483172  0.47435455  1
  O  O58  1  0.08094515  0.69325985  0.47433781  1
  O  O59  1  0.58068995  0.69231729  0.47429758  1
  O  O60  1  0.06984146  0.63114696  0.35927538  1
  O  O61  1  0.56903240  0.63004096  0.35979641  1
  O  O62  1  0.24658952  0.86209044  0.35850283  1
  O  O63  1  0.74639160  0.86465532  0.35737910  1
  O  O64  1  0.18496974  0.50852081  0.35837437  1
  O  O65  1  0.68586473  0.50876452  0.36045083  1
  O  O66  1  0.06676543  0.50518397  0.85898422  1
  O  O67  1  0.56907873  0.50760505  0.85985400  1
  O  O68  1  0.18535918  0.86770595  0.85761684  1
  O  O69  1  0.68570367  0.86301603  0.86035539  1
  O  O70  1  0.24589805  0.63049300  0.85800173  1
  O  O71  1  0.74633772  0.62880937  0.85787272  1
  O  O72  1  0.01068997  0.83118265  0.41171116  1
  O  O73  1  0.51066245  0.83221601  0.41085283  1
  O  O74  1  0.40337464  0.97314808  0.41536117  1
  O  O75  1  0.90488008  0.97956289  0.41215268  1
  O  O76  1  0.08447094  0.19111084  0.41131184  1
  O  O77  1  0.58620542  0.18845668  0.41587700  1
  O  O78  1  0.00969737  0.18745099  0.91018267  1
  O  O79  1  0.51102290  0.18942839  0.91098777  1
  O  O80  1  0.08696106  0.98538969  0.91489259  1
  O  O81  1  0.58626305  0.98348993  0.91599773  1
  O  O82  1  0.40318604  0.83321296  0.91499044  1
  O  O83  1  0.90326686  0.83291486  0.91574749  1
  O  O84  1  0.49405022  0.16535500  0.59210902  1
  O  O85  1  0.98893375  0.16098739  0.59281384  1
  O  O86  1  0.09251486  0.02272149  0.59188124  1
  O  O87  1  0.59402465  0.02641336  0.59200790  1
  O  O88  1  0.41970444  0.81282562  0.59130766  1
  O  O89  1  0.92007368  0.81240385  0.59176926  1
  O  O90  1  0.49372919  0.82178654  0.09324848  1
  O  O91  1  0.98880801  0.81381592  0.09378224  1
  O  O92  1  0.41913647  0.02587255  0.09108693  1
  O  O93  1  0.91922166  0.02338131  0.09451812  1
  O  O94  1  0.09430431  0.16295616  0.09521345  1
  O  O95  1  0.59256167  0.16009530  0.09155321  1
  O  O96  1  0.33855340  0.14040419  0.74572379  1
  O  O97  1  0.84098676  0.14234063  0.74437624  1
  O  O98  1  0.22818998  0.30638873  0.74540518  1
  O  O99  1  0.72959730  0.31077993  0.74537606  1
  O  O100  1  0.41507889  0.50925216  0.74704646  1
  O  O101  1  0.91476560  0.51049529  0.74658235  1
  O  O102  1  0.33893906  0.53691826  0.24496382  1
  O  O103  1  0.84317523  0.53878763  0.24631635  1
  O  O104  1  0.41489433  0.32101282  0.24703955  1
  O  O105  1  0.92621307  0.31403763  0.24604599  1
  O  O106  1  0.22904848  0.14479279  0.24638816  1
  O  O107  1  0.73307121  0.15070259  0.24634603  1
  O  O108  1  0.31569588  0.48770489  0.92207397  1
  O  O109  1  0.81604817  0.48765781  0.92324412  1
  O  O110  1  0.42745856  0.36703346  0.92205001  1
  O  O111  1  0.92740747  0.36654282  0.92267657  1
  O  O112  1  0.25770954  0.14501555  0.92248759  1
  O  O113  1  0.75751221  0.14571856  0.92249443  1
  O  O114  1  0.31493240  0.14342518  0.42213497  1
  O  O115  1  0.81620255  0.14485392  0.42244872  1
  O  O116  1  0.25588238  0.36805908  0.42276771  1
  O  O117  1  0.75753921  0.36947286  0.42239601  1
  O  O118  1  0.42716361  0.48811852  0.42231131  1
  O  O119  1  0.92765469  0.48686033  0.42111272  1
  O  O120  1  0.17418240  0.49426133  0.07402434  1
  O  O121  1  0.66860897  0.49255633  0.07501535  1
  O  O122  1  0.07460462  0.65184429  0.07313996  1
  O  O123  1  0.57627245  0.65721482  0.07231931  1
  O  O124  1  0.25095956  0.84677673  0.07288633  1
  O  O125  1  0.75096139  0.85330104  0.07285346  1
  O  O126  1  0.17012056  0.84932747  0.57474605  1
  O  O127  1  0.66967847  0.84762624  0.57494971  1
  O  O128  1  0.25150058  0.65583645  0.57296249  1
  O  O129  1  0.75011990  0.65058472  0.57237683  1
  O  O130  1  0.07362292  0.49864043  0.57142895  1
  O  O131  1  0.57616248  0.49666751  0.57186985  1
  O  O132  1  0.14848762  0.83151150  0.25467185  1
  O  O133  1  0.65298518  0.83730108  0.25380668  1
  O  O134  1  0.26598494  0.70242742  0.25435578  1
  O  O135  1  0.76902570  0.70227737  0.25416768  1
  O  O136  1  0.08298423  0.46703675  0.25462814  1
  O  O137  1  0.58964065  0.48430643  0.25561766  1
  O  O138  1  0.15231402  0.46743495  0.75356522  1
  O  O139  1  0.65133495  0.46672708  0.75319317  1
  O  O140  1  0.09215463  0.70055606  0.75440114  1
  O  O141  1  0.58991695  0.69463437  0.75541054  1
  O  O142  1  0.26758304  0.83292926  0.75274820  1
  O  O143  1  0.76877749  0.83122268  0.75350036  1
loop_
_geom_bond_atom_site_label_1
_geom_bond_atom_site_label_2
_geom_bond_distance
_geom_bond_site_symmetry_2
Na0 O26 2.381712 1_555
Na0 O98 2.399808 1_555
Na0 O140 2.424335 1_545
Na0 O96 2.429891 1_555
Na0 O142 2.691246 1_545
Na0 O16 2.863601 1_545
Na0 O68 2.884761 1_545
Na1 O87 2.452663 1_555
Na1 O129 2.481617 1_555
Na1 O131 2.519309 1_555
Na1 O84 2.534741 1_555
Na1 O29 2.581865 1_555
Na1 O15 2.736304 1_555
Na1 O57 2.833571 1_555
Na1 O43 2.895069 1_555
Na2 O130 2.432607 1_555
Na2 O126 2.469899 1_555
Na2 O89 2.485679 1_455
Na2 O25 2.552500 1_455
Na2 O86 2.659259 1_565
Na2 O16 2.757553 1_555
Na2 O58 2.814333 1_555
Na2 O45 2.884240 1_455
Na3 O131 2.481396 1_555
Na3 O127 2.489549 1_555
Na3 O88 2.490657 1_555
Na3 O24 2.550573 1_555
Na3 O87 2.713547 1_565
Na3 O17 2.748500 1_555
Na3 O59 2.821714 1_555
Na3 O44 2.862174 1_555
Na4 O95 2.465496 1_565
Na4 O125 2.471614 1_555
Na4 O123 2.491642 1_555
Na4 O90 2.536434 1_555
Na4 O33 2.645977 1_565
Na4 O23 2.745089 1_555
Na4 O53 2.803294 1_554
Na4 O37 2.876901 1_565
Na5 O123 2.484621 1_555
Na5 O121 2.489273 1_555
Na5 O92 2.490770 1_555
Na5 O30 2.533998 1_555
Na5 O95 2.727192 1_555
Na5 O21 2.775088 1_555
Na5 O51 2.811834 1_554
Na5 O40 2.839929 1_555
Na6 O8 2.400213 1_555
Na6 O81 2.422820 1_555
Na6 O82 2.432081 1_555
Na6 O110 2.501327 1_555
Na6 O108 2.620723 1_555
Na6 O38 2.832113 1_556
Na6 O67 2.945051 1_555
Na7 O80 2.411954 1_655
Na7 O9 2.426550 1_555
Na7 O83 2.440451 1_555
Na7 O111 2.519727 1_555
Na7 O109 2.647678 1_555
Na7 O39 2.879252 1_556
Na7 O66 2.934926 1_655
Na7 O52 2.983233 1_655
Na8 O82 2.346252 1_545
Na8 O79 2.427098 1_555
Na8 O112 2.451540 1_555
Na8 O110 2.630031 1_555
Na8 O10 2.644157 1_555
Na8 O40 2.755252 1_556
Na8 O68 2.962889 1_545
Na8 O48 2.978462 1_545
Na9 O83 2.353629 1_545
Na9 O78 2.401746 1_655
Na9 O113 2.461668 1_555
Na9 O11 2.591406 1_555
Na9 O111 2.624329 1_555
Na9 O41 2.798907 1_556
Na9 O69 2.913273 1_545
Na9 O49 3.014710 1_545
Na10 O80 2.369096 1_545
Na10 O78 2.390039 1_555
Na10 O108 2.465003 1_555
Na10 O6 2.652344 1_555
Na10 O112 2.668733 1_555
Na10 O36 2.774379 1_556
Na10 O50 2.919813 1_555
Na10 O70 2.976093 1_555
Na11 O79 2.375260 1_555
Na11 O81 2.378463 1_545
Na11 O109 2.471514 1_555
Na11 O7 2.617230 1_555
Na11 O113 2.652651 1_555
Na11 O37 2.817861 1_556
Na11 O71 2.948302 1_555
Na11 O51 3.005873 1_555
Na12 O4 2.363945 1_555
Na12 O77 2.425428 1_555
Na12 O74 2.438787 1_545
Na12 O118 2.516648 1_555
Na12 O114 2.651114 1_555
Na12 O46 2.854060 1_555
Na12 O61 2.919911 1_555
Na13 O76 2.383971 1_655
Na13 O75 2.412673 1_545
Na13 O119 2.467654 1_555
Na13 O5 2.619835 1_555
Na13 O115 2.631078 1_555
Na13 O47 2.729075 1_555
Na13 O56 2.926246 1_655
Na13 O60 2.965935 1_655
Na14 O72 2.386327 1_545
Na14 O76 2.425961 1_555
Na14 O114 2.448119 1_555
Na14 O0 2.621222 1_555
Na14 O116 2.625735 1_555
Na14 O42 2.822548 1_555
Na14 O62 2.976606 1_545
Na14 O58 2.978527 1_545
Na15 O73 2.370966 1_545
Na15 O77 2.375964 1_555
Na15 O115 2.482176 1_555
Na15 O1 2.590980 1_555
Na15 O117 2.652487 1_555
Na15 O43 2.825290 1_555
Na15 O63 2.950919 1_545
Na15 O59 2.993241 1_545
Na16 O74 2.347191 1_555
Na16 O73 2.400493 1_555
Na16 O116 2.473939 1_555
Na16 O2 2.590203 1_555
Na16 O118 2.612425 1_555
Na16 O44 2.779725 1_555
Na17 O75 2.395670 1_555
Na17 O72 2.424146 1_655
Na17 O117 2.451356 1_555
Na17 O3 2.605873 1_555
Na17 O119 2.647134 1_555
Na17 O45 2.778443 1_555
Na17 O65 2.906718 1_555
Na17 O55 2.975375 1_555
Na18 O75 2.469946 1_445
Na18 O76 2.480618 1_555
Na18 O72 2.552968 1_545
Na18 O85 2.640024 1_455
Na18 O86 2.695542 1_555
Na18 O89 2.713585 1_445
Na19 O74 2.358374 1_545
Na19 O77 2.417352 1_555
Na19 O73 2.507911 1_545
Na19 O84 2.674790 1_555
Na19 O88 2.699938 1_545
Na19 O87 2.763855 1_555
Na20 O83 2.397185 1_445
Na20 O80 2.402356 1_545
Na20 O78 2.478406 1_555
Na20 O91 2.764902 1_446
Na20 O93 2.782975 1_456
Na20 O94 2.786097 1_556
Na21 O82 2.345938 1_555
Na21 O81 2.417161 1_555
Na21 O79 2.502134 1_565
Na21 O92 2.703563 1_566
Na21 O90 2.711383 1_556
Na21 O95 2.757585 1_566
Na22 O100 2.236487 1_555
Na22 O110 2.615792 1_555
Na22 O98 2.616673 1_555
Na22 O108 2.628239 1_555
Na22 O96 2.631560 1_555
Na22 O112 2.789691 1_555
Na23 O101 2.258215 1_555
Na23 O99 2.513145 1_555
Na23 O97 2.555854 1_555
Na23 O111 2.719743 1_555
Na23 O109 2.732877 1_555
Na23 O113 2.779681 1_555
Na24 O104 2.219871 1_555
Na24 O106 2.506952 1_555
Na24 O102 2.539976 1_555
Na24 O118 2.713724 1_555
Na24 O114 2.727521 1_555
Na24 O116 2.822752 1_555
Na25 O107 2.469218 1_555
Na25 O103 2.511723 1_555
Na25 O105 2.524540 1_555
Na25 O119 2.670590 1_555
Na25 O117 2.682906 1_555
Na25 O115 2.698734 1_555
Na26 O124 2.544686 1_555
Na26 O122 2.552737 1_555
Na26 O120 2.556887 1_555
Na26 O134 2.661974 1_555
Na26 O132 2.686578 1_555
Na26 O136 2.689257 1_555
Na27 O137 2.521322 1_555
Na27 O135 2.559283 1_555
Na27 O121 2.582947 1_555
Na27 O133 2.611763 1_555
Na27 O125 2.664085 1_555
Na27 O123 2.699109 1_555
Na28 O138 2.536828 1_555
Na28 O128 2.567588 1_555
Na28 O140 2.580899 1_555
Na28 O142 2.598134 1_555
Na28 O130 2.636439 1_555
Na28 O126 2.682058 1_555
Na29 O141 2.493339 1_555
Na29 O143 2.504164 1_555
Na29 O139 2.588009 1_555
Na29 O127 2.621401 1_555
Na29 O129 2.678599 1_555
Na29 O131 2.731494 1_555
O0 S0 1.462687 1_545
O0 Zn0 2.120635 1_445
O1 S1 1.469934 1_555
O1 Zn1 2.177087 1_555
O2 S2 1.462985 1_555
O2 Zn1 2.165170 1_565
O3 S3 1.473715 1_555
O3 Zn0 2.098648 1_555
O4 Si0 1.601909 1_555
O4 Zn1 1.931410 1_555
O5 S4 1.472294 1_655
O5 Zn0 2.134972 1_545
O6 S5 1.471466 1_555
O6 Zn2 2.202106 1_445
O7 S6 1.469923 1_555
O7 Zn3 2.176164 1_545
O8 Si2 1.601454 1_555
O8 Zn3 1.933547 1_555
O9 Si1 1.604209 1_555
O9 Zn2 1.937645 1_555
O10 S7 1.468523 1_545
O10 Zn3 2.172986 1_545
O11 S8 1.472216 1_545
O11 Zn2 2.144160 1_545
O12 S7 1.515594 1_555
O12 Ta1 2.125371 1_555
O13 S8 1.520362 1_555
O13 Ta0 2.127081 1_655
O14 S5 1.514767 1_555
O14 Ta0 2.127297 1_545
O15 S6 1.533303 1_555
O15 Ta1 2.149348 1_545
O16 Si1 1.720864 1_455
O16 Ta0 1.949055 1_555
O17 Si2 1.728129 1_555
O17 Ta1 1.903013 1_555
O18 S2 1.514176 1_555
O18 Ta3 2.131192 1_565
O19 S3 1.507515 1_555
O19 Ta2 2.167410 1_655
O20 S4 1.502216 1_555
O20 Ta2 2.191202 1_545
O21 Si0 1.719297 1_555
O21 Ta3 1.906788 1_555
O22 S0 1.507361 1_555
O22 Ta2 2.129407 1_555
O23 S1 1.518391 1_565
O23 Ta3 2.225747 1_565
O24 Si3 1.573747 1_555
O24 Zn4 1.948547 1_555
O25 Si4 1.575742 1_555
O25 Zn5 1.962824 1_555
O26 Si5 1.581936 1_555
O26 Zn4 2.094913 1_555
O27 Si6 1.561945 1_555
O27 Zn5 2.011280 1_555
O28 Si7 1.561982 1_555
O28 Zn4 1.943029 1_555
O29 Si8 1.573564 1_555
O29 Zn5 2.000453 1_555
O30 Si9 1.574893 1_555
O30 Zn6 1.965521 1_555
O31 Si10 1.571424 1_555
O31 Zn7 1.908507 1_555
O32 Si11 1.562490 1_555
O32 Zn6 1.948041 1_555
O33 Si12 1.581968 1_555
O33 Zn7 1.944824 1_555
O34 Si13 1.569426 1_555
O34 Zn6 1.996798 1_555
O35 Si14 1.566502 1_555
O35 Zn7 1.927072 1_555
O36 Si13 1.691674 1_555
O36 Ta4 1.936640 1_554
O37 Si14 1.680996 1_555
O37 Ta5 1.982869 1_554
O38 Si9 1.677726 1_555
O38 Ta4 1.950449 1_554
O39 Si10 1.679799 1_555
O39 Ta5 1.936032 1_554
O40 Si11 1.688297 1_555
O40 Ta4 1.978271 1_554
O41 Si12 1.673322 1_555
O41 Ta5 1.966606 1_554
O42 Si5 1.680502 1_555
O42 Ta6 1.945235 1_555
O43 Si6 1.694425 1_555
O43 Ta7 1.958794 1_555
O44 Si7 1.689039 1_555
O44 Ta6 1.970484 1_555
O45 Si8 1.690420 1_555
O45 Ta7 1.977337 1_555
O46 Si3 1.681723 1_555
O46 Ta6 1.942684 1_555
O47 Si4 1.691875 1_555
O47 Ta7 1.935716 1_555
O48 Si15 1.621156 1_555
O48 Ta8 1.956249 1_556
O49 Si16 1.643088 1_555
O49 Ta9 1.912832 1_556
O50 Si17 1.614408 1_555
O50 Ta8 1.972950 1_556
O51 Si18 1.637395 1_555
O51 Ta9 1.980378 1_556
O52 Si19 1.617678 1_555
O52 Ta8 1.985202 1_556
O53 Si20 1.635047 1_555
O53 Ta9 1.966235 1_556
O54 Si21 1.622363 1_555
O54 Ta10 1.940939 1_555
O55 Si22 1.644791 1_555
O55 Ta11 1.928025 1_555
O56 Si23 1.626672 1_555
O56 Ta10 1.965989 1_555
O57 Si24 1.636698 1_555
O57 Ta11 1.969495 1_555
O58 Si25 1.625244 1_555
O58 Ta10 2.003788 1_555
O59 Si26 1.639478 1_555
O59 Ta11 1.975777 1_555
O60 Si25 1.679842 1_555
O60 Ta12 1.911585 1_555
O61 Si26 1.666904 1_555
O61 Ta13 1.911317 1_555
O62 Si21 1.681378 1_555
O62 Ta12 1.902163 1_555
O63 Si22 1.643158 1_555
O63 Ta13 1.993944 1_555
O64 Si23 1.682585 1_555
O64 Ta12 1.907912 1_555
O65 Si24 1.669232 1_555
O65 Ta13 1.922326 1_555
O66 Si17 1.686358 1_555
O66 Ta14 1.884893 1_555
O67 Si18 1.672009 1_555
O67 Ta15 1.905601 1_555
O68 Si19 1.697255 1_555
O68 Ta14 1.919475 1_555
O69 Si20 1.671122 1_555
O69 Ta15 1.915162 1_555
O70 Si15 1.671634 1_555
O70 Ta14 1.952544 1_555
O71 Si16 1.651173 1_555
O71 Ta15 1.987889 1_555
O72 Si25 1.604129 1_555
O72 Zn0 2.081179 1_455
O73 Si26 1.602707 1_555
O73 Zn1 2.167897 1_565
O74 Si21 1.597418 1_555
O74 Zn1 2.136738 1_565
O75 Si22 1.609220 1_555
O75 Zn0 2.079603 1_555
O76 Si23 1.603424 1_555
O76 Zn0 2.077009 1_445
O77 Si24 1.601790 1_555
O77 Zn1 2.126600 1_555
O78 Si17 1.600596 1_555
O78 Zn2 2.133356 1_445
O79 Si18 1.604108 1_555
O79 Zn3 2.152740 1_545
O80 Si19 1.602274 1_555
O80 Zn2 2.128771 1_455
O81 Si20 1.601966 1_555
O81 Zn3 2.114720 1_555
O82 Si15 1.606476 1_555
O82 Zn3 2.101574 1_555
O83 Si16 1.603939 1_555
O83 Zn2 2.088554 1_555
O84 Si3 1.649442 1_555
O84 Ta1 2.029843 1_545
O85 Si4 1.645994 1_555
O85 Ta0 1.979504 1_645
O86 Si5 1.696087 1_555
O86 Ta0 1.937646 1_545
O87 Si6 1.706590 1_555
O87 Ta1 1.967696 1_545
O88 Si7 1.697831 1_555
O88 Ta1 1.938331 1_555
O89 Si8 1.666181 1_555
O89 Ta0 1.956976 1_655
O90 Si9 1.653385 1_555
O90 Ta3 2.010794 1_565
O91 Si10 1.695323 1_555
O91 Ta2 1.886474 1_655
O92 Si11 1.715318 1_555
O92 Ta3 1.914991 1_555
O93 Si12 1.663871 1_555
O93 Ta2 1.914653 1_645
O94 Si13 1.706590 1_555
O94 Ta2 1.884546 1_545
O95 Si14 1.701628 1_555
O95 Ta3 1.966863 1_555
O96 S7 1.457247 1_545
O96 Zn4 2.417694 1_555
O97 S8 1.451679 1_545
O97 Zn5 2.357430 1_555
O98 S5 1.458722 1_555
O98 Zn4 2.409933 1_555
O99 S6 1.448949 1_555
O99 Zn5 2.366825 1_555
O100 Si2 1.596323 1_555
O100 Zn4 2.036365 1_555
O101 Si1 1.592212 1_555
O101 Zn5 2.045608 1_555
O102 S2 1.459039 1_555
O102 Zn6 2.378037 1_555
O103 S3 1.460783 1_555
O103 Zn7 2.426337 1_555
O104 Si0 1.595185 1_555
O104 Zn6 2.071736 1_555
O105 S4 1.460317 1_655
O105 Zn7 2.417305 1_555
O106 S0 1.461960 1_545
O106 Zn6 2.409591 1_555
O107 S1 1.462230 1_555
O107 Zn7 2.415301 1_555
O108 Si15 1.657429 1_555
O108 Ta4 2.055439 1_555
O109 Si16 1.653409 1_555
O109 Ta5 2.044688 1_555
O110 Si18 1.645489 1_555
O110 Ta4 2.078699 1_555
O111 Si17 1.647677 1_655
O111 Ta5 2.041655 1_555
O112 Si19 1.650644 1_545
O112 Ta4 2.053236 1_555
O113 Si20 1.645178 1_545
O113 Ta5 2.056541 1_555
O114 Si21 1.648264 1_545
O114 Ta6 2.056346 1_555
O115 Si22 1.655251 1_545
O115 Ta7 2.040272 1_555
O116 Si23 1.646192 1_555
O116 Ta6 2.070411 1_555
O117 Si24 1.651110 1_555
O117 Ta7 2.061902 1_555
O118 Si26 1.648439 1_555
O118 Ta6 2.056696 1_555
O119 Si25 1.649315 1_655
O119 Ta7 2.068496 1_555
O120 Si13 1.636943 1_555
O120 Ta8 1.972729 1_555
O121 Si14 1.641068 1_555
O121 Ta9 1.998158 1_555
O122 Si10 1.625952 1_455
O122 Ta8 1.972299 1_555
O123 Si9 1.666817 1_555
O123 Ta9 2.004784 1_555
O124 Si11 1.618243 1_565
O124 Ta8 1.960812 1_555
O125 Si12 1.650664 1_565
O125 Ta9 1.973222 1_555
O126 Si5 1.655982 1_565
O126 Ta10 2.008821 1_555
O127 Si6 1.647860 1_565
O127 Ta11 1.998355 1_555
O128 Si7 1.626881 1_555
O128 Ta10 1.943252 1_555
O129 Si8 1.638295 1_555
O129 Ta11 1.967130 1_555
O130 Si4 1.653146 1_455
O130 Ta10 1.964931 1_555
O131 Si3 1.666899 1_555
O131 Ta11 2.004871 1_555
O132 S0 1.543195 1_555
O132 Ta12 2.143041 1_555
O133 S1 1.531644 1_565
O133 Ta13 2.174974 1_555
O134 S2 1.547564 1_555
O134 Ta12 2.131353 1_555
O135 S3 1.527576 1_555
O135 Ta13 2.190297 1_555
O136 S4 1.543916 1_555
O136 Ta12 2.141445 1_555
O137 Si0 1.727836 1_555
O137 Ta13 1.930064 1_555
O138 S5 1.513777 1_555
O138 Ta14 2.189009 1_555
O139 S6 1.526387 1_555
O139 Ta15 2.187637 1_555
O140 Si1 1.742276 1_455
O140 Ta14 1.984815 1_555
O141 Si2 1.718249 1_555
O141 Ta15 1.945793 1_555
O142 S7 1.529828 1_555
O142 Ta14 2.234532 1_555
O143 S8 1.528031 1_555
O143 Ta15 2.192162 1_555
