# generated using pymatgen
data_Na8La3NbSi5SO24
_symmetry_space_group_name_H-M   'P 1'
_cell_length_a   9.66927382
_cell_length_b   9.65586715
_cell_length_c   23.38127037
_cell_angle_alpha   90.03180427
_cell_angle_beta   90.27428899
_cell_angle_gamma   119.96808489
_symmetry_Int_Tables_number   1
_chemical_formula_structural   Na8La3NbSi5SO24
_chemical_formula_sum   'Na24 La9 Nb3 Si15 S3 O72'
_cell_volume   1891.10640918
_cell_formula_units_Z   3
loop_
 _symmetry_equiv_pos_site_id
 _symmetry_equiv_pos_as_xyz
  1  'x, y, z'
loop_
 _atom_site_type_symbol
 _atom_site_label
 _atom_site_symmetry_multiplicity
 _atom_site_fract_x
 _atom_site_fract_y
 _atom_site_fract_z
 _atom_site_occupancy
  Na  Na0  1  0.61209557  0.99718625  0.25285937  1
  Na  Na1  1  0.36963469  0.35028669  0.25837567  1
  Na  Na2  1  0.01920391  0.64811727  0.24737149  1
  Na  Na3  1  0.63718676  0.62670763  0.74783654  1
  Na  Na4  1  0.01211184  0.37062814  0.73623076  1
  Na  Na5  1  0.35092424  -0.00011070  0.74161555  1
  Na  Na6  1  0.29934455  0.34497935  0.57740820  1
  Na  Na7  1  0.04294534  0.70058226  0.57788017  1
  Na  Na8  1  0.66239662  0.95817984  0.57265498  1
  Na  Na9  1  0.30230875  0.95488371  0.07717728  1
  Na  Na10  1  0.65541792  0.70039612  0.07200135  1
  Na  Na11  1  0.04382940  0.34333060  0.07250462  1
  Na  Na12  1  0.96286262  0.67248584  0.91314965  1
  Na  Na13  1  0.70076386  0.02581518  0.91962623  1
  Na  Na14  1  0.32912817  0.29476029  0.91200532  1
  Na  Na15  1  0.97133984  0.30707402  0.42693320  1
  Na  Na16  1  0.33957466  0.03413559  0.42112099  1
  Na  Na17  1  0.69103123  0.66381804  0.42713462  1
  Na  Na18  1  0.99885354  0.00090095  0.50174866  1
  Na  Na19  1  0.99826994  0.99864564  0.99862310  1
  Na  Na20  1  0.66703704  0.34970196  0.83386467  1
  Na  Na21  1  0.64830552  0.31586381  0.34512193  1
  Na  Na22  1  0.33163098  0.68258296  0.15819807  1
  Na  Na23  1  0.32795593  0.66260913  0.65439915  1
  La  La0  1  0.00830147  0.00008687  0.35223417  1
  La  La1  1  0.00577907  0.99850249  0.84661064  1
  La  La2  1  0.01674650  0.00483901  0.64761166  1
  La  La3  1  0.01069819  0.99759571  0.14118388  1
  La  La4  1  0.66835466  0.34101167  0.67945113  1
  La  La5  1  0.65937941  0.32652193  0.17687143  1
  La  La6  1  0.33169699  0.66577697  0.00992901  1
  La  La7  1  0.33317475  0.66881023  0.51186638  1
  La  La8  1  0.33094047  0.67436418  0.32968256  1
  Nb  Nb0  1  0.66435395  0.33238490  0.98179876  1
  Nb  Nb1  1  0.66702997  0.33397866  0.48676523  1
  Nb  Nb2  1  0.31824848  0.65329854  0.82494835  1
  Si  Si0  1  0.30938552  0.99473530  0.24931070  1
  Si  Si1  1  0.30998331  0.32280740  0.75529212  1
  Si  Si2  1  0.01285254  0.68993645  0.75457856  1
  Si  Si3  1  0.96123349  0.32816589  0.58362771  1
  Si  Si4  1  0.37189453  0.04022258  0.58371626  1
  Si  Si5  1  0.67173638  0.63557489  0.58288785  1
  Si  Si6  1  0.95686210  0.62568184  0.08143565  1
  Si  Si7  1  0.67189545  0.04001294  0.07976532  1
  Si  Si8  1  0.37048516  0.33208429  0.07958411  1
  Si  Si9  1  0.62836588  0.65578878  0.91883595  1
  Si  Si10  1  0.01684664  0.36337883  0.91999590  1
  Si  Si11  1  0.34678481  0.97439217  0.91823346  1
  Si  Si12  1  0.64767163  0.99143272  0.41841968  1
  Si  Si13  1  0.34620258  0.35821482  0.41748565  1
  Si  Si14  1  0.00661633  0.65200654  0.41768720  1
  S  S0  1  0.68901202  0.69539916  0.24908884  1
  S  S1  1  0.00562448  0.30982726  0.24885524  1
  S  S2  1  0.67737484  0.98356885  0.75278943  1
  O  O0  1  0.21663209  0.00875184  0.30537981  1
  O  O1  1  0.78005617  0.78173886  0.30126964  1
  O  O2  1  0.99152780  0.21450467  0.30078405  1
  O  O3  1  0.22621208  0.21444963  0.81113835  1
  O  O4  1  0.97524229  0.76683519  0.80988539  1
  O  O5  1  0.77576455  0.00678052  0.80478470  1
  O  O6  1  0.75976226  0.96774252  0.70175521  1
  O  O7  1  0.19418521  0.24684321  0.69853203  1
  O  O8  1  0.05157453  0.80699387  0.69846957  1
  O  O9  1  0.77277177  0.78990951  0.19760663  1
  O  O10  1  0.00965581  0.22233517  0.19720106  1
  O  O11  1  0.20286560  0.97982544  0.19164185  1
  O  O12  1  0.88896710  0.34211156  0.64439892  1
  O  O13  1  0.45639457  0.10989557  0.64534125  1
  O  O14  1  0.65553881  0.54960521  0.64413449  1
  O  O15  1  0.88546336  0.54038980  0.14249677  1
  O  O16  1  0.65797627  0.11338490  0.14053258  1
  O  O17  1  0.45965957  0.34923396  0.14019649  1
  O  O18  1  0.49064979  0.32637797  0.02616294  1
  O  O19  1  0.83223647  0.50495387  0.02752126  1
  O  O20  1  0.67344267  0.16413022  0.02595237  1
  O  O21  1  0.49218128  0.16220486  0.53130535  1
  O  O22  1  0.67214689  0.51281626  0.53036966  1
  O  O23  1  0.83903306  0.32873421  0.53079040  1
  O  O24  1  0.56826542  0.69201702  0.97802697  1
  O  O25  1  0.12200991  0.42546640  0.97722873  1
  O  O26  1  0.31047590  0.87751525  0.97729255  1
  O  O27  1  0.56736920  0.86760054  0.47110505  1
  O  O28  1  0.30891659  0.44252143  0.47048339  1
  O  O29  1  0.13179914  0.69675532  0.47029536  1
  O  O30  1  0.08025203  0.61643871  0.35948506  1
  O  O31  1  0.53784360  0.91713580  0.36000638  1
  O  O32  1  0.37829875  0.46409080  0.35845696  1
  O  O33  1  0.13857959  0.49852571  0.86766740  1
  O  O34  1  0.36166634  0.85600624  0.86644867  1
  O  O35  1  0.49385304  0.63908249  0.86733850  1
  O  O36  1  0.96491085  0.79629404  0.41286567  1
  O  O37  1  0.83243806  0.03224370  0.41281187  1
  O  O38  1  0.19702846  0.17423943  0.41489784  1
  O  O39  1  0.97729694  0.18268082  0.90709468  1
  O  O40  1  0.19946839  0.00817208  0.90845353  1
  O  O41  1  0.80715214  0.80470928  0.90806460  1
  O  O42  1  0.96009396  0.15827169  0.57757730  1
  O  O43  1  0.20378873  0.04328118  0.57726383  1
  O  O44  1  0.84171189  0.80394990  0.57792461  1
  O  O45  1  0.95268129  0.79329483  0.07463645  1
  O  O46  1  0.84212982  0.04277543  0.07394066  1
  O  O47  1  0.20269483  0.16098964  0.07372445  1
  O  O48  1  0.65170207  0.12239961  0.74898304  1
  O  O49  1  0.49066752  0.34878696  0.75197427  1
  O  O50  1  0.86744910  0.50457312  0.75045619  1
  O  O51  1  0.67849906  0.53613280  0.24936382  1
  O  O52  1  0.86603787  0.33499042  0.24864346  1
  O  O53  1  0.48875922  0.15705530  0.25189232  1
  O  O54  1  0.62993259  0.48260172  0.92140001  1
  O  O55  1  0.85014125  0.37334353  0.92171434  1
  O  O56  1  0.51949720  0.14897149  0.92114398  1
  O  O57  1  0.65120290  0.16413495  0.42965616  1
  O  O58  1  0.51123855  0.34676072  0.42848866  1
  O  O59  1  0.83358399  0.48515128  0.42938916  1
  O  O60  1  0.34579229  0.48620103  0.07656796  1
  O  O61  1  0.13574544  0.64997239  0.07765667  1
  O  O62  1  0.51486246  0.86206484  0.07715326  1
  O  O63  1  0.34675690  0.86072409  0.57892188  1
  O  O64  1  0.51517143  0.65729516  0.57839755  1
  O  O65  1  0.13923467  0.48571225  0.57897251  1
  O  O66  1  0.32211990  0.82895779  0.25049334  1
  O  O67  1  0.52611352  0.67551361  0.25011403  1
  O  O68  1  0.15660087  0.46718366  0.25060236  1
  O  O69  1  0.32378318  0.50417559  0.76634556  1
  O  O70  1  0.18527435  0.68645505  0.76689664  1
  O  O71  1  0.51948425  0.83227364  0.75764714  1
loop_
_geom_bond_atom_site_label_1
_geom_bond_atom_site_label_2
_geom_bond_distance
_geom_bond_site_symmetry_2
Na0 O53 2.375841 1_565
Na0 O66 2.439582 1_555
Na0 O31 2.618029 1_555
Na0 O67 2.786070 1_555
Na0 O16 2.805445 1_565
Na0 O52 2.946091 1_565
Na1 O32 2.567796 1_555
Na1 O51 2.614600 1_555
Na1 O53 2.641860 1_555
Na1 O67 2.728548 1_555
Na1 O68 2.805295 1_555
Na1 O17 2.902556 1_555
Na2 O66 2.553743 1_555
Na2 O52 2.619711 1_455
Na2 O68 2.672252 1_555
Na2 O15 2.718470 1_455
Na2 O30 2.734956 1_555
Na2 O51 2.909811 1_455
Na3 O49 2.328387 1_555
Na3 O14 2.568843 1_555
Na3 O69 2.683569 1_555
Na3 O71 2.747113 1_555
Na4 O50 2.356129 1_455
Na4 O12 2.398162 1_455
Na4 O69 2.708677 1_555
Na4 O7 2.724134 1_555
Na4 O70 2.739058 1_555
Na5 O13 2.485519 1_555
Na5 O48 2.538739 1_555
Na5 O70 2.691216 1_545
Na5 O8 2.729271 1_545
Na5 O71 2.836642 1_545
Na5 O49 2.946562 1_555
Na6 O65 2.519311 1_555
Na6 O43 2.578977 1_555
Na6 O28 2.657740 1_555
Na6 O64 2.676212 1_555
Na6 O42 2.846511 1_455
Na6 O7 3.003362 1_555
Na7 O63 2.546083 1_555
Na7 O44 2.592781 1_455
Na7 O65 2.664917 1_555
Na7 O29 2.668220 1_555
Na7 O43 2.868394 1_565
Na7 O8 2.986865 1_555
Na8 O64 2.521054 1_555
Na8 O27 2.533929 1_555
Na8 O42 2.544100 1_565
Na8 O63 2.712368 1_555
Na8 O44 2.795882 1_555
Na9 O26 2.465227 1_554
Na9 O61 2.554455 1_555
Na9 O47 2.609473 1_565
Na9 O62 2.620593 1_555
Na9 O11 2.898373 1_555
Na9 O45 2.931735 1_455
Na10 O24 2.336347 1_554
Na10 O62 2.533644 1_555
Na10 O45 2.548053 1_555
Na10 O60 2.658845 1_555
Na10 O46 2.868303 1_565
Na11 O25 2.362647 1_554
Na11 O60 2.531862 1_555
Na11 O46 2.563841 1_455
Na11 O61 2.634556 1_555
Na11 O47 2.856918 1_555
Na12 O41 2.414517 1_555
Na12 O55 2.535524 1_555
Na12 O4 2.563225 1_555
Na12 O54 2.805668 1_555
Na12 O40 2.889084 1_665
Na13 O39 2.343405 1_555
Na13 O56 2.563252 1_555
Na13 O41 2.808118 1_545
Na13 O5 2.814416 1_555
Na13 O20 2.896371 1_556
Na13 O55 2.916538 1_555
Na14 O40 2.401907 1_555
Na14 O3 2.521551 1_555
Na14 O54 2.553587 1_555
Na14 O56 2.828588 1_555
Na15 O37 2.321463 1_555
Na15 O59 2.650083 1_555
Na15 O57 2.687896 1_555
Na15 O23 2.805988 1_555
Na16 O38 2.369005 1_555
Na16 O58 2.624522 1_555
Na16 O57 2.628732 1_555
Na16 O0 2.911014 1_555
Na16 O21 2.912173 1_555
Na17 O36 2.320629 1_555
Na17 O58 2.660704 1_555
Na17 O59 2.693333 1_555
Na17 O22 2.779870 1_555
Na17 O27 2.952729 1_555
Na18 O42 2.482988 1_555
Na18 O44 2.498093 1_545
Na18 O43 2.523325 1_655
Na18 O38 2.726501 1_655
Na18 O37 2.731329 1_555
Na18 O36 2.769651 1_545
Na19 O46 2.495891 1_566
Na19 O47 2.513161 1_666
Na19 O45 2.534349 1_556
Na19 O41 2.811744 1_555
Na19 O40 2.845831 1_665
Na19 O39 2.852863 1_565
Na20 O54 2.535445 1_555
Na20 O49 2.555014 1_555
Na20 O50 2.634216 1_555
Na20 O55 2.639447 1_555
Na20 O56 2.688165 1_555
Na20 O48 2.906055 1_555
Na21 O58 2.462537 1_555
Na21 O57 2.469319 1_555
Na21 O59 2.607774 1_555
Na21 O53 2.661528 1_555
Na21 O51 3.002161 1_555
Na21 O52 3.035215 1_555
Na22 O61 2.569495 1_555
Na22 O62 2.588723 1_555
Na22 O66 2.606020 1_555
Na22 O60 2.741380 1_555
Na22 O67 2.872168 1_555
Na22 O68 2.895065 1_555
Na23 O65 2.491902 1_555
Na23 O63 2.542884 1_555
Na23 O64 2.561419 1_555
La0 O0 2.262263 1_555
La0 O38 2.282651 1_555
La0 O36 2.289530 1_445
La0 O37 2.354617 1_455
La0 O1 2.461550 1_445
La0 O2 2.469073 1_455
La1 O3 2.271017 1_565
La1 O4 2.272452 1_455
La1 O40 2.325139 1_565
La1 O41 2.386163 1_455
La1 O39 2.393479 1_465
La1 O5 2.462951 1_465
La2 O43 2.339360 1_555
La2 O7 2.406992 1_555
La2 O8 2.412121 1_545
La2 O44 2.443814 1_445
La2 O42 2.445661 1_455
La2 O6 2.654584 1_445
La3 O11 2.274130 1_555
La3 O45 2.347324 1_455
La3 O47 2.351198 1_565
La3 O46 2.450614 1_465
La3 O10 2.538407 1_565
La3 O9 2.545097 1_455
La4 O14 2.237016 1_555
La4 O12 2.283921 1_555
La4 O13 2.286861 1_555
La4 O50 2.426019 1_555
La4 O49 2.447342 1_555
La4 O48 2.606065 1_555
La5 O17 2.218150 1_555
La5 O16 2.219819 1_555
La5 O15 2.279920 1_555
La5 O53 2.410413 1_555
La5 O52 2.572981 1_555
La5 O51 2.573505 1_555
La6 O26 2.285562 1_554
La6 O24 2.300112 1_554
La6 O25 2.315763 1_554
La6 O60 2.385361 1_555
La6 O62 2.411641 1_555
La6 O61 2.420950 1_555
La7 O28 2.291068 1_555
La7 O29 2.305656 1_555
La7 O27 2.323982 1_555
La7 O63 2.379288 1_555
La7 O64 2.387147 1_555
La7 O65 2.413132 1_555
La8 O31 2.302083 1_555
La8 O30 2.310019 1_555
La8 O32 2.390011 1_555
La8 O66 2.406761 1_555
La8 O68 2.619065 1_555
La8 O67 2.652438 1_555
Nb0 O18 1.954429 1_556
Nb0 O19 1.957970 1_556
Nb0 O20 1.963825 1_556
Nb0 O56 2.146996 1_555
Nb0 O55 2.161519 1_555
Nb0 O54 2.165416 1_555
Nb1 O23 1.973832 1_555
Nb1 O21 1.977676 1_555
Nb1 O22 1.983945 1_555
Nb1 O59 2.048983 1_555
Nb1 O57 2.059330 1_555
Nb1 O58 2.075414 1_555
Nb2 O33 1.916682 1_555
Nb2 O70 1.998257 1_555
Nb2 O69 2.007280 1_555
Nb2 O35 2.025137 1_555
Nb2 O34 2.030258 1_555
Nb2 O71 2.433472 1_555
O0 Si0 1.635125 1_545
O1 S0 1.487925 1_555
O2 S1 1.489105 1_655
O3 Si1 1.618885 1_555
O4 Si2 1.621425 1_655
O5 S2 1.486231 1_545
O6 S2 1.487387 1_555
O7 Si1 1.648383 1_555
O8 Si2 1.649965 1_555
O9 S0 1.486555 1_555
O10 S1 1.485288 1_555
O11 Si0 1.654696 1_555
O12 Si3 1.621320 1_555
O13 Si4 1.623203 1_555
O14 Si5 1.624158 1_555
O15 Si6 1.623543 1_555
O16 Si7 1.623186 1_555
O17 Si8 1.620103 1_555
O18 Si8 1.729443 1_555
O19 Si6 1.726429 1_555
O20 Si7 1.733083 1_555
O21 Si4 1.699532 1_555
O22 Si5 1.707636 1_555
O23 Si3 1.707312 1_555
O24 Si9 1.608006 1_555
O25 Si10 1.600366 1_555
O26 Si11 1.607199 1_555
O27 Si12 1.622755 1_555
O28 Si13 1.620041 1_555
O29 Si14 1.620955 1_555
O30 Si14 1.652222 1_555
O31 Si12 1.652778 1_555
O32 Si13 1.653789 1_555
O33 Si10 1.751113 1_555
O34 Si11 1.719857 1_555
O35 Si9 1.715421 1_555
O36 Si14 1.636283 1_655
O37 Si12 1.631939 1_545
O38 Si13 1.636798 1_555
O39 Si10 1.616559 1_655
O40 Si11 1.627528 1_545
O41 Si9 1.625051 1_555
O42 Si3 1.641025 1_555
O43 Si4 1.646625 1_555
O44 Si5 1.640266 1_555
O45 Si6 1.646776 1_555
O46 Si7 1.639207 1_555
O47 Si8 1.643225 1_555
O48 S2 1.482881 1_545
O49 Si1 1.638514 1_555
O50 Si2 1.635246 1_655
O51 S0 1.489702 1_555
O52 S1 1.486040 1_655
O53 Si0 1.658761 1_545
O54 Si9 1.680990 1_555
O55 Si10 1.662745 1_655
O56 Si11 1.679741 1_545
O57 Si12 1.671403 1_545
O58 Si13 1.672527 1_555
O59 Si14 1.667859 1_655
O60 Si8 1.622170 1_555
O61 Si6 1.628120 1_455
O62 Si7 1.629158 1_565
O63 Si4 1.629210 1_565
O64 Si5 1.631719 1_555
O65 Si3 1.635418 1_455
O66 Si0 1.665886 1_555
O67 S0 1.488836 1_555
O68 S1 1.491578 1_555
O69 Si1 1.707995 1_555
O70 Si2 1.707343 1_555
O71 S2 1.500514 1_555
