# generated using pymatgen
data_Na24Ta2Zn10Si9(SO8)9
_symmetry_space_group_name_H-M   'P 1'
_cell_length_a   9.21701339
_cell_length_b   9.19698795
_cell_length_c   22.09305455
_cell_angle_alpha   90.70420545
_cell_angle_beta   89.80595191
_cell_angle_gamma   119.78107783
_symmetry_Int_Tables_number   1
_chemical_formula_structural   Na24Ta2Zn10Si9(SO8)9
_chemical_formula_sum   'Na24 Ta2 Zn10 Si9 S9 O72'
_cell_volume   1625.32844083
_cell_formula_units_Z   1
loop_
 _symmetry_equiv_pos_site_id
 _symmetry_equiv_pos_as_xyz
  1  'x, y, z'
loop_
 _atom_site_type_symbol
 _atom_site_label
 _atom_site_symmetry_multiplicity
 _atom_site_fract_x
 _atom_site_fract_y
 _atom_site_fract_z
 _atom_site_occupancy
  Na  Na0  1  0.64871356  0.01164686  0.24145964  1
  Na  Na1  1  0.37368897  0.34591425  0.25354446  1
  Na  Na2  1  0.98723036  0.64624578  0.24761325  1
  Na  Na3  1  0.65094198  0.63526518  0.74861426  1
  Na  Na4  1  0.97912651  0.34097575  0.74946573  1
  Na  Na5  1  0.36647930  0.02489652  0.75081915  1
  Na  Na6  1  0.28266312  0.32387815  0.58879212  1
  Na  Na7  1  0.03343479  0.71147930  0.59564927  1
  Na  Na8  1  0.67646353  0.96252625  0.59009932  1
  Na  Na9  1  0.29067393  0.95934154  0.07924111  1
  Na  Na10  1  0.66692020  0.70792456  0.08446000  1
  Na  Na11  1  0.04095485  0.33322169  0.07297357  1
  Na  Na12  1  0.96844920  0.67841377  0.90366175  1
  Na  Na13  1  0.71642720  0.04834691  0.90067139  1
  Na  Na14  1  0.31301619  0.27325451  0.90660403  1
  Na  Na15  1  0.96647008  0.28400651  0.42349066  1
  Na  Na16  1  0.33596857  0.05342655  0.40950387  1
  Na  Na17  1  0.70608390  0.67636963  0.41484870  1
  Na  Na18  1  0.00108516  0.01247522  0.49773623  1
  Na  Na19  1  0.00707149  0.00915919  0.98865427  1
  Na  Na20  1  0.66641323  0.32739432  0.82833282  1
  Na  Na21  1  0.65067429  0.32695195  0.33415652  1
  Na  Na22  1  0.33621827  0.67528765  0.15914982  1
  Na  Na23  1  0.33714692  0.66521491  0.66614847  1
  Ta  Ta0  1  0.35133395  0.67685572  0.31630726  1
  Ta  Ta1  1  0.32386600  0.66928673  0.81382833  1
  Zn  Zn0  1  0.00396486  0.00087867  0.34878379  1
  Zn  Zn1  1  0.01238922  0.01305469  0.84174589  1
  Zn  Zn2  1  0.00070018  0.00420331  0.68118971  1
  Zn  Zn3  1  0.99407537  0.97036361  0.16704877  1
  Zn  Zn4  1  0.66926869  0.33119828  0.69075413  1
  Zn  Zn5  1  0.64954632  0.33009921  0.18587499  1
  Zn  Zn6  1  0.67094780  0.31805652  0.97404897  1
  Zn  Zn7  1  0.64576518  0.31967168  0.47764277  1
  Zn  Zn8  1  0.31071795  0.66438548  0.99373368  1
  Zn  Zn9  1  0.35612509  0.66642741  0.50590960  1
  Si  Si0  1  0.29920344  0.99685472  0.25004748  1
  Si  Si1  1  0.70437627  0.70188552  0.25090584  1
  Si  Si2  1  0.30240958  0.30392934  0.74944578  1
  Si  Si3  1  0.99786010  0.70438397  0.75104641  1
  Si  Si4  1  0.69922310  0.99491071  0.75044161  1
  Si  Si5  1  0.03561619  0.36660553  0.91975697  1
  Si  Si6  1  0.33409427  0.96794341  0.92216389  1
  Si  Si7  1  0.64006973  0.97167610  0.42175770  1
  Si  Si8  1  0.32718836  0.36639465  0.42002737  1
  S  S0  1  0.00682448  0.30444166  0.24982160  1
  S  S1  1  0.96010164  0.33921716  0.57958204  1
  S  S2  1  0.36566534  0.03079287  0.58014301  1
  S  S3  1  0.66680288  0.62501525  0.58000793  1
  S  S4  1  0.95393915  0.62371163  0.08555971  1
  S  S5  1  0.67505517  0.04188621  0.08536456  1
  S  S6  1  0.36947378  0.33478845  0.08454841  1
  S  S7  1  0.61978687  0.66256677  0.92092465  1
  S  S8  1  0.04598790  0.66492153  0.41825669  1
  O  O0  1  0.21595903  0.03584721  0.30783664  1
  O  O1  1  0.82176352  0.79067446  0.30907710  1
  O  O2  1  0.98246101  0.20631400  0.30468163  1
  O  O3  1  0.22692320  0.18410151  0.80737671  1
  O  O4  1  0.96067655  0.78621994  0.80974972  1
  O  O5  1  0.82052076  0.03250656  0.80792266  1
  O  O6  1  0.76922166  0.94813302  0.68909006  1
  O  O7  1  0.17860318  0.23359693  0.69004026  1
  O  O8  1  0.04769984  0.82248645  0.69120877  1
  O  O9  1  0.76626989  0.82043842  0.19066239  1
  O  O10  1  0.03509877  0.22558835  0.19534139  1
  O  O11  1  0.18768882  0.95583091  0.18795542  1
  O  O12  1  0.86888786  0.34230760  0.63477605  1
  O  O13  1  0.46728548  0.11863473  0.63444851  1
  O  O14  1  0.66240482  0.53091062  0.63441829  1
  O  O15  1  0.86958910  0.53044079  0.14185125  1
  O  O16  1  0.66299825  0.12893962  0.14147925  1
  O  O17  1  0.46129304  0.34378590  0.14182204  1
  O  O18  1  0.45879802  0.32161567  0.03088415  1
  O  O19  1  0.85675042  0.53473076  0.03086558  1
  O  O20  1  0.68254216  0.13744262  0.03086963  1
  O  O21  1  0.44983351  0.12369922  0.52367025  1
  O  O22  1  0.67161750  0.53612101  0.52325486  1
  O  O23  1  0.86622950  0.33412649  0.52349921  1
  O  O24  1  0.54031106  0.67960439  0.97753571  1
  O  O25  1  0.14614322  0.44084512  0.98190296  1
  O  O26  1  0.32334023  0.87192232  0.98533698  1
  O  O27  1  0.55462903  0.86270973  0.48133036  1
  O  O28  1  0.29008737  0.44281088  0.48079808  1
  O  O29  1  0.14299091  0.67994914  0.47293639  1
  O  O30  1  0.13920817  0.65584177  0.36224091  1
  O  O31  1  0.50734084  0.85670644  0.36259370  1
  O  O32  1  0.33918082  0.49513669  0.36200346  1
  O  O33  1  0.15466747  0.49814101  0.86484166  1
  O  O34  1  0.35204733  0.85143281  0.86625171  1
  O  O35  1  0.51644682  0.65157251  0.86685801  1
  O  O36  1  0.02728237  0.81563676  0.41500432  1
  O  O37  1  0.82046553  0.98458970  0.41225808  1
  O  O38  1  0.16731091  0.17961784  0.41163334  1
  O  O39  1  0.00662244  0.17884559  0.91231520  1
  O  O40  1  0.16350533  0.97591071  0.91546624  1
  O  O41  1  0.78833966  0.81221560  0.91765967  1
  O  O42  1  0.97916035  0.18781357  0.57795996  1
  O  O43  1  0.19844923  0.01795037  0.58128572  1
  O  O44  1  0.81719690  0.79445812  0.57885291  1
  O  O45  1  0.96845562  0.79420479  0.08618542  1
  O  O46  1  0.83151521  0.03028105  0.08616417  1
  O  O47  1  0.19807149  0.18431959  0.08545837  1
  O  O48  1  0.66252228  0.15031977  0.74437049  1
  O  O49  1  0.49254723  0.33949230  0.74102777  1
  O  O50  1  0.84892695  0.51131595  0.74407123  1
  O  O51  1  0.67441745  0.51148186  0.24531892  1
  O  O52  1  0.86168667  0.33119506  0.24335276  1
  O  O53  1  0.49341664  0.15031190  0.24518675  1
  O  O54  1  0.63038191  0.50711189  0.92007070  1
  O  O55  1  0.86156726  0.37458933  0.91736033  1
  O  O56  1  0.50435847  0.15150924  0.91673233  1
  O  O57  1  0.64736310  0.15234866  0.41635473  1
  O  O58  1  0.50705375  0.37022087  0.41585692  1
  O  O59  1  0.88127436  0.51063557  0.41551203  1
  O  O60  1  0.35775322  0.49135187  0.08485455  1
  O  O61  1  0.12476028  0.64264560  0.08558854  1
  O  O62  1  0.52598845  0.87031877  0.08536603  1
  O  O63  1  0.34509797  0.85768345  0.57947214  1
  O  O64  1  0.51057509  0.63985307  0.58205489  1
  O  O65  1  0.12837097  0.49531979  0.58215753  1
  O  O66  1  0.30809033  0.81761889  0.25899133  1
  O  O67  1  0.50813897  0.67610392  0.25885447  1
  O  O68  1  0.16191113  0.47775932  0.25517582  1
  O  O69  1  0.31994245  0.49274534  0.76075903  1
  O  O70  1  0.17294977  0.68852057  0.75998772  1
  O  O71  1  0.51232661  0.82251402  0.76150787  1
loop_
_geom_bond_atom_site_label_1
_geom_bond_atom_site_label_2
_geom_bond_distance
_geom_bond_site_symmetry_2
Na0 O53 2.343493 1_555
Na0 O16 2.444513 1_555
Na0 O52 2.599779 1_555
Na0 O9 2.713301 1_545
Na0 O67 2.720956 1_545
Na0 O66 2.763055 1_545
Na1 O51 2.417712 1_555
Na1 O53 2.539805 1_555
Na1 O17 2.597272 1_555
Na1 O67 2.650516 1_555
Na1 O68 2.762509 1_555
Na1 O0 2.763755 1_555
Na1 O32 2.841476 1_555
Na2 O51 2.510219 1_555
Na2 O52 2.531177 1_555
Na2 O15 2.564874 1_555
Na2 O66 2.580386 1_655
Na2 O68 2.740037 1_655
Na2 O1 2.808621 1_555
Na2 O11 2.847402 1_655
Na2 O30 2.877349 1_655
Na3 O49 2.367385 1_555
Na3 O50 2.588819 1_555
Na3 O71 2.617306 1_555
Na3 O69 2.669892 1_555
Na3 O14 2.708671 1_555
Na3 O4 2.818625 1_555
Na3 O6 2.857399 1_555
Na3 O35 2.921778 1_555
Na4 O50 2.404524 1_555
Na4 O48 2.552898 1_555
Na4 O12 2.735596 1_555
Na4 O69 2.742164 1_655
Na4 O70 2.788268 1_655
Na4 O5 2.794809 1_555
Na4 O7 2.799070 1_655
Na4 O33 2.969636 1_655
Na5 O48 2.381401 1_555
Na5 O49 2.538176 1_555
Na5 O3 2.678586 1_555
Na5 O70 2.706413 1_545
Na5 O13 2.731129 1_555
Na5 O71 2.797465 1_545
Na5 O8 2.892297 1_545
Na5 O34 2.992246 1_545
Na6 O7 2.419297 1_555
Na6 O42 2.443026 1_455
Na6 O43 2.523164 1_555
Na6 O65 2.600878 1_555
Na6 O64 2.612332 1_555
Na6 O28 2.623438 1_555
Na7 O8 2.309180 1_555
Na7 O43 2.473602 1_565
Na7 O44 2.493058 1_455
Na7 O63 2.521007 1_555
Na7 O65 2.553124 1_555
Na8 O6 2.379848 1_555
Na8 O44 2.472585 1_555
Na8 O42 2.532792 1_565
Na8 O64 2.580242 1_555
Na8 O27 2.611199 1_555
Na8 O63 2.717876 1_555
Na9 O26 2.288314 1_554
Na9 O61 2.534900 1_555
Na9 O11 2.574270 1_555
Na9 O45 2.583098 1_455
Na9 O47 2.602916 1_565
Na9 O62 2.676093 1_555
Na10 O62 2.417576 1_555
Na10 O45 2.482858 1_555
Na10 O9 2.535386 1_555
Na10 O60 2.539606 1_555
Na10 O46 2.573361 1_565
Na10 O24 2.590682 1_554
Na11 O25 2.247312 1_554
Na11 O47 2.455732 1_555
Na11 O46 2.499475 1_455
Na11 O60 2.547035 1_555
Na11 O61 2.563412 1_555
Na11 O10 2.881551 1_555
Na12 O4 2.327044 1_555
Na12 O40 2.426015 1_655
Na12 O55 2.480787 1_555
Na12 O41 2.526315 1_555
Na12 O54 2.729944 1_555
Na13 O5 2.293196 1_555
Na13 O39 2.338585 1_655
Na13 O56 2.583793 1_555
Na13 O41 2.597708 1_545
Na13 O55 2.630037 1_555
Na14 O3 2.330051 1_555
Na14 O40 2.384021 1_545
Na14 O39 2.511868 1_555
Na14 O56 2.526760 1_555
Na14 O54 2.647910 1_555
Na15 O37 2.399969 1_545
Na15 O38 2.484570 1_655
Na15 O23 2.516380 1_555
Na15 O57 2.569518 1_555
Na15 O59 2.574459 1_555
Na15 O2 2.734601 1_555
Na15 O28 2.878488 1_655
Na16 O38 2.357126 1_555
Na16 O0 2.474885 1_555
Na16 O58 2.534287 1_555
Na16 O57 2.548315 1_555
Na16 O36 2.591459 1_545
Na16 O21 2.680508 1_555
Na17 O58 2.482721 1_555
Na17 O37 2.486990 1_555
Na17 O1 2.575413 1_555
Na17 O36 2.576478 1_655
Na17 O22 2.676666 1_555
Na17 O59 2.715988 1_555
Na18 O37 2.447211 1_445
Na18 O42 2.456350 1_455
Na18 O38 2.457964 1_555
Na18 O43 2.578442 1_555
Na18 O44 2.607032 1_445
Na18 O36 2.650720 1_545
Na19 O40 2.279692 1_545
Na19 O39 2.313257 1_555
Na19 O41 2.475786 1_445
Na19 O47 2.718819 1_556
Na19 O46 2.752330 1_456
Na19 O45 2.842267 1_446
Na20 O48 2.441846 1_555
Na20 O56 2.513902 1_555
Na20 O50 2.527094 1_555
Na20 O49 2.550335 1_555
Na20 O55 2.553413 1_555
Na20 O54 2.721840 1_555
Na21 O58 2.378696 1_555
Na21 O57 2.429016 1_555
Na21 O53 2.491067 1_555
Na21 O51 2.547607 1_555
Na21 O59 2.643185 1_555
Na21 O52 2.776480 1_555
Na22 O60 2.420415 1_555
Na22 O62 2.422803 1_555
Na22 O61 2.440953 1_555
Na22 O66 2.628419 1_555
Na22 O67 2.715632 1_555
Na22 O68 2.748554 1_555
Na23 O64 2.530004 1_555
Na23 O65 2.560034 1_555
Na23 O69 2.596085 1_555
Na23 O63 2.599857 1_555
Na23 O71 2.601189 1_555
Na23 O70 2.631453 1_555
O0 Si0 1.613320 1_545
O0 Zn0 2.027484 1_555
O1 Si1 1.610933 1_555
O1 Zn0 2.017527 1_665
O2 S0 1.468887 1_655
O2 Zn0 2.230915 1_655
O3 Si2 1.613577 1_555
O3 Zn1 1.972410 1_555
O4 Si3 1.610964 1_555
O4 Zn1 2.014289 1_665
O5 Si4 1.611529 1_545
O5 Zn1 2.011056 1_655
O6 Si4 1.641351 1_555
O6 Zn2 1.937819 1_665
O7 Si2 1.642904 1_555
O7 Zn2 1.932221 1_555
O8 Si3 1.635244 1_455
O8 Zn2 1.938724 1_565
O9 Si1 1.642670 1_555
O9 Zn3 1.927790 1_555
O10 S0 1.485512 1_555
O10 Zn3 2.264369 1_445
O11 Si0 1.640803 1_555
O11 Zn3 1.913066 1_455
O12 S1 1.486776 1_555
O12 Zn4 2.173957 1_555
O13 S2 1.483753 1_555
O13 Zn4 2.275005 1_555
O14 S3 1.478551 1_555
O14 Zn4 2.258080 1_555
O15 S4 1.498042 1_555
O15 Zn5 2.184675 1_555
O16 S5 1.501125 1_555
O16 Zn5 2.140696 1_555
O17 S6 1.503094 1_555
O17 Zn5 2.050656 1_555
O18 S6 1.478888 1_555
O18 Zn6 2.333933 1_554
O19 S4 1.478880 1_555
O19 Zn6 2.245559 1_554
O20 S5 1.480482 1_555
O20 Zn6 2.138942 1_554
O21 S2 1.499916 1_555
O21 Zn7 2.084019 1_555
O22 S3 1.500991 1_555
O22 Zn7 2.125133 1_555
O23 S1 1.500539 1_555
O23 Zn7 2.217084 1_555
O24 S7 1.492793 1_555
O24 Zn8 2.080305 1_555
O25 Si5 1.638470 1_555
O25 Zn8 1.867499 1_555
O26 Si6 1.637085 1_555
O26 Zn8 1.865236 1_555
O27 Si7 1.611877 1_555
O27 Zn9 1.907238 1_555
O28 Si8 1.620463 1_555
O28 Zn9 1.907515 1_555
O29 S8 1.469116 1_555
O29 Zn9 2.158669 1_555
O30 S8 1.529152 1_555
O30 Ta0 2.122709 1_555
O31 Si7 1.736399 1_555
O31 Ta0 1.858772 1_555
O32 Si8 1.721580 1_555
O32 Ta0 1.918242 1_555
O33 Si5 1.687571 1_555
O33 Ta1 1.942446 1_555
O34 Si6 1.686329 1_555
O34 Ta1 1.933199 1_555
O35 S7 1.501114 1_555
O35 Ta1 2.203611 1_555
O36 S8 1.481946 1_555
O36 Zn0 2.348660 1_565
O37 Si7 1.620137 1_555
O37 Zn0 2.141718 1_665
O38 Si8 1.623615 1_555
O38 Zn0 2.096796 1_555
O39 Si5 1.617183 1_555
O39 Zn1 2.186332 1_555
O40 Si6 1.617327 1_555
O40 Zn1 2.282781 1_565
O41 S7 1.480083 1_555
O42 S1 1.487546 1_555
O43 S2 1.486259 1_555
O44 S3 1.485101 1_555
O45 S4 1.505942 1_555
O45 Zn3 2.328928 1_555
O46 S5 1.498151 1_555
O47 S6 1.496664 1_555
O48 Si4 1.631138 1_545
O48 Zn4 2.029671 1_555
O49 Si2 1.625643 1_555
O49 Zn4 2.000423 1_555
O50 Si3 1.623087 1_555
O50 Zn4 2.028311 1_555
O51 Si1 1.634795 1_555
O51 Zn5 2.031851 1_555
O52 S0 1.483117 1_655
O52 Zn5 2.330831 1_555
O53 Si0 1.643327 1_545
O53 Zn5 2.049098 1_555
O54 S7 1.480540 1_555
O54 Zn6 2.298906 1_555
O55 Si5 1.642977 1_655
O55 Zn6 2.004846 1_555
O56 Si6 1.642931 1_545
O56 Zn6 1.984065 1_555
O57 Si7 1.635141 1_545
O57 Zn7 2.042772 1_555
O58 Si8 1.642922 1_555
O58 Zn7 2.081321 1_555
O59 S8 1.476660 1_655
O59 Zn7 2.435697 1_555
O60 S6 1.496442 1_555
O61 S4 1.495627 1_455
O62 S5 1.491282 1_565
O63 S2 1.506824 1_565
O63 Zn9 2.419067 1_555
O64 S3 1.512858 1_555
O64 Zn9 2.299630 1_555
O65 S1 1.502169 1_455
O65 Zn9 2.545677 1_555
O66 Si0 1.704500 1_555
O66 Ta0 1.998653 1_555
O67 Si1 1.712127 1_555
O67 Ta0 1.922834 1_555
O68 S0 1.526827 1_555
O68 Ta0 2.237097 1_555
O69 Si2 1.677793 1_555
O69 Ta1 1.976709 1_555
O70 Si3 1.703357 1_455
O70 Ta1 1.908374 1_555
O71 Si4 1.683633 1_555
O71 Ta1 1.983472 1_555
