# generated using pymatgen
data_Rb2CoCl4
_symmetry_space_group_name_H-M   'P 1'
_cell_length_a   7.16086034
_cell_length_b   9.32396210
_cell_length_c   12.72514693
_cell_angle_alpha   90.00000000
_cell_angle_beta   90.00000000
_cell_angle_gamma   90.00000000
_symmetry_Int_Tables_number   1
_chemical_formula_structural   Rb2CoCl4
_chemical_formula_sum   'Rb8 Co4 Cl16'
_cell_volume   849.62739817
_cell_formula_units_Z   4
loop_
 _symmetry_equiv_pos_site_id
 _symmetry_equiv_pos_as_xyz
  1  'x, y, z'
loop_
 _atom_site_type_symbol
 _atom_site_label
 _atom_site_symmetry_multiplicity
 _atom_site_fract_x
 _atom_site_fract_y
 _atom_site_fract_z
 _atom_site_occupancy
  Rb  Rb0  1  0.25000000  0.36847790  0.08389978  1
  Rb  Rb1  1  0.75000000  0.63152210  0.91610022  1
  Rb  Rb2  1  0.25000000  0.86847790  0.41610022  1
  Rb  Rb3  1  0.75000000  0.13152210  0.58389978  1
  Rb  Rb4  1  0.25000000  0.01769935  0.82512589  1
  Rb  Rb5  1  0.75000000  0.98230065  0.17487411  1
  Rb  Rb6  1  0.25000000  0.51769935  0.67487411  1
  Rb  Rb7  1  0.75000000  0.48230065  0.32512589  1
  Co  Co0  1  0.25000000  0.77202506  0.07548512  1
  Co  Co1  1  0.75000000  0.22797494  0.92451488  1
  Co  Co2  1  0.25000000  0.27202506  0.42451488  1
  Co  Co3  1  0.75000000  0.72797494  0.57548512  1
  Cl  Cl0  1  0.00347587  0.32281368  0.84778840  1
  Cl  Cl1  1  0.50347587  0.67718632  0.15221160  1
  Cl  Cl2  1  0.49652413  0.82281368  0.65221160  1
  Cl  Cl3  1  0.99652413  0.17718632  0.34778840  1
  Cl  Cl4  1  0.99652413  0.67718632  0.15221160  1
  Cl  Cl5  1  0.49652413  0.32281368  0.84778840  1
  Cl  Cl6  1  0.50347587  0.17718632  0.34778840  1
  Cl  Cl7  1  0.00347587  0.82281368  0.65221160  1
  Cl  Cl8  1  0.25000000  0.68418132  0.91002957  1
  Cl  Cl9  1  0.75000000  0.31581868  0.08997043  1
  Cl  Cl10  1  0.25000000  0.18418132  0.58997043  1
  Cl  Cl11  1  0.75000000  0.81581868  0.41002957  1
  Cl  Cl12  1  0.75000000  0.48771838  0.58863810  1
  Cl  Cl13  1  0.25000000  0.51228162  0.41136190  1
  Cl  Cl14  1  0.75000000  0.98771838  0.91136190  1
  Cl  Cl15  1  0.25000000  0.01228162  0.08863810  1
loop_
_geom_bond_atom_site_label_1
_geom_bond_atom_site_label_2
_geom_bond_distance
_geom_bond_site_symmetry_2
Cl0 Co1 2.242725 1_455
Cl0 Rb6 3.355567 1_555
Cl0 Rb4 3.360483 1_555
Cl0 Rb0 3.510696 1_556
Cl0 Rb1 3.512172 1_455
Cl1 Co0 2.242725 1_555
Cl1 Rb7 3.355567 1_555
Cl1 Rb5 3.360483 1_555
Cl1 Rb1 3.510696 1_554
Cl1 Rb0 3.512172 1_555
Cl2 Co3 2.242725 1_555
Cl2 Rb4 3.355567 1_565
Cl2 Rb6 3.360483 1_555
Cl2 Rb2 3.510696 1_555
Cl2 Rb3 3.512172 1_565
Cl3 Co2 2.242725 1_655
Cl3 Rb5 3.355567 1_545
Cl3 Rb7 3.360483 1_555
Cl3 Rb3 3.510696 1_555
Cl3 Rb2 3.512172 1_645
Cl4 Co0 2.242725 1_655
Cl4 Rb7 3.355567 1_555
Cl4 Rb5 3.360483 1_555
Cl4 Rb1 3.510696 1_554
Cl4 Rb0 3.512172 1_655
Cl5 Co1 2.242725 1_555
Cl5 Rb6 3.355567 1_555
Cl5 Rb4 3.360483 1_555
Cl5 Rb0 3.510696 1_556
Cl5 Rb1 3.512172 1_555
Cl6 Co2 2.242725 1_555
Cl6 Rb5 3.355567 1_545
Cl6 Rb7 3.360483 1_555
Cl6 Rb3 3.510696 1_555
Cl6 Rb2 3.512172 1_545
Cl7 Co3 2.242725 1_455
Cl7 Rb4 3.355567 1_565
Cl7 Rb6 3.360483 1_555
Cl7 Rb2 3.510696 1_555
Cl7 Rb3 3.512172 1_465
Cl8 Co0 2.259148 1_556
Cl8 Rb4 3.292048 1_565
Cl8 Rb6 3.371043 1_555
Cl8 Rb1 3.614764 1_555
Cl8 Rb1 3.614764 1_455
Cl8 Rb0 3.682402 1_556
Cl9 Co1 2.259148 1_554
Cl9 Rb5 3.292048 1_545
Cl9 Rb7 3.371043 1_555
Cl9 Rb0 3.614764 1_655
Cl9 Rb0 3.614764 1_555
Cl9 Rb1 3.682402 1_554
Cl10 Co2 2.259148 1_555
Cl10 Rb6 3.292048 1_555
Cl10 Rb4 3.371043 1_555
Cl10 Rb3 3.614764 1_555
Cl10 Rb3 3.614764 1_455
Cl10 Rb2 3.682402 1_545
Cl11 Co3 2.259148 1_555
Cl11 Rb7 3.292048 1_555
Cl11 Rb5 3.371043 1_555
Cl11 Rb2 3.614764 1_655
Cl11 Rb2 3.614764 1_555
Cl11 Rb3 3.682402 1_565
Cl12 Co3 2.246387 1_555
Cl12 Rb3 3.321708 1_555
Cl12 Rb7 3.353612 1_555
Cl12 Rb6 3.755241 1_655
Cl12 Rb6 3.755241 1_555
Cl13 Co2 2.246387 1_555
Cl13 Rb2 3.321708 1_555
Cl13 Rb6 3.353612 1_555
Cl13 Rb7 3.755241 1_555
Cl13 Rb7 3.755241 1_455
Cl14 Co1 2.246387 1_565
Cl14 Rb1 3.321708 1_555
Cl14 Rb5 3.353612 1_556
Cl14 Rb4 3.755241 1_565
Cl14 Rb4 3.755241 1_665
Cl15 Co0 2.246387 1_545
Cl15 Rb0 3.321708 1_555
Cl15 Rb4 3.353612 1_554
Cl15 Rb5 3.755241 1_445
Cl15 Rb5 3.755241 1_545
