# generated using pymatgen
data_Ba2TmMgNbO6
_symmetry_space_group_name_H-M   'P 1'
_cell_length_a   6.30994259
_cell_length_b   6.24961681
_cell_length_c   6.30994165
_cell_angle_alpha   60.31575828
_cell_angle_beta   56.15166233
_cell_angle_gamma   60.31575749
_symmetry_Int_Tables_number   1
_chemical_formula_structural   Ba2TmMgNbO6
_chemical_formula_sum   'Ba2 Tm1 Mg1 Nb1 O6'
_cell_volume   171.03715134
_cell_formula_units_Z   1
loop_
 _symmetry_equiv_pos_site_id
 _symmetry_equiv_pos_as_xyz
  1  'x, y, z'
loop_
 _atom_site_type_symbol
 _atom_site_label
 _atom_site_symmetry_multiplicity
 _atom_site_fract_x
 _atom_site_fract_y
 _atom_site_fract_z
 _atom_site_occupancy
  Ba  Ba0  1  0.68976800  0.81023200  0.68976800  1
  Ba  Ba1  1  0.31023200  0.18976800  0.31023200  1
  Tm  Tm0  1  0.50000000  0.50000000  0.50000000  1
  Mg  Mg0  1  0.00000000  0.50000000  0.00000000  1
  Nb  Nb0  1  0.00000000  0.00000000  0.00000000  1
  O  O0  1  0.23170200  0.73679700  0.76829800  1
  O  O1  1  0.23658900  0.76341100  0.23658900  1
  O  O2  1  0.76341100  0.23658900  0.76341100  1
  O  O3  1  0.23170200  0.26320300  0.76829800  1
  O  O4  1  0.76829800  0.26320300  0.23170200  1
  O  O5  1  0.76829800  0.73679700  0.23170200  1
loop_
_geom_bond_atom_site_label_1
_geom_bond_atom_site_label_2
_geom_bond_distance
_geom_bond_site_symmetry_2
Ba0 Mg0 2.858971 1_656
Ba0 O5 2.881578 1_555
Ba0 O4 2.881578 1_565
Ba0 O0 2.881578 1_555
Ba0 O3 2.881578 1_565
Ba0 O1 3.000892 1_556
Ba0 O1 3.000892 1_655
Ba0 O2 3.197657 1_565
Ba0 O2 3.197657 1_555
Ba1 Mg0 2.858971 1_555
Ba1 O3 2.881578 1_555
Ba1 O0 2.881578 1_545
Ba1 O4 2.881578 1_555
Ba1 O5 2.881578 1_545
Ba1 O2 3.000892 1_554
Ba1 O2 3.000892 1_455
Ba1 O1 3.197657 1_545
Ba1 O1 3.197657 1_555
Mg0 O3 2.020875 1_554
Mg0 O5 2.020875 1_455
Mg0 O0 2.020875 1_554
Mg0 O4 2.020875 1_455
Nb0 O0 2.144671 1_544
Nb0 O4 2.144671 1_455
Nb0 O5 2.144671 1_445
Nb0 O3 2.144671 1_554
Nb0 O1 2.180307 1_545
Nb0 O2 2.180307 1_454
O0 Tm0 2.174725 1_555
O1 Tm0 2.427488 1_555
O2 Tm0 2.427488 1_555
O3 Tm0 2.174725 1_555
O4 Tm0 2.174725 1_555
O5 Tm0 2.174725 1_555
