# generated using pymatgen
data_YbIn4Pt
_symmetry_space_group_name_H-M   'P 1'
_cell_length_a   8.66579254
_cell_length_b   8.66579254
_cell_length_c   7.68421900
_cell_angle_alpha   90.00000000
_cell_angle_beta   90.00000000
_cell_angle_gamma   149.98264291
_symmetry_Int_Tables_number   1
_chemical_formula_structural   YbIn4Pt
_chemical_formula_sum   'Yb2 In8 Pt2'
_cell_volume   288.67828100
_cell_formula_units_Z   2
loop_
 _symmetry_equiv_pos_site_id
 _symmetry_equiv_pos_as_xyz
  1  'x, y, z'
loop_
 _atom_site_type_symbol
 _atom_site_label
 _atom_site_symmetry_multiplicity
 _atom_site_fract_x
 _atom_site_fract_y
 _atom_site_fract_z
 _atom_site_occupancy
  Yb  Yb0  1  0.13176600  0.86823400  0.75000000  1
  Yb  Yb1  1  0.86823400  0.13176600  0.25000000  1
  In  In0  1  0.50000000  0.50000000  0.50000000  1
  In  In1  1  0.50000000  0.50000000  0.00000000  1
  In  In2  1  0.06274200  0.93725800  0.25000000  1
  In  In3  1  0.93725800  0.06274200  0.75000000  1
  In  In4  1  0.31814000  0.68186000  0.95235100  1
  In  In5  1  0.68186000  0.31814000  0.04764900  1
  In  In6  1  0.68186000  0.31814000  0.45235100  1
  In  In7  1  0.31814000  0.68186000  0.54764900  1
  Pt  Pt0  1  0.77261400  0.22738600  0.75000000  1
  Pt  Pt1  1  0.22738600  0.77261400  0.25000000  1
loop_
_geom_bond_atom_site_label_1
_geom_bond_atom_site_label_2
_geom_bond_distance
_geom_bond_site_symmetry_2
In0 In6 3.066338 1_555
In0 In7 3.066338 1_555
In0 In2 3.135250 1_545
In0 In3 3.135250 1_455
In0 In3 3.135250 1_565
In0 In2 3.135250 1_655
In0 Yb0 3.686761 1_655
In0 Yb1 3.686761 1_565
In0 Yb0 3.686761 1_545
In0 Yb1 3.686761 1_455
In1 In5 3.066338 1_555
In1 In4 3.066338 1_554
In1 In2 3.135250 1_545
In1 In3 3.135250 1_454
In1 In3 3.135250 1_564
In1 In2 3.135250 1_655
In1 Yb1 3.686761 1_565
In1 Yb0 3.686761 1_544
In1 Yb0 3.686761 1_654
In1 Yb1 3.686761 1_455
In2 Pt1 2.756198 1_555
In2 Yb1 3.256131 1_465
In3 Pt0 2.756198 1_555
In3 Yb0 3.256131 1_645
In4 Pt1 2.745800 1_556
In4 Pt0 2.834561 1_455
In4 Pt0 2.834561 1_565
In4 Yb1 3.312202 1_566
In4 Yb1 3.312202 1_456
In4 Yb0 3.485961 1_555
In5 Pt0 2.745800 1_554
In5 Pt1 2.834561 1_545
In5 Pt1 2.834561 1_655
In5 Yb0 3.312202 1_544
In5 Yb0 3.312202 1_654
In5 Yb1 3.485961 1_555
In6 Pt0 2.745800 1_555
In6 Pt1 2.834561 1_545
In6 Pt1 2.834561 1_655
In6 Yb0 3.312202 1_655
In6 Yb0 3.312202 1_545
In6 Yb1 3.485961 1_555
In7 Pt1 2.745800 1_555
In7 Pt0 2.834561 1_455
In7 Pt0 2.834561 1_565
In7 Yb1 3.312202 1_565
In7 Yb1 3.312202 1_455
In7 Yb0 3.485961 1_555
Pt0 Yb0 3.255087 1_655
Pt0 Yb0 3.255087 1_545
Pt1 Yb1 3.255087 1_565
Pt1 Yb1 3.255087 1_455
