# generated using pymatgen
data_Hf5P7Pd9
_symmetry_space_group_name_H-M   'P 1'
_cell_length_a   13.64613910
_cell_length_b   13.64613910
_cell_length_c   3.76818349
_cell_angle_alpha   90.00000000
_cell_angle_beta   90.00000000
_cell_angle_gamma   152.36606388
_symmetry_Int_Tables_number   1
_chemical_formula_structural   Hf5P7Pd9
_chemical_formula_sum   'Hf5 P7 Pd9'
_cell_volume   325.46320554
_cell_formula_units_Z   1
loop_
 _symmetry_equiv_pos_site_id
 _symmetry_equiv_pos_as_xyz
  1  'x, y, z'
loop_
 _atom_site_type_symbol
 _atom_site_label
 _atom_site_symmetry_multiplicity
 _atom_site_fract_x
 _atom_site_fract_y
 _atom_site_fract_z
 _atom_site_occupancy
  Hf  Hf0  1  0.92843467  0.46922951  0.50000000  1
  Hf  Hf1  1  0.46922951  0.92843467  0.50000000  1
  Hf  Hf2  1  0.46734927  0.46734927  0.00000000  1
  Hf  Hf3  1  -0.00136042  0.17480605  -0.00000000  1
  Hf  Hf4  1  0.17480605  -0.00136042  0.00000000  1
  P  P0  1  0.74889210  0.03664985  0.50000000  1
  P  P1  1  0.03664985  0.74889210  0.50000000  1
  P  P2  1  0.30364122  0.43825752  0.50000000  1
  P  P3  1  0.43825752  0.30364122  0.50000000  1
  P  P4  1  0.19571457  0.62645154  -0.00000000  1
  P  P5  1  0.62645154  0.19571457  0.00000000  1
  P  P6  1  0.86381690  0.86381690  0.00000000  1
  Pd  Pd0  1  0.67690918  0.79472805  0.50000000  1
  Pd  Pd1  1  0.15059197  0.46285799  0.50000000  1
  Pd  Pd2  1  0.22513541  0.83212412  -0.00000000  1
  Pd  Pd3  1  0.83212412  0.22513541  -0.00000000  1
  Pd  Pd4  1  0.11232975  0.11232975  0.50000000  1
  Pd  Pd5  1  0.79151756  0.50842319  0.00000000  1
  Pd  Pd6  1  0.50842319  0.79151756  -0.00000000  1
  Pd  Pd7  1  0.46285799  0.15059197  0.50000000  1
  Pd  Pd8  1  0.79472805  0.67690918  0.50000000  1
loop_
_geom_bond_atom_site_label_1
_geom_bond_atom_site_label_2
_geom_bond_distance
_geom_bond_site_symmetry_2
Hf0 P1 2.599890 1_655
Hf0 P5 2.685100 1_555
Hf0 P5 2.685100 1_556
Hf0 P4 2.755118 1_656
Hf0 P4 2.755118 1_655
Hf0 Pd3 2.935222 1_556
Hf0 Pd3 2.935222 1_555
Hf0 Pd2 2.989988 1_655
Hf0 Pd2 2.989988 1_656
Hf0 Pd5 3.016181 1_556
Hf0 Pd5 3.016181 1_555
Hf0 Pd1 3.108880 1_655
Hf0 Pd7 3.212964 1_555
Hf1 P0 2.599890 1_565
Hf1 P4 2.685100 1_556
Hf1 P4 2.685100 1_555
Hf1 P5 2.755118 1_565
Hf1 P5 2.755118 1_566
Hf1 Pd2 2.935222 1_555
Hf1 Pd2 2.935222 1_556
Hf1 Pd3 2.989988 1_565
Hf1 Pd3 2.989988 1_566
Hf1 Pd6 3.016181 1_555
Hf1 Pd6 3.016181 1_556
Hf1 Pd7 3.108880 1_565
Hf1 Pd1 3.212964 1_555
Hf2 P6 2.584164 1_555
Hf2 P3 2.669584 1_554
Hf2 P2 2.669584 1_555
Hf2 P2 2.669584 1_554
Hf2 P3 2.669584 1_555
Hf2 Pd4 2.984029 1_555
Hf2 Pd4 2.984029 1_554
Hf2 Pd8 3.008216 1_554
Hf2 Pd8 3.008216 1_555
Hf2 Pd0 3.008216 1_555
Hf2 Pd0 3.008216 1_554
Hf3 P2 2.699075 1_554
Hf3 P2 2.699075 1_555
Hf3 P0 2.708240 1_454
Hf3 P0 2.708240 1_455
Hf3 P6 2.749629 1_445
Hf3 Pd3 2.898310 1_455
Hf3 Pd1 2.976348 1_554
Hf3 Pd1 2.976348 1_555
Hf3 Pd4 3.004533 1_554
Hf3 Pd4 3.004533 1_555
Hf3 Pd0 3.062485 1_444
Hf3 Pd0 3.062485 1_445
Hf3 Pd6 3.179877 1_445
Hf4 P3 2.699075 1_555
Hf4 P3 2.699075 1_554
Hf4 P1 2.708240 1_544
Hf4 P1 2.708240 1_545
Hf4 P6 2.749629 1_445
Hf4 Pd2 2.898310 1_545
Hf4 Pd7 2.976348 1_555
Hf4 Pd7 2.976348 1_554
Hf4 Pd4 3.004533 1_554
Hf4 Pd4 3.004533 1_555
Hf4 Pd8 3.062485 1_444
Hf4 Pd8 3.062485 1_445
Hf4 Pd5 3.179877 1_445
P0 Pd6 2.461329 1_546
P0 Pd6 2.461329 1_545
P0 Pd0 2.473385 1_545
P0 Pd3 2.505845 1_556
P0 Pd3 2.505845 1_555
P0 Pd1 2.717615 1_655
P1 Pd5 2.461329 1_455
P1 Pd5 2.461329 1_456
P1 Pd8 2.473385 1_455
P1 Pd2 2.505845 1_555
P1 Pd2 2.505845 1_556
P1 Pd7 2.717615 1_565
P2 Pd0 2.388601 1_555
P2 Pd1 2.391014 1_555
P2 Pd4 2.454297 1_555
P3 Pd8 2.388601 1_555
P3 Pd7 2.391014 1_555
P3 Pd4 2.454297 1_555
P4 Pd2 2.458017 1_555
P4 Pd6 2.500428 1_555
P4 Pd3 2.542452 1_455
P4 Pd1 2.545002 1_554
P4 Pd1 2.545002 1_555
P5 Pd3 2.458017 1_555
P5 Pd5 2.500428 1_555
P5 Pd2 2.542452 1_545
P5 Pd7 2.545002 1_555
P5 Pd7 2.545002 1_554
P6 Pd4 2.484663 1_664
P6 Pd4 2.484663 1_665
P6 Pd8 2.585216 1_554
P6 Pd8 2.585216 1_555
P6 Pd0 2.585216 1_554
P6 Pd0 2.585216 1_555
Pd0 Pd6 2.942701 1_555
Pd0 Pd6 2.942701 1_556
Pd1 Pd3 2.824930 1_456
Pd1 Pd3 2.824930 1_455
Pd1 Pd6 2.950352 1_555
Pd1 Pd6 2.950352 1_556
Pd2 Pd7 2.824930 1_564
Pd2 Pd7 2.824930 1_565
Pd2 Pd5 2.865829 1_455
Pd3 Pd6 2.865829 1_545
Pd5 Pd8 2.942701 1_555
Pd5 Pd8 2.942701 1_554
Pd5 Pd7 2.950352 1_554
Pd5 Pd7 2.950352 1_555
