# generated using pymatgen
data_Mg(Sb2O5)2
_symmetry_space_group_name_H-M   'P 1'
_cell_length_a   5.42830908
_cell_length_b   5.42763137
_cell_length_c   8.22936178
_cell_angle_alpha   108.96190499
_cell_angle_beta   103.01235534
_cell_angle_gamma   95.39650329
_symmetry_Int_Tables_number   1
_chemical_formula_structural   Mg(Sb2O5)2
_chemical_formula_sum   'Mg1 Sb4 O10'
_cell_volume   219.70592717
_cell_formula_units_Z   1
loop_
 _symmetry_equiv_pos_site_id
 _symmetry_equiv_pos_as_xyz
  1  'x, y, z'
loop_
 _atom_site_type_symbol
 _atom_site_label
 _atom_site_symmetry_multiplicity
 _atom_site_fract_x
 _atom_site_fract_y
 _atom_site_fract_z
 _atom_site_occupancy
  Mg  Mg0  1  0.50000000  0.50000000  0.50000000  1
  Sb  Sb0  1  0.68019197  0.18914049  0.81543501  1
  Sb  Sb1  1  0.91841063  0.30715834  0.29699497  1
  Sb  Sb2  1  0.31980803  0.81085951  0.18456499  1
  Sb  Sb3  1  0.08158937  0.69284166  0.70300503  1
  O  O0  1  0.70639742  0.32784029  0.07154356  1
  O  O1  1  0.29360258  0.67215971  0.92845644  1
  O  O2  1  0.23913919  0.51724929  0.27454241  1
  O  O3  1  -0.00274987  0.04637026  0.81732804  1
  O  O4  1  0.83620464  0.64920160  0.46262718  1
  O  O5  1  0.40813385  0.85647871  0.66318665  1
  O  O6  1  0.16379536  0.35079840  0.53737282  1
  O  O7  1  0.59186615  0.14352129  0.33681335  1
  O  O8  1  0.00274987  0.95362974  0.18267196  1
  O  O9  1  0.76086081  0.48275071  0.72545759  1
loop_
_geom_bond_atom_site_label_1
_geom_bond_atom_site_label_2
_geom_bond_distance
_geom_bond_site_symmetry_2
Mg0 O4 2.053710 1_555
Mg0 O6 2.053710 1_555
Mg0 O9 2.100244 1_555
Mg0 O2 2.100244 1_555
Mg0 O7 2.142467 1_555
Mg0 O5 2.142467 1_555
O0 Sb0 1.960282 1_554
O0 Sb1 1.994349 1_555
O1 Sb2 1.960282 1_556
O1 Sb3 1.994349 1_555
O2 Sb2 2.015248 1_555
O2 Sb1 2.067344 1_455
O3 Sb0 1.951794 1_455
O3 Sb3 1.990630 1_545
O4 Sb3 2.047699 1_655
O4 Sb1 2.070940 1_555
O5 Sb3 2.047642 1_555
O5 Sb0 2.050823 1_565
O6 Sb1 2.047699 1_455
O6 Sb3 2.070940 1_555
O7 Sb1 2.047642 1_555
O7 Sb2 2.050823 1_545
O8 Sb2 1.951794 1_555
O8 Sb1 1.990630 1_465
O9 Sb0 2.015248 1_555
O9 Sb3 2.067344 1_655
