# generated using pymatgen
data_V2InC
_symmetry_space_group_name_H-M   'P 1'
_cell_length_a   6.02118432
_cell_length_b   6.02118343
_cell_length_c   27.06192198
_cell_angle_alpha   90.00000000
_cell_angle_beta   90.00000000
_cell_angle_gamma   119.99999370
_symmetry_Int_Tables_number   1
_chemical_formula_structural   V2InC
_chemical_formula_sum   'V32 In16 C16'
_cell_volume   849.67546235
_cell_formula_units_Z   16
loop_
 _symmetry_equiv_pos_site_id
 _symmetry_equiv_pos_as_xyz
  1  'x, y, z'
loop_
 _atom_site_type_symbol
 _atom_site_label
 _atom_site_symmetry_multiplicity
 _atom_site_fract_x
 _atom_site_fract_y
 _atom_site_fract_z
 _atom_site_occupancy
  V  V0_0  1  0.16666650  0.33333350  0.03894023  1
  V  V0_1  1  0.16666650  0.33333350  0.53894023  1
  V  V0_2  1  0.16666650  0.83333350  0.03894023  1
  V  V0_3  1  0.16666650  0.83333350  0.53894023  1
  V  V0_4  1  0.66666650  0.33333350  0.03894023  1
  V  V0_5  1  0.66666650  0.33333350  0.53894023  1
  V  V0_6  1  0.66666650  0.83333350  0.03894023  1
  V  V0_7  1  0.66666650  0.83333350  0.53894023  1
  V  V1_0  1  0.16666650  0.33333350  0.21105977  1
  V  V1_1  1  0.16666650  0.33333350  0.71105977  1
  V  V1_2  1  0.16666650  0.83333350  0.21105977  1
  V  V1_3  1  0.16666650  0.83333350  0.71105977  1
  V  V1_4  1  0.66666650  0.33333350  0.21105977  1
  V  V1_5  1  0.66666650  0.33333350  0.71105977  1
  V  V1_6  1  0.66666650  0.83333350  0.21105977  1
  V  V1_7  1  0.66666650  0.83333350  0.71105977  1
  V  V2_0  1  0.33333350  0.16666650  0.28894023  1
  V  V2_1  1  0.33333350  0.16666650  0.78894023  1
  V  V2_2  1  0.33333350  0.66666650  0.28894023  1
  V  V2_3  1  0.33333350  0.66666650  0.78894023  1
  V  V2_4  1  0.83333350  0.16666650  0.28894023  1
  V  V2_5  1  0.83333350  0.16666650  0.78894023  1
  V  V2_6  1  0.83333350  0.66666650  0.28894023  1
  V  V2_7  1  0.83333350  0.66666650  0.78894023  1
  V  V3_0  1  0.33333350  0.16666650  0.46105977  1
  V  V3_1  1  0.33333350  0.16666650  0.96105977  1
  V  V3_2  1  0.33333350  0.66666650  0.46105977  1
  V  V3_3  1  0.33333350  0.66666650  0.96105977  1
  V  V3_4  1  0.83333350  0.16666650  0.46105977  1
  V  V3_5  1  0.83333350  0.16666650  0.96105977  1
  V  V3_6  1  0.83333350  0.66666650  0.46105977  1
  V  V3_7  1  0.83333350  0.66666650  0.96105977  1
  In  In0_0  1  0.16666650  0.33333350  0.37500000  1
  In  In0_1  1  0.16666650  0.33333350  0.87500000  1
  In  In0_2  1  0.16666650  0.83333350  0.37500000  1
  In  In0_3  1  0.16666650  0.83333350  0.87500000  1
  In  In0_4  1  0.66666650  0.33333350  0.37500000  1
  In  In0_5  1  0.66666650  0.33333350  0.87500000  1
  In  In0_6  1  0.66666650  0.83333350  0.37500000  1
  In  In0_7  1  0.66666650  0.83333350  0.87500000  1
  In  In1_0  1  0.33333350  0.16666650  0.12500000  1
  In  In1_1  1  0.33333350  0.16666650  0.62500000  1
  In  In1_2  1  0.33333350  0.66666650  0.12500000  1
  In  In1_3  1  0.33333350  0.66666650  0.62500000  1
  In  In1_4  1  0.83333350  0.16666650  0.12500000  1
  In  In1_5  1  0.83333350  0.16666650  0.62500000  1
  In  In1_6  1  0.83333350  0.66666650  0.12500000  1
  In  In1_7  1  0.83333350  0.66666650  0.62500000  1
  C  C0_0  1  0.00000000  0.00000000  0.00000000  1
  C  C0_1  1  0.00000000  0.00000000  0.50000000  1
  C  C0_2  1  0.00000000  0.50000000  0.00000000  1
  C  C0_3  1  0.00000000  0.50000000  0.50000000  1
  C  C0_4  1  0.50000000  0.00000000  0.00000000  1
  C  C0_5  1  0.50000000  0.00000000  0.50000000  1
  C  C0_6  1  0.50000000  0.50000000  0.00000000  1
  C  C0_7  1  0.50000000  0.50000000  0.50000000  1
  C  C1_0  1  0.00000000  0.00000000  0.25000000  1
  C  C1_1  1  0.00000000  0.00000000  0.75000000  1
  C  C1_2  1  0.00000000  0.50000000  0.25000000  1
  C  C1_3  1  0.00000000  0.50000000  0.75000000  1
  C  C1_4  1  0.50000000  0.00000000  0.25000000  1
  C  C1_5  1  0.50000000  0.00000000  0.75000000  1
  C  C1_6  1  0.50000000  0.50000000  0.25000000  1
  C  C1_7  1  0.50000000  0.50000000  0.75000000  1
loop_
_geom_bond_atom_site_label_1
_geom_bond_atom_site_label_2
_geom_bond_distance
_geom_bond_site_symmetry_2
In0_0 V3_2 2.906061 1_555
In0_0 V2_2 2.906061 1_555
In0_0 V3_4 2.906061 1_455
In0_0 V2_4 2.906061 1_455
In0_0 V3_0 2.906064 1_555
In0_0 V2_0 2.906064 1_555
In0_0 In0_2 3.010592 1_555
In0_0 In0_2 3.010592 1_545
In0_0 In0_4 3.010592 1_555
In0_0 In0_4 3.010592 1_455
In0_0 In0_6 3.010592 1_555
In0_0 In0_6 3.010592 1_445
In0_1 V3_3 2.906061 1_555
In0_1 V2_3 2.906061 1_555
In0_1 V3_5 2.906061 1_455
In0_1 V2_5 2.906061 1_455
In0_1 V3_1 2.906064 1_555
In0_1 V2_1 2.906064 1_555
In0_1 In0_3 3.010592 1_555
In0_1 In0_3 3.010592 1_545
In0_1 In0_5 3.010592 1_555
In0_1 In0_5 3.010592 1_455
In0_1 In0_7 3.010592 1_555
In0_1 In0_7 3.010592 1_445
In0_2 V3_0 2.906061 1_565
In0_2 V2_0 2.906061 1_565
In0_2 V3_6 2.906061 1_455
In0_2 V2_6 2.906061 1_455
In0_2 V3_2 2.906064 1_555
In0_2 V2_2 2.906064 1_555
In0_2 In0_6 3.010592 1_555
In0_2 In0_6 3.010592 1_455
In0_2 In0_4 3.010592 1_565
In0_2 In0_4 3.010592 1_455
In0_3 V2_1 2.906061 1_565
In0_3 V3_1 2.906061 1_565
In0_3 V2_7 2.906061 1_455
In0_3 V3_7 2.906061 1_455
In0_3 V3_3 2.906064 1_555
In0_3 V2_3 2.906064 1_555
In0_3 In0_7 3.010592 1_455
In0_3 In0_7 3.010592 1_555
In0_3 In0_5 3.010592 1_565
In0_3 In0_5 3.010592 1_455
In0_4 V3_6 2.906061 1_555
In0_4 V2_6 2.906061 1_555
In0_4 V3_0 2.906061 1_555
In0_4 V2_0 2.906061 1_555
In0_4 V3_4 2.906064 1_555
In0_4 V2_4 2.906064 1_555
In0_4 In0_6 3.010592 1_555
In0_4 In0_6 3.010592 1_545
In0_5 V2_7 2.906061 1_555
In0_5 V3_7 2.906061 1_555
In0_5 V3_1 2.906061 1_555
In0_5 V2_1 2.906061 1_555
In0_5 V2_5 2.906064 1_555
In0_5 V3_5 2.906064 1_555
In0_5 In0_7 3.010592 1_555
In0_5 In0_7 3.010592 1_545
In0_6 V3_4 2.906061 1_565
In0_6 V2_4 2.906061 1_565
In0_6 V3_2 2.906061 1_555
In0_6 V2_2 2.906061 1_555
In0_6 V3_6 2.906064 1_555
In0_6 V2_6 2.906064 1_555
In0_7 V2_5 2.906061 1_565
In0_7 V3_5 2.906061 1_565
In0_7 V2_3 2.906061 1_555
In0_7 V3_3 2.906061 1_555
In0_7 V3_7 2.906064 1_555
In0_7 V2_7 2.906064 1_555
In1_0 V1_2 2.906061 1_545
In1_0 V0_2 2.906061 1_545
In1_0 V1_4 2.906061 1_555
In1_0 V0_4 2.906061 1_555
In1_0 V0_0 2.906064 1_555
In1_0 V1_0 2.906064 1_555
In1_0 In1_2 3.010592 1_545
In1_0 In1_2 3.010592 1_555
In1_0 In1_4 3.010592 1_455
In1_0 In1_4 3.010592 1_555
In1_0 In1_6 3.010592 1_555
In1_0 In1_6 3.010592 1_445
In1_1 V1_3 2.906061 1_545
In1_1 V0_3 2.906061 1_545
In1_1 V1_5 2.906061 1_555
In1_1 V0_5 2.906061 1_555
In1_1 V1_1 2.906064 1_555
In1_1 V0_1 2.906064 1_555
In1_1 In1_3 3.010592 1_545
In1_1 In1_3 3.010592 1_555
In1_1 In1_5 3.010592 1_455
In1_1 In1_5 3.010592 1_555
In1_1 In1_7 3.010592 1_555
In1_1 In1_7 3.010592 1_445
In1_2 V0_0 2.906061 1_555
In1_2 V1_0 2.906061 1_555
In1_2 V0_6 2.906061 1_555
In1_2 V1_6 2.906061 1_555
In1_2 V0_2 2.906064 1_555
In1_2 V1_2 2.906064 1_555
In1_2 In1_6 3.010592 1_455
In1_2 In1_6 3.010592 1_555
In1_2 In1_4 3.010592 1_455
In1_2 In1_4 3.010592 1_565
In1_3 V1_1 2.906061 1_555
In1_3 V0_1 2.906061 1_555
In1_3 V0_7 2.906061 1_555
In1_3 V1_7 2.906061 1_555
In1_3 V0_3 2.906064 1_555
In1_3 V1_3 2.906064 1_555
In1_3 In1_7 3.010592 1_455
In1_3 In1_7 3.010592 1_555
In1_3 In1_5 3.010592 1_455
In1_3 In1_5 3.010592 1_565
In1_4 V1_6 2.906061 1_545
In1_4 V0_6 2.906061 1_545
In1_4 V0_0 2.906061 1_655
In1_4 V1_0 2.906061 1_655
In1_4 V1_4 2.906064 1_555
In1_4 V0_4 2.906064 1_555
In1_4 In1_6 3.010592 1_555
In1_4 In1_6 3.010592 1_545
In1_5 V0_7 2.906061 1_545
In1_5 V1_7 2.906061 1_545
In1_5 V1_1 2.906061 1_655
In1_5 V0_1 2.906061 1_655
In1_5 V0_5 2.906064 1_555
In1_5 V1_5 2.906064 1_555
In1_5 In1_7 3.010592 1_555
In1_5 In1_7 3.010592 1_545
In1_6 V1_4 2.906061 1_555
In1_6 V0_4 2.906061 1_555
In1_6 V1_2 2.906061 1_655
In1_6 V0_2 2.906061 1_655
In1_6 V0_6 2.906064 1_555
In1_6 V1_6 2.906064 1_555
In1_7 V0_5 2.906061 1_555
In1_7 V1_5 2.906061 1_555
In1_7 V0_3 2.906061 1_655
In1_7 V1_3 2.906061 1_655
In1_7 V1_7 2.906064 1_555
In1_7 V0_7 2.906064 1_555
C0_0 V0_2 2.032659 1_545
C0_0 V3_5 2.032659 1_454
C0_0 V0_0 2.032662 1_555
C0_0 V3_7 2.032662 1_444
C0_0 V0_6 2.032662 1_445
C0_0 V3_1 2.032662 1_554
C0_1 V3_4 2.032659 1_455
C0_1 V0_3 2.032659 1_545
C0_1 V3_6 2.032662 1_445
C0_1 V0_1 2.032662 1_555
C0_1 V3_0 2.032662 1_555
C0_1 V0_7 2.032662 1_445
C0_2 V3_7 2.032659 1_454
C0_2 V0_0 2.032659 1_555
C0_2 V0_2 2.032662 1_555
C0_2 V3_5 2.032662 1_454
C0_2 V3_3 2.032662 1_554
C0_2 V0_4 2.032662 1_455
C0_3 V3_6 2.032659 1_455
C0_3 V0_1 2.032659 1_555
C0_3 V3_4 2.032662 1_455
C0_3 V0_3 2.032662 1_555
C0_3 V3_2 2.032662 1_555
C0_3 V0_5 2.032662 1_455
C0_4 V3_1 2.032659 1_554
C0_4 V0_6 2.032659 1_545
C0_4 V0_4 2.032662 1_555
C0_4 V3_3 2.032662 1_544
C0_4 V0_2 2.032662 1_545
C0_4 V3_5 2.032662 1_554
C0_5 V3_0 2.032659 1_555
C0_5 V0_7 2.032659 1_545
C0_5 V3_2 2.032662 1_545
C0_5 V0_5 2.032662 1_555
C0_5 V3_4 2.032662 1_555
C0_5 V0_3 2.032662 1_545
C0_6 V3_3 2.032659 1_554
C0_6 V0_4 2.032659 1_555
C0_6 V0_6 2.032662 1_555
C0_6 V3_1 2.032662 1_554
C0_6 V0_0 2.032662 1_555
C0_6 V3_7 2.032662 1_554
C0_7 V3_2 2.032659 1_555
C0_7 V0_5 2.032659 1_555
C0_7 V3_0 2.032662 1_555
C0_7 V0_7 2.032662 1_555
C0_7 V3_6 2.032662 1_555
C0_7 V0_1 2.032662 1_555
C1_0 V1_2 2.032659 1_545
C1_0 V2_4 2.032659 1_455
C1_0 V1_0 2.032662 1_555
C1_0 V2_6 2.032662 1_445
C1_0 V1_6 2.032662 1_445
C1_0 V2_0 2.032662 1_555
C1_1 V2_5 2.032659 1_455
C1_1 V1_3 2.032659 1_545
C1_1 V2_7 2.032662 1_445
C1_1 V1_1 2.032662 1_555
C1_1 V2_1 2.032662 1_555
C1_1 V1_7 2.032662 1_445
C1_2 V2_6 2.032659 1_455
C1_2 V1_0 2.032659 1_555
C1_2 V1_2 2.032662 1_555
C1_2 V2_4 2.032662 1_455
C1_2 V1_4 2.032662 1_455
C1_2 V2_2 2.032662 1_555
C1_3 V2_7 2.032659 1_455
C1_3 V1_1 2.032659 1_555
C1_3 V2_5 2.032662 1_455
C1_3 V1_3 2.032662 1_555
C1_3 V2_3 2.032662 1_555
C1_3 V1_5 2.032662 1_455
C1_4 V2_0 2.032659 1_555
C1_4 V1_6 2.032659 1_545
C1_4 V1_4 2.032662 1_555
C1_4 V2_2 2.032662 1_545
C1_4 V1_2 2.032662 1_545
C1_4 V2_4 2.032662 1_555
C1_5 V2_1 2.032659 1_555
C1_5 V1_7 2.032659 1_545
C1_5 V2_3 2.032662 1_545
C1_5 V1_5 2.032662 1_555
C1_5 V2_5 2.032662 1_555
C1_5 V1_3 2.032662 1_545
C1_6 V2_2 2.032659 1_555
C1_6 V1_4 2.032659 1_555
C1_6 V1_6 2.032662 1_555
C1_6 V2_0 2.032662 1_555
C1_6 V1_0 2.032662 1_555
C1_6 V2_6 2.032662 1_555
C1_7 V2_3 2.032659 1_555
C1_7 V1_5 2.032659 1_555
C1_7 V2_1 2.032662 1_555
C1_7 V1_7 2.032662 1_555
C1_7 V2_7 2.032662 1_555
C1_7 V1_1 2.032662 1_555
