# generated using pymatgen
data_Na5Ga4P5SO24
_symmetry_space_group_name_H-M   'P 1'
_cell_length_a   8.66172031
_cell_length_b   8.67530175
_cell_length_c   21.91501979
_cell_angle_alpha   90.44582423
_cell_angle_beta   89.77138415
_cell_angle_gamma   119.92739623
_symmetry_Int_Tables_number   1
_chemical_formula_structural   Na5Ga4P5SO24
_chemical_formula_sum   'Na15 Ga12 P15 S3 O72'
_cell_volume   1427.13599725
_cell_formula_units_Z   3
loop_
 _symmetry_equiv_pos_site_id
 _symmetry_equiv_pos_as_xyz
  1  'x, y, z'
loop_
 _atom_site_type_symbol
 _atom_site_label
 _atom_site_symmetry_multiplicity
 _atom_site_fract_x
 _atom_site_fract_y
 _atom_site_fract_z
 _atom_site_occupancy
  Na  Na0  1  0.63958841  0.00015783  0.25034258  1
  Na  Na1  1  0.99746336  0.36345050  0.74981075  1
  Na  Na2  1  0.36536999  0.99947094  0.75052830  1
  Na  Na3  1  0.03094311  0.69978611  0.58291622  1
  Na  Na4  1  0.66680113  0.96786442  0.58356335  1
  Na  Na5  1  0.30131048  0.97039951  0.08217387  1
  Na  Na6  1  0.03290436  0.33487984  0.08351948  1
  Na  Na7  1  0.97153610  0.66666751  0.91665269  1
  Na  Na8  1  0.70179758  0.66860063  0.41737326  1
  Na  Na9  1  0.01281858  0.01279337  0.49942627  1
  Na  Na10  1  0.99716183  0.00501242  0.99880813  1
  Na  Na11  1  0.65824092  0.32862979  0.83428269  1
  Na  Na12  1  0.67655745  0.33743520  0.33330591  1
  Na  Na13  1  0.33537191  0.65440700  0.16763055  1
  Na  Na14  1  0.34096419  0.65676199  0.66665775  1
  Ga  Ga0  1  0.98871713  0.99463478  0.35083328  1
  Ga  Ga1  1  0.01026281  0.01380376  0.85006756  1
  Ga  Ga2  1  0.00409226  0.00580598  0.64958457  1
  Ga  Ga3  1  0.98820039  0.99703064  0.14881502  1
  Ga  Ga4  1  0.66492461  0.34024149  0.68369035  1
  Ga  Ga5  1  0.67599792  0.34895706  0.18349284  1
  Ga  Ga6  1  0.66267143  0.32043558  0.98328031  1
  Ga  Ga7  1  0.67438146  0.32690895  0.48300909  1
  Ga  Ga8  1  0.33259938  0.66425524  0.01787662  1
  Ga  Ga9  1  0.33220645  0.66974651  0.51762491  1
  Ga  Ga10  1  0.32515273  0.65845815  0.31578931  1
  Ga  Ga11  1  0.33468596  0.66856452  0.81550500  1
  P  P0  1  0.70581796  0.70322026  0.25082516  1
  P  P1  1  0.00334947  0.29372333  0.24990378  1
  P  P2  1  0.29498637  0.29498173  0.75005188  1
  P  P3  1  0.99483394  0.70854622  0.75061215  1
  P  P4  1  0.70860389  0.99564858  0.74991924  1
  P  P5  1  0.96240355  0.33331524  0.58410774  1
  P  P6  1  0.37612417  0.04808601  0.58310994  1
  P  P7  1  0.66170719  0.62053269  0.58209956  1
  P  P8  1  0.95500129  0.62642900  0.08193287  1
  P  P9  1  0.66525892  0.03958923  0.08431859  1
  P  P10  1  0.38041416  0.33678414  0.08371828  1
  P  P11  1  0.04086463  0.37154029  0.91678739  1
  P  P12  1  0.33631026  0.96182973  0.91665332  1
  P  P13  1  0.62213784  0.96066556  0.41589252  1
  P  P14  1  0.04343886  0.66806850  0.41662272  1
  S  S0  1  0.28912295  0.00088385  0.25005537  1
  S  S1  1  0.62294416  0.66675265  0.91660695  1
  S  S2  1  0.32981682  0.37162582  0.41668077  1
  O  O0  1  0.20655429  0.02905493  0.30462388  1
  O  O1  1  0.81799772  0.78256986  0.30952429  1
  O  O2  1  0.96505681  0.16996970  0.30528685  1
  O  O3  1  0.21705208  0.17358960  0.80614402  1
  O  O4  1  0.96677475  0.79170124  0.80898695  1
  O  O5  1  0.83155947  0.03656370  0.80540933  1
  O  O6  1  0.78660749  0.96524298  0.69048183  1
  O  O7  1  0.17202744  0.21504221  0.69393923  1
  O  O8  1  0.03555309  0.82621682  0.69320068  1
  O  O9  1  0.78969851  0.82802949  0.19552789  1
  O  O10  1  0.03522643  0.21383875  0.19066140  1
  O  O11  1  0.18357668  0.97156860  0.19358151  1
  O  O12  1  0.88350467  0.37324894  0.64215507  1
  O  O13  1  0.49251178  0.12193649  0.64148212  1
  O  O14  1  0.63181813  0.50791999  0.63885147  1
  O  O15  1  0.87839372  0.50386992  0.13744440  1
  O  O16  1  0.62563107  0.11825927  0.14243440  1
  O  O17  1  0.49224432  0.36621148  0.14105298  1
  O  O18  1  0.45871005  0.29497348  0.02679225  1
  O  O19  1  0.84418702  0.54696264  0.02340713  1
  O  O20  1  0.70815679  0.16225179  0.02878661  1
  O  O21  1  0.46098337  0.16251778  0.52692425  1
  O  O22  1  0.70126531  0.54271791  0.52393802  1
  O  O23  1  0.83970290  0.29220139  0.52836751  1
  O  O24  1  0.54412251  0.69734581  0.97195486  1
  O  O25  1  0.15483478  0.45518224  0.97487282  1
  O  O26  1  0.29889608  0.84232871  0.97381381  1
  O  O27  1  0.54367312  0.83936003  0.47312099  1
  O  O28  1  0.29926601  0.45150452  0.47187625  1
  O  O29  1  0.15216103  0.69783007  0.47589323  1
  O  O30  1  0.12777625  0.63342362  0.36048986  1
  O  O31  1  0.51051158  0.87382807  0.35774203  1
  O  O32  1  0.36833504  0.48684138  0.36224719  1
  O  O33  1  0.12295929  0.49117956  0.85959742  1
  O  O34  1  0.36641136  0.87768133  0.85835686  1
  O  O35  1  0.51400864  0.63640398  0.86155705  1
  O  O36  1  0.02259996  0.83646541  0.41036019  1
  O  O37  1  0.80963353  0.97540446  0.41110319  1
  O  O38  1  0.17123679  0.19434355  0.40935500  1
  O  O39  1  0.02052273  0.18551832  0.91059096  1
  O  O40  1  0.16067585  0.97005830  0.91098466  1
  O  O41  1  0.80400887  0.82592837  0.91150750  1
  O  O42  1  0.97479598  0.16251607  0.58999545  1
  O  O43  1  0.18510169  0.01839831  0.58949097  1
  O  O44  1  0.83239124  0.80949856  0.58831219  1
  O  O45  1  0.98334511  0.81643982  0.09037103  1
  O  O46  1  0.83621368  0.02575459  0.08972502  1
  O  O47  1  0.19011296  0.16657121  0.08965246  1
  O  O48  1  0.68840642  0.16515481  0.74451178  1
  O  O49  1  0.47852507  0.30759156  0.74301191  1
  O  O50  1  0.83265526  0.51878577  0.74460807  1
  O  O51  1  0.68684682  0.51810483  0.24405248  1
  O  O52  1  0.82845410  0.30342252  0.24388111  1
  O  O53  1  0.47080569  0.15914774  0.24552901  1
  O  O54  1  0.64488858  0.50762082  0.92165834  1
  O  O55  1  0.85680910  0.36292329  0.92271688  1
  O  O56  1  0.50222264  0.14735901  0.92266219  1
  O  O57  1  0.63903115  0.14508073  0.42236539  1
  O  O58  1  0.49423692  0.35857557  0.42236203  1
  O  O59  1  0.85126309  0.50385606  0.42224747  1
  O  O60  1  0.35284770  0.49958004  0.07699796  1
  O  O61  1  0.14541186  0.64649345  0.07668037  1
  O  O62  1  0.49553411  0.85558796  0.07614119  1
  O  O63  1  0.35713970  0.85781834  0.57754610  1
  O  O64  1  0.49857736  0.64782006  0.57590984  1
  O  O65  1  0.14564714  0.50411938  0.57649541  1
  O  O66  1  0.31135028  0.84101807  0.25476931  1
  O  O67  1  0.52111427  0.69339537  0.25731145  1
  O  O68  1  0.16954091  0.47955325  0.25674402  1
  O  O69  1  0.30826476  0.47881991  0.75797854  1
  O  O70  1  0.16577408  0.68917807  0.75555736  1
  O  O71  1  0.51904069  0.83201162  0.75649385  1
loop_
_geom_bond_atom_site_label_1
_geom_bond_atom_site_label_2
_geom_bond_distance
_geom_bond_site_symmetry_2
Na0 O52 2.308119 1_555
Na0 O67 2.332122 1_545
Na0 O53 2.462999 1_555
Na0 O66 2.466178 1_545
Na0 O31 2.605253 1_545
Na0 O16 2.611562 1_555
Na0 O9 2.694503 1_545
Na0 O2 2.724533 1_555
Na1 O48 2.354430 1_555
Na1 O69 2.365081 1_655
Na1 O50 2.406233 1_555
Na1 O70 2.451867 1_655
Na1 O12 2.579372 1_555
Na1 O33 2.641155 1_655
Na1 O7 2.710386 1_655
Na1 O5 2.750494 1_555
Na2 O49 2.350389 1_565
Na2 O70 2.367859 1_555
Na2 O71 2.415182 1_555
Na2 O48 2.428890 1_565
Na2 O34 2.597886 1_555
Na2 O13 2.627452 1_565
Na2 O3 2.704220 1_565
Na2 O8 2.777325 1_555
Na3 O44 2.346810 1_455
Na3 O65 2.359293 1_555
Na3 O43 2.399249 1_565
Na3 O63 2.451779 1_555
Na3 O29 2.569271 1_555
Na3 O8 2.638517 1_555
Na3 O12 2.788429 1_455
Na3 O22 2.793055 1_455
Na4 O42 2.343641 1_565
Na4 O63 2.359840 1_555
Na4 O64 2.412073 1_555
Na4 O44 2.434170 1_555
Na4 O6 2.571263 1_555
Na4 O27 2.651524 1_555
Na4 O23 2.730741 1_565
Na4 O13 2.765572 1_565
Na5 O47 2.341108 1_565
Na5 O62 2.346877 1_555
Na5 O45 2.393901 1_455
Na5 O61 2.438000 1_555
Na5 O26 2.609653 1_554
Na5 O11 2.644057 1_555
Na5 O18 2.733109 1_565
Na5 O16 2.772835 1_565
Na6 O46 2.357506 1_455
Na6 O61 2.378378 1_555
Na6 O60 2.406432 1_555
Na6 O47 2.447991 1_555
Na6 O10 2.583806 1_555
Na6 O25 2.606252 1_554
Na6 O15 2.693532 1_455
Na6 O20 2.718355 1_455
Na7 O40 2.308206 1_655
Na7 O55 2.310922 1_555
Na7 O54 2.454695 1_555
Na7 O41 2.455897 1_555
Na7 O19 2.577360 1_556
Na7 O4 2.613571 1_555
Na7 O33 2.747924 1_655
Na7 O26 2.760194 1_655
Na8 O37 2.345118 1_555
Na8 O59 2.362165 1_555
Na8 O58 2.378263 1_555
Na8 O36 2.414113 1_655
Na8 O1 2.569282 1_555
Na8 O22 2.584795 1_555
Na8 O27 2.746992 1_555
Na8 O32 2.782488 1_555
Na9 O43 2.464671 1_555
Na9 O42 2.473179 1_455
Na9 O38 2.475917 1_555
Na9 O36 2.497707 1_545
Na9 O37 2.529218 1_445
Na9 O44 2.574151 1_445
Na10 O39 2.441008 1_655
Na10 O46 2.483599 1_556
Na10 O40 2.489957 1_645
Na10 O41 2.501763 1_545
Na10 O47 2.523283 1_656
Na10 O45 2.563365 1_546
Na11 O56 2.440617 1_555
Na11 O49 2.488564 1_555
Na11 O54 2.494460 1_555
Na11 O48 2.504428 1_555
Na11 O55 2.511923 1_555
Na11 O50 2.530971 1_555
Na12 O59 2.444042 1_555
Na12 O52 2.452854 1_555
Na12 O51 2.489459 1_555
Na12 O57 2.490786 1_555
Na12 O53 2.549389 1_555
Na12 O58 2.568144 1_555
Na13 O60 2.435369 1_555
Na13 O68 2.455149 1_555
Na13 O67 2.457101 1_555
Na13 O66 2.568215 1_555
Na13 O61 2.568281 1_555
Na13 O62 2.570404 1_555
Na14 O64 2.430328 1_555
Na14 O69 2.464896 1_555
Na14 O71 2.490855 1_555
Na14 O65 2.504094 1_555
Na14 O70 2.563404 1_555
Na14 O63 2.585089 1_555
Ga0 O1 1.913388 1_555
Ga0 O2 1.920496 1_565
Ga0 O37 1.976712 1_555
Ga0 O0 2.025374 1_665
Ga0 O36 2.025714 1_655
Ga0 O38 2.096292 1_665
Ga1 O3 1.893646 1_555
Ga1 O5 1.926861 1_455
Ga1 O39 1.955605 1_555
Ga1 O4 1.979013 1_445
Ga1 O40 2.034389 1_545
Ga1 O41 2.184177 1_445
Ga2 O7 1.924805 1_555
Ga2 O6 1.950842 1_445
Ga2 O8 1.965736 1_545
Ga2 O42 1.998129 1_455
Ga2 O43 2.004825 1_555
Ga2 O44 2.090057 1_445
Ga3 O9 1.909918 1_555
Ga3 O10 1.938119 1_665
Ga3 O46 1.953983 1_565
Ga3 O45 2.000042 1_555
Ga3 O11 2.065126 1_655
Ga3 O47 2.085169 1_665
Ga4 O14 1.898572 1_555
Ga4 O13 1.958121 1_555
Ga4 O49 1.977303 1_555
Ga4 O12 1.986053 1_555
Ga4 O50 2.007503 1_555
Ga4 O48 2.113546 1_555
Ga5 O15 1.885203 1_555
Ga5 O17 1.916351 1_555
Ga5 O51 1.938191 1_555
Ga5 O16 2.027154 1_555
Ga5 O52 2.047889 1_555
Ga5 O53 2.194080 1_555
Ga6 O20 1.896539 1_556
Ga6 O18 1.918230 1_556
Ga6 O56 1.962714 1_555
Ga6 O19 2.002097 1_556
Ga6 O55 2.023972 1_555
Ga6 O54 2.183990 1_555
Ga7 O23 1.890906 1_555
Ga7 O21 1.937405 1_555
Ga7 O57 1.958811 1_555
Ga7 O22 1.975968 1_555
Ga7 O59 2.036104 1_555
Ga7 O58 2.174076 1_555
Ga8 O25 1.935748 1_554
Ga8 O26 1.969688 1_554
Ga8 O24 1.979134 1_554
Ga8 O62 2.005315 1_555
Ga8 O60 2.007735 1_555
Ga8 O61 2.012563 1_555
Ga9 O29 1.929189 1_555
Ga9 O27 1.946836 1_555
Ga9 O65 2.008910 1_555
Ga9 O64 2.009067 1_555
Ga9 O63 2.012573 1_555
Ga9 O28 2.026067 1_555
Ga10 O30 1.883898 1_555
Ga10 O68 1.948151 1_555
Ga10 O31 1.976306 1_555
Ga10 O32 1.993831 1_555
Ga10 O67 2.022529 1_555
Ga10 O66 2.129321 1_555
Ga11 O34 1.930462 1_555
Ga11 O33 1.964209 1_555
Ga11 O69 1.986319 1_555
Ga11 O35 1.989536 1_555
Ga11 O71 1.996422 1_555
Ga11 O70 2.044151 1_555
O0 S0 1.471174 1_555
O1 P0 1.549710 1_555
O2 P1 1.548387 1_655
O3 P2 1.542725 1_555
O4 P3 1.540828 1_555
O5 P4 1.538008 1_545
O6 P4 1.545389 1_555
O7 P2 1.545196 1_555
O8 P3 1.551347 1_455
O9 P0 1.548302 1_555
O10 P1 1.554401 1_555
O11 S0 1.484695 1_565
O12 P5 1.558125 1_555
O13 P6 1.554435 1_555
O14 P7 1.527175 1_555
O15 P8 1.536378 1_555
O16 P9 1.556411 1_555
O17 P10 1.529767 1_555
O18 P10 1.542559 1_555
O19 P8 1.541886 1_555
O20 P9 1.540620 1_555
O21 P6 1.524999 1_555
O22 P7 1.552957 1_555
O23 P5 1.540869 1_555
O24 S1 1.475464 1_555
O25 P11 1.549948 1_555
O26 P12 1.559075 1_555
O27 P13 1.562812 1_555
O28 S2 1.476742 1_555
O29 P14 1.550036 1_555
O30 P14 1.530817 1_555
O31 P13 1.547415 1_555
O32 S2 1.488639 1_555
O33 P11 1.558978 1_555
O34 P12 1.551071 1_555
O35 S1 1.473550 1_555
O36 P14 1.565905 1_555
O37 P13 1.567324 1_555
O38 S2 1.472374 1_555
O39 P11 1.538469 1_555
O40 P12 1.563610 1_555
O41 S1 1.489659 1_555
O42 P5 1.544504 1_555
O43 P6 1.548239 1_555
O44 P7 1.572103 1_555
O45 P8 1.550326 1_555
O46 P9 1.549210 1_555
O47 P10 1.577030 1_555
O48 P4 1.570555 1_545
O49 P2 1.545279 1_555
O50 P3 1.546397 1_555
O51 P0 1.536627 1_555
O52 P1 1.564725 1_655
O53 S0 1.488753 1_555
O54 S1 1.489491 1_555
O55 P11 1.563218 1_655
O56 P12 1.537332 1_545
O57 P13 1.537571 1_545
O58 S2 1.489654 1_555
O59 P14 1.565383 1_655
O60 P10 1.553480 1_555
O61 P8 1.573540 1_455
O62 P9 1.548393 1_565
O63 P6 1.578823 1_565
O64 P7 1.551371 1_555
O65 P5 1.548460 1_455
O66 S0 1.496663 1_565
O67 P0 1.565026 1_555
O68 P1 1.541427 1_555
O69 P2 1.549121 1_555
O70 P3 1.575456 1_455
O71 P4 1.551616 1_555
