# generated using pymatgen
data_Na4La2Zn2SiS5O24
_symmetry_space_group_name_H-M   'P 1'
_cell_length_a   9.30080216
_cell_length_b   9.24658874
_cell_length_c   23.50370260
_cell_angle_alpha   90.04975966
_cell_angle_beta   89.74755449
_cell_angle_gamma   120.05571099
_symmetry_Int_Tables_number   1
_chemical_formula_structural   Na4La2Zn2SiS5O24
_chemical_formula_sum   'Na12 La6 Zn6 Si3 S15 O72'
_cell_volume   1749.52458658
_cell_formula_units_Z   3
loop_
 _symmetry_equiv_pos_site_id
 _symmetry_equiv_pos_as_xyz
  1  'x, y, z'
loop_
 _atom_site_type_symbol
 _atom_site_label
 _atom_site_symmetry_multiplicity
 _atom_site_fract_x
 _atom_site_fract_y
 _atom_site_fract_z
 _atom_site_occupancy
  Na  Na0  1  0.98598546  0.62477083  0.24304352  1
  Na  Na1  1  0.98951302  0.34322986  0.76901922  1
  Na  Na2  1  0.36794699  0.98871975  0.75975129  1
  Na  Na3  1  0.65245047  0.97100508  0.58973726  1
  Na  Na4  1  0.67727539  0.68669734  0.07444814  1
  Na  Na5  1  0.33908969  0.03392953  0.41662951  1
  Na  Na6  1  0.01611630  0.00046614  0.49463718  1
  Na  Na7  1  0.02177396  0.99220960  0.00693146  1
  Na  Na8  1  0.66513173  0.32828927  0.84687177  1
  Na  Na9  1  0.66670257  0.33311357  0.32996265  1
  Na  Na10  1  0.31426172  0.66509597  0.17383236  1
  Na  Na11  1  0.36080341  0.68854129  0.67331380  1
  La  La0  1  0.97752665  0.98818341  0.85454821  1
  La  La1  1  0.00453247  0.99556149  0.64731863  1
  La  La2  1  0.00857439  0.00640744  0.15516070  1
  La  La3  1  0.65484473  0.32798209  0.67887284  1
  La  La4  1  0.30657353  0.66584482  0.02381524  1
  La  La5  1  0.32575566  0.66695496  0.50647786  1
  Zn  Zn0  1  0.99314800  0.00351294  0.34510367  1
  Zn  Zn1  1  0.67588855  0.33321172  0.17030957  1
  Zn  Zn2  1  0.68992409  0.34853415  0.98943176  1
  Zn  Zn3  1  0.64985501  0.32738881  0.48563471  1
  Zn  Zn4  1  0.34288372  0.66237558  0.31981115  1
  Zn  Zn5  1  0.38025714  0.69571493  0.82146502  1
  Si  Si0  1  0.68698234  0.99407866  0.74412827  1
  Si  Si1  1  0.35976475  0.02865693  0.57564028  1
  Si  Si2  1  0.94923736  0.62448867  0.09134261  1
  S  S0  1  0.30602301  0.98991220  0.25866822  1
  S  S1  1  0.69342974  0.70023189  0.25554035  1
  S  S2  1  0.00863517  0.31330526  0.25784001  1
  S  S3  1  0.30131590  0.31789632  0.75482940  1
  S  S4  1  0.01695498  0.68883068  0.75357769  1
  S  S5  1  0.95860821  0.32961760  0.57801686  1
  S  S6  1  0.67133620  0.63864251  0.57454378  1
  S  S7  1  0.67030765  0.04740285  0.08326420  1
  S  S8  1  0.38773978  0.32962858  0.08251050  1
  S  S9  1  0.61744063  0.63969841  0.92197762  1
  S  S10  1  0.01998030  0.37418457  0.91263458  1
  S  S11  1  0.35311419  0.98435490  0.91325751  1
  S  S12  1  0.64261424  0.97278751  0.41126635  1
  S  S13  1  0.32908384  0.35252235  0.40967298  1
  S  S14  1  0.01864635  0.67279639  0.40820988  1
  O  O0  1  0.22433020  0.01260785  0.30975254  1
  O  O1  1  0.81465535  0.80302223  0.30033169  1
  O  O2  1  0.00021733  0.20806722  0.30615317  1
  O  O3  1  0.21665910  0.19913819  0.80243953  1
  O  O4  1  0.00439561  0.77820540  0.80388446  1
  O  O5  1  0.83171214  0.02953568  0.79116080  1
  O  O6  1  0.75490347  0.97950127  0.68070749  1
  O  O7  1  0.20969184  0.24147850  0.70095497  1
  O  O8  1  0.03100524  0.78576439  0.70116774  1
  O  O9  1  0.75794134  0.78735844  0.19908983  1
  O  O10  1  0.02635027  0.24094284  0.20313179  1
  O  O11  1  0.19473824  0.96032226  0.20791534  1
  O  O12  1  0.89452594  0.34032905  0.63546578  1
  O  O13  1  0.45002794  0.11396731  0.63708457  1
  O  O14  1  0.68040015  0.56876449  0.63053316  1
  O  O15  1  0.86625606  0.54093868  0.15326868  1
  O  O16  1  0.65704191  0.12584956  0.13648230  1
  O  O17  1  0.46980487  0.32255061  0.13555815  1
  O  O18  1  0.46739144  0.31584020  0.03036004  1
  O  O19  1  0.83694799  0.52818615  0.03642175  1
  O  O20  1  0.66355438  0.13187330  0.03131753  1
  O  O21  1  0.46395994  0.13389930  0.51920947  1
  O  O22  1  0.67415772  0.53908384  0.52651958  1
  O  O23  1  0.85768706  0.34170429  0.53229519  1
  O  O24  1  0.53684823  0.65083392  0.97496895  1
  O  O25  1  0.12022898  0.46856681  0.96221525  1
  O  O26  1  0.33821272  0.87891928  0.96286382  1
  O  O27  1  0.58561374  0.88920930  0.46841492  1
  O  O28  1  0.30986418  0.42044872  0.46484752  1
  O  O29  1  0.12793132  0.70697880  0.45992853  1
  O  O30  1  0.10319599  0.64825232  0.35852719  1
  O  O31  1  0.51489796  0.86680637  0.36821145  1
  O  O32  1  0.34199532  0.46270828  0.36217656  1
  O  O33  1  0.10449931  0.45888463  0.85899437  1
  O  O34  1  0.35460902  0.89803919  0.85914128  1
  O  O35  1  0.52411761  0.64083324  0.87076216  1
  O  O36  1  0.00877901  0.82921543  0.40231473  1
  O  O37  1  0.80850362  0.99463779  0.40021317  1
  O  O38  1  0.18139908  0.17938412  0.40402061  1
  O  O39  1  0.00046546  0.20320610  0.91597132  1
  O  O40  1  0.20427726  0.00676783  0.91399196  1
  O  O41  1  0.78910448  0.79102147  0.92084126  1
  O  O42  1  0.95046473  0.16381932  0.57372120  1
  O  O43  1  0.17176901  0.00347742  0.57566278  1
  O  O44  1  0.81560728  0.81240831  0.56991072  1
  O  O45  1  0.96532048  0.81299299  0.08723384  1
  O  O46  1  0.82673304  0.03790496  0.08343825  1
  O  O47  1  0.21047700  0.19193162  0.08288911  1
  O  O48  1  0.66188839  0.15942396  0.75066295  1
  O  O49  1  0.47331656  0.34739623  0.75145805  1
  O  O50  1  0.86842704  0.51874879  0.75197424  1
  O  O51  1  0.68405670  0.53527068  0.25523752  1
  O  O52  1  0.85693259  0.32867113  0.25624704  1
  O  O53  1  0.47131551  0.13693048  0.24977335  1
  O  O54  1  0.62983832  0.48699730  0.92010850  1
  O  O55  1  0.85441112  0.36075408  0.91554459  1
  O  O56  1  0.50743977  0.14644518  0.91646701  1
  O  O57  1  0.64805351  0.13723764  0.41199252  1
  O  O58  1  0.48160598  0.33598590  0.41092909  1
  O  O59  1  0.85356373  0.52400753  0.41737484  1
  O  O60  1  0.39029200  0.49446970  0.08331158  1
  O  O61  1  0.13840877  0.65067523  0.09176729  1
  O  O62  1  0.52923779  0.86882610  0.08404147  1
  O  O63  1  0.35982219  0.84885361  0.57687022  1
  O  O64  1  0.51657765  0.64980271  0.57521818  1
  O  O65  1  0.13383416  0.46526322  0.57496061  1
  O  O66  1  0.31340939  0.83138335  0.26311093  1
  O  O67  1  0.52680697  0.68188106  0.26400985  1
  O  O68  1  0.15787787  0.48689680  0.26141840  1
  O  O69  1  0.30014482  0.47572700  0.76271656  1
  O  O70  1  0.16868014  0.67517010  0.75660984  1
  O  O71  1  0.50472637  0.82885911  0.75601329  1
loop_
_geom_bond_atom_site_label_1
_geom_bond_atom_site_label_2
_geom_bond_distance
_geom_bond_site_symmetry_2
Na0 O15 2.333756 1_555
Na0 O52 2.395733 1_555
Na0 O51 2.513628 1_555
Na0 O68 2.533062 1_655
Na0 O66 2.707317 1_655
Na0 O11 2.834470 1_655
Na0 O30 2.896708 1_655
Na1 O33 2.372749 1_655
Na1 O50 2.428730 1_555
Na1 O69 2.514151 1_655
Na1 O5 2.563195 1_555
Na1 O70 2.675183 1_655
Na1 O48 2.680046 1_555
Na2 O48 2.384145 1_565
Na2 O71 2.386104 1_555
Na2 O34 2.464174 1_555
Na2 O70 2.542542 1_555
Na3 O6 2.329911 1_555
Na3 O63 2.387910 1_555
Na3 O42 2.458657 1_565
Na3 O64 2.603254 1_555
Na3 O44 2.625297 1_555
Na3 O27 2.937785 1_555
Na3 O13 3.000386 1_565
Na4 O45 2.346060 1_555
Na4 O60 2.360224 1_555
Na4 O24 2.621906 1_554
Na4 O62 2.664948 1_555
Na4 O19 2.705343 1_555
Na4 O46 2.828887 1_565
Na5 O58 2.422073 1_555
Na5 O38 2.455245 1_555
Na5 O57 2.535706 1_555
Na5 O21 2.638504 1_555
Na5 O0 2.701900 1_555
Na5 O36 2.705058 1_545
Na5 O29 2.841259 1_545
Na5 O31 2.977994 1_545
Na6 O43 2.388968 1_555
Na6 O44 2.521831 1_445
Na6 O42 2.649213 1_455
Na6 O38 2.658209 1_555
Na6 O36 2.666032 1_545
Na6 O37 2.930904 1_445
Na7 O45 2.389400 1_455
Na7 O47 2.540331 1_565
Na7 O40 2.722138 1_564
Na7 O46 2.727721 1_465
Na7 O41 2.870110 1_454
Na7 O39 2.968935 1_564
Na8 O56 2.273187 1_555
Na8 O55 2.299858 1_555
Na8 O54 2.386941 1_555
Na8 O48 2.738534 1_555
Na8 O50 2.878482 1_555
Na8 O49 2.931690 1_555
Na9 O52 2.485883 1_555
Na9 O51 2.511142 1_555
Na9 O58 2.569576 1_555
Na9 O57 2.591547 1_555
Na9 O53 2.620595 1_555
Na9 O59 2.703600 1_555
Na10 O61 2.494428 1_555
Na10 O68 2.578227 1_555
Na10 O66 2.602670 1_555
Na10 O67 2.855400 1_555
Na10 O62 2.863075 1_555
Na10 O60 2.935004 1_555
Na11 O71 2.352071 1_555
Na11 O70 2.605655 1_555
Na11 O63 2.712063 1_555
Na11 O69 2.736911 1_555
Na11 O64 2.834116 1_555
La0 O5 2.177915 1_565
La0 O41 2.367098 1_555
La0 O39 2.378145 1_665
La0 O4 2.393646 1_655
La0 O3 2.426120 1_665
La0 O40 2.468158 1_665
La1 O43 2.263686 1_565
La1 O6 2.380590 1_455
La1 O8 2.431296 1_555
La1 O7 2.463910 1_565
La1 O44 2.511531 1_455
La1 O42 2.541990 1_465
La2 O45 2.277989 1_445
La2 O11 2.340069 1_545
La2 O10 2.374845 1_555
La2 O9 2.419804 1_445
La2 O47 2.470771 1_555
La2 O46 2.511240 1_455
La3 O13 2.178680 1_555
La3 O48 2.321293 1_555
La3 O12 2.397620 1_555
La3 O14 2.403377 1_555
La3 O49 2.463933 1_555
La3 O50 2.554317 1_555
La4 O61 2.185271 1_555
La4 O25 2.297437 1_554
La4 O26 2.332609 1_554
La4 O62 2.437834 1_555
La4 O24 2.490021 1_554
La4 O60 2.514406 1_555
La5 O63 2.265524 1_555
La5 O29 2.328050 1_555
La5 O28 2.415488 1_555
La5 O27 2.423624 1_555
La5 O65 2.429092 1_555
La5 O64 2.468413 1_555
O0 S0 1.488020 1_545
O0 Zn0 2.263617 1_455
O1 S1 1.489365 1_555
O1 Zn0 2.056535 1_565
O2 S2 1.472178 1_555
O2 Zn0 2.073123 1_455
O3 S3 1.485357 1_555
O4 S4 1.479339 1_555
O5 Si0 1.646782 1_545
O6 Si0 1.647982 1_555
O7 S3 1.494547 1_555
O8 S4 1.490307 1_555
O9 S1 1.509992 1_555
O10 S2 1.495098 1_555
O11 S0 1.515180 1_555
O12 S5 1.496683 1_555
O13 Si1 1.660729 1_555
O14 S6 1.487735 1_555
O15 Si2 1.644919 1_555
O15 Zn1 1.890289 1_555
O16 S7 1.480758 1_555
O16 Zn1 2.000292 1_555
O17 S8 1.483234 1_555
O17 Zn1 2.043319 1_555
O18 S8 1.467591 1_555
O18 Zn2 2.157955 1_554
O19 Si2 1.621195 1_555
O19 Zn2 1.893121 1_554
O20 S7 1.468391 1_555
O20 Zn2 2.133534 1_554
O21 Si1 1.640599 1_555
O21 Zn3 1.924813 1_555
O22 S6 1.464361 1_555
O22 Zn3 2.088443 1_555
O23 S5 1.470563 1_555
O23 Zn3 2.172302 1_555
O24 S9 1.480735 1_555
O25 S10 1.477059 1_555
O26 S11 1.481310 1_555
O27 S12 1.505864 1_555
O28 S13 1.489013 1_555
O29 S14 1.516276 1_555
O30 S14 1.484487 1_555
O30 Zn4 2.346389 1_555
O31 S12 1.496074 1_555
O31 Zn4 2.099969 1_555
O32 S13 1.475439 1_555
O32 Zn4 2.094760 1_555
O33 S10 1.482257 1_555
O33 Zn5 2.551292 1_555
O34 S11 1.504727 1_555
O34 Zn5 2.187073 1_555
O35 S9 1.490259 1_555
O35 Zn5 2.021175 1_555
O36 S14 1.500982 1_555
O36 Zn0 2.160302 1_465
O37 S12 1.474168 1_555
O37 Zn0 2.114982 1_565
O38 S13 1.505291 1_555
O38 Zn0 2.189312 1_455
O39 S10 1.500403 1_555
O40 S11 1.498898 1_545
O41 S9 1.506525 1_555
O42 S5 1.499905 1_555
O43 Si1 1.644296 1_555
O44 S6 1.494457 1_555
O45 Si2 1.675954 1_555
O46 S7 1.500817 1_555
O47 S8 1.495512 1_555
O48 Si0 1.665006 1_545
O49 S3 1.483807 1_555
O50 S4 1.485677 1_655
O51 S1 1.483599 1_555
O52 S2 1.487840 1_655
O53 S0 1.469495 1_545
O54 S9 1.473704 1_555
O54 Zn2 2.309686 1_555
O55 S10 1.482903 1_655
O55 Zn2 2.274395 1_555
O56 S11 1.469057 1_545
O56 Zn2 2.481266 1_555
O57 S12 1.495991 1_545
O57 Zn3 2.460299 1_555
O58 S13 1.501422 1_555
O58 Zn3 2.384780 1_555
O59 S14 1.475910 1_655
O59 Zn3 2.448857 1_555
O60 S8 1.512571 1_555
O61 Si2 1.651601 1_455
O62 S7 1.509328 1_565
O63 Si1 1.663111 1_565
O64 S6 1.493751 1_555
O65 S5 1.478496 1_455
O66 S0 1.505172 1_555
O66 Zn4 2.174691 1_555
O67 S1 1.484589 1_555
O67 Zn4 2.085790 1_555
O68 S2 1.509726 1_555
O68 Zn4 2.167361 1_555
O69 S3 1.476399 1_555
O69 Zn5 2.255108 1_555
O70 S4 1.480498 1_555
O70 Zn5 2.425601 1_555
O71 Si0 1.639494 1_555
O71 Zn5 1.944832 1_555
