# generated using pymatgen
data_Na2YNb3Si4(SO12)2
_symmetry_space_group_name_H-M   'P 1'
_cell_length_a   8.98457181
_cell_length_b   9.01314294
_cell_length_c   23.16824203
_cell_angle_alpha   90.75334791
_cell_angle_beta   89.94123848
_cell_angle_gamma   119.92526679
_symmetry_Int_Tables_number   1
_chemical_formula_structural   Na2YNb3Si4(SO12)2
_chemical_formula_sum   'Na6 Y3 Nb9 Si12 S6 O72'
_cell_volume   1625.83893101
_cell_formula_units_Z   3
loop_
 _symmetry_equiv_pos_site_id
 _symmetry_equiv_pos_as_xyz
  1  'x, y, z'
loop_
 _atom_site_type_symbol
 _atom_site_label
 _atom_site_symmetry_multiplicity
 _atom_site_fract_x
 _atom_site_fract_y
 _atom_site_fract_z
 _atom_site_occupancy
  Na  Na0  1  0.98620399  0.98009336  0.49985888  1
  Na  Na1  1  0.99803605  0.99247701  0.99889290  1
  Na  Na2  1  0.65344115  0.31517216  0.83316861  1
  Na  Na3  1  0.66837281  0.31697728  0.32625114  1
  Na  Na4  1  0.32099277  0.65118483  0.16049815  1
  Na  Na5  1  0.35493173  0.66289416  0.66862002  1
  Y  Y0  1  0.65621398  0.33101951  0.69332519  1
  Y  Y1  1  0.67334338  0.33745324  0.18633800  1
  Y  Y2  1  0.34549226  0.67710337  0.51725188  1
  Nb  Nb0  1  0.99925338  0.00369815  0.35248241  1
  Nb  Nb1  1  0.00446269  0.01448342  0.86002514  1
  Nb  Nb2  1  0.98543963  0.99475155  0.65002753  1
  Nb  Nb3  1  0.02482145  0.01392194  0.14220935  1
  Nb  Nb4  1  0.66243690  0.34687005  0.97607198  1
  Nb  Nb5  1  0.67860397  0.34551490  0.47678562  1
  Nb  Nb6  1  0.32445549  0.66147872  0.01664596  1
  Nb  Nb7  1  0.31902134  0.67870066  0.31016352  1
  Nb  Nb8  1  0.34183148  0.66345505  0.81498987  1
  Si  Si0  1  0.28907832  0.00396644  0.25058217  1
  Si  Si1  1  0.00672092  0.29075563  0.25054575  1
  Si  Si2  1  0.27983042  0.28991841  0.75296288  1
  Si  Si3  1  0.70548790  0.99198211  0.75557212  1
  Si  Si4  1  0.67000969  0.62866046  0.58626021  1
  Si  Si5  1  0.95968814  0.62616090  0.08352271  1
  Si  Si6  1  0.38334347  0.34610047  0.08282592  1
  Si  Si7  1  0.62428619  0.67284376  0.91765933  1
  Si  Si8  1  0.04002810  0.38454380  0.91463105  1
  Si  Si9  1  0.33692851  0.95447078  0.91584841  1
  Si  Si10  1  0.62566883  0.96103685  0.41546696  1
  Si  Si11  1  0.04097183  0.67488412  0.41682316  1
  S  S0  1  0.70811600  0.71952129  0.25080957  1
  S  S1  1  0.01200141  0.72407692  0.75160481  1
  S  S2  1  0.95242481  0.32338980  0.58299522  1
  S  S3  1  0.36883200  0.04774035  0.58213657  1
  S  S4  1  0.66820460  0.03737193  0.08112301  1
  S  S5  1  0.33608424  0.37047168  0.41504955  1
  O  O0  1  0.17579560  0.00119811  0.30589390  1
  O  O1  1  0.81002861  0.80729982  0.30431585  1
  O  O2  1  0.99505894  0.17252616  0.30658045  1
  O  O3  1  0.17651530  0.16922280  0.80832928  1
  O  O4  1  0.99336744  0.80751511  0.80335738  1
  O  O5  1  0.82512288  -0.00171184  0.80909935  1
  O  O6  1  0.80067904  0.96687770  0.69389864  1
  O  O7  1  0.16280309  0.18483942  0.69322584  1
  O  O8  1  0.02362492  0.82398625  0.69763770  1
  O  O9  1  0.78845959  0.81886195  0.19907148  1
  O  O10  1  0.02217684  0.18856366  0.19265566  1
  O  O11  1  0.17420754  0.97761878  0.19106231  1
  O  O12  1  0.87277191  0.34274198  0.63442757  1
  O  O13  1  0.47003786  0.12257323  0.63473623  1
  O  O14  1  0.66156247  0.52167403  0.64066074  1
  O  O15  1  0.89778713  0.51902825  0.14082116  1
  O  O16  1  0.63860640  0.10724022  0.13453214  1
  O  O17  1  0.48362361  0.37331183  0.14108961  1
  O  O18  1  0.47301656  0.30835810  0.02631797  1
  O  O19  1  0.83190494  0.52278759  0.02729050  1
  O  O20  1  0.69479606  0.14513830  0.03073488  1
  O  O21  1  0.45885938  0.14940730  0.53038048  1
  O  O22  1  0.68746717  0.52038026  0.52634310  1
  O  O23  1  0.84548661  0.30266771  0.52933156  1
  O  O24  1  0.53102348  0.69967715  0.97281254  1
  O  O25  1  0.16302265  0.47231221  0.97151784  1
  O  O26  1  0.30672291  0.83323609  0.97136797  1
  O  O27  1  0.56624416  0.85056549  0.47228509  1
  O  O28  1  0.30281780  0.43692152  0.46822625  1
  O  O29  1  0.14702964  0.70504773  0.47398215  1
  O  O30  1  0.13342477  0.63693456  0.35962165  1
  O  O31  1  0.49533834  0.85754633  0.35998122  1
  O  O32  1  0.36328407  0.47682857  0.36485479  1
  O  O33  1  0.13441234  0.50104318  0.85868178  1
  O  O34  1  0.36380511  0.86062811  0.85827772  1
  O  O35  1  0.50202464  0.63492561  0.85923976  1
  O  O36  1  0.00297786  0.82934914  0.40443710  1
  O  O37  1  0.82283959  0.00185517  0.40205305  1
  O  O38  1  0.18711587  0.19295330  0.40784282  1
  O  O39  1  0.02409431  0.19384779  0.91023339  1
  O  O40  1  0.16676322  0.97535100  0.90698558  1
  O  O41  1  0.81559606  0.83424399  0.90968429  1
  O  O42  1  0.96307084  0.16161730  0.58549761  1
  O  O43  1  0.19941473  0.03992464  0.58592319  1
  O  O44  1  0.85496062  0.82007517  0.58985563  1
  O  O45  1  0.96840373  0.81596164  0.09143591  1
  O  O46  1  0.82423375  0.01909808  0.08758712  1
  O  O47  1  0.18555670  0.16655224  0.08867237  1
  O  O48  1  0.70191321  0.16537231  0.75198018  1
  O  O49  1  0.46720871  0.31223128  0.75395440  1
  O  O50  1  0.86202297  0.55320227  0.74773535  1
  O  O51  1  0.69385766  0.55091473  0.25059953  1
  O  O52  1  0.84504107  0.31677928  0.25200026  1
  O  O53  1  0.47338270  0.16641066  0.25152516  1
  O  O54  1  0.63789029  0.49723940  0.92386354  1
  O  O55  1  0.85043551  0.35774865  0.92455843  1
  O  O56  1  0.50603713  0.14317230  0.92630260  1
  O  O57  1  0.63746453  0.14991132  0.42643922  1
  O  O58  1  0.49147980  0.35026229  0.42215223  1
  O  O59  1  0.84726518  0.49275144  0.42446113  1
  O  O60  1  0.34962573  0.50478303  0.07138197  1
  O  O61  1  0.15766798  0.66679973  0.07040314  1
  O  O62  1  0.51696185  0.86344025  0.07409262  1
  O  O63  1  0.33999895  0.87156233  0.57813685  1
  O  O64  1  0.50823877  0.65633493  0.58223928  1
  O  O65  1  0.12547479  0.47050777  0.57654048  1
  O  O66  1  0.29806932  0.82181244  0.25606810  1
  O  O67  1  0.53500067  0.70175630  0.25694971  1
  O  O68  1  0.18981670  0.47622417  0.26031461  1
  O  O69  1  0.28398919  0.47423147  0.75619228  1
  O  O70  1  0.17100523  0.71541764  0.75212522  1
  O  O71  1  0.51715517  0.81738622  0.75710751  1
loop_
_geom_bond_atom_site_label_1
_geom_bond_atom_site_label_2
_geom_bond_distance
_geom_bond_site_symmetry_2
Na0 O44 2.489031 1_555
Na0 O36 2.623126 1_655
Na0 O43 2.623948 1_665
Na0 O42 2.628640 1_565
Na0 O37 2.762833 1_565
Na0 O38 2.851018 1_665
Na1 O41 2.566998 1_555
Na1 O45 2.620102 1_556
Na1 O47 2.628817 1_666
Na1 O46 2.659479 1_566
Na1 O40 2.659730 1_655
Na1 O39 2.690971 1_665
Na2 O48 2.463525 1_555
Na2 O49 2.475740 1_555
Na2 O56 2.616632 1_555
Na2 O55 2.659255 1_555
Na2 O54 2.695385 1_555
Na2 O50 2.850454 1_555
Na3 O52 2.340072 1_555
Na3 O53 2.341039 1_555
Na3 O51 2.680470 1_555
Na3 O57 2.721356 1_555
Na3 O59 2.764523 1_555
Na3 O58 2.829047 1_555
Na4 O60 2.517175 1_555
Na4 O61 2.598104 1_555
Na4 O68 2.731251 1_555
Na4 O62 2.738639 1_555
Na4 O66 2.745123 1_555
Na4 O67 2.829469 1_555
Na5 O64 2.445069 1_555
Na5 O71 2.484413 1_555
Na5 O69 2.533943 1_555
Na5 O70 2.729047 1_555
Na5 O65 2.855339 1_555
Na5 O63 2.881993 1_555
Nb0 O2 1.883538 1_555
Nb0 O0 1.926903 1_655
Nb0 O37 1.949866 1_555
Nb0 O36 2.005417 1_645
Nb0 O1 2.053882 1_545
Nb0 O38 2.116114 1_655
Nb1 O3 1.912660 1_555
Nb1 O39 1.914214 1_555
Nb1 O5 1.942766 1_455
Nb1 O40 1.990220 1_545
Nb1 O41 2.033944 1_445
Nb1 O4 2.227959 1_445
Nb2 O6 1.854442 1_555
Nb2 O7 1.926275 1_665
Nb2 O44 1.974988 1_555
Nb2 O8 2.067754 1_655
Nb2 O42 2.213333 1_565
Nb2 O43 2.301419 1_665
Nb3 O47 1.890907 1_555
Nb3 O11 1.908027 1_545
Nb3 O10 1.957838 1_555
Nb3 O45 1.966693 1_445
Nb3 O46 2.222992 1_455
Nb3 O9 2.380390 1_445
Nb4 O54 1.921050 1_555
Nb4 O19 1.945754 1_556
Nb4 O18 1.946569 1_556
Nb4 O56 2.012083 1_555
Nb4 O55 2.029956 1_555
Nb4 O20 2.362864 1_556
Nb5 O59 1.886554 1_555
Nb5 O22 1.906840 1_555
Nb5 O57 1.975352 1_555
Nb5 O23 2.114980 1_555
Nb5 O58 2.123224 1_555
Nb5 O21 2.266015 1_555
Nb6 O25 1.895443 1_554
Nb6 O26 1.952298 1_554
Nb6 O61 1.966042 1_555
Nb6 O24 1.990507 1_554
Nb6 O60 2.005072 1_555
Nb6 O62 2.208198 1_555
Nb7 O66 1.885538 1_555
Nb7 O30 1.901682 1_555
Nb7 O68 1.960983 1_555
Nb7 O31 1.961399 1_555
Nb7 O67 2.219938 1_555
Nb7 O32 2.420307 1_555
Nb8 O35 1.888874 1_555
Nb8 O34 1.951033 1_555
Nb8 O33 1.988391 1_555
Nb8 O71 2.017082 1_555
Nb8 O69 2.022505 1_555
Nb8 O70 2.331515 1_555
O0 Si0 1.628355 1_555
O1 S0 1.501604 1_555
O2 Si1 1.660304 1_655
O3 Si2 1.648399 1_555
O4 S1 1.460387 1_655
O5 Si3 1.623708 1_545
O6 Si3 1.733893 1_555
O7 Si2 1.700861 1_555
O8 S1 1.523358 1_555
O9 S0 1.463277 1_555
O10 Si1 1.661702 1_555
O11 Si0 1.665198 1_565
O12 S2 1.442154 1_555
O12 Y0 2.334969 1_555
O13 S3 1.461358 1_555
O13 Y0 2.229869 1_555
O14 Si4 1.575711 1_555
O14 Y0 2.101563 1_555
O15 Si5 1.581248 1_555
O15 Y1 2.145949 1_555
O16 S4 1.464359 1_555
O16 Y1 2.265514 1_555
O17 Si6 1.570784 1_555
O17 Y1 2.161290 1_555
O18 Si6 1.654808 1_555
O19 Si5 1.669537 1_555
O20 S4 1.470059 1_555
O21 S3 1.489683 1_555
O22 Si4 1.738032 1_555
O23 S2 1.523511 1_555
O24 Si7 1.607876 1_555
O25 Si8 1.639312 1_555
O26 Si9 1.631738 1_555
O27 Si10 1.584906 1_555
O27 Y2 2.099559 1_555
O28 S5 1.457510 1_555
O28 Y2 2.287262 1_555
O29 Si11 1.571702 1_555
O29 Y2 2.169391 1_555
O30 Si11 1.683028 1_555
O31 Si10 1.665993 1_555
O32 S5 1.458096 1_555
O33 Si8 1.626973 1_555
O34 Si9 1.651129 1_555
O35 Si7 1.664829 1_555
O36 Si11 1.619264 1_555
O37 Si10 1.649770 1_545
O38 S5 1.495340 1_555
O39 Si8 1.653775 1_555
O40 Si9 1.644304 1_555
O41 Si7 1.617528 1_555
O42 S2 1.509930 1_555
O43 S3 1.490798 1_555
O44 Si4 1.697296 1_555
O45 Si5 1.680586 1_555
O46 S4 1.498734 1_555
O47 Si6 1.712037 1_555
O48 Si3 1.582332 1_545
O48 Y0 2.215955 1_555
O49 Si2 1.592904 1_555
O49 Y0 2.144733 1_555
O50 S1 1.456621 1_655
O50 Y0 2.293982 1_555
O51 S0 1.459937 1_555
O51 Y1 2.350240 1_555
O52 Si1 1.583007 1_655
O52 Y1 2.242273 1_555
O53 Si0 1.570482 1_555
O53 Y1 2.275404 1_555
O54 Si7 1.655212 1_555
O55 Si8 1.613389 1_655
O56 Si9 1.634464 1_545
O57 Si10 1.668091 1_545
O58 S5 1.504833 1_555
O59 Si11 1.706314 1_655
O60 Si6 1.627898 1_555
O61 Si5 1.655994 1_455
O62 S4 1.482876 1_565
O63 S3 1.477475 1_565
O63 Y2 2.255058 1_555
O64 Si4 1.595618 1_555
O64 Y2 2.173723 1_555
O65 S2 1.464832 1_455
O65 Y2 2.377153 1_555
O66 Si0 1.689957 1_565
O67 S0 1.488861 1_555
O68 Si1 1.672990 1_555
O69 Si2 1.643630 1_555
O70 S1 1.469145 1_555
O71 Si3 1.638727 1_555
