# generated using pymatgen
data_MgMn6O7F5
_symmetry_space_group_name_H-M   'P 1'
_cell_length_a   5.19884653
_cell_length_b   7.68910789
_cell_length_c   5.87757144
_cell_angle_alpha   97.33522316
_cell_angle_beta   79.69084182
_cell_angle_gamma   95.07970558
_symmetry_Int_Tables_number   1
_chemical_formula_structural   MgMn6O7F5
_chemical_formula_sum   'Mg1 Mn6 O7 F5'
_cell_volume   228.74803791
_cell_formula_units_Z   1
loop_
 _symmetry_equiv_pos_site_id
 _symmetry_equiv_pos_as_xyz
  1  'x, y, z'
loop_
 _atom_site_type_symbol
 _atom_site_label
 _atom_site_symmetry_multiplicity
 _atom_site_fract_x
 _atom_site_fract_y
 _atom_site_fract_z
 _atom_site_occupancy
  Mg  Mg0  1  0.03106720  0.17417971  0.65485958  1
  Mn  Mn0  1  0.52217513  0.99043097  0.51681382  1
  Mn  Mn1  1  0.49209664  0.68587512  0.14617344  1
  Mn  Mn2  1  0.51051265  0.35173167  0.82683413  1
  Mn  Mn3  1  0.00561168  0.67216985  0.68200064  1
  Mn  Mn4  1  0.78722012  0.33579015  0.30640859  1
  Mn  Mn5  1  0.07441166  0.96273499  0.07139755  1
  O  O0  1  0.85158743  0.42556879  0.64605161  1
  O  O1  1  0.82439850  0.76229692  0.97870118  1
  O  O2  1  0.87335421  0.08312855  0.35851391  1
  O  O3  1  0.59734777  0.45109284  0.11322102  1
  O  O4  1  0.41475868  0.22801180  0.54172675  1
  O  O5  1  0.36535880  0.91643976  0.21289264  1
  O  O6  1  0.18589472  0.92218292  0.71793114  1
  F  F0  1  0.68799466  0.10769938  0.83721005  1
  F  F1  1  0.66054995  0.76070116  0.48809024  1
  F  F2  1  0.31316368  0.58459958  0.83998951  1
  F  F3  1  0.16272696  0.60343929  0.35394517  1
  F  F4  1  0.13976856  0.24859656  0.98104902  1
loop_
_geom_bond_atom_site_label_1
_geom_bond_atom_site_label_2
_geom_bond_distance
_geom_bond_site_symmetry_2
Mg0 O4 2.010435 1_555
Mg0 O2 2.072291 1_455
Mg0 O0 2.229774 1_455
Mg0 O6 2.259677 1_545
Mn0 O4 1.937401 1_565
Mn0 O6 1.996348 1_555
Mn0 O2 2.009450 1_565
Mn0 O5 2.087790 1_555
Mn1 O3 1.908827 1_555
Mn1 O1 1.912599 1_554
Mn1 O5 1.915128 1_555
Mn2 O3 1.871732 1_556
Mn2 O4 1.941272 1_555
Mn2 O0 1.974081 1_555
Mn3 O1 1.904706 1_455
Mn3 O0 1.992632 1_455
Mn3 O6 2.065602 1_555
Mn4 O3 1.965431 1_555
Mn4 O0 2.102366 1_555
Mn4 O2 2.103242 1_555
Mn4 O4 2.323619 1_555
Mn5 O5 1.930663 1_555
Mn5 O2 1.984553 1_465
Mn5 O1 2.011430 1_454
Mn5 O6 2.045695 1_554
F0 Mg0 1.971146 1_655
F0 Mn2 2.175291 1_555
F0 Mn0 2.261036 1_545
F1 Mn0 1.942077 1_555
F1 Mn1 2.319934 1_555
F1 Mn3 2.475210 1_655
F2 Mn2 2.127499 1_555
F2 Mn3 2.180348 1_555
F2 Mn1 2.196235 1_556
F3 Mn3 1.979103 1_555
F3 Mn1 2.020449 1_555
F3 Mn4 2.731557 1_455
F4 Mg0 2.091134 1_555
F4 Mn2 2.110226 1_555
F4 Mn5 2.308668 1_546
F4 Mn4 2.470124 1_456
