# generated using pymatgen
data_Na10La6Ta2Si7S5O48
_symmetry_space_group_name_H-M   'P 1'
_cell_length_a   18.97517825
_cell_length_b   9.51938528
_cell_length_c   23.75273315
_cell_angle_alpha   90.00884595
_cell_angle_beta   90.14076890
_cell_angle_gamma   120.12831296
_symmetry_Int_Tables_number   1
_chemical_formula_structural   Na10La6Ta2Si7S5O48
_chemical_formula_sum   'Na30 La18 Ta6 Si21 S15 O144'
_cell_volume   3710.85631467
_cell_formula_units_Z   3
loop_
 _symmetry_equiv_pos_site_id
 _symmetry_equiv_pos_as_xyz
  1  'x, y, z'
loop_
 _atom_site_type_symbol
 _atom_site_label
 _atom_site_symmetry_multiplicity
 _atom_site_fract_x
 _atom_site_fract_y
 _atom_site_fract_z
 _atom_site_occupancy
  Na  Na0  1  0.31230525  0.99888788  0.23985783  1
  Na  Na1  1  0.81818157  0.02238989  0.23759318  1
  Na  Na2  1  0.18181217  0.36458439  0.24528213  1
  Na  Na3  1  0.32255427  0.61975133  0.73997004  1
  Na  Na4  1  0.81169328  0.62552217  0.73930705  1
  Na  Na5  1  0.68222252  0.00055612  0.74809771  1
  Na  Na6  1  0.17114552  0.34739196  0.59283794  1
  Na  Na7  1  0.66091060  0.33286623  0.57604068  1
  Na  Na8  1  0.00723640  0.70058250  0.57264155  1
  Na  Na9  1  0.16666809  0.99412361  0.08415749  1
  Na  Na10  1  0.67129623  0.99566825  0.09078628  1
  Na  Na11  1  0.50646726  0.31395912  0.07127589  1
  Na  Na12  1  0.84621979  0.00483393  0.91785101  1
  Na  Na13  1  0.66281594  0.31019288  0.91566225  1
  Na  Na14  1  0.48868454  0.28966785  0.42397629  1
  Na  Na15  1  0.16385960  0.01627845  0.41818423  1
  Na  Na16  1  0.66798437  0.05765928  0.41315883  1
  Na  Na17  1  0.85139771  0.65106634  0.41212290  1
  Na  Na18  1  0.99874247  0.98355224  0.50383217  1
  Na  Na19  1  0.48095677  0.97950442  0.49697004  1
  Na  Na20  1  0.98947162  0.98091806  0.00183524  1
  Na  Na21  1  0.48421865  0.00890591  0.99969609  1
  Na  Na22  1  0.34634981  0.34730794  0.83272608  1
  Na  Na23  1  0.83116434  0.33337291  0.83630992  1
  Na  Na24  1  0.32449615  0.34239088  0.33517283  1
  Na  Na25  1  0.84299365  0.34326802  0.33252683  1
  Na  Na26  1  0.17195895  0.64525682  0.16491860  1
  Na  Na27  1  0.67983166  0.67329119  0.16040057  1
  Na  Na28  1  0.18244087  0.69585842  0.65929856  1
  Na  Na29  1  0.67218976  0.69999815  0.66304590  1
  La  La0  1  0.00467695  0.00911079  0.34857308  1
  La  La1  1  0.50014802  0.98898476  0.34698435  1
  La  La2  1  0.00598022  0.01337899  0.84918042  1
  La  La3  1  0.49911865  0.00219434  0.85119304  1
  La  La4  1  0.33239504  0.32748947  0.68310026  1
  La  La5  1  0.83016030  0.31587763  0.68214616  1
  La  La6  1  0.32888718  0.33988937  0.17967608  1
  La  La7  1  0.83212338  0.34033933  0.18302494  1
  La  La8  1  0.33902588  0.32184061  0.98304520  1
  La  La9  1  0.82761119  0.33651738  0.99123664  1
  La  La10  1  0.32327908  0.32813463  0.49122189  1
  La  La11  1  0.83748529  0.34914120  0.48616898  1
  La  La12  1  0.16969971  0.65791751  0.02082670  1
  La  La13  1  0.67381507  0.65733023  0.01798483  1
  La  La14  1  0.17783185  0.69481449  0.51582835  1
  La  La15  1  0.67014848  0.67049674  0.52221716  1
  La  La16  1  0.66095870  0.65702020  0.30954252  1
  La  La17  1  0.16043987  0.64581447  0.81009731  1
  Ta  Ta0  1  0.99605521  0.00552686  0.65396764  1
  Ta  Ta1  1  0.50769609  0.98661391  0.65147976  1
  Ta  Ta2  1  0.00781086  0.02951183  0.15166629  1
  Ta  Ta3  1  0.49567678  0.98400046  0.15440994  1
  Ta  Ta4  1  0.16311626  0.68571769  0.30879008  1
  Ta  Ta5  1  0.66203160  0.63952968  0.80842943  1
  Si  Si0  1  0.14618787  0.99688172  0.24930742  1
  Si  Si1  1  0.64875085  0.98973938  0.25086165  1
  Si  Si2  1  0.34348895  0.70146721  0.25205242  1
  Si  Si3  1  0.00615517  0.31089450  0.25230424  1
  Si  Si4  1  0.14850652  0.30517371  0.74691127  1
  Si  Si5  1  0.64427651  0.29279040  0.74978751  1
  Si  Si6  1  0.50693703  0.70565099  0.75317321  1
  Si  Si7  1  0.84606763  0.98566059  0.75594476  1
  Si  Si8  1  0.16722499  0.02453359  0.58412243  1
  Si  Si9  1  0.67473761  0.02389991  0.58609430  1
  Si  Si10  1  0.33736236  0.64674951  0.59224171  1
  Si  Si11  1  0.83989588  0.65102571  0.59002609  1
  Si  Si12  1  0.33937987  0.02984377  0.09229826  1
  Si  Si13  1  0.83832505  0.03063217  0.08801302  1
  Si  Si14  1  0.17723636  0.32158054  0.08909451  1
  Si  Si15  1  0.66723415  0.30998396  0.08479362  1
  Si  Si16  1  0.81251137  0.65561227  0.90713790  1
  Si  Si17  1  0.51766921  0.37924238  0.91498562  1
  Si  Si18  1  0.31299499  0.98025079  0.40612015  1
  Si  Si19  1  0.66684936  0.36589838  0.42064576  1
  Si  Si20  1  0.01762713  0.65898400  0.41432194  1
  S  S0  1  0.85559536  0.72480599  0.24713057  1
  S  S1  1  0.50327728  0.29045480  0.24338668  1
  S  S2  1  0.00445077  0.71824888  0.74353750  1
  S  S3  1  0.35368694  0.98443803  0.74508346  1
  S  S4  1  0.48704341  0.30918245  0.58429796  1
  S  S5  1  0.98904648  0.31891561  0.58597881  1
  S  S6  1  0.48770980  0.65692198  0.08619387  1
  S  S7  1  0.98869673  0.66667038  0.08695399  1
  S  S8  1  0.31812525  0.65972770  0.91419075  1
  S  S9  1  0.00747182  0.36123024  0.91825726  1
  S  S10  1  0.16749027  0.96511309  0.91874910  1
  S  S11  1  0.67304824  0.96098217  0.91261782  1
  S  S12  1  0.81644191  0.96864186  0.41360344  1
  S  S13  1  0.17201179  0.38536284  0.41253162  1
  S  S14  1  0.51226563  0.65389380  0.41789764  1
  O  O0  1  0.11460712  0.03054414  0.30766363  1
  O  O1  1  0.61359824  0.98871527  0.31321412  1
  O  O2  1  0.39284422  0.78435173  0.30805425  1
  O  O3  1  0.88647280  0.78261803  0.30486597  1
  O  O4  1  0.50380586  0.21891433  0.29803538  1
  O  O5  1  0.98704646  0.19183549  0.30473628  1
  O  O6  1  0.10555530  0.22312511  0.80540804  1
  O  O7  1  0.61212537  0.19293730  0.80735872  1
  O  O8  1  0.48999104  0.79091994  0.80515966  1
  O  O9  1  0.00025338  0.79314810  0.79624855  1
  O  O10  1  0.38882706  0.99302270  0.80091226  1
  O  O11  1  0.89316988  0.00653338  0.81420804  1
  O  O12  1  0.40870530  0.98427934  0.69987630  1
  O  O13  1  0.90752151  0.98084727  0.70319958  1
  O  O14  1  0.08462369  0.18306325  0.69465543  1
  O  O15  1  0.58382938  0.18615173  0.69590841  1
  O  O16  1  0.00562164  0.82054611  0.69417470  1
  O  O17  1  0.51982533  0.83789841  0.69776152  1
  O  O18  1  0.40239476  0.82456749  0.19819448  1
  O  O19  1  0.91410359  0.83883992  0.20424336  1
  O  O20  1  0.01994662  0.20304626  0.19779328  1
  O  O21  1  0.50120393  0.18114683  0.19619972  1
  O  O22  1  0.08553743  0.98403812  0.19573065  1
  O  O23  1  0.57936758  0.98404556  0.20154716  1
  O  O24  1  0.44295925  0.32688572  0.63129837  1
  O  O25  1  0.95410638  0.35823860  0.63447978  1
  O  O26  1  0.23370463  0.13267908  0.63074665  1
  O  O27  1  0.72314560  0.10212191  0.64437695  1
  O  O28  1  0.32395766  0.54095535  0.64844175  1
  O  O29  1  0.83322709  0.53761261  0.64275931  1
  O  O30  1  0.45416309  0.54945270  0.13521301  1
  O  O31  1  0.95326400  0.56766448  0.13681484  1
  O  O32  1  0.32348433  0.10365437  0.14908180  1
  O  O33  1  0.82657970  0.12165283  0.14162836  1
  O  O34  1  0.21733457  0.34544463  0.15100066  1
  O  O35  1  0.73465595  0.34139920  0.13142548  1
  O  O36  1  0.22661996  0.28209157  0.04128229  1
  O  O37  1  0.70053837  0.27672417  0.02414794  1
  O  O38  1  0.43832511  0.58474929  0.03545094  1
  O  O39  1  0.94082114  0.58678488  0.03529605  1
  O  O40  1  0.36744928  0.16316004  0.04056165  1
  O  O41  1  0.85158628  0.13441759  0.02933132  1
  O  O42  1  0.19714607  0.12482134  0.52339571  1
  O  O43  1  0.71776793  0.14270959  0.53158554  1
  O  O44  1  0.35058129  0.55672267  0.53738644  1
  O  O45  1  0.86508011  0.58913674  0.53211914  1
  O  O46  1  0.44609057  0.29988993  0.52940607  1
  O  O47  1  0.94055712  0.29233883  0.53470777  1
  O  O48  1  0.26763179  0.65734095  0.96226806  1
  O  O49  1  0.77020242  0.68186973  0.96205706  1
  O  O50  1  0.05148845  0.45676108  0.96826216  1
  O  O51  1  0.55683820  0.46233611  0.97530319  1
  O  O52  1  0.17132225  0.88800067  0.97237223  1
  O  O53  1  0.66676417  0.87728784  0.96595014  1
  O  O54  1  0.27113697  0.88414206  0.46352288  1
  O  O55  1  0.76784859  0.87007013  0.46199271  1
  O  O56  1  0.16975626  0.45970852  0.46616161  1
  O  O57  1  0.66185493  0.44617216  0.48035269  1
  O  O58  1  0.05973941  0.66171410  0.47395835  1
  O  O59  1  0.56029109  0.65888865  0.46754950  1
  O  O60  1  0.07979817  0.66214283  0.36030661  1
  O  O61  1  0.55437898  0.65043630  0.36554484  1
  O  O62  1  0.25096059  0.85622225  0.35239924  1
  O  O63  1  0.77445629  0.89023182  0.35983427  1
  O  O64  1  0.17045822  0.47797241  0.36229001  1
  O  O65  1  0.67187206  0.48543222  0.36826049  1
  O  O66  1  0.05229425  0.44614173  0.86618621  1
  O  O67  1  0.58010885  0.50231496  0.86079632  1
  O  O68  1  0.16320208  0.86230168  0.86976374  1
  O  O69  1  0.67357980  0.86649849  0.86252867  1
  O  O70  1  0.27823420  0.66601526  0.86030368  1
  O  O71  1  0.75078059  0.64710255  0.85213563  1
  O  O72  1  0.01246085  0.82799514  0.41254846  1
  O  O73  1  0.50424438  0.80117640  0.41971781  1
  O  O74  1  0.40689022  0.02064057  0.40400773  1
  O  O75  1  0.89672405  0.97688138  0.41771584  1
  O  O76  1  0.10075148  0.21571974  0.41273507  1
  O  O77  1  0.58589742  0.18268692  0.41769470  1
  O  O78  1  -0.00108422  0.19668448  0.92255207  1
  O  O79  1  0.52152918  0.21005824  0.91363004  1
  O  O80  1  0.09355706  0.98118805  0.92118100  1
  O  O81  1  0.60612781  0.99855060  0.91059092  1
  O  O82  1  0.39952100  0.80722588  0.92106128  1
  O  O83  1  0.90257757  0.81601466  0.90549690  1
  O  O84  1  0.49206917  0.15691186  0.58990620  1
  O  O85  1  0.98802969  0.16030379  0.59680100  1
  O  O86  1  0.07786968  0.01686156  0.59795228  1
  O  O87  1  0.58555646  0.02457579  0.59503859  1
  O  O88  1  0.42022338  0.83096354  0.60378945  1
  O  O89  1  0.91989712  0.83646638  0.60129544  1
  O  O90  1  0.48793477  0.81457825  0.09699822  1
  O  O91  1  0.99285947  0.82845427  0.09228173  1
  O  O92  1  0.42048758  0.00654540  0.10073608  1
  O  O93  1  0.92029938  0.01011223  0.10399300  1
  O  O94  1  0.08541176  0.14627949  0.09470403  1
  O  O95  1  0.58005111  0.13551293  0.09971509  1
  O  O96  1  0.33873820  0.11938103  0.73961764  1
  O  O97  1  0.82503035  0.13013522  0.74846389  1
  O  O98  1  0.23978351  0.33153859  0.74531702  1
  O  O99  1  0.73888709  0.34002655  0.74250225  1
  O  O100  1  0.43056475  0.52793417  0.74352913  1
  O  O101  1  0.93076369  0.55630569  0.74031237  1
  O  O102  1  0.32398080  0.51516804  0.24679539  1
  O  O103  1  0.84256692  0.56149024  0.24180075  1
  O  O104  1  0.42889246  0.30246209  0.24052851  1
  O  O105  1  0.92962670  0.33433580  0.24209915  1
  O  O106  1  0.23992035  0.14094163  0.24250889  1
  O  O107  1  0.73898632  0.15059958  0.24547364  1
  O  O108  1  0.32379002  0.51091491  0.91405143  1
  O  O109  1  0.80755903  0.47798714  0.90935922  1
  O  O110  1  0.42664642  0.35337164  0.90746838  1
  O  O111  1  0.92418649  0.34039100  0.91496984  1
  O  O112  1  0.24218081  0.12701173  0.91324336  1
  O  O113  1  0.75302158  0.12032900  0.91207164  1
  O  O114  1  0.30931774  0.14995963  0.40566482  1
  O  O115  1  0.82358137  0.13097429  0.41602540  1
  O  O116  1  0.24725323  0.37130227  0.41010783  1
  O  O117  1  0.75100678  0.35305143  0.41810821  1
  O  O118  1  0.43181221  0.50073533  0.41856003  1
  O  O119  1  0.92524544  0.50490469  0.40757125  1
  O  O120  1  0.15752486  0.46705126  0.07977411  1
  O  O121  1  0.64310743  0.45208162  0.08468254  1
  O  O122  1  0.07472950  0.70257394  0.08093278  1
  O  O123  1  0.57390697  0.70250691  0.07937719  1
  O  O124  1  0.25540543  0.85867894  0.08007524  1
  O  O125  1  0.75468718  0.85366723  0.08536822  1
  O  O126  1  0.14562615  0.83549777  0.58398476  1
  O  O127  1  0.65351543  0.83742703  0.58270640  1
  O  O128  1  0.25445556  0.65733410  0.58530386  1
  O  O129  1  0.75527543  0.65451457  0.58689028  1
  O  O130  1  0.07505868  0.44602080  0.57955454  1
  O  O131  1  0.57221192  0.44884876  0.58507582  1
  O  O132  1  0.14868914  0.82160516  0.25566628  1
  O  O133  1  0.65859012  0.82892360  0.23959815  1
  O  O134  1  0.25472190  0.70218183  0.25255846  1
  O  O135  1  0.77765913  0.72670264  0.23944413  1
  O  O136  1  0.09515112  0.48260421  0.25981606  1
  O  O137  1  0.57727693  0.45000358  0.23579030  1
  O  O138  1  0.15684639  0.48726465  0.73998625  1
  O  O139  1  0.64718078  0.47365743  0.75613795  1
  O  O140  1  0.07925111  0.70734284  0.74034122  1
  O  O141  1  0.59611957  0.71082978  0.75997541  1
  O  O142  1  0.27495479  0.82483644  0.74048060  1
  O  O143  1  0.75753228  0.80747225  0.75402341  1
loop_
_geom_bond_atom_site_label_1
_geom_bond_atom_site_label_2
_geom_bond_distance
_geom_bond_site_symmetry_2
Na0 O32 2.340785 1_565
Na0 O106 2.363067 1_565
Na0 O134 2.483190 1_555
Na0 O104 2.612945 1_565
Na0 O132 2.715517 1_555
Na0 O62 2.962197 1_555
Na1 O107 2.371777 1_555
Na1 O33 2.442406 1_555
Na1 O135 2.518638 1_545
Na1 O133 2.639415 1_545
Na1 O105 2.645053 1_555
Na2 O102 2.334750 1_555
Na2 O34 2.373439 1_555
Na2 O136 2.437774 1_555
Na2 O134 2.794135 1_555
Na2 O106 2.847683 1_555
Na3 O28 2.304269 1_555
Na3 O98 2.384443 1_555
Na3 O142 2.529337 1_555
Na3 O100 2.601750 1_555
Na3 O138 2.737970 1_555
Na4 O99 2.351997 1_555
Na4 O143 2.442729 1_555
Na4 O29 2.544337 1_555
Na4 O101 2.652120 1_555
Na4 O139 2.733212 1_555
Na4 O71 2.968820 1_555
Na4 O13 3.052426 1_555
Na5 O97 2.347129 1_555
Na5 O141 2.415482 1_545
Na5 O27 2.619886 1_555
Na5 O143 2.841857 1_545
Na5 O99 2.851213 1_555
Na6 O130 2.453791 1_555
Na6 O128 2.560381 1_555
Na6 O86 2.730958 1_555
Na6 O28 2.857321 1_555
Na6 O14 2.904104 1_555
Na6 O42 2.916401 1_555
Na6 O26 2.971297 1_555
Na6 O85 3.007218 1_455
Na7 O131 2.442324 1_555
Na7 O57 2.512193 1_555
Na7 O87 2.579119 1_555
Na7 O129 2.672351 1_555
Na7 O43 2.742487 1_555
Na7 O84 2.792238 1_555
Na8 O126 2.286602 1_555
Na8 O45 2.538161 1_455
Na8 O58 2.646695 1_555
Na8 O89 2.653365 1_455
Na8 O86 2.677153 1_565
Na9 O122 2.427087 1_555
Na9 O124 2.585967 1_555
Na9 O36 2.592658 1_565
Na9 O94 2.604175 1_565
Na9 O52 2.858034 1_554
Na9 O91 2.860651 1_455
Na9 O32 3.030175 1_565
Na9 O22 3.045377 1_555
Na10 O123 2.469148 1_555
Na10 O125 2.548704 1_555
Na10 O95 2.670286 1_565
Na10 O33 2.830787 1_565
Na10 O37 2.913208 1_565
Na11 O121 2.264110 1_555
Na11 O40 2.395876 1_555
Na11 O51 2.600321 1_554
Na11 O92 2.632211 1_555
Na11 O95 2.769151 1_555
Na12 O113 2.511124 1_555
Na12 O83 2.528150 1_545
Na12 O78 2.535589 1_655
Na12 O11 2.617392 1_555
Na12 O111 2.766485 1_555
Na12 O49 2.862133 1_545
Na12 O41 2.900914 1_556
Na13 O79 2.352089 1_555
Na13 O109 2.390659 1_555
Na13 O81 2.601596 1_545
Na13 O37 2.733871 1_556
Na13 O7 2.774532 1_555
Na14 O74 2.279970 1_555
Na14 O77 2.519762 1_555
Na14 O46 2.650051 1_555
Na14 O118 2.719237 1_555
Na15 O114 2.409171 1_555
Na15 O72 2.512468 1_545
Na15 O42 2.654838 1_555
Na15 O76 2.708668 1_555
Na15 O0 2.810486 1_555
Na16 O77 2.390844 1_555
Na16 O117 2.440212 1_555
Na16 O1 2.537514 1_545
Na16 O115 2.671946 1_555
Na16 O73 2.833034 1_545
Na16 O43 2.946024 1_555
Na17 O119 2.422625 1_555
Na17 O117 2.504687 1_555
Na17 O72 2.647575 1_655
Na17 O3 2.770255 1_555
Na17 O75 2.774607 1_555
Na17 O45 2.947770 1_555
Na18 O86 2.618818 1_665
Na18 O72 2.711190 1_655
Na18 O89 2.733718 1_555
Na18 O75 2.791520 1_555
Na18 O85 2.844853 1_565
Na18 O76 3.006791 1_665
Na19 O73 2.683306 1_555
Na19 O77 2.721221 1_565
Na19 O84 2.721878 1_565
Na19 O74 2.746236 1_565
Na19 O88 2.853908 1_555
Na19 O87 2.944772 1_565
Na20 O91 2.611502 1_555
Na20 O78 2.725920 1_664
Na20 O80 2.753982 1_654
Na20 O94 2.785750 1_665
Na20 O83 2.793059 1_554
Na20 O93 2.840721 1_565
Na21 O82 2.577624 1_545
Na21 O79 2.644702 1_555
Na21 O92 2.685110 1_556
Na21 O95 2.860265 1_556
Na21 O90 2.983304 1_546
Na22 O110 2.318408 1_555
Na22 O108 2.648159 1_555
Na22 O100 2.694123 1_555
Na22 O112 2.796620 1_555
Na22 O98 2.845462 1_555
Na23 O109 2.393427 1_555
Na23 O111 2.544864 1_555
Na23 O113 2.558400 1_555
Na23 O97 2.807478 1_555
Na23 O99 2.850783 1_555
Na23 O101 3.044856 1_555
Na24 O114 2.390766 1_555
Na24 O116 2.410336 1_555
Na24 O102 2.670022 1_555
Na24 O118 2.690675 1_555
Na24 O106 2.826541 1_555
Na25 O119 2.357008 1_555
Na25 O117 2.714431 1_555
Na25 O115 2.722285 1_555
Na25 O105 2.735081 1_555
Na25 O107 2.807039 1_555
Na25 O103 2.996262 1_555
Na26 O134 2.494520 1_555
Na26 O120 2.563740 1_555
Na26 O136 2.711867 1_555
Na26 O124 2.735618 1_555
Na26 O132 2.899477 1_555
Na26 O122 2.945153 1_555
Na27 O125 2.388971 1_555
Na27 O135 2.502888 1_555
Na27 O133 2.549208 1_555
Na27 O121 2.583431 1_555
Na27 O137 2.716153 1_555
Na27 O123 2.891942 1_555
Na28 O128 2.367602 1_555
Na28 O142 2.475156 1_555
Na28 O126 2.526254 1_555
Na28 O138 2.624810 1_555
Na28 O140 2.790126 1_555
Na28 O130 2.917313 1_555
Na29 O127 2.437501 1_555
Na29 O129 2.577633 1_555
Na29 O143 2.580275 1_555
Na29 O141 2.749656 1_555
Na29 O131 2.858844 1_555
Na29 O139 2.955868 1_555
La0 O5 2.191969 1_455
La0 O0 2.218059 1_555
La0 O72 2.357726 1_545
La0 O3 2.427015 1_445
La0 O76 2.429065 1_555
La0 O75 2.524521 1_445
La1 O2 2.191791 1_555
La1 O1 2.300378 1_555
La1 O74 2.367228 1_565
La1 O77 2.417064 1_565
La1 O4 2.448692 1_565
La1 O73 2.515314 1_555
La2 O6 2.204712 1_555
La2 O11 2.264433 1_455
La2 O83 2.341372 1_445
La2 O9 2.399484 1_545
La2 O80 2.505526 1_545
La2 O78 2.516970 1_555
La3 O8 2.217927 1_545
La3 O7 2.254340 1_555
La3 O79 2.333871 1_555
La3 O10 2.370247 1_545
La3 O81 2.484226 1_545
La3 O82 2.503127 1_545
La4 O26 2.234709 1_555
La4 O28 2.271364 1_555
La4 O98 2.313947 1_555
La4 O100 2.364091 1_555
La4 O24 2.437272 1_555
La4 O96 2.445537 1_555
La5 O27 2.216139 1_555
La5 O29 2.282892 1_555
La5 O97 2.333670 1_555
La5 O99 2.349354 1_555
La5 O25 2.457046 1_555
La5 O101 2.528100 1_555
La6 O34 2.247792 1_555
La6 O32 2.315911 1_555
La6 O106 2.338316 1_555
La6 O102 2.343128 1_555
La6 O30 2.449134 1_555
La6 O104 2.546076 1_555
La7 O35 2.220444 1_555
La7 O33 2.256250 1_555
La7 O107 2.322758 1_555
La7 O105 2.342777 1_555
La7 O103 2.449328 1_555
La7 O31 2.488181 1_555
La8 O40 2.292143 1_556
La8 O110 2.364492 1_555
La8 O36 2.410495 1_556
La8 O112 2.475535 1_555
La8 O108 2.555328 1_555
La8 O38 2.572344 1_556
La9 O37 2.319642 1_556
La9 O41 2.367301 1_556
La9 O39 2.497245 1_556
La9 O109 2.500451 1_555
La9 O111 2.567047 1_555
La9 O113 2.614579 1_555
La10 O44 2.251803 1_555
La10 O42 2.327548 1_555
La10 O118 2.557568 1_555
La10 O116 2.558078 1_555
La10 O114 2.573345 1_555
La10 O46 2.635188 1_555
La11 O117 2.314277 1_555
La11 O45 2.341023 1_555
La11 O43 2.391056 1_555
La11 O119 2.448352 1_555
La11 O47 2.549033 1_555
La11 O115 2.570094 1_555
La12 O120 2.212704 1_555
La12 O124 2.268386 1_555
La12 O48 2.326123 1_554
La12 O50 2.435299 1_554
La12 O52 2.460901 1_554
La12 O122 2.499593 1_555
La13 O49 2.178891 1_554
La13 O51 2.291824 1_554
La13 O125 2.348953 1_555
La13 O121 2.351484 1_555
La13 O53 2.492184 1_554
La13 O123 2.595611 1_555
La14 O54 2.175914 1_555
La14 O58 2.321596 1_555
La14 O128 2.339592 1_555
La14 O126 2.369298 1_555
La14 O56 2.465394 1_555
La14 O130 2.661289 1_555
La15 O127 2.279062 1_555
La15 O129 2.286202 1_555
La15 O57 2.287985 1_555
La15 O55 2.360227 1_555
La15 O59 2.408142 1_555
La15 O131 2.492590 1_555
La16 O65 2.234947 1_555
La16 O133 2.348261 1_555
La16 O61 2.397782 1_555
La16 O63 2.486070 1_555
La16 O137 2.513506 1_555
La16 O135 2.580663 1_555
La17 O138 2.225152 1_555
La17 O66 2.386932 1_555
La17 O70 2.451622 1_555
La17 O68 2.479641 1_555
La17 O140 2.520975 1_555
La17 O142 2.580957 1_555
O0 Si0 1.606185 1_545
O1 Si1 1.623833 1_555
O2 Si2 1.587703 1_555
O3 S0 1.482884 1_555
O4 S1 1.468300 1_555
O5 Si3 1.599106 1_655
O6 Si4 1.603665 1_555
O7 Si5 1.602515 1_555
O8 Si6 1.597094 1_555
O9 S2 1.462706 1_555
O10 S3 1.466531 1_555
O11 Si7 1.602836 1_545
O12 S3 1.500009 1_555
O12 Ta1 2.195208 1_555
O13 Si7 1.729826 1_555
O13 Ta0 1.964285 1_565
O14 Si4 1.714313 1_555
O14 Ta0 1.937755 1_455
O15 Si5 1.675542 1_555
O15 Ta1 2.011431 1_545
O16 S2 1.517338 1_555
O16 Ta0 2.089584 1_465
O17 Si6 1.752148 1_555
O17 Ta1 1.895243 1_555
O18 Si2 1.718051 1_555
O18 Ta3 1.957243 1_555
O19 S0 1.498241 1_555
O19 Ta2 2.188037 1_665
O20 Si3 1.752120 1_555
O20 Ta2 1.897021 1_555
O21 S1 1.516194 1_555
O21 Ta3 2.078381 1_545
O22 Si0 1.676428 1_555
O22 Ta2 2.022769 1_565
O23 Si1 1.740432 1_555
O23 Ta3 1.940635 1_555
O24 S4 1.456198 1_555
O25 S5 1.469565 1_555
O26 Si8 1.602082 1_555
O27 Si9 1.619103 1_555
O28 Si10 1.614261 1_555
O29 Si11 1.616957 1_555
O30 S6 1.468933 1_555
O31 S7 1.452956 1_555
O32 Si12 1.618112 1_555
O33 Si13 1.617766 1_555
O34 Si14 1.616665 1_555
O35 Si15 1.600581 1_555
O36 Si14 1.633358 1_555
O37 Si15 1.667286 1_555
O38 S6 1.466541 1_555
O39 S7 1.486562 1_555
O40 Si12 1.652140 1_555
O41 Si13 1.653726 1_555
O42 Si8 1.665735 1_555
O43 Si9 1.643401 1_555
O44 Si10 1.646856 1_555
O45 Si11 1.659194 1_555
O46 S4 1.495877 1_555
O47 S5 1.467788 1_555
O48 S8 1.485307 1_555
O49 Si16 1.617145 1_555
O50 S9 1.472296 1_555
O51 Si17 1.623260 1_555
O52 S10 1.489917 1_555
O53 S11 1.469495 1_555
O54 Si18 1.613433 1_555
O55 S12 1.479437 1_555
O56 S13 1.468271 1_555
O57 Si19 1.636228 1_555
O58 Si20 1.618440 1_555
O59 S14 1.474729 1_555
O60 Si20 1.735099 1_555
O60 Ta4 1.923695 1_555
O61 S14 1.489053 1_555
O62 Si18 1.733434 1_555
O62 Ta4 1.939295 1_555
O63 S12 1.490213 1_555
O64 S13 1.492799 1_555
O64 Ta4 2.412816 1_555
O65 Si19 1.656590 1_555
O66 S9 1.490576 1_555
O67 Si17 1.745732 1_555
O67 Ta5 1.908258 1_555
O68 S10 1.495838 1_555
O69 S11 1.494463 1_555
O69 Ta5 2.426919 1_555
O70 S8 1.501864 1_555
O71 Si16 1.727033 1_555
O71 Ta5 1.946381 1_555
O72 Si20 1.660789 1_555
O73 S14 1.484920 1_555
O74 Si18 1.624034 1_545
O75 S12 1.488510 1_555
O76 S13 1.498080 1_555
O77 Si19 1.648099 1_555
O78 S9 1.495037 1_555
O79 Si17 1.648823 1_555
O80 S10 1.486867 1_555
O81 S11 1.482656 1_555
O82 S8 1.485008 1_555
O83 Si16 1.623104 1_555
O84 S4 1.505563 1_555
O84 Ta1 2.310019 1_545
O85 S5 1.522205 1_555
O85 Ta0 2.064627 1_555
O86 Si8 1.693077 1_555
O86 Ta0 2.008492 1_455
O87 Si9 1.709242 1_555
O87 Ta1 1.893291 1_545
O88 Si10 1.688889 1_555
O88 Ta1 1.937769 1_555
O89 Si11 1.673324 1_555
O89 Ta0 1.974695 1_565
O90 S6 1.520426 1_555
O90 Ta3 2.059810 1_555
O91 S7 1.507276 1_555
O91 Ta2 2.277149 1_665
O92 Si12 1.673063 1_555
O92 Ta3 2.001378 1_545
O93 Si13 1.704078 1_555
O93 Ta2 1.938203 1_655
O94 Si14 1.709017 1_555
O94 Ta2 1.897781 1_555
O95 Si15 1.692823 1_555
O95 Ta3 2.005989 1_545
O96 S3 1.453653 1_545
O97 Si7 1.622732 1_545
O98 Si4 1.621168 1_555
O99 Si5 1.626727 1_555
O100 Si6 1.597410 1_555
O101 S2 1.474113 1_655
O102 Si2 1.624326 1_555
O103 S0 1.451924 1_555
O104 S1 1.473567 1_555
O105 Si3 1.594004 1_655
O106 Si0 1.619577 1_545
O107 Si1 1.631570 1_545
O108 S8 1.473499 1_555
O109 Si16 1.646584 1_555
O110 Si17 1.626999 1_555
O111 S9 1.492527 1_655
O112 S10 1.486344 1_545
O113 S11 1.514342 1_545
O114 Si18 1.651686 1_545
O115 S12 1.483039 1_545
O116 S13 1.500618 1_555
O117 Si19 1.662891 1_555
O118 S14 1.490713 1_555
O119 Si20 1.633202 1_655
O120 Si14 1.620557 1_555
O121 Si15 1.631261 1_555
O122 S7 1.497775 1_455
O123 S6 1.475990 1_555
O124 Si12 1.633833 1_565
O125 Si13 1.635881 1_565
O126 Si8 1.632734 1_565
O127 Si9 1.613023 1_565
O128 Si10 1.634024 1_555
O129 Si11 1.624141 1_555
O130 S5 1.473053 1_455
O131 S4 1.490845 1_555
O132 Si0 1.699583 1_555
O132 Ta4 1.922182 1_555
O133 Si1 1.654398 1_555
O134 Si2 1.687868 1_555
O134 Ta4 2.137283 1_555
O135 S0 1.498715 1_555
O136 Si3 1.668178 1_555
O136 Ta4 2.059995 1_555
O137 S1 1.473569 1_555
O138 Si4 1.667812 1_555
O139 Si5 1.701416 1_555
O139 Ta5 1.914778 1_555
O140 S2 1.476330 1_555
O141 Si6 1.675460 1_555
O141 Ta5 2.048136 1_555
O142 S3 1.507556 1_555
O143 Si7 1.685392 1_555
O143 Ta5 2.147924 1_555
