# generated using pymatgen
data_MgNb2(BO4)2
_symmetry_space_group_name_H-M   'P 1'
_cell_length_a   5.57872797
_cell_length_b   5.44654342
_cell_length_c   5.58431298
_cell_angle_alpha   103.72035876
_cell_angle_beta   106.06106708
_cell_angle_gamma   120.20209026
_symmetry_Int_Tables_number   1
_chemical_formula_structural   MgNb2(BO4)2
_chemical_formula_sum   'Mg1 Nb2 B2 O8'
_cell_volume   125.62160417
_cell_formula_units_Z   1
loop_
 _symmetry_equiv_pos_site_id
 _symmetry_equiv_pos_as_xyz
  1  'x, y, z'
loop_
 _atom_site_type_symbol
 _atom_site_label
 _atom_site_symmetry_multiplicity
 _atom_site_fract_x
 _atom_site_fract_y
 _atom_site_fract_z
 _atom_site_occupancy
  Mg  Mg0  1  0.29125500  0.01009500  0.78449100  1
  Nb  Nb0  1  0.11537200  0.87245100  0.22747600  1
  Nb  Nb1  1  0.87301300  0.14903000  0.74559000  1
  B  B0  1  0.63989800  0.40048300  0.27941000  1
  B  B1  1  0.39783700  0.62066600  0.74261600  1
  O  O0  1  0.76813400  0.37700100  0.06028100  1
  O  O1  1  0.73353600  0.82429000  0.92316900  1
  O  O2  1  0.29449100  0.24459300  0.11059200  1
  O  O3  1  0.20071100  0.64401300  0.89323400  1
  O  O4  1  0.22813400  0.28099700  0.60662000  1
  O  O5  1  0.61714500  0.19629700  0.41130000  1
  O  O6  1  0.84345400  0.74037600  0.44932700  1
  O  O7  1  0.38452000  0.77720600  0.55339600  1
loop_
_geom_bond_atom_site_label_1
_geom_bond_atom_site_label_2
_geom_bond_distance
_geom_bond_site_symmetry_2
Mg0 O2 1.950155 1_556
Mg0 O7 1.950405 1_545
Mg0 O4 2.076555 1_555
Mg0 O6 2.078036 1_445
Mg0 O3 2.080927 1_545
Mg0 O0 2.089755 1_556
Nb0 O0 2.109719 1_455
Nb0 O2 2.117442 1_565
Nb0 O5 2.141089 1_565
Nb0 O1 2.171997 1_454
Nb0 O6 2.172144 1_455
Nb0 O3 2.290103 1_554
Nb0 O4 2.334462 1_565
Nb0 O7 2.357029 1_555
Nb1 O3 2.107826 1_655
Nb1 O7 2.116058 1_545
Nb1 O1 2.142777 1_545
Nb1 O5 2.170699 1_555
Nb1 O4 2.174026 1_655
Nb1 O0 2.288456 1_556
Nb1 O6 2.334798 1_545
Nb1 O2 2.359606 1_656
B0 O6 1.439599 1_555
B0 O5 1.446928 1_555
B0 O2 1.513866 1_555
B0 O0 1.589891 1_555
B1 O4 1.438458 1_555
B1 O1 1.445315 1_555
B1 O7 1.515468 1_555
B1 O3 1.592089 1_555
