# generated using pymatgen
data_MgInBr3
_symmetry_space_group_name_H-M   'P 1'
_cell_length_a   3.95662123
_cell_length_b   9.54837820
_cell_length_c   15.45483301
_cell_angle_alpha   90.00000000
_cell_angle_beta   90.00000000
_cell_angle_gamma   90.00000000
_symmetry_Int_Tables_number   1
_chemical_formula_structural   MgInBr3
_chemical_formula_sum   'Mg4 In4 Br12'
_cell_volume   583.87301844
_cell_formula_units_Z   4
loop_
 _symmetry_equiv_pos_site_id
 _symmetry_equiv_pos_as_xyz
  1  'x, y, z'
loop_
 _atom_site_type_symbol
 _atom_site_label
 _atom_site_symmetry_multiplicity
 _atom_site_fract_x
 _atom_site_fract_y
 _atom_site_fract_z
 _atom_site_occupancy
  Mg  Mg0  1  0.25000000  0.16108877  0.55319545  1
  Mg  Mg1  1  0.75000000  0.83891123  0.44680455  1
  Mg  Mg2  1  0.25000000  0.66108877  0.94680455  1
  Mg  Mg3  1  0.75000000  0.33891123  0.05319545  1
  In  In0  1  0.25000000  0.47480419  0.32479100  1
  In  In1  1  0.75000000  0.52519581  0.67520900  1
  In  In2  1  0.25000000  0.97480419  0.17520900  1
  In  In3  1  0.75000000  0.02519581  0.82479100  1
  Br  Br0  1  0.75000000  0.47813655  0.89937131  1
  Br  Br1  1  0.25000000  0.52186345  0.10062869  1
  Br  Br2  1  0.75000000  0.97813655  0.60062869  1
  Br  Br3  1  0.25000000  0.02186345  0.39937131  1
  Br  Br4  1  0.75000000  0.82596524  0.00237530  1
  Br  Br5  1  0.25000000  0.17403476  0.99762470  1
  Br  Br6  1  0.75000000  0.32596524  0.49762470  1
  Br  Br7  1  0.25000000  0.67403476  0.50237530  1
  Br  Br8  1  0.75000000  0.22520740  0.20726798  1
  Br  Br9  1  0.25000000  0.77479260  0.79273202  1
  Br  Br10  1  0.75000000  0.72520740  0.29273202  1
  Br  Br11  1  0.25000000  0.27479260  0.70726798  1
loop_
_geom_bond_atom_site_label_1
_geom_bond_atom_site_label_2
_geom_bond_distance
_geom_bond_site_symmetry_2
Br0 Mg3 2.723770 1_556
Br0 Mg2 2.739116 1_655
Br0 Mg2 2.739116 1_555
Br1 Mg2 2.723770 1_554
Br1 Mg3 2.739116 1_455
Br1 Mg3 2.739116 1_555
Br2 Mg1 2.723770 1_555
Br2 Mg0 2.739116 1_565
Br2 Mg0 2.739116 1_665
Br3 Mg0 2.723770 1_555
Br3 Mg1 2.739116 1_445
Br3 Mg1 2.739116 1_545
Br4 Mg2 2.670158 1_654
Br4 Mg2 2.670158 1_554
Br4 In3 3.339361 1_564
Br5 Mg3 2.670158 1_556
Br5 Mg3 2.670158 1_456
Br5 In2 3.339361 1_546
Br6 Mg0 2.670158 1_555
Br6 Mg0 2.670158 1_655
Br6 In1 3.339361 1_555
Br7 Mg1 2.670158 1_455
Br7 Mg1 2.670158 1_555
Br7 In0 3.339361 1_555
Br8 Mg3 2.616995 1_555
Br8 In2 3.142581 1_545
Br8 In2 3.142581 1_645
Br9 Mg2 2.616995 1_555
Br9 In3 3.142581 1_465
Br9 In3 3.142581 1_565
Br10 Mg1 2.616995 1_555
Br10 In0 3.142581 1_555
Br10 In0 3.142581 1_655
Br11 Mg0 2.616995 1_555
Br11 In1 3.142581 1_455
Br11 In1 3.142581 1_555
