# generated using pymatgen
data_NaHf3Nb(PO4)6
_symmetry_space_group_name_H-M   'P 1'
_cell_length_a   8.84704317
_cell_length_b   8.84704288
_cell_length_c   23.03118992
_cell_angle_alpha   90.00000000
_cell_angle_beta   90.00000000
_cell_angle_gamma   120.00000111
_symmetry_Int_Tables_number   1
_chemical_formula_structural   NaHf3Nb(PO4)6
_chemical_formula_sum   'Na3 Hf9 Nb3 P18 O72'
_cell_volume   1561.14514337
_cell_formula_units_Z   3
loop_
 _symmetry_equiv_pos_site_id
 _symmetry_equiv_pos_as_xyz
  1  'x, y, z'
loop_
 _atom_site_type_symbol
 _atom_site_label
 _atom_site_symmetry_multiplicity
 _atom_site_fract_x
 _atom_site_fract_y
 _atom_site_fract_z
 _atom_site_occupancy
  Na  Na0  1  0.00000000  0.00000000  0.99883405  1
  Na  Na1  1  0.66666700  0.33333300  0.83399790  1
  Na  Na2  1  0.66666700  0.33333300  0.33314467  1
  Hf  Hf0  1  0.00000000  0.00000000  0.35754011  1
  Hf  Hf1  1  0.00000000  0.00000000  0.85420304  1
  Hf  Hf2  1  0.66666700  0.33333300  0.68674343  1
  Hf  Hf3  1  0.66666700  0.33333300  0.18635388  1
  Hf  Hf4  1  0.66666700  0.33333300  0.97958852  1
  Hf  Hf5  1  0.66666700  0.33333300  0.47986493  1
  Hf  Hf6  1  0.33333300  0.66666700  0.02213762  1
  Hf  Hf7  1  0.33333300  0.66666700  0.30933913  1
  Hf  Hf8  1  0.33333300  0.66666700  0.81034269  1
  Nb  Nb0  1  0.00000000  0.00000000  0.64501980  1
  Nb  Nb1  1  0.00000000  0.00000000  0.14691197  1
  Nb  Nb2  1  0.33333300  0.66666700  0.52150989  1
  P  P0  1  0.28754245  0.00157132  0.25071123  1
  P  P1  1  0.71402887  0.71245755  0.25071123  1
  P  P2  1  0.99842868  0.28597113  0.25071123  1
  P  P3  1  0.28749986  0.28672068  0.74977799  1
  P  P4  1  0.99922082  0.71250014  0.74977799  1
  P  P5  1  0.71327932  0.00077918  0.74977799  1
  P  P6  1  0.95615977  0.33342651  0.58333389  1
  P  P7  1  0.37726774  0.04384023  0.58333389  1
  P  P8  1  0.66657349  0.62273226  0.58333389  1
  P  P9  1  0.95580526  0.62331585  0.08355874  1
  P  P10  1  0.66751159  0.04419474  0.08355874  1
  P  P11  1  0.37668415  0.33248841  0.08355874  1
  P  P12  1  0.62119526  0.66637708  0.91661855  1
  P  P13  1  0.04518082  0.37880474  0.91661855  1
  P  P14  1  0.33362292  0.95481918  0.91661855  1
  P  P15  1  0.61826476  0.95307644  0.41642226  1
  P  P16  1  0.33481067  0.38173524  0.41642226  1
  P  P17  1  0.04692356  0.66518933  0.41642226  1
  O  O0  1  0.20203435  0.03124834  0.30403091  1
  O  O1  1  0.82921400  0.79796565  0.30403091  1
  O  O2  1  0.96875166  0.17078600  0.30403091  1
  O  O3  1  0.20380791  0.17195849  0.80347492  1
  O  O4  1  0.96815058  0.79619209  0.80347492  1
  O  O5  1  0.82804151  0.03184942  0.80347492  1
  O  O6  1  0.80505031  0.97681546  0.69537537  1
  O  O7  1  0.17176515  0.19494969  0.69537537  1
  O  O8  1  0.02318454  0.82823485  0.69537537  1
  O  O9  1  0.80464149  0.82817190  0.19582255  1
  O  O10  1  0.02353041  0.19535851  0.19582255  1
  O  O11  1  0.17182810  0.97646959  0.19582255  1
  O  O12  1  0.87468739  0.36568764  0.63723224  1
  O  O13  1  0.49100125  0.12531261  0.63723224  1
  O  O14  1  0.63431236  0.50899875  0.63723224  1
  O  O15  1  0.87036755  0.51176355  0.13773149  1
  O  O16  1  0.64139701  0.12963245  0.13773149  1
  O  O17  1  0.48823645  0.35860299  0.13773149  1
  O  O18  1  0.45724062  0.29727502  0.02958105  1
  O  O19  1  0.84003539  0.54275938  0.02958105  1
  O  O20  1  0.70272498  0.15996461  0.02958105  1
  O  O21  1  0.45866901  0.15769248  0.52940837  1
  O  O22  1  0.69902447  0.54133099  0.52940837  1
  O  O23  1  0.84230752  0.30097553  0.52940837  1
  O  O24  1  0.53836218  0.69483644  0.97107089  1
  O  O25  1  0.15647327  0.46163782  0.97107089  1
  O  O26  1  0.30516356  0.84352673  0.97107089  1
  O  O27  1  0.52838335  0.83842478  0.47120505  1
  O  O28  1  0.31004043  0.47161665  0.47120505  1
  O  O29  1  0.16157522  0.68995957  0.47120505  1
  O  O30  1  0.13075300  0.63494080  0.36275755  1
  O  O31  1  0.50418680  0.86924700  0.36275755  1
  O  O32  1  0.36505920  0.49581320  0.36275755  1
  O  O33  1  0.12866691  0.49037556  0.86205814  1
  O  O34  1  0.36170766  0.87133309  0.86205814  1
  O  O35  1  0.50962444  0.63829234  0.86205814  1
  O  O36  1  0.02876317  0.82720957  0.40925114  1
  O  O37  1  0.79844640  0.97123683  0.40925114  1
  O  O38  1  0.17279043  0.20155360  0.40925114  1
  O  O39  1  0.02380086  0.19485242  0.90985664  1
  O  O40  1  0.17105155  0.97619914  0.90985664  1
  O  O41  1  0.80514758  0.82894845  0.90985664  1
  O  O42  1  0.97936856  0.17323253  0.59469365  1
  O  O43  1  0.19386397  0.02063144  0.59469365  1
  O  O44  1  0.82676747  0.80613603  0.59469365  1
  O  O45  1  0.97553904  0.80852137  0.09291107  1
  O  O46  1  0.83298233  0.02446096  0.09291107  1
  O  O47  1  0.19147863  0.16701767  0.09291107  1
  O  O48  1  0.69384174  0.16341046  0.74134683  1
  O  O49  1  0.46956971  0.30615826  0.74134683  1
  O  O50  1  0.83658954  0.53043029  0.74134683  1
  O  O51  1  0.69365137  0.53047969  0.24204541  1
  O  O52  1  0.83682932  0.30634863  0.24204541  1
  O  O53  1  0.46952031  0.16317068  0.24204541  1
  O  O54  1  0.64254399  0.50371381  0.92358704  1
  O  O55  1  0.86117082  0.35745601  0.92358704  1
  O  O56  1  0.49628619  0.13882918  0.92358704  1
  O  O57  1  0.63941352  0.13591236  0.42516368  1
  O  O58  1  0.49649984  0.36058648  0.42516368  1
  O  O59  1  0.86408764  0.50350016  0.42516368  1
  O  O60  1  0.35347597  0.48990838  0.07463479  1
  O  O61  1  0.13643141  0.64652403  0.07463479  1
  O  O62  1  0.51009162  0.86356859  0.07463479  1
  O  O63  1  0.35396595  0.86047064  0.57196976  1
  O  O64  1  0.50650369  0.64603405  0.57196976  1
  O  O65  1  0.13952936  0.49349631  0.57196976  1
  O  O66  1  0.30431335  0.83902996  0.25754613  1
  O  O67  1  0.53471560  0.69568665  0.25754613  1
  O  O68  1  0.16097004  0.46528440  0.25754613  1
  O  O69  1  0.30485958  0.46593090  0.75720081  1
  O  O70  1  0.16107032  0.69514042  0.75720081  1
  O  O71  1  0.53406910  0.83892968  0.75720081  1
loop_
_geom_bond_atom_site_label_1
_geom_bond_atom_site_label_2
_geom_bond_distance
_geom_bond_site_symmetry_2
Na0 O40 2.617731 1_545
Na0 O41 2.617731 1_445
Na0 O39 2.617731 1_555
Na0 O45 2.691570 1_446
Na0 O47 2.691570 1_556
Na0 O46 2.691570 1_456
Na1 O56 2.626174 1_555
Na1 O54 2.626174 1_555
Na1 O55 2.626174 1_555
Na1 O48 2.689339 1_555
Na1 O50 2.689339 1_555
Na1 O49 2.689339 1_555
Na2 O51 2.661737 1_555
Na2 O53 2.661737 1_555
Na2 O52 2.661737 1_555
Na2 O57 2.679374 1_555
Na2 O59 2.679374 1_555
Na2 O58 2.679374 1_555
Hf0 O38 2.051593 1_555
Hf0 O36 2.051593 1_545
Hf0 O37 2.051593 1_445
Hf0 O2 2.072649 1_455
Hf0 O1 2.072649 1_445
Hf0 O0 2.072649 1_555
Hf1 O4 2.046334 1_445
Hf1 O3 2.046334 1_555
Hf1 O5 2.046334 1_455
Hf1 O40 2.072679 1_545
Hf1 O41 2.072679 1_445
Hf1 O39 2.072679 1_555
Hf2 O13 2.059703 1_555
Hf2 O14 2.059703 1_555
Hf2 O12 2.059703 1_555
Hf2 O48 2.064141 1_555
Hf2 O50 2.064141 1_555
Hf2 O49 2.064141 1_555
Hf3 O17 2.036871 1_555
Hf3 O15 2.036871 1_555
Hf3 O16 2.036871 1_555
Hf3 O51 2.080358 1_555
Hf3 O53 2.080358 1_555
Hf3 O52 2.080358 1_555
Hf4 O20 2.066225 1_556
Hf4 O19 2.066225 1_556
Hf4 O18 2.066225 1_556
Hf4 O56 2.074351 1_555
Hf4 O54 2.074351 1_555
Hf4 O55 2.074351 1_555
Hf5 O22 2.059943 1_555
Hf5 O21 2.059943 1_555
Hf5 O23 2.059943 1_555
Hf5 O57 2.067551 1_555
Hf5 O59 2.067551 1_555
Hf5 O58 2.067551 1_555
Hf6 O62 2.053712 1_555
Hf6 O60 2.053712 1_555
Hf6 O61 2.053712 1_555
Hf6 O26 2.069679 1_554
Hf6 O25 2.069679 1_554
Hf6 O24 2.069679 1_554
Hf7 O68 2.050767 1_555
Hf7 O67 2.050767 1_555
Hf7 O66 2.050767 1_555
Hf7 O31 2.073993 1_555
Hf7 O32 2.073993 1_555
Hf7 O30 2.073993 1_555
Hf8 O69 2.065906 1_555
Hf8 O71 2.065906 1_555
Hf8 O70 2.065906 1_555
Hf8 O34 2.075022 1_555
Hf8 O33 2.075022 1_555
Hf8 O35 2.075022 1_555
Nb0 O44 2.001338 1_445
Nb0 O42 2.001338 1_455
Nb0 O43 2.001338 1_555
Nb0 O7 2.002001 1_555
Nb0 O8 2.002001 1_545
Nb0 O6 2.002001 1_445
Nb1 O10 1.984855 1_555
Nb1 O9 1.984855 1_445
Nb1 O11 1.984855 1_545
Nb1 O45 2.024040 1_445
Nb1 O47 2.024040 1_555
Nb1 O46 2.024040 1_455
Nb2 O28 2.001733 1_555
Nb2 O27 2.001733 1_555
Nb2 O29 2.001733 1_555
Nb2 O63 2.002686 1_555
Nb2 O65 2.002686 1_555
Nb2 O64 2.002686 1_555
O0 P0 1.532273 1_555
O1 P1 1.532273 1_555
O2 P2 1.532273 1_555
O3 P3 1.535173 1_555
O4 P4 1.535173 1_555
O5 P5 1.535173 1_555
O6 P5 1.564022 1_565
O7 P3 1.564022 1_555
O8 P4 1.564021 1_455
O9 P1 1.571010 1_555
O10 P2 1.571010 1_455
O11 P0 1.571010 1_565
O12 P6 1.532207 1_555
O13 P7 1.532207 1_555
O14 P8 1.532207 1_555
O15 P9 1.534932 1_555
O16 P10 1.534932 1_555
O17 P11 1.534932 1_555
O18 P11 1.540284 1_555
O19 P9 1.540284 1_555
O20 P10 1.540284 1_555
O21 P7 1.533068 1_555
O22 P8 1.533068 1_555
O23 P6 1.533068 1_555
O24 P12 1.535485 1_555
O25 P13 1.535485 1_555
O26 P14 1.535485 1_555
O27 P15 1.564136 1_555
O28 P16 1.564136 1_555
O29 P17 1.564136 1_555
O30 P17 1.532228 1_555
O31 P15 1.532228 1_555
O32 P16 1.532228 1_555
O33 P13 1.539420 1_555
O34 P14 1.539420 1_555
O35 P12 1.539420 1_555
O36 P17 1.529060 1_555
O37 P15 1.529069 1_555
O38 P16 1.529065 1_555
O39 P13 1.549434 1_555
O40 P14 1.549425 1_555
O41 P12 1.549430 1_555
O42 P6 1.552478 1_555
O43 P7 1.552487 1_555
O44 P8 1.552483 1_555
O45 P9 1.573393 1_555
O46 P10 1.573384 1_555
O47 P11 1.573389 1_555
O48 P5 1.544301 1_555
O49 P3 1.544309 1_555
O50 P4 1.544306 1_555
O51 P1 1.540805 1_555
O52 P2 1.540796 1_555
O53 P0 1.540801 1_555
O54 P12 1.550553 1_555
O55 P13 1.550535 1_655
O56 P14 1.550542 1_545
O57 P15 1.545762 1_545
O58 P16 1.545779 1_555
O59 P17 1.545769 1_655
O60 P11 1.519859 1_555
O61 P9 1.519842 1_455
O62 P10 1.519849 1_565
O63 P7 1.551887 1_565
O64 P8 1.551904 1_555
O65 P6 1.551894 1_455
O66 P0 1.525788 1_565
O67 P1 1.525797 1_555
O68 P2 1.525793 1_455
O69 P3 1.524159 1_555
O70 P4 1.524150 1_455
O71 P5 1.524155 1_565
