# generated using pymatgen
data_PbBr2
_symmetry_space_group_name_H-M   'P 1'
_cell_length_a   4.50177832
_cell_length_b   7.78386196
_cell_length_c   14.51122872
_cell_angle_alpha   90.00000000
_cell_angle_beta   90.00000000
_cell_angle_gamma   90.00000000
_symmetry_Int_Tables_number   1
_chemical_formula_structural   PbBr2
_chemical_formula_sum   'Pb4 Br8'
_cell_volume   508.49117281
_cell_formula_units_Z   4
loop_
 _symmetry_equiv_pos_site_id
 _symmetry_equiv_pos_as_xyz
  1  'x, y, z'
loop_
 _atom_site_type_symbol
 _atom_site_label
 _atom_site_symmetry_multiplicity
 _atom_site_fract_x
 _atom_site_fract_y
 _atom_site_fract_z
 _atom_site_occupancy
  Pb  Pb0  1  0.25000000  0.74991711  0.99995302  1
  Pb  Pb1  1  0.75000000  0.25008289  0.00004698  1
  Pb  Pb2  1  0.25000000  0.24991711  0.50004698  1
  Pb  Pb3  1  0.75000000  0.75008289  0.49995302  1
  Br  Br0  1  0.25000000  0.41652780  0.11456173  1
  Br  Br1  1  0.75000000  0.58347220  0.88543827  1
  Br  Br2  1  0.25000000  0.91652780  0.38543827  1
  Br  Br3  1  0.75000000  0.08347220  0.61456173  1
  Br  Br4  1  0.75000000  0.41626336  0.38553803  1
  Br  Br5  1  0.25000000  0.58373664  0.61446197  1
  Br  Br6  1  0.75000000  0.91626336  0.11446197  1
  Br  Br7  1  0.25000000  0.08373664  0.88553803  1
loop_
_geom_bond_atom_site_label_1
_geom_bond_atom_site_label_2
_geom_bond_distance
_geom_bond_site_symmetry_2
Br0 Pb0 3.082250 1_554
Br0 Pb1 3.083254 1_455
Br0 Pb1 3.083254 1_555
Br1 Pb1 3.082250 1_556
Br1 Pb0 3.083254 1_655
Br1 Pb0 3.083254 1_555
Br2 Pb2 3.082250 1_565
Br2 Pb3 3.083254 1_455
Br2 Pb3 3.083254 1_555
Br3 Pb3 3.082250 1_545
Br3 Pb2 3.083254 1_655
Br3 Pb2 3.083254 1_555
Br4 Pb2 3.082886 1_555
Br4 Pb2 3.082886 1_655
Br4 Pb3 3.083555 1_555
Br5 Pb3 3.082886 1_455
Br5 Pb3 3.082886 1_555
Br5 Pb2 3.083555 1_555
Br6 Pb0 3.082886 1_654
Br6 Pb0 3.082886 1_554
Br6 Pb1 3.083555 1_565
Br7 Pb1 3.082886 1_556
Br7 Pb1 3.082886 1_456
Br7 Pb0 3.083555 1_545
