# generated using pymatgen
data_MgFe4O5F3
_symmetry_space_group_name_H-M   'P 1'
_cell_length_a   6.12179666
_cell_length_b   6.18447797
_cell_length_c   6.18582978
_cell_angle_alpha   55.19734208
_cell_angle_beta   86.85565010
_cell_angle_gamma   60.76455632
_symmetry_Int_Tables_number   1
_chemical_formula_structural   MgFe4O5F3
_chemical_formula_sum   'Mg1 Fe4 O5 F3'
_cell_volume   159.40491889
_cell_formula_units_Z   1
loop_
 _symmetry_equiv_pos_site_id
 _symmetry_equiv_pos_as_xyz
  1  'x, y, z'
loop_
 _atom_site_type_symbol
 _atom_site_label
 _atom_site_symmetry_multiplicity
 _atom_site_fract_x
 _atom_site_fract_y
 _atom_site_fract_z
 _atom_site_occupancy
  Mg  Mg0  1  0.33918129  0.49305556  0.83250713  1
  Fe  Fe0  1  0.71066104  0.75989276  0.47050059  1
  Fe  Fe1  1  0.25618252  0.24239600  0.49850274  1
  Fe  Fe2  1  0.65651064  0.49724906  0.15331707  1
  Fe  Fe3  1  0.85089798  0.01361227  0.86437269  1
  O  O0  1  0.48720330  0.23249607  0.71973170  1
  O  O1  1  0.49083594  0.75267401  0.72891975  1
  O  O2  1  0.96823563  0.28341856  0.69544871  1
  O  O3  1  0.49091019  0.23810207  0.24354768  1
  O  O4  1  0.96809138  0.72722140  0.25141101  1
  F  F0  1  0.96272723  0.76304566  0.72587317  1
  F  F1  1  0.03889243  0.22918585  0.26856495  1
  F  F2  1  0.47014843  0.77955673  0.24968481  1
loop_
_geom_bond_atom_site_label_1
_geom_bond_atom_site_label_2
_geom_bond_distance
_geom_bond_site_symmetry_2
Mg0 O0 1.921461 1_555
Mg0 O3 2.016425 1_556
Mg0 O1 2.016647 1_555
Fe0 O3 2.026998 1_565
Fe0 O1 2.027194 1_555
Fe0 O2 2.031587 1_555
Fe0 O4 2.031834 1_555
Fe1 O0 1.977052 1_555
Fe1 O3 2.077194 1_555
Fe1 O1 2.077288 1_545
Fe1 O4 2.082276 1_455
Fe1 O2 2.082364 1_455
Fe2 O1 2.099816 1_554
Fe2 O3 2.100416 1_555
Fe3 O0 1.866042 1_555
Fe3 O2 1.868223 1_555
Fe3 O4 1.868275 1_546
F0 Mg0 1.919624 1_655
F0 Fe3 2.004715 1_565
F0 Fe0 2.282307 1_555
F1 Fe2 1.944099 1_455
F1 Fe1 2.060481 1_555
F2 Fe2 1.967986 1_555
F2 Fe0 1.975989 1_555
