# generated using pymatgen
data_Na30Nb16Zn8Si27(SO16)9
_symmetry_space_group_name_H-M   'P 1'
_cell_length_a   18.11668343
_cell_length_b   9.06438333
_cell_length_c   22.65247143
_cell_angle_alpha   90.04491045
_cell_angle_beta   90.15393702
_cell_angle_gamma   120.13990754
_symmetry_Int_Tables_number   1
_chemical_formula_structural   Na30Nb16Zn8Si27(SO16)9
_chemical_formula_sum   'Na30 Nb16 Zn8 Si27 S9 O144'
_cell_volume   3216.96471132
_cell_formula_units_Z   1
loop_
 _symmetry_equiv_pos_site_id
 _symmetry_equiv_pos_as_xyz
  1  'x, y, z'
loop_
 _atom_site_type_symbol
 _atom_site_label
 _atom_site_symmetry_multiplicity
 _atom_site_fract_x
 _atom_site_fract_y
 _atom_site_fract_z
 _atom_site_occupancy
  Na  Na0  1  0.18432775  0.00780175  0.74314450  1
  Na  Na1  1  0.65543160  0.33757186  0.58743958  1
  Na  Na2  1  0.01351203  0.68332736  0.58708568  1
  Na  Na3  1  0.51217878  0.68014729  0.58696443  1
  Na  Na4  1  0.65498814  0.97249428  0.08655253  1
  Na  Na5  1  0.51106854  0.34428938  0.08667989  1
  Na  Na6  1  0.48169442  0.67972868  0.91052940  1
  Na  Na7  1  0.98368878  0.68224275  0.91130361  1
  Na  Na8  1  0.35570034  0.03301236  0.91561311  1
  Na  Na9  1  0.85594153  0.03368668  0.91336236  1
  Na  Na10  1  0.16037006  0.28850583  0.91549442  1
  Na  Na11  1  0.66066078  0.28788928  0.91344031  1
  Na  Na12  1  0.48269047  0.28499418  0.40923706  1
  Na  Na13  1  0.98336780  0.28830036  0.41505923  1
  Na  Na14  1  0.16095969  0.03430043  0.41479595  1
  Na  Na15  1  0.66029450  0.03287630  0.41307124  1
  Na  Na16  1  0.35693596  0.67836816  0.41404672  1
  Na  Na17  1  0.85549057  0.67775167  0.41374408  1
  Na  Na18  1  0.99988365  0.00890605  0.49560624  1
  Na  Na19  1  0.49635066  0.00169115  0.49357613  1
  Na  Na20  1  0.00072112  0.99983776  0.99277324  1
  Na  Na21  1  0.49548664  0.98980112  0.99302625  1
  Na  Na22  1  0.34271010  0.35545009  0.82606782  1
  Na  Na23  1  0.83698926  0.34251556  0.82261152  1
  Na  Na24  1  0.33812092  0.33178054  0.32209897  1
  Na  Na25  1  0.83255994  0.33296289  0.32524971  1
  Na  Na26  1  0.16676303  0.66687761  0.16246195  1
  Na  Na27  1  0.67037175  0.66563404  0.16765107  1
  Na  Na28  1  0.16888059  0.65523865  0.66592533  1
  Na  Na29  1  0.67091418  0.67582296  0.66890721  1
  Nb  Nb0  1  0.00133502  0.99560620  0.64365492  1
  Nb  Nb1  1  0.49970421  0.98854272  0.64477288  1
  Nb  Nb2  1  0.00179117  0.99872258  0.13995239  1
  Nb  Nb3  1  0.49754107  0.00949290  0.14388083  1
  Nb  Nb4  1  0.33282973  0.33574436  0.98213077  1
  Nb  Nb5  1  0.83475116  0.33579938  0.98174958  1
  Nb  Nb6  1  0.33394813  0.33216582  0.48203057  1
  Nb  Nb7  1  0.83429665  0.33185246  0.48169787  1
  Nb  Nb8  1  0.16625042  0.66248464  0.02251257  1
  Nb  Nb9  1  0.66917496  0.66753962  0.02045387  1
  Nb  Nb10  1  0.16778863  0.66707640  0.52193889  1
  Nb  Nb11  1  0.66903749  0.67264711  0.51998091  1
  Nb  Nb12  1  0.16672470  0.66714443  0.31459533  1
  Nb  Nb13  1  0.66209092  0.65575386  0.31283582  1
  Nb  Nb14  1  0.16137176  0.66467007  0.81536790  1
  Nb  Nb15  1  0.66233748  0.66816770  0.81351370  1
  Zn  Zn0  1  0.99912952  0.99910437  0.35392966  1
  Zn  Zn1  1  0.49973956  0.01010041  0.35219415  1
  Zn  Zn2  1  0.99670221  0.98587650  0.85349948  1
  Zn  Zn3  1  0.49907015  0.98776130  0.85361811  1
  Zn  Zn4  1  0.34259578  0.35345111  0.67933345  1
  Zn  Zn5  1  0.84043300  0.34760116  0.68052450  1
  Zn  Zn6  1  0.34024184  0.33274605  0.17940654  1
  Zn  Zn7  1  0.83406326  0.33457781  0.17341179  1
  Si  Si0  1  0.49390403  0.29013342  0.25355746  1
  Si  Si1  1  0.99493102  0.69889322  0.75286963  1
  Si  Si2  1  0.49518547  0.69814046  0.75385849  1
  Si  Si3  1  0.47916194  0.33008178  0.58461141  1
  Si  Si4  1  0.97849479  0.33071458  0.58543261  1
  Si  Si5  1  0.19224497  0.04747803  0.58812997  1
  Si  Si6  1  0.69318101  0.04623555  0.58741348  1
  Si  Si7  1  0.32948902  0.61775352  0.58533258  1
  Si  Si8  1  0.83147177  0.62120283  0.58502475  1
  Si  Si9  1  0.47874940  0.62679249  0.08512856  1
  Si  Si10  1  0.97874472  0.61696354  0.08664201  1
  Si  Si11  1  0.32812102  0.04083818  0.08513736  1
  Si  Si12  1  0.83369294  0.04601428  0.08588840  1
  Si  Si13  1  0.19391404  0.33953875  0.08804505  1
  Si  Si14  1  0.69092691  0.33946176  0.08604802  1
  Si  Si15  1  0.31012111  0.66536930  0.91643236  1
  Si  Si16  1  0.81061402  0.66429156  0.91502760  1
  Si  Si17  1  0.02003537  0.37262552  0.91744951  1
  Si  Si18  1  0.52022847  0.37442805  0.91682261  1
  Si  Si19  1  0.16778460  0.95881496  0.91823417  1
  Si  Si20  1  0.66800377  0.95981206  0.91769322  1
  Si  Si21  1  0.31155768  0.95769899  0.41718859  1
  Si  Si22  1  0.81098839  0.95722035  0.41407395  1
  Si  Si23  1  0.16734269  0.37717044  0.41659717  1
  Si  Si24  1  0.66787844  0.37631729  0.41756164  1
  Si  Si25  1  0.02099982  0.66610804  0.41697418  1
  Si  Si26  1  0.52040005  0.66637717  0.41634567  1
  S  S0  1  0.14366960  0.99763033  0.25190924  1
  S  S1  1  0.64731860  0.00115581  0.25115145  1
  S  S2  1  0.35364989  0.70984271  0.25169105  1
  S  S3  1  0.85574089  0.71074373  0.25143667  1
  S  S4  1  0.00005403  0.29028869  0.25143648  1
  S  S5  1  0.14457392  0.29218024  0.75143025  1
  S  S6  1  0.64552771  0.29198112  0.75125750  1
  S  S7  1  0.35465344  0.99855868  0.75145989  1
  S  S8  1  0.85490972  0.99860603  0.75132080  1
  O  O0  1  0.10308662  0.01162989  0.30648319  1
  O  O1  1  0.60563707  0.01423781  0.30508879  1
  O  O2  1  0.40136069  0.78715439  0.30648049  1
  O  O3  1  0.90417316  0.79055557  0.30633900  1
  O  O4  1  0.48975967  0.18830119  0.31235519  1
  O  O5  1  0.99261431  0.19615601  0.30650967  1
  O  O6  1  0.10424894  0.19466261  0.80542475  1
  O  O7  1  0.60311519  0.19551818  0.80486330  1
  O  O8  1  0.48983246  0.79212108  0.81200939  1
  O  O9  1  0.99309865  0.79526908  0.81163883  1
  O  O10  1  0.40310635  0.01885884  0.80587326  1
  O  O11  1  0.90312710  0.01903597  0.80616503  1
  O  O12  1  0.40018176  0.98089334  0.69843427  1
  O  O13  1  0.90086861  0.97815928  0.69878239  1
  O  O14  1  0.08935665  0.20557628  0.69795744  1
  O  O15  1  0.59064836  0.20669545  0.69651290  1
  O  O16  1  0.01338884  0.83420704  0.69416901  1
  O  O17  1  0.50987897  0.82903162  0.69395307  1
  O  O18  1  0.39841653  0.82141242  0.19906710  1
  O  O19  1  0.90031156  0.82127654  0.19902402  1
  O  O20  1  0.01193722  0.20339917  0.19923893  1
  O  O21  1  0.50963325  0.19023359  0.19414783  1
  O  O22  1  0.08775936  0.97334929  0.19928297  1
  O  O23  1  0.59341883  0.97696379  0.19683023  1
  O  O24  1  0.44451956  0.38749934  0.63830651  1
  O  O25  1  0.94446303  0.39088978  0.63873995  1
  O  O26  1  0.24351802  0.12014357  0.64780626  1
  O  O27  1  0.74843822  0.12959956  0.64386326  1
  O  O28  1  0.31116719  0.50786310  0.64229769  1
  O  O29  1  0.80463134  0.49701281  0.63931628  1
  O  O30  1  0.44530547  0.50090733  0.13906446  1
  O  O31  1  0.94190809  0.51039748  0.14462932  1
  O  O32  1  0.31346893  0.11610043  0.14299320  1
  O  O33  1  0.80604399  0.11273011  0.14128911  1
  O  O34  1  0.24922939  0.36971165  0.14486173  1
  O  O35  1  0.74387222  0.36970235  0.14414321  1
  O  O36  1  0.23350746  0.30151139  0.02591198  1
  O  O37  1  0.73225171  0.29876385  0.02611273  1
  O  O38  1  0.41902057  0.53686979  0.02432909  1
  O  O39  1  0.91782738  0.53357810  0.02598491  1
  O  O40  1  0.35157179  0.16641613  0.02517131  1
  O  O41  1  0.84947046  0.16404274  0.02533168  1
  O  O42  1  0.23575109  0.16610715  0.52738928  1
  O  O43  1  0.73327468  0.16667926  0.52598483  1
  O  O44  1  0.35145139  0.53717683  0.52514035  1
  O  O45  1  0.85183619  0.53775243  0.52475990  1
  O  O46  1  0.41895678  0.30172582  0.52399488  1
  O  O47  1  0.91862629  0.30127280  0.52410091  1
  O  O48  1  0.26001402  0.68804544  0.97184576  1
  O  O49  1  0.75987992  0.68618062  0.97166604  1
  O  O50  1  0.08315692  0.47030431  0.97215624  1
  O  O51  1  0.58063844  0.46962380  0.97432898  1
  O  O52  1  0.15390099  0.82853222  0.97140770  1
  O  O53  1  0.65533084  0.83740148  0.97427401  1
  O  O54  1  0.25941299  0.83209543  0.47169737  1
  O  O55  1  0.76207532  0.83423446  0.47124567  1
  O  O56  1  0.15294497  0.47615097  0.47139085  1
  O  O57  1  0.65534595  0.47399419  0.47418745  1
  O  O58  1  0.08083818  0.69381246  0.47412968  1
  O  O59  1  0.58071036  0.69261556  0.47406006  1
  O  O60  1  0.07027648  0.63292968  0.35988649  1
  O  O61  1  0.56874055  0.63053534  0.36015896  1
  O  O62  1  0.24690820  0.86092599  0.35901387  1
  O  O63  1  0.74657553  0.86358917  0.35806775  1
  O  O64  1  0.18403265  0.50762404  0.35897637  1
  O  O65  1  0.68463508  0.50699875  0.36091863  1
  O  O66  1  0.06673877  0.50440174  0.85945307  1
  O  O67  1  0.56897291  0.50670849  0.86021737  1
  O  O68  1  0.18423891  0.86712565  0.85815009  1
  O  O69  1  0.68453611  0.86234922  0.86082570  1
  O  O70  1  0.24595588  0.63227705  0.85862543  1
  O  O71  1  0.74651537  0.63028898  0.85848057  1
  O  O72  1  0.01109292  0.83193793  0.41129394  1
  O  O73  1  0.51104211  0.83260400  0.41067340  1
  O  O74  1  0.40317436  0.97246588  0.41502533  1
  O  O75  1  0.90471533  0.97859820  0.41208643  1
  O  O76  1  0.08405102  0.19125959  0.41107205  1
  O  O77  1  0.58577838  0.18872560  0.41555521  1
  O  O78  1  0.01008436  0.18779832  0.91005679  1
  O  O79  1  0.51146169  0.18986148  0.91080823  1
  O  O80  1  0.08650881  0.98437711  0.91461214  1
  O  O81  1  0.58589537  0.98251041  0.91562389  1
  O  O82  1  0.40301812  0.83340737  0.91468044  1
  O  O83  1  0.90305598  0.83320455  0.91548801  1
  O  O84  1  0.49408852  0.16609315  0.59180136  1
  O  O85  1  0.98901138  0.16162066  0.59275737  1
  O  O86  1  0.09303781  0.02251157  0.59198326  1
  O  O87  1  0.59454814  0.02633574  0.59193700  1
  O  O88  1  0.41940506  0.81134135  0.59125641  1
  O  O89  1  0.91975049  0.81093416  0.59140381  1
  O  O90  1  0.49373941  0.82114937  0.09287601  1
  O  O91  1  0.98890794  0.81321119  0.09377742  1
  O  O92  1  0.41875282  0.02659487  0.09120951  1
  O  O93  1  0.91890630  0.02355027  0.09428222  1
  O  O94  1  0.09459525  0.16333789  0.09526788  1
  O  O95  1  0.59306750  0.16117808  0.09132741  1
  O  O96  1  0.33918361  0.14175259  0.74569039  1
  O  O97  1  0.84179524  0.14350912  0.74438193  1
  O  O98  1  0.22824450  0.30517872  0.74554726  1
  O  O99  1  0.72959278  0.31042831  0.74548951  1
  O  O100  1  0.41533523  0.51036746  0.74662264  1
  O  O101  1  0.91511532  0.51157752  0.74618814  1
  O  O102  1  0.33983022  0.53798310  0.24492805  1
  O  O103  1  0.84379848  0.53907077  0.24633209  1
  O  O104  1  0.41514457  0.32069469  0.24666722  1
  O  O105  1  0.92599532  0.31339997  0.24604559  1
  O  O106  1  0.22876890  0.14497313  0.24648716  1
  O  O107  1  0.73282500  0.15109744  0.24633922  1
  O  O108  1  0.31574096  0.48909103  0.92193563  1
  O  O109  1  0.81628010  0.48919059  0.92320553  1
  O  O110  1  0.42788223  0.36662645  0.92190241  1
  O  O111  1  0.92777646  0.36607898  0.92259577  1
  O  O112  1  0.25692477  0.14432879  0.92238218  1
  O  O113  1  0.75677562  0.14483283  0.92241865  1
  O  O114  1  0.31499544  0.14218864  0.42198641  1
  O  O115  1  0.81655399  0.14381992  0.42250717  1
  O  O116  1  0.25515913  0.36751608  0.42257548  1
  O  O117  1  0.75674014  0.36868612  0.42232528  1
  O  O118  1  0.42756008  0.48940898  0.42235470  1
  O  O119  1  0.92815246  0.48829452  0.42097563  1
  O  O120  1  0.17446563  0.49395137  0.07397251  1
  O  O121  1  0.66891744  0.49218171  0.07511102  1
  O  O122  1  0.07416607  0.65116549  0.07303721  1
  O  O123  1  0.57564565  0.65598113  0.07238418  1
  O  O124  1  0.25112363  0.84794333  0.07295253  1
  O  O125  1  0.75104819  0.85463246  0.07290912  1
  O  O126  1  0.17041351  0.85020387  0.57488378  1
  O  O127  1  0.66998803  0.84846360  0.57512171  1
  O  O128  1  0.25154244  0.65477818  0.57294548  1
  O  O129  1  0.75005287  0.64907393  0.57248332  1
  O  O130  1  0.07304091  0.49840194  0.57138123  1
  O  O131  1  0.57556588  0.49659302  0.57206097  1
  O  O132  1  0.14901525  0.83364475  0.25488648  1
  O  O133  1  0.65302535  0.83883230  0.25384140  1
  O  O134  1  0.26657753  0.70139008  0.25452726  1
  O  O135  1  0.76944028  0.70095728  0.25411615  1
  O  O136  1  0.08197060  0.46607875  0.25492797  1
  O  O137  1  0.58890960  0.48307627  0.25628460  1
  O  O138  1  0.15267076  0.46602340  0.75356317  1
  O  O139  1  0.65142601  0.46545081  0.75316247  1
  O  O140  1  0.09143645  0.70092383  0.75492055  1
  O  O141  1  0.58910984  0.69466089  0.75599932  1
  O  O142  1  0.26773373  0.83547636  0.75261817  1
  O  O143  1  0.76910938  0.83358307  0.75340103  1
loop_
_geom_bond_atom_site_label_1
_geom_bond_atom_site_label_2
_geom_bond_distance
_geom_bond_site_symmetry_2
Na0 O98 2.397446 1_555
Na0 O26 2.402131 1_555
Na0 O96 2.434444 1_555
Na0 O140 2.437922 1_545
Na0 O142 2.671750 1_545
Na0 O16 2.895252 1_545
Na0 O68 2.901038 1_545
Na1 O87 2.462135 1_555
Na1 O129 2.483917 1_555
Na1 O131 2.526875 1_555
Na1 O84 2.531586 1_555
Na1 O29 2.614032 1_555
Na1 O15 2.740718 1_555
Na1 O57 2.849124 1_555
Na1 O43 2.920142 1_555
Na2 O130 2.432270 1_555
Na2 O126 2.476177 1_555
Na2 O89 2.491321 1_455
Na2 O25 2.577461 1_455
Na2 O86 2.662874 1_565
Na2 O16 2.784303 1_555
Na2 O58 2.818619 1_555
Na2 O45 2.899521 1_455
Na3 O131 2.474045 1_555
Na3 O127 2.489553 1_555
Na3 O88 2.501288 1_555
Na3 O24 2.576626 1_555
Na3 O87 2.717083 1_565
Na3 O17 2.783616 1_555
Na3 O59 2.823471 1_555
Na3 O44 2.881899 1_555
Na4 O95 2.474337 1_565
Na4 O125 2.476882 1_555
Na4 O123 2.501004 1_555
Na4 O90 2.532683 1_555
Na4 O33 2.669887 1_565
Na4 O23 2.747060 1_555
Na4 O53 2.823326 1_554
Na4 O37 2.905108 1_565
Na5 O123 2.477901 1_555
Na5 O121 2.489665 1_555
Na5 O92 2.503036 1_555
Na5 O30 2.558602 1_555
Na5 O95 2.729176 1_555
Na5 O21 2.801115 1_555
Na5 O51 2.817838 1_554
Na5 O40 2.861241 1_555
Na6 O8 2.427901 1_555
Na6 O81 2.429987 1_555
Na6 O82 2.444455 1_555
Na6 O110 2.509074 1_555
Na6 O108 2.622897 1_555
Na6 O38 2.855832 1_556
Na6 O67 2.959037 1_555
Na7 O80 2.419019 1_655
Na7 O9 2.450713 1_555
Na7 O83 2.454237 1_555
Na7 O111 2.528203 1_555
Na7 O109 2.647397 1_555
Na7 O39 2.897534 1_556
Na7 O66 2.946889 1_655
Na7 O52 2.998236 1_655
Na8 O82 2.359334 1_545
Na8 O79 2.443185 1_555
Na8 O112 2.461374 1_555
Na8 O110 2.627186 1_555
Na8 O10 2.656178 1_555
Na8 O40 2.777424 1_556
Na9 O83 2.364500 1_545
Na9 O78 2.416441 1_655
Na9 O113 2.470625 1_555
Na9 O11 2.601848 1_555
Na9 O111 2.622039 1_555
Na9 O41 2.824740 1_556
Na9 O69 2.933483 1_545
Na10 O80 2.384514 1_545
Na10 O78 2.400742 1_555
Na10 O108 2.471462 1_555
Na10 O112 2.662089 1_555
Na10 O6 2.662450 1_555
Na10 O36 2.801886 1_556
Na10 O50 2.939555 1_555
Na10 O70 2.989752 1_555
Na11 O79 2.384615 1_555
Na11 O81 2.394726 1_545
Na11 O109 2.481292 1_555
Na11 O7 2.635082 1_555
Na11 O113 2.649700 1_555
Na11 O37 2.838946 1_556
Na11 O71 2.961499 1_555
Na11 O51 3.020470 1_555
Na12 O4 2.390008 1_555
Na12 O77 2.430075 1_555
Na12 O74 2.453776 1_545
Na12 O118 2.525522 1_555
Na12 O114 2.654236 1_555
Na12 O46 2.881878 1_555
Na12 O61 2.930490 1_555
Na13 O76 2.391866 1_655
Na13 O75 2.428538 1_545
Na13 O119 2.475143 1_555
Na13 O115 2.627789 1_555
Na13 O5 2.628962 1_555
Na13 O47 2.764842 1_555
Na13 O56 2.947575 1_655
Na13 O60 2.979413 1_655
Na14 O72 2.395814 1_545
Na14 O76 2.441914 1_555
Na14 O114 2.455027 1_555
Na14 O116 2.624400 1_555
Na14 O0 2.632575 1_555
Na14 O42 2.849468 1_555
Na14 O62 2.992626 1_545
Na14 O58 2.992813 1_545
Na15 O73 2.383173 1_545
Na15 O77 2.395145 1_555
Na15 O115 2.491692 1_555
Na15 O1 2.609723 1_555
Na15 O117 2.649208 1_555
Na15 O43 2.850948 1_555
Na15 O63 2.960849 1_545
Na15 O59 3.008620 1_545
Na16 O74 2.359243 1_555
Na16 O73 2.415918 1_555
Na16 O116 2.482313 1_555
Na16 O2 2.602815 1_555
Na16 O118 2.608852 1_555
Na16 O44 2.803477 1_555
Na17 O75 2.406517 1_555
Na17 O72 2.438770 1_655
Na17 O117 2.460964 1_555
Na17 O3 2.617751 1_555
Na17 O119 2.641662 1_555
Na17 O45 2.803644 1_555
Na17 O65 2.928256 1_555
Na17 O55 2.998714 1_555
Na18 O75 2.476592 1_545
Na18 O76 2.492732 1_655
Na18 O72 2.566410 1_645
Na18 O85 2.658850 1_555
Na18 O86 2.720365 1_655
Na18 O89 2.728328 1_545
Na19 O74 2.370629 1_545
Na19 O77 2.425781 1_555
Na19 O73 2.520805 1_545
Na19 O84 2.688834 1_555
Na19 O88 2.724605 1_545
Na19 O87 2.785341 1_555
Na20 O83 2.402587 1_455
Na20 O80 2.408959 1_555
Na20 O78 2.481709 1_565
Na20 O91 2.790617 1_456
Na20 O93 2.804996 1_466
Na20 O94 2.814528 1_566
Na21 O82 2.358151 1_555
Na21 O81 2.425965 1_555
Na21 O79 2.514378 1_565
Na21 O90 2.722342 1_556
Na21 O92 2.733390 1_566
Na21 O95 2.777136 1_566
Na22 O100 2.258973 1_555
Na22 O98 2.619998 1_555
Na22 O110 2.632236 1_555
Na22 O96 2.634555 1_555
Na22 O108 2.649174 1_555
Na22 O112 2.806364 1_555
Na23 O101 2.277682 1_555
Na23 O99 2.516921 1_555
Na23 O97 2.560349 1_555
Na23 O111 2.739896 1_555
Na23 O109 2.757106 1_555
Na23 O113 2.800575 1_555
Na24 O104 2.242842 1_555
Na24 O106 2.516767 1_555
Na24 O102 2.549054 1_555
Na24 O118 2.734011 1_555
Na24 O114 2.745330 1_555
Na24 O116 2.837324 1_555
Na25 O107 2.482811 1_555
Na25 O103 2.520471 1_555
Na25 O105 2.536357 1_555
Na25 O119 2.685155 1_555
Na25 O117 2.699820 1_555
Na25 O115 2.717963 1_555
Na26 O124 2.577517 1_555
Na26 O122 2.584423 1_555
Na26 O120 2.590503 1_555
Na26 O134 2.669794 1_555
Na26 O132 2.694167 1_555
Na26 O136 2.697286 1_555
Na27 O137 2.552669 1_555
Na27 O135 2.561862 1_555
Na27 O121 2.611489 1_555
Na27 O133 2.620946 1_555
Na27 O125 2.680515 1_555
Na27 O123 2.727424 1_555
Na28 O138 2.543937 1_555
Na28 O128 2.588839 1_555
Na28 O142 2.602075 1_555
Na28 O140 2.607956 1_555
Na28 O130 2.668126 1_555
Na28 O126 2.708097 1_555
Na29 O143 2.509132 1_555
Na29 O141 2.527253 1_555
Na29 O139 2.595543 1_555
Na29 O127 2.644600 1_555
Na29 O129 2.692651 1_555
Na29 O131 2.755337 1_555
Nb0 O86 1.947723 1_565
Nb0 O16 1.954347 1_555
Nb0 O89 1.972438 1_455
Nb0 O85 1.995585 1_465
Nb0 O14 2.148566 1_565
Nb0 O13 2.149590 1_455
Nb1 O17 1.906489 1_555
Nb1 O88 1.951107 1_555
Nb1 O87 1.980613 1_565
Nb1 O84 2.051125 1_565
Nb1 O12 2.149334 1_555
Nb1 O15 2.170872 1_565
Nb2 O94 1.889445 1_565
Nb2 O91 1.891544 1_455
Nb2 O93 1.925383 1_465
Nb2 O22 2.152632 1_555
Nb2 O19 2.191950 1_455
Nb2 O20 2.220748 1_565
Nb3 O21 1.914136 1_555
Nb3 O92 1.923114 1_555
Nb3 O95 1.981613 1_555
Nb3 O90 2.032893 1_545
Nb3 O18 2.152919 1_545
Nb3 O23 2.246418 1_545
Nb4 O36 1.940882 1_556
Nb4 O38 1.950924 1_556
Nb4 O40 1.986346 1_556
Nb4 O108 2.078485 1_555
Nb4 O112 2.079321 1_555
Nb4 O110 2.105773 1_555
Nb5 O39 1.939771 1_556
Nb5 O41 1.971676 1_556
Nb5 O37 1.988816 1_556
Nb5 O111 2.063818 1_555
Nb5 O109 2.066797 1_555
Nb5 O113 2.080570 1_555
Nb6 O46 1.941873 1_555
Nb6 O42 1.951771 1_555
Nb6 O44 1.977674 1_555
Nb6 O118 2.079178 1_555
Nb6 O114 2.081663 1_555
Nb6 O116 2.098493 1_555
Nb7 O47 1.936839 1_555
Nb7 O43 1.964202 1_555
Nb7 O45 1.983861 1_555
Nb7 O115 2.061556 1_555
Nb7 O117 2.087148 1_555
Nb7 O119 2.094838 1_555
Nb8 O48 1.967778 1_554
Nb8 O124 1.971689 1_555
Nb8 O122 1.985468 1_555
Nb8 O120 1.986176 1_555
Nb8 O50 1.988998 1_554
Nb8 O52 1.998775 1_554
Nb9 O49 1.918724 1_554
Nb9 O53 1.979085 1_554
Nb9 O125 1.987287 1_555
Nb9 O51 1.995299 1_554
Nb9 O121 2.013747 1_555
Nb9 O123 2.024483 1_555
Nb10 O54 1.951266 1_555
Nb10 O128 1.952025 1_555
Nb10 O56 1.976450 1_555
Nb10 O130 1.978869 1_555
Nb10 O58 2.021794 1_555
Nb10 O126 2.028141 1_555
Nb11 O55 1.933499 1_555
Nb11 O129 1.979977 1_555
Nb11 O57 1.981702 1_555
Nb11 O59 1.989386 1_555
Nb11 O127 2.017292 1_555
Nb11 O131 2.026311 1_555
Nb12 O62 1.906553 1_555
Nb12 O64 1.911992 1_555
Nb12 O60 1.915160 1_555
Nb12 O134 2.161087 1_555
Nb12 O136 2.163531 1_555
Nb12 O132 2.167307 1_555
Nb13 O61 1.919235 1_555
Nb13 O65 1.929823 1_555
Nb13 O137 1.937130 1_555
Nb13 O63 2.008604 1_555
Nb13 O133 2.200631 1_555
Nb13 O135 2.221260 1_555
Nb14 O66 1.886089 1_555
Nb14 O68 1.926170 1_555
Nb14 O70 1.959292 1_555
Nb14 O140 1.999425 1_555
Nb14 O138 2.221926 1_555
Nb14 O142 2.269979 1_555
Nb15 O67 1.910050 1_555
Nb15 O69 1.921535 1_555
Nb15 O141 1.956063 1_555
Nb15 O71 1.999795 1_555
Nb15 O139 2.216824 1_555
Nb15 O143 2.224604 1_555
O0 S0 1.477590 1_545
O0 Zn0 2.124009 1_445
O1 S1 1.473691 1_555
O1 Zn1 2.181629 1_555
O2 S2 1.470772 1_555
O2 Zn1 2.168549 1_565
O3 S3 1.481639 1_555
O3 Zn0 2.101473 1_555
O4 Si0 1.601410 1_555
O4 Zn1 1.936731 1_555
O5 S4 1.479749 1_655
O5 Zn0 2.138265 1_545
O6 S5 1.472771 1_555
O6 Zn2 2.208048 1_445
O7 S6 1.470190 1_555
O7 Zn3 2.183781 1_545
O8 Si2 1.597550 1_555
O8 Zn3 1.938990 1_555
O9 Si1 1.601271 1_555
O9 Zn2 1.942252 1_555
O10 S7 1.468102 1_545
O10 Zn3 2.180420 1_545
O11 S8 1.473830 1_545
O11 Zn2 2.148587 1_545
O12 S7 1.512090 1_555
O13 S8 1.517878 1_555
O14 S5 1.512471 1_555
O15 S6 1.531010 1_555
O16 Si1 1.725519 1_455
O17 Si2 1.734152 1_555
O18 S2 1.511603 1_555
O19 S3 1.503344 1_555
O20 S4 1.494965 1_555
O21 Si0 1.723827 1_555
O22 S0 1.504921 1_555
O23 S1 1.514546 1_565
O24 Si3 1.573322 1_555
O24 Zn4 1.950892 1_555
O25 Si4 1.573685 1_555
O25 Zn5 1.967082 1_555
O26 Si5 1.581624 1_555
O26 Zn4 2.093559 1_555
O27 Si6 1.562129 1_555
O27 Zn5 2.013665 1_555
O28 Si7 1.561983 1_555
O28 Zn4 1.945927 1_555
O29 Si8 1.572211 1_555
O29 Zn5 2.001778 1_555
O30 Si9 1.572824 1_555
O30 Zn6 1.969630 1_555
O31 Si10 1.569459 1_555
O31 Zn7 1.914113 1_555
O32 Si11 1.560706 1_555
O32 Zn6 1.952122 1_555
O33 Si12 1.580485 1_555
O33 Zn7 1.949760 1_555
O34 Si13 1.566146 1_555
O34 Zn6 1.997898 1_555
O35 Si14 1.567054 1_555
O35 Zn7 1.930728 1_555
O36 Si13 1.693299 1_555
O37 Si14 1.679858 1_555
O38 Si9 1.684231 1_555
O39 Si10 1.682194 1_555
O40 Si11 1.685606 1_555
O41 Si12 1.674911 1_555
O42 Si5 1.681580 1_555
O43 Si6 1.693303 1_555
O44 Si7 1.686444 1_555
O45 Si8 1.689160 1_555
O46 Si3 1.688502 1_555
O47 Si4 1.696602 1_555
O48 Si15 1.623284 1_555
O49 Si16 1.649042 1_555
O50 Si17 1.612840 1_555
O51 Si18 1.637527 1_555
O52 Si19 1.616875 1_555
O53 Si20 1.635420 1_555
O54 Si21 1.625322 1_555
O55 Si22 1.649737 1_555
O56 Si23 1.627457 1_555
O57 Si24 1.637823 1_555
O58 Si25 1.622689 1_555
O59 Si26 1.640271 1_555
O60 Si25 1.683724 1_555
O61 Si26 1.668391 1_555
O62 Si21 1.684045 1_555
O63 Si22 1.639326 1_555
O64 Si23 1.684892 1_555
O65 Si24 1.668839 1_555
O66 Si17 1.691787 1_555
O67 Si18 1.675370 1_555
O68 Si19 1.697431 1_555
O69 Si20 1.672009 1_555
O70 Si15 1.672436 1_555
O71 Si16 1.648106 1_555
O72 Si25 1.606026 1_555
O72 Zn0 2.088759 1_455
O73 Si26 1.603821 1_555
O73 Zn1 2.172101 1_565
O74 Si21 1.597674 1_555
O74 Zn1 2.148830 1_565
O75 Si22 1.610233 1_555
O75 Zn0 2.094995 1_555
O76 Si23 1.605454 1_555
O76 Zn0 2.090688 1_445
O77 Si24 1.601692 1_555
O77 Zn1 2.135686 1_555
O78 Si17 1.601067 1_555
O78 Zn2 2.144571 1_445
O79 Si18 1.604789 1_555
O79 Zn3 2.160172 1_545
O80 Si19 1.603283 1_555
O80 Zn2 2.138661 1_455
O81 Si20 1.601333 1_555
O81 Zn3 2.124340 1_555
O82 Si15 1.606299 1_555
O82 Zn3 2.114220 1_555
O83 Si16 1.604360 1_555
O83 Zn2 2.103160 1_555
O84 Si3 1.647123 1_555
O85 Si4 1.645171 1_555
O86 Si5 1.697514 1_555
O87 Si6 1.706863 1_555
O88 Si7 1.696662 1_555
O89 Si8 1.665125 1_555
O90 Si9 1.651373 1_555
O91 Si10 1.701428 1_555
O92 Si11 1.715598 1_555
O93 Si12 1.665846 1_555
O94 Si13 1.712101 1_555
O95 Si14 1.700965 1_555
O96 S7 1.464826 1_545
O96 Zn4 2.414832 1_555
O97 S8 1.455965 1_545
O97 Zn5 2.359087 1_555
O98 S5 1.466679 1_555
O98 Zn4 2.416691 1_555
O99 S6 1.452538 1_555
O99 Zn5 2.376693 1_555
O100 Si2 1.594430 1_555
O100 Zn4 2.046112 1_555
O101 Si1 1.590461 1_555
O101 Zn5 2.053901 1_555
O102 S2 1.456245 1_555
O102 Zn6 2.381918 1_555
O103 S3 1.463948 1_555
O103 Zn7 2.420911 1_555
O104 Si0 1.591490 1_555
O104 Zn6 2.076725 1_555
O105 S4 1.463001 1_655
O105 Zn7 2.413446 1_555
O106 S0 1.452318 1_545
O106 Zn6 2.419324 1_555
O107 S1 1.464796 1_555
O107 Zn7 2.411710 1_555
O108 Si15 1.656097 1_555
O109 Si16 1.651658 1_555
O110 Si18 1.642995 1_555
O111 Si17 1.646885 1_655
O112 Si19 1.648131 1_545
O113 Si20 1.643408 1_545
O114 Si21 1.645392 1_545
O115 Si22 1.653981 1_545
O116 Si23 1.641880 1_555
O117 Si24 1.648953 1_555
O118 Si26 1.647055 1_555
O119 Si25 1.647388 1_655
O120 Si13 1.637111 1_555
O121 Si14 1.640430 1_555
O122 Si10 1.626151 1_455
O123 Si9 1.664734 1_555
O124 Si11 1.620817 1_565
O125 Si12 1.651083 1_565
O126 Si5 1.652967 1_565
O127 Si6 1.646190 1_565
O128 Si7 1.630776 1_555
O129 Si8 1.640841 1_555
O130 Si4 1.653699 1_455
O131 Si3 1.662934 1_555
O132 S0 1.538857 1_555
O133 S1 1.527148 1_565
O134 S2 1.541936 1_555
O135 S3 1.522256 1_555
O136 S4 1.540173 1_555
O137 Si0 1.732431 1_555
O138 S5 1.508196 1_555
O139 S6 1.522119 1_555
O140 Si1 1.739684 1_455
O141 Si2 1.718208 1_555
O142 S7 1.525850 1_555
O143 S8 1.523639 1_555
