# generated using pymatgen
data_Hf2In2SiS5O24
_symmetry_space_group_name_H-M   'P 1'
_cell_length_a   8.88170200
_cell_length_b   8.96754113
_cell_length_c   23.20402610
_cell_angle_alpha   90.27102502
_cell_angle_beta   89.84766458
_cell_angle_gamma   119.73013961
_symmetry_Int_Tables_number   1
_chemical_formula_structural   Hf2In2SiS5O24
_chemical_formula_sum   'Hf6 In6 Si3 S15 O72'
_cell_volume   1604.84549528
_cell_formula_units_Z   3
loop_
 _symmetry_equiv_pos_site_id
 _symmetry_equiv_pos_as_xyz
  1  'x, y, z'
loop_
 _atom_site_type_symbol
 _atom_site_label
 _atom_site_symmetry_multiplicity
 _atom_site_fract_x
 _atom_site_fract_y
 _atom_site_fract_z
 _atom_site_occupancy
  Hf  Hf0  1  0.99744324  0.00569048  0.64302613  1
  Hf  Hf1  1  0.00778375  0.00763255  0.14408044  1
  Hf  Hf2  1  0.67450536  0.32314625  0.47682912  1
  Hf  Hf3  1  0.33496653  0.65984090  0.02201680  1
  Hf  Hf4  1  0.33728681  0.66809557  0.52190939  1
  Hf  Hf5  1  0.34040071  0.67427301  0.31286020  1
  In  In0  1  0.99485801  0.00174759  0.35585618  1
  In  In1  1  0.00273289  0.00118633  0.85411522  1
  In  In2  1  0.67463440  0.33656391  0.68587855  1
  In  In3  1  0.66136698  0.33501640  0.18494333  1
  In  In4  1  0.65870653  0.33061076  0.98065144  1
  In  In5  1  0.33103328  0.66562928  0.81174618  1
  Si  Si0  1  0.95791690  0.33742564  0.58415065  1
  Si  Si1  1  0.38066028  0.33405176  0.08325877  1
  Si  Si2  1  0.62312166  0.95378107  0.41704085  1
  S  S0  1  0.28660297  0.99789908  0.25126845  1
  S  S1  1  0.71249944  0.70949578  0.25005607  1
  S  S2  1  0.99801157  0.29144695  0.24930208  1
  S  S3  1  0.29136522  0.28922680  0.74952607  1
  S  S4  1  0.99909139  0.71149488  0.75029592  1
  S  S5  1  0.70924083  0.99874579  0.75085393  1
  S  S6  1  0.37688384  0.04427146  0.58335915  1
  S  S7  1  0.66650717  0.62152680  0.58375732  1
  S  S8  1  0.96016319  0.62666607  0.08338453  1
  S  S9  1  0.66688311  0.04010938  0.08303190  1
  S  S10  1  0.62478808  0.66837186  0.91552770  1
  S  S11  1  0.04121655  0.37671428  0.91683288  1
  S  S12  1  0.33407348  0.95521729  0.91619079  1
  S  S13  1  0.33614051  0.38231368  0.41657934  1
  S  S14  1  0.04739533  0.66682682  0.41649676  1
  O  O0  1  0.20831941  0.02715953  0.30300038  1
  O  O1  1  0.81798278  0.78800086  0.30174731  1
  O  O2  1  0.96809927  0.18591977  0.30073270  1
  O  O3  1  0.21708407  0.18624207  0.80237011  1
  O  O4  1  0.97345098  0.78933487  0.80361581  1
  O  O5  1  0.81605105  0.02843487  0.80320333  1
  O  O6  1  0.79906506  0.97522729  0.69962322  1
  O  O7  1  0.17793479  0.19981110  0.69874146  1
  O  O8  1  0.02338384  0.82117148  0.69943046  1
  O  O9  1  0.79090566  0.81837048  0.19863889  1
  O  O10  1  0.02522888  0.20493439  0.19784199  1
  O  O11  1  0.17551745  0.97177540  0.19970426  1
  O  O12  1  0.88243641  0.37487401  0.64162492  1
  O  O13  1  0.47977835  0.11449259  0.63593716  1
  O  O14  1  0.62811002  0.51721513  0.63598984  1
  O  O15  1  0.89312116  0.51783334  0.13474702  1
  O  O16  1  0.63189665  0.11171909  0.13513314  1
  O  O17  1  0.49386429  0.37685341  0.14102816  1
  O  O18  1  0.45103978  0.28952515  0.02577183  1
  O  O19  1  0.85320585  0.55412656  0.03168738  1
  O  O20  1  0.70947044  0.14960201  0.03199336  1
  O  O21  1  0.45487685  0.15700723  0.53272363  1
  O  O22  1  0.69548213  0.54218796  0.53247099  1
  O  O23  1  0.83174789  0.30302823  0.52806046  1
  O  O24  1  0.53502086  0.69137449  0.96692675  1
  O  O25  1  0.15435093  0.46594897  0.96776815  1
  O  O26  1  0.31018680  0.84600341  0.96719084  1
  O  O27  1  0.52246002  0.83353436  0.47171239  1
  O  O28  1  0.30495327  0.46251362  0.46781007  1
  O  O29  1  0.15415173  0.68838743  0.46779151  1
  O  O30  1  0.12514063  0.63292955  0.36423226  1
  O  O31  1  0.49814164  0.85809454  0.35992423  1
  O  O32  1  0.35854812  0.48911353  0.36426158  1
  O  O33  1  0.11617621  0.48060377  0.86437596  1
  O  O34  1  0.35972483  0.87679027  0.86315517  1
  O  O35  1  0.51696029  0.63832558  0.86353965  1
  O  O36  1  0.03518251  0.82200352  0.40896686  1
  O  O37  1  0.81151612  0.97482394  0.41053719  1
  O  O38  1  0.18637620  0.21049249  0.40886173  1
  O  O39  1  0.02896113  0.20691294  0.91140285  1
  O  O40  1  0.17563721  0.97066973  0.91121784  1
  O  O41  1  0.79390465  0.82782056  0.91096691  1
  O  O42  1  0.97680442  0.16510458  0.59521821  1
  O  O43  1  0.20035292  0.02184281  0.59254619  1
  O  O44  1  0.82298013  0.79422076  0.59345041  1
  O  O45  1  0.97769951  0.79824455  0.09491524  1
  O  O46  1  0.81642654  0.01207946  0.09425144  1
  O  O47  1  0.18646328  0.16793584  0.09639870  1
  O  O48  1  0.68579535  0.14800360  0.74357849  1
  O  O49  1  0.46421214  0.30842574  0.74039798  1
  O  O50  1  0.84374976  0.54154772  0.74476720  1
  O  O51  1  0.69336554  0.53811821  0.24359234  1
  O  O52  1  0.84543392  0.31189478  0.23921546  1
  O  O53  1  0.46137358  0.14377766  0.24343572  1
  O  O54  1  0.64762412  0.51872983  0.92307137  1
  O  O55  1  0.86864673  0.35810753  0.92649455  1
  O  O56  1  0.48992644  0.12508686  0.92198494  1
  O  O57  1  0.63036995  0.13895204  0.42509095  1
  O  O58  1  0.49504302  0.37280419  0.42561136  1
  O  O59  1  0.87265901  0.51497925  0.42461288  1
  O  O60  1  0.35146422  0.49913380  0.07026106  1
  O  O61  1  0.13789674  0.65505534  0.07217352  1
  O  O62  1  0.51303635  0.86851735  0.07192351  1
  O  O63  1  0.35415185  0.87179896  0.57277095  1
  O  O64  1  0.51694749  0.64867277  0.57420436  1
  O  O65  1  0.14716194  0.49766708  0.56929101  1
  O  O66  1  0.29554068  0.83643145  0.25795151  1
  O  O67  1  0.53519909  0.69012514  0.25819410  1
  O  O68  1  0.15453081  0.46185784  0.25694287  1
  O  O69  1  0.30361440  0.45915090  0.75524462  1
  O  O70  1  0.15780976  0.69638834  0.75547278  1
  O  O71  1  0.53999415  0.83913772  0.75565037  1
loop_
_geom_bond_atom_site_label_1
_geom_bond_atom_site_label_2
_geom_bond_distance
_geom_bond_site_symmetry_2
Hf0 O42 1.893103 1_555
Hf0 O43 2.091016 1_655
Hf0 O44 2.096409 1_545
Hf0 O6 2.101772 1_545
Hf0 O7 2.119782 1_655
Hf0 O8 2.214552 1_645
Hf1 O47 1.884713 1_555
Hf1 O46 2.074883 1_455
Hf1 O45 2.093410 1_445
Hf1 O10 2.102126 1_555
Hf1 O11 2.116117 1_545
Hf1 O9 2.226763 1_445
Hf2 O23 1.912309 1_555
Hf2 O57 1.914374 1_555
Hf2 O59 2.128450 1_555
Hf2 O21 2.197567 1_555
Hf2 O58 2.206904 1_555
Hf2 O22 2.274718 1_555
Hf3 O60 1.891335 1_555
Hf3 O61 2.082091 1_555
Hf3 O24 2.089053 1_554
Hf3 O62 2.097146 1_555
Hf3 O25 2.098738 1_554
Hf3 O26 2.199965 1_554
Hf4 O65 1.960194 1_555
Hf4 O27 1.961812 1_555
Hf4 O64 2.082546 1_555
Hf4 O63 2.112190 1_555
Hf4 O28 2.124136 1_555
Hf4 O29 2.135950 1_555
Hf5 O31 1.890311 1_555
Hf5 O67 2.090148 1_555
Hf5 O32 2.119143 1_555
Hf5 O66 2.119329 1_555
Hf5 O30 2.121958 1_555
Hf5 O68 2.215023 1_555
In0 O37 1.980356 1_545
In0 O0 2.170797 1_655
In0 O1 2.172437 1_545
In0 O38 2.177496 1_655
In0 O2 2.197987 1_555
In0 O36 2.199738 1_645
In1 O4 2.130829 1_445
In1 O5 2.149290 1_455
In1 O40 2.149405 1_545
In1 O3 2.166382 1_555
In1 O41 2.178020 1_445
In1 O39 2.185640 1_555
In2 O12 1.985754 1_555
In2 O49 2.163240 1_555
In2 O50 2.179667 1_555
In2 O14 2.195323 1_555
In2 O48 2.202270 1_555
In2 O13 2.207801 1_555
In3 O17 1.989393 1_555
In3 O52 2.156662 1_555
In3 O51 2.171459 1_555
In3 O16 2.207705 1_555
In3 O53 2.219509 1_555
In3 O15 2.222520 1_555
In4 O18 1.988269 1_556
In4 O55 2.156681 1_555
In4 O56 2.178066 1_555
In4 O54 2.197133 1_555
In4 O19 2.226736 1_556
In4 O20 2.237049 1_556
In5 O34 2.138991 1_555
In5 O70 2.140831 1_555
In5 O35 2.155372 1_555
In5 O71 2.168387 1_555
In5 O69 2.176724 1_555
In5 O33 2.179990 1_555
O0 S0 1.471987 1_545
O1 S1 1.468274 1_555
O2 S2 1.466268 1_555
O3 S3 1.481150 1_555
O4 S4 1.489249 1_555
O5 S5 1.482880 1_545
O6 S5 1.501189 1_555
O7 S3 1.497569 1_555
O8 S4 1.485297 1_455
O9 S1 1.481178 1_555
O10 S2 1.503944 1_455
O11 S0 1.494758 1_555
O12 Si0 1.598464 1_555
O13 S6 1.465621 1_555
O14 S7 1.467104 1_555
O15 S8 1.469126 1_555
O16 S9 1.469383 1_555
O17 Si1 1.604578 1_555
O18 Si1 1.602380 1_555
O19 S8 1.466408 1_555
O20 S9 1.466282 1_555
O21 S6 1.481459 1_555
O22 S7 1.469899 1_555
O23 Si0 1.644978 1_555
O24 S10 1.502131 1_555
O25 S11 1.498924 1_555
O26 S12 1.485999 1_555
O27 Si2 1.619306 1_555
O28 S13 1.481508 1_555
O29 S14 1.474823 1_555
O30 S14 1.496731 1_555
O31 Si2 1.666534 1_555
O32 S13 1.500426 1_555
O33 S11 1.477845 1_555
O34 S12 1.486691 1_555
O35 S10 1.480590 1_555
O36 S14 1.459735 1_555
O37 Si2 1.594976 1_555
O38 S13 1.463343 1_555
O39 S11 1.476553 1_555
O40 S12 1.485631 1_555
O41 S10 1.477246 1_555
O42 Si0 1.656239 1_555
O43 S6 1.493334 1_555
O44 S7 1.497999 1_555
O45 S8 1.490600 1_555
O46 S9 1.492870 1_555
O47 Si1 1.655324 1_555
O48 S5 1.463607 1_545
O49 S3 1.472323 1_555
O50 S4 1.468408 1_555
O51 S1 1.467022 1_555
O52 S2 1.474240 1_555
O53 S0 1.463070 1_545
O54 S10 1.464544 1_555
O55 S11 1.473834 1_655
O56 S12 1.470484 1_545
O57 Si2 1.639358 1_545
O58 S13 1.471103 1_555
O59 S14 1.484283 1_655
O60 Si1 1.653817 1_555
O61 S8 1.491388 1_455
O62 S9 1.487961 1_565
O63 S6 1.476556 1_565
O64 S7 1.481787 1_555
O65 Si0 1.617088 1_455
O66 S0 1.497716 1_555
O67 S1 1.507656 1_555
O68 S2 1.480194 1_455
O69 S3 1.478226 1_555
O70 S4 1.486764 1_455
O71 S5 1.478941 1_555
