# generated using pymatgen
data_Rb8Mg(FeO4)2
_symmetry_space_group_name_H-M   'P 1'
_cell_length_a   6.92061323
_cell_length_b   7.22327811
_cell_length_c   9.46199755
_cell_angle_alpha   75.34601463
_cell_angle_beta   80.59847424
_cell_angle_gamma   63.02551829
_symmetry_Int_Tables_number   1
_chemical_formula_structural   Rb8Mg(FeO4)2
_chemical_formula_sum   'Rb8 Mg1 Fe2 O8'
_cell_volume   407.18159403
_cell_formula_units_Z   1
loop_
 _symmetry_equiv_pos_site_id
 _symmetry_equiv_pos_as_xyz
  1  'x, y, z'
loop_
 _atom_site_type_symbol
 _atom_site_label
 _atom_site_symmetry_multiplicity
 _atom_site_fract_x
 _atom_site_fract_y
 _atom_site_fract_z
 _atom_site_occupancy
  Rb  Rb0  1  0.19474940  0.74332248  0.09648262  1
  Rb  Rb1  1  0.27842575  0.47371278  0.46707196  1
  Rb  Rb2  1  0.22558270  0.47582813  0.84787386  1
  Rb  Rb3  1  0.20493882  0.96745162  0.62048864  1
  Rb  Rb4  1  0.79506118  0.03254838  0.37951136  1
  Rb  Rb5  1  0.77441730  0.52417187  0.15212614  1
  Rb  Rb6  1  0.72157425  0.52628722  0.53292804  1
  Rb  Rb7  1  0.80525060  0.25667752  0.90351738  1
  Mg  Mg0  1  0.50000000  -0.00000000  -0.00000000  1
  Fe  Fe0  1  0.28179271  0.11750984  0.24113121  1
  Fe  Fe1  1  0.71820729  0.88249016  0.75886879  1
  O  O0  1  0.16895226  0.14121076  0.05810855  1
  O  O1  1  0.07199265  0.28999272  0.36593500  1
  O  O2  1  0.51075525  0.19286067  0.13323453  1
  O  O3  1  0.59339886  0.18079520  0.67289305  1
  O  O4  1  0.40660114  0.81920480  0.32710695  1
  O  O5  1  0.48924475  0.80713933  0.86676547  1
  O  O6  1  0.92800735  0.71000728  0.63406500  1
  O  O7  1  0.83104774  0.85878924  0.94189145  1
loop_
_geom_bond_atom_site_label_1
_geom_bond_atom_site_label_2
_geom_bond_distance
_geom_bond_site_symmetry_2
Mg0 O7 2.084193 1_544
Mg0 O0 2.084193 1_555
Mg0 O5 2.132793 1_544
Mg0 O2 2.132793 1_555
Fe0 O1 1.896857 1_555
Fe0 O4 1.924839 1_545
Fe0 O0 1.951585 1_555
Fe0 O2 1.955017 1_555
Fe1 O6 1.896857 1_555
Fe1 O3 1.924839 1_565
Fe1 O7 1.951585 1_555
Fe1 O5 1.955017 1_555
O0 Rb0 2.729764 1_545
O0 Rb7 2.802111 1_454
O0 Rb2 2.850384 1_554
O0 Rb5 3.081915 1_455
O1 Rb1 2.743540 1_555
O1 Rb6 2.765622 1_455
O1 Rb5 2.768515 1_455
O1 Rb3 2.831245 1_545
O1 Rb4 3.190546 1_455
O2 Rb7 2.826450 1_554
O2 Rb4 2.950951 1_555
O3 Rb1 2.852892 1_555
O3 Rb6 2.953124 1_555
O3 Rb2 3.041307 1_555
O3 Rb7 3.096986 1_555
O3 Rb4 3.111755 1_555
O4 Rb6 2.852892 1_555
O4 Rb1 2.953124 1_555
O4 Rb5 3.041307 1_555
O4 Rb0 3.096986 1_555
O4 Rb3 3.111755 1_555
O5 Rb0 2.826450 1_556
O5 Rb3 2.950951 1_555
O6 Rb6 2.743540 1_555
O6 Rb1 2.765622 1_655
O6 Rb2 2.768515 1_655
O6 Rb4 2.831245 1_565
O6 Rb3 3.190546 1_655
O7 Rb7 2.729764 1_565
O7 Rb0 2.802111 1_656
O7 Rb5 2.850384 1_556
O7 Rb2 3.081915 1_655
