# generated using pymatgen
data_V3Se4
_symmetry_space_group_name_H-M   'P 1'
_cell_length_a   3.42422436
_cell_length_b   6.16600997
_cell_length_c   6.92489431
_cell_angle_alpha   114.96773444
_cell_angle_beta   104.31429584
_cell_angle_gamma   89.99999120
_symmetry_Int_Tables_number   1
_chemical_formula_structural   V3Se4
_chemical_formula_sum   'V3 Se4'
_cell_volume   127.52209581
_cell_formula_units_Z   1
loop_
 _symmetry_equiv_pos_site_id
 _symmetry_equiv_pos_as_xyz
  1  'x, y, z'
loop_
 _atom_site_type_symbol
 _atom_site_label
 _atom_site_symmetry_multiplicity
 _atom_site_fract_x
 _atom_site_fract_y
 _atom_site_fract_z
 _atom_site_occupancy
  V  V0  1  0.25516875  0.32320560  0.51033750  1
  V  V1  1  0.74483125  0.67679440  0.48966250  1
  V  V2  1  -0.00000000  -0.00000000  -0.00000000  1
  Se  Se0  1  0.64178799  0.98319749  0.28357399  1
  Se  Se1  1  0.35821201  0.01680251  0.71642601  1
  Se  Se2  1  0.10922961  0.45497678  0.21845723  1
  Se  Se3  1  0.89077039  0.54502322  0.78154277  1
loop_
_geom_bond_atom_site_label_1
_geom_bond_atom_site_label_2
_geom_bond_distance
_geom_bond_site_symmetry_2
Se0 V2 2.595050 1_665
Se0 V2 2.595053 1_565
Se0 V0 2.619630 1_665
Se0 V0 2.619636 1_565
Se0 V1 2.785294 1_555
Se1 V2 2.595050 1_556
Se1 V2 2.595053 1_656
Se1 V1 2.619630 1_445
Se1 V1 2.619636 1_545
Se1 V0 2.785294 1_555
Se2 V0 2.425337 1_555
Se2 V1 2.438238 1_555
Se2 V1 2.438244 1_455
Se2 V2 2.536935 1_555
Se3 V1 2.425337 1_555
Se3 V0 2.438238 1_555
Se3 V0 2.438244 1_655
Se3 V2 2.536935 1_666
