# generated using pymatgen
data_Tb(MnSn)6
_symmetry_space_group_name_H-M   'P 1'
_cell_length_a   5.69307926
_cell_length_b   5.69306756
_cell_length_c   9.17065744
_cell_angle_alpha   90.00000000
_cell_angle_beta   90.00000000
_cell_angle_gamma   119.99816432
_symmetry_Int_Tables_number   1
_chemical_formula_structural   Tb(MnSn)6
_chemical_formula_sum   'Tb1 Mn6 Sn6'
_cell_volume   257.41432035
_cell_formula_units_Z   1
loop_
 _symmetry_equiv_pos_site_id
 _symmetry_equiv_pos_as_xyz
  1  'x, y, z'
loop_
 _atom_site_type_symbol
 _atom_site_label
 _atom_site_symmetry_multiplicity
 _atom_site_fract_x
 _atom_site_fract_y
 _atom_site_fract_z
 _atom_site_occupancy
  Tb  Tb0  1  0.00000000  0.00000000  0.00000000  1
  Mn  Mn0  1  0.50000000  0.00000000  0.75319933  1
  Mn  Mn1  1  0.50000000  0.50000000  0.75319899  1
  Mn  Mn2  1  0.00000000  0.50000000  0.75320009  1
  Mn  Mn3  1  0.50000000  0.00000000  0.24680067  1
  Mn  Mn4  1  0.50000000  0.50000000  0.24680101  1
  Mn  Mn5  1  0.00000000  0.50000000  0.24679991  1
  Sn  Sn0  1  0.33333600  0.66666771  0.00000000  1
  Sn  Sn1  1  0.66666400  0.33333229  0.00000000  1
  Sn  Sn2  1  0.33333419  0.66666806  0.50000000  1
  Sn  Sn3  1  0.66666581  0.33333194  0.50000000  1
  Sn  Sn4  1  0.00000000  0.00000000  0.66403853  1
  Sn  Sn5  1  0.00000000  0.00000000  0.33596147  1
loop_
_geom_bond_atom_site_label_1
_geom_bond_atom_site_label_2
_geom_bond_distance
_geom_bond_site_symmetry_2
Mn0 Sn0 2.797077 1_546
Mn0 Sn1 2.797077 1_556
Mn0 Sn2 2.844767 1_545
Mn0 Sn3 2.844767 1_555
Mn0 Mn1 2.846534 1_555
Mn0 Mn1 2.846534 1_545
Mn0 Mn2 2.846616 1_655
Mn0 Mn2 2.846616 1_545
Mn0 Sn4 2.961648 1_555
Mn0 Sn4 2.961648 1_655
Mn1 Sn1 2.797052 1_556
Mn1 Sn0 2.797052 1_556
Mn1 Sn2 2.844745 1_555
Mn1 Sn3 2.844745 1_555
Mn1 Mn2 2.846540 1_555
Mn1 Mn2 2.846540 1_655
Mn1 Sn4 2.961721 1_555
Mn1 Sn4 2.961721 1_665
Mn2 Sn0 2.797084 1_556
Mn2 Sn1 2.797084 1_456
Mn2 Sn2 2.844781 1_555
Mn2 Sn3 2.844781 1_455
Mn2 Sn4 2.961645 1_555
Mn2 Sn4 2.961645 1_565
Mn3 Sn1 2.797077 1_555
Mn3 Sn0 2.797077 1_545
Mn3 Sn3 2.844767 1_555
Mn3 Sn2 2.844767 1_545
Mn3 Mn4 2.846534 1_545
Mn3 Mn4 2.846534 1_555
Mn3 Mn5 2.846616 1_545
Mn3 Mn5 2.846616 1_655
Mn3 Sn5 2.961648 1_555
Mn3 Sn5 2.961648 1_655
Mn4 Sn1 2.797052 1_555
Mn4 Sn0 2.797052 1_555
Mn4 Sn2 2.844745 1_555
Mn4 Sn3 2.844745 1_555
Mn4 Mn5 2.846540 1_555
Mn4 Mn5 2.846540 1_655
Mn4 Sn5 2.961721 1_665
Mn4 Sn5 2.961721 1_555
Mn5 Sn0 2.797084 1_555
Mn5 Sn1 2.797084 1_455
Mn5 Sn2 2.844781 1_555
Mn5 Sn3 2.844781 1_455
Mn5 Sn5 2.961645 1_555
Mn5 Sn5 2.961645 1_565
Sn0 Sn1 3.286851 1_555
Sn0 Tb0 3.286875 1_565
Sn0 Sn1 3.286945 1_565
Sn0 Tb0 3.286948 1_665
Sn0 Tb0 3.286960 1_555
Sn0 Sn1 3.286988 1_455
Sn1 Tb0 3.286875 1_655
Sn1 Tb0 3.286948 1_555
Sn1 Tb0 3.286960 1_665
Sn2 Sn3 3.286872 1_555
Sn2 Sn3 3.286941 1_565
Sn2 Sn3 3.286970 1_455
Sn4 Sn5 3.008682 1_555
Sn4 Tb0 3.080988 1_556
Sn5 Tb0 3.080988 1_555
