# generated using pymatgen
data_Na6TaAl3Si2(PO6)4
_symmetry_space_group_name_H-M   'P 1'
_cell_length_a   8.72204360
_cell_length_b   8.74228364
_cell_length_c   21.66613207
_cell_angle_alpha   89.90985046
_cell_angle_beta   89.86861089
_cell_angle_gamma   119.78240840
_symmetry_Int_Tables_number   1
_chemical_formula_structural   Na6TaAl3Si2(PO6)4
_chemical_formula_sum   'Na18 Ta3 Al9 Si6 P12 O72'
_cell_volume   1433.83759862
_cell_formula_units_Z   3
loop_
 _symmetry_equiv_pos_site_id
 _symmetry_equiv_pos_as_xyz
  1  'x, y, z'
loop_
 _atom_site_type_symbol
 _atom_site_label
 _atom_site_symmetry_multiplicity
 _atom_site_fract_x
 _atom_site_fract_y
 _atom_site_fract_z
 _atom_site_occupancy
  Na  Na0  1  0.99905441  0.98727825  0.50293277  1
  Na  Na1  1  0.97340208  0.98866163  0.99644485  1
  Na  Na2  1  0.66242519  0.33600591  0.82658959  1
  Na  Na3  1  0.66258379  0.34058945  0.32823110  1
  Na  Na4  1  0.33574387  0.65813830  0.16228282  1
  Na  Na5  1  0.33007067  0.66434522  0.66177113  1
  Na  Na6  1  0.63822800  0.00685919  0.24431765  1
  Na  Na7  1  0.99784489  0.35857753  0.74467331  1
  Na  Na8  1  0.36337614  0.00373204  0.74935396  1
  Na  Na9  1  0.29943686  0.33288697  0.58867595  1
  Na  Na10  1  0.66780765  0.96664308  0.58510639  1
  Na  Na11  1  0.29363739  0.96347132  0.08507380  1
  Na  Na12  1  0.03361480  0.33463464  0.08249363  1
  Na  Na13  1  0.97280441  0.67609107  0.91279121  1
  Na  Na14  1  0.32790283  0.29523251  0.91163781  1
  Na  Na15  1  0.96214309  0.29518489  0.41768693  1
  Na  Na16  1  0.33578791  0.03716739  0.41342700  1
  Na  Na17  1  0.70059997  0.67136890  0.41942366  1
  Ta  Ta0  1  0.66775265  0.33167015  0.97875475  1
  Ta  Ta1  1  0.33181403  0.67061125  0.30918612  1
  Ta  Ta2  1  0.33987289  0.66412290  0.81057010  1
  Al  Al0  1  0.99775225  0.99874930  0.35072278  1
  Al  Al1  1  0.00279663  0.00325314  0.85467240  1
  Al  Al2  1  0.00109736  0.99725888  0.64622065  1
  Al  Al3  1  0.99778102  0.99462150  0.14813610  1
  Al  Al4  1  0.66539202  0.33808884  0.68490827  1
  Al  Al5  1  0.66161316  0.33642819  0.18905055  1
  Al  Al6  1  0.66483682  0.33182333  0.48281830  1
  Al  Al7  1  0.33866566  0.66621324  0.01882729  1
  Al  Al8  1  0.33585483  0.67055082  0.52072985  1
  Si  Si0  1  0.28644702  0.01491515  0.24887038  1
  Si  Si1  1  0.28961077  0.28075458  0.74608945  1
  Si  Si2  1  0.62857184  0.68285199  0.92042005  1
  Si  Si3  1  0.04932535  0.37384451  0.91943892  1
  Si  Si4  1  0.32912978  0.94808635  0.91950196  1
  Si  Si5  1  0.62950596  0.96134512  0.42033330  1
  P  P0  1  0.72429791  0.71141260  0.25030734  1
  P  P1  1  0.99672616  0.28218629  0.24815820  1
  P  P2  1  0.98971493  0.71192251  0.74813335  1
  P  P3  1  0.72233664  0.00340255  0.74584891  1
  P  P4  1  0.95652564  0.33849447  0.58290228  1
  P  P5  1  0.37512393  0.04060481  0.58317585  1
  P  P6  1  0.67027817  0.62153689  0.58212943  1
  P  P7  1  0.95292493  0.62460203  0.08836969  1
  P  P8  1  0.66592534  0.03561336  0.08898954  1
  P  P9  1  0.37465973  0.33783011  0.08791731  1
  P  P10  1  0.33282077  0.37734044  0.42113300  1
  P  P11  1  0.04336637  0.66647372  0.42069755  1
  O  O0  1  0.19539299  0.02822648  0.31244556  1
  O  O1  1  0.82195764  0.79269302  0.31125086  1
  O  O2  1  0.96641937  0.16923137  0.30695275  1
  O  O3  1  0.20306003  0.16481884  0.80828584  1
  O  O4  1  0.97128656  0.78987124  0.80916715  1
  O  O5  1  0.83611297  0.02774107  0.80226742  1
  O  O6  1  0.79717210  0.97475655  0.68554882  1
  O  O7  1  0.16304167  0.19696634  0.68613578  1
  O  O8  1  0.02263264  0.83239375  0.69270720  1
  O  O9  1  0.80192102  0.83870283  0.19554495  1
  O  O10  1  0.02300764  0.19885508  0.18979723  1
  O  O11  1  0.17081303  0.97739018  0.18730924  1
  O  O12  1  0.86835261  0.35856170  0.64164491  1
  O  O13  1  0.49509793  0.12606790  0.63995364  1
  O  O14  1  0.63746277  0.49759380  0.63678999  1
  O  O15  1  0.85485065  0.49562875  0.14055801  1
  O  O16  1  0.63952987  0.12733059  0.14530425  1
  O  O17  1  0.49178254  0.35614941  0.14220561  1
  O  O18  1  0.46119345  0.30817835  0.02809669  1
  O  O19  1  0.84825171  0.53801165  0.02707804  1
  O  O20  1  0.69666915  0.16083618  0.03168418  1
  O  O21  1  0.46026542  0.16059521  0.52547324  1
  O  O22  1  0.69280250  0.53891366  0.52189741  1
  O  O23  1  0.83917937  0.31012184  0.52558131  1
  O  O24  1  0.53308748  0.70371382  0.97931178  1
  O  O25  1  0.16668779  0.46493538  0.98000940  1
  O  O26  1  0.29647271  0.82745158  0.97964687  1
  O  O27  1  0.53743237  0.82881244  0.47814255  1
  O  O28  1  0.29939701  0.46241188  0.47793379  1
  O  O29  1  0.16811984  0.69838591  0.47458365  1
  O  O30  1  0.12699695  0.62982054  0.36180838  1
  O  O31  1  0.49860121  0.86768174  0.35906840  1
  O  O32  1  0.36380876  0.49790081  0.36387840  1
  O  O33  1  0.13355084  0.50233037  0.85745595  1
  O  O34  1  0.36683552  0.86842038  0.85583541  1
  O  O35  1  0.49723548  0.62787341  0.85913504  1
  O  O36  1  0.02538469  0.83233525  0.41273921  1
  O  O37  1  0.82453423  0.98121922  0.40958888  1
  O  O38  1  0.16882129  0.19283573  0.41330308  1
  O  O39  1  0.02801611  0.18437469  0.90869392  1
  O  O40  1  0.16063122  0.97536206  0.91099975  1
  O  O41  1  0.82250579  0.84141533  0.90786084  1
  O  O42  1  0.97441267  0.16809947  0.58505437  1
  O  O43  1  0.18971395  0.02272713  0.58910976  1
  O  O44  1  0.83162458  0.81009944  0.58814219  1
  O  O45  1  0.97047805  0.80898367  0.09092073  1
  O  O46  1  0.83667870  0.02408276  0.09146345  1
  O  O47  1  0.18754351  0.16944816  0.08902043  1
  O  O48  1  0.69761766  0.16840256  0.74167080  1
  O  O49  1  0.48607696  0.30331711  0.73936545  1
  O  O50  1  0.83499392  0.52113099  0.74112059  1
  O  O51  1  0.70285051  0.52949817  0.24240744  1
  O  O52  1  0.83629590  0.31002414  0.24314787  1
  O  O53  1  0.49021531  0.17681372  0.24500684  1
  O  O54  1  0.64278625  0.49890329  0.92543948  1
  O  O55  1  0.85638132  0.36483712  0.92280430  1
  O  O56  1  0.50313151  0.14787534  0.92446336  1
  O  O57  1  0.64492728  0.15522279  0.42539338  1
  O  O58  1  0.50212361  0.36175656  0.42527031  1
  O  O59  1  0.85807198  0.50131957  0.42535644  1
  O  O60  1  0.35189066  0.50090517  0.08178582  1
  O  O61  1  0.13956003  0.64311119  0.08384831  1
  O  O62  1  0.49630194  0.85743765  0.08140816  1
  O  O63  1  0.36060979  0.85678292  0.57642639  1
  O  O64  1  0.49867620  0.63911829  0.57885037  1
  O  O65  1  0.14559261  0.50093544  0.57728728  1
  O  O66  1  0.31145243  0.83168276  0.25454220  1
  O  O67  1  0.53128891  0.69044235  0.25651140  1
  O  O68  1  0.16772705  0.46701570  0.25541969  1
  O  O69  1  0.30512187  0.47957427  0.75045815  1
  O  O70  1  0.16416620  0.69513776  0.75052766  1
  O  O71  1  0.52906221  0.84098791  0.75084177  1
loop_
_geom_bond_atom_site_label_1
_geom_bond_atom_site_label_2
_geom_bond_distance
_geom_bond_site_symmetry_2
Na0 O44 2.381525 1_555
Na0 O43 2.419020 1_665
Na0 O36 2.453884 1_655
Na0 O42 2.460785 1_565
Na0 O37 2.518785 1_555
Na0 O38 2.554488 1_665
Na1 O41 2.325761 1_555
Na1 O39 2.438230 1_665
Na1 O46 2.472598 1_566
Na1 O40 2.506569 1_655
Na1 O45 2.570565 1_556
Na1 O47 2.665356 1_666
Na2 O49 2.365845 1_555
Na2 O50 2.423162 1_555
Na2 O48 2.465545 1_555
Na2 O56 2.614870 1_555
Na2 O55 2.620145 1_555
Na2 O54 2.625736 1_555
Na3 O53 2.333183 1_555
Na3 O51 2.391555 1_555
Na3 O52 2.481159 1_555
Na3 O58 2.580372 1_555
Na3 O57 2.611754 1_555
Na3 O59 2.637337 1_555
Na4 O60 2.269309 1_555
Na4 O62 2.371166 1_555
Na4 O61 2.371455 1_555
Na4 O68 2.560209 1_555
Na4 O66 2.582490 1_555
Na4 O67 2.587655 1_555
Na5 O65 2.391350 1_555
Na5 O64 2.397967 1_555
Na5 O63 2.421396 1_555
Na5 O69 2.447023 1_555
Na5 O70 2.498031 1_555
Na5 O71 2.546259 1_555
Na6 O52 2.336787 1_555
Na6 O16 2.385852 1_555
Na6 O53 2.404137 1_555
Na6 O67 2.454611 1_545
Na6 O66 2.485495 1_545
Na6 O9 2.720150 1_545
Na6 O31 2.765744 1_545
Na6 O2 2.835104 1_555
Na7 O48 2.302520 1_555
Na7 O69 2.345877 1_655
Na7 O50 2.459330 1_555
Na7 O12 2.503972 1_555
Na7 O70 2.557245 1_655
Na7 O33 2.737987 1_655
Na7 O7 2.774943 1_655
Na7 O5 2.799948 1_555
Na8 O49 2.294411 1_555
Na8 O70 2.375033 1_545
Na8 O71 2.481175 1_545
Na8 O48 2.535111 1_555
Na8 O34 2.598051 1_545
Na8 O13 2.615509 1_555
Na8 O3 2.742692 1_555
Na8 O8 2.860555 1_545
Na9 O64 2.367955 1_555
Na9 O43 2.385424 1_555
Na9 O7 2.421210 1_555
Na9 O65 2.445091 1_555
Na9 O42 2.462184 1_455
Na9 O28 2.651593 1_555
Na9 O14 2.766566 1_555
Na9 O21 2.864995 1_555
Na10 O42 2.361024 1_565
Na10 O63 2.362921 1_555
Na10 O44 2.421044 1_555
Na10 O6 2.438489 1_555
Na10 O64 2.489808 1_555
Na10 O27 2.602973 1_555
Na10 O13 2.776056 1_565
Na10 O23 2.904203 1_565
Na11 O62 2.370136 1_555
Na11 O47 2.400331 1_565
Na11 O61 2.431446 1_555
Na11 O45 2.449655 1_455
Na11 O11 2.487637 1_555
Na11 O26 2.582570 1_554
Na11 O18 2.888946 1_565
Na11 O16 2.930410 1_565
Na12 O61 2.377438 1_555
Na12 O46 2.392318 1_455
Na12 O60 2.410506 1_555
Na12 O47 2.415414 1_555
Na12 O25 2.498375 1_554
Na12 O10 2.589163 1_555
Na12 O20 2.782357 1_455
Na12 O15 2.858541 1_455
Na13 O40 2.296059 1_655
Na13 O41 2.387714 1_555
Na13 O55 2.394712 1_555
Na13 O4 2.456911 1_555
Na13 O54 2.515073 1_555
Na13 O19 2.728403 1_556
Na13 O33 2.797216 1_655
Na13 O26 2.851762 1_655
Na14 O39 2.295111 1_555
Na14 O40 2.428136 1_545
Na14 O54 2.439289 1_555
Na14 O56 2.455478 1_555
Na14 O3 2.507120 1_555
Na14 O18 2.759460 1_556
Na14 O35 2.765357 1_555
Na14 O25 2.905574 1_555
Na15 O38 2.379288 1_655
Na15 O59 2.392558 1_555
Na15 O37 2.394775 1_545
Na15 O57 2.411267 1_555
Na15 O23 2.600099 1_555
Na15 O2 2.649270 1_555
Na15 O30 2.809580 1_655
Na15 O28 2.871475 1_655
Na16 O57 2.375319 1_555
Na16 O36 2.391802 1_545
Na16 O38 2.437549 1_555
Na16 O58 2.477331 1_555
Na16 O0 2.492014 1_555
Na16 O21 2.663247 1_555
Na16 O31 2.772567 1_545
Na16 O29 2.888283 1_545
Na17 O37 2.374822 1_555
Na17 O58 2.383750 1_555
Na17 O36 2.462376 1_655
Na17 O59 2.478226 1_555
Na17 O22 2.487532 1_555
Na17 O1 2.569776 1_555
Na17 O27 2.735246 1_555
Na17 O32 2.823753 1_555
Al0 O0 1.810315 1_665
Al0 O1 1.895884 1_555
Al0 O2 1.896491 1_565
Al0 O37 1.921778 1_555
Al0 O36 2.079354 1_655
Al0 O38 2.108356 1_665
Al1 O41 1.891797 1_445
Al1 O39 1.893812 1_555
Al1 O3 1.895430 1_555
Al1 O5 1.940253 1_455
Al1 O40 1.945298 1_545
Al1 O4 2.006286 1_445
Al2 O7 1.830766 1_565
Al2 O8 1.841814 1_555
Al2 O6 1.890307 1_455
Al2 O43 1.978133 1_565
Al2 O44 2.014416 1_455
Al2 O42 2.093224 1_465
Al3 O11 1.803336 1_655
Al3 O9 1.872346 1_555
Al3 O10 1.914883 1_665
Al3 O45 1.962387 1_555
Al3 O46 1.978606 1_565
Al3 O47 2.046206 1_665
Al4 O14 1.850600 1_555
Al4 O49 1.857068 1_555
Al4 O12 1.929116 1_555
Al4 O13 1.966673 1_555
Al4 O50 1.973586 1_555
Al4 O48 2.049912 1_555
Al5 O17 1.874581 1_555
Al5 O15 1.881102 1_555
Al5 O53 1.888346 1_555
Al5 O51 1.928643 1_555
Al5 O16 1.983309 1_555
Al5 O52 2.026104 1_555
Al6 O23 1.870618 1_555
Al6 O21 1.900859 1_555
Al6 O22 1.902936 1_555
Al6 O57 1.924171 1_555
Al6 O58 2.003303 1_555
Al6 O59 2.022338 1_555
Al7 O24 1.776580 1_554
Al7 O26 1.831934 1_554
Al7 O25 1.855265 1_554
Al7 O60 2.030424 1_555
Al7 O62 2.062969 1_555
Al7 O61 2.163480 1_555
Al8 O27 1.851705 1_555
Al8 O29 1.886475 1_555
Al8 O28 1.924500 1_555
Al8 O63 1.952349 1_555
Al8 O65 1.998658 1_555
Al8 O64 2.018113 1_555
O0 Si0 1.621378 1_555
O1 P0 1.542979 1_555
O2 P1 1.550123 1_555
O3 Si1 1.626038 1_555
O4 P2 1.532819 1_555
O5 P3 1.523440 1_555
O6 P3 1.534641 1_565
O7 Si1 1.627516 1_555
O8 P2 1.525708 1_455
O9 P0 1.532379 1_555
O10 P1 1.532834 1_455
O11 Si0 1.607073 1_565
O12 P4 1.540223 1_555
O13 P5 1.548747 1_555
O14 P6 1.531286 1_555
O15 P7 1.521501 1_555
O16 P8 1.539410 1_555
O17 P9 1.515348 1_555
O18 P9 1.583542 1_555
O18 Ta0 2.013401 1_554
O19 P7 1.578661 1_555
O19 Ta0 2.005239 1_554
O20 P8 1.585704 1_555
O20 Ta0 1.994822 1_554
O21 P5 1.559674 1_555
O22 P6 1.551164 1_555
O23 P4 1.551145 1_555
O24 Si2 1.581664 1_555
O25 Si3 1.613646 1_555
O26 Si4 1.608418 1_555
O27 Si5 1.619447 1_555
O28 P10 1.539230 1_555
O29 P11 1.526484 1_555
O30 P11 1.578569 1_555
O30 Ta1 1.993710 1_555
O31 Si5 1.678581 1_555
O31 Ta1 1.943132 1_555
O32 P10 1.560151 1_555
O32 Ta1 2.043584 1_555
O33 Si3 1.666084 1_555
O33 Ta2 1.931175 1_555
O34 Si4 1.650595 1_555
O34 Ta2 1.948418 1_555
O35 Si2 1.663832 1_555
O35 Ta2 1.878582 1_555
O36 P11 1.543408 1_555
O37 Si5 1.637800 1_555
O38 P10 1.544838 1_555
O39 Si3 1.589962 1_555
O40 Si4 1.612422 1_555
O41 Si2 1.588760 1_555
O42 P4 1.573604 1_555
O43 P5 1.550498 1_555
O44 P6 1.552990 1_555
O45 P7 1.542702 1_555
O46 P8 1.542917 1_555
O47 P9 1.563370 1_555
O48 P3 1.563345 1_555
O49 Si1 1.630797 1_555
O50 P2 1.546591 1_555
O51 P0 1.516232 1_555
O52 P1 1.538799 1_555
O53 Si0 1.633704 1_555
O54 Si2 1.676561 1_555
O54 Ta0 1.957372 1_555
O55 Si3 1.646612 1_655
O55 Ta0 1.943243 1_555
O56 Si4 1.653336 1_545
O56 Ta0 1.936190 1_555
O57 Si5 1.636181 1_545
O58 P10 1.551633 1_555
O59 P11 1.545145 1_655
O60 P9 1.539592 1_555
O61 P7 1.556660 1_455
O62 P8 1.534501 1_565
O63 P5 1.555204 1_565
O64 P6 1.580452 1_555
O65 P4 1.556598 1_455
O66 Si0 1.724883 1_565
O66 Ta1 1.913165 1_555
O67 P0 1.605590 1_555
O67 Ta1 2.012499 1_555
O68 P1 1.570967 1_455
O68 Ta1 2.014174 1_555
O69 Si1 1.677904 1_555
O69 Ta2 1.978310 1_555
O70 P2 1.600482 1_455
O70 Ta2 2.129618 1_555
O71 P3 1.578095 1_565
O71 Ta2 2.058537 1_555
