# generated using pymatgen
data_MgMn12(O7F5)2
_symmetry_space_group_name_H-M   'P 1'
_cell_length_a   4.81351304
_cell_length_b   5.71393914
_cell_length_c   15.36739017
_cell_angle_alpha   89.39599053
_cell_angle_beta   89.40514140
_cell_angle_gamma   89.32978559
_symmetry_Int_Tables_number   1
_chemical_formula_structural   MgMn12(O7F5)2
_chemical_formula_sum   'Mg1 Mn12 O14 F10'
_cell_volume   422.59190656
_cell_formula_units_Z   1
loop_
 _symmetry_equiv_pos_site_id
 _symmetry_equiv_pos_as_xyz
  1  'x, y, z'
loop_
 _atom_site_type_symbol
 _atom_site_label
 _atom_site_symmetry_multiplicity
 _atom_site_fract_x
 _atom_site_fract_y
 _atom_site_fract_z
 _atom_site_occupancy
  Mg  Mg0  1  0.98464600  0.39163600  0.58506400  1
  Mn  Mn0  1  0.00680100  0.13821800  0.39770600  1
  Mn  Mn1  1  0.01804900  0.83373700  0.23522800  1
  Mn  Mn2  1  0.02386900  0.16985500  0.07913700  1
  Mn  Mn3  1  0.02903100  0.16693100  0.75563200  1
  Mn  Mn4  1  0.02512200  0.86066400  0.57882100  1
  Mn  Mn5  1  0.02483900  0.85477200  0.91724400  1
  Mn  Mn6  1  0.48859700  0.36215500  0.59711500  1
  Mn  Mn7  1  0.49632400  0.34165200  0.92343700  1
  Mn  Mn8  1  0.49859700  0.34028100  0.25159900  1
  Mn  Mn9  1  0.51123400  0.63153700  0.09301300  1
  Mn  Mn10  1  0.50531800  0.64483800  0.41995000  1
  Mn  Mn11  1  0.48519500  0.65028700  0.75442900  1
  O  O0  1  0.22151300  0.09979700  0.29146200  1
  O  O1  1  0.21749700  0.13748700  0.64021600  1
  O  O2  1  0.21455200  0.12011700  0.97081100  1
  O  O3  1  0.23452000  0.88105300  0.13142500  1
  O  O4  1  0.22202800  0.88557700  0.46429300  1
  O  O5  1  0.22629000  0.89350400  0.80872200  1
  O  O6  1  0.28740500  0.39942200  0.14527800  1
  O  O7  1  0.25047700  0.61369500  0.63725400  1
  O  O8  1  0.29556200  0.40113900  0.81620100  1
  O  O9  1  0.72612100  0.38399400  0.02841500  1
  O  O10  1  0.72266900  0.61188700  0.19425000  1
  O  O11  1  0.70104000  0.36432000  0.36155400  1
  O  O12  1  0.71001000  0.60368700  0.53168800  1
  O  O13  1  0.75047700  0.37858900  0.69636500  1
  F  F0  1  0.25448800  0.60714200  0.31777900  1
  F  F1  1  0.22757700  0.37305500  0.48060300  1
  F  F2  1  0.28219000  0.61887500  0.98472700  1
  F  F3  1  0.74984600  0.62467000  0.86844600  1
  F  F4  1  0.77675900  0.11945800  0.18068600  1
  F  F5  1  0.76698800  0.13155800  0.52718000  1
  F  F6  1  0.76701100  0.86578300  0.34345000  1
  F  F7  1  0.76105500  0.86682000  0.02347600  1
  F  F8  1  0.76893100  0.12540000  0.85730200  1
  F  F9  1  0.75348000  0.87545800  0.69337200  1
loop_
_geom_bond_atom_site_label_1
_geom_bond_atom_site_label_2
_geom_bond_distance
_geom_bond_site_symmetry_2
Mg0 O12 1.962798 1_555
Mg0 O7 1.992800 1_655
Mg0 O1 2.009764 1_655
Mg0 O13 2.039808 1_555
Mn0 O0 1.936299 1_555
Mn0 O11 2.025155 1_455
Mn0 O4 2.039647 1_545
Mn1 O3 1.914789 1_555
Mn1 O0 2.024163 1_565
Mn1 O10 2.025488 1_455
Mn2 O2 1.914826 1_554
Mn2 O9 2.029993 1_455
Mn2 O3 2.084890 1_545
Mn2 O6 2.111096 1_555
Mn3 O5 1.990632 1_545
Mn3 O1 1.991584 1_555
Mn3 O13 2.013498 1_455
Mn3 O8 2.096298 1_555
Mn4 O7 1.982954 1_555
Mn4 O4 1.994851 1_555
Mn4 O1 2.081690 1_565
Mn4 O12 2.253595 1_455
Mn5 O5 1.932396 1_555
Mn5 O2 1.970942 1_565
Mn6 O7 1.930155 1_555
Mn6 O1 1.947534 1_555
Mn6 O13 1.992441 1_555
Mn6 O12 2.008573 1_555
Mn7 O8 1.943882 1_555
Mn7 O9 1.983971 1_556
Mn7 O2 1.993030 1_555
Mn8 O6 1.957545 1_555
Mn8 O11 1.966168 1_555
Mn8 O0 2.012584 1_555
Mn8 O10 2.083056 1_555
Mn9 O10 1.869568 1_555
Mn9 O6 1.886251 1_555
Mn9 O9 2.007505 1_555
Mn9 O3 2.027868 1_555
Mn10 O12 1.998946 1_555
Mn10 O4 2.042692 1_555
Mn10 O11 2.059005 1_555
Mn11 O8 1.935182 1_555
Mn11 O5 2.035418 1_555
Mn11 O7 2.149032 1_555
Mn11 O13 2.189995 1_555
F0 Mn10 2.005478 1_555
F0 Mn1 2.131164 1_555
F0 Mn8 2.169345 1_555
F1 Mg0 1.979225 1_455
F1 Mn0 2.156445 1_555
F1 Mn6 2.197918 1_555
F1 Mn10 2.249430 1_555
F2 Mn9 2.008082 1_556
F2 Mn5 2.094029 1_555
F2 Mn7 2.105184 1_555
F3 Mn5 2.031075 1_655
F3 Mn11 2.179641 1_555
F3 Mn7 2.194187 1_555
F4 Mn2 1.973081 1_655
F4 Mn8 2.128740 1_555
F4 Mn1 2.159597 1_645
F5 Mg0 2.044745 1_555
F5 Mn4 2.125830 1_645
F5 Mn6 2.155339 1_555
F5 Mn0 2.290090 1_655
F6 Mn1 2.054040 1_655
F6 Mn10 2.130207 1_555
F6 Mn0 2.130740 1_665
F7 Mn5 2.058960 1_654
F7 Mn9 2.091936 1_555
F7 Mn2 2.331338 1_665
F8 Mn3 2.005847 1_655
F8 Mn7 2.059723 1_555
F8 Mn5 2.169346 1_645
F9 Mn11 2.047367 1_555
F9 Mn4 2.183673 1_655
F9 Mn3 2.357975 1_665
