# generated using pymatgen
data_Na10Ga4Si7Sn4S5O48
_symmetry_space_group_name_H-M   'P 1'
_cell_length_a   17.79801650
_cell_length_b   8.89948491
_cell_length_c   22.42353370
_cell_angle_alpha   89.75898754
_cell_angle_beta   90.36072493
_cell_angle_gamma   119.91310536
_symmetry_Int_Tables_number   1
_chemical_formula_structural   Na10Ga4Si7Sn4S5O48
_chemical_formula_sum   'Na30 Ga12 Si21 Sn12 S15 O144'
_cell_volume   3078.51895168
_cell_formula_units_Z   3
loop_
 _symmetry_equiv_pos_site_id
 _symmetry_equiv_pos_as_xyz
  1  'x, y, z'
loop_
 _atom_site_type_symbol
 _atom_site_label
 _atom_site_symmetry_multiplicity
 _atom_site_fract_x
 _atom_site_fract_y
 _atom_site_fract_z
 _atom_site_occupancy
  Na  Na0  1  0.18355254  0.37266586  0.24361484  1
  Na  Na1  1  0.68350202  0.37319402  0.24365537  1
  Na  Na2  1  0.99385612  0.62527213  0.25350991  1
  Na  Na3  1  0.49398465  0.62515445  0.25327384  1
  Na  Na4  1  0.49378372  0.35975695  0.75711839  1
  Na  Na5  1  0.18318049  0.99375405  0.74705580  1
  Na  Na6  1  0.68487397  0.99652343  0.74597396  1
  Na  Na7  1  0.65758614  0.33977486  0.57955459  1
  Na  Na8  1  0.01858576  0.70679020  0.58053990  1
  Na  Na9  1  0.82729053  0.95735589  0.59029593  1
  Na  Na10  1  0.48926091  0.66954622  0.91157851  1
  Na  Na11  1  0.99085294  0.67255099  0.91056435  1
  Na  Na12  1  0.85063074  0.03548021  0.90768127  1
  Na  Na13  1  0.15949496  0.28884769  0.92185610  1
  Na  Na14  1  0.48991722  0.31109941  0.41108009  1
  Na  Na15  1  0.98858621  0.30876844  0.41099322  1
  Na  Na16  1  0.35202395  0.66597125  0.40772676  1
  Na  Na17  1  0.85181522  0.66595019  0.41147191  1
  Na  Na18  1  0.01747189  0.00498629  0.49721698  1
  Na  Na19  1  0.51262562  0.99326855  0.49558806  1
  Na  Na20  1  0.01072043  0.01717274  0.99906468  1
  Na  Na21  1  0.51323437  0.03362784  0.99496486  1
  Na  Na22  1  0.33782886  0.32325997  0.83236669  1
  Na  Na23  1  0.83990841  0.33552004  0.82668807  1
  Na  Na24  1  0.33306126  0.33193289  0.32929185  1
  Na  Na25  1  0.83289932  0.33187013  0.33021277  1
  Na  Na26  1  0.17368233  0.66136919  0.16041402  1
  Na  Na27  1  0.67345225  0.66128294  0.16048970  1
  Na  Na28  1  0.17357434  0.67742791  0.66682348  1
  Na  Na29  1  0.67189260  0.68471536  0.66522544  1
  Ga  Ga0  1  0.00223055  0.00263585  0.35192628  1
  Ga  Ga1  1  0.50295923  0.00214479  0.35148911  1
  Ga  Ga2  1  0.99844887  0.99587285  0.84991846  1
  Ga  Ga3  1  0.49849119  0.00039276  0.85384563  1
  Ga  Ga4  1  0.33331742  0.31664714  0.68967733  1
  Ga  Ga5  1  0.83383459  0.33343104  0.68724343  1
  Ga  Ga6  1  0.33563940  0.35395815  0.18605792  1
  Ga  Ga7  1  0.83521725  0.35448159  0.18642326  1
  Ga  Ga8  1  0.15869712  0.64391163  0.01632748  1
  Ga  Ga9  1  0.65541241  0.63962848  0.01650715  1
  Ga  Ga10  1  0.16178887  0.67445574  0.51510910  1
  Ga  Ga11  1  0.66179000  0.66612653  0.52005033  1
  Si  Si0  1  0.35628175  0.71824316  0.25103345  1
  Si  Si1  1  0.85613243  0.71853809  0.25106097  1
  Si  Si2  1  0.99304795  0.28599678  0.25151476  1
  Si  Si3  1  0.49299984  0.28606708  0.25163611  1
  Si  Si4  1  0.99440143  0.69626536  0.75188140  1
  Si  Si5  1  0.49361026  0.69947295  0.75230880  1
  Si  Si6  1  0.35562480  0.99337914  0.75113915  1
  Si  Si7  1  0.85525116  0.00368601  0.75124726  1
  Si  Si8  1  0.19002532  0.03809852  0.58625279  1
  Si  Si9  1  0.68542700  0.03731332  0.58624038  1
  Si  Si10  1  0.83095895  0.62428705  0.58434803  1
  Si  Si11  1  0.18854795  0.34059304  0.08431906  1
  Si  Si12  1  0.68689697  0.34086879  0.08601569  1
  Si  Si13  1  0.01959134  0.36812080  0.91776594  1
  Si  Si14  1  0.51978543  0.36332933  0.91657216  1
  Si  Si15  1  0.16553801  0.95425425  0.91903206  1
  Si  Si16  1  0.66401052  0.95452409  0.92058479  1
  Si  Si17  1  0.16446874  0.37275270  0.41981910  1
  Si  Si18  1  0.66327137  0.36620774  0.41898203  1
  Si  Si19  1  0.02028778  0.67365520  0.41755613  1
  Si  Si20  1  0.52292823  0.67480007  0.41897490  1
  Sn  Sn0  1  0.99962438  0.98924120  0.64988617  1
  Sn  Sn1  1  0.49667087  0.98234114  0.65008165  1
  Sn  Sn2  1  0.00101873  0.01425228  0.14715085  1
  Sn  Sn3  1  0.50072379  0.01337097  0.14730425  1
  Sn  Sn4  1  0.33086481  0.31856924  0.98153805  1
  Sn  Sn5  1  0.82606094  0.32279523  0.98265197  1
  Sn  Sn6  1  0.32836317  0.33341930  0.48253446  1
  Sn  Sn7  1  0.82870036  0.34066463  0.48259459  1
  Sn  Sn8  1  0.16493536  0.65391750  0.31469500  1
  Sn  Sn9  1  0.66412804  0.65429029  0.31516753  1
  Sn  Sn10  1  0.16293944  0.67370882  0.81490661  1
  Sn  Sn11  1  0.66541921  0.67657035  0.81564492  1
  S  S0  1  0.14739001  0.00090108  0.25096470  1
  S  S1  1  0.64739081  0.00055164  0.25092885  1
  S  S2  1  0.14731871  0.29564204  0.75069713  1
  S  S3  1  0.64645342  0.29247606  0.75074143  1
  S  S4  1  0.47893097  0.33144826  0.58465520  1
  S  S5  1  0.98165564  0.33521676  0.58338156  1
  S  S6  1  0.33060252  0.62573749  0.58358605  1
  S  S7  1  0.48093852  0.62894523  0.08445657  1
  S  S8  1  0.98100138  0.62871783  0.08414920  1
  S  S9  1  0.33086316  0.03754850  0.08570446  1
  S  S10  1  0.83107492  0.03847284  0.08453114  1
  S  S11  1  0.31188786  0.67074100  0.91851726  1
  S  S12  1  0.81097797  0.66548364  0.91875943  1
  S  S13  1  0.31076508  0.95650081  0.41823924  1
  S  S14  1  0.81134083  0.95863568  0.41850744  1
  O  O0  1  0.10829003  0.03335886  0.30362479  1
  O  O1  1  0.60831803  0.03319432  0.30367957  1
  O  O2  1  0.41733907  0.79770634  0.31029565  1
  O  O3  1  0.91767553  0.79818735  0.30995773  1
  O  O4  1  0.48216572  0.17702539  0.31271911  1
  O  O5  1  0.98279565  0.17759524  0.31261593  1
  O  O6  1  0.10875935  0.18810178  0.80485359  1
  O  O7  1  0.60453516  0.17981853  0.80186622  1
  O  O8  1  0.48292632  0.78896202  0.81197993  1
  O  O9  1  0.98622008  0.79257361  0.81179642  1
  O  O10  1  0.42371894  0.04320855  0.80520750  1
  O  O11  1  0.91313121  0.02940943  0.81092975  1
  O  O12  1  0.39503581  0.97147627  0.68746024  1
  O  O13  1  0.89667932  0.98009500  0.68857681  1
  O  O14  1  0.09284281  0.22031280  0.69649177  1
  O  O15  1  0.59313416  0.22512169  0.69408910  1
  O  O16  1  0.02392265  0.82392018  0.69219080  1
  O  O17  1  0.52715832  0.83099190  0.69432646  1
  O  O18  1  0.40136906  0.82709428  0.19059415  1
  O  O19  1  0.90127172  0.82750207  0.19029718  1
  O  O20  1  0.02700681  0.21783065  0.19570192  1
  O  O21  1  0.52657667  0.21702005  0.19601001  1
  O  O22  1  0.09169533  0.96029528  0.19655689  1
  O  O23  1  0.59169707  0.96007751  0.19672128  1
  O  O24  1  0.43682738  0.35383726  0.63742390  1
  O  O25  1  0.93897236  0.36235035  0.63428663  1
  O  O26  1  0.24692708  0.13265667  0.64572350  1
  O  O27  1  0.74627048  0.12382037  0.64495095  1
  O  O28  1  0.32356190  0.51934574  0.63568654  1
  O  O29  1  0.81333183  0.49003712  0.63809163  1
  O  O30  1  0.44002989  0.52229365  0.13844114  1
  O  O31  1  0.93971527  0.52252700  0.13782992  1
  O  O32  1  0.32360115  0.12691459  0.13777853  1
  O  O33  1  0.82502205  0.13147464  0.13615181  1
  O  O34  1  0.24439230  0.35636713  0.14494282  1
  O  O35  1  0.74314881  0.35836645  0.14692217  1
  O  O36  1  0.23058658  0.30935002  0.02333743  1
  O  O37  1  0.72900314  0.30420263  0.02706030  1
  O  O38  1  0.42789498  0.54853512  0.02942065  1
  O  O39  1  0.92870652  0.54937773  0.02869166  1
  O  O40  1  0.34943022  0.14379669  0.02952001  1
  O  O41  1  0.84899245  0.14299588  0.02749626  1
  O  O42  1  0.23057501  0.15352317  0.52574218  1
  O  O43  1  0.72667336  0.16273485  0.52677076  1
  O  O44  1  0.34843823  0.55688441  0.52679288  1
  O  O45  1  0.86054779  0.56329077  0.52297744  1
  O  O46  1  0.42791564  0.30586684  0.52856738  1
  O  O47  1  0.92821155  0.29911375  0.52692682  1
  O  O48  1  0.27073926  0.69309695  0.97151164  1
  O  O49  1  0.77032552  0.69137170  0.97070397  1
  O  O50  1  0.08411396  0.44618462  0.97443002  1
  O  O51  1  0.57856778  0.45115255  0.97446418  1
  O  O52  1  0.14939364  0.82346965  0.97490271  1
  O  O53  1  0.65176250  0.82505097  0.97592437  1
  O  O54  1  0.26994933  0.84966075  0.47085226  1
  O  O55  1  0.77203983  0.85334756  0.47200720  1
  O  O56  1  0.15090410  0.47584283  0.47483076  1
  O  O57  1  0.64783984  0.45683487  0.47734596  1
  O  O58  1  0.07565184  0.70194224  0.47812119  1
  O  O59  1  0.58385954  0.70058322  0.47524427  1
  O  O60  1  0.06152591  0.63622617  0.35723034  1
  O  O61  1  0.55793608  0.63168768  0.35632698  1
  O  O62  1  0.25813586  0.88562565  0.36309436  1
  O  O63  1  0.75780164  0.88523397  0.36379760  1
  O  O64  1  0.19187471  0.49199755  0.35789168  1
  O  O65  1  0.69009509  0.49215737  0.35896951  1
  O  O66  1  0.05951930  0.49275831  0.85905270  1
  O  O67  1  0.55776598  0.48533359  0.85522941  1
  O  O68  1  0.18710505  0.89032258  0.85622877  1
  O  O69  1  0.69201246  0.89189843  0.85849862  1
  O  O70  1  0.25617767  0.63010434  0.86382783  1
  O  O71  1  0.75917672  0.63149350  0.86308287  1
  O  O72  1  0.00309051  0.83622752  0.41090361  1
  O  O73  1  0.50296792  0.83382259  0.41194838  1
  O  O74  1  0.39696324  0.97063741  0.41391413  1
  O  O75  1  0.89765907  0.97307356  0.41310963  1
  O  O76  1  0.07566492  0.18627516  0.41194886  1
  O  O77  1  0.57395809  0.18080286  0.41045104  1
  O  O78  1  0.00601037  0.17280323  0.91012534  1
  O  O79  1  0.50709233  0.17223164  0.90990652  1
  O  O80  1  0.07724264  0.97245799  0.91250806  1
  O  O81  1  0.57502516  0.96202283  0.91226710  1
  O  O82  1  0.39821597  0.82115231  0.91282380  1
  O  O83  1  0.89824576  0.82333759  0.91399569  1
  O  O84  1  0.48947523  0.17539537  0.58808743  1
  O  O85  1  0.98999945  0.17698413  0.58868843  1
  O  O86  1  0.09188036  0.01831330  0.58924579  1
  O  O87  1  0.59073489  0.03604938  0.58900294  1
  O  O88  1  0.41048075  0.80328745  0.58563971  1
  O  O89  1  0.91558240  0.82335658  0.58714062  1
  O  O90  1  0.48743989  0.80217104  0.08835635  1
  O  O91  1  0.98769060  0.80253875  0.08784821  1
  O  O92  1  0.40934332  0.01545065  0.08747353  1
  O  O93  1  0.91068915  0.01831119  0.08626302  1
  O  O94  1  0.09175676  0.15806031  0.08664731  1
  O  O95  1  0.59059965  0.15853197  0.08777434  1
  O  O96  1  0.34206640  0.16563359  0.74715027  1
  O  O97  1  0.83672683  0.16608861  0.74564881  1
  O  O98  1  0.23284869  0.30729350  0.74440775  1
  O  O99  1  0.73146926  0.30647428  0.74492237  1
  O  O100  1  0.40901756  0.50648598  0.74046219  1
  O  O101  1  0.90761353  0.51062826  0.74335454  1
  O  O102  1  0.34256496  0.51930022  0.24636923  1
  O  O103  1  0.84292076  0.51981352  0.24653700  1
  O  O104  1  0.40886858  0.31186239  0.24023713  1
  O  O105  1  0.90898180  0.31166157  0.24000003  1
  O  O106  1  0.23326411  0.15590311  0.24397448  1
  O  O107  1  0.73338646  0.15554181  0.24405793  1
  O  O108  1  0.32209325  0.51185152  0.92296121  1
  O  O109  1  0.82706091  0.51527331  0.92323785  1
  O  O110  1  0.42689326  0.37107535  0.92318988  1
  O  O111  1  0.92515445  0.36283619  0.92597436  1
  O  O112  1  0.24701400  0.15666990  0.92075546  1
  O  O113  1  0.75343213  0.14643090  0.92232780  1
  O  O114  1  0.32594346  0.13781776  0.42264852  1
  O  O115  1  0.82591730  0.13895955  0.42322599  1
  O  O116  1  0.25395438  0.36004596  0.42163746  1
  O  O117  1  0.75234199  0.35294852  0.41915993  1
  O  O118  1  0.42621676  0.48828627  0.42527989  1
  O  O119  1  0.92608510  0.48455307  0.42106623  1
  O  O120  1  0.18109464  0.51706996  0.07815408  1
  O  O121  1  0.68046099  0.51799304  0.07858225  1
  O  O122  1  0.06753371  0.64625901  0.08011947  1
  O  O123  1  0.56746419  0.64702138  0.08061967  1
  O  O124  1  0.25210655  0.86724829  0.07919803  1
  O  O125  1  0.75339532  0.86884540  0.07900152  1
  O  O126  1  0.17598299  0.83993119  0.57890534  1
  O  O127  1  0.67885288  0.84895050  0.57826167  1
  O  O128  1  0.25294305  0.64039652  0.57748835  1
  O  O129  1  0.74320927  0.64033308  0.57627265  1
  O  O130  1  0.06760618  0.49183059  0.57808149  1
  O  O131  1  0.56619888  0.48591047  0.58117102  1
  O  O132  1  0.15526228  0.84262351  0.25747280  1
  O  O133  1  0.65518396  0.84242684  0.25759919  1
  O  O134  1  0.25799886  0.69448538  0.25391724  1
  O  O135  1  0.75774912  0.69426393  0.25434362  1
  O  O136  1  0.07958749  0.48741125  0.25361922  1
  O  O137  1  0.57965435  0.48737543  0.25363920  1
  O  O138  1  0.15864261  0.47137242  0.75620911  1
  O  O139  1  0.65451980  0.46719986  0.75653626  1
  O  O140  1  0.08473921  0.68433868  0.75239170  1
  O  O141  1  0.57984854  0.67102942  0.75377318  1
  O  O142  1  0.25852390  0.82059164  0.75478548  1
  O  O143  1  0.75768261  0.82328843  0.75416354  1
loop_
_geom_bond_atom_site_label_1
_geom_bond_atom_site_label_2
_geom_bond_distance
_geom_bond_site_symmetry_2
Na0 O102 2.455858 1_555
Na0 O106 2.491243 1_555
Na0 O134 2.495696 1_555
Na0 O34 2.505706 1_555
Na0 O136 2.531549 1_555
Na0 O20 2.638478 1_555
Na0 O64 2.752699 1_555
Na0 O0 2.945781 1_555
Na1 O35 2.453673 1_555
Na1 O103 2.462341 1_555
Na1 O135 2.490783 1_555
Na1 O107 2.501054 1_555
Na1 O137 2.525702 1_555
Na1 O21 2.641413 1_555
Na1 O65 2.777778 1_555
Na1 O1 2.950915 1_555
Na2 O103 2.367090 1_555
Na2 O136 2.387580 1_655
Na2 O105 2.441229 1_555
Na2 O132 2.541268 1_655
Na2 O60 2.592072 1_655
Na2 O31 2.757338 1_555
Na2 O3 2.815597 1_555
Na2 O22 2.893184 1_655
Na3 O102 2.374477 1_555
Na3 O137 2.385968 1_555
Na3 O104 2.437770 1_555
Na3 O133 2.538632 1_555
Na3 O61 2.557494 1_555
Na3 O30 2.739063 1_555
Na3 O2 2.825188 1_555
Na3 O23 2.888382 1_555
Na4 O96 2.380952 1_555
Na4 O141 2.406939 1_555
Na4 O100 2.464628 1_555
Na4 O67 2.470942 1_555
Na4 O139 2.524016 1_555
Na4 O10 2.672379 1_555
Na4 O24 2.854429 1_555
Na4 O15 2.952740 1_555
Na5 O140 2.419619 1_555
Na5 O96 2.454034 1_565
Na5 O98 2.471856 1_565
Na5 O142 2.501794 1_555
Na5 O26 2.566781 1_565
Na5 O68 2.624521 1_555
Na5 O16 2.744286 1_555
Na5 O6 2.958210 1_565
Na6 O97 2.348224 1_565
Na6 O99 2.452599 1_565
Na6 O143 2.465153 1_555
Na6 O27 2.526644 1_565
Na6 O141 2.552467 1_555
Na6 O17 2.690710 1_555
Na6 O69 2.709951 1_555
Na6 O7 2.939779 1_565
Na7 O129 2.327368 1_555
Na7 O87 2.357434 1_555
Na7 O131 2.539517 1_555
Na7 O57 2.554062 1_555
Na7 O84 2.601595 1_555
Na7 O43 2.713214 1_555
Na7 O29 2.732553 1_555
Na7 O15 2.792967 1_555
Na8 O86 2.412523 1_565
Na8 O126 2.437882 1_555
Na8 O130 2.467809 1_555
Na8 O89 2.521981 1_455
Na8 O58 2.526196 1_555
Na8 O16 2.698865 1_555
Na8 O45 2.755736 1_455
Na8 O25 2.918036 1_455
Na9 O127 2.331162 1_555
Na9 O89 2.401588 1_555
Na9 O129 2.467559 1_555
Na9 O13 2.478530 1_555
Na9 O85 2.561880 1_565
Na9 O55 2.817667 1_555
Na9 O27 2.818544 1_565
Na10 O81 2.267735 1_555
Na10 O110 2.326505 1_555
Na10 O8 2.495266 1_555
Na10 O82 2.574560 1_555
Na10 O108 2.594005 1_555
Na10 O67 2.793057 1_555
Na10 O38 2.859094 1_556
Na10 O53 2.886889 1_555
Na11 O80 2.323100 1_655
Na11 O111 2.422079 1_555
Na11 O9 2.473535 1_555
Na11 O109 2.544719 1_555
Na11 O83 2.594564 1_555
Na11 O66 2.715077 1_655
Na11 O52 2.834165 1_655
Na11 O39 2.871328 1_556
Na12 O78 2.402524 1_655
Na12 O113 2.406050 1_555
Na12 O83 2.427882 1_545
Na12 O11 2.457318 1_555
Na12 O111 2.562045 1_555
Na12 O69 2.682103 1_545
Na12 O41 2.860952 1_556
Na13 O112 2.374629 1_555
Na13 O78 2.403652 1_555
Na13 O80 2.450544 1_545
Na13 O36 2.559189 1_556
Na13 O108 2.566204 1_555
Na13 O50 2.656655 1_555
Na13 O6 2.772195 1_555
Na13 O70 2.942834 1_555
Na14 O77 2.304863 1_555
Na14 O118 2.380151 1_555
Na14 O4 2.482244 1_555
Na14 O114 2.545582 1_555
Na14 O74 2.630920 1_545
Na14 O61 2.767192 1_555
Na14 O57 2.849204 1_555
Na14 O46 2.853892 1_555
Na15 O76 2.296793 1_655
Na15 O119 2.340418 1_555
Na15 O5 2.477596 1_555
Na15 O115 2.526632 1_555
Na15 O75 2.593100 1_545
Na15 O60 2.801455 1_655
Na15 O47 2.803816 1_555
Na15 O56 2.878797 1_655
Na16 O73 2.335194 1_555
Na16 O116 2.411720 1_555
Na16 O74 2.418542 1_555
Na16 O2 2.479940 1_555
Na16 O118 2.543610 1_555
Na16 O64 2.709849 1_555
Na16 O44 2.827257 1_555
Na17 O72 2.340201 1_655
Na17 O75 2.431848 1_555
Na17 O117 2.450425 1_555
Na17 O119 2.553723 1_555
Na17 O3 2.564323 1_555
Na17 O45 2.688513 1_555
Na17 O65 2.755970 1_555
Na18 O76 2.379887 1_555
Na18 O72 2.387864 1_545
Na18 O86 2.416067 1_555
Na18 O89 2.657496 1_445
Na18 O75 2.744939 1_445
Na18 O85 2.752213 1_455
Na19 O73 2.309897 1_555
Na19 O77 2.409141 1_565
Na19 O87 2.430528 1_565
Na19 O74 2.678516 1_555
Na19 O88 2.681969 1_555
Na19 O84 2.793591 1_565
Na20 O94 2.385508 1_556
Na20 O80 2.415073 1_545
Na20 O78 2.448094 1_555
Na20 O91 2.641488 1_446
Na20 O93 2.656115 1_456
Na20 O83 2.675303 1_445
Na21 O79 2.298559 1_555
Na21 O81 2.406002 1_545
Na21 O95 2.432994 1_556
Na21 O82 2.698122 1_545
Na21 O92 2.737760 1_556
Na21 O90 2.805693 1_546
Na22 O96 2.398909 1_555
Na22 O110 2.476966 1_555
Na22 O112 2.522775 1_555
Na22 O100 2.540720 1_555
Na22 O98 2.663190 1_555
Na22 O108 2.743501 1_555
Na23 O101 2.345912 1_555
Na23 O97 2.348529 1_555
Na23 O99 2.572005 1_555
Na23 O111 2.629033 1_555
Na23 O113 2.688472 1_555
Na23 O109 2.774659 1_555
Na24 O102 2.441942 1_555
Na24 O104 2.473314 1_555
Na24 O106 2.544844 1_555
Na24 O116 2.593293 1_555
Na24 O118 2.645216 1_555
Na24 O114 2.671572 1_555
Na25 O103 2.455646 1_555
Na25 O105 2.497699 1_555
Na25 O117 2.525140 1_555
Na25 O119 2.545684 1_555
Na25 O107 2.557738 1_555
Na25 O115 2.659568 1_555
Na26 O120 2.293666 1_555
Na26 O124 2.464773 1_555
Na26 O134 2.501872 1_555
Na26 O122 2.556339 1_555
Na26 O136 2.645828 1_555
Na26 O132 2.830575 1_555
Na27 O121 2.279529 1_555
Na27 O125 2.481620 1_555
Na27 O135 2.508467 1_555
Na27 O123 2.550035 1_555
Na27 O137 2.642895 1_555
Na27 O133 2.829741 1_555
Na28 O142 2.421155 1_555
Na28 O126 2.427987 1_555
Na28 O140 2.514234 1_555
Na28 O128 2.573405 1_555
Na28 O138 2.634486 1_555
Na28 O130 2.668033 1_555
Na29 O127 2.398491 1_555
Na29 O143 2.435939 1_555
Na29 O129 2.506836 1_555
Na29 O141 2.545757 1_555
Na29 O131 2.623997 1_555
Na29 O139 2.722644 1_555
Ga0 O3 1.930422 1_445
Ga0 O5 1.960315 1_455
Ga0 O72 1.987026 1_545
Ga0 O76 2.014100 1_555
Ga0 O0 2.078352 1_555
Ga0 O75 2.226239 1_445
Ga1 O2 1.927897 1_545
Ga1 O77 1.966113 1_555
Ga1 O4 1.968247 1_555
Ga1 O73 2.016195 1_545
Ga1 O1 2.061063 1_555
Ga1 O74 2.258173 1_545
Ga2 O11 1.895340 1_565
Ga2 O9 1.915579 1_555
Ga2 O78 2.030844 1_665
Ga2 O80 2.060108 1_655
Ga2 O6 2.112558 1_665
Ga2 O83 2.210265 1_555
Ga3 O10 1.894647 1_555
Ga3 O79 1.929415 1_555
Ga3 O8 1.997563 1_545
Ga3 O81 2.031228 1_545
Ga3 O7 2.115817 1_555
Ga3 O82 2.156675 1_545
Ga4 O26 1.870868 1_555
Ga4 O96 1.919094 1_555
Ga4 O100 1.921710 1_555
Ga4 O24 2.071759 1_555
Ga4 O98 2.142159 1_555
Ga4 O28 2.245290 1_555
Ga5 O101 1.929968 1_555
Ga5 O29 1.944119 1_555
Ga5 O27 1.976033 1_555
Ga5 O97 1.998737 1_555
Ga5 O25 2.126728 1_555
Ga5 O99 2.154251 1_555
Ga6 O34 1.871786 1_555
Ga6 O104 1.943760 1_555
Ga6 O102 1.960382 1_555
Ga6 O30 2.017863 1_555
Ga6 O32 2.210050 1_555
Ga6 O106 2.218264 1_555
Ga7 O35 1.873193 1_555
Ga7 O105 1.946129 1_555
Ga7 O103 1.952916 1_555
Ga7 O31 2.029930 1_555
Ga7 O107 2.213464 1_555
Ga7 O33 2.213491 1_555
Ga8 O50 1.846524 1_554
Ga8 O52 1.921784 1_554
Ga8 O120 1.945214 1_555
Ga8 O48 2.080620 1_554
Ga8 O122 2.177723 1_555
Ga8 O124 2.323846 1_555
Ga9 O51 1.811583 1_554
Ga9 O53 1.910214 1_554
Ga9 O121 1.941360 1_555
Ga9 O49 2.129087 1_554
Ga9 O123 2.157111 1_555
Ga9 O125 2.368844 1_555
Ga10 O58 1.858588 1_555
Ga10 O56 1.909768 1_555
Ga10 O126 1.980168 1_555
Ga10 O54 2.034497 1_555
Ga10 O130 2.176824 1_555
Ga10 O128 2.266892 1_555
Ga11 O59 1.852385 1_555
Ga11 O127 1.990820 1_555
Ga11 O57 1.999655 1_555
Ga11 O129 2.012035 1_555
Ga11 O55 2.130196 1_555
Ga11 O131 2.152807 1_555
O0 S0 1.475050 1_555
O1 S1 1.477122 1_555
O2 Si0 1.634062 1_555
O3 Si1 1.631468 1_555
O4 Si3 1.631095 1_555
O5 Si2 1.630221 1_555
O6 S2 1.485693 1_555
O7 S3 1.459829 1_555
O8 Si5 1.619869 1_555
O9 Si4 1.642391 1_555
O10 Si6 1.607908 1_545
O11 Si7 1.629311 1_555
O12 Si6 1.649317 1_555
O12 Sn1 1.956515 1_555
O13 Si7 1.653034 1_565
O13 Sn0 1.996753 1_555
O14 S2 1.486807 1_555
O14 Sn0 2.160333 1_445
O15 S3 1.515759 1_555
O15 Sn1 2.210551 1_545
O16 Si4 1.661005 1_455
O16 Sn0 1.967036 1_455
O17 Si5 1.648289 1_555
O17 Sn1 1.950356 1_555
O18 Si0 1.626786 1_555
O18 Sn3 1.975282 1_565
O19 Si1 1.633389 1_555
O19 Sn2 1.978699 1_665
O20 Si2 1.637445 1_455
O20 Sn2 1.963682 1_555
O21 Si3 1.634822 1_555
O21 Sn3 1.966673 1_555
O22 S0 1.494264 1_565
O22 Sn2 2.192812 1_565
O23 S1 1.490706 1_565
O23 Sn3 2.193940 1_565
O24 S4 1.470855 1_555
O25 S5 1.461019 1_555
O26 Si8 1.629285 1_555
O27 Si9 1.630216 1_555
O28 S6 1.466720 1_555
O29 Si10 1.611517 1_555
O30 S7 1.486118 1_555
O31 S8 1.480182 1_555
O32 S9 1.457721 1_555
O33 S10 1.461180 1_555
O34 Si11 1.643465 1_555
O35 Si12 1.649519 1_555
O36 Si11 1.652434 1_555
O36 Sn4 1.986192 1_554
O37 Si12 1.635769 1_555
O37 Sn5 1.933445 1_554
O38 S7 1.498438 1_555
O38 Sn4 2.189462 1_554
O39 S8 1.499541 1_555
O39 Sn5 2.188388 1_554
O40 S9 1.508006 1_555
O40 Sn4 2.044519 1_554
O41 S10 1.517196 1_555
O41 Sn5 2.090640 1_554
O42 Si8 1.636556 1_555
O42 Sn6 1.939090 1_555
O43 Si9 1.656990 1_555
O43 Sn7 1.981840 1_555
O44 S6 1.517797 1_555
O44 Sn6 2.090705 1_555
O45 Si10 1.663222 1_555
O45 Sn7 1.988771 1_555
O46 S4 1.496624 1_555
O46 Sn6 2.161751 1_555
O47 S5 1.514594 1_555
O47 Sn7 2.211263 1_555
O48 S11 1.465032 1_555
O49 S12 1.453416 1_555
O50 Si13 1.615302 1_555
O51 Si14 1.602026 1_555
O52 Si15 1.632642 1_555
O53 Si16 1.629693 1_555
O54 S13 1.461536 1_555
O55 S14 1.467597 1_555
O56 Si17 1.629675 1_555
O57 Si18 1.634941 1_555
O58 Si19 1.617819 1_555
O59 Si20 1.599298 1_555
O60 Si19 1.655180 1_555
O60 Sn8 2.013384 1_555
O61 Si20 1.662179 1_555
O61 Sn9 2.026235 1_555
O62 S13 1.485595 1_555
O62 Sn8 2.183161 1_555
O63 S14 1.486918 1_555
O63 Sn9 2.184317 1_555
O64 Si17 1.665011 1_555
O64 Sn8 1.978918 1_555
O65 Si18 1.660386 1_555
O65 Sn9 1.976796 1_555
O66 Si13 1.637681 1_555
O66 Sn10 2.003608 1_555
O67 Si14 1.671833 1_555
O67 Sn11 2.027776 1_555
O68 Si15 1.638796 1_555
O68 Sn10 1.985658 1_555
O69 Si16 1.670180 1_555
O69 Sn11 1.981109 1_555
O70 S11 1.499529 1_555
O70 Sn10 2.173368 1_555
O71 S12 1.486845 1_555
O71 Sn11 2.172260 1_555
O72 Si19 1.627414 1_555
O73 Si20 1.628722 1_555
O74 S13 1.479235 1_555
O75 S14 1.482123 1_555
O76 Si17 1.632854 1_555
O77 Si18 1.633650 1_555
O78 Si13 1.640775 1_555
O79 Si14 1.607538 1_555
O80 Si15 1.663739 1_555
O81 Si16 1.627617 1_555
O82 S11 1.455537 1_555
O83 S12 1.490618 1_555
O84 S4 1.492898 1_555
O84 Sn1 2.257829 1_545
O85 S5 1.492028 1_555
O85 Sn0 2.228746 1_545
O86 Si8 1.667748 1_555
O86 Sn0 2.052667 1_445
O87 Si9 1.681282 1_555
O87 Sn1 2.032810 1_545
O88 S6 1.509736 1_555
O88 Sn1 2.129300 1_555
O89 Si10 1.658145 1_555
O89 Sn0 2.045714 1_555
O90 S7 1.490209 1_555
O90 Sn3 2.215772 1_565
O91 S8 1.493746 1_555
O91 Sn2 2.223937 1_665
O92 S9 1.504819 1_555
O92 Sn3 2.108972 1_555
O93 S10 1.514710 1_555
O93 Sn2 2.116585 1_655
O94 Si11 1.678860 1_555
O94 Sn2 2.009533 1_555
O95 Si12 1.672916 1_555
O95 Sn3 1.990194 1_555
O96 Si6 1.668465 1_545
O97 Si7 1.639073 1_555
O98 S2 1.480904 1_555
O99 S3 1.461644 1_555
O100 Si5 1.645260 1_555
O101 Si4 1.614194 1_555
O102 Si0 1.665927 1_555
O103 Si1 1.667268 1_555
O104 Si3 1.642461 1_555
O105 Si2 1.641025 1_555
O106 S0 1.470310 1_555
O107 S1 1.471215 1_555
O108 S11 1.515640 1_555
O108 Sn4 2.225912 1_555
O109 S12 1.503061 1_555
O109 Sn5 2.158746 1_555
O110 Si14 1.696175 1_555
O110 Sn4 2.019343 1_555
O111 Si13 1.669169 1_655
O111 Sn5 2.061630 1_555
O112 Si15 1.656461 1_545
O112 Sn4 2.001781 1_555
O113 Si16 1.655328 1_545
O113 Sn5 1.984056 1_555
O114 S13 1.500928 1_545
O114 Sn6 2.186207 1_555
O115 S14 1.496560 1_545
O115 Sn7 2.219812 1_555
O116 Si17 1.652214 1_555
O116 Sn6 1.990517 1_555
O117 Si18 1.647283 1_555
O117 Sn7 2.001185 1_555
O118 Si20 1.699840 1_555
O118 Sn6 2.049443 1_555
O119 Si19 1.683984 1_655
O119 Sn7 2.085439 1_555
O120 Si11 1.645929 1_555
O121 Si12 1.644175 1_555
O122 S8 1.471835 1_455
O123 S7 1.469457 1_555
O124 S9 1.470895 1_565
O125 S10 1.457224 1_565
O126 Si8 1.661976 1_565
O127 Si9 1.631693 1_565
O128 S6 1.457210 1_555
O129 Si10 1.646501 1_555
O130 S5 1.473515 1_455
O131 S4 1.476245 1_555
O132 S0 1.489934 1_565
O132 Sn8 2.182622 1_555
O133 S1 1.488135 1_565
O133 Sn9 2.177183 1_555
O134 Si0 1.655646 1_555
O134 Sn8 2.039375 1_555
O135 Si1 1.656019 1_555
O135 Sn9 2.048541 1_555
O136 Si2 1.683376 1_455
O136 Sn8 2.030941 1_555
O137 Si3 1.683529 1_555
O137 Sn9 2.033266 1_555
O138 S2 1.479411 1_555
O138 Sn10 2.205007 1_555
O139 S3 1.494719 1_555
O139 Sn11 2.218843 1_555
O140 Si4 1.663277 1_455
O140 Sn10 2.004190 1_555
O141 Si5 1.675644 1_555
O141 Sn11 2.036129 1_555
O142 Si6 1.645651 1_555
O142 Sn10 2.053388 1_555
O143 Si7 1.678461 1_565
O143 Sn11 2.043746 1_555
