# generated using pymatgen
data_Ni17S18
_symmetry_space_group_name_H-M   'P 1'
_cell_length_a   7.87281682
_cell_length_b   7.87281682
_cell_length_c   7.87281744
_cell_angle_alpha   81.72514079
_cell_angle_beta   81.72514079
_cell_angle_gamma   81.72514115
_symmetry_Int_Tables_number   1
_chemical_formula_structural   Ni17S18
_chemical_formula_sum   'Ni17 S18'
_cell_volume   474.06232442
_cell_formula_units_Z   1
loop_
 _symmetry_equiv_pos_site_id
 _symmetry_equiv_pos_as_xyz
  1  'x, y, z'
loop_
 _atom_site_type_symbol
 _atom_site_label
 _atom_site_symmetry_multiplicity
 _atom_site_fract_x
 _atom_site_fract_y
 _atom_site_fract_z
 _atom_site_occupancy
  Ni  Ni0  1  0.17416400  0.17416400  0.17416400  1
  Ni  Ni1  1  0.82583600  0.82583600  0.82583600  1
  Ni  Ni2  1  0.82221000  0.50000000  0.17779000  1
  Ni  Ni3  1  0.50000000  0.17779000  0.82221000  1
  Ni  Ni4  1  0.17779000  0.82221000  0.50000000  1
  Ni  Ni5  1  0.17779000  0.50000000  0.82221000  1
  Ni  Ni6  1  0.50000000  0.82221000  0.17779000  1
  Ni  Ni7  1  0.82221000  0.17779000  0.50000000  1
  Ni  Ni8  1  0.34652100  0.34652100  0.34652100  1
  Ni  Ni9  1  0.65347900  0.65347900  0.65347900  1
  Ni  Ni10  1  0.00000000  0.67533400  0.32466600  1
  Ni  Ni11  1  0.67533400  0.32466600  0.00000000  1
  Ni  Ni12  1  0.32466600  0.00000000  0.67533400  1
  Ni  Ni13  1  0.32466600  0.67533400  0.00000000  1
  Ni  Ni14  1  0.67533400  0.00000000  0.32466600  1
  Ni  Ni15  1  0.00000000  0.32466600  0.67533400  1
  Ni  Ni16  1  0.00000000  0.00000000  0.00000000  1
  S  S0  1  0.69487100  0.02081700  0.02081700  1
  S  S1  1  0.02081700  0.02081700  0.69487100  1
  S  S2  1  0.02081700  0.69487100  0.02081700  1
  S  S3  1  0.97918300  0.30512900  0.97918300  1
  S  S4  1  0.97918300  0.97918300  0.30512900  1
  S  S5  1  0.30512900  0.97918300  0.97918300  1
  S  S6  1  0.36496400  0.36496400  0.03097000  1
  S  S7  1  0.36496400  0.03097000  0.36496400  1
  S  S8  1  0.03097000  0.36496400  0.36496400  1
  S  S9  1  0.63503600  0.63503600  0.96903000  1
  S  S10  1  0.96903000  0.63503600  0.63503600  1
  S  S11  1  0.63503600  0.96903000  0.63503600  1
  S  S12  1  0.70021000  0.36016500  0.70021000  1
  S  S13  1  0.36016500  0.70021000  0.70021000  1
  S  S14  1  0.70021000  0.70021000  0.36016500  1
  S  S15  1  0.63983500  0.29979000  0.29979000  1
  S  S16  1  0.29979000  0.63983500  0.29979000  1
  S  S17  1  0.29979000  0.29979000  0.63983500  1
loop_
_geom_bond_atom_site_label_1
_geom_bond_atom_site_label_2
_geom_bond_distance
_geom_bond_site_symmetry_2
Ni0 S6 2.336305 1_555
Ni0 S8 2.336305 1_555
Ni0 S7 2.336305 1_555
Ni0 S4 2.354348 1_445
Ni0 S3 2.354348 1_454
Ni0 S5 2.354348 1_544
Ni1 S9 2.336305 1_555
Ni1 S11 2.336305 1_555
Ni1 S10 2.336305 1_555
Ni1 S1 2.354348 1_665
Ni1 S2 2.354348 1_656
Ni1 S0 2.354348 1_566
Ni2 S15 2.299396 1_555
Ni2 S14 2.299396 1_555
Ni2 S8 2.397104 1_655
Ni2 S9 2.397105 1_554
Ni2 S2 2.431943 1_655
Ni2 S3 2.431943 1_554
Ni3 S12 2.299396 1_555
Ni3 S17 2.299396 1_555
Ni3 S11 2.397104 1_545
Ni3 S6 2.397105 1_556
Ni3 S5 2.431943 1_545
Ni3 S0 2.431943 1_556
Ni4 S13 2.299396 1_555
Ni4 S16 2.299396 1_555
Ni4 S7 2.397104 1_565
Ni4 S10 2.397104 1_455
Ni4 S1 2.431943 1_565
Ni4 S4 2.431943 1_455
Ni5 S13 2.299396 1_555
Ni5 S17 2.299396 1_555
Ni5 S10 2.397104 1_455
Ni5 S6 2.397105 1_556
Ni5 S3 2.431943 1_455
Ni5 S2 2.431943 1_556
Ni6 S16 2.299396 1_555
Ni6 S14 2.299396 1_555
Ni6 S7 2.397104 1_565
Ni6 S9 2.397105 1_554
Ni6 S0 2.431943 1_565
Ni6 S5 2.431943 1_554
Ni7 S12 2.299396 1_555
Ni7 S15 2.299396 1_555
Ni7 S8 2.397104 1_655
Ni7 S11 2.397104 1_545
Ni7 S1 2.431943 1_655
Ni7 S4 2.431943 1_545
Ni8 S15 2.270027 1_555
Ni8 S16 2.270027 1_555
Ni8 S17 2.270027 1_555
Ni8 S7 2.451979 1_555
Ni8 S8 2.451979 1_555
Ni8 S6 2.451979 1_555
Ni9 S12 2.270027 1_555
Ni9 S13 2.270027 1_555
Ni9 S14 2.270027 1_555
Ni9 S11 2.451979 1_555
Ni9 S10 2.451979 1_555
Ni9 S9 2.451979 1_555
Ni10 S14 2.319441 1_455
Ni10 S16 2.319441 1_555
Ni10 S4 2.358259 1_455
Ni10 S2 2.358259 1_555
Ni10 S8 2.399659 1_555
Ni10 S10 2.399659 1_455
Ni11 S12 2.319441 1_554
Ni11 S15 2.319441 1_555
Ni11 S3 2.358259 1_554
Ni11 S0 2.358259 1_555
Ni11 S9 2.399659 1_554
Ni11 S6 2.399659 1_555
Ni12 S17 2.319441 1_555
Ni12 S13 2.319441 1_545
Ni12 S1 2.358259 1_555
Ni12 S5 2.358259 1_545
Ni12 S11 2.399659 1_545
Ni12 S7 2.399659 1_555
Ni13 S13 2.319441 1_554
Ni13 S16 2.319441 1_555
Ni13 S5 2.358259 1_554
Ni13 S2 2.358259 1_555
Ni13 S9 2.399659 1_554
Ni13 S6 2.399659 1_555
Ni14 S14 2.319441 1_545
Ni14 S15 2.319441 1_555
Ni14 S4 2.358259 1_545
Ni14 S0 2.358259 1_555
Ni14 S7 2.399659 1_555
Ni14 S11 2.399659 1_545
Ni15 S17 2.319441 1_555
Ni15 S12 2.319441 1_455
Ni15 S1 2.358259 1_555
Ni15 S3 2.358259 1_455
Ni15 S10 2.399659 1_455
Ni15 S8 2.399659 1_555
Ni16 S5 2.367591 1_544
Ni16 S3 2.367591 1_454
Ni16 S0 2.367591 1_455
Ni16 S2 2.367591 1_545
Ni16 S4 2.367591 1_445
Ni16 S1 2.367591 1_554
