# generated using pymatgen
data_NaPt2Se3
_symmetry_space_group_name_H-M   'P 1'
_cell_length_a   7.42301979
_cell_length_b   7.42301953
_cell_length_c   11.51766155
_cell_angle_alpha   90.00030897
_cell_angle_beta   89.99969516
_cell_angle_gamma   119.99959950
_symmetry_Int_Tables_number   1
_chemical_formula_structural   NaPt2Se3
_chemical_formula_sum   'Na4 Pt8 Se12'
_cell_volume   549.61416732
_cell_formula_units_Z   4
loop_
 _symmetry_equiv_pos_site_id
 _symmetry_equiv_pos_as_xyz
  1  'x, y, z'
loop_
 _atom_site_type_symbol
 _atom_site_label
 _atom_site_symmetry_multiplicity
 _atom_site_fract_x
 _atom_site_fract_y
 _atom_site_fract_z
 _atom_site_occupancy
  Na  Na0  1  0.33333909  0.66666097  0.31452569  1
  Na  Na1  1  0.66666493  0.33333508  0.81452536  1
  Na  Na2  1  -0.00000017  0.00000002  0.69155763  1
  Na  Na3  1  0.00000445  -0.00000456  0.19155947  1
  Pt  Pt0  1  0.83405711  0.16594277  0.00638310  1
  Pt  Pt1  1  0.66812555  0.83406308  0.50636877  1
  Pt  Pt2  1  0.16593687  0.33187448  0.50636871  1
  Pt  Pt3  1  0.83405646  0.66810765  0.00638618  1
  Pt  Pt4  1  0.33189224  0.16594369  0.00638616  1
  Pt  Pt5  1  0.16593676  0.83406309  0.50636820  1
  Pt  Pt6  1  0.66666654  0.33333365  0.49881676  1
  Pt  Pt7  1  0.33332980  0.66667015  0.99882907  1
  Se  Se0  1  0.49880045  0.50119955  0.61194686  1
  Se  Se1  1  0.99758800  0.49878881  0.11194062  1
  Se  Se2  1  0.50121095  0.00241208  0.11194074  1
  Se  Se3  1  0.49880056  0.99760156  0.61194734  1
  Se  Se4  1  0.15989493  0.84010539  0.89533387  1
  Se  Se5  1  0.31980185  0.15989927  0.39528912  1
  Se  Se6  1  0.84010083  0.68019820  0.39528915  1
  Se  Se7  1  0.15990194  0.31979995  0.89533169  1
  Se  Se8  1  0.68020002  0.84009774  0.89533161  1
  Se  Se9  1  0.84010171  0.15989831  0.39529087  1
  Se  Se10  1  0.50118971  0.49881054  0.11193368  1
  Se  Se11  1  0.00239841  0.50119951  0.61194737  1
loop_
_geom_bond_atom_site_label_1
_geom_bond_atom_site_label_2
_geom_bond_distance
_geom_bond_site_symmetry_2
Na0 Pt2 3.084512 1_555
Na0 Pt1 3.084512 1_555
Na0 Pt5 3.084565 1_555
Na0 Se10 3.178340 1_555
Na0 Se2 3.178522 1_565
Na0 Se1 3.178523 1_455
Na1 Pt3 3.084587 1_556
Na1 Pt4 3.084587 1_556
Na1 Pt0 3.084620 1_556
Na1 Se0 3.178367 1_555
Na1 Se11 3.178376 1_655
Na1 Se3 3.178377 1_545
Na2 Pt5 3.016794 1_545
Na2 Pt1 3.016814 1_445
Na2 Pt2 3.016816 1_555
Na2 Se4 3.120062 1_545
Na2 Se8 3.120079 1_445
Na2 Se7 3.120080 1_555
Na3 Pt3 3.016739 1_445
Na3 Pt4 3.016740 1_555
Na3 Pt0 3.016801 1_455
Na3 Se6 3.119694 1_445
Na3 Se5 3.119694 1_555
Na3 Se9 3.119722 1_455
Pt0 Se7 2.455258 1_654
Pt0 Se8 2.455260 1_544
Pt0 Se1 2.461086 1_555
Pt0 Se2 2.461088 1_555
Pt1 Se9 2.455371 1_565
Pt1 Se6 2.455386 1_555
Pt1 Se3 2.461289 1_555
Pt1 Se0 2.461308 1_555
Pt2 Se9 2.455370 1_455
Pt2 Se5 2.455386 1_555
Pt2 Se11 2.461290 1_555
Pt2 Se0 2.461308 1_555
Pt3 Se4 2.455233 1_654
Pt3 Se8 2.455287 1_554
Pt3 Se1 2.461092 1_555
Pt3 Se10 2.461143 1_555
Pt4 Se4 2.455231 1_544
Pt4 Se7 2.455286 1_554
Pt4 Se2 2.461092 1_555
Pt4 Se10 2.461144 1_555
Pt5 Se6 2.455380 1_455
Pt5 Se5 2.455381 1_565
Pt5 Se11 2.461314 1_555
Pt5 Se3 2.461315 1_555
Pt6 Se0 2.521077 1_555
Pt6 Se11 2.521101 1_655
Pt6 Se3 2.521102 1_545
Pt6 Se6 2.528635 1_555
Pt6 Se5 2.528636 1_555
Pt6 Se9 2.528637 1_555
Pt7 Se10 2.520871 1_556
Pt7 Se1 2.521036 1_456
Pt7 Se2 2.521037 1_566
Pt7 Se4 2.528481 1_555
Pt7 Se7 2.528496 1_555
Pt7 Se8 2.528497 1_555
