# generated using pymatgen
data_PuPt2
_symmetry_space_group_name_H-M   'P 1'
_cell_length_a   5.41263937
_cell_length_b   5.41263937
_cell_length_c   5.41263937
_cell_angle_alpha   60.00000000
_cell_angle_beta   60.00000000
_cell_angle_gamma   60.00000000
_symmetry_Int_Tables_number   1
_chemical_formula_structural   PuPt2
_chemical_formula_sum   'Pu2 Pt4'
_cell_volume   112.12753576
_cell_formula_units_Z   2
loop_
 _symmetry_equiv_pos_site_id
 _symmetry_equiv_pos_as_xyz
  1  'x, y, z'
loop_
 _atom_site_type_symbol
 _atom_site_label
 _atom_site_symmetry_multiplicity
 _atom_site_fract_x
 _atom_site_fract_y
 _atom_site_fract_z
 _atom_site_occupancy
  Pu  Pu0  1  0.50000000  0.50000000  0.50000000  1
  Pu  Pu1  1  0.75000000  0.75000000  0.75000000  1
  Pt  Pt0  1  0.12500000  0.12500000  0.12500000  1
  Pt  Pt1  1  0.62500000  0.12500000  0.12500000  1
  Pt  Pt2  1  0.12500000  0.62500000  0.12500000  1
  Pt  Pt3  1  0.12500000  0.12500000  0.62500000  1
loop_
_geom_bond_atom_site_label_1
_geom_bond_atom_site_label_2
_geom_bond_distance
_geom_bond_site_symmetry_2
Pu0 Pu1 3.314551 1_554
Pu0 Pu1 3.314551 1_555
Pu0 Pu1 3.314551 1_545
Pu0 Pu1 3.314551 1_455
Pt0 Pt3 2.706320 1_555
Pt0 Pt1 2.706320 1_455
Pt0 Pt1 2.706320 1_555
Pt0 Pt2 2.706320 1_555
Pt0 Pt3 2.706320 1_554
Pt0 Pt2 2.706320 1_545
Pt0 Pu1 3.173441 1_454
Pt0 Pu0 3.173441 1_545
Pt0 Pu1 3.173441 1_544
Pt0 Pu0 3.173441 1_455
Pt0 Pu1 3.173441 1_445
Pt0 Pu0 3.173441 1_554
Pt1 Pt3 2.706320 1_555
Pt1 Pt3 2.706320 1_654
Pt1 Pt2 2.706320 1_555
Pt1 Pt2 2.706320 1_645
Pt1 Pu1 3.173441 1_545
Pt1 Pu1 3.173441 1_544
Pt1 Pu0 3.173441 1_555
Pt1 Pu0 3.173441 1_554
Pt1 Pu1 3.173441 1_554
Pt1 Pu0 3.173441 1_545
Pt2 Pt3 2.706320 1_555
Pt2 Pt3 2.706320 1_564
Pt2 Pu0 3.173441 1_455
Pt2 Pu1 3.173441 1_554
Pt2 Pu0 3.173441 1_554
Pt2 Pu1 3.173441 1_455
Pt2 Pu0 3.173441 1_555
Pt2 Pu1 3.173441 1_454
Pt3 Pu1 3.173441 1_445
Pt3 Pu0 3.173441 1_455
Pt3 Pu0 3.173441 1_545
Pt3 Pu1 3.173441 1_455
Pt3 Pu0 3.173441 1_555
Pt3 Pu1 3.173441 1_545
