# generated using pymatgen
data_MgTi2Mn2O6
_symmetry_space_group_name_H-M   'P 1'
_cell_length_a   11.15934812
_cell_length_b   3.08317611
_cell_length_c   6.99110887
_cell_angle_alpha   116.18939803
_cell_angle_beta   146.06032694
_cell_angle_gamma   65.50917419
_symmetry_Int_Tables_number   1
_chemical_formula_structural   MgTi2Mn2O6
_chemical_formula_sum   'Mg1 Ti2 Mn2 O6'
_cell_volume   119.94635965
_cell_formula_units_Z   1
loop_
 _symmetry_equiv_pos_site_id
 _symmetry_equiv_pos_as_xyz
  1  'x, y, z'
loop_
 _atom_site_type_symbol
 _atom_site_label
 _atom_site_symmetry_multiplicity
 _atom_site_fract_x
 _atom_site_fract_y
 _atom_site_fract_z
 _atom_site_occupancy
  Mg  Mg0  1  0.00000000  0.00000000  0.00000000  1
  Ti  Ti0  1  0.24558200  0.30567900  0.67440100  1
  Ti  Ti1  1  0.75441800  0.69432100  0.32559900  1
  Mn  Mn0  1  0.68553500  0.77476500  0.80298600  1
  Mn  Mn1  1  0.31446500  0.22523500  0.19701400  1
  O  O0  1  0.20593300  0.56599200  0.37459000  1
  O  O1  1  0.40239000  0.89912700  0.00287000  1
  O  O2  1  0.90953100  0.34043500  0.20439400  1
  O  O3  1  0.79406700  0.43400800  0.62541000  1
  O  O4  1  0.59761000  0.10087300  0.99713000  1
  O  O5  1  0.09046900  0.65956500  0.79560600  1
loop_
_geom_bond_atom_site_label_1
_geom_bond_atom_site_label_2
_geom_bond_distance
_geom_bond_site_symmetry_2
Mg0 O5 2.086634 1_544
Mg0 O2 2.086634 1_455
Mg0 O0 2.118424 1_545
Mg0 O3 2.118424 1_454
Mg0 O0 2.118929 1_555
Mg0 O3 2.118929 1_444
Mn0 O4 2.000766 1_565
Mn0 O3 2.097723 1_555
Mn0 O2 2.195297 1_556
Mn0 O2 2.195535 1_566
Mn1 O1 2.000766 1_545
Mn1 O0 2.097723 1_555
Mn1 O5 2.195297 1_554
Mn1 O5 2.195535 1_544
O0 Ti0 2.206491 1_565
O0 Ti0 2.210172 1_555
O1 Ti0 1.990291 1_564
O1 Ti0 1.990364 1_554
O1 Ti1 2.327224 1_555
O2 Ti0 2.098440 1_655
O2 Ti1 2.226314 1_555
O3 Ti1 2.206491 1_545
O3 Ti1 2.210172 1_555
O4 Ti1 1.990291 1_546
O4 Ti1 1.990364 1_556
O4 Ti0 2.327224 1_555
O5 Ti1 2.098440 1_455
O5 Ti0 2.226314 1_555
