# generated using pymatgen
data_Na10Ta4Zn4Si7S5O48
_symmetry_space_group_name_H-M   'P 1'
_cell_length_a   17.97604194
_cell_length_b   9.10322728
_cell_length_c   22.49113735
_cell_angle_alpha   89.91589536
_cell_angle_beta   88.95394227
_cell_angle_gamma   120.35836811
_symmetry_Int_Tables_number   1
_chemical_formula_structural   Na10Ta4Zn4Si7S5O48
_chemical_formula_sum   'Na30 Ta12 Zn12 Si21 S15 O144'
_cell_volume   3175.01728482
_cell_formula_units_Z   3
loop_
 _symmetry_equiv_pos_site_id
 _symmetry_equiv_pos_as_xyz
  1  'x, y, z'
loop_
 _atom_site_type_symbol
 _atom_site_label
 _atom_site_symmetry_multiplicity
 _atom_site_fract_x
 _atom_site_fract_y
 _atom_site_fract_z
 _atom_site_occupancy
  Na  Na0  1  0.32135224  0.02293785  0.25183155  1
  Na  Na1  1  0.82001347  0.02481986  0.24582718  1
  Na  Na2  1  0.17882076  0.34268639  0.25208743  1
  Na  Na3  1  0.68002461  0.34572901  0.25203887  1
  Na  Na4  1  0.82233232  0.62150412  0.75120154  1
  Na  Na5  1  0.49610348  0.36639796  0.73991727  1
  Na  Na6  1  0.17906174  0.01088578  0.75209290  1
  Na  Na7  1  0.67745790  0.01311600  0.75195591  1
  Na  Na8  1  0.65505464  0.94796883  0.07711823  1
  Na  Na9  1  0.82906408  0.69988427  0.07218237  1
  Na  Na10  1  0.01199114  0.34426302  0.08467102  1
  Na  Na11  1  0.49027990  0.69783358  0.91206925  1
  Na  Na12  1  0.98931161  0.69576494  0.91320158  1
  Na  Na13  1  0.16121910  0.29086086  0.90657947  1
  Na  Na14  1  0.49166006  0.28430923  0.41481083  1
  Na  Na15  1  0.99135917  0.28343890  0.41480296  1
  Na  Na16  1  0.16145375  0.03167286  0.40862002  1
  Na  Na17  1  0.66130519  0.03174160  0.40837936  1
  Na  Na18  1  0.99119178  0.00316861  0.49437525  1
  Na  Na19  1  0.49136727  0.00306875  0.49404609  1
  Na  Na20  1  0.99508157  0.98178383  0.98990569  1
  Na  Na21  1  0.49370017  0.99311571  0.98834097  1
  Na  Na22  1  0.33045526  0.34906323  0.82199355  1
  Na  Na23  1  0.83166961  0.33865262  0.82668752  1
  Na  Na24  1  0.33729199  0.33804395  0.32467148  1
  Na  Na25  1  0.83691362  0.33813955  0.32376300  1
  Na  Na26  1  0.15662839  0.67845547  0.15946194  1
  Na  Na27  1  0.65123619  0.66344783  0.15835600  1
  Na  Na28  1  0.15425669  0.63540214  0.65836786  1
  Na  Na29  1  0.65776437  0.65077920  0.65517275  1
  Ta  Ta0  1  0.00734102  0.01614371  0.64683099  1
  Ta  Ta1  1  0.50472858  0.01082839  0.64639380  1
  Ta  Ta2  1  0.00583913  0.00100151  0.14552663  1
  Ta  Ta3  1  0.50292668  0.99674803  0.14773017  1
  Ta  Ta4  1  0.33591960  0.34357852  0.97754945  1
  Ta  Ta5  1  0.83468257  0.33549397  0.97882980  1
  Ta  Ta6  1  0.33389116  0.32534534  0.48047976  1
  Ta  Ta7  1  0.83385414  0.32434804  0.48040971  1
  Ta  Ta8  1  0.16669670  0.66643405  0.31415142  1
  Ta  Ta9  1  0.66735500  0.66740468  0.31353125  1
  Ta  Ta10  1  0.16971338  0.66702966  0.81207881  1
  Ta  Ta11  1  0.66929936  0.67195419  0.81488146  1
  Zn  Zn0  1  0.00570007  0.02426567  0.35070020  1
  Zn  Zn1  1  0.50461519  0.02525449  0.35117700  1
  Zn  Zn2  1  0.00511280  0.98520274  0.84997542  1
  Zn  Zn3  1  0.50722701  0.98756209  0.85134062  1
  Zn  Zn4  1  0.34194513  0.36590313  0.68529621  1
  Zn  Zn5  1  0.84529135  0.35725588  0.68523907  1
  Zn  Zn6  1  0.34280447  0.32970894  0.18539186  1
  Zn  Zn7  1  0.84437229  0.32226671  0.18304923  1
  Zn  Zn8  1  0.17132930  0.69725450  0.01585707  1
  Zn  Zn9  1  0.67226618  0.69126584  0.01604019  1
  Zn  Zn10  1  0.16804560  0.64532834  0.51808163  1
  Zn  Zn11  1  0.66763395  0.64470562  0.51780837  1
  Si  Si0  1  0.14727871  0.99870128  0.25231932  1
  Si  Si1  1  0.64672291  0.99933808  0.25333905  1
  Si  Si2  1  0.00083241  0.29778673  0.25146584  1
  Si  Si3  1  0.49990404  0.29662857  0.25148670  1
  Si  Si4  1  0.14932442  0.29697794  0.75284536  1
  Si  Si5  1  0.64767078  0.29442029  0.75155636  1
  Si  Si6  1  0.00047330  0.70473129  0.75098387  1
  Si  Si7  1  0.49815463  0.70476555  0.75251690  1
  Si  Si8  1  0.48243507  0.33916425  0.58711720  1
  Si  Si9  1  0.98363302  0.34025265  0.58544233  1
  Si  Si10  1  0.47930833  0.62277323  0.08552417  1
  Si  Si11  1  0.98315617  0.62646364  0.08349957  1
  Si  Si12  1  0.83341634  0.03757100  0.08631532  1
  Si  Si13  1  0.31124041  0.67760029  0.92110329  1
  Si  Si14  1  0.81381652  0.67063778  0.92032320  1
  Si  Si15  1  0.16811766  0.96063241  0.91794526  1
  Si  Si16  1  0.66821742  0.96737771  0.91969407  1
  Si  Si17  1  0.31171072  0.94651462  0.42100689  1
  Si  Si18  1  0.81167854  0.94620476  0.42089596  1
  Si  Si19  1  0.16884027  0.37446282  0.41879723  1
  Si  Si20  1  0.66883276  0.37493727  0.41878016  1
  S  S0  1  0.35503385  0.71135014  0.25206250  1
  S  S1  1  0.85588324  0.71206611  0.25116724  1
  S  S2  1  0.35514419  0.99347657  0.75125241  1
  S  S3  1  0.85602672  -0.00007917  0.75134189  1
  S  S4  1  0.18714619  0.04069576  0.58561421  1
  S  S5  1  0.68652465  0.04042196  0.58587906  1
  S  S6  1  0.33579261  0.62773899  0.58393419  1
  S  S7  1  0.83575816  0.62839684  0.58491887  1
  S  S8  1  0.33523124  0.04234386  0.08528226  1
  S  S9  1  0.18891590  0.33312362  0.08522676  1
  S  S10  1  0.68568203  0.32957712  0.08530310  1
  S  S11  1  0.02026929  0.37548882  0.91785737  1
  S  S12  1  0.52202827  0.37500732  0.91844373  1
  S  S13  1  0.01966112  0.66491818  0.41833888  1
  S  S14  1  0.51995989  0.66477925  0.41831864  1
  O  O0  1  0.10573322  0.02353290  0.31212766  1
  O  O1  1  0.60039980  0.01626969  0.31180207  1
  O  O2  1  0.40522020  0.78847422  0.30433742  1
  O  O3  1  0.90635111  0.78987426  0.30333220  1
  O  O4  1  0.48175714  0.18486570  0.31092060  1
  O  O5  1  0.98356918  0.18397136  0.31002689  1
  O  O6  1  0.10568373  0.18677731  0.81216680  1
  O  O7  1  0.59941201  0.17551607  0.80697187  1
  O  O8  1  0.48469916  0.77794918  0.81317304  1
  O  O9  1  0.98164630  0.77934941  0.81037003  1
  O  O10  1  0.40670127  0.02025052  0.80358397  1
  O  O11  1  0.90555296  0.02259960  0.80414057  1
  O  O12  1  0.39740172  0.97018158  0.69590408  1
  O  O13  1  0.89754501  0.97138811  0.69660906  1
  O  O14  1  0.08307574  0.19613265  0.69423328  1
  O  O15  1  0.58149450  0.19883903  0.69195770  1
  O  O16  1  0.01493219  0.84109114  0.69378944  1
  O  O17  1  0.51374324  0.83900002  0.69462054  1
  O  O18  1  0.39727057  0.82266041  0.19679043  1
  O  O19  1  0.89691545  0.82207185  0.19536439  1
  O  O20  1  0.01698137  0.19798239  0.19219229  1
  O  O21  1  0.51369019  0.18877293  0.19410351  1
  O  O22  1  0.08284926  0.97157560  0.19438895  1
  O  O23  1  0.58336724  0.97117691  0.19304216  1
  O  O24  1  0.43262254  0.34150990  0.64637397  1
  O  O25  1  0.92964320  0.34141569  0.64123776  1
  O  O26  1  0.23555583  0.12397560  0.63823178  1
  O  O27  1  0.73386759  0.12300515  0.63904558  1
  O  O28  1  0.32171493  0.52658124  0.63785377  1
  O  O29  1  0.82214050  0.53096364  0.64028777  1
  O  O30  1  0.42777899  0.51596622  0.14225638  1
  O  O31  1  0.93260188  0.51201945  0.14008597  1
  O  O32  1  0.32159489  0.11223307  0.14067314  1
  O  O33  1  0.81003982  0.10743461  0.14488744  1
  O  O34  1  0.23581762  0.34671439  0.13893861  1
  O  O35  1  0.73355824  0.35152950  0.13957169  1
  O  O36  1  0.23203244  0.30863622  0.03025464  1
  O  O37  1  0.73009676  0.30080550  0.03215772  1
  O  O38  1  0.41895846  0.52547031  0.02477344  1
  O  O39  1  0.91976045  0.53649379  0.02350185  1
  O  O40  1  0.34657210  0.15511510  0.03240953  1
  O  O41  1  0.84945696  0.17469858  0.02967823  1
  O  O42  1  0.23073629  0.15591413  0.52990406  1
  O  O43  1  0.73059062  0.15523808  0.53043117  1
  O  O44  1  0.34636084  0.53686131  0.53023225  1
  O  O45  1  0.84533379  0.53346031  0.53217697  1
  O  O46  1  0.41869883  0.31477467  0.52720200  1
  O  O47  1  0.92039803  0.31356387  0.52433296  1
  O  O48  1  0.25957676  0.66809061  0.97981149  1
  O  O49  1  0.76668995  0.67335019  0.98057349  1
  O  O50  1  0.06794804  0.44424767  0.97243633  1
  O  O51  1  0.57190039  0.45506355  0.97050593  1
  O  O52  1  0.13794330  0.83016175  0.97233885  1
  O  O53  1  0.64702225  0.84768536  0.97708007  1
  O  O54  1  0.25775560  0.84532093  0.47773790  1
  O  O55  1  0.75788575  0.84536195  0.47781361  1
  O  O56  1  0.13944083  0.45182519  0.47059878  1
  O  O57  1  0.63899970  0.45092242  0.47091079  1
  O  O58  1  0.07097912  0.69345372  0.47064994  1
  O  O59  1  0.57103207  0.69300206  0.47078235  1
  O  O60  1  0.06241123  0.63137340  0.36351455  1
  O  O61  1  0.56240778  0.63127177  0.36354796  1
  O  O62  1  0.24947267  0.86426579  0.35934495  1
  O  O63  1  0.74907868  0.86314431  0.35941815  1
  O  O64  1  0.18212464  0.49814394  0.35675450  1
  O  O65  1  0.68170357  0.49819344  0.35684241  1
  O  O66  1  0.06498056  0.49438959  0.86483529  1
  O  O67  1  0.56227262  0.49034742  0.86260543  1
  O  O68  1  0.18203877  0.86537330  0.85707574  1
  O  O69  1  0.68022752  0.86277355  0.85933783  1
  O  O70  1  0.24714963  0.63412236  0.86162364  1
  O  O71  1  0.75104420  0.64237791  0.86009262  1
  O  O72  1  0.00546620  0.80536653  0.40687816  1
  O  O73  1  0.50521027  0.80461356  0.40728273  1
  O  O74  1  0.40873633  0.98585327  0.41330473  1
  O  O75  1  0.90877216  0.98586209  0.41304743  1
  O  O76  1  0.09154585  0.17859468  0.41315432  1
  O  O77  1  0.59164690  0.17881359  0.41317488  1
  O  O78  1  0.00571463  0.20564431  0.90732736  1
  O  O79  1  0.50458224  0.20431079  0.90828399  1
  O  O80  1  0.09171284  0.00488708  0.91268397  1
  O  O81  1  0.58707513  0.99345856  0.91380677  1
  O  O82  1  0.40751359  0.83235034  0.91310483  1
  O  O83  1  0.90922082  0.83348816  0.91264721  1
  O  O84  1  0.48593088  0.15351242  0.59068938  1
  O  O85  1  0.98767486  0.15522925  0.59051976  1
  O  O86  1  0.09975407  0.03371297  0.58688491  1
  O  O87  1  0.59888396  0.03221094  0.58694615  1
  O  O88  1  0.41908110  0.79841795  0.58680926  1
  O  O89  1  0.91865716  0.79893992  0.58682566  1
  O  O90  1  0.48780764  0.82112075  0.09100483  1
  O  O91  1  0.98724109  0.81665240  0.09038215  1
  O  O92  1  0.41807737  0.03539603  0.08859901  1
  O  O93  1  0.92654547  0.03549976  0.09100070  1
  O  O94  1  0.10073773  0.16624684  0.08630507  1
  O  O95  1  0.59912039  0.16064172  0.08774723  1
  O  O96  1  0.33764581  0.13296483  0.74354217  1
  O  O97  1  0.83373955  0.13186951  0.74345755  1
  O  O98  1  0.23922896  0.30124373  0.74058127  1
  O  O99  1  0.74102855  0.31283941  0.74034850  1
  O  O100  1  0.42403308  0.50805816  0.74761459  1
  O  O101  1  0.91695874  0.51850144  0.74619342  1
  O  O102  1  0.33396742  0.53583063  0.24385744  1
  O  O103  1  0.83493155  0.53662962  0.24270881  1
  O  O104  1  0.41661079  0.31613336  0.24640426  1
  O  O105  1  0.91882685  0.32169020  0.24721825  1
  O  O106  1  0.24078743  0.16975984  0.24141202  1
  O  O107  1  0.73911271  0.17285824  0.24499122  1
  O  O108  1  0.31943454  0.49086740  0.92533091  1
  O  O109  1  0.82408516  0.49397393  0.92418111  1
  O  O110  1  0.43458836  0.37075293  0.92202220  1
  O  O111  1  0.93480690  0.37322121  0.92023895  1
  O  O112  1  0.25871133  0.15063659  0.92727656  1
  O  O113  1  0.75979679  0.15335513  0.92508504  1
  O  O114  1  0.32015697  0.14827481  0.42630959  1
  O  O115  1  0.81935621  0.14742028  0.42611224  1
  O  O116  1  0.25930821  0.36579677  0.42628959  1
  O  O117  1  0.75922126  0.36618285  0.42643935  1
  O  O118  1  0.43383616  0.49723760  0.42209716  1
  O  O119  1  0.93356635  0.49818418  0.42190568  1
  O  O120  1  0.17131769  0.47094893  0.07842740  1
  O  O121  1  0.67058275  0.46985876  0.07599887  1
  O  O122  1  0.07515309  0.63549580  0.07738983  1
  O  O123  1  0.57577984  0.65699429  0.07878334  1
  O  O124  1  0.26217442  0.86947903  0.07933273  1
  O  O125  1  0.75631185  0.84322622  0.08097635  1
  O  O126  1  0.17347633  0.87211613  0.57692847  1
  O  O127  1  0.67344965  0.87201145  0.57743161  1
  O  O128  1  0.26328024  0.65562839  0.57791657  1
  O  O129  1  0.76265762  0.65499719  0.57838153  1
  O  O130  1  0.07756703  0.50517815  0.57864181  1
  O  O131  1  0.57623900  0.50481625  0.57962284  1
  O  O132  1  0.15965224  0.82854522  0.25634874  1
  O  O133  1  0.65824807  0.82822831  0.25677003  1
  O  O134  1  0.26909250  0.71044051  0.25412925  1
  O  O135  1  0.76923342  0.70947915  0.25421384  1
  O  O136  1  0.09425680  0.48478574  0.25584230  1
  O  O137  1  0.59321722  0.48283466  0.25550738  1
  O  O138  1  0.15610377  0.48583519  0.75773340  1
  O  O139  1  0.65513563  0.48580172  0.75637985  1
  O  O140  1  0.09352590  0.70403113  0.75587265  1
  O  O141  1  0.59295469  0.70089525  0.75613200  1
  O  O142  1  0.26811134  0.82937018  0.75418954  1
  O  O143  1  0.76890419  0.82845095  0.75422992  1
loop_
_geom_bond_atom_site_label_1
_geom_bond_atom_site_label_2
_geom_bond_distance
_geom_bond_site_symmetry_2
Na0 O104 2.332903 1_555
Na0 O106 2.430377 1_555
Na0 O134 2.504833 1_545
Na0 O132 2.525903 1_545
Na0 O32 2.627019 1_555
Na0 O62 2.755403 1_545
Na0 O4 2.846512 1_555
Na1 O105 2.368447 1_555
Na1 O33 2.428562 1_555
Na1 O107 2.431729 1_555
Na1 O133 2.536033 1_545
Na1 O135 2.540215 1_545
Na2 O106 2.353795 1_555
Na2 O102 2.434611 1_555
Na2 O136 2.444277 1_555
Na2 O34 2.719171 1_555
Na2 O64 2.734566 1_555
Na2 O0 2.838292 1_555
Na2 O20 2.878915 1_555
Na2 O134 2.890453 1_555
Na3 O107 2.305208 1_555
Na3 O103 2.429862 1_555
Na3 O137 2.442002 1_555
Na3 O35 2.680796 1_555
Na3 O65 2.730064 1_555
Na3 O135 2.859117 1_555
Na3 O1 2.903277 1_555
Na3 O21 2.917024 1_555
Na4 O101 2.321819 1_555
Na4 O99 2.440254 1_555
Na4 O143 2.510570 1_555
Na4 O139 2.608958 1_555
Na4 O29 2.627875 1_555
Na4 O71 2.794498 1_555
Na4 O9 2.832383 1_555
Na5 O100 2.247797 1_555
Na5 O24 2.368042 1_555
Na5 O139 2.527844 1_555
Na5 O96 2.551177 1_555
Na5 O141 2.665313 1_555
Na5 O15 2.856117 1_555
Na6 O98 2.306807 1_555
Na6 O140 2.413989 1_545
Na6 O96 2.485082 1_555
Na6 O68 2.720256 1_545
Na6 O26 2.736733 1_555
Na6 O142 2.823331 1_545
Na6 O6 2.864501 1_555
Na6 O16 2.889818 1_545
Na7 O99 2.377780 1_555
Na7 O97 2.451009 1_555
Na7 O141 2.454460 1_545
Na7 O27 2.711287 1_555
Na7 O7 2.779106 1_555
Na7 O69 2.787834 1_545
Na7 O17 2.874996 1_545
Na7 O143 2.885625 1_545
Na8 O123 2.287052 1_555
Na8 O53 2.408582 1_554
Na8 O125 2.447381 1_555
Na8 O95 2.603173 1_565
Na8 O90 2.631562 1_555
Na8 O33 2.875045 1_565
Na8 O23 2.942315 1_555
Na8 O37 2.952946 1_565
Na9 O125 2.273418 1_555
Na9 O49 2.317924 1_554
Na9 O91 2.524086 1_555
Na9 O121 2.543368 1_555
Na9 O93 2.683885 1_565
Na9 O39 2.908598 1_555
Na10 O122 2.300837 1_555
Na10 O93 2.430367 1_455
Na10 O120 2.489717 1_555
Na10 O50 2.680925 1_554
Na10 O20 2.783620 1_555
Na10 O94 2.790631 1_555
Na10 O41 2.833331 1_455
Na10 O31 2.840017 1_455
Na11 O81 2.353919 1_555
Na11 O82 2.356695 1_555
Na11 O8 2.359397 1_555
Na11 O110 2.625758 1_555
Na11 O108 2.680783 1_555
Na11 O53 2.865105 1_555
Na11 O38 2.892641 1_556
Na11 O67 2.984025 1_555
Na12 O83 2.338782 1_555
Na12 O9 2.461589 1_555
Na12 O80 2.463814 1_665
Na12 O111 2.586749 1_555
Na12 O109 2.591118 1_555
Na12 O52 2.689763 1_655
Na12 O39 2.804180 1_556
Na13 O80 2.249868 1_555
Na13 O6 2.351719 1_555
Na13 O78 2.494471 1_555
Na13 O108 2.528532 1_555
Na13 O112 2.684546 1_555
Na13 O70 2.868340 1_555
Na14 O74 2.348009 1_545
Na14 O77 2.428295 1_555
Na14 O4 2.483833 1_555
Na14 O118 2.625974 1_555
Na14 O57 2.640926 1_555
Na14 O114 2.686234 1_555
Na14 O46 2.904405 1_555
Na14 O61 2.966173 1_555
Na15 O75 2.341175 1_545
Na15 O76 2.427113 1_655
Na15 O5 2.506569 1_555
Na15 O119 2.640843 1_555
Na15 O56 2.648288 1_655
Na15 O115 2.694143 1_555
Na15 O47 2.830514 1_555
Na15 O60 2.973255 1_655
Na16 O76 2.252346 1_555
Na16 O0 2.392373 1_555
Na16 O72 2.504672 1_545
Na16 O114 2.530913 1_555
Na16 O116 2.669163 1_555
Na16 O62 2.903847 1_545
Na16 O58 2.985628 1_545
Na16 O42 2.996751 1_555
Na17 O77 2.249918 1_555
Na17 O1 2.422505 1_555
Na17 O73 2.507460 1_545
Na17 O115 2.521589 1_555
Na17 O117 2.673029 1_555
Na17 O63 2.906373 1_545
Na17 O59 2.992988 1_545
Na17 O43 3.011500 1_555
Na18 O75 2.330142 1_545
Na18 O76 2.469955 1_655
Na18 O85 2.586184 1_555
Na18 O89 2.630477 1_545
Na18 O72 2.764020 1_645
Na18 O86 2.795765 1_655
Na19 O74 2.322210 1_545
Na19 O77 2.464539 1_555
Na19 O84 2.597311 1_555
Na19 O88 2.637172 1_545
Na19 O73 2.753305 1_545
Na19 O87 2.793262 1_555
Na20 O83 2.285314 1_555
Na20 O80 2.365915 1_665
Na20 O91 2.674067 1_556
Na20 O78 2.687205 1_665
Na20 O93 2.727048 1_566
Na20 O94 2.839906 1_666
Na21 O82 2.283979 1_555
Na21 O81 2.349371 1_555
Na21 O79 2.563860 1_565
Na21 O92 2.738659 1_566
Na21 O90 2.758095 1_556
Na21 O95 2.856391 1_566
Na22 O100 2.269830 1_555
Na22 O98 2.371051 1_555
Na22 O96 2.694209 1_555
Na22 O108 2.712543 1_555
Na22 O112 2.838019 1_555
Na22 O110 2.895839 1_555
Na23 O101 2.379348 1_555
Na23 O99 2.492135 1_555
Na23 O109 2.649327 1_555
Na23 O113 2.663452 1_555
Na23 O97 2.669745 1_555
Na23 O111 2.741921 1_555
Na24 O104 2.316976 1_555
Na24 O106 2.510700 1_555
Na24 O102 2.579177 1_555
Na24 O116 2.737741 1_555
Na24 O118 2.742150 1_555
Na24 O114 2.780217 1_555
Na25 O105 2.299025 1_555
Na25 O107 2.437455 1_555
Na25 O103 2.578229 1_555
Na25 O117 2.755526 1_555
Na25 O119 2.757615 1_555
Na25 O115 2.796552 1_555
Na26 O122 2.286307 1_555
Na26 O124 2.530325 1_555
Na26 O132 2.560504 1_555
Na26 O136 2.639362 1_555
Na26 O120 2.730643 1_555
Na26 O134 2.875631 1_555
Na27 O123 2.248252 1_555
Na27 O125 2.453953 1_555
Na27 O137 2.595835 1_555
Na27 O133 2.644643 1_555
Na27 O121 2.695033 1_555
Na27 O135 2.931565 1_555
Na28 O130 2.228380 1_555
Na28 O128 2.579464 1_555
Na28 O138 2.624671 1_555
Na28 O140 2.645251 1_555
Na28 O126 2.707499 1_555
Na28 O142 2.910418 1_555
Na29 O131 2.220305 1_555
Na29 O129 2.519424 1_555
Na29 O127 2.567155 1_555
Na29 O141 2.676778 1_555
Na29 O139 2.711714 1_555
Na29 O143 2.911664 1_555
O0 Si0 1.597857 1_545
O0 Zn0 1.985290 1_555
O1 Si1 1.592630 1_545
O1 Zn1 1.960239 1_555
O2 S0 1.445696 1_555
O2 Zn1 2.265117 1_565
O3 S1 1.446726 1_555
O3 Zn0 2.258653 1_665
O4 Si3 1.604056 1_555
O4 Zn1 1.926902 1_555
O5 Si2 1.600191 1_655
O5 Zn0 1.924255 1_655
O6 Si4 1.601331 1_555
O6 Zn2 1.986116 1_545
O7 Si5 1.576387 1_555
O7 Zn3 1.933385 1_545
O8 Si7 1.586490 1_555
O8 Zn3 1.943802 1_555
O9 Si6 1.605760 1_655
O9 Zn2 1.924217 1_655
O10 S2 1.454651 1_545
O10 Zn3 2.262998 1_545
O11 S3 1.448767 1_555
O11 Zn2 2.250287 1_645
O12 S2 1.516811 1_555
O12 Ta1 2.073134 1_565
O13 S3 1.517627 1_565
O13 Ta0 2.102394 1_665
O14 Si4 1.718882 1_555
O14 Ta0 1.864953 1_555
O15 Si5 1.727532 1_555
O15 Ta1 1.884977 1_555
O16 Si6 1.708842 1_555
O16 Ta0 1.973215 1_565
O17 Si7 1.703883 1_555
O17 Ta1 1.976646 1_565
O18 S0 1.527339 1_555
O18 Ta3 2.052354 1_555
O19 S1 1.529036 1_555
O19 Ta2 2.105730 1_665
O20 Si2 1.715510 1_555
O20 Ta2 2.001821 1_555
O21 Si3 1.711458 1_555
O21 Ta3 1.962593 1_545
O22 Si0 1.693201 1_555
O22 Ta2 1.904047 1_565
O23 Si1 1.721686 1_555
O23 Ta3 1.891312 1_555
O24 Si8 1.598224 1_555
O24 Zn4 1.946010 1_555
O25 Si9 1.575679 1_555
O25 Zn5 1.861726 1_555
O26 S4 1.451170 1_555
O26 Zn4 2.334860 1_555
O27 S5 1.453409 1_555
O27 Zn5 2.324575 1_555
O28 S6 1.460363 1_555
O28 Zn4 1.989354 1_555
O29 S7 1.470908 1_555
O29 Zn5 2.090860 1_555
O30 Si10 1.572993 1_555
O30 Zn6 1.863455 1_555
O31 Si11 1.589921 1_555
O31 Zn7 1.898116 1_555
O32 S8 1.471633 1_555
O32 Zn6 2.081626 1_555
O33 Si12 1.602769 1_555
O33 Zn7 1.935576 1_555
O34 S9 1.455228 1_555
O34 Zn6 2.277734 1_555
O35 S10 1.461372 1_555
O35 Zn7 2.366846 1_555
O36 S9 1.522999 1_555
O36 Ta4 2.076404 1_554
O37 S10 1.520603 1_555
O37 Ta5 2.095065 1_554
O38 Si10 1.707269 1_555
O38 Ta4 1.913807 1_554
O39 Si11 1.704804 1_555
O39 Ta5 1.982244 1_554
O40 S8 1.511810 1_555
O40 Ta4 2.199307 1_554
O41 Si12 1.697686 1_555
O41 Ta5 1.979940 1_554
O42 S4 1.553581 1_555
O42 Ta6 2.020347 1_555
O43 S5 1.548661 1_555
O43 Ta7 2.027678 1_555
O44 S6 1.527326 1_555
O44 Ta6 2.142209 1_555
O45 S7 1.526295 1_555
O45 Ta7 2.154084 1_555
O46 Si8 1.725695 1_555
O46 Ta6 1.908957 1_555
O47 Si9 1.737540 1_555
O47 Ta7 1.901582 1_555
O48 Si13 1.577057 1_555
O48 Zn8 1.903571 1_556
O49 Si14 1.591819 1_555
O49 Zn9 1.942863 1_556
O50 S11 1.460009 1_555
O50 Zn8 2.336307 1_556
O51 S12 1.444418 1_555
O51 Zn9 2.253859 1_556
O52 Si15 1.588020 1_555
O52 Zn8 1.879875 1_556
O53 Si16 1.598905 1_555
O53 Zn9 1.914498 1_556
O54 Si17 1.570214 1_555
O54 Zn10 1.926777 1_555
O55 Si18 1.571815 1_555
O55 Zn11 1.929810 1_555
O56 Si19 1.577593 1_555
O56 Zn10 1.902054 1_555
O57 Si20 1.579603 1_555
O57 Zn11 1.896535 1_555
O58 S13 1.449487 1_555
O58 Zn10 2.283381 1_555
O59 S14 1.450248 1_555
O59 Zn11 2.272636 1_555
O60 S13 1.551760 1_555
O60 Ta8 2.041307 1_555
O61 S14 1.547512 1_555
O61 Ta9 2.055935 1_555
O62 Si17 1.717151 1_555
O62 Ta8 1.960214 1_555
O63 Si18 1.717471 1_555
O63 Ta9 1.952714 1_555
O64 Si19 1.727221 1_555
O64 Ta8 1.943418 1_555
O65 Si20 1.724617 1_555
O65 Ta9 1.947958 1_555
O66 S11 1.523652 1_555
O66 Ta10 2.084333 1_555
O67 S12 1.548596 1_555
O67 Ta11 2.071480 1_555
O68 Si15 1.702691 1_555
O68 Ta10 1.985586 1_555
O69 Si16 1.731189 1_555
O69 Ta11 1.929534 1_555
O70 Si13 1.694256 1_555
O70 Ta10 1.935525 1_555
O71 Si14 1.714048 1_555
O71 Ta11 1.928580 1_555
O72 S13 1.448242 1_555
O72 Zn0 2.356103 1_565
O73 S14 1.447386 1_555
O73 Zn1 2.375180 1_565
O74 Si17 1.599282 1_555
O74 Zn1 2.082646 1_565
O75 Si18 1.599820 1_555
O75 Zn0 2.101922 1_665
O76 Si19 1.621345 1_555
O76 Zn0 2.054673 1_555
O77 Si20 1.622229 1_555
O77 Zn1 2.054461 1_555
O78 S11 1.452415 1_555
O78 Zn2 2.382670 1_545
O79 S12 1.440906 1_555
O79 Zn3 2.373962 1_545
O80 Si15 1.621040 1_545
O80 Zn2 2.060009 1_545
O81 Si16 1.599523 1_555
O81 Zn3 2.008217 1_555
O82 Si13 1.592310 1_555
O82 Zn3 2.117147 1_555
O83 Si14 1.608488 1_555
O83 Zn2 2.089204 1_655
O84 Si8 1.724455 1_555
O84 Ta1 1.955828 1_555
O85 Si9 1.725879 1_555
O85 Ta0 1.948376 1_655
O86 S4 1.539546 1_555
O86 Ta0 2.062051 1_555
O87 S5 1.538744 1_555
O87 Ta1 2.067333 1_555
O88 S6 1.520622 1_555
O88 Ta1 2.231354 1_565
O89 S7 1.515503 1_555
O89 Ta0 2.274323 1_665
O90 Si10 1.738168 1_555
O90 Ta3 1.958849 1_555
O91 Si11 1.702809 1_555
O91 Ta2 1.980005 1_665
O92 S8 1.525342 1_555
O92 Ta3 2.198635 1_545
O93 Si12 1.688902 1_555
O93 Ta2 2.037021 1_655
O94 S9 1.544453 1_555
O94 Ta2 2.065020 1_555
O95 S10 1.538527 1_555
O95 Ta3 2.082593 1_545
O96 S2 1.465083 1_545
O96 Zn4 2.457864 1_555
O97 S3 1.457098 1_555
O97 Zn5 2.349217 1_555
O98 Si4 1.615462 1_555
O98 Zn4 2.029116 1_555
O99 Si5 1.614937 1_555
O99 Zn5 2.088116 1_555
O100 Si7 1.608793 1_555
O100 Zn4 1.991787 1_555
O101 Si6 1.604136 1_655
O101 Zn5 1.962823 1_555
O102 S0 1.456781 1_555
O102 Zn6 2.361363 1_555
O103 S1 1.457424 1_555
O103 Zn7 2.443628 1_555
O104 Si3 1.600427 1_555
O104 Zn6 1.972378 1_555
O105 Si2 1.599647 1_655
O105 Zn7 1.987931 1_555
O106 Si0 1.627423 1_545
O106 Zn6 2.069253 1_555
O107 Si1 1.620066 1_545
O107 Zn7 2.160511 1_555
O108 Si13 1.781414 1_555
O108 Ta4 1.916931 1_555
O109 Si14 1.711195 1_555
O109 Ta5 1.977239 1_555
O110 S12 1.553205 1_555
O110 Ta4 2.059490 1_555
O111 S11 1.525901 1_655
O111 Ta5 2.093121 1_555
O112 Si15 1.689415 1_545
O112 Ta4 1.971985 1_555
O113 Si16 1.667845 1_545
O113 Ta5 1.957442 1_555
O114 Si17 1.769196 1_545
O114 Ta6 1.938576 1_555
O115 Si18 1.770215 1_545
O115 Ta7 1.935577 1_555
O116 Si19 1.678980 1_555
O116 Ta6 1.993978 1_555
O117 Si20 1.678439 1_555
O117 Ta7 1.998232 1_555
O118 S14 1.529132 1_555
O118 Ta6 2.113454 1_555
O119 S13 1.525147 1_655
O119 Ta7 2.118735 1_555
O120 S9 1.449145 1_555
O120 Zn8 2.493097 1_555
O121 S10 1.449097 1_555
O121 Zn9 2.410533 1_555
O122 Si11 1.617012 1_455
O122 Zn8 2.036718 1_555
O123 Si10 1.603616 1_555
O123 Zn9 2.111725 1_555
O124 S8 1.461841 1_565
O124 Zn8 2.160253 1_555
O125 Si12 1.610439 1_565
O125 Zn9 2.074396 1_555
O126 S4 1.440505 1_565
O126 Zn10 2.415046 1_555
O127 S5 1.442196 1_565
O127 Zn11 2.425996 1_555
O128 S6 1.456949 1_555
O128 Zn10 2.161673 1_555
O129 S7 1.461367 1_555
O129 Zn11 2.169368 1_555
O130 Si9 1.598766 1_455
O130 Zn10 1.986150 1_555
O131 Si8 1.601354 1_555
O131 Zn11 2.012543 1_555
O132 Si0 1.674985 1_555
O132 Ta8 2.018224 1_555
O133 Si1 1.673793 1_555
O133 Ta9 2.011047 1_555
O134 S0 1.540567 1_555
O134 Ta8 2.129154 1_555
O135 S1 1.546109 1_555
O135 Ta9 2.116778 1_555
O136 Si2 1.686612 1_555
O136 Ta8 2.010488 1_555
O137 Si3 1.681385 1_555
O137 Ta9 2.027002 1_555
O138 Si4 1.664899 1_555
O138 Ta10 1.970656 1_555
O139 Si5 1.682193 1_555
O139 Ta11 2.061639 1_555
O140 Si6 1.681548 1_555
O140 Ta10 2.028653 1_555
O141 Si7 1.725587 1_555
O141 Ta11 2.032099 1_555
O142 S2 1.522243 1_555
O142 Ta10 2.067811 1_555
O143 S3 1.555120 1_565
O143 Ta11 2.103097 1_555
