# generated using pymatgen
data_MgMn6O12
_symmetry_space_group_name_H-M   'P 1'
_cell_length_a   5.88827200
_cell_length_b   18.92359554
_cell_length_c   19.13170440
_cell_angle_alpha   91.60074011
_cell_angle_beta   90.00000000
_cell_angle_gamma   90.00000000
_symmetry_Int_Tables_number   1
_chemical_formula_structural   MgMn6O12
_chemical_formula_sum   'Mg8 Mn48 O96'
_cell_volume   2130.96181644
_cell_formula_units_Z   8
loop_
 _symmetry_equiv_pos_site_id
 _symmetry_equiv_pos_as_xyz
  1  'x, y, z'
loop_
 _atom_site_type_symbol
 _atom_site_label
 _atom_site_symmetry_multiplicity
 _atom_site_fract_x
 _atom_site_fract_y
 _atom_site_fract_z
 _atom_site_occupancy
  Mg  Mg0_0  1  0.25000000  0.25000000  0.25000000  1
  Mg  Mg0_1  1  0.25000000  0.25000000  0.75000000  1
  Mg  Mg0_2  1  0.25000000  0.75000000  0.25000000  1
  Mg  Mg0_3  1  0.25000000  0.75000000  0.75000000  1
  Mg  Mg0_4  1  0.75000000  0.25000000  0.25000000  1
  Mg  Mg0_5  1  0.75000000  0.25000000  0.75000000  1
  Mg  Mg0_6  1  0.75000000  0.75000000  0.25000000  1
  Mg  Mg0_7  1  0.75000000  0.75000000  0.75000000  1
  Mn  Mn0_0  1  0.25000000  0.00000000  0.25000000  1
  Mn  Mn0_1  1  0.25000000  0.00000000  0.75000000  1
  Mn  Mn0_2  1  0.25000000  0.50000000  0.25000000  1
  Mn  Mn0_3  1  0.25000000  0.50000000  0.75000000  1
  Mn  Mn0_4  1  0.75000000  0.00000000  0.25000000  1
  Mn  Mn0_5  1  0.75000000  0.00000000  0.75000000  1
  Mn  Mn0_6  1  0.75000000  0.50000000  0.25000000  1
  Mn  Mn0_7  1  0.75000000  0.50000000  0.75000000  1
  Mn  Mn1_0  1  0.00000000  0.49386800  0.11692850  1
  Mn  Mn1_1  1  0.00000000  0.49386800  0.61692850  1
  Mn  Mn1_2  1  0.00000000  0.99386800  0.11692850  1
  Mn  Mn1_3  1  0.00000000  0.99386800  0.61692850  1
  Mn  Mn1_4  1  0.50000000  0.49386800  0.11692850  1
  Mn  Mn1_5  1  0.50000000  0.49386800  0.61692850  1
  Mn  Mn1_6  1  0.50000000  0.99386800  0.11692850  1
  Mn  Mn1_7  1  0.50000000  0.99386800  0.61692850  1
  Mn  Mn2_0  1  0.00000000  0.00613200  0.38307150  1
  Mn  Mn2_1  1  0.00000000  0.00613200  0.88307150  1
  Mn  Mn2_2  1  0.00000000  0.50613200  0.38307150  1
  Mn  Mn2_3  1  0.00000000  0.50613200  0.88307150  1
  Mn  Mn2_4  1  0.50000000  0.00613200  0.38307150  1
  Mn  Mn2_5  1  0.50000000  0.00613200  0.88307150  1
  Mn  Mn2_6  1  0.50000000  0.50613200  0.38307150  1
  Mn  Mn2_7  1  0.50000000  0.50613200  0.88307150  1
  Mn  Mn3_0  1  0.00000000  0.25000000  0.00000000  1
  Mn  Mn3_1  1  0.00000000  0.25000000  0.50000000  1
  Mn  Mn3_2  1  0.00000000  0.75000000  0.00000000  1
  Mn  Mn3_3  1  0.00000000  0.75000000  0.50000000  1
  Mn  Mn3_4  1  0.50000000  0.25000000  0.00000000  1
  Mn  Mn3_5  1  0.50000000  0.25000000  0.50000000  1
  Mn  Mn3_6  1  0.50000000  0.75000000  0.00000000  1
  Mn  Mn3_7  1  0.50000000  0.75000000  0.50000000  1
  Mn  Mn4_0  1  0.25000000  0.11670250  0.01000500  1
  Mn  Mn4_1  1  0.25000000  0.11670250  0.51000500  1
  Mn  Mn4_2  1  0.25000000  0.61670250  0.01000500  1
  Mn  Mn4_3  1  0.25000000  0.61670250  0.51000500  1
  Mn  Mn4_4  1  0.75000000  0.11670250  0.01000500  1
  Mn  Mn4_5  1  0.75000000  0.11670250  0.51000500  1
  Mn  Mn4_6  1  0.75000000  0.61670250  0.01000500  1
  Mn  Mn4_7  1  0.75000000  0.61670250  0.51000500  1
  Mn  Mn5_0  1  0.25000000  0.38329750  0.48999500  1
  Mn  Mn5_1  1  0.25000000  0.38329750  0.98999500  1
  Mn  Mn5_2  1  0.25000000  0.88329750  0.48999500  1
  Mn  Mn5_3  1  0.25000000  0.88329750  0.98999500  1
  Mn  Mn5_4  1  0.75000000  0.38329750  0.48999500  1
  Mn  Mn5_5  1  0.75000000  0.38329750  0.98999500  1
  Mn  Mn5_6  1  0.75000000  0.88329750  0.48999500  1
  Mn  Mn5_7  1  0.75000000  0.88329750  0.98999500  1
  O  O0_0  1  0.25000000  0.45317750  0.41905100  1
  O  O0_1  1  0.25000000  0.45317750  0.91905100  1
  O  O0_2  1  0.25000000  0.95317750  0.41905100  1
  O  O0_3  1  0.25000000  0.95317750  0.91905100  1
  O  O0_4  1  0.75000000  0.45317750  0.41905100  1
  O  O0_5  1  0.75000000  0.45317750  0.91905100  1
  O  O0_6  1  0.75000000  0.95317750  0.41905100  1
  O  O0_7  1  0.75000000  0.95317750  0.91905100  1
  O  O1_0  1  0.25000000  0.04682250  0.08094900  1
  O  O1_1  1  0.25000000  0.04682250  0.58094900  1
  O  O1_2  1  0.25000000  0.54682250  0.08094900  1
  O  O1_3  1  0.25000000  0.54682250  0.58094900  1
  O  O1_4  1  0.75000000  0.04682250  0.08094900  1
  O  O1_5  1  0.75000000  0.04682250  0.58094900  1
  O  O1_6  1  0.75000000  0.54682250  0.08094900  1
  O  O1_7  1  0.75000000  0.54682250  0.58094900  1
  O  O2_0  1  0.00000000  0.44972200  0.29291800  1
  O  O2_1  1  0.00000000  0.44972200  0.79291800  1
  O  O2_2  1  0.00000000  0.94972200  0.29291800  1
  O  O2_3  1  0.00000000  0.94972200  0.79291800  1
  O  O2_4  1  0.50000000  0.44972200  0.29291800  1
  O  O2_5  1  0.50000000  0.44972200  0.79291800  1
  O  O2_6  1  0.50000000  0.94972200  0.29291800  1
  O  O2_7  1  0.50000000  0.94972200  0.79291800  1
  O  O3_0  1  0.00000000  0.05027800  0.20708200  1
  O  O3_1  1  0.00000000  0.05027800  0.70708200  1
  O  O3_2  1  0.00000000  0.55027800  0.20708200  1
  O  O3_3  1  0.00000000  0.55027800  0.70708200  1
  O  O3_4  1  0.50000000  0.05027800  0.20708200  1
  O  O3_5  1  0.50000000  0.05027800  0.70708200  1
  O  O3_6  1  0.50000000  0.55027800  0.20708200  1
  O  O3_7  1  0.50000000  0.55027800  0.70708200  1
  O  O4_0  1  0.25000000  0.44501700  0.16369700  1
  O  O4_1  1  0.25000000  0.44501700  0.66369700  1
  O  O4_2  1  0.25000000  0.94501700  0.16369700  1
  O  O4_3  1  0.25000000  0.94501700  0.66369700  1
  O  O4_4  1  0.75000000  0.44501700  0.16369700  1
  O  O4_5  1  0.75000000  0.44501700  0.66369700  1
  O  O4_6  1  0.75000000  0.94501700  0.16369700  1
  O  O4_7  1  0.75000000  0.94501700  0.66369700  1
  O  O5_0  1  0.25000000  0.05498300  0.33630300  1
  O  O5_1  1  0.25000000  0.05498300  0.83630300  1
  O  O5_2  1  0.25000000  0.55498300  0.33630300  1
  O  O5_3  1  0.25000000  0.55498300  0.83630300  1
  O  O5_4  1  0.75000000  0.05498300  0.33630300  1
  O  O5_5  1  0.75000000  0.05498300  0.83630300  1
  O  O5_6  1  0.75000000  0.55498300  0.33630300  1
  O  O5_7  1  0.75000000  0.55498300  0.83630300  1
  O  O6_0  1  0.00000000  0.42517950  0.04057000  1
  O  O6_1  1  0.00000000  0.42517950  0.54057000  1
  O  O6_2  1  0.00000000  0.92517950  0.04057000  1
  O  O6_3  1  0.00000000  0.92517950  0.54057000  1
  O  O6_4  1  0.50000000  0.42517950  0.04057000  1
  O  O6_5  1  0.50000000  0.42517950  0.54057000  1
  O  O6_6  1  0.50000000  0.92517950  0.04057000  1
  O  O6_7  1  0.50000000  0.92517950  0.54057000  1
  O  O7_0  1  0.00000000  0.07482050  0.45943000  1
  O  O7_1  1  0.00000000  0.07482050  0.95943000  1
  O  O7_2  1  0.00000000  0.57482050  0.45943000  1
  O  O7_3  1  0.00000000  0.57482050  0.95943000  1
  O  O7_4  1  0.50000000  0.07482050  0.45943000  1
  O  O7_5  1  0.50000000  0.07482050  0.95943000  1
  O  O7_6  1  0.50000000  0.57482050  0.45943000  1
  O  O7_7  1  0.50000000  0.57482050  0.95943000  1
  O  O8_0  1  0.25000000  0.29837300  0.04773200  1
  O  O8_1  1  0.25000000  0.29837300  0.54773200  1
  O  O8_2  1  0.25000000  0.79837300  0.04773200  1
  O  O8_3  1  0.25000000  0.79837300  0.54773200  1
  O  O8_4  1  0.75000000  0.29837300  0.04773200  1
  O  O8_5  1  0.75000000  0.29837300  0.54773200  1
  O  O8_6  1  0.75000000  0.79837300  0.04773200  1
  O  O8_7  1  0.75000000  0.79837300  0.54773200  1
  O  O9_0  1  0.25000000  0.20162700  0.45226800  1
  O  O9_1  1  0.25000000  0.20162700  0.95226800  1
  O  O9_2  1  0.25000000  0.70162700  0.45226800  1
  O  O9_3  1  0.25000000  0.70162700  0.95226800  1
  O  O9_4  1  0.75000000  0.20162700  0.45226800  1
  O  O9_5  1  0.75000000  0.20162700  0.95226800  1
  O  O9_6  1  0.75000000  0.70162700  0.45226800  1
  O  O9_7  1  0.75000000  0.70162700  0.95226800  1
  O  O10_0  1  0.00000000  0.16796550  0.05730250  1
  O  O10_1  1  0.00000000  0.16796550  0.55730250  1
  O  O10_2  1  0.00000000  0.66796550  0.05730250  1
  O  O10_3  1  0.00000000  0.66796550  0.55730250  1
  O  O10_4  1  0.50000000  0.16796550  0.05730250  1
  O  O10_5  1  0.50000000  0.16796550  0.55730250  1
  O  O10_6  1  0.50000000  0.66796550  0.05730250  1
  O  O10_7  1  0.50000000  0.66796550  0.55730250  1
  O  O11_0  1  0.00000000  0.33203450  0.44269750  1
  O  O11_1  1  0.00000000  0.33203450  0.94269750  1
  O  O11_2  1  0.00000000  0.83203450  0.44269750  1
  O  O11_3  1  0.00000000  0.83203450  0.94269750  1
  O  O11_4  1  0.50000000  0.33203450  0.44269750  1
  O  O11_5  1  0.50000000  0.33203450  0.94269750  1
  O  O11_6  1  0.50000000  0.83203450  0.44269750  1
  O  O11_7  1  0.50000000  0.83203450  0.94269750  1
loop_
_geom_bond_atom_site_label_1
_geom_bond_atom_site_label_2
_geom_bond_distance
_geom_bond_site_symmetry_2
Mg0_0 Mg0_4 2.944136 1_555
Mg0_0 Mg0_4 2.944136 1_455
Mg0_1 Mg0_5 2.944136 1_555
Mg0_1 Mg0_5 2.944136 1_455
Mg0_2 Mg0_6 2.944136 1_555
Mg0_2 Mg0_6 2.944136 1_455
Mg0_3 Mg0_7 2.944136 1_555
Mg0_3 Mg0_7 2.944136 1_455
Mn0_0 O4_2 1.926868 1_545
Mn0_0 O5_0 1.926868 1_555
Mn0_0 O3_0 1.946809 1_555
Mn0_0 O3_4 1.946809 1_555
Mn0_0 O2_6 1.946809 1_545
Mn0_0 O2_2 1.946809 1_545
Mn0_1 O5_1 1.926868 1_555
Mn0_1 O4_3 1.926868 1_545
Mn0_1 O2_3 1.946809 1_545
Mn0_1 O2_7 1.946809 1_545
Mn0_1 O3_1 1.946809 1_555
Mn0_1 O3_5 1.946809 1_555
Mn0_2 O4_0 1.926868 1_555
Mn0_2 O5_2 1.926868 1_555
Mn0_2 O3_2 1.946809 1_555
Mn0_2 O3_6 1.946809 1_555
Mn0_2 O2_4 1.946809 1_555
Mn0_2 O2_0 1.946809 1_555
Mn0_3 O5_3 1.926868 1_555
Mn0_3 O4_1 1.926868 1_555
Mn0_3 O2_1 1.946809 1_555
Mn0_3 O2_5 1.946809 1_555
Mn0_3 O3_3 1.946809 1_555
Mn0_3 O3_7 1.946809 1_555
Mn0_4 O4_6 1.926868 1_545
Mn0_4 O5_4 1.926868 1_555
Mn0_4 O3_4 1.946809 1_555
Mn0_4 O2_6 1.946809 1_545
Mn0_4 O3_0 1.946809 1_655
Mn0_4 O2_2 1.946809 1_645
Mn0_5 O5_5 1.926868 1_555
Mn0_5 O4_7 1.926868 1_545
Mn0_5 O2_7 1.946809 1_545
Mn0_5 O2_3 1.946809 1_645
Mn0_5 O3_5 1.946809 1_555
Mn0_5 O3_1 1.946809 1_655
Mn0_6 O4_4 1.926868 1_555
Mn0_6 O5_6 1.926868 1_555
Mn0_6 O3_6 1.946809 1_555
Mn0_6 O2_4 1.946809 1_555
Mn0_6 O3_2 1.946809 1_655
Mn0_6 O2_0 1.946809 1_655
Mn0_7 O5_7 1.926868 1_555
Mn0_7 O4_5 1.926868 1_555
Mn0_7 O2_5 1.946809 1_555
Mn0_7 O3_7 1.946809 1_555
Mn0_7 O2_1 1.946809 1_655
Mn0_7 O3_3 1.946809 1_655
Mn1_0 O1_2 1.919252 1_555
Mn1_0 O1_6 1.919252 1_455
Mn1_0 O6_0 1.928111 1_555
Mn1_0 O4_0 1.966819 1_555
Mn1_0 O4_4 1.966819 1_455
Mn1_0 O3_2 2.002885 1_555
Mn1_1 O1_3 1.919252 1_555
Mn1_1 O1_7 1.919252 1_455
Mn1_1 O6_1 1.928111 1_555
Mn1_1 O4_1 1.966819 1_555
Mn1_1 O4_5 1.966819 1_455
Mn1_1 O3_3 2.002885 1_555
Mn1_2 O1_0 1.919252 1_565
Mn1_2 O1_4 1.919252 1_465
Mn1_2 O6_2 1.928111 1_555
Mn1_2 O4_2 1.966819 1_555
Mn1_2 O4_6 1.966819 1_455
Mn1_2 O3_0 2.002885 1_565
Mn1_3 O1_1 1.919252 1_565
Mn1_3 O1_5 1.919252 1_465
Mn1_3 O6_3 1.928111 1_555
Mn1_3 O4_3 1.966819 1_555
Mn1_3 O4_7 1.966819 1_455
Mn1_3 O3_1 2.002885 1_565
Mn1_4 O1_2 1.919252 1_555
Mn1_4 O1_6 1.919252 1_555
Mn1_4 O6_4 1.928111 1_555
Mn1_4 O4_0 1.966819 1_555
Mn1_4 O4_4 1.966819 1_555
Mn1_4 O3_6 2.002885 1_555
Mn1_5 O1_7 1.919252 1_555
Mn1_5 O1_3 1.919252 1_555
Mn1_5 O6_5 1.928111 1_555
Mn1_5 O4_1 1.966819 1_555
Mn1_5 O4_5 1.966819 1_555
Mn1_5 O3_7 2.002885 1_555
Mn1_6 O1_0 1.919252 1_565
Mn1_6 O1_4 1.919252 1_565
Mn1_6 O6_6 1.928111 1_555
Mn1_6 O4_2 1.966819 1_555
Mn1_6 O4_6 1.966819 1_555
Mn1_6 O3_4 2.002885 1_565
Mn1_7 O1_1 1.919252 1_565
Mn1_7 O1_5 1.919252 1_565
Mn1_7 O6_7 1.928111 1_555
Mn1_7 O4_3 1.966819 1_555
Mn1_7 O4_7 1.966819 1_555
Mn1_7 O3_5 2.002885 1_565
Mn2_0 O0_2 1.919252 1_545
Mn2_0 O0_6 1.919252 1_445
Mn2_0 O7_0 1.928111 1_555
Mn2_0 O5_0 1.966819 1_555
Mn2_0 O5_4 1.966819 1_455
Mn2_0 O2_2 2.002885 1_545
Mn2_1 O0_3 1.919252 1_545
Mn2_1 O0_7 1.919252 1_445
Mn2_1 O7_1 1.928111 1_555
Mn2_1 O5_1 1.966819 1_555
Mn2_1 O5_5 1.966819 1_455
Mn2_1 O2_3 2.002885 1_545
Mn2_2 O0_0 1.919252 1_555
Mn2_2 O0_4 1.919252 1_455
Mn2_2 O7_2 1.928111 1_555
Mn2_2 O5_2 1.966819 1_555
Mn2_2 O5_6 1.966819 1_455
Mn2_2 O2_0 2.002885 1_555
Mn2_3 O0_1 1.919252 1_555
Mn2_3 O0_5 1.919252 1_455
Mn2_3 O7_3 1.928111 1_555
Mn2_3 O5_3 1.966819 1_555
Mn2_3 O5_7 1.966819 1_455
Mn2_3 O2_1 2.002885 1_555
Mn2_4 O0_2 1.919252 1_545
Mn2_4 O0_6 1.919252 1_545
Mn2_4 O7_4 1.928111 1_555
Mn2_4 O5_4 1.966819 1_555
Mn2_4 O5_0 1.966819 1_555
Mn2_4 O2_6 2.002885 1_545
Mn2_5 O0_7 1.919252 1_545
Mn2_5 O0_3 1.919252 1_545
Mn2_5 O7_5 1.928111 1_555
Mn2_5 O5_1 1.966819 1_555
Mn2_5 O5_5 1.966819 1_555
Mn2_5 O2_7 2.002885 1_545
Mn2_6 O0_0 1.919252 1_555
Mn2_6 O0_4 1.919252 1_555
Mn2_6 O7_6 1.928111 1_555
Mn2_6 O5_2 1.966819 1_555
Mn2_6 O5_6 1.966819 1_555
Mn2_6 O2_4 2.002885 1_555
Mn2_7 O0_1 1.919252 1_555
Mn2_7 O0_5 1.919252 1_555
Mn2_7 O7_7 1.928111 1_555
Mn2_7 O5_3 1.966819 1_555
Mn2_7 O5_7 1.966819 1_555
Mn2_7 O2_5 2.002885 1_555
Mn3_0 O10_0 1.925319 1_555
Mn3_0 O11_1 1.925319 1_554
Mn3_0 O8_0 1.947343 1_555
Mn3_0 O8_4 1.947343 1_455
Mn3_0 O9_1 1.947343 1_554
Mn3_0 O9_5 1.947343 1_454
Mn3_1 O10_1 1.925319 1_555
Mn3_1 O11_0 1.925319 1_555
Mn3_1 O8_1 1.947343 1_555
Mn3_1 O8_5 1.947343 1_455
Mn3_1 O9_0 1.947343 1_555
Mn3_1 O9_4 1.947343 1_455
Mn3_2 O10_2 1.925319 1_555
Mn3_2 O11_3 1.925319 1_554
Mn3_2 O8_2 1.947343 1_555
Mn3_2 O8_6 1.947343 1_455
Mn3_2 O9_3 1.947343 1_554
Mn3_2 O9_7 1.947343 1_454
Mn3_3 O10_3 1.925319 1_555
Mn3_3 O11_2 1.925319 1_555
Mn3_3 O9_2 1.947343 1_555
Mn3_3 O9_6 1.947343 1_455
Mn3_3 O8_3 1.947343 1_555
Mn3_3 O8_7 1.947343 1_455
Mn3_4 O10_4 1.925319 1_555
Mn3_4 O11_5 1.925319 1_554
Mn3_4 O8_0 1.947343 1_555
Mn3_4 O8_4 1.947343 1_555
Mn3_4 O9_5 1.947343 1_554
Mn3_4 O9_1 1.947343 1_554
Mn3_5 O10_5 1.925319 1_555
Mn3_5 O11_4 1.925319 1_555
Mn3_5 O8_1 1.947343 1_555
Mn3_5 O8_5 1.947343 1_555
Mn3_5 O9_4 1.947343 1_555
Mn3_5 O9_0 1.947343 1_555
Mn3_6 O10_6 1.925319 1_555
Mn3_6 O11_7 1.925319 1_554
Mn3_6 O8_2 1.947343 1_555
Mn3_6 O8_6 1.947343 1_555
Mn3_6 O9_7 1.947343 1_554
Mn3_6 O9_3 1.947343 1_554
Mn3_7 O10_7 1.925319 1_555
Mn3_7 O11_6 1.925319 1_555
Mn3_7 O9_2 1.947343 1_555
Mn3_7 O9_6 1.947343 1_555
Mn3_7 O8_3 1.947343 1_555
Mn3_7 O8_7 1.947343 1_555
Mn4_0 O7_5 1.920550 1_554
Mn4_0 O7_1 1.920550 1_554
Mn4_0 O1_0 1.921243 1_555
Mn4_0 O10_0 1.969215 1_555
Mn4_0 O10_4 1.969215 1_555
Mn4_0 O9_1 1.975356 1_554
Mn4_1 O7_0 1.920550 1_555
Mn4_1 O7_4 1.920550 1_555
Mn4_1 O1_1 1.921243 1_555
Mn4_1 O10_5 1.969215 1_555
Mn4_1 O10_1 1.969215 1_555
Mn4_1 O9_0 1.975356 1_555
Mn4_2 O7_7 1.920550 1_554
Mn4_2 O7_3 1.920550 1_554
Mn4_2 O1_2 1.921243 1_555
Mn4_2 O10_6 1.969215 1_555
Mn4_2 O10_2 1.969215 1_555
Mn4_2 O9_3 1.975356 1_554
Mn4_3 O7_6 1.920550 1_555
Mn4_3 O7_2 1.920550 1_555
Mn4_3 O1_3 1.921243 1_555
Mn4_3 O10_3 1.969215 1_555
Mn4_3 O10_7 1.969215 1_555
Mn4_3 O9_2 1.975356 1_555
Mn4_4 O7_5 1.920550 1_554
Mn4_4 O7_1 1.920550 1_654
Mn4_4 O1_4 1.921243 1_555
Mn4_4 O10_4 1.969215 1_555
Mn4_4 O10_0 1.969215 1_655
Mn4_4 O9_5 1.975356 1_554
Mn4_5 O7_4 1.920550 1_555
Mn4_5 O7_0 1.920550 1_655
Mn4_5 O1_5 1.921243 1_555
Mn4_5 O10_5 1.969215 1_555
Mn4_5 O10_1 1.969215 1_655
Mn4_5 O9_4 1.975356 1_555
Mn4_6 O7_7 1.920550 1_554
Mn4_6 O7_3 1.920550 1_654
Mn4_6 O1_6 1.921243 1_555
Mn4_6 O10_6 1.969215 1_555
Mn4_6 O10_2 1.969215 1_655
Mn4_6 O9_7 1.975356 1_554
Mn4_7 O7_6 1.920550 1_555
Mn4_7 O7_2 1.920550 1_655
Mn4_7 O1_7 1.921243 1_555
Mn4_7 O10_7 1.969215 1_555
Mn4_7 O10_3 1.969215 1_655
Mn4_7 O9_6 1.975356 1_555
Mn5_0 O6_1 1.920550 1_555
Mn5_0 O6_5 1.920550 1_555
Mn5_0 O0_0 1.921243 1_555
Mn5_0 O11_4 1.969215 1_555
Mn5_0 O11_0 1.969215 1_555
Mn5_0 O8_1 1.975356 1_555
Mn5_1 O6_0 1.920550 1_556
Mn5_1 O6_4 1.920550 1_556
Mn5_1 O0_1 1.921243 1_555
Mn5_1 O11_1 1.969215 1_555
Mn5_1 O11_5 1.969215 1_555
Mn5_1 O8_0 1.975356 1_556
Mn5_2 O6_3 1.920550 1_555
Mn5_2 O6_7 1.920550 1_555
Mn5_2 O0_2 1.921243 1_555
Mn5_2 O11_2 1.969215 1_555
Mn5_2 O11_6 1.969215 1_555
Mn5_2 O8_3 1.975356 1_555
Mn5_3 O6_2 1.920550 1_556
Mn5_3 O6_6 1.920550 1_556
Mn5_3 O0_3 1.921243 1_555
Mn5_3 O11_3 1.969215 1_555
Mn5_3 O11_7 1.969215 1_555
Mn5_3 O8_2 1.975356 1_556
Mn5_4 O6_5 1.920550 1_555
Mn5_4 O6_1 1.920550 1_655
Mn5_4 O0_4 1.921243 1_555
Mn5_4 O11_4 1.969215 1_555
Mn5_4 O11_0 1.969215 1_655
Mn5_4 O8_5 1.975356 1_555
Mn5_5 O6_4 1.920550 1_556
Mn5_5 O6_0 1.920550 1_656
Mn5_5 O0_5 1.921243 1_555
Mn5_5 O11_5 1.969215 1_555
Mn5_5 O11_1 1.969215 1_655
Mn5_5 O8_4 1.975356 1_556
Mn5_6 O6_7 1.920550 1_555
Mn5_6 O6_3 1.920550 1_655
Mn5_6 O0_6 1.921243 1_555
Mn5_6 O11_6 1.969215 1_555
Mn5_6 O11_2 1.969215 1_655
Mn5_6 O8_7 1.975356 1_555
Mn5_7 O6_6 1.920550 1_556
Mn5_7 O6_2 1.920550 1_656
Mn5_7 O0_7 1.921243 1_555
Mn5_7 O11_7 1.969215 1_555
Mn5_7 O11_3 1.969215 1_655
Mn5_7 O8_6 1.975356 1_556
