# generated using pymatgen
data_Cu2P7
_symmetry_space_group_name_H-M   'P 1'
_cell_length_a   7.23226440
_cell_length_b   7.27930015
_cell_length_c   14.52881971
_cell_angle_alpha   76.25465520
_cell_angle_beta   75.58794552
_cell_angle_gamma   60.21351759
_symmetry_Int_Tables_number   1
_chemical_formula_structural   Cu2P7
_chemical_formula_sum   'Cu8 P28'
_cell_volume   637.00086022
_cell_formula_units_Z   4
loop_
 _symmetry_equiv_pos_site_id
 _symmetry_equiv_pos_as_xyz
  1  'x, y, z'
loop_
 _atom_site_type_symbol
 _atom_site_label
 _atom_site_symmetry_multiplicity
 _atom_site_fract_x
 _atom_site_fract_y
 _atom_site_fract_z
 _atom_site_occupancy
  Cu  Cu0  1  0.28172419  0.01034380  0.42620782  1
  Cu  Cu1  1  0.71827581  0.98965620  0.57379218  1
  Cu  Cu2  1  0.38069788  0.44474035  0.79386089  1
  Cu  Cu3  1  0.61930212  0.55525965  0.20613911  1
  Cu  Cu4  1  0.15606722  0.65515488  0.03270968  1
  Cu  Cu5  1  0.84393278  0.34484512  0.96729032  1
  Cu  Cu6  1  0.03355411  0.28876041  0.64413237  1
  Cu  Cu7  1  0.96644589  0.71123959  0.35586763  1
  P  P0  1  0.95892607  0.21933756  0.37743758  1
  P  P1  1  0.55570021  0.78066244  0.62256242  1
  P  P2  1  0.04107393  0.78066244  0.62256242  1
  P  P3  1  0.44429979  0.21933756  0.37743758  1
  P  P4  1  0.97111225  0.36490983  0.22426251  1
  P  P5  1  0.56028658  0.63509017  0.77573749  1
  P  P6  1  0.02888775  0.63509017  0.77573749  1
  P  P7  1  0.43971342  0.36490983  0.22426251  1
  P  P8  1  0.77643517  0.03968971  0.40744195  1
  P  P9  1  0.22356483  0.96031029  0.59255805  1
  P  P10  1  0.89534005  0.41342230  0.79589660  1
  P  P11  1  0.10465995  0.58657770  0.20410340  1
  P  P12  1  0.65358489  0.64891352  0.04391670  1
  P  P13  1  0.34641511  0.35108748  0.95608330  1
  P  P14  1  0.52764609  0.30035253  0.64435329  1
  P  P15  1  0.47235391  0.69964747  0.35564671  1
  P  P16  1  0.64258499  0.16632516  0.01825991  1
  P  P17  1  0.82717205  0.83367484  0.98174009  1
  P  P18  1  0.35741501  0.83367484  0.98174009  1
  P  P19  1  0.17282795  0.16632516  0.01825991  1
  P  P20  1  0.27355306  0.53924578  0.42201785  1
  P  P21  1  0.23481670  0.46075422  0.57798215  1
  P  P22  1  0.72644694  0.46075422  0.57798215  1
  P  P23  1  0.76518330  0.53924578  0.42201785  1
  P  P24  1  0.53779807  0.06998142  0.16931855  1
  P  P25  1  0.77709704  0.93001858  0.83068145  1
  P  P26  1  0.46220193  0.93001858  0.83068145  1
  P  P27  1  0.22290296  0.06998142  0.16931855  1
loop_
_geom_bond_atom_site_label_1
_geom_bond_atom_site_label_2
_geom_bond_distance
_geom_bond_site_symmetry_2
Cu0 P0 2.247039 1_455
Cu0 P3 2.247045 1_555
Cu0 P15 2.316703 1_545
Cu0 P9 2.319202 1_545
Cu1 P2 2.247039 1_655
Cu1 P1 2.247045 1_555
Cu1 P14 2.316703 1_565
Cu1 P8 2.319202 1_565
Cu2 P6 2.262855 1_555
Cu2 P5 2.262886 1_555
Cu2 P13 2.279187 1_555
Cu2 P14 2.403845 1_555
Cu3 P4 2.262855 1_555
Cu3 P7 2.262886 1_555
Cu3 P12 2.279187 1_555
Cu3 P15 2.403845 1_555
Cu4 P17 2.289875 1_454
Cu4 P18 2.289893 1_554
Cu4 P13 2.326889 1_554
Cu4 P11 2.391877 1_555
Cu5 P19 2.289875 1_656
Cu5 P16 2.289893 1_556
Cu5 P12 2.326895 1_556
Cu5 P10 2.391877 1_555
Cu6 P21 2.269873 1_555
Cu6 P22 2.269878 1_455
Cu6 P9 2.289256 1_545
Cu6 P10 2.374228 1_455
Cu7 P23 2.269873 1_555
Cu7 P20 2.269878 1_655
Cu7 P8 2.289256 1_565
Cu7 P11 2.374228 1_655
P0 P8 2.190790 1_555
P0 P23 2.197464 1_555
P0 P4 2.226609 1_555
P1 P9 2.190796 1_555
P1 P22 2.197464 1_555
P1 P5 2.226609 1_555
P2 P9 2.190790 1_555
P2 P21 2.197464 1_555
P2 P6 2.226609 1_555
P3 P8 2.190796 1_555
P3 P7 2.226609 1_555
P10 P5 2.192089 1_555
P10 P6 2.192106 1_655
P11 P7 2.192089 1_555
P11 P4 2.192106 1_455
P12 P18 2.176373 1_554
P12 P17 2.176385 1_554
P13 P16 2.176373 1_556
P13 P19 2.176390 1_556
P14 P21 2.191588 1_555
P14 P22 2.191599 1_555
P15 P23 2.191588 1_555
P15 P20 2.191599 1_555
P16 P24 2.202628 1_555
P16 P17 2.230116 1_544
P17 P25 2.202633 1_555
P18 P26 2.202628 1_555
P18 P19 2.230116 1_566
P19 P27 2.202633 1_555
P20 P21 2.183430 1_555
P20 P3 2.197464 1_555
P22 P23 2.183430 1_555
P24 P7 2.183792 1_555
P24 P27 2.277405 1_555
P25 P6 2.183797 1_655
P25 P26 2.277405 1_555
P26 P5 2.183792 1_555
P27 P4 2.183797 1_455
