# generated using pymatgen
data_TaIn3SiS5O24
_symmetry_space_group_name_H-M   'P 1'
_cell_length_a   8.90023120
_cell_length_b   8.94321920
_cell_length_c   23.11618062
_cell_angle_alpha   90.28971912
_cell_angle_beta   89.98147057
_cell_angle_gamma   120.03794720
_symmetry_Int_Tables_number   1
_chemical_formula_structural   TaIn3SiS5O24
_chemical_formula_sum   'Ta3 In9 Si3 S15 O72'
_cell_volume   1592.82739740
_cell_formula_units_Z   3
loop_
 _symmetry_equiv_pos_site_id
 _symmetry_equiv_pos_as_xyz
  1  'x, y, z'
loop_
 _atom_site_type_symbol
 _atom_site_label
 _atom_site_symmetry_multiplicity
 _atom_site_fract_x
 _atom_site_fract_y
 _atom_site_fract_z
 _atom_site_occupancy
  Ta  Ta0  1  0.67100073  0.33786516  0.97468601  1
  Ta  Ta1  1  0.33225715  0.67318546  0.30922004  1
  Ta  Ta2  1  0.33051698  0.65731834  0.81730252  1
  In  In0  1  0.00845965  0.00325535  0.35136343  1
  In  In1  1  0.99331666  0.99837789  0.85672694  1
  In  In2  1  0.99808670  0.99904869  0.64856658  1
  In  In3  1  0.00716695  0.99761891  0.14353616  1
  In  In4  1  0.66833344  0.33463399  0.68632275  1
  In  In5  1  0.65770337  0.32459128  0.18668225  1
  In  In6  1  0.66546828  0.33245828  0.47813974  1
  In  In7  1  0.33661269  0.66263860  0.02028766  1
  In  In8  1  0.33452751  0.66694228  0.52077060  1
  Si  Si0  1  0.29050883  0.00828789  0.24921298  1
  Si  Si1  1  0.62341942  0.66775965  0.91926249  1
  Si  Si2  1  0.04662384  0.37760701  0.91893137  1
  S  S0  1  0.70561111  0.70813844  0.25109433  1
  S  S1  1  0.00059260  0.29537145  0.25125579  1
  S  S2  1  0.29208920  0.29459999  0.75033205  1
  S  S3  1  0.00555685  0.70969610  0.75009976  1
  S  S4  1  0.70112327  0.99689853  0.74967660  1
  S  S5  1  0.95852431  0.33194463  0.58291895  1
  S  S6  1  0.37376015  0.04141139  0.58308784  1
  S  S7  1  0.66769508  0.62571150  0.58316042  1
  S  S8  1  0.95073744  0.61725542  0.08278344  1
  S  S9  1  0.66813612  0.04435962  0.08220822  1
  S  S10  1  0.37963464  0.33414517  0.08235806  1
  S  S11  1  0.33761389  0.95630818  0.91706637  1
  S  S12  1  0.62332281  0.95393775  0.41528276  1
  S  S13  1  0.33321792  0.38000037  0.41642870  1
  S  S14  1  0.04506732  0.66523811  0.41642503  1
  O  O0  1  0.21378934  0.03224715  0.30918396  1
  O  O1  1  0.80681819  0.78550646  0.30399566  1
  O  O2  1  0.96665372  0.18934435  0.30336495  1
  O  O3  1  0.21460168  0.18554555  0.80066960  1
  O  O4  1  0.97528180  0.78922280  0.80056125  1
  O  O5  1  0.81377963  0.03106276  0.79947356  1
  O  O6  1  0.77168330  0.95996779  0.69619613  1
  O  O7  1  0.18556994  0.22470483  0.69705378  1
  O  O8  1  0.03805491  0.81453973  0.69665660  1
  O  O9  1  0.76865540  0.81887788  0.19974168  1
  O  O10  1  0.04254241  0.22770834  0.19958307  1
  O  O11  1  0.16497754  0.94899432  0.19319291  1
  O  O12  1  0.88104091  0.36334177  0.63510532  1
  O  O13  1  0.48257146  0.11950398  0.63519569  1
  O  O14  1  0.63675855  0.51757075  0.63514803  1
  O  O15  1  0.87395822  0.51414169  0.13552143  1
  O  O16  1  0.64372372  0.12089362  0.13541524  1
  O  O17  1  0.48314646  0.36231805  0.13524642  1
  O  O18  1  0.47146456  0.31117252  0.03137849  1
  O  O19  1  0.83632165  0.52032699  0.03111350  1
  O  O20  1  0.68916933  0.15621072  0.03101817  1
  O  O21  1  0.45142326  0.14834163  0.53061634  1
  O  O22  1  0.69824751  0.54840400  0.53061152  1
  O  O23  1  0.85000317  0.30127816  0.53048513  1
  O  O24  1  0.54643982  0.70741263  0.97468843  1
  O  O25  1  0.15135808  0.46478108  0.97570325  1
  O  O26  1  0.30507158  0.85405400  0.96935270  1
  O  O27  1  0.54781311  0.85009453  0.46814887  1
  O  O28  1  0.30788805  0.45780125  0.46986909  1
  O  O29  1  0.15189059  0.69532367  0.46893130  1
  O  O30  1  0.13854057  0.64288895  0.36526295  1
  O  O31  1  0.50672523  0.85977895  0.36445435  1
  O  O32  1  0.35609916  0.49159218  0.36548235  1
  O  O33  1  0.13873740  0.51021148  0.86071830  1
  O  O34  1  0.37052031  0.87278943  0.86470199  1
  O  O35  1  0.49170686  0.63575310  0.86113410  1
  O  O36  1  0.02185570  0.81372876  0.40891487  1
  O  O37  1  0.79412180  0.97263814  0.40551926  1
  O  O38  1  0.17730677  0.20976231  0.41045208  1
  O  O39  1  0.02504121  0.19746717  0.90382530  1
  O  O40  1  0.19464277  0.98371746  0.90467917  1
  O  O41  1  0.81315025  0.81012225  0.90402108  1
  O  O42  1  0.97620238  0.17750006  0.59066504  1
  O  O43  1  0.20065427  0.02342256  0.59083568  1
  O  O44  1  0.82296113  0.79821541  0.59075424  1
  O  O45  1  0.95318312  0.78328761  0.08468030  1
  O  O46  1  0.82783544  0.03159444  0.08768512  1
  O  O47  1  0.20797148  0.17476396  0.08513297  1
  O  O48  1  0.67978540  0.14965325  0.74108531  1
  O  O49  1  0.46893511  0.32213047  0.74195796  1
  O  O50  1  0.85275754  0.53445172  0.74199636  1
  O  O51  1  0.68228765  0.53710345  0.24262418  1
  O  O52  1  0.86084740  0.33235100  0.24311598  1
  O  O53  1  0.48683360  0.16016281  0.24363437  1
  O  O54  1  0.62650091  0.48368478  0.93033509  1
  O  O55  1  0.85206034  0.35956899  0.92914602  1
  O  O56  1  0.49953576  0.12828549  0.92565382  1
  O  O57  1  0.63280327  0.12289182  0.42023467  1
  O  O58  1  0.49256658  0.36723229  0.42141014  1
  O  O59  1  0.87627671  0.50306468  0.42051093  1
  O  O60  1  0.36095762  0.48678413  0.07747000  1
  O  O61  1  0.12444664  0.64165426  0.07542568  1
  O  O62  1  0.51210651  0.87434918  0.07538392  1
  O  O63  1  0.35669461  0.86900831  0.57567112  1
  O  O64  1  0.51196989  0.64318877  0.57632193  1
  O  O65  1  0.13149528  0.48766980  0.57597489  1
  O  O66  1  0.30997722  0.82866963  0.26601526  1
  O  O67  1  0.52446815  0.68440820  0.26427489  1
  O  O68  1  0.16443752  0.47059723  0.26483650  1
  O  O69  1  0.30854615  0.47019500  0.75999963  1
  O  O70  1  0.16332534  0.69369503  0.75951021  1
  O  O71  1  0.52574616  0.84266709  0.76008012  1
loop_
_geom_bond_atom_site_label_1
_geom_bond_atom_site_label_2
_geom_bond_distance
_geom_bond_site_symmetry_2
In0 O0 1.970946 1_555
In0 O1 2.166295 1_445
In0 O38 2.175337 1_555
In0 O37 2.181810 1_445
In0 O2 2.185884 1_455
In0 O36 2.209587 1_545
In1 O39 1.978011 1_665
In1 O41 1.978819 1_555
In1 O40 2.166698 1_655
In1 O5 2.205288 1_565
In1 O4 2.210265 1_555
In1 O3 2.253831 1_665
In2 O44 2.148419 1_555
In2 O43 2.164910 1_665
In2 O8 2.166018 1_655
In2 O6 2.166139 1_555
In2 O42 2.170112 1_565
In2 O7 2.172635 1_665
In3 O11 2.024119 1_555
In3 O47 2.170726 1_565
In3 O46 2.190321 1_465
In3 O45 2.192730 1_455
In3 O10 2.310121 1_565
In3 O9 2.317677 1_455
In4 O48 2.130670 1_555
In4 O12 2.136979 1_555
In4 O50 2.141366 1_555
In4 O49 2.148795 1_555
In4 O13 2.150716 1_555
In4 O14 2.152928 1_555
In5 O53 1.996947 1_555
In5 O17 2.114535 1_555
In5 O16 2.118942 1_555
In5 O15 2.174661 1_555
In5 O52 2.202404 1_555
In5 O51 2.211609 1_555
In6 O58 2.160803 1_555
In6 O21 2.165702 1_555
In6 O22 2.167613 1_555
In6 O23 2.168552 1_555
In6 O59 2.185372 1_555
In6 O57 2.195045 1_555
In7 O25 1.993387 1_554
In7 O24 2.003337 1_554
In7 O60 2.151736 1_555
In7 O62 2.159348 1_555
In7 O61 2.207177 1_555
In7 O26 2.212993 1_554
In8 O28 2.114956 1_555
In8 O64 2.127956 1_555
In8 O63 2.129608 1_555
In8 O29 2.135438 1_555
In8 O65 2.140800 1_555
In8 O27 2.161449 1_555
O0 Si0 1.605256 1_555
O1 S0 1.467564 1_555
O2 S1 1.471703 1_655
O3 S2 1.455469 1_555
O4 S3 1.456841 1_655
O5 S4 1.454045 1_545
O6 S4 1.494938 1_555
O7 S2 1.485267 1_555
O8 S3 1.492988 1_555
O9 S0 1.469673 1_555
O10 S1 1.466609 1_555
O11 Si0 1.614702 1_565
O12 S5 1.483104 1_555
O13 S6 1.480426 1_555
O14 S7 1.483343 1_555
O15 S8 1.477672 1_555
O16 S9 1.472636 1_555
O17 S10 1.473824 1_555
O18 S10 1.504656 1_555
O18 Ta0 2.122627 1_554
O19 S8 1.523682 1_555
O19 Ta0 2.026113 1_554
O20 S9 1.503416 1_555
O20 Ta0 2.155368 1_554
O21 S6 1.487594 1_555
O22 S7 1.485606 1_555
O23 S5 1.486411 1_555
O24 Si1 1.573156 1_555
O25 Si2 1.569034 1_555
O26 S11 1.458358 1_555
O27 S12 1.481102 1_555
O28 S13 1.486329 1_555
O29 S14 1.480148 1_555
O30 S14 1.514669 1_555
O30 Ta1 2.063673 1_555
O31 S12 1.510781 1_555
O31 Ta1 2.052238 1_555
O32 S13 1.494208 1_555
O32 Ta1 2.177276 1_555
O33 Si2 1.712128 1_555
O33 Ta2 1.848129 1_555
O34 S11 1.522673 1_555
O34 Ta2 2.081510 1_555
O35 Si1 1.709647 1_555
O35 Ta2 1.844419 1_555
O36 S14 1.453746 1_555
O37 S12 1.461301 1_555
O38 S13 1.464752 1_555
O39 Si2 1.561662 1_555
O40 S11 1.440312 1_555
O41 Si1 1.564731 1_555
O42 S5 1.478076 1_555
O43 S6 1.477710 1_555
O44 S7 1.477692 1_555
O45 S8 1.474516 1_555
O46 S9 1.487294 1_555
O47 S10 1.480113 1_555
O48 S4 1.484687 1_545
O49 S2 1.479116 1_555
O50 S3 1.484652 1_655
O51 S0 1.449216 1_555
O52 S1 1.450625 1_655
O53 Si0 1.593813 1_555
O54 Si1 1.681005 1_555
O54 Ta0 1.854586 1_555
O55 Si2 1.673582 1_655
O55 Ta0 1.852171 1_555
O56 S11 1.503286 1_545
O56 Ta0 2.059771 1_555
O57 S12 1.474429 1_545
O58 S13 1.483264 1_555
O59 S14 1.479608 1_655
O60 S10 1.460344 1_555
O61 S8 1.459206 1_455
O62 S9 1.465937 1_565
O63 S6 1.480749 1_565
O64 S7 1.479075 1_555
O65 S5 1.480193 1_455
O66 Si0 1.745367 1_565
O66 Ta1 1.805707 1_555
O67 S0 1.547546 1_555
O67 Ta1 1.960635 1_555
O68 S1 1.545415 1_555
O68 Ta1 1.959361 1_555
O69 S2 1.517793 1_555
O69 Ta2 2.059988 1_555
O70 S3 1.497061 1_555
O70 Ta2 2.143636 1_555
O71 S4 1.498142 1_555
O71 Ta2 2.157250 1_555
