# generated using pymatgen
data_Na4MgV4O10
_symmetry_space_group_name_H-M   'P 1'
_cell_length_a   5.70092109
_cell_length_b   5.87755050
_cell_length_c   8.29795391
_cell_angle_alpha   109.55818253
_cell_angle_beta   110.07731071
_cell_angle_gamma   90.01420510
_symmetry_Int_Tables_number   1
_chemical_formula_structural   Na4MgV4O10
_chemical_formula_sum   'Na4 Mg1 V4 O10'
_cell_volume   243.98668072
_cell_formula_units_Z   1
loop_
 _symmetry_equiv_pos_site_id
 _symmetry_equiv_pos_as_xyz
  1  'x, y, z'
loop_
 _atom_site_type_symbol
 _atom_site_label
 _atom_site_symmetry_multiplicity
 _atom_site_fract_x
 _atom_site_fract_y
 _atom_site_fract_z
 _atom_site_occupancy
  Na  Na0  1  0.57355145  0.30813812  0.34903866  1
  Na  Na1  1  0.22218899  0.68959244  0.64871957  1
  Na  Na2  1  0.10703731  0.56667622  0.19341114  1
  Na  Na3  1  0.91321425  0.43352430  0.80656302  1
  Mg  Mg0  1  0.54706158  0.99954115  0.99894025  1
  V  V0  1  0.03367469  0.00027625  0.00032219  1
  V  V1  1  0.53584959  0.50025381  0.00027677  1
  V  V2  1  0.19647702  0.14532284  0.49957499  1
  V  V3  1  0.69716895  0.85482865  0.50084291  1
  O  O0  1  0.30252385  0.24122826  0.00820842  1
  O  O1  1  0.29432141  0.75905315  0.99225099  1
  O  O2  1  0.77581113  0.23707914  0.98302167  1
  O  O3  1  0.79275618  0.76325168  0.01717963  1
  O  O4  1  0.16882817  0.19969780  0.29776016  1
  O  O5  1  0.87147557  0.80125811  0.70280679  1
  O  O6  1  0.68917500  0.62761147  0.29494883  1
  O  O7  1  0.39401857  0.37256582  0.70578018  1
  O  O8  1  0.86971827  0.13905492  0.51419690  1
  O  O9  1  0.35565003  0.86104588  0.48615593  1
loop_
_geom_bond_atom_site_label_1
_geom_bond_atom_site_label_2
_geom_bond_distance
_geom_bond_site_symmetry_2
Na0 O6 2.220037 1_555
Na0 O8 2.245132 1_555
Na0 O4 2.248229 1_555
Na0 O0 2.606814 1_555
Na1 O7 2.220129 1_555
Na1 O9 2.242427 1_555
Na1 O5 2.247060 1_455
Na1 O1 2.622527 1_555
Na2 O9 2.392533 1_555
Na2 O2 2.415946 1_454
Na2 O3 2.452941 1_455
Na2 O0 2.543912 1_555
Na2 O4 2.562735 1_555
Na2 O6 2.772992 1_455
Na2 O1 2.773343 1_554
Na3 O8 2.391270 1_555
Na3 O3 2.416357 1_556
Na3 O2 2.451474 1_555
Na3 O1 2.545789 1_655
Na3 O5 2.564160 1_555
Na3 O7 2.772739 1_555
Na3 O0 2.778621 1_656
Mg0 O2 1.976899 1_565
Mg0 O3 1.977308 1_556
Mg0 O1 1.992137 1_555
Mg0 O0 1.992172 1_566
O0 V1 2.053702 1_555
O0 V0 2.055984 1_555
O1 V1 2.054275 1_556
O1 V0 2.056312 1_566
O2 V0 2.027005 1_656
O2 V1 2.066842 1_556
O3 V0 2.026864 1_665
O3 V1 2.065638 1_555
O4 V2 1.763112 1_555
O4 V0 2.194578 1_555
O5 V3 1.762174 1_555
O5 V0 2.194722 1_666
O6 V3 1.767322 1_555
O6 V1 2.147100 1_555
O7 V2 1.768076 1_555
O7 V1 2.145684 1_556
O8 V3 1.889731 1_545
O8 V2 1.909015 1_655
O9 V2 1.890275 1_565
O9 V3 1.909711 1_555
