# generated using pymatgen
data_K2Cr2Cd(H2O5)2
_symmetry_space_group_name_H-M   'P 1'
_cell_length_a   6.04453601
_cell_length_b   6.50927484
_cell_length_c   7.74458533
_cell_angle_alpha   109.82949600
_cell_angle_beta   96.47425104
_cell_angle_gamma   109.87010669
_symmetry_Int_Tables_number   1
_chemical_formula_structural   K2Cr2Cd(H2O5)2
_chemical_formula_sum   'K2 Cr2 Cd1 H4 O10'
_cell_volume   260.47130468
_cell_formula_units_Z   1
loop_
 _symmetry_equiv_pos_site_id
 _symmetry_equiv_pos_as_xyz
  1  'x, y, z'
loop_
 _atom_site_type_symbol
 _atom_site_label
 _atom_site_symmetry_multiplicity
 _atom_site_fract_x
 _atom_site_fract_y
 _atom_site_fract_z
 _atom_site_occupancy
  K  K0  1  0.35166700  0.70527600  0.24417100  1
  K  K1  1  0.64833300  0.29472400  0.75582900  1
  Cr  Cr0  1  0.67631100  0.34924400  0.24020300  1
  Cr  Cr1  1  0.32368900  0.65075600  0.75979700  1
  Cd  Cd0  1  0.00000000  0.00000000  0.00000000  1
  H  H0  1  0.12166800  0.12697700  0.40051900  1
  H  H1  1  0.87833200  0.87302300  0.59948100  1
  H  H2  1  0.93547400  0.85018300  0.31374200  1
  H  H3  1  0.06452600  0.14981700  0.68625800  1
  O  O0  1  0.06435100  0.97229100  0.28754000  1
  O  O1  1  0.64355000  0.19157300  0.36797300  1
  O  O2  1  0.35645000  0.80842700  0.63202700  1
  O  O3  1  0.76588600  0.64020000  0.37946800  1
  O  O4  1  0.23411400  0.35980000  0.62053200  1
  O  O5  1  0.41014900  0.26335900  0.08589900  1
  O  O6  1  0.58985100  0.73664100  0.91410100  1
  O  O7  1  0.88525100  0.31719200  0.11867900  1
  O  O8  1  0.11474900  0.68280800  0.88132100  1
  O  O9  1  0.93564900  0.02770900  0.71246000  1
loop_
_geom_bond_atom_site_label_1
_geom_bond_atom_site_label_2
_geom_bond_distance
_geom_bond_site_symmetry_2
K0 O1 2.795546 1_565
K0 O0 2.817305 1_555
K0 O3 2.824295 1_555
K0 O2 2.841352 1_555
K0 O7 2.854711 1_455
K0 O5 2.880765 1_555
K0 O8 2.939430 1_554
K0 O6 3.103725 1_554
K1 O2 2.795546 1_545
K1 O9 2.817305 1_555
K1 O4 2.824295 1_555
K1 O1 2.841352 1_555
K1 O8 2.854711 1_655
K1 O6 2.880765 1_555
K1 O7 2.939430 1_556
K1 O5 3.103725 1_556
Cr0 O1 1.633021 1_555
Cr0 O3 1.681881 1_555
Cr0 O5 1.682471 1_555
Cr0 O7 1.684719 1_555
Cr1 O2 1.633021 1_555
Cr1 O4 1.681881 1_555
Cr1 O6 1.682471 1_555
Cr1 O8 1.684719 1_555
Cd0 O0 2.295140 1_545
Cd0 O9 2.295140 1_454
Cd0 O7 2.327787 1_455
Cd0 O8 2.327787 1_544
Cd0 O5 2.343685 1_555
Cd0 O6 2.343685 1_444
H0 O0 0.998116 1_545
H0 O4 1.717183 1_555
H1 O9 0.998116 1_565
H1 O3 1.717183 1_555
H2 O0 1.001976 1_655
H2 O3 1.677910 1_555
H3 O9 1.001976 1_455
H3 O4 1.677910 1_555
