# generated using pymatgen
data_Te6Cl2O11
_symmetry_space_group_name_H-M   'P 1'
_cell_length_a   6.83829978
_cell_length_b   6.83829978
_cell_length_c   15.32626268
_cell_angle_alpha   90.00000000
_cell_angle_beta   90.00000000
_cell_angle_gamma   119.66890747
_symmetry_Int_Tables_number   1
_chemical_formula_structural   Te6Cl2O11
_chemical_formula_sum   'Te12 Cl4 O22'
_cell_volume   622.73383254
_cell_formula_units_Z   2
loop_
 _symmetry_equiv_pos_site_id
 _symmetry_equiv_pos_as_xyz
  1  'x, y, z'
loop_
 _atom_site_type_symbol
 _atom_site_label
 _atom_site_symmetry_multiplicity
 _atom_site_fract_x
 _atom_site_fract_y
 _atom_site_fract_z
 _atom_site_occupancy
  Te  Te0  1  0.47491488  0.78728620  0.91268775  1
  Te  Te1  1  0.52508512  0.21271380  0.41268775  1
  Te  Te2  1  0.52508512  0.21271380  0.08731225  1
  Te  Te3  1  0.47491488  0.78728620  0.58731225  1
  Te  Te4  1  0.78728620  0.47491488  0.91268775  1
  Te  Te5  1  0.21271380  0.52508512  0.41268775  1
  Te  Te6  1  0.21271380  0.52508512  0.08731225  1
  Te  Te7  1  0.78728620  0.47491488  0.58731225  1
  Te  Te8  1  0.07598278  0.07598278  0.86009374  1
  Te  Te9  1  0.92401722  0.92401722  0.36009374  1
  Te  Te10  1  0.92401722  0.92401722  0.13990626  1
  Te  Te11  1  0.07598278  0.07598278  0.63990626  1
  Cl  Cl0  1  0.13566079  0.45983865  0.75000000  1
  Cl  Cl1  1  0.86433921  0.54016135  0.25000000  1
  Cl  Cl2  1  0.45983865  0.13566079  0.75000000  1
  Cl  Cl3  1  0.54016135  0.86433921  0.25000000  1
  O  O0  1  0.57665810  0.57665810  0.88773034  1
  O  O1  1  0.42334190  0.42334190  0.38773034  1
  O  O2  1  0.42334190  0.42334190  0.11226966  1
  O  O3  1  0.57665810  0.57665810  0.61226966  1
  O  O4  1  0.18310654  0.48745648  0.96401464  1
  O  O5  1  0.81689346  0.51254352  0.46401464  1
  O  O6  1  0.81689346  0.51254352  0.03598536  1
  O  O7  1  0.18310654  0.48745648  0.53598536  1
  O  O8  1  0.48745648  0.18310654  0.96401464  1
  O  O9  1  0.51254352  0.81689346  0.46401464  1
  O  O10  1  0.51254352  0.81689346  0.03598536  1
  O  O11  1  0.48745648  0.18310654  0.53598536  1
  O  O12  1  0.03928386  0.80068659  0.90528294  1
  O  O13  1  0.96071614  0.19931341  0.40528294  1
  O  O14  1  0.96071614  0.19931341  0.09471706  1
  O  O15  1  0.03928386  0.80068659  0.59471706  1
  O  O16  1  0.06604048  0.06604048  0.25000000  1
  O  O17  1  0.93395952  0.93395952  0.75000000  1
  O  O18  1  0.80068659  0.03928386  0.59471706  1
  O  O19  1  0.19931341  0.96071614  0.09471706  1
  O  O20  1  0.19931341  0.96071614  0.40528294  1
  O  O21  1  0.80068659  0.03928386  0.90528294  1
loop_
_geom_bond_atom_site_label_1
_geom_bond_atom_site_label_2
_geom_bond_distance
_geom_bond_site_symmetry_2
Cl0 Te11 2.973776 1_555
Cl0 Te8 2.973776 1_555
Cl1 Te9 2.973776 1_555
Cl1 Te10 2.973776 1_555
Cl2 Te11 2.973776 1_555
Cl2 Te8 2.973776 1_555
Cl3 Te9 2.973776 1_555
Cl3 Te10 2.973776 1_555
O0 Te4 1.922764 1_555
O0 Te0 1.922764 1_555
O1 Te1 1.922764 1_555
O1 Te5 1.922764 1_555
O2 Te6 1.922764 1_555
O2 Te2 1.922764 1_555
O3 Te3 1.922764 1_555
O3 Te7 1.922764 1_555
O4 Te6 1.904354 1_556
O4 Te0 2.180416 1_555
O5 Te7 1.904354 1_555
O5 Te1 2.180416 1_555
O6 Te4 1.904354 1_554
O6 Te2 2.180416 1_555
O7 Te5 1.904354 1_555
O7 Te3 2.180416 1_555
O8 Te2 1.904354 1_556
O8 Te4 2.180416 1_555
O9 Te3 1.904354 1_555
O9 Te5 2.180416 1_555
O10 Te0 1.904354 1_554
O10 Te6 2.180416 1_555
O11 Te1 1.904354 1_555
O11 Te7 2.180416 1_555
O12 Te8 1.902358 1_565
O12 Te4 2.035871 1_455
O13 Te9 1.902358 1_545
O13 Te5 2.035871 1_655
O14 Te10 1.902358 1_545
O14 Te6 2.035871 1_655
O15 Te11 1.902358 1_565
O15 Te7 2.035871 1_455
O16 Te9 1.949294 1_445
O16 Te10 1.949294 1_445
O17 Te11 1.949294 1_665
O17 Te8 1.949294 1_665
O18 Te11 1.902358 1_655
O18 Te3 2.035871 1_545
O19 Te10 1.902358 1_455
O19 Te2 2.035871 1_565
O20 Te9 1.902358 1_455
O20 Te1 2.035871 1_565
O21 Te8 1.902358 1_655
O21 Te0 2.035871 1_545
