# generated using pymatgen
data_YTaP2SO12
_symmetry_space_group_name_H-M   'P 1'
_cell_length_a   9.07241784
_cell_length_b   9.07974205
_cell_length_c   22.99404317
_cell_angle_alpha   90.71528801
_cell_angle_beta   90.00000000
_cell_angle_gamma   119.97331967
_symmetry_Int_Tables_number   1
_chemical_formula_structural   YTaP2SO12
_chemical_formula_sum   'Y6 Ta6 P12 S6 O72'
_cell_volume   1640.64312617
_cell_formula_units_Z   6
loop_
 _symmetry_equiv_pos_site_id
 _symmetry_equiv_pos_as_xyz
  1  'x, y, z'
loop_
 _atom_site_type_symbol
 _atom_site_label
 _atom_site_symmetry_multiplicity
 _atom_site_fract_x
 _atom_site_fract_y
 _atom_site_fract_z
 _atom_site_occupancy
  Y  Y0  1  0.99841304  0.00230617  0.36179175  1
  Y  Y1  1  0.00389313  0.00230617  0.86179175  1
  Y  Y2  1  0.66508004  0.33563917  0.69512475  1
  Y  Y3  1  0.67056013  0.33563917  0.19512475  1
  Y  Y4  1  0.33174604  0.66897317  0.02845875  1
  Y  Y5  1  0.33722613  0.66897317  0.52845875  1
  Ta  Ta0  1  0.99217563  0.00684022  0.64382310  1
  Ta  Ta1  1  0.01466458  0.00684022  0.14382310  1
  Ta  Ta2  1  0.65884263  0.34017322  0.97715610  1
  Ta  Ta3  1  0.68133158  0.34017322  0.47715610  1
  Ta  Ta4  1  0.32550863  0.67350722  0.31049010  1
  Ta  Ta5  1  0.34799758  0.67350722  0.81049010  1
  P  P0  1  0.27431274  0.98303383  0.24998915  1
  P  P1  1  0.02382952  0.29352062  0.25082019  1
  P  P2  1  0.26969110  0.29352062  0.75082019  1
  P  P3  1  0.70872109  0.98303383  0.74998915  1
  P  P4  1  0.94097974  0.31636683  0.58332215  1
  P  P5  1  0.69049652  0.62685362  0.58415319  1
  P  P6  1  0.93635810  0.62685362  0.08415319  1
  P  P7  1  0.37538809  0.31636683  0.08332215  1
  P  P8  1  0.60764574  0.64970083  0.91665615  1
  P  P9  1  0.35716252  0.96018762  0.91748719  1
  P  P10  1  0.60302410  0.96018762  0.41748719  1
  P  P11  1  0.04205409  0.64970083  0.41665615  1
  S  S0  1  0.70010183  0.72753775  0.24958945  1
  S  S1  1  0.02743593  0.72753775  0.74958945  1
  S  S2  1  0.36676883  0.06087075  0.58292245  1
  S  S3  1  0.69410293  0.06087075  0.08292245  1
  S  S4  1  0.03343483  0.39420475  0.91625645  1
  S  S5  1  0.36076893  0.39420475  0.41625645  1
  O  O0  1  0.19537938  0.01017773  0.30315132  1
  O  O1  1  0.80311578  0.79920911  0.30218122  1
  O  O2  1  0.99320495  0.18682697  0.30360945  1
  O  O3  1  0.19362202  0.18682697  0.80360945  1
  O  O4  1  0.99609334  0.79920911  0.80218122  1
  O  O5  1  0.81479835  0.01017773  0.80315132  1
  O  O6  1  0.79993494  0.95423253  0.69499981  1
  O  O7  1  0.14936756  0.19660000  0.69601794  1
  O  O8  1  0.05281096  0.83515004  0.69801405  1
  O  O9  1  0.78233908  0.83515004  0.19801405  1
  O  O10  1  0.04723244  0.19660000  0.19601794  1
  O  O11  1  0.15429759  0.95423253  0.19499981  1
  O  O12  1  0.86204638  0.34351073  0.63648432  1
  O  O13  1  0.46978278  0.13254211  0.63551422  1
  O  O14  1  0.65987195  0.52015997  0.63694245  1
  O  O15  1  0.86028902  0.52015997  0.13694245  1
  O  O16  1  0.66276034  0.13254211  0.13551422  1
  O  O17  1  0.48146535  0.34351073  0.13648432  1
  O  O18  1  0.46660194  0.28756553  0.02833281  1
  O  O19  1  0.81603456  0.52993300  0.02935094  1
  O  O20  1  0.71947796  0.16848304  0.03134705  1
  O  O21  1  0.44900608  0.16848304  0.53134705  1
  O  O22  1  0.71389944  0.52993300  0.52935094  1
  O  O23  1  0.82096459  0.28756553  0.52833281  1
  O  O24  1  0.52871238  0.67684473  0.96981832  1
  O  O25  1  0.13644878  0.46587611  0.96884822  1
  O  O26  1  0.32653795  0.85349397  0.97027645  1
  O  O27  1  0.52695502  0.85349397  0.47027645  1
  O  O28  1  0.32942634  0.46587611  0.46884822  1
  O  O29  1  0.14813135  0.67684473  0.46981832  1
  O  O30  1  0.13326794  0.62089953  0.36166681  1
  O  O31  1  0.48270056  0.86326700  0.36268494  1
  O  O32  1  0.38614396  0.50181704  0.36468105  1
  O  O33  1  0.11567208  0.50181704  0.86468105  1
  O  O34  1  0.38056544  0.86326700  0.86268494  1
  O  O35  1  0.48763059  0.62089953  0.86166681  1
  O  O36  1  0.99957161  0.78664897  0.40416521  1
  O  O37  1  0.78268579  0.00118877  0.40455915  1
  O  O38  1  0.22158626  0.21916654  0.40740158  1
  O  O39  1  0.99758027  0.21916654  0.90740158  1
  O  O40  1  0.21850299  0.00118877  0.90455915  1
  O  O41  1  0.78707736  0.78664897  0.90416521  1
  O  O42  1  0.94510260  0.14316404  0.59223576  1
  O  O43  1  0.19683543  0.05212271  0.59233178  1
  O  O44  1  0.86186775  0.80227401  0.59531908  1
  O  O45  1  0.94040626  0.80227401  0.09531908  1
  O  O46  1  0.85528728  0.05212271  0.09233178  1
  O  O47  1  0.19806143  0.14316404  0.09223576  1
  O  O48  1  0.66623861  0.11998197  0.73749821  1
  O  O49  1  0.44935279  0.33452177  0.73789215  1
  O  O50  1  0.88825326  0.55249954  0.74073458  1
  O  O51  1  0.66424727  0.55249954  0.24073458  1
  O  O52  1  0.88516999  0.33452177  0.23789215  1
  O  O53  1  0.45374436  0.11998197  0.23749821  1
  O  O54  1  0.61176960  0.47649704  0.92556876  1
  O  O55  1  0.86350243  0.38545571  0.92566478  1
  O  O56  1  0.52853475  0.13560701  0.92865208  1
  O  O57  1  0.60707326  0.13560701  0.42865208  1
  O  O58  1  0.52195428  0.38545571  0.42566478  1
  O  O59  1  0.86472843  0.47649704  0.42556876  1
  O  O60  1  0.33290461  0.45331597  0.07083221  1
  O  O61  1  0.11601879  0.66785577  0.07122615  1
  O  O62  1  0.55491926  0.88583354  0.07406858  1
  O  O63  1  0.33091327  0.88583354  0.57406858  1
  O  O64  1  0.55183599  0.66785577  0.57122615  1
  O  O65  1  0.12041036  0.45331597  0.57083221  1
  O  O66  1  0.27843560  0.80983104  0.25890276  1
  O  O67  1  0.53016843  0.71878971  0.25899878  1
  O  O68  1  0.19520075  0.46894101  0.26198608  1
  O  O69  1  0.27373926  0.46894101  0.76198608  1
  O  O70  1  0.18862028  0.71878971  0.75899878  1
  O  O71  1  0.53139443  0.80983104  0.75890276  1
loop_
_geom_bond_atom_site_label_1
_geom_bond_atom_site_label_2
_geom_bond_distance
_geom_bond_site_symmetry_2
O0 P0 1.495556 1_545
O0 Y0 2.211619 1_455
O1 S0 1.460133 1_555
O1 Y0 2.256299 1_565
O2 P1 1.499832 1_655
O2 Y0 2.175798 1_555
O3 P2 1.499832 1_555
O3 Y1 2.175798 1_555
O4 S1 1.460133 1_655
O4 Y1 2.256299 1_665
O5 P3 1.495556 1_545
O5 Y1 2.211619 1_655
O6 P3 1.599983 1_555
O6 Ta0 1.958670 1_565
O7 P2 1.602008 1_555
O7 Ta0 1.983944 1_455
O8 S1 1.489397 1_555
O8 Ta0 2.278346 1_465
O9 S0 1.489397 1_555
O9 Ta1 2.278346 1_665
O10 P1 1.602008 1_555
O10 Ta1 1.983944 1_555
O11 P0 1.599983 1_555
O11 Ta1 1.958670 1_565
O12 P4 1.495556 1_555
O12 Y2 2.211619 1_555
O13 S2 1.460133 1_555
O13 Y2 2.256299 1_555
O14 P5 1.499832 1_555
O14 Y2 2.175798 1_555
O15 P6 1.499832 1_555
O15 Y3 2.175798 1_555
O16 S3 1.460133 1_555
O16 Y3 2.256299 1_555
O17 P7 1.495556 1_555
O17 Y3 2.211619 1_555
O18 P7 1.599983 1_555
O18 Ta2 1.958670 1_554
O19 P6 1.602008 1_555
O19 Ta2 1.983944 1_554
O20 S3 1.489397 1_555
O20 Ta2 2.278346 1_554
O21 S2 1.489397 1_555
O21 Ta3 2.278346 1_555
O22 P5 1.602008 1_555
O22 Ta3 1.983944 1_555
O23 P4 1.599983 1_555
O23 Ta3 1.958670 1_555
O24 P8 1.495556 1_555
O24 Y4 2.211619 1_556
O25 S4 1.460133 1_555
O25 Y4 2.256299 1_556
O26 P9 1.499832 1_555
O26 Y4 2.175798 1_556
O27 P10 1.499832 1_555
O27 Y5 2.175798 1_555
O28 S5 1.460133 1_555
O28 Y5 2.256299 1_555
O29 P11 1.495556 1_555
O29 Y5 2.211619 1_555
O30 P11 1.599983 1_555
O30 Ta4 1.958670 1_555
O31 P10 1.602008 1_555
O31 Ta4 1.983944 1_555
O32 S5 1.489397 1_555
O32 Ta4 2.278346 1_555
O33 S4 1.489397 1_555
O33 Ta5 2.278346 1_555
O34 P9 1.602008 1_555
O34 Ta5 1.983944 1_555
O35 P8 1.599983 1_555
O35 Ta5 1.958670 1_555
O36 P11 1.504992 1_655
O36 Y0 2.202690 1_565
O37 P10 1.510033 1_545
O37 Y0 2.185883 1_555
O38 S5 1.465776 1_555
O38 Y0 2.245304 1_455
O39 S4 1.465778 1_655
O39 Y1 2.245304 1_655
O40 P9 1.510024 1_545
O40 Y1 2.185883 1_555
O41 P8 1.504998 1_555
O41 Y1 2.202690 1_665
O42 P4 1.607301 1_555
O42 Ta0 1.920005 1_555
O43 S2 1.519227 1_555
O43 Ta0 2.065865 1_455
O44 P5 1.592331 1_555
O44 Ta0 1.961043 1_565
O45 P6 1.592335 1_555
O45 Ta1 1.961043 1_665
O46 S3 1.519218 1_555
O46 Ta1 2.065865 1_655
O47 P7 1.607306 1_555
O47 Ta1 1.920005 1_555
O48 P3 1.504992 1_545
O48 Y2 2.202690 1_555
O49 P2 1.510033 1_555
O49 Y2 2.185883 1_555
O50 S1 1.465776 1_655
O50 Y2 2.245304 1_555
O51 S0 1.465778 1_555
O51 Y3 2.245304 1_555
O52 P1 1.510024 1_655
O52 Y3 2.185883 1_555
O53 P0 1.504998 1_545
O53 Y3 2.202690 1_555
O54 P8 1.607312 1_555
O54 Ta2 1.920005 1_555
O55 S4 1.519210 1_655
O55 Ta2 2.065865 1_555
O56 P9 1.592327 1_545
O56 Ta2 1.961043 1_555
O57 P10 1.592318 1_545
O57 Ta3 1.961043 1_555
O58 S5 1.519228 1_555
O58 Ta3 2.065865 1_555
O59 P11 1.607302 1_655
O59 Ta3 1.920005 1_555
O60 P7 1.505002 1_555
O60 Y4 2.202690 1_555
O61 P6 1.510017 1_455
O61 Y4 2.185883 1_555
O62 S3 1.465770 1_565
O62 Y4 2.245304 1_555
O63 S2 1.465764 1_565
O63 Y5 2.245304 1_555
O64 P5 1.510034 1_555
O64 Y5 2.185883 1_555
O65 P4 1.504990 1_455
O65 Y5 2.202690 1_555
O66 P0 1.607301 1_555
O66 Ta4 1.920005 1_555
O67 S0 1.519227 1_555
O67 Ta4 2.065865 1_555
O68 P1 1.592331 1_555
O68 Ta4 1.961043 1_555
O69 P2 1.592335 1_555
O69 Ta5 1.961043 1_555
O70 S1 1.519218 1_555
O70 Ta5 2.065865 1_555
O71 P3 1.607306 1_555
O71 Ta5 1.920005 1_555
