# generated using pymatgen
data_Tb2InPd2
_symmetry_space_group_name_H-M   'P 1'
_cell_length_a   7.75541196
_cell_length_b   7.75541196
_cell_length_c   3.66643336
_cell_angle_alpha   90.00000000
_cell_angle_beta   90.00000000
_cell_angle_gamma   90.00000000
_symmetry_Int_Tables_number   1
_chemical_formula_structural   Tb2InPd2
_chemical_formula_sum   'Tb4 In2 Pd4'
_cell_volume   220.52282123
_cell_formula_units_Z   2
loop_
 _symmetry_equiv_pos_site_id
 _symmetry_equiv_pos_as_xyz
  1  'x, y, z'
loop_
 _atom_site_type_symbol
 _atom_site_label
 _atom_site_symmetry_multiplicity
 _atom_site_fract_x
 _atom_site_fract_y
 _atom_site_fract_z
 _atom_site_occupancy
  Tb  Tb0  1  0.32625304  0.82625304  0.50000000  1
  Tb  Tb1  1  0.82625304  0.67374696  0.50000000  1
  Tb  Tb2  1  0.17374696  0.32625304  0.50000000  1
  Tb  Tb3  1  0.67374696  0.17374696  0.50000000  1
  In  In0  1  0.00000000  0.00000000  0.00000000  1
  In  In1  1  0.50000000  0.50000000  0.00000000  1
  Pd  Pd0  1  0.37240033  0.12759967  0.00000000  1
  Pd  Pd1  1  0.87240033  0.37240033  0.00000000  1
  Pd  Pd2  1  0.12759967  0.62759967  -0.00000000  1
  Pd  Pd3  1  0.62759967  0.87240033  -0.00000000  1
loop_
_geom_bond_atom_site_label_1
_geom_bond_atom_site_label_2
_geom_bond_distance
_geom_bond_site_symmetry_2
In0 Pd2 3.052951 1_545
In0 Pd3 3.052951 1_445
In0 Pd0 3.052951 1_555
In0 Pd1 3.052951 1_455
In0 Tb3 3.402709 1_454
In0 Tb3 3.402709 1_455
In0 Tb0 3.402709 1_545
In0 Tb1 3.402709 1_444
In0 Tb0 3.402709 1_544
In0 Tb1 3.402709 1_445
In0 Tb2 3.402709 1_555
In0 Tb2 3.402709 1_554
In1 Pd1 3.052951 1_555
In1 Pd0 3.052951 1_555
In1 Pd3 3.052951 1_555
In1 Pd2 3.052951 1_555
In1 Tb3 3.402709 1_554
In1 Tb0 3.402709 1_555
In1 Tb0 3.402709 1_554
In1 Tb3 3.402709 1_555
In1 Tb1 3.402709 1_554
In1 Tb1 3.402709 1_555
In1 Tb2 3.402709 1_555
In1 Tb2 3.402709 1_554
Pd0 Pd3 2.798978 1_545
Pd0 Tb2 2.847423 1_555
Pd0 Tb2 2.847423 1_554
Pd0 Tb3 2.991764 1_554
Pd0 Tb3 2.991764 1_555
Pd0 Tb0 2.991764 1_545
Pd0 Tb0 2.991764 1_544
Pd1 Pd2 2.798978 1_655
Pd1 Tb3 2.847423 1_555
Pd1 Tb3 2.847423 1_554
Pd1 Tb2 2.991764 1_654
Pd1 Tb2 2.991764 1_655
Pd1 Tb1 2.991764 1_554
Pd1 Tb1 2.991764 1_555
Pd2 Tb0 2.847423 1_555
Pd2 Tb0 2.847423 1_554
Pd2 Tb1 2.991764 1_455
Pd2 Tb1 2.991764 1_454
Pd2 Tb2 2.991764 1_555
Pd2 Tb2 2.991764 1_554
Pd3 Tb1 2.847423 1_554
Pd3 Tb1 2.847423 1_555
Pd3 Tb3 2.991764 1_564
Pd3 Tb3 2.991764 1_565
Pd3 Tb0 2.991764 1_554
Pd3 Tb0 2.991764 1_555
