# generated using pymatgen
data_MgFe6(O5F)2
_symmetry_space_group_name_H-M   'P 1'
_cell_length_a   7.15712373
_cell_length_b   5.91654116
_cell_length_c   5.72661684
_cell_angle_alpha   81.46538144
_cell_angle_beta   72.97659713
_cell_angle_gamma   71.46559413
_symmetry_Int_Tables_number   1
_chemical_formula_structural   MgFe6(O5F)2
_chemical_formula_sum   'Mg1 Fe6 O10 F2'
_cell_volume   219.43456355
_cell_formula_units_Z   1
loop_
 _symmetry_equiv_pos_site_id
 _symmetry_equiv_pos_as_xyz
  1  'x, y, z'
loop_
 _atom_site_type_symbol
 _atom_site_label
 _atom_site_symmetry_multiplicity
 _atom_site_fract_x
 _atom_site_fract_y
 _atom_site_fract_z
 _atom_site_occupancy
  Mg  Mg0  1  0.00281600  0.48619795  0.98903713  1
  Fe  Fe0  1  0.83276303  0.68901255  0.60082513  1
  Fe  Fe1  1  0.66220187  0.26837668  0.40095739  1
  Fe  Fe2  1  0.34193751  0.72895837  0.59867355  1
  Fe  Fe3  1  0.17666601  0.31086227  0.38149876  1
  Fe  Fe4  1  0.50699170  0.99439635  0.99999045  1
  Fe  Fe5  1  0.00727378  0.96031790  0.03482665  1
  O  O0  1  0.65887281  0.01273579  0.65486258  1
  O  O1  1  0.29938715  0.89901281  0.89030539  1
  O  O2  1  0.96485057  0.21661694  0.24123067  1
  O  O3  1  0.62853306  0.56311274  0.55372662  1
  O  O4  1  0.04529155  0.77661026  0.75564535  1
  O  O5  1  0.37387151  0.44206210  0.44073234  1
  O  O6  1  0.70998992  0.08924871  0.11249049  1
  O  O7  1  0.34814081  0.98331695  0.34340923  1
  O  O8  1  0.99118510  0.36129738  0.69096229  1
  O  O9  1  0.00659296  0.66666209  0.26832942  1
  F  F0  1  0.31056325  0.33641991  0.99349797  1
  F  F1  1  0.69688641  0.65525826  0.00137857  1
loop_
_geom_bond_atom_site_label_1
_geom_bond_atom_site_label_2
_geom_bond_distance
_geom_bond_site_symmetry_2
Mg0 O8 1.990840 1_455
Mg0 O2 2.016338 1_456
Mg0 O4 2.060012 1_555
Mg0 O9 2.061403 1_556
Fe0 O3 1.935679 1_555
Fe0 O0 1.936002 1_565
Fe0 O9 1.942658 1_655
Fe0 O8 1.989849 1_555
Fe0 O4 2.189885 1_655
Fe1 O0 1.937083 1_555
Fe1 O5 1.952555 1_555
Fe1 O3 1.981555 1_555
Fe1 O6 1.981786 1_555
Fe1 O2 2.030696 1_555
Fe2 O3 1.929441 1_555
Fe2 O7 1.937819 1_555
Fe2 O5 1.959487 1_555
Fe2 O1 1.974920 1_555
Fe2 O4 1.993092 1_555
Fe3 O8 1.876052 1_455
Fe3 O5 1.940300 1_555
Fe3 O7 1.940628 1_545
Fe3 O2 2.153544 1_455
Fe3 O9 2.181982 1_555
Fe4 O0 1.962907 1_565
Fe4 O7 1.965820 1_556
Fe4 O6 2.003646 1_566
Fe4 O1 2.026216 1_555
Fe5 O1 1.944575 1_554
Fe5 O2 1.953955 1_465
Fe5 O6 1.954882 1_465
Fe5 O4 1.970916 1_554
Fe5 O9 2.029463 1_555
F0 Fe4 2.066981 1_545
F0 Mg0 2.103013 1_555
F0 Fe3 2.150315 1_556
F1 Fe4 2.034999 1_554
F1 Mg0 2.082726 1_654
F1 Fe0 2.220039 1_554
