# generated using pymatgen
data_Na4CaAl(PO4)3
_symmetry_space_group_name_H-M   'P 1'
_cell_length_a   9.17267315
_cell_length_b   9.17267282
_cell_length_c   21.53976929
_cell_angle_alpha   90.00000000
_cell_angle_beta   90.00000000
_cell_angle_gamma   120.00000121
_symmetry_Int_Tables_number   1
_chemical_formula_structural   Na4CaAl(PO4)3
_chemical_formula_sum   'Na24 Ca6 Al6 P18 O72'
_cell_volume   1569.50786171
_cell_formula_units_Z   6
loop_
 _symmetry_equiv_pos_site_id
 _symmetry_equiv_pos_as_xyz
  1  'x, y, z'
loop_
 _atom_site_type_symbol
 _atom_site_label
 _atom_site_symmetry_multiplicity
 _atom_site_fract_x
 _atom_site_fract_y
 _atom_site_fract_z
 _atom_site_occupancy
  Na  Na0  1  0.64565477  0.00890987  0.24728867  1
  Na  Na1  1  0.36325511  0.35434523  0.24728867  1
  Na  Na2  1  0.99109013  0.63674489  0.24728867  1
  Na  Na3  1  0.64565477  0.63674489  0.74728867  1
  Na  Na4  1  0.99109013  0.35434523  0.74728867  1
  Na  Na5  1  0.36325511  0.00890987  0.74728867  1
  Na  Na6  1  0.31232177  0.34224287  0.58062167  1
  Na  Na7  1  0.02992211  0.68767823  0.58062167  1
  Na  Na8  1  0.65775713  0.97007789  0.58062167  1
  Na  Na9  1  0.31232177  0.97007789  0.08062167  1
  Na  Na10  1  0.65775713  0.68767823  0.08062167  1
  Na  Na11  1  0.02992211  0.34224287  0.08062167  1
  Na  Na12  1  0.97898777  0.67557687  0.91395567  1
  Na  Na13  1  0.69658811  0.02101223  0.91395567  1
  Na  Na14  1  0.32442313  0.30341189  0.91395567  1
  Na  Na15  1  0.97898777  0.30341189  0.41395567  1
  Na  Na16  1  0.32442313  0.02101223  0.41395567  1
  Na  Na17  1  0.69658811  0.67557687  0.41395567  1
  Na  Na18  1  -0.00000000  0.00000000  0.49943803  1
  Na  Na19  1  -0.00000000  0.00000000  -0.00056197  1
  Na  Na20  1  0.66666700  0.33333300  0.83277103  1
  Na  Na21  1  0.66666700  0.33333300  0.33277103  1
  Na  Na22  1  0.33333300  0.66666700  0.16610503  1
  Na  Na23  1  0.33333300  0.66666700  0.66610503  1
  Ca  Ca0  1  -0.00000000  0.00000000  0.34758930  1
  Ca  Ca1  1  -0.00000000  0.00000000  0.84758930  1
  Ca  Ca2  1  0.66666700  0.33333300  0.68092230  1
  Ca  Ca3  1  0.66666700  0.33333300  0.18092230  1
  Ca  Ca4  1  0.33333300  0.66666700  0.01425630  1
  Ca  Ca5  1  0.33333300  0.66666700  0.51425630  1
  Al  Al0  1  -0.00000000  0.00000000  0.64722931  1
  Al  Al1  1  -0.00000000  0.00000000  0.14722931  1
  Al  Al2  1  0.66666700  0.33333300  0.98056231  1
  Al  Al3  1  0.66666700  0.33333300  0.48056231  1
  Al  Al4  1  0.33333300  0.66666700  0.31389631  1
  Al  Al5  1  0.33333300  0.66666700  0.81389631  1
  P  P0  1  0.28976736  0.98118048  0.25062663  1
  P  P1  1  0.69141312  0.71023264  0.25062663  1
  P  P2  1  0.01881952  0.30858688  0.25062663  1
  P  P3  1  0.28976736  0.30858688  0.75062663  1
  P  P4  1  0.01881952  0.71023264  0.75062663  1
  P  P5  1  0.69141312  0.98118048  0.75062663  1
  P  P6  1  0.95643436  0.31451348  0.58395963  1
  P  P7  1  0.35808012  0.04356564  0.58395963  1
  P  P8  1  0.68548652  0.64191988  0.58395963  1
  P  P9  1  0.95643436  0.64191988  0.08395963  1
  P  P10  1  0.68548652  0.04356564  0.08395963  1
  P  P11  1  0.35808012  0.31451348  0.08395963  1
  P  P12  1  0.62310036  0.64784748  0.91729363  1
  P  P13  1  0.02474612  0.37689964  0.91729363  1
  P  P14  1  0.35215252  0.97525388  0.91729363  1
  P  P15  1  0.62310036  0.97525388  0.41729363  1
  P  P16  1  0.35215252  0.37689964  0.41729363  1
  P  P17  1  0.02474612  0.64784748  0.41729363  1
  O  O0  1  0.22501585  0.00802125  0.31166800  1
  O  O1  1  0.78300541  0.77498415  0.31166800  1
  O  O2  1  0.99197875  0.21699459  0.31166800  1
  O  O3  1  0.22501585  0.21699459  0.81166800  1
  O  O4  1  0.99197875  0.77498415  0.81166800  1
  O  O5  1  0.78300541  0.00802125  0.81166800  1
  O  O6  1  0.79476726  0.96388266  0.69515598  1
  O  O7  1  0.16911539  0.20523274  0.69515598  1
  O  O8  1  0.03611734  0.83088461  0.69515598  1
  O  O9  1  0.79476726  0.83088461  0.19515598  1
  O  O10  1  0.03611734  0.20523274  0.19515598  1
  O  O11  1  0.16911539  0.96388266  0.19515598  1
  O  O12  1  0.89168285  0.34135425  0.64500100  1
  O  O13  1  0.44967241  0.10831715  0.64500100  1
  O  O14  1  0.65864575  0.55032759  0.64500100  1
  O  O15  1  0.89168285  0.55032759  0.14500100  1
  O  O16  1  0.65864575  0.10831715  0.14500100  1
  O  O17  1  0.44967241  0.34135425  0.14500100  1
  O  O18  1  0.46143426  0.29721566  0.02848898  1
  O  O19  1  0.83578239  0.53856574  0.02848898  1
  O  O20  1  0.70278434  0.16421761  0.02848898  1
  O  O21  1  0.46143426  0.16421761  0.52848898  1
  O  O22  1  0.70278434  0.53856574  0.52848898  1
  O  O23  1  0.83578239  0.29721566  0.52848898  1
  O  O24  1  0.55834885  0.67468825  0.97833500  1
  O  O25  1  0.11633841  0.44165115  0.97833500  1
  O  O26  1  0.32531175  0.88366159  0.97833500  1
  O  O27  1  0.55834885  0.88366159  0.47833500  1
  O  O28  1  0.32531175  0.44165115  0.47833500  1
  O  O29  1  0.11633841  0.67468825  0.47833500  1
  O  O30  1  0.12810026  0.63054966  0.36182298  1
  O  O31  1  0.50244839  0.87189974  0.36182298  1
  O  O32  1  0.36945034  0.49755161  0.36182298  1
  O  O33  1  0.12810026  0.49755161  0.86182298  1
  O  O34  1  0.36945034  0.87189974  0.86182298  1
  O  O35  1  0.50244839  0.63054966  0.86182298  1
  O  O36  1  0.99304393  0.79714106  0.41078085  1
  O  O37  1  0.80409713  0.00695607  0.41078085  1
  O  O38  1  0.20285894  0.19590287  0.41078085  1
  O  O39  1  0.99304393  0.19590287  0.91078085  1
  O  O40  1  0.20285894  0.00695607  0.91078085  1
  O  O41  1  0.80409713  0.79714106  0.91078085  1
  O  O42  1  0.96063012  0.14408485  0.58639433  1
  O  O43  1  0.18345473  0.03936988  0.58639433  1
  O  O44  1  0.85591515  0.81654527  0.58639433  1
  O  O45  1  0.96063012  0.81654527  0.08639433  1
  O  O46  1  0.85591515  0.03936988  0.08639433  1
  O  O47  1  0.18345473  0.14408485  0.08639433  1
  O  O48  1  0.65971093  0.13047406  0.74411385  1
  O  O49  1  0.47076413  0.34028907  0.74411385  1
  O  O50  1  0.86952594  0.52923587  0.74411385  1
  O  O51  1  0.65971093  0.52923587  0.24411385  1
  O  O52  1  0.86952594  0.34028907  0.24411385  1
  O  O53  1  0.47076413  0.13047406  0.24411385  1
  O  O54  1  0.62729712  0.47741785  0.91972733  1
  O  O55  1  0.85012173  0.37270288  0.91972733  1
  O  O56  1  0.52258215  0.14987827  0.91972733  1
  O  O57  1  0.62729712  0.14987827  0.41972733  1
  O  O58  1  0.52258215  0.37270288  0.41972733  1
  O  O59  1  0.85012173  0.47741785  0.41972733  1
  O  O60  1  0.32637693  0.46380806  0.07744785  1
  O  O61  1  0.13743013  0.67362307  0.07744785  1
  O  O62  1  0.53619194  0.86256987  0.07744785  1
  O  O63  1  0.32637693  0.86256987  0.57744785  1
  O  O64  1  0.53619194  0.67362307  0.57744785  1
  O  O65  1  0.13743013  0.46380806  0.57744785  1
  O  O66  1  0.29396312  0.81075185  0.25306133  1
  O  O67  1  0.51678773  0.70603688  0.25306133  1
  O  O68  1  0.18924815  0.48321227  0.25306133  1
  O  O69  1  0.29396312  0.48321227  0.75306133  1
  O  O70  1  0.18924815  0.70603688  0.75306133  1
  O  O71  1  0.51678773  0.81075185  0.75306133  1
loop_
_geom_bond_atom_site_label_1
_geom_bond_atom_site_label_2
_geom_bond_distance
_geom_bond_site_symmetry_2
Na0 O16 2.364593 1_555
Na0 O53 2.368622 1_555
Na0 O67 2.418042 1_545
Na0 O52 2.686823 1_555
Na0 O31 2.782153 1_545
Na0 O66 2.804002 1_545
Na0 O9 2.834047 1_545
Na1 O17 2.364597 1_555
Na1 O51 2.368629 1_555
Na1 O68 2.418050 1_555
Na1 O53 2.686830 1_555
Na1 O32 2.782155 1_555
Na1 O67 2.804002 1_555
Na1 O10 2.834047 1_555
Na2 O15 2.364595 1_555
Na2 O52 2.368630 1_555
Na2 O66 2.418043 1_655
Na2 O51 2.686821 1_555
Na2 O30 2.782151 1_655
Na2 O68 2.803994 1_655
Na2 O11 2.834047 1_655
Na3 O14 2.364597 1_555
Na3 O49 2.368629 1_555
Na3 O71 2.418050 1_555
Na3 O50 2.686830 1_555
Na3 O35 2.782155 1_555
Na3 O69 2.804002 1_555
Na3 O6 2.834047 1_555
Na4 O12 2.364593 1_555
Na4 O50 2.368622 1_555
Na4 O69 2.418042 1_655
Na4 O48 2.686823 1_555
Na4 O33 2.782153 1_655
Na4 O70 2.804001 1_655
Na4 O7 2.834047 1_655
Na5 O13 2.364595 1_555
Na5 O48 2.368630 1_555
Na5 O70 2.418043 1_545
Na5 O49 2.686821 1_555
Na5 O34 2.782151 1_545
Na5 O71 2.803994 1_545
Na5 O8 2.834047 1_545
Na6 O28 2.364578 1_555
Na6 O65 2.368637 1_555
Na6 O43 2.418042 1_555
Na6 O64 2.686827 1_555
Na6 O7 2.782153 1_555
Na6 O42 2.804002 1_455
Na6 O21 2.834047 1_555
Na7 O29 2.364571 1_555
Na7 O63 2.368622 1_555
Na7 O44 2.418050 1_455
Na7 O65 2.686814 1_555
Na7 O8 2.782155 1_555
Na7 O43 2.804002 1_565
Na7 O22 2.834047 1_455
Na8 O27 2.364575 1_555
Na8 O64 2.368620 1_555
Na8 O42 2.418043 1_565
Na8 O63 2.686831 1_555
Na8 O6 2.782151 1_555
Na8 O44 2.803994 1_555
Na8 O23 2.834047 1_565
Na9 O26 2.364571 1_554
Na9 O61 2.368622 1_555
Na9 O47 2.418050 1_565
Na9 O62 2.686814 1_555
Na9 O11 2.782155 1_555
Na9 O45 2.804002 1_455
Na9 O18 2.834047 1_565
Na10 O24 2.364578 1_554
Na10 O62 2.368637 1_555
Na10 O45 2.418042 1_555
Na10 O60 2.686828 1_555
Na10 O9 2.782153 1_555
Na10 O46 2.804001 1_565
Na10 O19 2.834047 1_555
Na11 O25 2.364575 1_554
Na11 O60 2.368620 1_555
Na11 O46 2.418043 1_455
Na11 O61 2.686831 1_555
Na11 O10 2.782151 1_555
Na11 O47 2.803994 1_555
Na11 O20 2.834047 1_455
Na12 O4 2.364593 1_555
Na12 O41 2.368622 1_555
Na12 O55 2.418050 1_555
Na12 O40 2.686823 1_665
Na12 O19 2.782134 1_556
Na12 O54 2.803994 1_555
Na12 O33 2.834047 1_655
Na13 O5 2.364597 1_555
Na13 O39 2.368629 1_555
Na13 O56 2.418034 1_555
Na13 O41 2.686830 1_545
Na13 O20 2.782130 1_556
Na13 O55 2.803992 1_555
Na13 O34 2.834047 1_545
Na14 O3 2.364595 1_555
Na14 O40 2.368630 1_555
Na14 O54 2.418049 1_555
Na14 O39 2.686821 1_455
Na14 O18 2.782138 1_556
Na14 O56 2.804009 1_555
Na14 O35 2.834047 1_555
Na15 O2 2.364597 1_555
Na15 O37 2.368629 1_555
Na15 O59 2.418034 1_555
Na15 O38 2.686830 1_655
Na15 O23 2.782130 1_555
Na15 O57 2.803992 1_555
Na15 O30 2.834047 1_655
Na16 O0 2.364593 1_555
Na16 O38 2.368622 1_555
Na16 O57 2.418050 1_555
Na16 O36 2.686823 1_445
Na16 O21 2.782134 1_555
Na16 O58 2.803994 1_555
Na16 O31 2.834047 1_545
Na17 O1 2.364595 1_555
Na17 O36 2.368630 1_555
Na17 O58 2.418048 1_555
Na17 O37 2.686821 1_565
Na17 O22 2.782138 1_555
Na17 O59 2.804009 1_555
Na17 O32 2.834047 1_555
Na18 O44 2.421288 1_445
Na18 O42 2.421288 1_455
Na18 O43 2.421288 1_555
Na18 O36 2.644721 1_445
Na18 O38 2.644721 1_555
Na18 O37 2.644721 1_455
Na19 O45 2.421288 1_445
Na19 O47 2.421288 1_555
Na19 O46 2.421288 1_455
Na19 O41 2.644721 1_444
Na19 O39 2.644721 1_454
Na19 O40 2.644721 1_554
Na20 O56 2.421288 1_555
Na20 O54 2.421288 1_555
Na20 O55 2.421288 1_555
Na20 O48 2.644721 1_555
Na20 O50 2.644721 1_555
Na20 O49 2.644721 1_555
Na21 O57 2.421288 1_555
Na21 O59 2.421288 1_555
Na21 O58 2.421288 1_555
Na21 O53 2.644721 1_555
Na21 O51 2.644721 1_555
Na21 O52 2.644721 1_555
Na22 O68 2.421288 1_555
Na22 O66 2.421288 1_555
Na22 O67 2.421288 1_555
Na22 O60 2.644721 1_555
Na22 O62 2.644721 1_555
Na22 O61 2.644721 1_555
Na23 O69 2.421288 1_555
Na23 O71 2.421288 1_555
Na23 O70 2.421288 1_555
Na23 O65 2.644721 1_555
Na23 O63 2.644721 1_555
Na23 O64 2.644721 1_555
Ca0 O2 2.170784 1_455
Ca0 O1 2.170784 1_445
Ca0 O0 2.170784 1_555
Ca0 O36 2.280449 1_445
Ca0 O38 2.280449 1_555
Ca0 O37 2.280449 1_455
Ca1 O3 2.170784 1_555
Ca1 O5 2.170784 1_455
Ca1 O4 2.170784 1_445
Ca1 O41 2.280449 1_445
Ca1 O39 2.280449 1_455
Ca1 O40 2.280449 1_555
Ca2 O14 2.170784 1_555
Ca2 O13 2.170784 1_555
Ca2 O12 2.170784 1_555
Ca2 O48 2.280449 1_555
Ca2 O50 2.280449 1_555
Ca2 O49 2.280449 1_555
Ca3 O15 2.170784 1_555
Ca3 O17 2.170784 1_555
Ca3 O16 2.170784 1_555
Ca3 O53 2.280449 1_555
Ca3 O51 2.280449 1_555
Ca3 O52 2.280449 1_555
Ca4 O26 2.170784 1_554
Ca4 O25 2.170784 1_554
Ca4 O24 2.170784 1_554
Ca4 O60 2.280449 1_555
Ca4 O62 2.280449 1_555
Ca4 O61 2.280449 1_555
Ca5 O27 2.170784 1_555
Ca5 O29 2.170784 1_555
Ca5 O28 2.170784 1_555
Ca5 O65 2.280449 1_555
Ca5 O63 2.280449 1_555
Ca5 O64 2.280449 1_555
Al0 O44 2.017798 1_445
Al0 O42 2.017798 1_455
Al0 O43 2.017798 1_555
Al0 O8 2.023788 1_545
Al0 O7 2.023788 1_555
Al0 O6 2.023788 1_445
Al1 O45 2.017798 1_445
Al1 O47 2.017798 1_555
Al1 O46 2.017798 1_455
Al1 O11 2.023788 1_545
Al1 O9 2.023788 1_445
Al1 O10 2.023788 1_555
Al2 O56 2.017798 1_555
Al2 O54 2.017798 1_555
Al2 O55 2.017798 1_555
Al2 O20 2.023788 1_556
Al2 O19 2.023788 1_556
Al2 O18 2.023788 1_556
Al3 O57 2.017798 1_555
Al3 O59 2.017798 1_555
Al3 O58 2.017798 1_555
Al3 O23 2.023788 1_555
Al3 O21 2.023788 1_555
Al3 O22 2.023788 1_555
Al4 O68 2.017798 1_555
Al4 O66 2.017798 1_555
Al4 O67 2.017798 1_555
Al4 O32 2.023788 1_555
Al4 O31 2.023788 1_555
Al4 O30 2.023788 1_555
Al5 O69 2.017798 1_555
Al5 O71 2.017798 1_555
Al5 O70 2.017798 1_555
Al5 O35 2.023788 1_555
Al5 O33 2.023788 1_555
Al5 O34 2.023788 1_555
O0 P0 1.512732 1_545
O1 P1 1.512732 1_555
O2 P2 1.512732 1_655
O3 P3 1.512732 1_555
O4 P4 1.512732 1_655
O5 P5 1.512732 1_545
O6 P5 1.581762 1_555
O7 P3 1.581762 1_555
O8 P4 1.581762 1_555
O9 P1 1.581762 1_555
O10 P2 1.581762 1_555
O11 P0 1.581762 1_555
O12 P6 1.512732 1_555
O13 P7 1.512732 1_555
O14 P8 1.512732 1_555
O15 P9 1.512732 1_555
O16 P10 1.512732 1_555
O17 P11 1.512732 1_555
O18 P11 1.581762 1_555
O19 P9 1.581762 1_555
O20 P10 1.581762 1_555
O21 P7 1.581762 1_555
O22 P8 1.581762 1_555
O23 P6 1.581762 1_555
O24 P12 1.512732 1_555
O25 P13 1.512732 1_555
O26 P14 1.512732 1_555
O27 P15 1.512732 1_555
O28 P16 1.512732 1_555
O29 P17 1.512732 1_555
O30 P17 1.581762 1_555
O31 P15 1.581762 1_555
O32 P16 1.581762 1_555
O33 P13 1.581762 1_555
O34 P14 1.581762 1_555
O35 P12 1.581762 1_555
O36 P17 1.542003 1_655
O37 P15 1.542012 1_545
O38 P16 1.542009 1_555
O39 P13 1.542012 1_655
O40 P14 1.542003 1_545
O41 P12 1.542009 1_555
O42 P6 1.583749 1_555
O43 P7 1.583758 1_555
O44 P8 1.583753 1_555
O45 P9 1.583758 1_555
O46 P10 1.583749 1_555
O47 P11 1.583753 1_555
O48 P5 1.542003 1_545
O49 P3 1.542012 1_555
O50 P4 1.542009 1_655
O51 P1 1.542012 1_555
O52 P2 1.542003 1_655
O53 P0 1.542009 1_545
O54 P12 1.583762 1_555
O55 P13 1.583744 1_655
O56 P14 1.583752 1_545
O57 P15 1.583744 1_545
O58 P16 1.583762 1_555
O59 P17 1.583752 1_655
O60 P11 1.542016 1_555
O61 P9 1.541998 1_455
O62 P10 1.542005 1_565
O63 P7 1.541998 1_565
O64 P8 1.542016 1_555
O65 P6 1.542005 1_455
O66 P0 1.583749 1_555
O67 P1 1.583758 1_555
O68 P2 1.583753 1_555
O69 P3 1.583758 1_555
O70 P4 1.583749 1_555
O71 P5 1.583753 1_555
