# generated using pymatgen
data_Ba6MgNb2Ir(ClO6)2
_symmetry_space_group_name_H-M   'P 1'
_cell_length_a   6.26233783
_cell_length_b   6.26522900
_cell_length_c   15.32610229
_cell_angle_alpha   99.16821097
_cell_angle_beta   80.80430670
_cell_angle_gamma   123.32298360
_symmetry_Int_Tables_number   1
_chemical_formula_structural   Ba6MgNb2Ir(ClO6)2
_chemical_formula_sum   'Ba6 Mg1 Nb2 Ir1 Cl2 O12'
_cell_volume   494.12808700
_cell_formula_units_Z   1
loop_
 _symmetry_equiv_pos_site_id
 _symmetry_equiv_pos_as_xyz
  1  'x, y, z'
loop_
 _atom_site_type_symbol
 _atom_site_label
 _atom_site_symmetry_multiplicity
 _atom_site_fract_x
 _atom_site_fract_y
 _atom_site_fract_z
 _atom_site_occupancy
  Ba  Ba0  1  0.30896900  0.69258700  0.35431700  1
  Ba  Ba1  1  0.33424800  0.66731700  0.76655700  1
  Ba  Ba2  1  0.69209100  0.30990500  0.63663200  1
  Ba  Ba3  1  0.60400600  0.39818800  0.89118800  1
  Ba  Ba4  1  0.36005200  0.64170400  0.09159700  1
  Ba  Ba5  1  0.65704300  0.34472200  0.23237100  1
  Mg  Mg0  1  0.77735700  0.22456300  0.01891300  1
  Nb  Nb0  1  0.97978700  0.02154300  0.81814700  1
  Nb  Nb1  1  0.02409600  0.97793900  0.17429200  1
  Ir  Ir0  1  0.03163000  0.96646000  0.00183500  1
  Cl  Cl0  1  0.68760500  0.31284500  0.43166200  1
  Cl  Cl1  1  0.30457600  0.69652800  0.56900600  1
  O  O0  1  0.12780800  0.29975400  0.93811300  1
  O  O1  1  0.30132000  0.21857300  0.74862800  1
  O  O2  1  0.20763300  0.30268900  0.24103300  1
  O  O3  1  0.78299800  0.70100000  0.74819400  1
  O  O4  1  0.81860700  0.18381800  0.77465100  1
  O  O5  1  0.89720900  0.62162400  0.06157500  1
  O  O6  1  0.17441900  0.82512300  0.23232600  1
  O  O7  1  0.37312100  0.09767200  0.06315700  1
  O  O8  1  0.85437800  0.14484800  0.12107300  1
  O  O9  1  0.69986000  0.87423100  0.93763800  1
  O  O10  1  0.69816500  0.79203400  0.24091600  1
  O  O11  1  0.13635200  0.86141500  0.87046600  1
loop_
_geom_bond_atom_site_label_1
_geom_bond_atom_site_label_2
_geom_bond_distance
_geom_bond_site_symmetry_2
Ba0 O6 2.581091 1_555
Ba0 O10 2.582997 1_555
Ba0 O2 2.584913 1_555
Ba0 Cl1 3.282326 1_555
Ba0 Cl0 3.381617 1_565
Ba0 Cl0 3.385226 1_455
Ba1 O11 2.441044 1_555
Ba1 O3 2.671265 1_555
Ba1 O1 2.675335 1_555
Ba1 O4 2.977112 1_455
Ba1 O4 2.982514 1_565
Ba1 Cl1 3.103008 1_555
Ba2 O1 2.587300 1_555
Ba2 O3 2.587453 1_555
Ba2 O4 2.735330 1_555
Ba2 Cl0 3.149076 1_555
Ba2 Cl1 3.312825 1_655
Ba2 Cl1 3.319598 1_545
Ba3 O0 2.688078 1_555
Ba3 O4 2.692860 1_555
Ba3 O9 2.693596 1_555
Ba3 O1 2.798147 1_555
Ba3 O3 2.803909 1_555
Ba3 Mg0 2.974718 1_556
Ba3 O11 2.993746 1_655
Ba3 O11 3.020457 1_545
Ba3 O5 3.113483 1_556
Ba3 O7 3.155042 1_556
Ba4 O6 2.683365 1_555
Ba4 O0 2.881409 1_554
Ba4 O9 2.881460 1_554
Ba4 O7 2.913106 1_565
Ba4 O5 2.938688 1_455
Ba4 O8 2.999260 1_565
Ba4 O8 3.013709 1_455
Ba4 O10 3.046020 1_555
Ba4 O2 3.048245 1_555
Ba4 O5 3.390415 1_555
Ba4 O7 3.411175 1_555
Ba5 O8 2.520076 1_555
Ba5 O10 2.653001 1_555
Ba5 O2 2.661765 1_555
Ba5 O6 2.973557 1_655
Ba5 O6 2.986970 1_545
Ba5 O5 3.073403 1_555
Ba5 O7 3.074679 1_555
Ba5 Cl0 3.135095 1_555
Mg0 O8 1.920617 1_555
Mg0 O0 2.180191 1_654
Mg0 O9 2.180904 1_544
Mg0 O5 2.183220 1_555
Mg0 O7 2.216326 1_555
Nb0 O1 1.927662 1_655
Nb0 O3 1.928270 1_545
Nb0 O4 2.013805 1_555
Nb0 O11 2.049174 1_645
Nb0 O9 2.239089 1_545
Nb0 O0 2.241920 1_655
Nb1 O2 1.910556 1_565
Nb1 O10 1.914716 1_455
Nb1 O6 2.030564 1_555
Nb1 O8 2.158340 1_465
Nb1 O7 2.378444 1_565
Nb1 O5 2.420763 1_455
Ir0 O11 2.132332 1_554
Ir0 O7 2.144060 1_565
Ir0 O5 2.144849 1_455
Ir0 O0 2.181047 1_564
Ir0 O9 2.184424 1_454
Ir0 O8 2.425841 1_465
