# generated using pymatgen
data_Na7TaTi3(SiO4)6
_symmetry_space_group_name_H-M   'P 1'
_cell_length_a   9.00313999
_cell_length_b   9.00201388
_cell_length_c   22.06699018
_cell_angle_alpha   90.06563308
_cell_angle_beta   89.83424535
_cell_angle_gamma   120.02234245
_symmetry_Int_Tables_number   1
_chemical_formula_structural   Na7TaTi3(SiO4)6
_chemical_formula_sum   'Na21 Ta3 Ti9 Si18 O72'
_cell_volume   1548.48766712
_cell_formula_units_Z   3
loop_
 _symmetry_equiv_pos_site_id
 _symmetry_equiv_pos_as_xyz
  1  'x, y, z'
loop_
 _atom_site_type_symbol
 _atom_site_label
 _atom_site_symmetry_multiplicity
 _atom_site_fract_x
 _atom_site_fract_y
 _atom_site_fract_z
 _atom_site_occupancy
  Na  Na0  1  0.37450706  0.36752989  0.24780286  1
  Na  Na1  1  0.63818233  0.62992071  0.74852499  1
  Na  Na2  1  0.99164283  0.36338338  0.74837013  1
  Na  Na3  1  0.37076220  0.00760611  0.74803347  1
  Na  Na4  1  0.29577715  0.33343701  0.58234753  1
  Na  Na5  1  0.03756733  0.70398898  0.58243095  1
  Na  Na6  1  0.66642457  0.96221728  0.58240521  1
  Na  Na7  1  0.30558253  0.96504877  0.08195872  1
  Na  Na8  1  0.65887124  0.69511808  0.08193562  1
  Na  Na9  1  0.03521262  0.34042312  0.08125727  1
  Na  Na10  1  0.95900572  0.66360331  0.91838915  1
  Na  Na11  1  0.70702152  0.03869902  0.91854339  1
  Na  Na12  1  0.96227771  0.29496206  0.41589407  1
  Na  Na13  1  0.33292847  0.03936552  0.41600560  1
  Na  Na14  1  0.70541840  0.66669242  0.41564502  1
  Na  Na15  1  0.00030747  0.00019096  0.49850571  1
  Na  Na16  1  0.01059467  0.00958424  0.99491142  1
  Na  Na17  1  0.65710590  0.33238665  0.83648519  1
  Na  Na18  1  0.67515882  0.33269984  0.32870047  1
  Na  Na19  1  0.33292674  0.67566469  0.16541758  1
  Na  Na20  1  0.33318415  0.66684966  0.66192038  1
  Ta  Ta0  1  0.99885153  0.99842732  0.14622130  1
  Ta  Ta1  1  0.33322720  0.67009999  0.31045426  1
  Ta  Ta2  1  0.33469468  0.66677273  0.81344060  1
  Ti  Ti0  1  0.99856248  0.99979358  0.35181506  1
  Ti  Ti1  1  0.00459668  0.00398179  0.85437900  1
  Ti  Ti2  1  0.00013618  0.99981787  0.64621108  1
  Ti  Ti3  1  0.66715632  0.33356174  0.68526934  1
  Ti  Ti4  1  0.67225287  0.33259347  0.18838949  1
  Ti  Ti5  1  0.66130428  0.33251253  0.97974364  1
  Ti  Ti6  1  0.66654782  0.33359656  0.48013542  1
  Ti  Ti7  1  0.33189435  0.66510635  0.01882620  1
  Ti  Ti8  1  0.33302964  0.66675398  0.51867132  1
  Si  Si0  1  0.29158925  0.00084453  0.25068235  1
  Si  Si1  1  0.71177391  0.70728980  0.25136311  1
  Si  Si2  1  0.99438038  0.28829113  0.25130978  1
  Si  Si3  1  0.28740569  0.28612232  0.74909432  1
  Si  Si4  1  0.99847326  0.71228875  0.75021531  1
  Si  Si5  1  0.71402106  0.00175760  0.75002636  1
  Si  Si6  1  0.95568877  0.33292203  0.58303769  1
  Si  Si7  1  0.37757560  0.04431036  0.58337464  1
  Si  Si8  1  0.66665270  0.62253474  0.58336813  1
  Si  Si9  1  0.95353897  0.61869052  0.08244255  1
  Si  Si10  1  0.66479502  0.04698149  0.08250960  1
  Si  Si11  1  0.38093373  0.33551217  0.08447190  1
  Si  Si12  1  0.62397121  0.66375260  0.91799890  1
  Si  Si13  1  0.04277815  0.37292130  0.91821249  1
  Si  Si14  1  0.33301545  0.96056513  0.91821542  1
  Si  Si15  1  0.62379524  0.95734158  0.41818658  1
  Si  Si16  1  0.33374647  0.37638015  0.41734162  1
  Si  Si17  1  0.04285402  0.66639805  0.41807453  1
  O  O0  1  0.19494054  0.02762309  0.30981872  1
  O  O1  1  0.82954483  0.80608637  0.31083988  1
  O  O2  1  0.97536785  0.17131040  0.31124472  1
  O  O3  1  0.19038900  0.15849448  0.80638572  1
  O  O4  1  0.96619141  0.80071061  0.80959164  1
  O  O5  1  0.83320819  0.03131670  0.80939126  1
  O  O6  1  0.80166985  0.96593491  0.69042933  1
  O  O7  1  0.16589751  0.20127040  0.68916930  1
  O  O8  1  0.03448604  0.83585327  0.69066366  1
  O  O9  1  0.80367539  0.82780059  0.19106766  1
  O  O10  1  0.02845601  0.19708067  0.19154753  1
  O  O11  1  0.17176051  0.97516461  0.19038982  1
  O  O12  1  0.86361619  0.36364913  0.64285003  1
  O  O13  1  0.50011223  0.13662909  0.64296437  1
  O  O14  1  0.63634803  0.49985534  0.64303925  1
  O  O15  1  0.85789570  0.49241195  0.13976899  1
  O  O16  1  0.63118960  0.14100425  0.13974855  1
  O  O17  1  0.49788239  0.36922416  0.14435782  1
  O  O18  1  0.47447981  0.29807617  0.02671307  1
  O  O19  1  0.83356112  0.53571987  0.02216175  1
  O  O20  1  0.70489693  0.16817736  0.02214739  1
  O  O21  1  0.46895878  0.16807425  0.52440450  1
  O  O22  1  0.69920261  0.53120002  0.52436638  1
  O  O23  1  0.83185611  0.30087907  0.52430636  1
  O  O24  1  0.52884837  0.69558007  0.97589499  1
  O  O25  1  0.16256104  0.47051646  0.97700035  1
  O  O26  1  0.30296597  0.83501442  0.97650217  1
  O  O27  1  0.53225232  0.83405269  0.47791062  1
  O  O28  1  0.30258626  0.47045491  0.47660643  1
  O  O29  1  0.16635345  0.69861073  0.47771683  1
  O  O30  1  0.13909512  0.63199636  0.36108027  1
  O  O31  1  0.49423277  0.85970882  0.36123377  1
  O  O32  1  0.36670361  0.49997334  0.35840913  1
  O  O33  1  0.13875434  0.49762902  0.85840102  1
  O  O34  1  0.36115775  0.86397379  0.85791505  1
  O  O35  1  0.50513022  0.64164413  0.85737570  1
  O  O36  1  0.02625619  0.83812002  0.41308027  1
  O  O37  1  0.81254277  0.97452710  0.41353910  1
  O  O38  1  0.16201111  0.18732797  0.41368050  1
  O  O39  1  0.01918689  0.18207165  0.91228008  1
  O  O40  1  0.15609200  0.96637320  0.91166039  1
  O  O41  1  0.81139128  0.83841771  0.91259911  1
  O  O42  1  0.97264670  0.16025529  0.58790276  1
  O  O43  1  0.18766743  0.02696162  0.58813860  1
  O  O44  1  0.83967881  0.81219308  0.58815788  1
  O  O45  1  0.97347246  0.81167629  0.08790825  1
  O  O46  1  0.83791620  0.02732565  0.08873637  1
  O  O47  1  0.18773402  0.16190702  0.08754459  1
  O  O48  1  0.69057282  0.16996406  0.74501147  1
  O  O49  1  0.47853758  0.30866997  0.74526449  1
  O  O50  1  0.82987893  0.52084019  0.74490665  1
  O  O51  1  0.68566036  0.51660564  0.24629413  1
  O  O52  1  0.82626479  0.30677293  0.24501523  1
  O  O53  1  0.47481861  0.17534415  0.24537568  1
  O  O54  1  0.64701635  0.49641470  0.92095064  1
  O  O55  1  0.85628425  0.36107660  0.92034558  1
  O  O56  1  0.51058650  0.14245047  0.92125721  1
  O  O57  1  0.63973696  0.14580386  0.42209150  1
  O  O58  1  0.50635238  0.36026692  0.42241714  1
  O  O59  1  0.85437761  0.49377335  0.42233917  1
  O  O60  1  0.35678721  0.50352415  0.07772586  1
  O  O61  1  0.14612851  0.64333732  0.07880200  1
  O  O62  1  0.49665364  0.85474655  0.07810470  1
  O  O63  1  0.35979612  0.85472785  0.57977104  1
  O  O64  1  0.49460804  0.63975302  0.57974603  1
  O  O65  1  0.14518734  0.50510993  0.57950026  1
  O  O66  1  0.30577573  0.82732108  0.25525472  1
  O  O67  1  0.51997438  0.68783104  0.25559323  1
  O  O68  1  0.17486797  0.47285554  0.25584552  1
  O  O69  1  0.30598669  0.47763393  0.75484592  1
  O  O70  1  0.17183344  0.69367271  0.75498679  1
  O  O71  1  0.52175476  0.82828508  0.75427935  1
loop_
_geom_bond_atom_site_label_1
_geom_bond_atom_site_label_2
_geom_bond_distance
_geom_bond_site_symmetry_2
Na0 O53 2.318320 1_555
Na0 O68 2.421598 1_555
Na0 O51 2.426371 1_555
Na0 O67 2.505973 1_555
Na0 O17 2.532450 1_555
Na0 O32 2.731268 1_555
Na1 O50 2.375731 1_555
Na1 O71 2.485010 1_555
Na1 O49 2.504974 1_555
Na1 O69 2.595938 1_555
Na1 O14 2.600812 1_555
Na1 O35 2.706471 1_555
Na1 O4 2.894043 1_555
Na1 O6 2.915853 1_555
Na2 O48 2.379598 1_555
Na2 O69 2.485338 1_655
Na2 O50 2.490502 1_555
Na2 O70 2.582070 1_655
Na2 O12 2.601702 1_555
Na2 O33 2.742312 1_655
Na2 O5 2.918027 1_555
Na2 O7 2.927862 1_655
Na3 O49 2.378835 1_555
Na3 O70 2.480370 1_545
Na3 O48 2.493787 1_555
Na3 O71 2.582690 1_545
Na3 O13 2.591901 1_555
Na3 O34 2.729983 1_545
Na3 O3 2.886405 1_555
Na3 O8 2.914238 1_545
Na4 O64 2.423149 1_555
Na4 O43 2.426555 1_555
Na4 O65 2.515495 1_555
Na4 O42 2.523642 1_455
Na4 O28 2.626771 1_555
Na4 O7 2.633958 1_555
Na4 O21 2.930616 1_555
Na4 O14 2.976943 1_555
Na5 O44 2.423612 1_455
Na5 O65 2.425574 1_555
Na5 O63 2.514140 1_555
Na5 O43 2.522613 1_565
Na5 O29 2.593570 1_555
Na5 O8 2.672121 1_555
Na5 O22 2.935605 1_455
Na5 O12 2.968620 1_455
Na6 O42 2.424229 1_565
Na6 O63 2.426613 1_555
Na6 O64 2.515843 1_555
Na6 O44 2.526389 1_555
Na6 O27 2.592835 1_555
Na6 O6 2.672439 1_555
Na6 O23 2.934348 1_565
Na6 O13 2.971371 1_565
Na7 O62 2.379203 1_555
Na7 O47 2.482254 1_565
Na7 O61 2.508515 1_555
Na7 O45 2.594397 1_455
Na7 O26 2.598597 1_554
Na7 O11 2.697727 1_555
Na7 O16 2.845928 1_565
Na7 O18 2.867383 1_565
Na8 O60 2.384804 1_555
Na8 O45 2.483690 1_555
Na8 O62 2.511192 1_555
Na8 O46 2.596294 1_565
Na8 O24 2.620436 1_554
Na8 O9 2.716452 1_555
Na8 O17 2.889207 1_555
Na8 O19 2.917927 1_555
Na9 O61 2.389760 1_555
Na9 O46 2.473041 1_455
Na9 O60 2.507816 1_555
Na9 O25 2.574150 1_554
Na9 O47 2.587877 1_555
Na9 O10 2.742226 1_555
Na9 O15 2.873563 1_455
Na9 O20 2.890174 1_455
Na10 O55 2.398650 1_555
Na10 O40 2.399800 1_655
Na10 O54 2.434565 1_555
Na10 O41 2.520573 1_555
Na10 O19 2.556308 1_556
Na10 O4 2.686546 1_555
Na11 O56 2.378178 1_555
Na11 O41 2.417594 1_545
Na11 O39 2.439671 1_655
Na11 O55 2.515331 1_555
Na11 O20 2.569378 1_556
Na11 O5 2.675084 1_555
Na12 O59 2.430090 1_555
Na12 O38 2.432638 1_655
Na12 O37 2.499905 1_545
Na12 O57 2.520021 1_555
Na12 O2 2.590284 1_555
Na12 O23 2.674115 1_555
Na12 O30 2.892490 1_655
Na12 O28 2.975430 1_655
Na13 O36 2.429980 1_545
Na13 O57 2.432997 1_555
Na13 O38 2.489225 1_555
Na13 O58 2.507926 1_555
Na13 O0 2.632511 1_555
Na13 O21 2.674852 1_555
Na13 O31 2.919083 1_545
Na13 O29 2.984514 1_545
Na14 O58 2.428111 1_555
Na14 O37 2.436617 1_555
Na14 O36 2.503400 1_655
Na14 O59 2.516765 1_555
Na14 O1 2.600123 1_555
Na14 O22 2.680368 1_555
Na14 O32 2.930056 1_555
Na14 O27 2.986899 1_555
Na15 O38 2.449170 1_555
Na15 O37 2.460299 1_445
Na15 O36 2.463517 1_545
Na15 O42 2.525782 1_455
Na15 O44 2.532072 1_445
Na15 O43 2.535171 1_555
Na16 O39 2.372197 1_555
Na16 O40 2.395099 1_545
Na16 O41 2.477312 1_445
Na16 O47 2.535009 1_556
Na16 O45 2.627856 1_446
Na16 O46 2.637843 1_456
Na17 O54 2.406159 1_555
Na17 O56 2.428786 1_555
Na17 O55 2.502311 1_555
Na17 O49 2.521212 1_555
Na17 O50 2.594318 1_555
Na17 O48 2.594942 1_555
Na18 O52 2.370164 1_555
Na18 O51 2.430178 1_555
Na18 O53 2.469267 1_555
Na18 O57 2.578116 1_555
Na18 O59 2.578156 1_555
Na18 O58 2.646921 1_555
Na19 O61 2.468574 1_555
Na19 O62 2.469161 1_555
Na19 O66 2.485669 1_555
Na19 O60 2.552619 1_555
Na19 O67 2.577199 1_555
Na19 O68 2.594651 1_555
Na20 O64 2.407971 1_555
Na20 O63 2.408955 1_555
Na20 O65 2.416256 1_555
Na20 O71 2.586956 1_555
Na20 O70 2.592065 1_555
Na20 O69 2.598828 1_555
O0 Si0 1.649482 1_555
O0 Ti0 1.896131 1_445
O1 Si1 1.643031 1_555
O1 Ti0 1.876939 1_555
O2 Si2 1.645895 1_555
O2 Ti0 1.885716 1_545
O3 Si3 1.635231 1_555
O3 Ti1 1.875954 1_555
O4 Si4 1.631479 1_555
O4 Ti1 1.951766 1_665
O5 Si5 1.630945 1_555
O5 Ti1 1.953566 1_655
O6 Si5 1.644359 1_565
O6 Ti2 1.919139 1_655
O7 Si3 1.642779 1_555
O7 Ti2 1.926276 1_545
O8 Si4 1.646001 1_455
O8 Ti2 1.923104 1_555
O9 Si1 1.652434 1_555
O9 Ta0 1.928450 1_555
O10 Si2 1.659727 1_455
O10 Ta0 1.946766 1_445
O11 Si0 1.656962 1_565
O11 Ta0 1.937183 1_455
O12 Si6 1.651670 1_555
O12 Ti3 1.894648 1_555
O13 Si7 1.650851 1_555
O13 Ti3 1.900648 1_555
O14 Si8 1.651562 1_555
O14 Ti3 1.899075 1_555
O15 Si9 1.628330 1_555
O15 Ti4 1.897732 1_555
O16 Si10 1.629391 1_555
O16 Ti4 1.903507 1_555
O17 Si11 1.623102 1_555
O17 Ti4 2.011203 1_555
O18 Si11 1.650520 1_555
O18 Ti5 1.862365 1_554
O19 Si9 1.640983 1_555
O19 Ti5 1.947611 1_554
O20 Si10 1.643559 1_555
O20 Ti5 1.950479 1_554
O21 Si7 1.640552 1_555
O21 Ti6 1.918308 1_555
O22 Si8 1.641193 1_555
O22 Ti6 1.917730 1_555
O23 Si6 1.640592 1_555
O23 Ti6 1.923415 1_555
O24 Si12 1.638940 1_555
O24 Ti7 1.902923 1_556
O25 Si13 1.635590 1_555
O25 Ti7 1.891200 1_556
O26 Si14 1.643245 1_555
O26 Ti7 1.919073 1_556
O27 Si15 1.652182 1_555
O27 Ti8 1.893397 1_555
O28 Si16 1.655079 1_555
O28 Ti8 1.890083 1_555
O29 Si17 1.654543 1_555
O29 Ti8 1.894699 1_555
O30 Si17 1.640056 1_555
O30 Ta1 1.951967 1_555
O31 Si15 1.640929 1_555
O31 Ta1 1.949199 1_555
O32 Si16 1.639460 1_555
O32 Ta1 2.005880 1_555
O33 Si13 1.665848 1_555
O33 Ta2 1.928783 1_555
O34 Si14 1.675331 1_555
O34 Ta2 1.935312 1_555
O35 Si12 1.663913 1_555
O35 Ta2 1.924093 1_555
O36 Si17 1.629647 1_555
O36 Ti0 2.092279 1_455
O37 Si15 1.630368 1_555
O37 Ti0 2.078006 1_555
O38 Si16 1.631173 1_555
O38 Ti0 2.097517 1_445
O39 Si13 1.627384 1_555
O39 Ti1 2.001368 1_555
O40 Si14 1.626521 1_555
O40 Ti1 2.011400 1_565
O41 Si12 1.636465 1_555
O41 Ti1 2.072389 1_665
O42 Si6 1.639750 1_555
O42 Ti2 2.041198 1_645
O43 Si7 1.640290 1_555
O43 Ti2 2.031717 1_545
O44 Si8 1.640695 1_555
O44 Ti2 2.035903 1_655
O45 Si9 1.659062 1_555
O45 Ta0 2.036326 1_555
O46 Si10 1.660361 1_555
O46 Ta0 2.040776 1_545
O47 Si11 1.658869 1_555
O47 Ta0 2.054621 1_445
O48 Si5 1.634013 1_555
O48 Ti3 2.065927 1_555
O49 Si3 1.630686 1_555
O49 Ti3 2.072101 1_555
O50 Si4 1.634233 1_555
O50 Ti3 2.062748 1_555
O51 Si1 1.615603 1_555
O51 Ti4 2.046259 1_555
O52 Si2 1.609695 1_555
O52 Ti4 1.967553 1_555
O53 Si0 1.615180 1_555
O53 Ti4 2.053779 1_555
O54 Si12 1.621580 1_555
O54 Ti5 2.017915 1_555
O55 Si13 1.628844 1_655
O55 Ti5 2.097966 1_555
O56 Si14 1.619321 1_545
O56 Ti5 2.028832 1_555
O57 Si15 1.631670 1_545
O57 Ti6 2.035971 1_555
O58 Si16 1.635571 1_555
O58 Ti6 2.029242 1_555
O59 Si17 1.632118 1_655
O59 Ti6 2.029073 1_555
O60 Si11 1.639096 1_555
O60 Ti7 2.046346 1_555
O61 Si9 1.635970 1_455
O61 Ti7 2.060828 1_555
O62 Si10 1.635463 1_565
O62 Ti7 2.073137 1_555
O63 Si7 1.634292 1_565
O63 Ti8 2.080361 1_555
O64 Si8 1.634205 1_555
O64 Ti8 2.087481 1_555
O65 Si6 1.634826 1_455
O65 Ti8 2.075586 1_555
O66 Si0 1.632975 1_565
O66 Ta1 1.975761 1_555
O67 Si1 1.648529 1_555
O67 Ta1 2.009478 1_555
O68 Si2 1.646168 1_455
O68 Ta1 2.027167 1_555
O69 Si3 1.651442 1_555
O69 Ta2 2.047962 1_555
O70 Si4 1.654675 1_455
O70 Ta2 2.058972 1_555
O71 Si5 1.654753 1_565
O71 Ta2 2.048398 1_555
