# generated using pymatgen
data_K3B6BrO10
_symmetry_space_group_name_H-M   'P 1'
_cell_length_a   6.62621122
_cell_length_b   6.62621122
_cell_length_c   6.62621159
_cell_angle_alpha   100.86405373
_cell_angle_beta   100.86405373
_cell_angle_gamma   100.86406361
_symmetry_Int_Tables_number   1
_chemical_formula_structural   K3B6BrO10
_chemical_formula_sum   'K3 B6 Br1 O10'
_cell_volume   272.92661677
_cell_formula_units_Z   1
loop_
 _symmetry_equiv_pos_site_id
 _symmetry_equiv_pos_as_xyz
  1  'x, y, z'
loop_
 _atom_site_type_symbol
 _atom_site_label
 _atom_site_symmetry_multiplicity
 _atom_site_fract_x
 _atom_site_fract_y
 _atom_site_fract_z
 _atom_site_occupancy
  K  K0  1  0.92996100  0.92996100  0.47183200  1
  K  K1  1  0.92996100  0.47183200  0.92996100  1
  K  K2  1  0.47183200  0.92996100  0.92996100  1
  B  B0  1  0.35882200  0.35882200  0.62117800  1
  B  B1  1  0.35882200  0.62117800  0.35882200  1
  B  B2  1  0.62117800  0.35882200  0.35882200  1
  B  B3  1  0.47831800  0.03120900  0.47831800  1
  B  B4  1  0.47831800  0.47831800  0.03120900  1
  B  B5  1  0.03120900  0.47831800  0.47831800  1
  Br  Br0  1  0.99464800  0.99464800  0.99464800  1
  O  O0  1  0.82582600  0.48676000  0.48676000  1
  O  O1  1  0.44321500  0.44321500  0.44321500  1
  O  O2  1  0.48676000  0.82582600  0.48676000  1
  O  O3  1  0.48676000  0.48676000  0.82582600  1
  O  O4  1  0.13511300  0.36626100  0.60001200  1
  O  O5  1  0.60001200  0.13511300  0.36626100  1
  O  O6  1  0.36626100  0.60001200  0.13511300  1
  O  O7  1  0.36626100  0.13511300  0.60001200  1
  O  O8  1  0.60001200  0.36626100  0.13511300  1
  O  O9  1  0.13511300  0.60001200  0.36626100  1
loop_
_geom_bond_atom_site_label_1
_geom_bond_atom_site_label_2
_geom_bond_distance
_geom_bond_site_symmetry_2
K0 O5 2.831872 1_565
K0 O9 2.831872 1_655
K0 O7 2.843412 1_665
K0 O4 2.843412 1_665
K0 O0 2.912341 1_555
K0 O2 2.912341 1_555
K1 O8 2.831872 1_556
K1 O4 2.831872 1_655
K1 O6 2.843412 1_656
K1 O9 2.843412 1_656
K1 O3 2.912341 1_555
K1 O0 2.912342 1_555
K2 O6 2.831872 1_556
K2 O7 2.831872 1_565
K2 O8 2.843412 1_566
K2 O5 2.843412 1_566
K2 O3 2.912341 1_555
K2 O2 2.912342 1_555
B0 O3 1.462393 1_555
B0 O7 1.473506 1_555
B0 O4 1.473506 1_555
B0 O1 1.547662 1_555
B1 O2 1.462393 1_555
B1 O9 1.473506 1_555
B1 O6 1.473507 1_555
B1 O1 1.547662 1_555
B2 O0 1.462393 1_555
B2 O5 1.473506 1_555
B2 O8 1.473507 1_555
B2 O1 1.547662 1_555
B3 O5 1.372845 1_555
B3 O7 1.372846 1_555
B3 O2 1.383673 1_545
B4 O8 1.372846 1_555
B4 O6 1.372846 1_555
B4 O3 1.383673 1_554
B5 O9 1.372845 1_555
B5 O4 1.372846 1_555
B5 O0 1.383673 1_455
Br0 K1 3.343651 1_555
Br0 K2 3.343651 1_555
Br0 K0 3.343651 1_555
Br0 K1 3.364182 1_565
Br0 K2 3.364182 1_655
Br0 K0 3.364182 1_556
