# generated using pymatgen
data_K2SnTe3
_symmetry_space_group_name_H-M   'P 1'
_cell_length_a   12.43665328
_cell_length_b   12.43665328
_cell_length_c   8.76975945
_cell_angle_alpha   90.00000000
_cell_angle_beta   90.00000000
_cell_angle_gamma   138.86239623
_symmetry_Int_Tables_number   1
_chemical_formula_structural   K2SnTe3
_chemical_formula_sum   'K8 Sn4 Te12'
_cell_volume   892.34871506
_cell_formula_units_Z   4
loop_
 _symmetry_equiv_pos_site_id
 _symmetry_equiv_pos_as_xyz
  1  'x, y, z'
loop_
 _atom_site_type_symbol
 _atom_site_label
 _atom_site_symmetry_multiplicity
 _atom_site_fract_x
 _atom_site_fract_y
 _atom_site_fract_z
 _atom_site_occupancy
  K  K0  1  0.07767823  0.92232177  0.00000000  1
  K  K1  1  0.42232177  0.57767823  0.50000000  1
  K  K2  1  0.92232177  0.07767823  0.00000000  1
  K  K3  1  0.57767823  0.42232177  0.50000000  1
  K  K4  1  0.23438325  0.76561675  0.00000000  1
  K  K5  1  0.73438325  0.26561675  0.50000000  1
  K  K6  1  0.26561675  0.73438325  0.50000000  1
  K  K7  1  0.76561675  0.23438325  0.00000000  1
  Sn  Sn0  1  0.41557440  0.58442560  0.00000000  1
  Sn  Sn1  1  0.08442560  0.91557440  0.50000000  1
  Sn  Sn2  1  0.58442560  0.41557440  0.00000000  1
  Sn  Sn3  1  0.91557440  0.08442560  0.50000000  1
  Te  Te0  1  0.33441170  0.03513457  0.68523963  1
  Te  Te1  1  0.53513457  0.83441170  0.81476037  1
  Te  Te2  1  0.16558830  0.46486543  0.18523963  1
  Te  Te3  1  0.96486543  0.66558830  0.31476037  1
  Te  Te4  1  0.66558830  0.96486543  0.31476037  1
  Te  Te5  1  0.46486543  0.16558830  0.18523963  1
  Te  Te6  1  0.83441170  0.53513457  0.81476037  1
  Te  Te7  1  0.03513457  0.33441170  0.68523963  1
  Te  Te8  1  0.83307205  0.83307205  0.66666965  1
  Te  Te9  1  0.33307205  0.33307205  0.83333035  1
  Te  Te10  1  0.66692795  0.66692795  0.16666965  1
  Te  Te11  1  0.16692795  0.16692795  0.33333035  1
loop_
_geom_bond_atom_site_label_1
_geom_bond_atom_site_label_2
_geom_bond_distance
_geom_bond_site_symmetry_2
K0 Te0 3.610423 1_564
K0 Te3 3.610423 1_455
K0 Te6 3.610493 1_454
K0 Te5 3.610493 1_565
K0 Te9 3.725663 1_564
K0 Te10 3.725663 1_455
K0 Te8 3.734365 1_454
K0 Te11 3.734365 1_565
K1 Te1 3.610423 1_555
K1 Te2 3.610423 1_555
K1 Te7 3.610493 1_555
K1 Te4 3.610493 1_555
K1 Te11 3.725663 1_555
K1 Te8 3.725663 1_555
K1 Te10 3.734365 1_555
K1 Te9 3.734365 1_555
K2 Te7 3.610423 1_654
K2 Te4 3.610423 1_545
K2 Te2 3.610493 1_655
K2 Te1 3.610493 1_544
K2 Te10 3.725663 1_545
K2 Te9 3.725663 1_654
K2 Te8 3.734365 1_544
K2 Te11 3.734365 1_655
K3 Te5 3.610423 1_555
K3 Te6 3.610423 1_555
K3 Te0 3.610493 1_555
K3 Te3 3.610493 1_555
K3 Te8 3.725663 1_555
K3 Te11 3.725663 1_555
K3 Te9 3.734365 1_555
K3 Te10 3.734365 1_555
K4 Te2 3.541314 1_555
K4 Te1 3.541314 1_554
K4 Te3 3.757874 1_455
K4 Te0 3.757874 1_564
K4 Te6 3.757941 1_454
K4 Te5 3.757941 1_565
K5 Te4 3.541314 1_545
K5 Te7 3.541314 1_655
K5 Te6 3.757874 1_555
K5 Te5 3.757874 1_555
K5 Te3 3.757941 1_555
K5 Te0 3.757941 1_555
K6 Te3 3.541314 1_455
K6 Te0 3.541314 1_565
K6 Te1 3.757874 1_555
K6 Te2 3.757874 1_555
K6 Te4 3.757941 1_555
K6 Te7 3.757941 1_555
K7 Te5 3.541314 1_555
K7 Te6 3.541314 1_554
K7 Te4 3.757874 1_545
K7 Te7 3.757874 1_654
K7 Te2 3.757941 1_655
K7 Te1 3.757941 1_544
Sn0 Te2 2.748195 1_555
Sn0 Te1 2.748195 1_554
Sn0 Te9 2.851284 1_554
Sn0 Te10 2.851284 1_555
Sn1 Te0 2.748195 1_565
Sn1 Te3 2.748195 1_455
Sn1 Te8 2.851284 1_455
Sn1 Te11 2.851284 1_565
Sn2 Te6 2.748195 1_554
Sn2 Te5 2.748195 1_555
Sn2 Te10 2.851284 1_555
Sn2 Te9 2.851284 1_554
Sn3 Te7 2.748195 1_655
Sn3 Te4 2.748195 1_545
Sn3 Te8 2.851284 1_545
Sn3 Te11 2.851284 1_655
