# generated using pymatgen
data_KGdP2H4O9
_symmetry_space_group_name_H-M   'P 1'
_cell_length_a   10.69764400
_cell_length_b   7.90497100
_cell_length_c   10.20604387
_cell_angle_alpha   86.51026488
_cell_angle_beta   90.00000000
_cell_angle_gamma   90.00000000
_symmetry_Int_Tables_number   1
_chemical_formula_structural   KGdP2H4O9
_chemical_formula_sum   'K4 Gd4 P8 H16 O36'
_cell_volume   861.46929283
_cell_formula_units_Z   4
loop_
 _symmetry_equiv_pos_site_id
 _symmetry_equiv_pos_as_xyz
  1  'x, y, z'
loop_
 _atom_site_type_symbol
 _atom_site_label
 _atom_site_symmetry_multiplicity
 _atom_site_fract_x
 _atom_site_fract_y
 _atom_site_fract_z
 _atom_site_occupancy
  K  K0  1  0.78128000  0.24650000  0.33273000  1
  K  K1  1  0.28128000  0.75350000  0.16727000  1
  K  K2  1  0.21872000  0.75350000  0.66727000  1
  K  K3  1  0.71872000  0.24650000  0.83273000  1
  Gd  Gd0  1  0.88660500  0.74816300  0.32620100  1
  Gd  Gd1  1  0.38660500  0.25183700  0.17379900  1
  Gd  Gd2  1  0.11339500  0.25183700  0.67379900  1
  Gd  Gd3  1  0.61339500  0.74816300  0.82620100  1
  P  P0  1  0.65220500  0.96598500  0.12198400  1
  P  P1  1  0.15220500  0.03401500  0.37801600  1
  P  P2  1  0.34779500  0.03401500  0.87801600  1
  P  P3  1  0.84779500  0.96598500  0.62198400  1
  P  P4  1  0.60827500  0.60858300  0.16838000  1
  P  P5  1  0.10827500  0.39141700  0.33162000  1
  P  P6  1  0.39172500  0.39141700  0.83162000  1
  P  P7  1  0.89172500  0.60858300  0.66838000  1
  H  H0  1  0.90709500  0.84782100  0.03571800  1
  H  H1  1  0.40709500  0.15217900  0.46428200  1
  H  H2  1  0.09290500  0.15217900  0.96428200  1
  H  H3  1  0.59290500  0.84782100  0.53571800  1
  H  H4  1  0.01749900  0.71013000  0.03670600  1
  H  H5  1  0.51749900  0.28987000  0.46329400  1
  H  H6  1  0.98250100  0.28987000  0.96329400  1
  H  H7  1  0.48250100  0.71013000  0.53670600  1
  H  H8  1  0.57524700  0.42980700  0.63139600  1
  H  H9  1  0.07524700  0.57019300  0.86860400  1
  H  H10  1  0.42475300  0.57019300  0.36860400  1
  H  H11  1  0.92475300  0.42980700  0.13139600  1
  H  H12  1  0.68927200  0.46531900  0.53753500  1
  H  H13  1  0.18927200  0.53468100  0.96246500  1
  H  H14  1  0.31072800  0.53468100  0.46246500  1
  H  H15  1  0.81072800  0.46531900  0.03753500  1
  O  O0  1  0.95915400  0.77367500  0.09259500  1
  O  O1  1  0.45915400  0.22632500  0.40740500  1
  O  O2  1  0.04084600  0.22632500  0.90740500  1
  O  O3  1  0.54084600  0.77367500  0.59259500  1
  O  O4  1  0.62442800  0.37984900  0.56087600  1
  O  O5  1  0.12442800  0.62015100  0.93912400  1
  O  O6  1  0.37557200  0.62015100  0.43912400  1
  O  O7  1  0.87557200  0.37984900  0.06087600  1
  O  O8  1  0.77051400  0.95087700  0.20590400  1
  O  O9  1  0.27051400  0.04912300  0.29409600  1
  O  O10  1  0.22948600  0.04912300  0.79409600  1
  O  O11  1  0.72948600  0.95087700  0.70590400  1
  O  O12  1  0.57880800  0.12627300  0.14716300  1
  O  O13  1  0.07880800  0.87372700  0.35283700  1
  O  O14  1  0.42119200  0.87372700  0.85283700  1
  O  O15  1  0.92119200  0.12627300  0.64716300  1
  O  O16  1  0.67885400  0.94521900  0.97643300  1
  O  O17  1  0.17885400  0.05478100  0.52356700  1
  O  O18  1  0.32114600  0.05478100  0.02356700  1
  O  O19  1  0.82114600  0.94521900  0.47643300  1
  O  O20  1  0.56080300  0.80654500  0.17164500  1
  O  O21  1  0.06080300  0.19345500  0.32835500  1
  O  O22  1  0.43919700  0.19345500  0.82835500  1
  O  O23  1  0.93919700  0.80654500  0.67164500  1
  O  O24  1  0.71732300  0.58547500  0.26493900  1
  O  O25  1  0.21732300  0.41452500  0.23506100  1
  O  O26  1  0.28267700  0.41452500  0.73506100  1
  O  O27  1  0.78267700  0.58547500  0.76493900  1
  O  O28  1  0.49252700  0.50844400  0.21580200  1
  O  O29  1  0.99252700  0.49155600  0.28419800  1
  O  O30  1  0.50747300  0.49155600  0.78419800  1
  O  O31  1  0.00747300  0.50844400  0.71580200  1
  O  O32  1  0.64673600  0.58044100  0.02661600  1
  O  O33  1  0.14673600  0.41955900  0.47338400  1
  O  O34  1  0.35326400  0.41955900  0.97338400  1
  O  O35  1  0.85326400  0.58044100  0.52661600  1
loop_
_geom_bond_atom_site_label_1
_geom_bond_atom_site_label_2
_geom_bond_distance
_geom_bond_site_symmetry_2
K0 O8 2.741901 1_545
K0 O19 2.753140 1_545
K0 O24 2.810925 1_555
K1 O9 2.741901 1_565
K1 O18 2.753140 1_565
K1 O25 2.810925 1_555
K2 O10 2.741901 1_565
K2 O17 2.753140 1_565
K2 O26 2.810925 1_555
K3 O11 2.741901 1_545
K3 O16 2.753140 1_545
K3 O27 2.810925 1_555
Gd0 O13 2.306424 1_655
Gd0 O8 2.319058 1_555
Gd0 O24 2.328552 1_555
Gd0 O19 2.357658 1_555
Gd0 O29 2.385011 1_555
Gd0 O35 2.395569 1_555
Gd0 O0 2.503767 1_555
Gd1 O12 2.306424 1_555
Gd1 O9 2.319058 1_555
Gd1 O25 2.328552 1_555
Gd1 O18 2.357658 1_555
Gd1 O28 2.385011 1_555
Gd1 O34 2.395569 1_554
Gd1 O1 2.503767 1_555
Gd2 O15 2.306424 1_455
Gd2 O10 2.319058 1_555
Gd2 O26 2.328552 1_555
Gd2 O17 2.357658 1_555
Gd2 O31 2.385011 1_555
Gd2 O33 2.395569 1_555
Gd2 O2 2.503767 1_555
Gd3 O14 2.306424 1_555
Gd3 O11 2.319058 1_555
Gd3 O27 2.328552 1_555
Gd3 O16 2.357658 1_555
Gd3 O30 2.385011 1_555
Gd3 O32 2.395569 1_556
Gd3 O3 2.503767 1_555
H0 O0 0.974286 1_555
H1 O1 0.974286 1_555
H2 O2 0.974286 1_555
H3 O3 0.974286 1_555
H4 O0 1.001069 1_455
H5 O1 1.001069 1_555
H6 O2 1.001069 1_655
H7 O3 1.001069 1_555
H8 O4 0.992661 1_555
H9 O5 0.992661 1_555
H10 O6 0.992661 1_555
H11 O7 0.992661 1_555
H12 O4 0.987335 1_555
H13 O5 0.987335 1_555
H14 O6 0.987335 1_555
H15 O7 0.987335 1_555
O8 P0 1.528791 1_555
O9 P1 1.528791 1_555
O10 P2 1.528791 1_555
O11 P3 1.528791 1_555
O12 P0 1.525663 1_545
O13 P1 1.525663 1_565
O14 P2 1.525663 1_565
O15 P3 1.525663 1_545
O16 P0 1.531213 1_556
O17 P1 1.531213 1_555
O18 P2 1.531213 1_554
O19 P3 1.531213 1_555
O20 P4 1.647489 1_555
O20 P0 1.650368 1_555
O21 P5 1.647489 1_555
O21 P1 1.650368 1_555
O22 P6 1.647489 1_555
O22 P2 1.650368 1_555
O23 P7 1.647489 1_555
O23 P3 1.650368 1_555
O24 P4 1.530846 1_555
O25 P5 1.530846 1_555
O26 P6 1.530846 1_555
O27 P7 1.530846 1_555
O28 P4 1.532138 1_555
O29 P5 1.532138 1_655
O30 P6 1.532138 1_555
O31 P7 1.532138 1_455
O32 P4 1.533405 1_555
O33 P5 1.533405 1_555
O34 P6 1.533405 1_555
O35 P7 1.533405 1_555
