# generated using pymatgen
data_MgAgMoH4S4N
_symmetry_space_group_name_H-M   'P 1'
_cell_length_a   6.67151262
_cell_length_b   6.35238445
_cell_length_c   6.37460709
_cell_angle_alpha   74.09817111
_cell_angle_beta   58.44692674
_cell_angle_gamma   58.32376087
_symmetry_Int_Tables_number   1
_chemical_formula_structural   MgAgMoH4S4N
_chemical_formula_sum   'Mg1 Ag1 Mo1 H4 S4 N1'
_cell_volume   195.91946530
_cell_formula_units_Z   1
loop_
 _symmetry_equiv_pos_site_id
 _symmetry_equiv_pos_as_xyz
  1  'x, y, z'
loop_
 _atom_site_type_symbol
 _atom_site_label
 _atom_site_symmetry_multiplicity
 _atom_site_fract_x
 _atom_site_fract_y
 _atom_site_fract_z
 _atom_site_occupancy
  Mg  Mg0  1  0.99303080  0.00000000  -0.00000000  1
  Ag  Ag0  1  0.74845264  0.50000000  0.50000000  1
  Mo  Mo0  1  0.24776639  0.50000000  0.50000000  1
  H  H0  1  0.67125401  0.84033324  0.95830456  1
  H  H1  1  0.46989181  0.15966676  0.04169544  1
  H  H2  1  0.34889568  0.95813073  0.15841797  1
  H  H3  1  0.46544437  0.04186927  0.84158203  1
  S  S0  1  0.90978659  0.42846019  0.83385575  1
  S  S1  1  0.17210352  0.57153981  0.16614425  1
  S  S2  1  0.25237375  0.83421467  0.57261864  1
  S  S3  1  0.65920606  0.16578533  0.42738136  1
  N  N0  1  0.48887738  0.00000000  -0.00000000  1
loop_
_geom_bond_atom_site_label_1
_geom_bond_atom_site_label_2
_geom_bond_distance
_geom_bond_site_symmetry_2
Mg0 S2 2.500049 1_644
Mg0 S3 2.500049 1_555
Mg0 S0 2.507289 1_554
Mg0 S1 2.507289 1_645
Ag0 S2 2.689009 1_555
Ag0 S3 2.689014 1_555
Ag0 S0 2.692198 1_555
Ag0 S1 2.692203 1_655
Mo0 S1 2.311705 1_555
Mo0 S0 2.311709 1_455
Mo0 S3 2.311835 1_555
Mo0 S2 2.311839 1_555
H0 N0 1.045462 1_566
H1 N0 1.045462 1_555
H2 N0 1.043723 1_565
H3 N0 1.043723 1_556
