# generated using pymatgen
data_Ba2Si3Ni
_symmetry_space_group_name_H-M   'P 1'
_cell_length_a   11.47951174
_cell_length_b   11.47950748
_cell_length_c   3.88915506
_cell_angle_alpha   89.99999927
_cell_angle_beta   89.99999792
_cell_angle_gamma   119.99912336
_symmetry_Int_Tables_number   1
_chemical_formula_structural   Ba2Si3Ni
_chemical_formula_sum   'Ba6 Si9 Ni3'
_cell_volume   443.85017830
_cell_formula_units_Z   3
loop_
 _symmetry_equiv_pos_site_id
 _symmetry_equiv_pos_as_xyz
  1  'x, y, z'
loop_
 _atom_site_type_symbol
 _atom_site_label
 _atom_site_symmetry_multiplicity
 _atom_site_fract_x
 _atom_site_fract_y
 _atom_site_fract_z
 _atom_site_occupancy
  Ba  Ba0  1  0.61797865  0.00000177  -0.00000002  1
  Ba  Ba1  1  0.38201887  0.38201965  -0.00000002  1
  Ba  Ba2  1  0.00000207  0.61797896  -0.00000003  1
  Ba  Ba3  1  0.00000002  0.28717472  0.00000001  1
  Ba  Ba4  1  0.71282733  0.71282694  0.00000000  1
  Ba  Ba5  1  0.28717349  0.99999900  -0.00000001  1
  Si  Si0  1  0.87828904  0.00000090  0.50000000  1
  Si  Si1  1  0.00000108  0.87828945  0.50000002  1
  Si  Si2  1  0.12171051  0.12171082  0.50000000  1
  Si  Si3  1  0.77804267  0.31599570  0.50000004  1
  Si  Si4  1  0.68400427  0.46204497  0.50000003  1
  Si  Si5  1  0.31599485  0.77804119  0.49999986  1
  Si  Si6  1  0.22195759  0.53795458  0.49999989  1
  Si  Si7  1  0.46204391  0.68400318  0.49999987  1
  Si  Si8  1  0.53795575  0.22195862  0.50000002  1
  Ni  Ni0  1  0.33332793  0.66666606  0.00000072  1
  Ni  Ni1  1  0.66667105  0.33333249  -0.00000016  1
  Ni  Ni2  1  0.00000092  0.00000196  -0.00000023  1
loop_
_geom_bond_atom_site_label_1
_geom_bond_atom_site_label_2
_geom_bond_distance
_geom_bond_site_symmetry_2
Ba0 Si0 3.565244 1_554
Ba0 Si0 3.565244 1_555
Ba0 Ni1 3.579878 1_555
Ba0 Ni0 3.580006 1_545
Ba0 Si8 3.668498 1_554
Ba0 Si8 3.668498 1_555
Ba0 Si5 3.668576 1_545
Ba0 Si5 3.668577 1_544
Ba0 Si3 3.694718 1_554
Ba0 Si3 3.694718 1_555
Ba0 Si7 3.694756 1_545
Ba0 Si7 3.694757 1_544
Ba1 Si2 3.565256 1_555
Ba1 Si2 3.565256 1_554
Ba1 Ni0 3.579945 1_555
Ba1 Ni1 3.579985 1_555
Ba1 Si7 3.668548 1_555
Ba1 Si7 3.668548 1_554
Ba1 Si4 3.668566 1_554
Ba1 Si4 3.668566 1_555
Ba1 Si6 3.694702 1_555
Ba1 Si6 3.694702 1_554
Ba1 Si8 3.694716 1_554
Ba1 Si8 3.694716 1_555
Ba2 Si1 3.565245 1_554
Ba2 Si1 3.565245 1_555
Ba2 Ni0 3.579847 1_555
Ba2 Ni1 3.579955 1_455
Ba2 Si6 3.668496 1_555
Ba2 Si6 3.668496 1_554
Ba2 Si3 3.668569 1_454
Ba2 Si3 3.668569 1_455
Ba2 Si5 3.694709 1_555
Ba2 Si5 3.694709 1_554
Ba2 Si4 3.694751 1_454
Ba2 Si4 3.694751 1_455
Ba3 Ni2 3.296607 1_555
Ba3 Si3 3.350511 1_454
Ba3 Si3 3.350511 1_455
Ba3 Si6 3.350552 1_555
Ba3 Si6 3.350553 1_554
Ba3 Si2 3.463403 1_555
Ba3 Si2 3.463403 1_554
Ba3 Si0 3.463425 1_455
Ba3 Si0 3.463425 1_454
Ba4 Ni2 3.296664 1_665
Ba4 Si4 3.350544 1_554
Ba4 Si4 3.350544 1_555
Ba4 Si7 3.350555 1_555
Ba4 Si7 3.350556 1_554
Ba4 Si1 3.463432 1_654
Ba4 Si1 3.463432 1_655
Ba4 Si0 3.463432 1_564
Ba4 Si0 3.463432 1_565
Ba5 Ni2 3.296618 1_565
Ba5 Si5 3.350517 1_555
Ba5 Si5 3.350517 1_554
Ba5 Si8 3.350574 1_564
Ba5 Si8 3.350574 1_565
Ba5 Si2 3.463406 1_565
Ba5 Si2 3.463406 1_564
Ba5 Si1 3.463415 1_555
Ba5 Si1 3.463415 1_554
Si0 Si1 2.419995 1_645
Si0 Si2 2.420008 1_655
Si1 Si2 2.420006 1_565
Si3 Si4 2.405429 1_555
Si3 Si8 2.405450 1_555
Si4 Si8 2.405451 1_555
Si5 Si7 2.405424 1_555
Si5 Si6 2.405446 1_555
Si6 Si7 2.405452 1_555
Ni0 Si5 2.389559 1_555
Ni0 Si5 2.389565 1_554
Ni0 Si6 2.389572 1_555
Ni0 Si6 2.389577 1_554
Ni0 Si7 2.389603 1_555
Ni0 Si7 2.389609 1_554
Ni1 Si3 2.389553 1_554
Ni1 Si3 2.389554 1_555
Ni1 Si4 2.389592 1_554
Ni1 Si4 2.389593 1_555
Ni1 Si8 2.389599 1_554
Ni1 Si8 2.389600 1_555
Ni2 Si2 2.394471 1_554
Ni2 Si2 2.394473 1_555
Ni2 Si0 2.394475 1_454
Ni2 Si0 2.394476 1_455
Ni2 Si1 2.394483 1_544
Ni2 Si1 2.394484 1_545
