# generated using pymatgen
data_MgFe4(OF)4
_symmetry_space_group_name_H-M   'P 1'
_cell_length_a   5.17422837
_cell_length_b   5.42114103
_cell_length_c   5.95767351
_cell_angle_alpha   89.94392909
_cell_angle_beta   88.92255839
_cell_angle_gamma   99.69419635
_symmetry_Int_Tables_number   1
_chemical_formula_structural   MgFe4(OF)4
_chemical_formula_sum   'Mg1 Fe4 O4 F4'
_cell_volume   164.69718073
_cell_formula_units_Z   1
loop_
 _symmetry_equiv_pos_site_id
 _symmetry_equiv_pos_as_xyz
  1  'x, y, z'
loop_
 _atom_site_type_symbol
 _atom_site_label
 _atom_site_symmetry_multiplicity
 _atom_site_fract_x
 _atom_site_fract_y
 _atom_site_fract_z
 _atom_site_occupancy
  Mg  Mg0  1  0.54976712  0.04974495  0.50830581  1
  Fe  Fe0  1  0.01458942  0.91793567  0.00145364  1
  Fe  Fe1  1  0.06051268  0.01401326  0.49595308  1
  Fe  Fe2  1  0.43610356  0.55549264  0.23332984  1
  Fe  Fe3  1  0.43101876  0.56171735  0.76394268  1
  O  O0  1  0.23809943  0.82837827  0.24654507  1
  O  O1  1  0.23703575  0.85175647  0.74795767  1
  O  O2  1  0.35256218  0.32785163  0.48663168  1
  O  O3  1  0.70529182  0.65827583  0.01050945  1
  F  F0  1  0.24732156  0.30635644  0.01296424  1
  F  F1  1  0.69213992  0.73001039  0.49055885  1
  F  F2  1  0.81722806  0.12731592  0.25244432  1
  F  F3  1  0.81554673  0.12671117  0.74940366  1
loop_
_geom_bond_atom_site_label_1
_geom_bond_atom_site_label_2
_geom_bond_distance
_geom_bond_site_symmetry_2
Mg0 O2 1.963047 1_555
Mg0 O1 2.265862 1_545
Mg0 O0 2.432947 1_545
Fe0 O3 1.945127 1_455
Fe0 O1 1.951688 1_554
Fe0 O0 1.989098 1_555
Fe1 O1 2.044900 1_545
Fe1 O2 2.076545 1_555
Fe1 O0 2.080374 1_545
Fe2 O3 1.918426 1_555
Fe2 O0 1.936993 1_555
Fe2 O2 1.944045 1_555
Fe3 O1 2.005884 1_555
Fe3 O3 2.067747 1_556
Fe3 O2 2.087506 1_555
F0 Fe2 2.027136 1_555
F0 Fe3 2.126194 1_554
F0 Fe0 2.244582 1_545
F1 Mg0 1.996432 1_565
F1 Fe2 2.157717 1_555
F1 Fe3 2.193126 1_555
F1 Fe1 2.240215 1_665
F2 Mg0 2.034467 1_555
F2 Fe1 2.096158 1_655
F2 Fe0 2.214383 1_645
F3 Mg0 2.002671 1_555
F3 Fe1 2.109620 1_655
F3 Fe0 2.245873 1_646
