# generated using pymatgen
data_Fe(SeO3)2
_symmetry_space_group_name_H-M   'P 1'
_cell_length_a   9.25235141
_cell_length_b   9.25235141
_cell_length_c   9.25235141
_cell_angle_alpha   107.93856443
_cell_angle_beta   107.93856443
_cell_angle_gamma   112.58203996
_symmetry_Int_Tables_number   1
_chemical_formula_structural   Fe(SeO3)2
_chemical_formula_sum   'Fe4 Se8 O24'
_cell_volume   608.36970208
_cell_formula_units_Z   4
loop_
 _symmetry_equiv_pos_site_id
 _symmetry_equiv_pos_as_xyz
  1  'x, y, z'
loop_
 _atom_site_type_symbol
 _atom_site_label
 _atom_site_symmetry_multiplicity
 _atom_site_fract_x
 _atom_site_fract_y
 _atom_site_fract_z
 _atom_site_occupancy
  Fe  Fe0  1  0.62500000  0.58440500  0.45940500  1
  Fe  Fe1  1  0.12500000  0.16559500  0.54059500  1
  Fe  Fe2  1  0.41559500  0.87500000  0.04059500  1
  Fe  Fe3  1  0.83440500  0.37500000  0.95940500  1
  Se  Se0  1  0.84764100  0.14059800  0.17917200  1
  Se  Se1  1  0.40235900  0.08153100  0.79295700  1
  Se  Se2  1  0.91846900  0.71142600  0.32082800  1
  Se  Se3  1  0.28857400  0.60940200  0.20704300  1
  Se  Se4  1  0.85940200  0.03857400  0.70704300  1
  Se  Se5  1  0.39059800  0.59764100  0.67917200  1
  Se  Se6  1  0.33153100  0.15235900  0.29295700  1
  Se  Se7  1  0.96142600  0.66846900  0.82082800  1
  O  O0  1  0.40169400  0.05924600  0.96940600  1
  O  O1  1  0.83075800  0.45455800  0.77811600  1
  O  O2  1  0.16015900  0.69075400  0.84244700  1
  O  O3  1  0.49997800  0.79012100  0.87449300  1
  O  O4  1  0.84830600  0.31771200  0.15755300  1
  O  O5  1  0.91562700  0.62548400  0.12550700  1
  O  O6  1  0.70455800  0.58075800  0.27811600  1
  O  O7  1  0.75002200  0.12451600  0.79014300  1
  O  O8  1  0.30924600  0.15169400  0.46940600  1
  O  O9  1  0.94075400  0.91015900  0.34244700  1
  O  O10  1  0.08984100  0.43228800  0.03059400  1
  O  O11  1  0.41924200  0.69735900  0.12380000  1
  O  O12  1  0.37451600  0.50002200  0.29014300  1
  O  O13  1  0.87548400  0.66562700  0.62550700  1
  O  O14  1  0.04012100  0.24997800  0.37449300  1
  O  O15  1  0.20987900  0.08437300  0.70985700  1
  O  O16  1  0.57355800  0.29544200  0.87620000  1
  O  O17  1  0.67644200  0.05264100  0.22188400  1
  O  O18  1  0.54544200  0.32355800  0.37620000  1
  O  O19  1  0.68228800  0.83984100  0.53059400  1
  O  O20  1  0.56771200  0.59830600  0.65755300  1
  O  O21  1  0.33437300  0.95987900  0.20985700  1
  O  O22  1  0.94735900  0.16924200  0.62380000  1
  O  O23  1  0.30264100  0.42644200  0.72188400  1
loop_
_geom_bond_atom_site_label_1
_geom_bond_atom_site_label_2
_geom_bond_distance
_geom_bond_site_symmetry_2
Fe0 O12 2.013625 1_555
Fe0 O13 2.013628 1_555
Fe0 O18 2.025156 1_555
Fe0 O6 2.025156 1_555
Fe0 O19 2.040665 1_555
Fe0 O20 2.040665 1_555
Fe1 O15 2.013625 1_555
Fe1 O14 2.013632 1_555
Fe1 O22 2.025147 1_455
Fe1 O23 2.025155 1_555
Fe1 O8 2.040656 1_555
Fe1 O9 2.040664 1_445
Fe2 O21 2.013625 1_555
Fe2 O3 2.013632 1_554
Fe2 O11 2.025147 1_555
Fe2 O17 2.025155 1_565
Fe2 O0 2.040656 1_564
Fe2 O2 2.040664 1_554
Fe3 O7 2.013625 1_555
Fe3 O5 2.013628 1_556
Fe3 O1 2.025156 1_555
Fe3 O16 2.025156 1_555
Fe3 O10 2.040665 1_656
Fe3 O4 2.040665 1_556
O0 Se1 1.708917 1_555
O1 Se7 1.709143 1_555
O2 Se7 1.708910 1_455
O3 Se5 1.722895 1_555
O4 Se0 1.708913 1_555
O5 Se2 1.722892 1_555
O6 Se2 1.709143 1_555
O7 Se4 1.722900 1_555
O8 Se6 1.708917 1_555
O9 Se2 1.708910 1_555
O10 Se3 1.708913 1_555
O11 Se3 1.709146 1_555
O12 Se3 1.722900 1_555
O13 Se7 1.722892 1_555
O14 Se0 1.722895 1_455
O15 Se1 1.722900 1_555
O16 Se1 1.709143 1_555
O17 Se0 1.709145 1_555
O18 Se6 1.709143 1_555
O19 Se4 1.708913 1_565
O20 Se5 1.708913 1_555
O21 Se6 1.722900 1_565
O22 Se4 1.709146 1_555
O23 Se5 1.709145 1_555
