# generated using pymatgen
data_Li3Cr2(PO4)3
_symmetry_space_group_name_H-M   'P 1'
_cell_length_a   4.85386667
_cell_length_b   4.85386667
_cell_length_c   18.74240443
_cell_angle_alpha   89.63627527
_cell_angle_beta   89.63627527
_cell_angle_gamma   66.40846776
_symmetry_Int_Tables_number   1
_chemical_formula_structural   Li3Cr2(PO4)3
_chemical_formula_sum   'Li6 Cr4 P6 O24'
_cell_volume   404.65409817
_cell_formula_units_Z   2
loop_
 _symmetry_equiv_pos_site_id
 _symmetry_equiv_pos_as_xyz
  1  'x, y, z'
loop_
 _atom_site_type_symbol
 _atom_site_label
 _atom_site_symmetry_multiplicity
 _atom_site_fract_x
 _atom_site_fract_y
 _atom_site_fract_z
 _atom_site_occupancy
  Li  Li0  1  0.00008500  0.00008500  0.33302100  1
  Li  Li1  1  0.99991500  0.99991500  0.66697900  1
  Li  Li2  1  0.67526700  0.67526700  0.58929700  1
  Li  Li3  1  0.67313900  0.67313900  0.25460800  1
  Li  Li4  1  0.32686100  0.32686100  0.74539200  1
  Li  Li5  1  0.32473300  0.32473300  0.41070300  1
  Cr  Cr0  1  0.99754600  0.99754600  0.16449800  1
  Cr  Cr1  1  0.00000000  0.00000000  0.50000000  1
  Cr  Cr2  1  0.00000000  0.00000000  0.00000000  1
  Cr  Cr3  1  0.00245400  0.00245400  0.83550200  1
  P  P0  1  0.34496300  0.34496300  0.24362400  1
  P  P1  1  0.35033900  0.35033900  0.57924300  1
  P  P2  1  0.64966100  0.64966100  0.42075700  1
  P  P3  1  0.65225100  0.65225100  0.08258400  1
  P  P4  1  0.34774900  0.34774900  0.91741600  1
  P  P5  1  0.65503700  0.65503700  0.75637600  1
  O  O0  1  0.25162300  0.25162300  0.31371000  1
  O  O1  1  0.76577100  0.29585500  0.42357300  1
  O  O2  1  0.70636800  0.22214000  0.91864400  1
  O  O3  1  0.77786000  0.29363200  0.08135600  1
  O  O4  1  0.22214000  0.70636800  0.91864400  1
  O  O5  1  0.29363200  0.77786000  0.08135600  1
  O  O6  1  0.29585500  0.76577100  0.42357300  1
  O  O7  1  0.23422900  0.70414600  0.57642700  1
  O  O8  1  0.23006100  0.70012700  0.23957200  1
  O  O9  1  0.29987300  0.76993900  0.76042800  1
  O  O10  1  0.23129200  0.23129200  0.17884100  1
  O  O11  1  0.76993900  0.29987300  0.76042800  1
  O  O12  1  0.24080900  0.24080900  0.51189700  1
  O  O13  1  0.24924700  0.24924700  0.84769600  1
  O  O14  1  0.23722200  0.23722200  0.98300300  1
  O  O15  1  0.24996200  0.24996200  0.64731800  1
  O  O16  1  0.75003800  0.75003800  0.35268200  1
  O  O17  1  0.74837700  0.74837700  0.68629000  1
  O  O18  1  0.75075300  0.75075300  0.15230400  1
  O  O19  1  0.76277800  0.76277800  0.01699700  1
  O  O20  1  0.75919100  0.75919100  0.48810300  1
  O  O21  1  0.76870800  0.76870800  0.82115900  1
  O  O22  1  0.70012700  0.23006100  0.23957200  1
  O  O23  1  0.70414600  0.23422900  0.57642700  1
loop_
_geom_bond_atom_site_label_1
_geom_bond_atom_site_label_2
_geom_bond_distance
_geom_bond_site_symmetry_2
Li0 O16 2.061459 1_445
Li0 O0 2.072270 1_555
Li0 O1 2.221353 1_455
Li0 O6 2.221353 1_545
Li0 O22 2.267189 1_455
Li0 O8 2.267189 1_545
Li1 O15 2.061459 1_665
Li1 O17 2.072270 1_555
Li1 O23 2.221351 1_565
Li1 O7 2.221351 1_655
Li1 O11 2.267189 1_565
Li1 O9 2.267189 1_655
Li2 O17 1.916699 1_555
Li2 O20 2.010533 1_555
Li2 O7 2.103933 1_555
Li2 O23 2.103933 1_555
Li3 O16 1.945854 1_555
Li3 O18 2.013856 1_555
Li3 O22 2.122160 1_555
Li3 O8 2.122160 1_555
Li4 O15 1.945854 1_555
Li4 O13 2.013856 1_555
Li4 O11 2.122160 1_555
Li4 O9 2.122160 1_555
Li5 O0 1.916699 1_555
Li5 O12 2.010533 1_555
Li5 O6 2.103935 1_555
Li5 O1 2.103935 1_555
Cr0 O10 1.919601 1_665
Cr0 O22 2.006962 1_565
Cr0 O8 2.006962 1_655
Cr0 O18 2.019332 1_555
Cr0 O3 2.096842 1_565
Cr0 O5 2.096842 1_655
Cr1 O12 1.970366 1_555
Cr1 O20 1.970366 1_445
Cr1 O23 2.023453 1_455
Cr1 O7 2.023453 1_545
Cr1 O6 2.023455 1_545
Cr1 O1 2.023455 1_455
Cr2 O14 1.950651 1_554
Cr2 O19 1.950651 1_445
Cr2 O4 2.072589 1_544
Cr2 O3 2.072589 1_455
Cr2 O5 2.072589 1_545
Cr2 O2 2.072589 1_454
Cr3 O21 1.919601 1_445
Cr3 O11 2.006962 1_455
Cr3 O9 2.006962 1_545
Cr3 O13 2.019332 1_555
Cr3 O4 2.096842 1_545
Cr3 O2 2.096842 1_455
O0 P0 1.511690 1_555
O1 P2 1.579289 1_555
O2 P4 1.597843 1_555
O3 P3 1.597843 1_555
O4 P4 1.597843 1_555
O5 P3 1.597843 1_555
O6 P2 1.579289 1_555
O7 P1 1.579293 1_555
O8 P0 1.586823 1_555
O9 P5 1.586823 1_555
O10 P0 1.530940 1_555
O11 P5 1.586823 1_555
O12 P1 1.549768 1_555
O13 P4 1.537382 1_555
O14 P4 1.516685 1_555
O15 P1 1.508931 1_555
O16 P2 1.508931 1_555
O17 P5 1.511690 1_555
O18 P3 1.537382 1_555
O19 P3 1.516685 1_555
O20 P2 1.549768 1_555
O21 P5 1.530940 1_555
O22 P0 1.586823 1_555
O23 P1 1.579293 1_555
