# generated using pymatgen
data_Na3ScSiGe(PO6)2
_symmetry_space_group_name_H-M   'P 1'
_cell_length_a   8.89936573
_cell_length_b   8.89936543
_cell_length_c   21.83949759
_cell_angle_alpha   90.63184952
_cell_angle_beta   89.36815048
_cell_angle_gamma   119.98372614
_symmetry_Int_Tables_number   1
_chemical_formula_structural   Na3ScSiGe(PO6)2
_chemical_formula_sum   'Na18 Sc6 Si6 Ge6 P12 O72'
_cell_volume   1498.05358224
_cell_formula_units_Z   6
loop_
 _symmetry_equiv_pos_site_id
 _symmetry_equiv_pos_as_xyz
  1  'x, y, z'
loop_
 _atom_site_type_symbol
 _atom_site_label
 _atom_site_symmetry_multiplicity
 _atom_site_fract_x
 _atom_site_fract_y
 _atom_site_fract_z
 _atom_site_occupancy
  Na  Na0  1  0.99647468  0.99167965  0.49942876  1
  Na  Na1  1  0.00832035  0.00352532  0.99942876  1
  Na  Na2  1  0.67102972  0.32779761  0.83292626  1
  Na  Na3  1  0.67220239  0.32897028  0.33292626  1
  Na  Na4  1  0.36072373  0.68404912  0.16589668  1
  Na  Na5  1  0.31595088  0.63927627  0.66589668  1
  Na  Na6  1  0.36291614  0.35778502  0.24804603  1
  Na  Na7  1  0.99418254  0.63222165  0.24787662  1
  Na  Na8  1  0.64221498  0.63708386  0.74804603  1
  Na  Na9  1  0.36777835  0.00581746  0.74787662  1
  Na  Na10  1  0.03624624  0.69841213  0.58146678  1
  Na  Na11  1  0.65188505  0.96463044  0.58565760  1
  Na  Na12  1  0.30158787  0.96375376  0.08146678  1
  Na  Na13  1  0.03536956  0.34811495  0.08565760  1
  Na  Na14  1  0.97632537  0.67767903  0.91920599  1
  Na  Na15  1  0.69979790  0.02715567  0.91236941  1
  Na  Na16  1  0.97284433  0.30020210  0.41236941  1
  Na  Na17  1  0.32232097  0.02367463  0.41920599  1
  Sc  Sc0  1  0.99021007  0.99105360  0.35393876  1
  Sc  Sc1  1  0.00894640  0.00978993  0.85393876  1
  Sc  Sc2  1  0.67034333  0.32947162  0.68787154  1
  Sc  Sc3  1  0.67052838  0.32965667  0.18787154  1
  Sc  Sc4  1  0.33400468  0.66855814  0.02034144  1
  Sc  Sc5  1  0.33144186  0.66599532  0.52034144  1
  Si  Si0  1  0.00701316  0.29445308  0.25233838  1
  Si  Si1  1  0.70554692  0.99298684  0.75233838  1
  Si  Si2  1  0.36730255  0.05088769  0.58418542  1
  Si  Si3  1  0.94911231  0.63269745  0.08418542  1
  Si  Si4  1  0.34560268  0.97082913  0.91928904  1
  Si  Si5  1  0.02917087  0.65439732  0.41928904  1
  Ge  Ge0  1  0.00618181  0.01133644  0.64795993  1
  Ge  Ge1  1  0.98866356  0.99381819  0.14795993  1
  Ge  Ge2  1  0.66259602  0.33892519  0.98083588  1
  Ge  Ge3  1  0.66107481  0.33740398  0.48083588  1
  Ge  Ge4  1  0.32477260  0.65765979  0.31443485  1
  Ge  Ge5  1  0.34234021  0.67522740  0.81443485  1
  P  P0  1  0.28575564  0.98613723  0.25084278  1
  P  P1  1  0.69824821  0.71649750  0.24921023  1
  P  P2  1  0.28350250  0.30175179  0.74921023  1
  P  P3  1  0.01386277  0.71424436  0.75084278  1
  P  P4  1  0.95259598  0.31981660  0.58117577  1
  P  P5  1  0.67662344  0.62954073  0.58573414  1
  P  P6  1  0.68018340  0.04740402  0.08117577  1
  P  P7  1  0.37045927  0.32337656  0.08573414  1
  P  P8  1  0.61669890  0.65019201  0.91412793  1
  P  P9  1  0.04191606  0.38608041  0.91717084  1
  P  P10  1  0.61391959  0.95808394  0.41717084  1
  P  P11  1  0.34980799  0.38330110  0.41412793  1
  O  O0  1  0.20195135  0.00862178  0.30873311  1
  O  O1  1  0.81725944  0.79228528  0.30368683  1
  O  O2  1  0.99339393  0.19285749  0.31371636  1
  O  O3  1  0.20771472  0.18274056  0.80368683  1
  O  O4  1  0.99137822  0.79804865  0.80873311  1
  O  O5  1  0.80714251  0.00660607  0.81371636  1
  O  O6  1  0.80408291  0.96125401  0.69102288  1
  O  O7  1  0.17194992  0.21562479  0.69055960  1
  O  O8  1  0.04770842  0.83327257  0.69300386  1
  O  O9  1  0.78437521  0.82805008  0.19055960  1
  O  O10  1  0.03874599  0.19591709  0.19102288  1
  O  O11  1  0.16672743  0.95229158  0.19300386  1
  O  O12  1  0.86975334  0.35562817  0.63626694  1
  O  O13  1  0.48367543  0.13331671  0.64376230  1
  O  O14  1  0.65988546  0.53422091  0.64464134  1
  O  O15  1  0.86668329  0.51632457  0.14376230  1
  O  O16  1  0.64437183  0.13024666  0.13626694  1
  O  O17  1  0.46577909  0.34011454  0.14464134  1
  O  O18  1  0.46353071  0.29121622  0.02931519  1
  O  O19  1  0.83041624  0.53630873  0.02130469  1
  O  O20  1  0.71284000  0.16196063  0.02249303  1
  O  O21  1  0.46369127  0.16958376  0.52130469  1
  O  O22  1  0.70878378  0.53646929  0.52931519  1
  O  O23  1  0.83803937  0.28716000  0.52249303  1
  O  O24  1  0.52546644  0.67686888  0.96790671  1
  O  O25  1  0.13396975  0.45917597  0.97759027  1
  O  O26  1  0.31674656  0.85623369  0.97918191  1
  O  O27  1  0.54082403  0.86603025  0.47759027  1
  O  O28  1  0.32313112  0.47453356  0.46790671  1
  O  O29  1  0.14376631  0.68325344  0.47918191  1
  O  O30  1  0.12235220  0.61493720  0.35751907  1
  O  O31  1  0.48876659  0.85700836  0.36262110  1
  O  O32  1  0.37222578  0.48583684  0.35305164  1
  O  O33  1  0.14299164  0.51123341  0.86262110  1
  O  O34  1  0.38506280  0.87764780  0.85751907  1
  O  O35  1  0.51416316  0.62777422  0.85305164  1
  O  O36  1  0.01329227  0.82653468  0.41397616  1
  O  O37  1  0.80009226  0.99235370  0.41132056  1
  O  O38  1  0.19064095  0.19765556  0.41179908  1
  O  O39  1  0.00764630  0.19990774  0.91132056  1
  O  O40  1  0.17346532  0.98670773  0.91397616  1
  O  O41  1  0.80234444  0.80935905  0.91179908  1
  O  O42  1  0.95455704  0.14575025  0.58810046  1
  O  O43  1  0.17098817  0.02953719  0.58982271  1
  O  O44  1  0.84714562  0.81266456  0.58699294  1
  O  O45  1  0.97046281  0.82901183  0.08982271  1
  O  O46  1  0.85424975  0.04544296  0.08810046  1
  O  O47  1  0.18733544  0.15285438  0.08699294  1
  O  O48  1  0.66735562  0.15248496  0.74855111  1
  O  O49  1  0.47105719  0.33556271  0.74302865  1
  O  O50  1  0.85074905  0.53651634  0.74524294  1
  O  O51  1  0.66443729  0.52894281  0.24302865  1
  O  O52  1  0.84751504  0.33264438  0.24855111  1
  O  O53  1  0.46348366  0.14925095  0.24524294  1
  O  O54  1  0.63388318  0.48442971  0.91939334  1
  O  O55  1  0.86083100  0.37782743  0.91748447  1
  O  O56  1  0.53034892  0.15956193  0.92479898  1
  O  O57  1  0.62217257  0.13916900  0.41748447  1
  O  O58  1  0.51557029  0.36611682  0.41939334  1
  O  O59  1  0.84043807  0.46965108  0.42479898  1
  O  O60  1  0.34062414  0.47776859  0.07917896  1
  O  O61  1  0.14494406  0.65855191  0.08023526  1
  O  O62  1  0.52580336  0.86301549  0.07646580  1
  O  O63  1  0.34144809  0.85505594  0.58023526  1
  O  O64  1  0.52223141  0.65937586  0.57917896  1
  O  O65  1  0.13698451  0.47419664  0.57646580  1
  O  O66  1  0.29947437  0.81794171  0.25534612  1
  O  O67  1  0.52008161  0.70837916  0.25667426  1
  O  O68  1  0.19276832  0.48874450  0.25288030  1
  O  O69  1  0.29162084  0.47991839  0.75667426  1
  O  O70  1  0.18205829  0.70052563  0.75534612  1
  O  O71  1  0.51125550  0.80723168  0.75288030  1
loop_
_geom_bond_atom_site_label_1
_geom_bond_atom_site_label_2
_geom_bond_distance
_geom_bond_site_symmetry_2
Na0 O36 2.412143 1_655
Na0 O44 2.419968 1_555
Na0 O43 2.439831 1_665
Na0 O42 2.491206 1_565
Na0 O37 2.615725 1_555
Na0 O38 2.616690 1_665
Na1 O40 2.412143 1_545
Na1 O47 2.419968 1_556
Na1 O45 2.439831 1_446
Na1 O46 2.491206 1_456
Na1 O39 2.615725 1_555
Na1 O41 2.616690 1_445
Na2 O48 2.391175 1_555
Na2 O55 2.400135 1_555
Na2 O56 2.443809 1_555
Na2 O54 2.450941 1_555
Na2 O50 2.591687 1_555
Na2 O49 2.688763 1_555
Na3 O52 2.391176 1_555
Na3 O57 2.400135 1_555
Na3 O59 2.443809 1_555
Na3 O58 2.450941 1_555
Na3 O53 2.591687 1_555
Na3 O51 2.688763 1_555
Na4 O67 2.394620 1_555
Na4 O66 2.471348 1_555
Na4 O62 2.485210 1_555
Na4 O68 2.505475 1_555
Na4 O60 2.567365 1_555
Na4 O61 2.621698 1_555
Na5 O69 2.394620 1_555
Na5 O70 2.471348 1_555
Na5 O65 2.485210 1_555
Na5 O71 2.505475 1_555
Na5 O64 2.567365 1_555
Na5 O63 2.621698 1_555
Na6 O68 2.328067 1_555
Na6 O51 2.333330 1_555
Na6 O53 2.430067 1_555
Na6 O17 2.460309 1_555
Na6 O32 2.533136 1_555
Na6 O67 2.712498 1_555
Na6 O10 2.799046 1_555
Na7 O52 2.309545 1_555
Na7 O66 2.378121 1_655
Na7 O15 2.521290 1_555
Na7 O51 2.603129 1_555
Na7 O68 2.651114 1_655
Na7 O30 2.702263 1_655
Na7 O11 2.751457 1_655
Na7 O1 2.855678 1_555
Na8 O71 2.328067 1_555
Na8 O49 2.333330 1_555
Na8 O50 2.430067 1_555
Na8 O14 2.460309 1_555
Na8 O35 2.533136 1_555
Na8 O69 2.712498 1_555
Na8 O6 2.799046 1_555
Na9 O48 2.309545 1_555
Na9 O70 2.378121 1_545
Na9 O13 2.521290 1_555
Na9 O49 2.603128 1_555
Na9 O71 2.651114 1_545
Na9 O34 2.702263 1_545
Na9 O8 2.751457 1_545
Na9 O3 2.855678 1_555
Na10 O63 2.352872 1_555
Na10 O44 2.362952 1_455
Na10 O29 2.449306 1_555
Na10 O65 2.564800 1_555
Na10 O43 2.572154 1_565
Na10 O8 2.683865 1_555
Na10 O22 2.775972 1_455
Na10 O12 2.908148 1_455
Na11 O42 2.349058 1_565
Na11 O64 2.365018 1_555
Na11 O63 2.430919 1_555
Na11 O27 2.540869 1_555
Na11 O44 2.683339 1_555
Na11 O6 2.691022 1_555
Na11 O23 2.858374 1_565
Na11 O13 2.875241 1_565
Na12 O61 2.352872 1_555
Na12 O47 2.362952 1_565
Na12 O26 2.449306 1_554
Na12 O62 2.564800 1_555
Na12 O45 2.572154 1_455
Na12 O11 2.683865 1_555
Na12 O18 2.775972 1_565
Na12 O16 2.908148 1_565
Na13 O46 2.349058 1_455
Na13 O60 2.365018 1_555
Na13 O61 2.430919 1_555
Na13 O25 2.540869 1_554
Na13 O47 2.683339 1_555
Na13 O10 2.691022 1_555
Na13 O20 2.858374 1_455
Na13 O15 2.875241 1_455
Na14 O55 2.331506 1_555
Na14 O41 2.370649 1_555
Na14 O40 2.415442 1_655
Na14 O19 2.570221 1_556
Na14 O4 2.625428 1_555
Na14 O54 2.646967 1_555
Na14 O33 2.834857 1_655
Na14 O26 2.940874 1_655
Na15 O56 2.344384 1_555
Na15 O39 2.378939 1_655
Na15 O5 2.389265 1_555
Na15 O41 2.521310 1_545
Na15 O20 2.653354 1_556
Na15 O55 2.707593 1_555
Na15 O34 2.713763 1_545
Na15 O24 2.967115 1_545
Na16 O59 2.344384 1_555
Na16 O37 2.378939 1_545
Na16 O2 2.389265 1_555
Na16 O38 2.521310 1_655
Na16 O23 2.653354 1_555
Na16 O57 2.707594 1_555
Na16 O30 2.713763 1_655
Na16 O28 2.967116 1_655
Na17 O57 2.331506 1_555
Na17 O38 2.370649 1_555
Na17 O36 2.415442 1_545
Na17 O21 2.570221 1_555
Na17 O0 2.625428 1_555
Na17 O58 2.646966 1_555
Na17 O31 2.834857 1_545
Na17 O29 2.940874 1_545
Ge0 O6 1.867791 1_445
Ge0 O43 1.874963 1_555
Ge0 O7 1.912952 1_555
Ge0 O42 1.986965 1_455
Ge0 O8 2.059899 1_545
Ge0 O44 2.095356 1_445
Ge1 O10 1.867791 1_665
Ge1 O45 1.874963 1_555
Ge1 O9 1.912952 1_555
Ge1 O46 1.986965 1_565
Ge1 O11 2.059899 1_655
Ge1 O47 2.095356 1_665
Ge2 O19 1.862785 1_556
Ge2 O56 1.881958 1_555
Ge2 O18 1.912173 1_556
Ge2 O54 1.979718 1_555
Ge2 O20 2.062099 1_556
Ge2 O55 2.119588 1_555
Ge3 O21 1.862785 1_555
Ge3 O59 1.881958 1_555
Ge3 O22 1.912173 1_555
Ge3 O58 1.979718 1_555
Ge3 O23 2.062099 1_555
Ge3 O57 2.119588 1_555
Ge4 O30 1.887047 1_555
Ge4 O68 1.916290 1_555
Ge4 O31 1.946688 1_555
Ge4 O32 1.977255 1_555
Ge4 O67 1.999038 1_555
Ge4 O66 2.029438 1_555
Ge5 O34 1.887047 1_555
Ge5 O71 1.916290 1_555
Ge5 O33 1.946688 1_555
Ge5 O35 1.977255 1_555
Ge5 O69 1.999038 1_555
Ge5 O70 2.029438 1_555
O0 P0 1.522331 1_545
O0 Sc0 2.053746 1_445
O1 P1 1.512691 1_555
O1 Sc0 1.993902 1_555
O2 Si0 1.594558 1_655
O2 Sc0 1.995292 1_545
O3 P2 1.512691 1_555
O3 Sc1 1.993902 1_555
O4 P3 1.522331 1_655
O4 Sc1 2.053746 1_665
O5 Si1 1.594558 1_545
O5 Sc1 1.995292 1_655
O6 Si1 1.689729 1_555
O7 P2 1.568307 1_555
O8 P3 1.584491 1_555
O9 P1 1.568307 1_555
O10 Si0 1.689729 1_555
O11 P0 1.584491 1_555
O12 P4 1.516420 1_555
O12 Sc2 2.005599 1_555
O13 Si2 1.597794 1_555
O13 Sc2 1.958234 1_555
O14 P5 1.513412 1_555
O14 Sc2 2.104663 1_555
O15 Si3 1.597794 1_555
O15 Sc3 1.958234 1_555
O16 P6 1.516420 1_555
O16 Sc3 2.005599 1_555
O17 P7 1.513412 1_555
O17 Sc3 2.104663 1_555
O18 P7 1.578871 1_555
O19 Si3 1.684603 1_555
O20 P6 1.578217 1_555
O21 Si2 1.684603 1_555
O22 P5 1.578871 1_555
O23 P4 1.578217 1_555
O24 P8 1.503494 1_555
O24 Sc4 2.013193 1_556
O25 P9 1.519112 1_555
O25 Sc4 2.048342 1_556
O26 Si4 1.605361 1_555
O26 Sc4 1.978310 1_556
O27 P10 1.519112 1_555
O27 Sc5 2.048342 1_555
O28 P11 1.503494 1_555
O28 Sc5 2.013193 1_555
O29 Si5 1.605361 1_555
O29 Sc5 1.978310 1_555
O30 Si5 1.699058 1_555
O31 P10 1.572635 1_555
O32 P11 1.578197 1_555
O33 P9 1.572635 1_555
O34 Si4 1.699058 1_555
O35 P8 1.578197 1_555
O36 Si5 1.612712 1_555
O36 Sc0 2.062504 1_455
O37 P10 1.531512 1_555
O37 Sc0 2.098981 1_555
O38 P11 1.548940 1_555
O38 Sc0 2.208949 1_445
O39 P9 1.531512 1_555
O39 Sc1 2.098981 1_555
O40 Si4 1.612712 1_555
O40 Sc1 2.062504 1_565
O41 P8 1.548940 1_555
O41 Sc1 2.208949 1_665
O42 P4 1.566867 1_555
O43 Si2 1.663582 1_555
O44 P5 1.577211 1_555
O45 Si3 1.663582 1_555
O46 P6 1.566867 1_555
O47 P7 1.577211 1_555
O48 Si1 1.619430 1_545
O48 Sc2 2.059402 1_555
O49 P2 1.545529 1_555
O49 Sc2 2.155670 1_555
O50 P3 1.525979 1_655
O50 Sc2 2.139920 1_555
O51 P1 1.545529 1_555
O51 Sc3 2.155670 1_555
O52 Si0 1.619430 1_655
O52 Sc3 2.059402 1_555
O53 P0 1.525979 1_545
O53 Sc3 2.139920 1_555
O54 P8 1.562812 1_555
O55 P9 1.576063 1_655
O56 Si4 1.666877 1_545
O57 P10 1.576063 1_545
O58 P11 1.562812 1_555
O59 Si5 1.666877 1_655
O60 P7 1.532532 1_555
O60 Sc4 2.165016 1_555
O61 Si3 1.641337 1_455
O61 Sc4 2.086642 1_555
O62 P6 1.528681 1_565
O62 Sc4 2.111310 1_555
O63 Si2 1.641336 1_565
O63 Sc5 2.086642 1_555
O64 P5 1.532532 1_555
O64 Sc5 2.165016 1_555
O65 P4 1.528681 1_455
O65 Sc5 2.111310 1_555
O66 P0 1.565649 1_555
O67 P1 1.557525 1_555
O68 Si0 1.692817 1_555
O69 P2 1.557525 1_555
O70 P3 1.565649 1_555
O71 Si1 1.692817 1_555
