# generated using pymatgen
data_Na4CaZr3Si3(SO8)3
_symmetry_space_group_name_H-M   'P 1'
_cell_length_a   9.19215876
_cell_length_b   9.18003102
_cell_length_c   23.44955179
_cell_angle_alpha   89.64129532
_cell_angle_beta   90.30018715
_cell_angle_gamma   119.95701897
_symmetry_Int_Tables_number   1
_chemical_formula_structural   Na4CaZr3Si3(SO8)3
_chemical_formula_sum   'Na12 Ca3 Zr9 Si9 S9 O72'
_cell_volume   1714.37163498
_cell_formula_units_Z   3
loop_
 _symmetry_equiv_pos_site_id
 _symmetry_equiv_pos_as_xyz
  1  'x, y, z'
loop_
 _atom_site_type_symbol
 _atom_site_label
 _atom_site_symmetry_multiplicity
 _atom_site_fract_x
 _atom_site_fract_y
 _atom_site_fract_z
 _atom_site_occupancy
  Na  Na0  1  0.63250091  0.00604527  0.23916015  1
  Na  Na1  1  0.37692392  0.35038991  0.25188456  1
  Na  Na2  1  0.98938660  0.64802734  0.24787859  1
  Na  Na3  1  0.99052569  0.35117737  0.75692952  1
  Na  Na4  1  0.38460735  0.01606394  0.75717319  1
  Na  Na5  1  0.70119835  0.67852979  0.40431162  1
  Na  Na6  1  0.00654271  0.02175318  0.48990911  1
  Na  Na7  1  0.00326757  0.01346039  0.00111918  1
  Na  Na8  1  0.65568254  0.32428515  0.83494629  1
  Na  Na9  1  0.64175886  0.31688690  0.32311456  1
  Na  Na10  1  0.35412235  0.69196165  0.16186878  1
  Na  Na11  1  0.35567263  0.66464612  0.67375548  1
  Ca  Ca0  1  0.00959028  0.00960607  0.35443236  1
  Ca  Ca1  1  0.66078682  0.33399788  0.68581296  1
  Ca  Ca2  1  0.65758173  0.32108789  0.17664671  1
  Zr  Zr0  1  0.00853925  0.02121889  0.85769006  1
  Zr  Zr1  1  0.99283413  0.00838326  0.65118060  1
  Zr  Zr2  1  0.98853545  0.98654844  0.14904798  1
  Zr  Zr3  1  0.66639216  0.30872853  0.97938298  1
  Zr  Zr4  1  0.65525421  0.32054353  0.47723475  1
  Zr  Zr5  1  0.33057191  0.67434806  0.01642817  1
  Zr  Zr6  1  0.34002970  0.66483517  0.51624010  1
  Zr  Zr7  1  0.35364739  0.68096270  0.31462642  1
  Zr  Zr8  1  0.34035125  0.66732240  0.81803104  1
  Si  Si0  1  0.29370374  0.99810056  0.25077453  1
  Si  Si1  1  0.70393263  0.70070385  0.25428624  1
  Si  Si2  1  0.29102792  0.29655690  0.75133555  1
  Si  Si3  1  0.70359832  0.99255173  0.75209391  1
  Si  Si4  1  0.66931257  0.02448097  0.08533765  1
  Si  Si5  1  0.04119630  0.38153064  0.91671432  1
  Si  Si6  1  0.32957468  0.95883176  0.91429682  1
  Si  Si7  1  0.62838049  0.96112268  0.41836157  1
  Si  Si8  1  0.33227258  0.37315478  0.41781171  1
  S  S0  1  0.00492810  0.29787001  0.24938899  1
  S  S1  1  0.00523202  0.71678058  0.75081782  1
  S  S2  1  0.96394698  0.33510876  0.58346621  1
  S  S3  1  0.36476399  0.03236152  0.58314371  1
  S  S4  1  0.67046288  0.63414300  0.58154694  1
  S  S5  1  0.96423064  0.63069409  0.08226273  1
  S  S6  1  0.36618683  0.33376187  0.08156613  1
  S  S7  1  0.62658121  0.66512634  0.91821239  1
  S  S8  1  0.03905554  0.65840383  0.41956899  1
  O  O0  1  0.21635867  0.03951346  0.30465807  1
  O  O1  1  0.80242719  0.77521929  0.31298397  1
  O  O2  1  0.97070620  0.19499879  0.30063786  1
  O  O3  1  0.19209288  0.17316702  0.80532772  1
  O  O4  1  0.98368297  0.79495011  0.80148320  1
  O  O5  1  0.82426905  0.00775169  0.80507145  1
  O  O6  1  0.79577844  0.96958956  0.69340617  1
  O  O7  1  0.16667839  0.19708856  0.69455452  1
  O  O8  1  0.02492799  0.82033991  0.69799889  1
  O  O9  1  0.80062828  0.83131633  0.19905685  1
  O  O10  1  0.03189566  0.21573257  0.19856979  1
  O  O11  1  0.17094693  0.97177737  0.19387804  1
  O  O12  1  0.89485804  0.35673241  0.63666683  1
  O  O13  1  0.46186324  0.10089526  0.63553369  1
  O  O14  1  0.64509596  0.53471900  0.63287481  1
  O  O15  1  0.89929965  0.54192522  0.13641367  1
  O  O16  1  0.63739471  0.08681444  0.14508914  1
  O  O17  1  0.45759907  0.36270173  0.13583246  1
  O  O18  1  0.46154798  0.31631883  0.03321792  1
  O  O19  1  0.85295398  0.54097236  0.03337921  1
  O  O20  1  0.68758104  0.15436673  0.03132420  1
  O  O21  1  0.45786906  0.14549358  0.53339798  1
  O  O22  1  0.68754357  0.54893225  0.53024225  1
  O  O23  1  0.85374703  0.31607273  0.53399593  1
  O  O24  1  0.54478587  0.69088119  0.96799038  1
  O  O25  1  0.16368765  0.47372520  0.97029163  1
  O  O26  1  0.31522492  0.84252484  0.96897240  1
  O  O27  1  0.51224590  0.84509484  0.47173938  1
  O  O28  1  0.32463953  0.48199128  0.47245901  1
  O  O29  1  0.14334026  0.67241953  0.46998308  1
  O  O30  1  0.11177078  0.63412887  0.36656607  1
  O  O31  1  0.51659466  0.87981035  0.35967194  1
  O  O32  1  0.36326509  0.49122862  0.36060664  1
  O  O33  1  0.12885123  0.48702493  0.85709234  1
  O  O34  1  0.36019361  0.87424439  0.85642969  1
  O  O35  1  0.52089118  0.64067624  0.86562303  1
  O  O36  1  0.01640567  0.80461810  0.41807429  1
  O  O37  1  0.80038398  0.95992400  0.42132156  1
  O  O38  1  0.17723066  0.18976457  0.42155188  1
  O  O39  1  0.01540422  0.19092997  0.91228734  1
  O  O40  1  0.15744357  0.96727028  0.90943093  1
  O  O41  1  0.79333118  0.81513036  0.91085779  1
  O  O42  1  0.97943981  0.17873557  0.58595864  1
  O  O43  1  0.19649680  0.01885006  0.58600491  1
  O  O44  1  0.82405705  0.80411419  0.58554984  1
  O  O45  1  0.98286017  0.80268115  0.08488898  1
  O  O46  1  0.84520672  0.01593106  0.08645453  1
  O  O47  1  0.19809136  0.17825553  0.08522503  1
  O  O48  1  0.69697966  0.16605252  0.74803179  1
  O  O49  1  0.46926945  0.30506004  0.74774995  1
  O  O50  1  0.86321701  0.54353547  0.74447369  1
  O  O51  1  0.68045534  0.51566742  0.24459560  1
  O  O52  1  0.86287648  0.32871396  0.24096985  1
  O  O53  1  0.48681952  0.15049941  0.24537659  1
  O  O54  1  0.64047761  0.51267930  0.92463743  1
  O  O55  1  0.85534497  0.36618201  0.92364747  1
  O  O56  1  0.49527501  0.14854984  0.92245335  1
  O  O57  1  0.64535989  0.14835731  0.42668278  1
  O  O58  1  0.51849886  0.37993366  0.42721831  1
  O  O59  1  0.86802683  0.50416529  0.42746319  1
  O  O60  1  0.34393657  0.48201377  0.07217000  1
  O  O61  1  0.13542735  0.65066870  0.07461020  1
  O  O62  1  0.50598120  0.83704878  0.07245663  1
  O  O63  1  0.34233658  0.86163386  0.57438317  1
  O  O64  1  0.51892689  0.65673279  0.57581985  1
  O  O65  1  0.13481011  0.48376333  0.57550988  1
  O  O66  1  0.29091560  0.81287460  0.25605810  1
  O  O67  1  0.51457473  0.68869366  0.25412669  1
  O  O68  1  0.16283531  0.46529279  0.25526024  1
  O  O69  1  0.29089285  0.47570529  0.75457864  1
  O  O70  1  0.16497205  0.70840476  0.75341091  1
  O  O71  1  0.51144410  0.83030043  0.75456536  1
loop_
_geom_bond_atom_site_label_1
_geom_bond_atom_site_label_2
_geom_bond_distance
_geom_bond_site_symmetry_2
Na0 O53 2.313222 1_555
Na0 O16 2.316277 1_555
Na0 O67 2.573482 1_545
Na0 O52 2.645071 1_555
Na0 O66 2.757554 1_545
Na0 O9 2.890586 1_545
Na1 O51 2.426918 1_555
Na1 O53 2.503471 1_555
Na1 O68 2.658468 1_555
Na1 O67 2.706589 1_555
Na1 O0 2.760907 1_555
Na1 O17 2.811077 1_555
Na1 O32 2.897236 1_555
Na2 O66 2.412115 1_655
Na2 O51 2.469686 1_555
Na2 O52 2.563343 1_555
Na2 O15 2.769492 1_555
Na2 O68 2.837353 1_655
Na2 O11 2.871090 1_655
Na2 O1 2.949819 1_555
Na2 O30 3.022245 1_655
Na3 O48 2.373066 1_555
Na3 O69 2.404519 1_655
Na3 O50 2.574251 1_555
Na3 O33 2.666544 1_655
Na4 O49 2.371782 1_555
Na4 O48 2.498179 1_555
Na4 O71 2.501774 1_545
Na4 O70 2.523331 1_545
Na4 O34 2.615038 1_545
Na5 O37 2.306573 1_555
Na5 O1 2.326445 1_555
Na5 O58 2.452800 1_555
Na5 O36 2.546478 1_655
Na5 O59 2.764128 1_555
Na5 O32 2.882816 1_555
Na6 O38 2.233522 1_555
Na6 O37 2.324954 1_445
Na6 O36 2.653891 1_545
Na6 O42 2.759867 1_455
Na6 O43 2.851641 1_555
Na6 O44 2.910609 1_445
Na7 O46 2.485908 1_455
Na7 O47 2.584601 1_555
Na7 O39 2.604660 1_554
Na7 O45 2.689192 1_445
Na7 O40 2.730291 1_544
Na7 O41 2.831140 1_444
Na8 O56 2.569444 1_555
Na8 O49 2.610365 1_555
Na8 O48 2.646477 1_555
Na8 O55 2.666048 1_555
Na8 O54 2.779233 1_555
Na8 O50 2.888868 1_555
Na9 O53 2.349384 1_555
Na9 O51 2.482569 1_555
Na9 O52 2.769751 1_555
Na9 O58 2.877446 1_555
Na9 O57 2.880300 1_555
Na10 O62 2.501496 1_555
Na10 O67 2.620403 1_555
Na10 O66 2.671365 1_555
Na10 O61 2.752691 1_555
Na10 O60 2.831274 1_555
Na10 O68 2.923507 1_555
Na11 O71 2.405556 1_555
Na11 O69 2.427803 1_555
Na11 O70 2.733158 1_555
Na11 O64 2.771003 1_555
Na11 O65 2.969626 1_555
Na11 O63 2.980068 1_555
Ca0 O0 2.132662 1_555
Ca0 O38 2.247004 1_555
Ca0 O1 2.261723 1_445
Ca0 O2 2.278474 1_455
Ca0 O37 2.348007 1_445
Ca0 O36 2.419475 1_545
Ca1 O49 2.198667 1_555
Ca1 O48 2.257289 1_555
Ca1 O14 2.278595 1_555
Ca1 O13 2.326799 1_555
Ca1 O50 2.342306 1_555
Ca1 O12 2.361288 1_555
Ca2 O16 2.197094 1_555
Ca2 O53 2.248058 1_555
Ca2 O17 2.262631 1_555
Ca2 O51 2.330398 1_555
Ca2 O15 2.331588 1_555
Ca2 O52 2.383428 1_555
O0 Si0 1.591200 1_545
O1 Si1 1.600757 1_555
O2 S0 1.458792 1_655
O3 Si2 1.636590 1_555
O3 Zr0 1.987462 1_555
O4 S1 1.456303 1_655
O4 Zr0 2.379309 1_665
O5 Si3 1.620590 1_545
O5 Zr0 2.043948 1_655
O6 Si3 1.688363 1_555
O6 Zr1 1.938674 1_565
O7 Si2 1.694136 1_555
O7 Zr1 1.956889 1_455
O8 S1 1.512071 1_555
O8 Zr1 2.180307 1_465
O9 Si1 1.683229 1_555
O9 Zr2 1.982792 1_555
O10 S0 1.500380 1_555
O10 Zr2 2.263212 1_445
O11 Si0 1.681578 1_555
O11 Zr2 2.035148 1_455
O12 S2 1.461631 1_555
O13 S3 1.462569 1_555
O14 S4 1.453530 1_555
O15 S5 1.463547 1_555
O16 Si4 1.599607 1_555
O17 S6 1.471746 1_555
O18 S6 1.494078 1_555
O18 Zr3 2.302412 1_554
O19 S5 1.482162 1_555
O19 Zr3 2.334350 1_554
O20 Si4 1.684492 1_555
O20 Zr3 1.944485 1_554
O21 S3 1.509776 1_555
O21 Zr4 2.166915 1_555
O22 S4 1.490084 1_555
O22 Zr4 2.331572 1_555
O23 S2 1.488564 1_555
O23 Zr4 2.269592 1_555
O24 S7 1.474424 1_555
O24 Zr5 2.216596 1_556
O25 Si5 1.615338 1_555
O25 Zr5 2.025248 1_556
O26 Si6 1.626404 1_555
O26 Zr5 1.958609 1_556
O27 Si7 1.643951 1_555
O27 Zr6 1.926856 1_555
O28 Si8 1.652961 1_555
O28 Zr6 1.916854 1_555
O29 S8 1.483203 1_555
O29 Zr6 2.134133 1_555
O30 S8 1.483964 1_555
O30 Zr7 2.383023 1_555
O31 Si7 1.655031 1_555
O31 Zr7 1.992082 1_555
O32 Si8 1.653147 1_555
O32 Zr7 2.081677 1_555
O33 Si5 1.660528 1_555
O33 Zr8 2.035732 1_555
O34 Si6 1.661021 1_555
O34 Zr8 2.031259 1_555
O35 S7 1.512660 1_555
O35 Zr8 2.107610 1_555
O36 S8 1.457616 1_555
O37 Si7 1.587759 1_555
O38 Si8 1.573637 1_555
O39 Si5 1.648099 1_555
O39 Zr0 1.999066 1_555
O40 Si6 1.625720 1_555
O40 Zr0 2.059835 1_565
O41 S7 1.472161 1_555
O41 Zr0 2.303398 1_665
O42 S2 1.512422 1_555
O42 Zr1 2.227166 1_555
O43 S3 1.490526 1_555
O43 Zr1 2.387113 1_455
O44 S4 1.495711 1_555
O44 Zr1 2.323254 1_565
O45 S5 1.502319 1_555
O45 Zr2 2.249068 1_555
O46 Si4 1.657501 1_555
O46 Zr2 2.071873 1_545
O47 S6 1.493222 1_555
O47 Zr2 2.378906 1_445
O48 Si3 1.626167 1_545
O49 Si2 1.603506 1_555
O50 S1 1.477534 1_655
O51 Si1 1.619199 1_555
O52 S0 1.479866 1_655
O53 Si0 1.626142 1_545
O54 S7 1.474185 1_555
O54 Zr3 2.371141 1_555
O55 Si5 1.651380 1_655
O55 Zr3 2.025683 1_555
O56 Si6 1.655782 1_545
O56 Zr3 2.027599 1_555
O57 Si7 1.659137 1_545
O57 Zr4 1.946994 1_555
O58 Si8 1.694901 1_555
O58 Zr4 1.978412 1_555
O59 S8 1.512389 1_655
O59 Zr4 2.176146 1_555
O60 S6 1.488741 1_555
O60 Zr5 2.242135 1_555
O61 S5 1.502204 1_455
O61 Zr5 2.181492 1_555
O62 Si4 1.651584 1_565
O62 Zr5 2.038151 1_555
O63 S3 1.490633 1_565
O63 Zr6 2.261755 1_555
O64 S4 1.512451 1_555
O64 Zr6 2.181392 1_555
O65 S2 1.491046 1_455
O65 Zr6 2.262793 1_555
O66 Si0 1.691500 1_555
O66 Zr7 2.086483 1_555
O67 Si1 1.688243 1_555
O67 Zr7 2.030232 1_555
O68 S0 1.503529 1_555
O68 Zr7 2.339882 1_555
O69 Si2 1.647440 1_555
O69 Zr8 2.177589 1_555
O70 S1 1.509119 1_555
O70 Zr8 2.368916 1_555
O71 Si3 1.647508 1_555
O71 Zr8 2.138559 1_555
