# generated using pymatgen
data_CaTaP(SO6)2
_symmetry_space_group_name_H-M   'P 1'
_cell_length_a   9.08292103
_cell_length_b   9.07710401
_cell_length_c   22.65672288
_cell_angle_alpha   90.13013716
_cell_angle_beta   90.00000000
_cell_angle_gamma   120.02120130
_symmetry_Int_Tables_number   1
_chemical_formula_structural   CaTaP(SO6)2
_chemical_formula_sum   'Ca6 Ta6 P6 S12 O72'
_cell_volume   1617.35836387
_cell_formula_units_Z   6
loop_
 _symmetry_equiv_pos_site_id
 _symmetry_equiv_pos_as_xyz
  1  'x, y, z'
loop_
 _atom_site_type_symbol
 _atom_site_label
 _atom_site_symmetry_multiplicity
 _atom_site_fract_x
 _atom_site_fract_y
 _atom_site_fract_z
 _atom_site_occupancy
  Ca  Ca0  1  0.99710477  0.00391525  0.36400171  1
  Ca  Ca1  1  0.00681048  0.00391525  0.86400171  1
  Ca  Ca2  1  0.66547720  0.33364542  0.69720799  1
  Ca  Ca3  1  0.66816921  0.33364542  0.19720799  1
  Ca  Ca4  1  0.33004292  0.66581215  0.03064607  1
  Ca  Ca5  1  0.33576823  0.66581215  0.53064607  1
  Ta  Ta0  1  0.00246559  0.01194150  0.64511391  1
  Ta  Ta1  1  0.00947591  0.01194150  0.14511391  1
  Ta  Ta2  1  0.65780260  0.32859629  0.97854133  1
  Ta  Ta3  1  0.67079469  0.32859629  0.47854133  1
  Ta  Ta4  1  0.33698721  0.66836410  0.31215909  1
  Ta  Ta5  1  0.33137590  0.66836410  0.81215909  1
  P  P0  1  0.02683652  0.29894507  0.25146365  1
  P  P1  1  0.27210855  0.29894507  0.75146365  1
  P  P2  1  0.93890727  0.31186820  0.58456050  1
  P  P3  1  0.37296193  0.31186820  0.08456050  1
  P  P4  1  0.35763380  0.96055061  0.91837438  1
  P  P5  1  0.60291580  0.96055061  0.41837438  1
  S  S0  1  0.26937134  0.96983023  0.25057988  1
  S  S1  1  0.70317617  0.72904129  0.25021271  1
  S  S2  1  0.02586511  0.72904129  0.75021271  1
  S  S3  1  0.70045889  0.96983023  0.75057988  1
  S  S4  1  0.36678236  0.06274295  0.58305632  1
  S  S5  1  0.69810374  0.63321996  0.58411938  1
  S  S6  1  0.93511722  0.63321996  0.08411938  1
  S  S7  1  0.69596159  0.06274295  0.08305632  1
  S  S8  1  0.60384877  0.64002044  0.91658444  1
  S  S9  1  0.03214676  0.39783024  0.91659580  1
  S  S10  1  0.36568248  0.39783024  0.41659580  1
  S  S11  1  0.03617067  0.64002044  0.41658444  1
  O  O0  1  0.19985488  0.00090600  0.30285452  1
  O  O1  1  0.80440282  0.79664538  0.30269452  1
  O  O2  1  0.99737597  0.18912068  0.30366462  1
  O  O3  1  0.19174471  0.18912068  0.80366462  1
  O  O4  1  0.99224256  0.79664538  0.80269452  1
  O  O5  1  0.80105112  0.00090600  0.80285452  1
  O  O6  1  0.78739621  0.94004764  0.69749224  1
  O  O7  1  0.14466838  0.19940806  0.69532744  1
  O  O8  1  0.05506074  0.84280622  0.69744996  1
  O  O9  1  0.78774548  0.84280622  0.19744996  1
  O  O10  1  0.05473968  0.19940806  0.19532744  1
  O  O11  1  0.15265143  0.94004764  0.19749224  1
  O  O12  1  0.86071622  0.33840140  0.63799999  1
  O  O13  1  0.46804782  0.13198355  0.63546519  1
  O  O14  1  0.66345412  0.52961091  0.63585981  1
  O  O15  1  0.86615780  0.52961091  0.13585981  1
  O  O16  1  0.66393673  0.13198355  0.13546519  1
  O  O17  1  0.47768618  0.33840140  0.13799999  1
  O  O18  1  0.47049029  0.28322258  0.02900156  1
  O  O19  1  0.82150067  0.54567094  0.03070422  1
  O  O20  1  0.72712526  0.18059305  0.03039644  1
  O  O21  1  0.45346879  0.18059305  0.53039644  1
  O  O22  1  0.72417127  0.54567094  0.53070422  1
  O  O23  1  0.81273329  0.28322258  0.52900156  1
  O  O24  1  0.53419328  0.67041045  0.96914538  1
  O  O25  1  0.13800415  0.46395189  0.96806176  1
  O  O26  1  0.33386083  0.85858985  0.97222272  1
  O  O27  1  0.52472802  0.85858985  0.47222272  1
  O  O28  1  0.32594674  0.46395189  0.46806176  1
  O  O29  1  0.13621617  0.67041045  0.46914538  1
  O  O30  1  0.12205212  0.60825263  0.36375836  1
  O  O31  1  0.47850648  0.86502981  0.36303260  1
  O  O32  1  0.39198905  0.51476069  0.36361847  1
  O  O33  1  0.12277064  0.51476069  0.86361847  1
  O  O34  1  0.38652234  0.86502981  0.86303260  1
  O  O35  1  0.48619951  0.60825263  0.86375836  1
  O  O36  1  0.99632833  0.77150731  0.40360534  1
  O  O37  1  0.78159504  0.00829530  0.40430671  1
  O  O38  1  0.23934224  0.22416854  0.40271431  1
  O  O39  1  0.98482631  0.22416854  0.90271431  1
  O  O40  1  0.22670026  0.00829530  0.90430671  1
  O  O41  1  0.77517898  0.77150731  0.90360534  1
  O  O42  1  0.93541685  0.13245028  0.59359599  1
  O  O43  1  0.19780618  0.06164862  0.59104665  1
  O  O44  1  0.86599860  0.79964007  0.59330502  1
  O  O45  1  0.93364147  0.79964007  0.09330502  1
  O  O46  1  0.86384243  0.06164862  0.09104665  1
  O  O47  1  0.19703343  0.13245028  0.09359599  1
  O  O48  1  0.65791391  0.09996891  0.73775327  1
  O  O49  1  0.44846283  0.34433566  0.73525812  1
  O  O50  1  0.89831908  0.55433005  0.73866235  1
  O  O51  1  0.65601197  0.55433005  0.23866235  1
  O  O52  1  0.89587383  0.34433566  0.23525812  1
  O  O53  1  0.44205600  0.09996891  0.23775327  1
  O  O54  1  0.60710830  0.47289094  0.92429896  1
  O  O55  1  0.86946451  0.40473792  0.92551680  1
  O  O56  1  0.53561638  0.13957805  0.92776489  1
  O  O57  1  0.60396267  0.13957805  0.42776489  1
  O  O58  1  0.53527441  0.40473792  0.42551680  1
  O  O59  1  0.86578364  0.47289094  0.42429896  1
  O  O60  1  0.32361468  0.43976579  0.06863140  1
  O  O61  1  0.10878152  0.67659713  0.07200360  1
  O  O62  1  0.56638012  0.89021973  0.07047977  1
  O  O63  1  0.32383861  0.89021973  0.57047977  1
  O  O64  1  0.56781460  0.67659713  0.57200360  1
  O  O65  1  0.11615011  0.43976579  0.56863140  1
  O  O66  1  0.26924978  0.80119105  0.25824379  1
  O  O67  1  0.53439738  0.73004753  0.25913428  1
  O  O68  1  0.20238697  0.47289170  0.26171184  1
  O  O69  1  0.27050374  0.47289170  0.76171184  1
  O  O70  1  0.19564915  0.73004753  0.75913428  1
  O  O71  1  0.53194027  0.80119105  0.75824379  1
loop_
_geom_bond_atom_site_label_1
_geom_bond_atom_site_label_2
_geom_bond_distance
_geom_bond_site_symmetry_2
Ca0 O2 2.168247 1_555
Ca0 O37 2.178263 1_555
Ca0 O38 2.279853 1_655
Ca0 O1 2.285960 1_545
Ca0 O36 2.291127 1_545
Ca0 O0 2.315509 1_655
Ca1 O3 2.168247 1_555
Ca1 O40 2.178263 1_555
Ca1 O39 2.279853 1_455
Ca1 O4 2.285960 1_445
Ca1 O41 2.291127 1_445
Ca1 O5 2.315509 1_455
Ca2 O49 2.197490 1_555
Ca2 O12 2.206756 1_555
Ca2 O50 2.262706 1_555
Ca2 O14 2.267236 1_555
Ca2 O48 2.282701 1_555
Ca2 O13 2.286279 1_555
Ca3 O52 2.197490 1_555
Ca3 O17 2.206756 1_555
Ca3 O51 2.262706 1_555
Ca3 O15 2.267236 1_555
Ca3 O53 2.282701 1_555
Ca3 O16 2.286279 1_555
Ca4 O26 2.182924 1_554
Ca4 O60 2.200522 1_555
Ca4 O61 2.263393 1_555
Ca4 O62 2.277720 1_555
Ca4 O25 2.280469 1_554
Ca4 O24 2.303149 1_554
Ca5 O27 2.182924 1_555
Ca5 O65 2.200522 1_555
Ca5 O64 2.263393 1_555
Ca5 O63 2.277720 1_555
Ca5 O28 2.280469 1_555
Ca5 O29 2.303149 1_555
O0 S0 1.434465 1_545
O1 S1 1.438025 1_555
O2 P0 1.484117 1_655
O3 P1 1.484117 1_555
O4 S2 1.438025 1_655
O5 S3 1.434465 1_545
O6 S3 1.534752 1_555
O6 Ta0 2.092385 1_665
O7 P1 1.649881 1_555
O7 Ta0 1.910527 1_555
O8 S2 1.515700 1_555
O8 Ta0 2.175644 1_565
O9 S1 1.515700 1_555
O9 Ta1 2.175644 1_665
O10 P0 1.649881 1_555
O10 Ta1 1.910527 1_555
O11 S0 1.534752 1_555
O11 Ta1 2.092385 1_565
O12 P2 1.482625 1_555
O13 S4 1.438445 1_555
O14 S5 1.437560 1_555
O15 S6 1.437560 1_555
O16 S7 1.438445 1_555
O17 P3 1.482625 1_555
O18 P3 1.632746 1_555
O18 Ta2 1.916304 1_554
O19 S6 1.528437 1_555
O19 Ta2 2.132564 1_554
O20 S7 1.533217 1_555
O20 Ta2 2.105996 1_554
O21 S4 1.533217 1_555
O21 Ta3 2.105996 1_555
O22 S5 1.528437 1_555
O22 Ta3 2.132564 1_555
O23 P2 1.632746 1_555
O23 Ta3 1.916304 1_555
O24 S8 1.437937 1_555
O25 S9 1.436574 1_555
O26 P4 1.482165 1_555
O27 P5 1.482165 1_555
O28 S10 1.436574 1_555
O29 S11 1.437937 1_555
O30 S11 1.532200 1_555
O30 Ta4 2.100638 1_555
O31 P5 1.617256 1_555
O31 Ta4 1.965231 1_555
O32 S10 1.541544 1_555
O32 Ta4 2.063318 1_555
O33 S9 1.541544 1_555
O33 Ta5 2.063318 1_555
O34 P4 1.617256 1_555
O34 Ta5 1.965231 1_555
O35 S8 1.532200 1_555
O35 Ta5 2.100638 1_555
O36 S11 1.440733 1_655
O37 P5 1.490011 1_545
O38 S10 1.445094 1_555
O39 S9 1.445096 1_655
O40 P4 1.490003 1_545
O41 S8 1.440739 1_555
O42 P2 1.626372 1_555
O42 Ta0 1.897958 1_655
O43 S4 1.540528 1_555
O43 Ta0 2.013365 1_555
O44 S5 1.531098 1_555
O44 Ta0 2.056075 1_665
O45 S6 1.531103 1_555
O45 Ta1 2.056075 1_665
O46 S7 1.540519 1_555
O46 Ta1 2.013365 1_655
O47 P3 1.626376 1_555
O47 Ta1 1.897958 1_555
O48 S3 1.444836 1_545
O49 P1 1.486829 1_555
O50 S2 1.444055 1_655
O51 S1 1.444057 1_555
O52 P0 1.486821 1_655
O53 S0 1.444842 1_545
O54 S8 1.542407 1_555
O54 Ta2 2.012126 1_555
O55 S9 1.523426 1_655
O55 Ta2 2.071516 1_555
O56 P4 1.633751 1_545
O56 Ta2 1.893301 1_555
O57 P5 1.633742 1_545
O57 Ta3 1.893301 1_555
O58 S10 1.523444 1_555
O58 Ta3 2.071516 1_555
O59 S11 1.542398 1_655
O59 Ta3 2.012126 1_555
O60 P3 1.483752 1_555
O61 S6 1.448283 1_455
O62 S7 1.439615 1_565
O63 S4 1.439610 1_565
O64 S5 1.448301 1_555
O65 P2 1.483739 1_455
O66 S0 1.540416 1_555
O66 Ta4 2.018254 1_555
O67 S1 1.550821 1_555
O67 Ta4 1.992565 1_555
O68 P0 1.602654 1_555
O68 Ta4 1.941504 1_555
O69 P1 1.602659 1_555
O69 Ta5 1.941504 1_555
O70 S2 1.550812 1_555
O70 Ta5 1.992565 1_555
O71 S3 1.540420 1_555
O71 Ta5 2.018254 1_555
