# generated using pymatgen
data_Na10Sc4In4Si5S7O48
_symmetry_space_group_name_H-M   'P 1'
_cell_length_a   18.19746435
_cell_length_b   9.11432299
_cell_length_c   22.87518251
_cell_angle_alpha   89.98030612
_cell_angle_beta   89.46564396
_cell_angle_gamma   119.99627669
_symmetry_Int_Tables_number   1
_chemical_formula_structural   Na10Sc4In4Si5S7O48
_chemical_formula_sum   'Na30 Sc12 In12 Si15 S21 O144'
_cell_volume   3285.64501942
_cell_formula_units_Z   3
loop_
 _symmetry_equiv_pos_site_id
 _symmetry_equiv_pos_as_xyz
  1  'x, y, z'
loop_
 _atom_site_type_symbol
 _atom_site_label
 _atom_site_symmetry_multiplicity
 _atom_site_fract_x
 _atom_site_fract_y
 _atom_site_fract_z
 _atom_site_occupancy
  Na  Na0  1  0.32879114  0.00105162  0.24909419  1
  Na  Na1  1  0.82539799  0.99889431  0.25095146  1
  Na  Na2  1  0.18181949  0.37576376  0.24047247  1
  Na  Na3  1  0.68301853  0.37455203  0.24232802  1
  Na  Na4  1  0.99272549  0.62834299  0.26036238  1
  Na  Na5  1  0.49593237  0.62667319  0.25943866  1
  Na  Na6  1  0.82801720  0.65133107  0.74624146  1
  Na  Na7  1  0.99303306  0.36217889  0.75855705  1
  Na  Na8  1  0.49625403  0.35300487  0.75901930  1
  Na  Na9  1  0.17944484  0.98772697  0.74274022  1
  Na  Na10  1  0.02025509  0.70939130  0.58426282  1
  Na  Na11  1  0.32960338  0.96950329  0.59172457  1
  Na  Na12  1  0.02196247  0.33097208  0.08308383  1
  Na  Na13  1  0.52003844  0.32915294  0.08559582  1
  Na  Na14  1  0.16101163  0.30041543  0.92717863  1
  Na  Na15  1  0.66391174  0.30287630  0.92764962  1
  Na  Na16  1  0.16112512  0.01937224  0.42757923  1
  Na  Na17  1  0.66204402  0.02210072  0.42710907  1
  Na  Na18  1  0.99816130  0.99694547  0.50099031  1
  Na  Na19  1  0.51012285  0.99001495  0.49997787  1
  Na  Na20  1  0.00231353  0.00339091  0.99982702  1
  Na  Na21  1  0.50339814  0.00113708  0.00233895  1
  Na  Na22  1  0.34602872  0.33327218  0.83720625  1
  Na  Na23  1  0.84829477  0.32430947  0.83251538  1
  Na  Na24  1  0.35379415  0.36837049  0.33594939  1
  Na  Na25  1  0.84993306  0.36886496  0.33692764  1
  Na  Na26  1  0.17607657  0.65643969  0.16551588  1
  Na  Na27  1  0.67891783  0.65808072  0.16610036  1
  Na  Na28  1  0.17157523  0.67422677  0.67033760  1
  Na  Na29  1  0.68063276  0.71815741  0.66301779  1
  Sc  Sc0  1  0.49113558  0.98521622  0.35063147  1
  Sc  Sc1  1  0.99713902  0.98941909  0.64921650  1
  Sc  Sc2  1  0.50112696  0.00854795  0.15036592  1
  Sc  Sc3  1  0.32931481  0.32011699  0.68159564  1
  Sc  Sc4  1  0.82734192  0.31213374  0.68493338  1
  Sc  Sc5  1  0.33295222  0.34477110  0.18458365  1
  Sc  Sc6  1  0.33585242  0.34139170  0.48087232  1
  Sc  Sc7  1  0.83251143  0.33564485  0.48229746  1
  Sc  Sc8  1  0.66369563  0.65082618  0.01888441  1
  Sc  Sc9  1  0.66067386  0.68126398  0.51954541  1
  Sc  Sc10  1  0.15947435  0.65294038  0.31628526  1
  Sc  Sc11  1  0.65918020  0.64916599  0.31643608  1
  In  In0  1  0.98947309  0.98608034  0.35054177  1
  In  In1  1  0.99096428  0.99636170  0.84923302  1
  In  In2  1  0.49488797  0.00713882  0.85147440  1
  In  In3  1  0.50310871  0.99616575  0.64753529  1
  In  In4  1  0.00157855  0.00659595  0.15059516  1
  In  In5  1  0.83237060  0.34039510  0.18173987  1
  In  In6  1  0.33507684  0.33362545  0.98374068  1
  In  In7  1  0.83588417  0.33440162  0.98247981  1
  In  In8  1  0.16738549  0.65438531  0.01673024  1
  In  In9  1  0.16207557  0.66818919  0.51612438  1
  In  In10  1  0.16318473  0.66891880  0.81497279  1
  In  In11  1  0.66571949  0.67580314  0.81822536  1
  Si  Si0  1  0.35257693  0.70711410  0.24977540  1
  Si  Si1  1  0.85096260  0.70238251  0.24929042  1
  Si  Si2  1  0.99877072  0.29653912  0.24864055  1
  Si  Si3  1  0.49907699  0.29310150  0.24890025  1
  Si  Si4  1  0.99758391  0.70079055  0.74841957  1
  Si  Si5  1  0.35299224  0.99994853  0.74587190  1
  Si  Si6  1  0.84944221  0.99594910  0.74988624  1
  Si  Si7  1  0.18395856  0.03755488  0.58000919  1
  Si  Si8  1  0.68381529  0.04001762  0.58090859  1
  Si  Si9  1  0.18416411  0.32909015  0.08252411  1
  Si  Si10  1  0.68276807  0.32713625  0.08126638  1
  Si  Si11  1  0.01586347  0.36155771  0.91636694  1
  Si  Si12  1  0.51706745  0.37006096  0.91626192  1
  Si  Si13  1  0.01502709  0.67072591  0.41733599  1
  Si  Si14  1  0.51717107  0.66946704  0.41505859  1
  S  S0  1  0.15035609  0.00081293  0.25158633  1
  S  S1  1  0.64568915  0.99722218  0.25148891  1
  S  S2  1  0.14883571  0.29361694  0.74906105  1
  S  S3  1  0.64846277  0.29675114  0.75161881  1
  S  S4  1  0.49824852  0.70132686  0.75082285  1
  S  S5  1  0.48087414  0.33638209  0.58294179  1
  S  S6  1  0.97945892  0.33043816  0.58344654  1
  S  S7  1  0.33117834  0.62449747  0.58206663  1
  S  S8  1  0.83094432  0.62518467  0.58420707  1
  S  S9  1  0.48279736  0.63396572  0.08368436  1
  S  S10  1  0.98519962  0.63782969  0.08320383  1
  S  S11  1  0.33229056  0.03405760  0.08480349  1
  S  S12  1  0.83112338  0.03134375  0.08389717  1
  S  S13  1  0.31594337  0.66822413  0.91530752  1
  S  S14  1  0.81417951  0.66608128  0.91721964  1
  S  S15  1  0.16729577  0.96462529  0.91707496  1
  S  S16  1  0.66496086  0.96324156  0.91711552  1
  S  S17  1  0.31500969  0.96323692  0.41689250  1
  S  S18  1  0.81205698  0.96076577  0.41696341  1
  S  S19  1  0.16746093  0.37059947  0.41672148  1
  S  S20  1  0.66686614  0.37191890  0.41754497  1
  O  O0  1  0.11541993  0.03702689  0.30474536  1
  O  O1  1  0.60749413  0.02375656  0.30490794  1
  O  O2  1  0.41475676  0.78496521  0.30627866  1
  O  O3  1  0.91662200  0.77189069  0.30365509  1
  O  O4  1  0.48365230  0.16401935  0.30305154  1
  O  O5  1  0.98073031  0.16983558  0.30427330  1
  O  O6  1  0.11687783  0.19687035  0.80478777  1
  O  O7  1  0.61517320  0.19720468  0.80663400  1
  O  O8  1  0.49084389  0.78472479  0.80436700  1
  O  O9  1  0.98352376  0.79260460  0.80618839  1
  O  O10  1  0.41892114  0.05281783  0.79971125  1
  O  O11  1  0.90765599  0.04845813  0.80788537  1
  O  O12  1  0.39339045  0.97449932  0.68472748  1
  O  O13  1  0.89788387  0.96261698  0.69516949  1
  O  O14  1  0.09244002  0.20313887  0.69986481  1
  O  O15  1  0.59198997  0.21139819  0.70190942  1
  O  O16  1  0.01613889  0.82200077  0.69021279  1
  O  O17  1  0.51048329  0.80277991  0.69746645  1
  O  O18  1  0.39951120  0.83178988  0.19394089  1
  O  O19  1  0.89287968  0.82617535  0.19176937  1
  O  O20  1  0.02511526  0.23312069  0.18901164  1
  O  O21  1  0.51772042  0.21722578  0.18860833  1
  O  O22  1  0.09459926  0.96294127  0.20050430  1
  O  O23  1  0.59276879  0.97315398  0.19976174  1
  O  O24  1  0.44350656  0.35896790  0.63824031  1
  O  O25  1  0.94109737  0.35809046  0.63680922  1
  O  O26  1  0.24390452  0.13131104  0.63787177  1
  O  O27  1  0.74161679  0.13999478  0.63710311  1
  O  O28  1  0.32611264  0.52978823  0.63551126  1
  O  O29  1  0.82299764  0.53293794  0.63932959  1
  O  O30  1  0.44247676  0.52311037  0.13605514  1
  O  O31  1  0.94898633  0.53300540  0.13759184  1
  O  O32  1  0.32343517  0.11583642  0.13843972  1
  O  O33  1  0.82119191  0.10470915  0.14001523  1
  O  O34  1  0.23938360  0.34229774  0.14059783  1
  O  O35  1  0.73450305  0.34909445  0.14160745  1
  O  O36  1  0.22814311  0.31621444  0.02104191  1
  O  O37  1  0.72857088  0.31127377  0.02165501  1
  O  O38  1  0.43198900  0.55545286  0.03102597  1
  O  O39  1  0.93310491  0.55130082  0.03181720  1
  O  O40  1  0.34880528  0.14453804  0.03263102  1
  O  O41  1  0.84589969  0.14756922  0.03418453  1
  O  O42  1  0.23396184  0.14680186  0.52149387  1
  O  O43  1  0.72899097  0.14698365  0.52017923  1
  O  O44  1  0.33990257  0.54047613  0.52955899  1
  O  O45  1  0.84483965  0.53704755  0.53404322  1
  O  O46  1  0.42593215  0.32084156  0.53339577  1
  O  O47  1  0.92938724  0.31769693  0.53144462  1
  O  O48  1  0.28022742  0.69782485  0.96981371  1
  O  O49  1  0.76677205  0.68046684  0.96767701  1
  O  O50  1  0.07385636  0.44652676  0.97460602  1
  O  O51  1  0.57755781  0.46975437  0.97242510  1
  O  O52  1  0.16292821  0.86348777  0.96928780  1
  O  O53  1  0.65938581  0.86127839  0.96846636  1
  O  O54  1  0.27793382  0.86394746  0.47204693  1
  O  O55  1  0.76765806  0.85415152  0.46808831  1
  O  O56  1  0.16015961  0.45625133  0.46980116  1
  O  O57  1  0.65986981  0.46153535  0.46823517  1
  O  O58  1  0.07370005  0.70735775  0.47536929  1
  O  O59  1  0.58148367  0.69656587  0.46908480  1
  O  O60  1  0.06438300  0.65320120  0.35889277  1
  O  O61  1  0.56007121  0.64723696  0.35431399  1
  O  O62  1  0.26124663  0.87451057  0.36595784  1
  O  O63  1  0.76537860  0.88051068  0.36223116  1
  O  O64  1  0.17740194  0.47124725  0.36298664  1
  O  O65  1  0.67704395  0.46873819  0.36215129  1
  O  O66  1  0.06014932  0.46899923  0.85588660  1
  O  O67  1  0.55876573  0.47322703  0.85464349  1
  O  O68  1  0.17891026  0.89200820  0.86180077  1
  O  O69  1  0.67767002  0.89301317  0.86204668  1
  O  O70  1  0.26442243  0.65266126  0.86362640  1
  O  O71  1  0.76815335  0.65045179  0.86174226  1
  O  O72  1  0.01451879  0.85258552  0.41433185  1
  O  O73  1  0.51504979  0.84850231  0.41270839  1
  O  O74  1  0.40126715  0.98879041  0.41187066  1
  O  O75  1  0.89914971  0.98709141  0.41680618  1
  O  O76  1  0.09112088  0.19900854  0.41406447  1
  O  O77  1  0.59103982  0.19904753  0.41371102  1
  O  O78  1  0.01499915  0.17798522  0.91440773  1
  O  O79  1  0.51717031  0.18790336  0.91643853  1
  O  O80  1  0.08916620  0.97896330  0.91593383  1
  O  O81  1  0.58518787  0.97432670  0.91428166  1
  O  O82  1  0.40445819  0.81208714  0.91114649  1
  O  O83  1  0.90008442  0.81443285  0.91781968  1
  O  O84  1  0.48206993  0.17414248  0.58465477  1
  O  O85  1  0.98901041  0.18015776  0.58757428  1
  O  O86  1  0.08741952  0.00855493  0.58438026  1
  O  O87  1  0.58794037  0.01982910  0.58452514  1
  O  O88  1  0.40548016  0.80063537  0.58276135  1
  O  O89  1  0.91024726  0.79626793  0.58558494  1
  O  O90  1  0.49302144  0.80287520  0.09042888  1
  O  O91  1  0.99201211  0.80527867  0.08739261  1
  O  O92  1  0.40908272  0.01509861  0.08834150  1
  O  O93  1  0.90911262  0.01681492  0.08505846  1
  O  O94  1  0.08698928  0.16106770  0.08380966  1
  O  O95  1  0.58559535  0.16123978  0.08404495  1
  O  O96  1  0.34251784  0.17282761  0.74107740  1
  O  O97  1  0.83942567  0.16344618  0.74163386  1
  O  O98  1  0.23485859  0.31323348  0.74026549  1
  O  O99  1  0.73555549  0.32814938  0.74344273  1
  O  O100  1  0.42066041  0.52937287  0.74655719  1
  O  O101  1  0.91270097  0.51534608  0.74267427  1
  O  O102  1  0.33897217  0.51393263  0.24309942  1
  O  O103  1  0.83459191  0.50879466  0.24515193  1
  O  O104  1  0.41371479  0.31172506  0.24296944  1
  O  O105  1  0.91168196  0.30848896  0.24290423  1
  O  O106  1  0.23619014  0.15190748  0.24206185  1
  O  O107  1  0.73220191  0.14848154  0.24581646  1
  O  O108  1  0.31670881  0.50463770  0.91846202  1
  O  O109  1  0.81710695  0.50534515  0.92012601  1
  O  O110  1  0.42126696  0.34728336  0.92168262  1
  O  O111  1  0.92079058  0.34265580  0.92111037  1
  O  O112  1  0.24245240  0.14192300  0.91934855  1
  O  O113  1  0.73781929  0.14056359  0.91975174  1
  O  O114  1  0.31804683  0.13040995  0.42032596  1
  O  O115  1  0.81562894  0.12850246  0.42044629  1
  O  O116  1  0.24394225  0.34919447  0.41969320  1
  O  O117  1  0.74344484  0.35046401  0.42033453  1
  O  O118  1  0.42251645  0.49878663  0.42327372  1
  O  O119  1  0.92142796  0.49930046  0.42356916  1
  O  O120  1  0.17259555  0.49949276  0.08318616  1
  O  O121  1  0.67009254  0.49744567  0.07801162  1
  O  O122  1  0.07148661  0.65568926  0.07818992  1
  O  O123  1  0.56761130  0.64579800  0.07818874  1
  O  O124  1  0.25401387  0.86655459  0.07878191  1
  O  O125  1  0.75408736  0.86424709  0.07657583  1
  O  O126  1  0.17980827  0.84915513  0.58177069  1
  O  O127  1  0.67481373  0.84935958  0.57847086  1
  O  O128  1  0.25259266  0.63963339  0.57920377  1
  O  O129  1  0.75555871  0.64242384  0.57650932  1
  O  O130  1  0.06589784  0.48769235  0.57971822  1
  O  O131  1  0.56719848  0.48059250  0.57709929  1
  O  O132  1  0.16244303  0.85129053  0.25863321  1
  O  O133  1  0.65551465  0.84427141  0.25580757  1
  O  O134  1  0.25885608  0.69099738  0.25780344  1
  O  O135  1  0.75883357  0.69337531  0.25789800  1
  O  O136  1  0.08145596  0.48890548  0.25696324  1
  O  O137  1  0.58373565  0.48327349  0.25508110  1
  O  O138  1  0.15577262  0.46268252  0.75186890  1
  O  O139  1  0.65310599  0.46461610  0.75549226  1
  O  O140  1  0.08249109  0.67933456  0.75088417  1
  O  O141  1  0.57327292  0.67434396  0.75292070  1
  O  O142  1  0.25712981  0.83700551  0.75441800  1
  O  O143  1  0.75748739  0.81477831  0.75509124  1
loop_
_geom_bond_atom_site_label_1
_geom_bond_atom_site_label_2
_geom_bond_distance
_geom_bond_site_symmetry_2
Na0 O134 2.458475 1_545
Na0 O104 2.458858 1_555
Na0 O132 2.632526 1_545
Na0 O106 2.660359 1_555
Na0 O4 2.748103 1_555
Na0 O18 2.753913 1_545
Na0 O32 2.759696 1_555
Na0 O62 2.916594 1_545
Na1 O135 2.422806 1_555
Na1 O105 2.454728 1_565
Na1 O107 2.657887 1_565
Na1 O133 2.681923 1_555
Na1 O33 2.729760 1_565
Na1 O5 2.750874 1_565
Na1 O63 2.757684 1_555
Na1 O19 2.778899 1_555
Na2 O102 2.483974 1_555
Na2 O134 2.522139 1_555
Na2 O136 2.532165 1_555
Na2 O34 2.585592 1_555
Na2 O106 2.676219 1_555
Na2 O20 2.750351 1_555
Na2 O64 2.947109 1_555
Na3 O103 2.395434 1_555
Na3 O137 2.472175 1_555
Na3 O35 2.533275 1_555
Na3 O135 2.544713 1_555
Na3 O107 2.626435 1_555
Na3 O65 2.889826 1_555
Na3 O21 2.893389 1_555
Na4 O136 2.505570 1_655
Na4 O3 2.529316 1_555
Na4 O103 2.544183 1_555
Na4 O105 2.558530 1_555
Na4 O60 2.567400 1_655
Na4 O132 2.718765 1_655
Na4 O31 2.937261 1_555
Na4 O22 2.984757 1_655
Na5 O61 2.436464 1_555
Na5 O104 2.517414 1_555
Na5 O137 2.521172 1_555
Na5 O102 2.537600 1_555
Na5 O133 2.571003 1_555
Na5 O2 2.741182 1_555
Na6 O143 2.411356 1_555
Na6 O101 2.413514 1_555
Na6 O99 2.560887 1_555
Na6 O29 2.657305 1_555
Na6 O13 2.719205 1_555
Na6 O139 2.764612 1_555
Na6 O9 2.824287 1_555
Na6 O71 2.846940 1_555
Na7 O97 2.490454 1_555
Na7 O66 2.501963 1_655
Na7 O101 2.503581 1_555
Na7 O140 2.515139 1_655
Na7 O138 2.629007 1_655
Na7 O11 2.717747 1_555
Na7 O25 2.943603 1_555
Na8 O67 2.466014 1_555
Na8 O96 2.473872 1_555
Na8 O139 2.506153 1_555
Na8 O141 2.540334 1_555
Na8 O10 2.540969 1_555
Na8 O100 2.602991 1_555
Na8 O15 2.935048 1_555
Na8 O24 2.942639 1_555
Na9 O142 2.430124 1_555
Na9 O140 2.466372 1_555
Na9 O96 2.577946 1_565
Na9 O98 2.613290 1_565
Na9 O26 2.693262 1_565
Na9 O16 2.852409 1_555
Na9 O68 2.858008 1_555
Na10 O86 2.365676 1_565
Na10 O89 2.493829 1_455
Na10 O126 2.520862 1_555
Na10 O130 2.541711 1_555
Na10 O16 2.647296 1_555
Na10 O58 2.669076 1_555
Na11 O126 2.389054 1_555
Na11 O12 2.422561 1_555
Na11 O84 2.453559 1_565
Na11 O88 2.537181 1_555
Na11 O128 2.623057 1_555
Na11 O26 2.826896 1_565
Na11 O54 2.906838 1_555
Na12 O94 2.373009 1_555
Na12 O120 2.379777 1_555
Na12 O93 2.556689 1_455
Na12 O20 2.592770 1_555
Na12 O122 2.629600 1_555
Na12 O50 2.668076 1_554
Na13 O95 2.364611 1_555
Na13 O121 2.375314 1_555
Na13 O92 2.548082 1_555
Na13 O21 2.559042 1_555
Na13 O123 2.570206 1_555
Na13 O51 2.836491 1_554
Na13 O40 2.972878 1_555
Na13 O30 2.985863 1_555
Na14 O78 2.332502 1_555
Na14 O36 2.448786 1_556
Na14 O108 2.499597 1_555
Na14 O112 2.539884 1_555
Na14 O80 2.556574 1_545
Na14 O50 2.747114 1_555
Na14 O6 2.942780 1_555
Na15 O79 2.347238 1_555
Na15 O37 2.443719 1_556
Na15 O113 2.452568 1_555
Na15 O109 2.460405 1_555
Na15 O81 2.613863 1_545
Na15 O51 2.862292 1_555
Na15 O7 2.927623 1_555
Na16 O72 2.341043 1_545
Na16 O42 2.497313 1_555
Na16 O114 2.511473 1_555
Na16 O76 2.547842 1_555
Na16 O116 2.608665 1_555
Na16 O58 2.693511 1_545
Na16 O0 2.964791 1_555
Na17 O73 2.356291 1_545
Na17 O43 2.444564 1_555
Na17 O115 2.461054 1_555
Na17 O77 2.540679 1_555
Na17 O117 2.595731 1_555
Na17 O59 2.738069 1_545
Na17 O1 2.977657 1_555
Na18 O72 2.476248 1_655
Na18 O86 2.484820 1_665
Na18 O89 2.581375 1_555
Na18 O75 2.620279 1_555
Na18 O85 2.648241 1_565
Na18 O76 2.650836 1_665
Na19 O87 2.342286 1_565
Na19 O73 2.402269 1_555
Na19 O77 2.613488 1_565
Na19 O88 2.614476 1_555
Na19 O84 2.769353 1_565
Na19 O74 2.835237 1_555
Na20 O94 2.444024 1_556
Na20 O78 2.454739 1_555
Na20 O80 2.554593 1_545
Na20 O83 2.609548 1_445
Na20 O93 2.615090 1_456
Na20 O91 2.638168 1_446
Na21 O95 2.394075 1_555
Na21 O79 2.526575 1_554
Na21 O81 2.576922 1_544
Na21 O92 2.643447 1_555
Na21 O90 2.647778 1_545
Na21 O82 2.744584 1_544
Na22 O110 2.345161 1_555
Na22 O112 2.601879 1_555
Na22 O100 2.618526 1_555
Na22 O96 2.624765 1_555
Na22 O108 2.644958 1_555
Na22 O98 2.959380 1_555
Na23 O111 2.388535 1_555
Na23 O97 2.503873 1_555
Na23 O101 2.557544 1_555
Na23 O113 2.717524 1_555
Na23 O109 2.824627 1_555
Na23 O99 2.917447 1_555
Na24 O118 2.351377 1_555
Na24 O104 2.549464 1_555
Na24 O102 2.590490 1_555
Na24 O116 2.697292 1_555
Na24 O114 2.723137 1_555
Na25 O119 2.353140 1_555
Na25 O103 2.544997 1_555
Na25 O105 2.601041 1_555
Na25 O117 2.651298 1_555
Na25 O115 2.728832 1_555
Na25 O107 2.958328 1_555
Na26 O120 2.347459 1_555
Na26 O134 2.531889 1_555
Na26 O124 2.616206 1_555
Na26 O136 2.640842 1_555
Na26 O122 2.769620 1_555
Na26 O132 2.861120 1_555
Na27 O121 2.450040 1_555
Na27 O135 2.493502 1_555
Na27 O137 2.618068 1_555
Na27 O125 2.640248 1_555
Na27 O133 2.825049 1_555
Na27 O123 2.829960 1_555
Na28 O140 2.458623 1_555
Na28 O142 2.464253 1_555
Na28 O126 2.534226 1_555
Na28 O138 2.590698 1_555
Na28 O128 2.650832 1_555
Na28 O130 2.773691 1_555
Na29 O127 2.304452 1_555
Na29 O143 2.447915 1_555
Na29 O129 2.672671 1_555
Na29 O141 2.711110 1_555
Na29 O131 2.902006 1_555
Na29 O139 2.980810 1_555
In0 O3 2.039392 1_555
In0 O5 2.053981 1_565
In0 O72 2.093579 1_655
In0 O75 2.228914 1_555
In0 O0 2.335961 1_665
In0 O76 2.400417 1_665
In1 O11 2.040712 1_565
In1 O9 2.046716 1_555
In1 O78 2.108132 1_665
In1 O83 2.270226 1_555
In1 O6 2.322044 1_665
In1 O80 2.425013 1_655
In2 O10 2.022898 1_555
In2 O79 2.105271 1_555
In2 O82 2.182421 1_545
In2 O7 2.238249 1_555
In2 O8 2.264902 1_545
In2 O81 2.321408 1_545
In3 O87 2.032858 1_565
In3 O12 2.079225 1_555
In3 O17 2.160387 1_555
In3 O15 2.208631 1_565
In3 O88 2.326563 1_555
In3 O84 2.340202 1_565
In4 O19 2.053216 1_445
In4 O20 2.083851 1_555
In4 O94 2.120874 1_555
In4 O22 2.244168 1_545
In4 O91 2.274739 1_445
In4 O93 2.300244 1_455
In5 O35 2.047552 1_555
In5 O103 2.098121 1_555
In5 O105 2.140616 1_555
In5 O31 2.199750 1_555
In5 O33 2.266028 1_555
In5 O107 2.300228 1_555
In6 O36 2.049401 1_556
In6 O110 2.062490 1_555
In6 O40 2.172022 1_556
In6 O38 2.199940 1_556
In6 O112 2.273085 1_555
In6 O108 2.302089 1_555
In7 O111 2.051082 1_555
In7 O37 2.053454 1_556
In7 O41 2.155176 1_556
In7 O39 2.203069 1_556
In7 O109 2.262432 1_555
In7 O113 2.293883 1_555
In8 O50 2.054798 1_554
In8 O120 2.109035 1_555
In8 O48 2.161217 1_554
In8 O52 2.229646 1_554
In8 O122 2.235423 1_555
In8 O124 2.287998 1_555
In9 O58 2.045661 1_555
In9 O126 2.134987 1_555
In9 O56 2.188649 1_555
In9 O54 2.200660 1_555
In9 O130 2.226588 1_555
In9 O128 2.309933 1_555
In10 O66 2.064381 1_555
In10 O140 2.119901 1_555
In10 O142 2.126975 1_555
In10 O68 2.188406 1_555
In10 O70 2.228379 1_555
In10 O138 2.321034 1_555
In11 O67 2.065579 1_555
In11 O143 2.077887 1_555
In11 O69 2.132227 1_555
In11 O71 2.232502 1_555
In11 O141 2.255307 1_555
In11 O139 2.320181 1_555
O0 S0 1.479021 1_555
O1 S1 1.478930 1_545
O1 Sc0 2.217119 1_545
O2 Si0 1.636930 1_555
O2 Sc0 1.945111 1_555
O3 Si1 1.626934 1_555
O4 Si3 1.630852 1_555
O4 Sc0 2.020501 1_545
O5 Si2 1.634942 1_555
O6 S2 1.487752 1_555
O7 S3 1.486396 1_555
O8 S4 1.481931 1_555
O9 Si4 1.649413 1_555
O10 Si5 1.624281 1_545
O11 Si6 1.622102 1_545
O12 Si5 1.643812 1_555
O13 Si6 1.638127 1_555
O13 Sc1 1.987518 1_555
O14 S2 1.475021 1_555
O14 Sc1 2.192153 1_445
O15 S3 1.475579 1_555
O16 Si4 1.650748 1_455
O16 Sc1 1.964683 1_455
O17 S4 1.477367 1_555
O18 Si0 1.631030 1_555
O18 Sc2 1.998542 1_565
O19 Si1 1.644971 1_555
O20 Si2 1.640093 1_455
O21 Si3 1.649858 1_555
O21 Sc2 1.976290 1_555
O22 S0 1.478597 1_565
O23 S1 1.478462 1_555
O23 Sc2 2.175933 1_565
O24 S5 1.492984 1_555
O24 Sc3 2.156999 1_555
O25 S6 1.483624 1_555
O25 Sc4 2.182354 1_555
O26 Si7 1.663672 1_555
O26 Sc3 1.932157 1_555
O27 Si8 1.629962 1_555
O27 Sc4 1.917807 1_555
O28 S7 1.471693 1_555
O28 Sc3 2.208570 1_555
O29 S8 1.480562 1_555
O29 Sc4 2.302989 1_555
O30 S9 1.495296 1_555
O30 Sc5 2.136572 1_555
O31 S10 1.499765 1_555
O32 S11 1.484569 1_555
O32 Sc5 2.267513 1_555
O33 S12 1.498266 1_555
O34 Si9 1.641053 1_555
O34 Sc5 1.976293 1_555
O35 Si10 1.633301 1_555
O36 Si9 1.644779 1_555
O37 Si10 1.635391 1_555
O38 S9 1.475714 1_555
O39 S10 1.475222 1_555
O40 S11 1.489466 1_555
O41 S12 1.481993 1_555
O42 Si7 1.637550 1_555
O42 Sc6 2.031131 1_555
O43 Si8 1.653042 1_555
O43 Sc7 1.996508 1_555
O44 S7 1.474104 1_555
O44 Sc6 2.099400 1_555
O45 S8 1.491423 1_555
O45 Sc7 2.101368 1_555
O46 S5 1.477788 1_555
O46 Sc6 2.123504 1_555
O47 S6 1.474204 1_555
O47 Sc7 2.173403 1_555
O48 S13 1.486694 1_555
O49 S14 1.479288 1_555
O49 Sc8 2.101331 1_556
O50 Si11 1.642571 1_555
O51 Si12 1.647718 1_555
O51 Sc8 1.937990 1_556
O52 S15 1.485526 1_555
O53 S16 1.468509 1_555
O53 Sc8 2.272907 1_556
O54 S17 1.496261 1_555
O55 S18 1.470139 1_555
O55 Sc9 2.132444 1_555
O56 S19 1.484161 1_555
O57 S20 1.459379 1_555
O57 Sc9 2.315430 1_555
O58 Si13 1.638314 1_555
O59 Si14 1.642005 1_555
O59 Sc9 1.913211 1_555
O60 Si13 1.655501 1_555
O60 Sc10 1.979134 1_555
O61 Si14 1.649076 1_555
O61 Sc11 1.985682 1_555
O62 S17 1.483075 1_555
O62 Sc10 2.258416 1_555
O63 S18 1.491077 1_555
O63 Sc11 2.289756 1_555
O64 S19 1.488052 1_555
O64 Sc10 2.129682 1_555
O65 S20 1.500029 1_555
O65 Sc11 2.107898 1_555
O66 Si11 1.646712 1_555
O67 Si12 1.646947 1_555
O68 S15 1.488929 1_555
O69 S16 1.480947 1_555
O70 S13 1.478029 1_555
O71 S14 1.494306 1_555
O72 Si13 1.663571 1_555
O73 Si14 1.652291 1_555
O73 Sc0 2.076294 1_555
O74 S17 1.470501 1_555
O74 Sc0 2.156036 1_555
O75 S18 1.479544 1_555
O76 S19 1.486178 1_555
O77 S20 1.490874 1_555
O77 Sc0 2.386144 1_545
O78 Si11 1.665954 1_555
O79 Si12 1.661183 1_555
O80 S15 1.491854 1_555
O81 S16 1.506700 1_555
O82 S13 1.485969 1_555
O83 S14 1.469396 1_555
O84 S5 1.490210 1_555
O85 S6 1.467474 1_555
O85 Sc1 2.300380 1_545
O86 Si7 1.642712 1_555
O86 Sc1 2.144071 1_445
O87 Si8 1.661600 1_555
O88 S7 1.495226 1_555
O89 S8 1.505286 1_555
O89 Sc1 2.231475 1_555
O90 S9 1.463820 1_555
O90 Sc2 2.268186 1_565
O91 S10 1.471370 1_555
O92 S11 1.494237 1_555
O92 Sc2 2.228544 1_555
O93 S12 1.490302 1_555
O94 Si9 1.662634 1_555
O95 Si10 1.655770 1_555
O95 Sc2 2.101718 1_555
O96 Si5 1.682762 1_545
O96 Sc3 2.009629 1_555
O97 Si6 1.636495 1_545
O97 Sc4 1.967042 1_555
O98 S2 1.495718 1_555
O98 Sc3 2.146789 1_555
O99 S3 1.472962 1_555
O99 Sc4 2.191966 1_555
O100 S4 1.499793 1_555
O100 Sc3 2.342415 1_555
O101 Si4 1.628946 1_555
O101 Sc4 2.179711 1_555
O102 Si0 1.658245 1_555
O102 Sc5 2.004031 1_555
O103 Si1 1.638891 1_555
O104 Si3 1.651590 1_555
O104 Sc5 2.124473 1_555
O105 Si2 1.648366 1_555
O106 S0 1.492092 1_555
O106 Sc5 2.186221 1_555
O107 S1 1.490581 1_545
O108 S13 1.499710 1_555
O109 S14 1.493827 1_555
O110 Si12 1.652795 1_555
O111 Si11 1.653213 1_655
O112 S15 1.508660 1_545
O113 S16 1.494158 1_545
O114 S17 1.498917 1_545
O114 Sc6 2.260132 1_555
O115 S18 1.499547 1_545
O115 Sc7 2.256235 1_555
O116 S19 1.500980 1_555
O116 Sc6 2.218896 1_555
O117 S20 1.502791 1_555
O117 Sc7 2.217174 1_555
O118 Si14 1.654314 1_555
O118 Sc6 1.994718 1_555
O119 Si13 1.642258 1_655
O119 Sc7 2.047590 1_555
O120 Si9 1.668400 1_555
O121 Si10 1.681217 1_555
O121 Sc8 1.990370 1_555
O122 S10 1.498751 1_455
O123 S9 1.496482 1_555
O123 Sc8 2.185239 1_555
O124 S11 1.485978 1_565
O125 S12 1.477331 1_565
O125 Sc8 2.252563 1_555
O126 Si7 1.681103 1_565
O127 Si8 1.662898 1_565
O127 Sc9 1.960638 1_555
O128 S7 1.505786 1_555
O129 S8 1.468881 1_555
O129 Sc9 2.336123 1_555
O130 S6 1.509616 1_455
O131 S5 1.464442 1_555
O131 Sc9 2.194937 1_555
O132 S0 1.493921 1_565
O132 Sc10 2.215801 1_555
O133 S1 1.494839 1_555
O133 Sc11 2.282264 1_555
O134 Si0 1.645483 1_555
O134 Sc10 2.123195 1_555
O135 Si1 1.646944 1_555
O135 Sc11 2.113703 1_555
O136 Si2 1.655910 1_455
O136 Sc10 2.001824 1_555
O137 Si3 1.652852 1_555
O137 Sc11 2.025496 1_555
O138 S2 1.483312 1_555
O139 S3 1.492242 1_555
O140 Si4 1.653021 1_455
O141 S4 1.504539 1_555
O142 Si5 1.640097 1_555
O143 Si6 1.665603 1_555
