# generated using pymatgen
data_Er(ClO4)3
_symmetry_space_group_name_H-M   'P 1'
_cell_length_a   9.18076046
_cell_length_b   9.18084485
_cell_length_c   5.54012720
_cell_angle_alpha   89.99999105
_cell_angle_beta   89.99999601
_cell_angle_gamma   120.00087215
_symmetry_Int_Tables_number   1
_chemical_formula_structural   Er(ClO4)3
_chemical_formula_sum   'Er2 Cl6 O24'
_cell_volume   404.39693516
_cell_formula_units_Z   2
loop_
 _symmetry_equiv_pos_site_id
 _symmetry_equiv_pos_as_xyz
  1  'x, y, z'
loop_
 _atom_site_type_symbol
 _atom_site_label
 _atom_site_symmetry_multiplicity
 _atom_site_fract_x
 _atom_site_fract_y
 _atom_site_fract_z
 _atom_site_occupancy
  Er  Er0  1  0.33333526  0.66665337  0.74992434  1
  Er  Er1  1  0.66668810  0.33335693  0.25001375  1
  Cl  Cl0  1  0.70639001  0.61085320  0.75000838  1
  Cl  Cl1  1  0.09554206  0.70638555  0.24999074  1
  Cl  Cl2  1  0.61084379  0.90445354  0.24998835  1
  Cl  Cl3  1  0.38915873  0.09554986  0.75000758  1
  Cl  Cl4  1  0.90445035  0.29361217  0.75000865  1
  Cl  Cl5  1  0.29361184  0.38915177  0.24998924  1
  O  O0  1  0.80690650  0.78628859  0.75000791  1
  O  O1  1  0.02063376  0.80691356  0.25000324  1
  O  O2  1  0.78628287  0.97936779  0.24999351  1
  O  O3  1  0.21372240  0.02063846  0.75000896  1
  O  O4  1  0.97935904  0.19307801  0.75000730  1
  O  O5  1  0.19309110  0.21371445  0.24999531  1
  O  O6  1  0.79628755  0.25562613  0.53943346  1
  O  O7  1  0.54065775  0.79628584  0.03942389  1
  O  O8  1  0.47169211  0.44677301  0.25000422  1
  O  O9  1  0.02493211  0.47168568  0.75000752  1
  O  O10  1  0.44676231  0.97507825  0.75000246  1
  O  O11  1  0.55323548  0.02492108  0.25000143  1
  O  O12  1  0.97506301  0.52830453  0.25000127  1
  O  O13  1  0.52830534  0.55322574  0.75000911  1
  O  O14  1  0.79628945  0.25562909  0.96058281  1
  O  O15  1  0.54066904  0.79628772  0.46057309  1
  O  O16  1  0.25561809  0.45932312  0.46057092  1
  O  O17  1  0.74437667  0.54067580  0.96058007  1
  O  O18  1  0.45934266  0.20371402  0.96058017  1
  O  O19  1  0.20370850  0.74437055  0.46056909  1
  O  O20  1  0.20370182  0.74436368  0.03942213  1
  O  O21  1  0.45933661  0.20371301  0.53943263  1
  O  O22  1  0.74437867  0.54067603  0.53943612  1
  O  O23  1  0.25562704  0.45933047  0.03942334  1
loop_
_geom_bond_atom_site_label_1
_geom_bond_atom_site_label_2
_geom_bond_distance
_geom_bond_site_symmetry_2
Er0 O16 2.311686 1_555
Er0 O15 2.311700 1_555
Er0 O19 2.311782 1_555
Er0 O23 2.312208 1_556
Er0 O7 2.312210 1_556
Er0 O20 2.312335 1_556
Er0 O9 2.480417 1_555
Er0 O13 2.480423 1_555
Er0 O10 2.480647 1_555
Er1 O22 2.311908 1_555
Er1 O6 2.311932 1_555
Er1 O17 2.311951 1_554
Er1 O14 2.311972 1_554
Er1 O21 2.312061 1_555
Er1 O18 2.312086 1_554
Er1 O12 2.480187 1_555
Er1 O8 2.480562 1_555
Er1 O11 2.480706 1_555
Cl0 O0 1.399785 1_555
Cl0 O13 1.444977 1_555
Cl0 O17 1.456836 1_555
Cl0 O22 1.456846 1_555
Cl1 O1 1.399817 1_555
Cl1 O12 1.444996 1_455
Cl1 O20 1.456799 1_555
Cl1 O19 1.456871 1_555
Cl2 O2 1.399811 1_555
Cl2 O11 1.444959 1_565
Cl2 O7 1.456821 1_555
Cl2 O15 1.456892 1_555
Cl3 O3 1.399790 1_555
Cl3 O10 1.444962 1_545
Cl3 O18 1.456840 1_555
Cl3 O21 1.456840 1_555
Cl4 O4 1.399871 1_555
Cl4 O9 1.444949 1_655
Cl4 O14 1.456825 1_555
Cl4 O6 1.456837 1_555
Cl5 O5 1.399803 1_555
Cl5 O8 1.444950 1_555
Cl5 O23 1.456809 1_555
Cl5 O16 1.456879 1_555
