# generated using pymatgen
data_Y2SiSn2S5O24
_symmetry_space_group_name_H-M   'P 1'
_cell_length_a   9.04705911
_cell_length_b   9.06686118
_cell_length_c   23.53089393
_cell_angle_alpha   89.71120429
_cell_angle_beta   90.15041035
_cell_angle_gamma   120.14405377
_symmetry_Int_Tables_number   1
_chemical_formula_structural   Y2SiSn2S5O24
_chemical_formula_sum   'Y6 Si3 Sn6 S15 O72'
_cell_volume   1669.15123116
_cell_formula_units_Z   3
loop_
 _symmetry_equiv_pos_site_id
 _symmetry_equiv_pos_as_xyz
  1  'x, y, z'
loop_
 _atom_site_type_symbol
 _atom_site_label
 _atom_site_symmetry_multiplicity
 _atom_site_fract_x
 _atom_site_fract_y
 _atom_site_fract_z
 _atom_site_occupancy
  Y  Y0  1  0.98905944  0.00126613  0.36260784  1
  Y  Y1  1  0.00445469  0.00317575  0.85927876  1
  Y  Y2  1  0.68065071  0.33635011  0.68358194  1
  Y  Y3  1  0.65617753  0.33401213  0.18438924  1
  Y  Y4  1  0.65382373  0.33059858  0.98481913  1
  Y  Y5  1  0.32900811  0.66317344  0.80729399  1
  Si  Si0  1  0.96894387  0.33720248  0.58165646  1
  Si  Si1  1  0.35990420  0.33260367  0.08392818  1
  Si  Si2  1  0.60453910  0.95225854  0.41899396  1
  Sn  Sn0  1  0.99801383  0.00596709  0.64282347  1
  Sn  Sn1  1  0.00646324  0.00599101  0.14879250  1
  Sn  Sn2  1  0.67215462  0.31889924  0.48080338  1
  Sn  Sn3  1  0.33319092  0.66102780  0.02168268  1
  Sn  Sn4  1  0.33387174  0.66507930  0.52064052  1
  Sn  Sn5  1  0.33715978  0.67156644  0.31573946  1
  S  S0  1  0.28223990  0.98439435  0.25151868  1
  S  S1  1  0.70728915  0.71744055  0.24969071  1
  S  S2  1  0.01408814  0.30279772  0.25164491  1
  S  S3  1  0.28509220  0.28259295  0.74742283  1
  S  S4  1  0.99964964  0.72334052  0.74687518  1
  S  S5  1  0.71735252  0.99771540  0.74831544  1
  S  S6  1  0.36709101  0.03705173  0.58241468  1
  S  S7  1  0.66891658  0.62748326  0.58111528  1
  S  S8  1  0.97057741  0.63877361  0.08374847  1
  S  S9  1  0.66739333  0.02901622  0.08385396  1
  S  S10  1  0.61678773  0.66775375  0.91797625  1
  S  S11  1  0.04616532  0.38297805  0.91863469  1
  S  S12  1  0.33494759  0.94564551  0.91919238  1
  S  S13  1  0.34884657  0.38758922  0.41894430  1
  S  S14  1  0.04166914  0.65473044  0.41755112  1
  O  O0  1  0.20228164  0.01036497  0.30121027  1
  O  O1  1  0.81401623  0.80125237  0.29916370  1
  O  O2  1  0.98857335  0.19611235  0.30165376  1
  O  O3  1  0.20530615  0.18061924  0.79905611  1
  O  O4  1  0.98107308  0.80502125  0.79791748  1
  O  O5  1  0.82091689  0.02146918  0.79937947  1
  O  O6  1  0.79617658  0.97005817  0.69657391  1
  O  O7  1  0.17638961  0.20089089  0.69610488  1
  O  O8  1  0.02572254  0.82947188  0.69419808  1
  O  O9  1  0.78505840  0.82619006  0.19651735  1
  O  O10  1  0.04657095  0.22692268  0.19965857  1
  O  O11  1  0.17521015  0.95628184  0.19868302  1
  O  O12  1  0.88940617  0.37256389  0.63703175  1
  O  O13  1  0.47305680  0.11436674  0.63293643  1
  O  O14  1  0.63643862  0.52121040  0.63190194  1
  O  O15  1  0.89747972  0.52699153  0.13374574  1
  O  O16  1  0.63828610  0.10671152  0.13428327  1
  O  O17  1  0.48065349  0.36688645  0.13880482  1
  O  O18  1  0.44182976  0.29715055  0.02832905  1
  O  O19  1  0.86513744  0.56199227  0.03273575  1
  O  O20  1  0.70526478  0.13849923  0.03330984  1
  O  O21  1  0.44054263  0.15033405  0.53147720  1
  O  O22  1  0.69703588  0.54845970  0.52962467  1
  O  O23  1  0.84485985  0.30053081  0.52593591  1
  O  O24  1  0.53760981  0.69618862  0.96931486  1
  O  O25  1  0.15503015  0.46447628  0.96984237  1
  O  O26  1  0.30821438  0.83906054  0.97171637  1
  O  O27  1  0.51864700  0.83161568  0.47497032  1
  O  O28  1  0.31084757  0.46201045  0.46841949  1
  O  O29  1  0.14900972  0.68158059  0.46788230  1
  O  O30  1  0.11268179  0.61660336  0.36527632  1
  O  O31  1  0.48925962  0.87003604  0.36060633  1
  O  O32  1  0.37711061  0.49172404  0.36568343  1
  O  O33  1  0.12700975  0.48552539  0.86704850  1
  O  O34  1  0.35295186  0.86286552  0.86823987  1
  O  O35  1  0.51305640  0.64450801  0.86675825  1
  O  O36  1  0.03152516  0.80900733  0.40898056  1
  O  O37  1  0.78885501  0.97085525  0.41173699  1
  O  O38  1  0.20210169  0.21673906  0.41055491  1
  O  O39  1  0.03344808  0.21484644  0.91319437  1
  O  O40  1  0.18142343  0.96180528  0.91439846  1
  O  O41  1  0.78639318  0.82207240  0.91224080  1
  O  O42  1  0.98775328  0.16619294  0.59002890  1
  O  O43  1  0.19225110  0.01269869  0.59072957  1
  O  O44  1  0.82583945  0.79868058  0.58933706  1
  O  O45  1  0.98267890  0.80733037  0.09370833  1
  O  O46  1  0.81457302  0.00040184  0.09384472  1
  O  O47  1  0.16963006  0.16041698  0.09371859  1
  O  O48  1  0.69793715  0.14837773  0.74148828  1
  O  O49  1  0.45471604  0.30162065  0.74003133  1
  O  O50  1  0.84527967  0.55537405  0.74133112  1
  O  O51  1  0.69206387  0.55057077  0.24184909  1
  O  O52  1  0.86818170  0.32673739  0.24184778  1
  O  O53  1  0.45484476  0.12994909  0.24248647  1
  O  O54  1  0.63637753  0.51752098  0.92499264  1
  O  O55  1  0.87713861  0.36422572  0.92612151  1
  O  O56  1  0.48915606  0.11298596  0.92516948  1
  O  O57  1  0.61586432  0.13850320  0.42517002  1
  O  O58  1  0.50736035  0.37944404  0.42838222  1
  O  O59  1  0.86691799  0.50601187  0.42514502  1
  O  O60  1  0.34071191  0.50275426  0.07480899  1
  O  O61  1  0.14704720  0.66884646  0.07420568  1
  O  O62  1  0.51069343  0.86001709  0.07411063  1
  O  O63  1  0.34908265  0.86740068  0.57360311  1
  O  O64  1  0.51933477  0.65130536  0.57367188  1
  O  O65  1  0.15879254  0.50391673  0.57048128  1
  O  O66  1  0.29162194  0.82318937  0.25664631  1
  O  O67  1  0.53307338  0.69745631  0.25577263  1
  O  O68  1  0.17420448  0.47640345  0.25974457  1
  O  O69  1  0.29858669  0.45115703  0.75291086  1
  O  O70  1  0.15281350  0.70638152  0.75175224  1
  O  O71  1  0.54748990  0.84378154  0.75388187  1
loop_
_geom_bond_atom_site_label_1
_geom_bond_atom_site_label_2
_geom_bond_distance
_geom_bond_site_symmetry_2
O0 S0 1.457486 1_545
O0 Y0 2.380934 1_455
O1 S1 1.459826 1_555
O1 Y0 2.270653 1_565
O2 S2 1.462668 1_655
O2 Y0 2.271674 1_555
O3 S3 1.474803 1_555
O3 Y1 2.225492 1_555
O4 S4 1.467761 1_555
O4 Y1 2.236137 1_665
O5 S5 1.470405 1_545
O5 Y1 2.243503 1_655
O6 S5 1.497010 1_555
O6 Sn0 2.109734 1_565
O7 S3 1.498400 1_555
O7 Sn0 2.108768 1_455
O8 S4 1.509840 1_455
O8 Sn0 2.113502 1_465
O9 S1 1.525852 1_555
O9 Sn1 2.155168 1_665
O10 S2 1.506480 1_555
O10 Sn1 2.206535 1_555
O11 S0 1.515682 1_555
O11 Sn1 2.142047 1_565
O12 Si0 1.599791 1_555
O12 Y2 2.063723 1_555
O13 S6 1.466705 1_555
O13 Y2 2.283503 1_555
O14 S7 1.465887 1_555
O14 Y2 2.257962 1_555
O15 S8 1.472260 1_555
O15 Y3 2.324586 1_555
O16 S9 1.473130 1_555
O16 Y3 2.313462 1_555
O17 Si1 1.616495 1_555
O17 Y3 2.055308 1_555
O18 Si1 1.616461 1_555
O18 Y4 2.059520 1_554
O19 S8 1.473414 1_555
O19 Y4 2.304774 1_554
O20 S9 1.471725 1_555
O20 Y4 2.311597 1_554
O21 S6 1.496485 1_555
O21 Sn2 2.219618 1_555
O22 S7 1.496511 1_555
O22 Sn2 2.292337 1_555
O23 Si0 1.646719 1_555
O23 Sn2 1.961577 1_555
O24 S10 1.494031 1_555
O24 Sn3 2.110971 1_556
O25 S11 1.496595 1_555
O25 Sn3 2.094891 1_556
O26 S12 1.508220 1_555
O26 Sn3 2.094015 1_556
O27 Si2 1.634762 1_555
O27 Sn4 1.920234 1_555
O28 S13 1.473719 1_555
O28 Sn4 2.140008 1_555
O29 S14 1.471195 1_555
O29 Sn4 2.144582 1_555
O30 S14 1.508916 1_555
O30 Sn5 2.172923 1_555
O31 Si2 1.659228 1_555
O31 Sn5 1.941876 1_555
O32 S13 1.508253 1_555
O32 Sn5 2.177395 1_555
O33 S11 1.477567 1_555
O33 Y5 2.223838 1_555
O34 S12 1.469778 1_555
O34 Y5 2.238845 1_555
O35 S10 1.474999 1_555
O35 Y5 2.242204 1_555
O36 S14 1.460050 1_555
O36 Y0 2.242374 1_465
O37 Si2 1.599068 1_555
O37 Y0 2.049229 1_565
O38 S13 1.461965 1_555
O38 Y0 2.243553 1_455
O39 S11 1.476224 1_555
O39 Y1 2.208809 1_555
O40 S12 1.471990 1_555
O40 Y1 2.230170 1_565
O41 S10 1.474212 1_555
O41 Y1 2.209108 1_665
O42 Si0 1.653368 1_555
O42 Sn0 1.943977 1_555
O43 S6 1.496492 1_555
O43 Sn0 2.120661 1_455
O44 S7 1.500222 1_555
O44 Sn0 2.148470 1_565
O45 S8 1.495989 1_555
O45 Sn1 2.145602 1_665
O46 S9 1.496760 1_555
O46 Sn1 2.142125 1_655
O47 Si1 1.659210 1_555
O47 Sn1 1.932584 1_555
O48 S5 1.470150 1_545
O48 Y2 2.242539 1_555
O49 S3 1.466355 1_555
O49 Y2 2.324921 1_555
O50 S4 1.466862 1_555
O50 Y2 2.248223 1_555
O51 S1 1.461340 1_555
O51 Y3 2.274443 1_555
O52 S2 1.458900 1_655
O52 Y3 2.371438 1_555
O53 S0 1.467802 1_545
O53 Y3 2.283144 1_555
O54 S10 1.467697 1_555
O54 Y4 2.263299 1_555
O55 S11 1.462314 1_655
O55 Y4 2.339704 1_555
O56 S12 1.464027 1_545
O56 Y4 2.268753 1_555
O57 Si2 1.646753 1_545
O57 Sn2 1.957005 1_555
O58 S13 1.488591 1_555
O58 Sn2 2.202548 1_555
O59 S14 1.485804 1_655
O59 Sn2 2.164631 1_555
O60 Si1 1.649763 1_555
O60 Sn3 1.925174 1_555
O61 S8 1.495906 1_455
O61 Sn3 2.121381 1_555
O62 S9 1.493443 1_565
O62 Sn3 2.111411 1_555
O63 S6 1.478831 1_565
O63 Sn4 2.169285 1_555
O64 S7 1.483451 1_555
O64 Sn4 2.141498 1_555
O65 Si0 1.641612 1_455
O65 Sn4 1.920273 1_555
O66 S0 1.510257 1_555
O66 Sn5 2.130667 1_555
O67 S1 1.500541 1_555
O67 Sn5 2.186252 1_555
O68 S2 1.524426 1_555
O68 Sn5 2.105697 1_555
O69 S3 1.477137 1_555
O69 Y5 2.213649 1_555
O70 S4 1.473063 1_455
O70 Y5 2.239121 1_555
O71 S5 1.473697 1_555
O71 Y5 2.215766 1_555
