# generated using pymatgen
data_Na4HfZnSi(PO6)2
_symmetry_space_group_name_H-M   'P 1'
_cell_length_a   9.13112213
_cell_length_b   9.17750716
_cell_length_c   22.27932653
_cell_angle_alpha   89.56474437
_cell_angle_beta   90.00000000
_cell_angle_gamma   119.83294846
_symmetry_Int_Tables_number   1
_chemical_formula_structural   Na4HfZnSi(PO6)2
_chemical_formula_sum   'Na24 Hf6 Zn6 Si6 P12 O72'
_cell_volume   1619.54686738
_cell_formula_units_Z   6
loop_
 _symmetry_equiv_pos_site_id
 _symmetry_equiv_pos_as_xyz
  1  'x, y, z'
loop_
 _atom_site_type_symbol
 _atom_site_label
 _atom_site_symmetry_multiplicity
 _atom_site_fract_x
 _atom_site_fract_y
 _atom_site_fract_z
 _atom_site_occupancy
  Na  Na0  1  0.63815209  0.01851447  0.24756105  1
  Na  Na1  1  0.37385123  0.35363096  0.24840818  1
  Na  Na2  1  0.98610736  0.62545119  0.24220255  1
  Na  Na3  1  0.63934382  0.62545119  0.74220255  1
  Na  Na4  1  0.97977973  0.35363096  0.74840818  1
  Na  Na5  1  0.38036238  0.01851447  0.74756105  1
  Na  Na6  1  0.31275021  0.35362296  0.58188731  1
  Na  Na7  1  0.03683123  0.69117151  0.57865626  1
  Na  Na8  1  0.64682033  0.94899040  0.57784038  1
  Na  Na9  1  0.30217107  0.94899040  0.07784038  1
  Na  Na10  1  0.65434128  0.69117151  0.07865626  1
  Na  Na11  1  0.04087375  0.35362296  0.08188731  1
  Na  Na12  1  0.98055744  0.68886022  0.91653552  1
  Na  Na13  1  0.70567299  0.02660616  0.90946921  1
  Na  Na14  1  0.31532289  0.28543483  0.91229465  1
  Na  Na15  1  0.97011094  0.28543483  0.41229465  1
  Na  Na16  1  0.32093217  0.02660616  0.40946921  1
  Na  Na17  1  0.70830178  0.68886022  0.41653552  1
  Na  Na18  1  0.99209670  0.99527771  0.49247035  1
  Na  Na19  1  0.00318102  0.99527771  0.99247035  1
  Na  Na20  1  0.66339813  0.32484249  0.82594273  1
  Na  Na21  1  0.66144536  0.32484249  0.32594273  1
  Na  Na22  1  0.32654779  0.66788020  0.15964881  1
  Na  Na23  1  0.34133140  0.66788020  0.65964881  1
  Hf  Hf0  1  0.99320840  0.99565918  0.64858672  1
  Hf  Hf1  1  0.00245078  0.99565918  0.14858672  1
  Hf  Hf2  1  0.66681458  0.33433013  0.98216881  1
  Hf  Hf3  1  0.66751655  0.33433013  0.48216881  1
  Hf  Hf4  1  0.33660980  0.67462911  0.31558948  1
  Hf  Hf5  1  0.33801831  0.67462911  0.81558948  1
  Zn  Zn0  1  0.99981654  0.00058812  0.34598108  1
  Zn  Zn1  1  0.00077157  0.00058812  0.84598108  1
  Zn  Zn2  1  0.66448533  0.32952699  0.67963675  1
  Zn  Zn3  1  0.66504265  0.32952699  0.17963675  1
  Zn  Zn4  1  0.32083761  0.66989009  0.01286838  1
  Zn  Zn5  1  0.34905148  0.66989009  0.51286838  1
  Si  Si0  1  0.29888704  0.00324494  0.25290438  1
  Si  Si1  1  0.70435790  0.00324494  0.75290438  1
  Si  Si2  1  0.66570783  0.62737900  0.58619680  1
  Si  Si3  1  0.96167217  0.62737900  0.08619680  1
  Si  Si4  1  0.33070532  0.96691813  0.91825848  1
  Si  Si5  1  0.63621181  0.96691813  0.41825848  1
  P  P0  1  0.70361508  0.70489433  0.25249847  1
  P  P1  1  0.00221738  0.29560262  0.25169913  1
  P  P2  1  0.29338524  0.29560262  0.75169913  1
  P  P3  1  0.00127926  0.70489433  0.75249847  1
  P  P4  1  0.96324215  0.33400036  0.58522105  1
  P  P5  1  0.36945229  0.03806446  0.58552523  1
  P  P6  1  0.66861317  0.03806446  0.08552523  1
  P  P7  1  0.37075921  0.33400036  0.08522105  1
  P  P8  1  0.62413149  0.66371463  0.91986466  1
  P  P9  1  0.03874711  0.37254589  0.91897777  1
  P  P10  1  0.33379778  0.37254589  0.41897777  1
  P  P11  1  0.03958213  0.66371463  0.41986466  1
  O  O0  1  0.21521528  0.03265432  0.31188677  1
  O  O1  1  0.80867331  0.78524914  0.30833526  1
  O  O2  1  0.97514072  0.18936810  0.30813537  1
  O  O3  1  0.21422738  0.18936810  0.80813537  1
  O  O4  1  0.97657583  0.78524914  0.80833526  1
  O  O5  1  0.81743904  0.03265432  0.81188677  1
  O  O6  1  0.79681784  0.97116028  0.69388743  1
  O  O7  1  0.18081508  0.20736011  0.69530611  1
  O  O8  1  0.03242102  0.82144786  0.69589412  1
  O  O9  1  0.78902684  0.82144786  0.19589412  1
  O  O10  1  0.02654503  0.20736011  0.19530611  1
  O  O11  1  0.17434245  0.97116028  0.19388743  1
  O  O12  1  0.88316034  0.35782824  0.64165726  1
  O  O13  1  0.47650131  0.11419811  0.64147231  1
  O  O14  1  0.63900869  0.51438967  0.64519193  1
  O  O15  1  0.87538198  0.51438967  0.14519193  1
  O  O16  1  0.63769780  0.11419811  0.14147231  1
  O  O17  1  0.47466890  0.35782824  0.14165726  1
  O  O18  1  0.45675546  0.30239729  0.02933504  1
  O  O19  1  0.84006509  0.53738601  0.02654121  1
  O  O20  1  0.69313255  0.15334499  0.02914140  1
  O  O21  1  0.46021343  0.15334499  0.52914140  1
  O  O22  1  0.69732191  0.53738601  0.52654121  1
  O  O23  1  0.84564283  0.30239729  0.52933504  1
  O  O24  1  0.54039070  0.68535874  0.97565875  1
  O  O25  1  0.14562458  0.45087110  0.97483582  1
  O  O26  1  0.29923810  0.85488703  0.97788393  1
  O  O27  1  0.55564793  0.85488703  0.47788393  1
  O  O28  1  0.30524552  0.45087110  0.47483582  1
  O  O29  1  0.14496704  0.68535874  0.47565875  1
  O  O30  1  0.12587137  0.63622392  0.36308038  1
  O  O31  1  0.50891218  0.87241677  0.35986701  1
  O  O32  1  0.36052799  0.48586905  0.36223005  1
  O  O33  1  0.12534006  0.48586905  0.86223005  1
  O  O34  1  0.36350359  0.87241677  0.85986701  1
  O  O35  1  0.51035154  0.63622392  0.86308038  1
  O  O36  1  0.01455585  0.81645157  0.41328880  1
  O  O37  1  0.82437044  0.99044107  0.41108784  1
  O  O38  1  0.18291712  0.19413656  0.41382500  1
  O  O39  1  0.01121944  0.19413656  0.91382500  1
  O  O40  1  0.16607062  0.99044107  0.91108784  1
  O  O41  1  0.80189572  0.81645157  0.91328880  1
  O  O42  1  0.97982608  0.17107266  0.58870745  1
  O  O43  1  0.19561110  0.03384828  0.58849761  1
  O  O44  1  0.84328826  0.81578021  0.58828651  1
  O  O45  1  0.97249195  0.81578021  0.08828651  1
  O  O46  1  0.83823718  0.03384828  0.08849761  1
  O  O47  1  0.19124658  0.17107266  0.08870745  1
  O  O48  1  0.67692571  0.16473706  0.74561402  1
  O  O49  1  0.47256828  0.32139462  0.74641467  1
  O  O50  1  0.84807943  0.52832567  0.74616971  1
  O  O51  1  0.68024724  0.52832567  0.24616971  1
  O  O52  1  0.84882734  0.32139462  0.24641467  1
  O  O53  1  0.48781234  0.16473706  0.24561402  1
  O  O54  1  0.63693781  0.49868644  0.92216998  1
  O  O55  1  0.86160886  0.36358220  0.92249288  1
  O  O56  1  0.50719996  0.15334029  0.92099048  1
  O  O57  1  0.64614132  0.15334029  0.42099048  1
  O  O58  1  0.50197434  0.36358220  0.42249288  1
  O  O59  1  0.86174963  0.49868644  0.42216998  1
  O  O60  1  0.34976878  0.48868961  0.07731355  1
  O  O61  1  0.15059828  0.65154956  0.08165361  1
  O  O62  1  0.52023763  0.85857513  0.07893866  1
  O  O63  1  0.33833650  0.85857513  0.57893866  1
  O  O64  1  0.50095028  0.65154956  0.58165361  1
  O  O65  1  0.13891982  0.48868961  0.57731355  1
  O  O66  1  0.30668646  0.82460853  0.25478398  1
  O  O67  1  0.52425949  0.69002669  0.25549532  1
  O  O68  1  0.16937178  0.47107208  0.25503559  1
  O  O69  1  0.30169929  0.47107208  0.75503559  1
  O  O70  1  0.16576620  0.69002669  0.75549532  1
  O  O71  1  0.51792107  0.82460853  0.75478398  1
loop_
_geom_bond_atom_site_label_1
_geom_bond_atom_site_label_2
_geom_bond_distance
_geom_bond_site_symmetry_2
Na0 O53 2.349306 1_555
Na0 O52 2.471152 1_555
Na0 O16 2.515903 1_555
Na0 O66 2.643885 1_545
Na0 O67 2.659652 1_545
Na0 O31 2.797439 1_545
Na1 O53 2.426615 1_555
Na1 O51 2.436438 1_555
Na1 O17 2.543378 1_555
Na1 O68 2.583471 1_555
Na1 O67 2.689088 1_555
Na1 O32 2.848154 1_555
Na1 O0 2.909836 1_555
Na1 O10 3.007877 1_555
Na2 O15 2.395961 1_555
Na2 O52 2.425424 1_555
Na2 O51 2.474726 1_555
Na2 O66 2.583134 1_655
Na2 O68 2.691131 1_655
Na2 O11 2.949857 1_655
Na2 O30 2.961357 1_655
Na3 O14 2.395962 1_555
Na3 O49 2.425423 1_555
Na3 O50 2.474735 1_555
Na3 O71 2.583141 1_555
Na3 O69 2.691139 1_555
Na3 O6 2.949857 1_555
Na3 O35 2.961361 1_555
Na4 O48 2.426608 1_555
Na4 O50 2.436430 1_555
Na4 O12 2.543374 1_555
Na4 O69 2.583462 1_655
Na4 O70 2.689088 1_655
Na4 O33 2.848151 1_655
Na4 O5 2.909836 1_555
Na4 O7 3.007877 1_655
Na5 O48 2.349314 1_555
Na5 O49 2.471150 1_555
Na5 O13 2.515905 1_555
Na5 O71 2.643877 1_545
Na5 O70 2.659654 1_545
Na5 O34 2.797437 1_545
Na6 O64 2.398750 1_555
Na6 O65 2.453980 1_555
Na6 O28 2.553066 1_555
Na6 O43 2.578507 1_555
Na6 O42 2.645783 1_455
Na6 O7 2.824517 1_555
Na7 O63 2.394096 1_555
Na7 O65 2.459148 1_555
Na7 O29 2.509540 1_555
Na7 O44 2.547867 1_455
Na7 O43 2.741262 1_565
Na7 O8 2.889447 1_555
Na7 O22 2.936382 1_455
Na7 O12 2.993643 1_455
Na8 O64 2.368938 1_555
Na8 O27 2.390014 1_555
Na8 O63 2.509519 1_555
Na8 O44 2.635316 1_555
Na8 O42 2.701856 1_565
Na8 O6 2.886625 1_555
Na9 O61 2.368939 1_555
Na9 O26 2.390011 1_554
Na9 O62 2.509501 1_555
Na9 O45 2.635325 1_455
Na9 O47 2.701863 1_565
Na9 O11 2.886629 1_555
Na10 O62 2.394111 1_555
Na10 O60 2.459162 1_555
Na10 O24 2.509548 1_554
Na10 O45 2.547858 1_555
Na10 O46 2.741261 1_565
Na10 O9 2.889445 1_555
Na10 O19 2.936382 1_555
Na10 O17 2.993643 1_555
Na11 O61 2.398753 1_555
Na11 O60 2.453964 1_555
Na11 O25 2.553062 1_554
Na11 O46 2.578508 1_455
Na11 O47 2.645776 1_555
Na11 O10 2.824515 1_555
Na12 O40 2.423806 1_655
Na12 O41 2.436631 1_555
Na12 O4 2.567993 1_555
Na12 O55 2.622397 1_555
Na12 O54 2.730351 1_555
Na12 O19 2.785464 1_556
Na12 O26 2.877084 1_655
Na13 O5 2.390187 1_555
Na13 O39 2.427278 1_655
Na13 O41 2.486487 1_545
Na13 O56 2.608604 1_555
Na13 O55 2.703369 1_555
Na13 O34 2.934343 1_545
Na13 O20 2.941830 1_556
Na14 O40 2.348978 1_545
Na14 O39 2.469522 1_555
Na14 O3 2.497191 1_555
Na14 O56 2.585846 1_555
Na14 O54 2.605968 1_555
Na14 O18 2.880567 1_556
Na14 O35 2.996684 1_555
Na14 O25 3.003443 1_555
Na15 O37 2.348978 1_545
Na15 O38 2.469531 1_655
Na15 O2 2.497193 1_555
Na15 O57 2.585829 1_555
Na15 O59 2.605954 1_555
Na15 O23 2.880559 1_555
Na15 O30 2.996684 1_655
Na15 O28 3.003443 1_655
Na16 O0 2.390183 1_555
Na16 O38 2.427270 1_555
Na16 O36 2.486480 1_545
Na16 O57 2.608621 1_555
Na16 O58 2.703369 1_555
Na16 O31 2.934343 1_545
Na16 O21 2.941834 1_555
Na17 O37 2.423805 1_555
Na17 O36 2.436639 1_655
Na17 O1 2.567995 1_555
Na17 O58 2.622394 1_555
Na17 O59 2.730366 1_555
Na17 O22 2.785467 1_555
Na17 O27 2.877084 1_555
Na18 O37 2.359797 1_555
Na18 O38 2.494862 1_665
Na18 O36 2.495289 1_655
Na18 O44 2.614682 1_555
Na18 O42 2.728562 1_565
Na18 O43 2.740947 1_665
Na19 O40 2.359796 1_555
Na19 O39 2.494862 1_565
Na19 O41 2.495289 1_455
Na19 O45 2.614682 1_456
Na19 O47 2.728562 1_566
Na19 O46 2.740947 1_466
Na20 O48 2.365957 1_555
Na20 O49 2.474400 1_555
Na20 O50 2.511225 1_555
Na20 O56 2.590683 1_555
Na20 O55 2.720405 1_555
Na20 O54 2.763253 1_555
Na21 O53 2.365957 1_555
Na21 O52 2.474400 1_555
Na21 O51 2.511225 1_555
Na21 O57 2.590683 1_555
Na21 O58 2.720405 1_555
Na21 O59 2.763253 1_555
Na22 O61 2.321119 1_555
Na22 O62 2.509348 1_555
Na22 O60 2.550903 1_555
Na22 O66 2.626815 1_555
Na22 O68 2.683462 1_555
Na22 O67 2.738970 1_555
Na23 O64 2.321119 1_555
Na23 O63 2.509347 1_555
Na23 O65 2.550903 1_555
Na23 O71 2.626815 1_555
Na23 O69 2.683462 1_555
Na23 O70 2.738970 1_555
Hf0 O6 1.969867 1_555
Hf0 O44 2.046787 1_555
Hf0 O8 2.083095 1_655
Hf0 O7 2.124164 1_665
Hf0 O42 2.132935 1_565
Hf0 O43 2.163142 1_665
Hf1 O11 1.969867 1_555
Hf1 O45 2.046787 1_455
Hf1 O9 2.083095 1_455
Hf1 O10 2.124164 1_565
Hf1 O47 2.132935 1_565
Hf1 O46 2.163142 1_465
Hf2 O19 2.011854 1_556
Hf2 O20 2.069438 1_556
Hf2 O18 2.074895 1_556
Hf2 O56 2.089682 1_555
Hf2 O54 2.124919 1_555
Hf2 O55 2.126727 1_555
Hf3 O22 2.011854 1_555
Hf3 O21 2.069439 1_555
Hf3 O23 2.074895 1_555
Hf3 O57 2.089682 1_555
Hf3 O59 2.124919 1_555
Hf3 O58 2.126727 1_555
Hf4 O31 1.982209 1_555
Hf4 O66 2.037234 1_555
Hf4 O30 2.065455 1_555
Hf4 O32 2.116029 1_555
Hf4 O67 2.122415 1_555
Hf4 O68 2.200433 1_555
Hf5 O34 1.982209 1_555
Hf5 O71 2.037234 1_555
Hf5 O35 2.065455 1_555
Hf5 O33 2.116029 1_555
Hf5 O70 2.122415 1_555
Hf5 O69 2.200433 1_555
O0 Si0 1.610576 1_555
O0 Zn0 1.988149 1_455
O1 P0 1.523719 1_555
O1 Zn0 2.061236 1_565
O2 P1 1.527806 1_655
O2 Zn0 2.032136 1_555
O3 P2 1.527806 1_555
O3 Zn1 2.032136 1_555
O4 P3 1.523720 1_655
O4 Zn1 2.061236 1_665
O5 Si1 1.610576 1_555
O5 Zn1 1.988149 1_655
O6 Si1 1.667801 1_565
O7 P2 1.574224 1_555
O8 P3 1.578708 1_555
O9 P0 1.578708 1_555
O10 P1 1.574224 1_555
O11 Si0 1.667801 1_565
O12 P4 1.525372 1_555
O12 Zn2 2.061821 1_555
O13 P5 1.526775 1_555
O13 Zn2 2.055530 1_555
O14 Si2 1.609367 1_555
O14 Zn2 1.973401 1_555
O15 Si3 1.609367 1_555
O15 Zn3 1.973401 1_555
O16 P6 1.526775 1_555
O16 Zn3 2.055531 1_555
O17 P7 1.525372 1_555
O17 Zn3 2.061821 1_555
O18 P7 1.575783 1_555
O19 Si3 1.669078 1_555
O20 P6 1.578487 1_555
O21 P5 1.578487 1_555
O22 Si2 1.669078 1_555
O23 P4 1.575783 1_555
O24 P8 1.524533 1_555
O24 Zn4 2.107496 1_556
O25 P9 1.527571 1_555
O25 Zn4 2.035732 1_556
O26 Si4 1.609251 1_555
O26 Zn4 1.960109 1_556
O27 Si5 1.609251 1_555
O27 Zn5 1.960109 1_555
O28 P10 1.527571 1_555
O28 Zn5 2.035732 1_555
O29 P11 1.524533 1_555
O29 Zn5 2.107496 1_555
O30 P11 1.577218 1_555
O31 Si5 1.676260 1_555
O32 P10 1.570713 1_555
O33 P9 1.570713 1_555
O34 Si4 1.676260 1_555
O35 P8 1.577218 1_555
O36 P11 1.534326 1_555
O36 Zn0 2.304436 1_465
O37 Si5 1.629244 1_555
O37 Zn0 2.128075 1_565
O38 P10 1.533182 1_555
O38 Zn0 2.306770 1_455
O39 P9 1.533186 1_555
O39 Zn1 2.306770 1_555
O40 Si4 1.629235 1_555
O40 Zn1 2.128075 1_565
O41 P8 1.534332 1_555
O41 Zn1 2.304436 1_665
O42 P4 1.577440 1_555
O43 P5 1.569860 1_555
O44 Si2 1.683093 1_555
O45 Si3 1.683097 1_555
O46 P6 1.569851 1_555
O47 P7 1.577445 1_555
O48 Si1 1.628325 1_555
O48 Zn2 2.144291 1_555
O49 P2 1.536588 1_555
O49 Zn2 2.271161 1_555
O50 P3 1.533214 1_655
O50 Zn2 2.309610 1_555
O51 P0 1.533217 1_555
O51 Zn3 2.309610 1_555
O52 P1 1.536579 1_655
O52 Zn3 2.271161 1_555
O53 Si0 1.628331 1_555
O53 Zn3 2.144291 1_555
O54 P8 1.576450 1_555
O55 P9 1.580072 1_655
O56 Si4 1.669235 1_545
O57 Si5 1.669226 1_545
O58 P10 1.580090 1_555
O59 P11 1.576440 1_655
O60 P7 1.533016 1_555
O60 Zn4 2.301646 1_555
O61 Si3 1.629223 1_455
O61 Zn4 2.128145 1_555
O62 P6 1.534201 1_565
O62 Zn4 2.319978 1_555
O63 P5 1.534195 1_565
O63 Zn5 2.319978 1_555
O64 Si2 1.629241 1_555
O64 Zn5 2.128145 1_555
O65 P4 1.533005 1_455
O65 Zn5 2.301647 1_555
O66 Si0 1.676217 1_565
O67 P0 1.575666 1_555
O68 P1 1.576311 1_555
O69 P2 1.576315 1_555
O70 P3 1.575657 1_555
O71 Si1 1.676222 1_565
