# generated using pymatgen
data_YCI
_symmetry_space_group_name_H-M   'P 1'
_cell_length_a   3.91310858
_cell_length_b   4.13194233
_cell_length_c   10.73015849
_cell_angle_alpha   93.23008119
_cell_angle_beta   90.00000000
_cell_angle_gamma   118.26297481
_symmetry_Int_Tables_number   1
_chemical_formula_structural   YCI
_chemical_formula_sum   'Y2 C2 I2'
_cell_volume   152.49688961
_cell_formula_units_Z   2
loop_
 _symmetry_equiv_pos_site_id
 _symmetry_equiv_pos_as_xyz
  1  'x, y, z'
loop_
 _atom_site_type_symbol
 _atom_site_label
 _atom_site_symmetry_multiplicity
 _atom_site_fract_x
 _atom_site_fract_y
 _atom_site_fract_z
 _atom_site_occupancy
  Y  Y0  1  0.14563218  0.29126436  0.12843593  1
  Y  Y1  1  0.85436782  0.70873564  0.87156407  1
  C  C0  1  0.57622079  0.15243959  0.96932326  1
  C  C1  1  0.42377921  0.84756041  0.03067674  1
  I  I0  1  0.17493855  0.34987510  0.67560379  1
  I  I1  1  0.82506145  0.65012490  0.32439621  1
loop_
_geom_bond_atom_site_label_1
_geom_bond_atom_site_label_2
_geom_bond_distance
_geom_bond_site_symmetry_2
C0 C1 1.325891 1_546
C0 Y1 2.338991 1_555
C0 Y0 2.624476 1_656
C0 Y0 2.624482 1_556
C0 Y1 2.705414 1_545
C0 Y1 2.705420 1_445
C1 Y0 2.338991 1_555
C1 Y1 2.624476 1_454
C1 Y1 2.624482 1_554
C1 Y0 2.705414 1_565
C1 Y0 2.705420 1_665
I0 Y1 3.098984 1_555
I0 Y1 3.098989 1_455
I0 Y1 3.239357 1_445
I1 Y0 3.098984 1_555
I1 Y0 3.098989 1_655
I1 Y0 3.239357 1_665
