# generated using pymatgen
data_LaNi5
_symmetry_space_group_name_H-M   'P 1'
_cell_length_a   4.94644358
_cell_length_b   4.94641166
_cell_length_c   3.94190367
_cell_angle_alpha   90.00000000
_cell_angle_beta   90.00000000
_cell_angle_gamma   120.00062494
_symmetry_Int_Tables_number   1
_chemical_formula_structural   LaNi5
_chemical_formula_sum   'La1 Ni5'
_cell_volume   83.52514157
_cell_formula_units_Z   1
loop_
 _symmetry_equiv_pos_site_id
 _symmetry_equiv_pos_as_xyz
  1  'x, y, z'
loop_
 _atom_site_type_symbol
 _atom_site_label
 _atom_site_symmetry_multiplicity
 _atom_site_fract_x
 _atom_site_fract_y
 _atom_site_fract_z
 _atom_site_occupancy
  La  La0  1  0.00000000  0.00000000  0.00000000  1
  Ni  Ni0  1  0.00000000  0.50000000  0.50000000  1
  Ni  Ni1  1  0.33336173  0.66672745  -0.00000000  1
  Ni  Ni2  1  0.66663827  0.33327255  -0.00000000  1
  Ni  Ni3  1  0.50000000  0.00000000  0.50000000  1
  Ni  Ni4  1  0.50000000  0.50000000  0.50000000  1
loop_
_geom_bond_atom_site_label_1
_geom_bond_atom_site_label_2
_geom_bond_distance
_geom_bond_site_symmetry_2
La0 Ni2 2.855691 1_555
La0 Ni1 2.855691 1_445
La0 Ni2 2.855692 1_455
La0 Ni1 2.855692 1_545
La0 Ni1 2.856054 1_555
La0 Ni2 2.856054 1_445
La0 Ni4 3.162487 1_554
La0 Ni4 3.162487 1_444
La0 Ni4 3.162487 1_445
La0 Ni4 3.162487 1_555
La0 Ni0 3.162499 1_555
La0 Ni0 3.162499 1_544
La0 Ni0 3.162499 1_545
La0 Ni0 3.162499 1_554
La0 Ni3 3.162511 1_555
La0 Ni3 3.162511 1_554
La0 Ni3 3.162511 1_455
La0 Ni3 3.162511 1_454
Ni0 Ni1 2.433909 1_556
Ni0 Ni2 2.433909 1_456
Ni0 Ni2 2.433909 1_455
Ni0 Ni1 2.433909 1_555
Ni0 Ni3 2.473190 1_455
Ni0 Ni3 2.473190 1_565
Ni0 Ni4 2.473222 1_455
Ni0 Ni4 2.473222 1_555
Ni1 Ni3 2.433680 1_564
Ni1 Ni3 2.433680 1_565
Ni1 Ni4 2.433925 1_554
Ni1 Ni4 2.433925 1_555
Ni2 Ni3 2.433680 1_554
Ni2 Ni3 2.433680 1_555
Ni2 Ni4 2.433925 1_554
Ni2 Ni4 2.433925 1_555
Ni3 Ni4 2.473206 1_555
Ni3 Ni4 2.473206 1_545
