# generated using pymatgen
data_Mn3Ir
_symmetry_space_group_name_H-M   'P 1'
_cell_length_a   5.38687095
_cell_length_b   5.46115303
_cell_length_c   4.41361163
_cell_angle_alpha   90.00000000
_cell_angle_beta   90.00000000
_cell_angle_gamma   119.59011570
_symmetry_Int_Tables_number   1
_chemical_formula_structural   Mn3Ir
_chemical_formula_sum   'Mn6 Ir2'
_cell_volume   112.90798040
_cell_formula_units_Z   2
loop_
 _symmetry_equiv_pos_site_id
 _symmetry_equiv_pos_as_xyz
  1  'x, y, z'
loop_
 _atom_site_type_symbol
 _atom_site_label
 _atom_site_symmetry_multiplicity
 _atom_site_fract_x
 _atom_site_fract_y
 _atom_site_fract_z
 _atom_site_occupancy
  Mn  Mn0  1  0.16899287  0.34055723  0.25000000  1
  Mn  Mn1  1  0.66236126  0.83472634  0.25000000  1
  Mn  Mn2  1  0.17674915  0.83604028  0.25000000  1
  Mn  Mn3  1  0.82839097  0.65959071  0.75000000  1
  Mn  Mn4  1  0.33986737  0.16371507  0.75000000  1
  Mn  Mn5  1  0.82691224  0.16531690  0.75000000  1
  Ir  Ir0  1  0.66974015  0.34266987  0.25000000  1
  Ir  Ir1  1  0.32698499  0.65737960  0.75000000  1
loop_
_geom_bond_atom_site_label_1
_geom_bond_atom_site_label_2
_geom_bond_distance
_geom_bond_site_symmetry_2
Mn0 Mn2 2.685523 1_555
Mn0 Mn1 2.695031 1_555
Mn0 Mn5 2.727625 1_455
Mn0 Mn5 2.727625 1_454
Mn0 Mn4 2.743701 1_554
Mn0 Mn4 2.743701 1_555
Mn0 Mn1 2.762933 1_445
Mn0 Mn2 2.776114 1_545
Mn1 Mn2 2.619480 1_555
Mn1 Mn5 2.708273 1_564
Mn1 Mn5 2.708273 1_565
Mn1 Mn3 2.725710 1_555
Mn1 Mn3 2.725710 1_554
Mn1 Mn2 2.767405 1_655
Mn2 Mn4 2.700270 1_564
Mn2 Mn4 2.700270 1_565
Mn2 Mn3 2.744849 1_454
Mn2 Mn3 2.744849 1_455
Mn3 Mn4 2.687169 1_555
Mn3 Mn5 2.695380 1_555
Mn3 Mn5 2.765790 1_565
Mn3 Mn4 2.771225 1_665
Mn4 Mn5 2.619339 1_555
Mn4 Mn5 2.767553 1_455
Ir0 Mn3 2.671161 1_555
Ir0 Mn3 2.671161 1_554
Ir0 Mn0 2.691783 1_555
Ir0 Mn0 2.695126 1_655
Ir0 Mn4 2.695865 1_554
Ir0 Mn4 2.695865 1_555
Ir0 Mn1 2.707044 1_555
Ir0 Mn5 2.708281 1_555
Ir0 Mn5 2.708281 1_554
Ir0 Mn2 2.729699 1_545
Ir0 Mn2 2.729757 1_655
Ir0 Mn1 2.754546 1_545
Ir1 Mn0 2.670900 1_555
Ir1 Mn0 2.670900 1_556
Ir1 Mn3 2.691845 1_455
Ir1 Mn2 2.693838 1_555
Ir1 Mn2 2.693838 1_556
Ir1 Mn3 2.695067 1_555
Ir1 Mn5 2.707186 1_455
Ir1 Mn1 2.709963 1_556
Ir1 Mn1 2.709963 1_555
Ir1 Mn4 2.730911 1_555
Ir1 Mn4 2.731575 1_565
Ir1 Mn5 2.751289 1_565
