# generated using pymatgen
data_GdCuSb2
_symmetry_space_group_name_H-M   'P 1'
_cell_length_a   4.30352829
_cell_length_b   4.30352829
_cell_length_c   9.99834634
_cell_angle_alpha   90.00000000
_cell_angle_beta   90.00000000
_cell_angle_gamma   90.00000000
_symmetry_Int_Tables_number   1
_chemical_formula_structural   GdCuSb2
_chemical_formula_sum   'Gd2 Cu2 Sb4'
_cell_volume   185.17293106
_cell_formula_units_Z   2
loop_
 _symmetry_equiv_pos_site_id
 _symmetry_equiv_pos_as_xyz
  1  'x, y, z'
loop_
 _atom_site_type_symbol
 _atom_site_label
 _atom_site_symmetry_multiplicity
 _atom_site_fract_x
 _atom_site_fract_y
 _atom_site_fract_z
 _atom_site_occupancy
  Gd  Gd0  1  0.75000000  0.75000000  0.75267726  1
  Gd  Gd1  1  0.25000000  0.25000000  0.24732274  1
  Cu  Cu0  1  0.75000000  0.25000000  0.50000000  1
  Cu  Cu1  1  0.25000000  0.75000000  0.50000000  1
  Sb  Sb0  1  0.75000000  0.75000000  0.34540895  1
  Sb  Sb1  1  0.25000000  0.25000000  0.65459105  1
  Sb  Sb2  1  0.75000000  0.25000000  0.00000000  1
  Sb  Sb3  1  0.25000000  0.75000000  0.00000000  1
loop_
_geom_bond_atom_site_label_1
_geom_bond_atom_site_label_2
_geom_bond_distance
_geom_bond_site_symmetry_2
Gd0 Sb1 3.197178 1_555
Gd0 Sb1 3.197178 1_665
Gd0 Sb1 3.197178 1_655
Gd0 Sb1 3.197178 1_565
Gd0 Sb3 3.277944 1_656
Gd0 Sb2 3.277944 1_566
Gd0 Sb2 3.277944 1_556
Gd0 Sb3 3.277944 1_556
Gd1 Sb0 3.197178 1_455
Gd1 Sb0 3.197178 1_555
Gd1 Sb0 3.197178 1_545
Gd1 Sb0 3.197178 1_445
Gd1 Sb2 3.277944 1_555
Gd1 Sb3 3.277944 1_545
Gd1 Sb3 3.277944 1_555
Gd1 Sb2 3.277944 1_455
Cu0 Sb0 2.649366 1_555
Cu0 Sb0 2.649366 1_545
Cu0 Sb1 2.649366 1_655
Cu0 Sb1 2.649366 1_555
Cu0 Cu1 3.043054 1_555
Cu0 Cu1 3.043054 1_545
Cu0 Cu1 3.043054 1_645
Cu0 Cu1 3.043054 1_655
Cu0 Gd0 3.318517 1_555
Cu0 Gd0 3.318517 1_545
Cu0 Gd1 3.318517 1_655
Cu0 Gd1 3.318517 1_555
Cu1 Sb0 2.649366 1_455
Cu1 Sb0 2.649366 1_555
Cu1 Sb1 2.649366 1_565
Cu1 Sb1 2.649366 1_555
Cu1 Gd1 3.318517 1_555
Cu1 Gd0 3.318517 1_555
Cu1 Gd1 3.318517 1_565
Cu1 Gd0 3.318517 1_455
Sb2 Sb3 3.043054 1_645
Sb2 Sb3 3.043054 1_545
Sb2 Sb3 3.043054 1_555
Sb2 Sb3 3.043054 1_655
