# generated using pymatgen
data_Y2MgBi2O7
_symmetry_space_group_name_H-M   'P 1'
_cell_length_a   6.05553434
_cell_length_b   6.05553434
_cell_length_c   6.50626691
_cell_angle_alpha   86.91122019
_cell_angle_beta   93.08877981
_cell_angle_gamma   72.33056731
_symmetry_Int_Tables_number   1
_chemical_formula_structural   Y2MgBi2O7
_chemical_formula_sum   'Y2 Mg1 Bi2 O7'
_cell_volume   226.37645822
_cell_formula_units_Z   1
loop_
 _symmetry_equiv_pos_site_id
 _symmetry_equiv_pos_as_xyz
  1  'x, y, z'
loop_
 _atom_site_type_symbol
 _atom_site_label
 _atom_site_symmetry_multiplicity
 _atom_site_fract_x
 _atom_site_fract_y
 _atom_site_fract_z
 _atom_site_occupancy
  Y  Y0  1  0.68209600  0.67600400  0.99817500  1
  Y  Y1  1  0.32399600  0.31790400  0.99817500  1
  Mg  Mg0  1  0.14422200  0.85577800  0.88271600  1
  Bi  Bi0  1  0.26278300  0.73721700  0.37031300  1
  Bi  Bi1  1  0.73600100  0.26399900  0.62433400  1
  O  O0  1  0.04264500  0.67050100  0.11983700  1
  O  O1  1  0.32949900  0.95735500  0.11983700  1
  O  O2  1  0.41178200  0.58821800  0.79569700  1
  O  O3  1  0.03008600  0.96991400  0.59656800  1
  O  O4  1  0.54600200  0.45399800  0.22070400  1
  O  O5  1  0.94710400  0.38329800  0.84515600  1
  O  O6  1  0.61670200  0.05289600  0.84515600  1
loop_
_geom_bond_atom_site_label_1
_geom_bond_atom_site_label_2
_geom_bond_distance
_geom_bond_site_symmetry_2
Mg0 O3 1.963211 1_555
Mg0 O2 2.043259 1_555
Mg0 O1 2.086130 1_556
Mg0 O0 2.086130 1_556
Bi0 O1 2.181701 1_555
Bi0 O0 2.181701 1_555
Bi0 O3 2.319461 1_555
Bi0 O4 2.324757 1_555
Bi1 O3 2.125929 1_645
Bi1 O5 2.166741 1_555
Bi1 O6 2.166741 1_555
Bi1 O2 2.661610 1_555
Bi1 O4 2.844157 1_555
O0 Y0 2.271850 1_454
O0 Y1 2.491461 1_554
O1 Y1 2.271850 1_564
O1 Y0 2.491461 1_554
O2 Y1 2.251401 1_555
O2 Y0 2.251401 1_555
O4 Y1 2.274666 1_554
O4 Y0 2.274666 1_554
O5 Y0 2.311670 1_555
O5 Y1 2.349643 1_655
O6 Y1 2.311670 1_555
O6 Y0 2.349643 1_545
