# generated using pymatgen
data_Na12Mg4Nb2Si3(PO6)6
_symmetry_space_group_name_H-M   'P 1'
_cell_length_a   9.07446138
_cell_length_b   9.07446107
_cell_length_c   22.07740284
_cell_angle_alpha   90.00000000
_cell_angle_beta   90.00000000
_cell_angle_gamma   120.00000114
_symmetry_Int_Tables_number   1
_chemical_formula_structural   Na12Mg4Nb2Si3(PO6)6
_chemical_formula_sum   'Na24 Mg8 Nb4 Si6 P12 O72'
_cell_volume   1574.41894599
_cell_formula_units_Z   2
loop_
 _symmetry_equiv_pos_site_id
 _symmetry_equiv_pos_as_xyz
  1  'x, y, z'
loop_
 _atom_site_type_symbol
 _atom_site_label
 _atom_site_symmetry_multiplicity
 _atom_site_fract_x
 _atom_site_fract_y
 _atom_site_fract_z
 _atom_site_occupancy
  Na  Na0  1  0.64524166  0.00991488  0.24518683  1
  Na  Na1  1  0.36467321  0.35475834  0.24518683  1
  Na  Na2  1  0.99008512  0.63532679  0.24518683  1
  Na  Na3  1  0.64524166  0.63532679  0.74518683  1
  Na  Na4  1  0.99008512  0.35475834  0.74518683  1
  Na  Na5  1  0.36467321  0.00991488  0.74518683  1
  Na  Na6  1  0.29412008  0.33611501  0.58161419  1
  Na  Na7  1  0.04199594  0.70587992  0.58161419  1
  Na  Na8  1  0.66388499  0.95800406  0.58161419  1
  Na  Na9  1  0.29412008  0.95800406  0.08161419  1
  Na  Na10  1  0.66388499  0.70587992  0.08161419  1
  Na  Na11  1  0.04199594  0.33611501  0.08161419  1
  Na  Na12  1  0.97722444  0.68727292  0.91457978  1
  Na  Na13  1  0.71004748  0.02277556  0.91457978  1
  Na  Na14  1  0.31272708  0.28995252  0.91457978  1
  Na  Na15  1  0.97722444  0.28995252  0.41457978  1
  Na  Na16  1  0.31272708  0.02277556  0.41457978  1
  Na  Na17  1  0.71004748  0.68727292  0.41457978  1
  Na  Na18  1  -0.00000000  -0.00000000  0.49556433  1
  Na  Na19  1  -0.00000000  -0.00000000  0.99556433  1
  Na  Na20  1  0.66666700  0.33333300  0.82789315  1
  Na  Na21  1  0.66666700  0.33333300  0.32789315  1
  Na  Na22  1  0.33333300  0.66666700  0.16085739  1
  Na  Na23  1  0.33333300  0.66666700  0.66085739  1
  Mg  Mg0  1  -0.00000000  -0.00000000  0.35106213  1
  Mg  Mg1  1  -0.00000000  -0.00000000  0.85106213  1
  Mg  Mg2  1  -0.00000000  -0.00000000  0.64935625  1
  Mg  Mg3  1  -0.00000000  -0.00000000  0.14935625  1
  Mg  Mg4  1  0.66666700  0.33333300  0.68334267  1
  Mg  Mg5  1  0.66666700  0.33333300  0.18334267  1
  Mg  Mg6  1  0.33333300  0.66666700  0.01693413  1
  Mg  Mg7  1  0.33333300  0.66666700  0.51693413  1
  Nb  Nb0  1  0.66666700  0.33333300  0.97897404  1
  Nb  Nb1  1  0.66666700  0.33333300  0.47897404  1
  Nb  Nb2  1  0.33333300  0.66666700  0.31750247  1
  Nb  Nb3  1  0.33333300  0.66666700  0.81750247  1
  Si  Si0  1  0.62937638  0.67037212  0.92093406  1
  Si  Si1  1  0.04099475  0.37062362  0.92093406  1
  Si  Si2  1  0.32962788  0.95900525  0.92093406  1
  Si  Si3  1  0.62937638  0.95900525  0.42093406  1
  Si  Si4  1  0.32962788  0.37062362  0.42093406  1
  Si  Si5  1  0.04099475  0.67037212  0.42093406  1
  P  P0  1  0.29453793  0.99891179  0.24962333  1
  P  P1  1  0.70437387  0.70546207  0.24962333  1
  P  P2  1  0.00108821  0.29562613  0.24962333  1
  P  P3  1  0.29453793  0.29562613  0.74962333  1
  P  P4  1  0.00108821  0.70546207  0.74962333  1
  P  P5  1  0.70437387  0.99891179  0.74962333  1
  P  P6  1  0.96064512  0.33371773  0.58608478  1
  P  P7  1  0.37307360  0.03935488  0.58608478  1
  P  P8  1  0.66628227  0.62692640  0.58608478  1
  P  P9  1  0.96064512  0.62692640  0.08608478  1
  P  P10  1  0.66628227  0.03935488  0.08608478  1
  P  P11  1  0.37307360  0.33371773  0.08608478  1
  O  O0  1  0.21241878  0.02255734  0.30631418  1
  O  O1  1  0.81013856  0.78758122  0.30631418  1
  O  O2  1  0.97744266  0.18986144  0.30631418  1
  O  O3  1  0.21241878  0.18986144  0.80631418  1
  O  O4  1  0.97744266  0.78758122  0.80631418  1
  O  O5  1  0.81013856  0.02255734  0.80631418  1
  O  O6  1  0.78059800  0.96526605  0.69270290  1
  O  O7  1  0.18466805  0.21940200  0.69270290  1
  O  O8  1  0.03473395  0.81533195  0.69270290  1
  O  O9  1  0.78059800  0.81533195  0.19270290  1
  O  O10  1  0.03473395  0.21940200  0.19270290  1
  O  O11  1  0.18466805  0.96526605  0.19270290  1
  O  O12  1  0.87405892  0.35574852  0.64170982  1
  O  O13  1  0.48169059  0.12594108  0.64170982  1
  O  O14  1  0.64425148  0.51830941  0.64170982  1
  O  O15  1  0.87405892  0.51830941  0.14170982  1
  O  O16  1  0.64425148  0.12594108  0.14170982  1
  O  O17  1  0.48169059  0.35574852  0.14170982  1
  O  O18  1  0.47164478  0.31519327  0.02864445  1
  O  O19  1  0.84354949  0.52835522  0.02864445  1
  O  O20  1  0.68480673  0.15645051  0.02864445  1
  O  O21  1  0.47164478  0.15645051  0.52864445  1
  O  O22  1  0.68480673  0.52835522  0.52864445  1
  O  O23  1  0.84354949  0.31519327  0.52864445  1
  O  O24  1  0.54602957  0.70053242  0.97906132  1
  O  O25  1  0.15450185  0.45397043  0.97906132  1
  O  O26  1  0.29946758  0.84549815  0.97906132  1
  O  O27  1  0.54602957  0.84549815  0.47906132  1
  O  O28  1  0.29946758  0.45397043  0.47906132  1
  O  O29  1  0.15450185  0.70053242  0.47906132  1
  O  O30  1  0.13384210  0.63214331  0.36047628  1
  O  O31  1  0.49830021  0.86615790  0.36047628  1
  O  O32  1  0.36785669  0.50169979  0.36047628  1
  O  O33  1  0.13384210  0.50169979  0.86047628  1
  O  O34  1  0.36785669  0.86615790  0.86047628  1
  O  O35  1  0.49830021  0.63214331  0.86047628  1
  O  O36  1  0.00888184  0.82547489  0.40940212  1
  O  O37  1  0.81659305  0.99111816  0.40940212  1
  O  O38  1  0.17452511  0.18340695  0.40940212  1
  O  O39  1  0.00888184  0.18340695  0.90940212  1
  O  O40  1  0.17452511  0.99111816  0.90940212  1
  O  O41  1  0.81659305  0.82547489  0.90940212  1
  O  O42  1  0.97020148  0.16853428  0.58542160  1
  O  O43  1  0.19833280  0.02979852  0.58542160  1
  O  O44  1  0.83146572  0.80166720  0.58542160  1
  O  O45  1  0.97020148  0.80166720  0.08542160  1
  O  O46  1  0.83146572  0.02979852  0.08542160  1
  O  O47  1  0.19833280  0.16853428  0.08542160  1
  O  O48  1  0.67655803  0.15390031  0.74522145  1
  O  O49  1  0.47734327  0.32344197  0.74522145  1
  O  O50  1  0.84609969  0.52265673  0.74522145  1
  O  O51  1  0.67655803  0.52265673  0.24522145  1
  O  O52  1  0.84609969  0.32344197  0.24522145  1
  O  O53  1  0.47734327  0.15390031  0.24522145  1
  O  O54  1  0.63575289  0.48872904  0.92302247  1
  O  O55  1  0.85297716  0.36424711  0.92302247  1
  O  O56  1  0.51127096  0.14702284  0.92302247  1
  O  O57  1  0.63575289  0.14702284  0.42302247  1
  O  O58  1  0.51127096  0.36424711  0.42302247  1
  O  O59  1  0.85297716  0.48872904  0.42302247  1
  O  O60  1  0.35562804  0.49327976  0.08079408  1
  O  O61  1  0.13765072  0.64437196  0.08079408  1
  O  O62  1  0.50672024  0.86234928  0.08079408  1
  O  O63  1  0.35562804  0.86234928  0.58079408  1
  O  O64  1  0.50672024  0.64437196  0.58079408  1
  O  O65  1  0.13765072  0.49327976  0.58079408  1
  O  O66  1  0.31290180  0.83265930  0.25537748  1
  O  O67  1  0.51975650  0.68709820  0.25537748  1
  O  O68  1  0.16734070  0.48024350  0.25537748  1
  O  O69  1  0.31290180  0.48024350  0.75537748  1
  O  O70  1  0.16734070  0.68709820  0.75537748  1
  O  O71  1  0.51975650  0.83265930  0.75537748  1
loop_
_geom_bond_atom_site_label_1
_geom_bond_atom_site_label_2
_geom_bond_distance
_geom_bond_site_symmetry_2
Na0 O53 2.453406 1_555
Na0 O52 2.496199 1_555
Na0 O16 2.517349 1_555
Na0 O67 2.567658 1_545
Na0 O66 2.623366 1_545
Na0 O9 2.852708 1_545
Na0 O31 2.866846 1_545
Na0 O2 2.941537 1_555
Na1 O51 2.453414 1_555
Na1 O53 2.496206 1_555
Na1 O17 2.517352 1_555
Na1 O68 2.567666 1_555
Na1 O67 2.623366 1_555
Na1 O10 2.852708 1_555
Na1 O32 2.866848 1_555
Na1 O0 2.941537 1_555
Na2 O52 2.453414 1_555
Na2 O51 2.496197 1_555
Na2 O15 2.517351 1_555
Na2 O66 2.567659 1_655
Na2 O68 2.623358 1_655
Na2 O11 2.852708 1_655
Na2 O30 2.866844 1_655
Na2 O1 2.941537 1_555
Na3 O49 2.453414 1_555
Na3 O50 2.496206 1_555
Na3 O14 2.517352 1_555
Na3 O71 2.567666 1_555
Na3 O69 2.623366 1_555
Na3 O6 2.852708 1_555
Na3 O35 2.866848 1_555
Na3 O4 2.941537 1_555
Na4 O50 2.453406 1_555
Na4 O48 2.496199 1_555
Na4 O12 2.517349 1_555
Na4 O69 2.567658 1_655
Na4 O70 2.623366 1_655
Na4 O7 2.852708 1_655
Na4 O33 2.866846 1_655
Na4 O5 2.941537 1_555
Na5 O48 2.453414 1_555
Na5 O49 2.496197 1_555
Na5 O13 2.517351 1_555
Na5 O70 2.567659 1_545
Na5 O71 2.623358 1_545
Na5 O8 2.852708 1_545
Na5 O34 2.866844 1_545
Na5 O3 2.941537 1_555
Na6 O43 2.464340 1_555
Na6 O65 2.464829 1_555
Na6 O64 2.479997 1_555
Na6 O28 2.494070 1_555
Na6 O42 2.547482 1_455
Na6 O7 2.659186 1_555
Na7 O44 2.464349 1_455
Na7 O63 2.464813 1_555
Na7 O65 2.479983 1_555
Na7 O29 2.494063 1_555
Na7 O43 2.547482 1_565
Na7 O8 2.659188 1_555
Na8 O42 2.464342 1_565
Na8 O64 2.464813 1_555
Na8 O63 2.480001 1_555
Na8 O27 2.494067 1_555
Na8 O44 2.547474 1_555
Na8 O6 2.659184 1_555
Na9 O47 2.464349 1_565
Na9 O61 2.464813 1_555
Na9 O62 2.479984 1_555
Na9 O26 2.494063 1_554
Na9 O45 2.547482 1_455
Na9 O11 2.659188 1_555
Na10 O45 2.464340 1_555
Na10 O62 2.464829 1_555
Na10 O60 2.479997 1_555
Na10 O24 2.494070 1_554
Na10 O46 2.547482 1_565
Na10 O9 2.659186 1_555
Na11 O46 2.464342 1_455
Na11 O60 2.464814 1_555
Na11 O61 2.480001 1_555
Na11 O25 2.494067 1_554
Na11 O47 2.547474 1_555
Na11 O10 2.659184 1_555
Na12 O41 2.353428 1_555
Na12 O40 2.425773 1_655
Na12 O4 2.557325 1_555
Na12 O55 2.567766 1_555
Na12 O54 2.701803 1_555
Na12 O19 2.853657 1_556
Na12 O26 2.905240 1_655
Na12 O33 2.945453 1_655
Na13 O39 2.353435 1_655
Na13 O41 2.425780 1_545
Na13 O5 2.557328 1_555
Na13 O56 2.567749 1_555
Na13 O55 2.701801 1_555
Na13 O20 2.853652 1_556
Na13 O24 2.905240 1_545
Na13 O34 2.945453 1_545
Na14 O40 2.353436 1_545
Na14 O39 2.425772 1_555
Na14 O3 2.557327 1_555
Na14 O54 2.567764 1_555
Na14 O56 2.701818 1_555
Na14 O18 2.853661 1_556
Na14 O25 2.905240 1_555
Na14 O35 2.945453 1_555
Na15 O37 2.353435 1_545
Na15 O38 2.425780 1_655
Na15 O2 2.557328 1_555
Na15 O59 2.567749 1_555
Na15 O57 2.701801 1_555
Na15 O23 2.853652 1_555
Na15 O28 2.905240 1_655
Na15 O30 2.945453 1_655
Na16 O38 2.353428 1_555
Na16 O36 2.425773 1_545
Na16 O0 2.557325 1_555
Na16 O57 2.567766 1_555
Na16 O58 2.701803 1_555
Na16 O21 2.853657 1_555
Na16 O29 2.905240 1_545
Na16 O31 2.945453 1_545
Na17 O36 2.353436 1_655
Na17 O37 2.425772 1_555
Na17 O1 2.557327 1_555
Na17 O58 2.567764 1_555
Na17 O59 2.701818 1_555
Na17 O22 2.853661 1_555
Na17 O27 2.905240 1_555
Na17 O32 2.945453 1_555
Na18 O38 2.502164 1_555
Na18 O36 2.502164 1_545
Na18 O37 2.502164 1_445
Na18 O44 2.600216 1_445
Na18 O42 2.600216 1_455
Na18 O43 2.600216 1_555
Na19 O39 2.502164 1_555
Na19 O41 2.502164 1_445
Na19 O40 2.502164 1_545
Na19 O45 2.600216 1_446
Na19 O47 2.600216 1_556
Na19 O46 2.600216 1_456
Na20 O48 2.477233 1_555
Na20 O50 2.477233 1_555
Na20 O49 2.477233 1_555
Na20 O54 2.621762 1_555
Na20 O56 2.621762 1_555
Na20 O55 2.621762 1_555
Na21 O53 2.477233 1_555
Na21 O52 2.477233 1_555
Na21 O51 2.477233 1_555
Na21 O58 2.621762 1_555
Na21 O59 2.621762 1_555
Na21 O57 2.621762 1_555
Na22 O62 2.441148 1_555
Na22 O60 2.441148 1_555
Na22 O61 2.441148 1_555
Na22 O68 2.633840 1_555
Na22 O66 2.633840 1_555
Na22 O67 2.633840 1_555
Na23 O63 2.441148 1_555
Na23 O65 2.441148 1_555
Na23 O64 2.441148 1_555
Na23 O69 2.633840 1_555
Na23 O71 2.633840 1_555
Na23 O70 2.633840 1_555
Mg0 O38 2.073945 1_555
Mg0 O36 2.073945 1_545
Mg0 O37 2.073945 1_445
Mg0 O1 2.083003 1_445
Mg0 O2 2.083003 1_455
Mg0 O0 2.083003 1_555
Mg1 O39 2.073945 1_555
Mg1 O41 2.073945 1_445
Mg1 O40 2.073945 1_545
Mg1 O4 2.083003 1_445
Mg1 O3 2.083003 1_555
Mg1 O5 2.083003 1_455
Mg2 O7 2.086032 1_555
Mg2 O8 2.086032 1_545
Mg2 O6 2.086032 1_445
Mg2 O44 2.194986 1_445
Mg2 O42 2.194986 1_455
Mg2 O43 2.194986 1_555
Mg3 O10 2.086032 1_555
Mg3 O9 2.086032 1_445
Mg3 O11 2.086032 1_545
Mg3 O45 2.194986 1_445
Mg3 O47 2.194986 1_555
Mg3 O46 2.194986 1_455
Mg4 O13 2.011269 1_555
Mg4 O12 2.011269 1_555
Mg4 O14 2.011269 1_555
Mg4 O48 2.161413 1_555
Mg4 O50 2.161413 1_555
Mg4 O49 2.161413 1_555
Mg5 O16 2.011269 1_555
Mg5 O15 2.011269 1_555
Mg5 O17 2.011270 1_555
Mg5 O53 2.161413 1_555
Mg5 O52 2.161413 1_555
Mg5 O51 2.161413 1_555
Mg6 O25 1.981345 1_554
Mg6 O26 1.981345 1_554
Mg6 O24 1.981345 1_554
Mg6 O62 2.196028 1_555
Mg6 O60 2.196028 1_555
Mg6 O61 2.196028 1_555
Mg7 O28 1.981345 1_555
Mg7 O27 1.981345 1_555
Mg7 O29 1.981345 1_555
Mg7 O63 2.196028 1_555
Mg7 O65 2.196028 1_555
Mg7 O64 2.196028 1_555
Nb0 O54 1.997159 1_555
Nb0 O56 1.997159 1_555
Nb0 O55 1.997159 1_555
Nb0 O19 2.017478 1_556
Nb0 O20 2.017478 1_556
Nb0 O18 2.017478 1_556
Nb1 O58 1.997159 1_555
Nb1 O59 1.997159 1_555
Nb1 O57 1.997159 1_555
Nb1 O22 2.017478 1_555
Nb1 O21 2.017478 1_555
Nb1 O23 2.017478 1_555
Nb2 O31 1.925677 1_555
Nb2 O32 1.925677 1_555
Nb2 O30 1.925677 1_555
Nb2 O68 2.112754 1_555
Nb2 O66 2.112754 1_555
Nb2 O67 2.112754 1_555
Nb3 O34 1.925677 1_555
Nb3 O33 1.925677 1_555
Nb3 O35 1.925677 1_555
Nb3 O69 2.112754 1_555
Nb3 O71 2.112754 1_555
Nb3 O70 2.112754 1_555
O0 P0 1.525683 1_545
O1 P1 1.525683 1_555
O2 P2 1.525683 1_655
O3 P3 1.525683 1_555
O4 P4 1.525683 1_655
O5 P5 1.525683 1_545
O6 P5 1.536888 1_555
O7 P3 1.536888 1_555
O8 P4 1.536888 1_555
O9 P1 1.536888 1_555
O10 P2 1.536888 1_555
O11 P0 1.536888 1_555
O12 P6 1.523985 1_555
O13 P7 1.523985 1_555
O14 P8 1.523985 1_555
O15 P9 1.523985 1_555
O16 P10 1.523985 1_555
O17 P11 1.523985 1_555
O18 P11 1.608377 1_555
O19 P9 1.608377 1_555
O20 P10 1.608377 1_555
O21 P7 1.608377 1_555
O22 P8 1.608377 1_555
O23 P6 1.608377 1_555
O24 Si0 1.581389 1_555
O25 Si1 1.581389 1_555
O26 Si2 1.581389 1_555
O27 Si3 1.581389 1_555
O28 Si4 1.581389 1_555
O29 Si5 1.581389 1_555
O30 Si5 1.704130 1_555
O31 Si3 1.704130 1_555
O32 Si4 1.704130 1_555
O33 Si1 1.704130 1_555
O34 Si2 1.704130 1_555
O35 Si0 1.704130 1_555
O36 Si5 1.594010 1_555
O37 Si3 1.594019 1_555
O38 Si4 1.594016 1_555
O39 Si1 1.594019 1_555
O40 Si2 1.594010 1_555
O41 Si0 1.594016 1_555
O42 P6 1.544207 1_555
O43 P7 1.544216 1_555
O44 P8 1.544212 1_555
O45 P9 1.544216 1_555
O46 P10 1.544207 1_555
O47 P11 1.544212 1_555
O48 P5 1.551202 1_545
O49 P3 1.551211 1_555
O50 P4 1.551207 1_655
O51 P1 1.551211 1_555
O52 P2 1.551202 1_655
O53 P0 1.551207 1_545
O54 Si0 1.678626 1_555
O55 Si1 1.678608 1_655
O56 Si2 1.678617 1_545
O57 Si3 1.678608 1_545
O58 Si4 1.678627 1_555
O59 Si5 1.678617 1_655
O60 P11 1.537679 1_555
O61 P9 1.537661 1_455
O62 P10 1.537668 1_565
O63 P7 1.537661 1_565
O64 P8 1.537679 1_555
O65 P6 1.537668 1_455
O66 P0 1.603541 1_555
O67 P1 1.603550 1_555
O68 P2 1.603546 1_555
O69 P3 1.603550 1_555
O70 P4 1.603541 1_555
O71 P5 1.603546 1_555
