# generated using pymatgen
data_RbMgFe(MoO4)2
_symmetry_space_group_name_H-M   'P 1'
_cell_length_a   5.87668050
_cell_length_b   5.87667989
_cell_length_c   10.32316700
_cell_angle_alpha   90.00000000
_cell_angle_beta   90.00000000
_cell_angle_gamma   119.99999738
_symmetry_Int_Tables_number   1
_chemical_formula_structural   RbMgFe(MoO4)2
_chemical_formula_sum   'Rb1 Mg1 Fe1 Mo2 O8'
_cell_volume   308.75052914
_cell_formula_units_Z   1
loop_
 _symmetry_equiv_pos_site_id
 _symmetry_equiv_pos_as_xyz
  1  'x, y, z'
loop_
 _atom_site_type_symbol
 _atom_site_label
 _atom_site_symmetry_multiplicity
 _atom_site_fract_x
 _atom_site_fract_y
 _atom_site_fract_z
 _atom_site_occupancy
  Rb  Rb0  1  0.00000000  -0.00000000  0.62363923  1
  Mg  Mg0  1  0.00000000  -0.00000000  0.24143138  1
  Fe  Fe0  1  0.00000000  -0.00000000  0.97249407  1
  Mo  Mo0  1  0.66666700  0.33333300  0.80973359  1
  Mo  Mo1  1  0.33333300  0.66666700  0.17362816  1
  O  O0  1  0.17508658  0.31943490  0.12579061  1
  O  O1  1  0.79266616  0.66768138  0.86253885  1
  O  O2  1  0.33333300  0.66666700  0.34271049  1
  O  O3  1  0.87501522  0.20733384  0.86253885  1
  O  O4  1  0.66666700  0.33333300  0.63804170  1
  O  O5  1  0.68056510  0.85565168  0.12579061  1
  O  O6  1  0.33231862  0.12498478  0.86253885  1
  O  O7  1  0.14434832  0.82491342  0.12579061  1
loop_
_geom_bond_atom_site_label_1
_geom_bond_atom_site_label_2
_geom_bond_distance
_geom_bond_site_symmetry_2
Mg0 O0 2.018966 1_555
Mg0 O7 2.018966 1_545
Mg0 O5 2.018966 1_445
Mg0 Rb0 3.945595 1_555
Fe0 O3 2.051200 1_455
Fe0 O1 2.051200 1_445
Fe0 O6 2.051200 1_555
Fe0 O0 2.270559 1_556
Fe0 O7 2.270559 1_546
Fe0 O5 2.270559 1_446
Mo0 O4 1.772404 1_555
Mo0 O3 1.803105 1_555
Mo0 O6 1.803109 1_555
Mo0 O1 1.803110 1_555
Mo1 O2 1.745465 1_555
Mo1 O7 1.837107 1_555
Mo1 O5 1.837112 1_555
Mo1 O0 1.837112 1_555
O1 Rb0 3.000191 1_665
O3 Rb0 3.000191 1_655
O4 Rb0 3.396155 1_655
O4 Rb0 3.396161 1_665
O4 Rb0 3.396161 1_555
O6 Rb0 3.000191 1_555
