# generated using pymatgen
data_Sr13(MgSi10)2
_symmetry_space_group_name_H-M   'P 1'
_cell_length_a   9.83827834
_cell_length_b   15.28149846
_cell_length_c   23.35125606
_cell_angle_alpha   90.00000000
_cell_angle_beta   90.00000000
_cell_angle_gamma   90.00000000
_symmetry_Int_Tables_number   1
_chemical_formula_structural   Sr13(MgSi10)2
_chemical_formula_sum   'Sr52 Mg8 Si80'
_cell_volume   3510.71272492
_cell_formula_units_Z   4
loop_
 _symmetry_equiv_pos_site_id
 _symmetry_equiv_pos_as_xyz
  1  'x, y, z'
loop_
 _atom_site_type_symbol
 _atom_site_label
 _atom_site_symmetry_multiplicity
 _atom_site_fract_x
 _atom_site_fract_y
 _atom_site_fract_z
 _atom_site_occupancy
  Mg  Mg0  1  0.00000000  0.07059049  0.29087154  1
  Mg  Mg1  1  0.00000000  0.92940951  0.70912846  1
  Mg  Mg2  1  0.00000000  0.57059049  0.20912846  1
  Mg  Mg3  1  0.00000000  0.42940951  0.79087154  1
  Mg  Mg4  1  0.50000000  0.28807503  0.16619361  1
  Mg  Mg5  1  0.50000000  0.71192497  0.83380639  1
  Mg  Mg6  1  0.50000000  0.78807503  0.33380639  1
  Mg  Mg7  1  0.50000000  0.21192497  0.66619361  1
  Si  Si0  1  0.00000000  0.55296685  0.08668435  1
  Si  Si1  1  0.00000000  0.44703315  0.91331565  1
  Si  Si2  1  0.00000000  0.05296685  0.41331565  1
  Si  Si3  1  0.00000000  0.94703315  0.58668435  1
  Si  Si4  1  0.00000000  0.66908842  0.01816457  1
  Si  Si5  1  0.00000000  0.33091158  0.98183543  1
  Si  Si6  1  0.00000000  0.16908842  0.48183543  1
  Si  Si7  1  0.00000000  0.83091158  0.51816457  1
  Si  Si8  1  0.00000000  0.81663406  0.05627501  1
  Si  Si9  1  0.00000000  0.18336594  0.94372499  1
  Si  Si10  1  0.00000000  0.31663406  0.44372499  1
  Si  Si11  1  0.00000000  0.68336594  0.55627501  1
  Si  Si12  1  0.00000000  0.85955720  0.15384339  1
  Si  Si13  1  0.00000000  0.14044280  0.84615661  1
  Si  Si14  1  0.00000000  0.35955720  0.34615661  1
  Si  Si15  1  0.00000000  0.64044280  0.65384339  1
  Si  Si16  1  0.00000000  0.25483183  0.26967422  1
  Si  Si17  1  0.00000000  0.74516817  0.73032578  1
  Si  Si18  1  0.00000000  0.75483183  0.23032578  1
  Si  Si19  1  0.00000000  0.24516817  0.76967422  1
  Si  Si20  1  0.00000000  0.01079862  0.17922132  1
  Si  Si21  1  0.00000000  0.98920138  0.82077868  1
  Si  Si22  1  0.00000000  0.51079862  0.32077868  1
  Si  Si23  1  0.00000000  0.48920138  0.67922132  1
  Si  Si24  1  0.00000000  0.12559213  0.10867356  1
  Si  Si25  1  0.00000000  0.87440787  0.89132644  1
  Si  Si26  1  0.00000000  0.62559213  0.39132644  1
  Si  Si27  1  0.00000000  0.37440787  0.60867356  1
  Si  Si28  1  0.00000000  0.92632182  0.98616730  1
  Si  Si29  1  0.00000000  0.07367818  0.01383270  1
  Si  Si30  1  0.00000000  0.42632182  0.51383270  1
  Si  Si31  1  0.00000000  0.57367818  0.48616730  1
  Si  Si32  1  0.19825638  0.51429006  0.14246950  1
  Si  Si33  1  0.19825638  0.48570994  0.85753050  1
  Si  Si34  1  0.80174362  0.01429006  0.35753050  1
  Si  Si35  1  0.80174362  0.98570994  0.64246950  1
  Si  Si36  1  0.80174362  0.48570994  0.85753050  1
  Si  Si37  1  0.80174362  0.51429006  0.14246950  1
  Si  Si38  1  0.19825638  0.98570994  0.64246950  1
  Si  Si39  1  0.19825638  0.01429006  0.35753050  1
  Si  Si40  1  0.30158985  0.37856455  0.11941534  1
  Si  Si41  1  0.30158985  0.62143545  0.88058466  1
  Si  Si42  1  0.69841015  0.87856455  0.38058466  1
  Si  Si43  1  0.69841015  0.12143545  0.61941534  1
  Si  Si44  1  0.69841015  0.62143545  0.88058466  1
  Si  Si45  1  0.69841015  0.37856455  0.11941534  1
  Si  Si46  1  0.30158985  0.12143545  0.61941534  1
  Si  Si47  1  0.30158985  0.87856455  0.38058466  1
  Si  Si48  1  0.50000000  0.61394218  0.94131314  1
  Si  Si49  1  0.50000000  0.38605782  0.05868686  1
  Si  Si50  1  0.50000000  0.11394218  0.55868686  1
  Si  Si51  1  0.50000000  0.88605782  0.44131314  1
  Si  Si52  1  0.50000000  0.66012082  0.03893475  1
  Si  Si53  1  0.50000000  0.33987918  0.96106525  1
  Si  Si54  1  0.50000000  0.16012082  0.46106525  1
  Si  Si55  1  0.50000000  0.83987918  0.53893475  1
  Si  Si56  1  0.50000000  0.81630278  0.05620141  1
  Si  Si57  1  0.50000000  0.18369722  0.94379859  1
  Si  Si58  1  0.50000000  0.31630278  0.44379859  1
  Si  Si59  1  0.50000000  0.68369722  0.55620141  1
  Si  Si60  1  0.50000000  0.85863691  0.15326793  1
  Si  Si61  1  0.50000000  0.14136309  0.84673207  1
  Si  Si62  1  0.50000000  0.35863691  0.34673207  1
  Si  Si63  1  0.50000000  0.64136309  0.65326793  1
  Si  Si64  1  0.50000000  0.24085205  0.28127893  1
  Si  Si65  1  0.50000000  0.75914795  0.71872107  1
  Si  Si66  1  0.50000000  0.74085205  0.21872107  1
  Si  Si67  1  0.50000000  0.25914795  0.78127893  1
  Si  Si68  1  0.50000000  0.99427678  0.81446157  1
  Si  Si69  1  0.50000000  0.00572322  0.18553843  1
  Si  Si70  1  0.50000000  0.49427678  0.68553843  1
  Si  Si71  1  0.50000000  0.50572322  0.31446157  1
  Si  Si72  1  0.50000000  0.88161518  0.88634120  1
  Si  Si73  1  0.50000000  0.11838482  0.11365880  1
  Si  Si74  1  0.50000000  0.38161518  0.61365880  1
  Si  Si75  1  0.50000000  0.61838482  0.38634120  1
  Si  Si76  1  0.50000000  0.92655620  0.98497598  1
  Si  Si77  1  0.50000000  0.07344380  0.01502402  1
  Si  Si78  1  0.50000000  0.42655620  0.51502402  1
  Si  Si79  1  0.50000000  0.57344380  0.48497598  1
  Sr  Sr0  1  0.74837865  0.00000000  0.50000000  1
  Sr  Sr1  1  0.25162135  0.50000000  0.00000000  1
  Sr  Sr2  1  0.25162135  0.00000000  0.50000000  1
  Sr  Sr3  1  0.74837865  0.50000000  0.00000000  1
  Sr  Sr4  1  0.00000000  0.65453072  0.87570289  1
  Sr  Sr5  1  0.00000000  0.34546928  0.12429711  1
  Sr  Sr6  1  0.00000000  0.15453072  0.62429711  1
  Sr  Sr7  1  0.00000000  0.84546928  0.37570289  1
  Sr  Sr8  1  0.50000000  0.54126611  0.15730576  1
  Sr  Sr9  1  0.50000000  0.45873389  0.84269424  1
  Sr  Sr10  1  0.50000000  0.04126611  0.34269424  1
  Sr  Sr11  1  0.50000000  0.95873389  0.65730576  1
  Sr  Sr12  1  0.26350344  0.77681774  0.96393729  1
  Sr  Sr13  1  0.26350344  0.22318226  0.03606271  1
  Sr  Sr14  1  0.73649656  0.27681774  0.53606271  1
  Sr  Sr15  1  0.73649656  0.72318226  0.46393729  1
  Sr  Sr16  1  0.73649656  0.22318226  0.03606271  1
  Sr  Sr17  1  0.73649656  0.77681774  0.96393729  1
  Sr  Sr18  1  0.26350344  0.72318226  0.46393729  1
  Sr  Sr19  1  0.26350344  0.27681774  0.53606271  1
  Sr  Sr20  1  0.23669876  0.71279201  0.12444578  1
  Sr  Sr21  1  0.23669876  0.28720799  0.87555422  1
  Sr  Sr22  1  0.76330124  0.21279201  0.37555422  1
  Sr  Sr23  1  0.76330124  0.78720799  0.62444578  1
  Sr  Sr24  1  0.76330124  0.28720799  0.87555422  1
  Sr  Sr25  1  0.76330124  0.71279201  0.12444578  1
  Sr  Sr26  1  0.23669876  0.78720799  0.62444578  1
  Sr  Sr27  1  0.23669876  0.21279201  0.37555422  1
  Sr  Sr28  1  0.25033141  0.97049627  0.08499010  1
  Sr  Sr29  1  0.25033141  0.02950373  0.91500990  1
  Sr  Sr30  1  0.74966859  0.47049627  0.41500990  1
  Sr  Sr31  1  0.74966859  0.52950373  0.58499010  1
  Sr  Sr32  1  0.74966859  0.02950373  0.91500990  1
  Sr  Sr33  1  0.74966859  0.97049627  0.08499010  1
  Sr  Sr34  1  0.25033141  0.52950373  0.58499010  1
  Sr  Sr35  1  0.25033141  0.47049627  0.41500990  1
  Sr  Sr36  1  0.24943861  0.65005921  0.29467405  1
  Sr  Sr37  1  0.24943861  0.34994079  0.70532595  1
  Sr  Sr38  1  0.75056139  0.15005921  0.20532595  1
  Sr  Sr39  1  0.75056139  0.84994079  0.79467405  1
  Sr  Sr40  1  0.75056139  0.34994079  0.70532595  1
  Sr  Sr41  1  0.75056139  0.65005921  0.29467405  1
  Sr  Sr42  1  0.24943861  0.84994079  0.79467405  1
  Sr  Sr43  1  0.24943861  0.15005921  0.20532595  1
  Sr  Sr44  1  0.24931183  0.39474206  0.25550438  1
  Sr  Sr45  1  0.24931183  0.60525794  0.74449562  1
  Sr  Sr46  1  0.75068817  0.89474206  0.24449562  1
  Sr  Sr47  1  0.75068817  0.10525794  0.75550438  1
  Sr  Sr48  1  0.75068817  0.60525794  0.74449562  1
  Sr  Sr49  1  0.75068817  0.39474206  0.25550438  1
  Sr  Sr50  1  0.24931183  0.10525794  0.75550438  1
  Sr  Sr51  1  0.24931183  0.89474206  0.24449562  1
loop_
_geom_bond_atom_site_label_1
_geom_bond_atom_site_label_2
_geom_bond_distance
_geom_bond_site_symmetry_2
Mg0 Si34 2.639617 1_455
Mg0 Si39 2.639617 1_555
Mg0 Si20 2.762646 1_555
Mg0 Si16 2.858664 1_555
Mg0 Si2 2.871879 1_555
Mg0 Sr43 3.389323 1_555
Mg0 Sr38 3.389323 1_455
Mg1 Si35 2.639617 1_455
Mg1 Si38 2.639617 1_555
Mg1 Si21 2.762646 1_555
Mg1 Si17 2.858664 1_555
Mg1 Si3 2.871879 1_555
Mg1 Sr42 3.389323 1_555
Mg1 Sr39 3.389323 1_455
Mg2 Si32 2.639617 1_555
Mg2 Si37 2.639617 1_455
Mg2 Si22 2.762646 1_555
Mg2 Si18 2.858664 1_555
Mg2 Si0 2.871879 1_555
Mg2 Sr36 3.389323 1_555
Mg2 Sr41 3.389323 1_455
Mg3 Si36 2.639617 1_455
Mg3 Si33 2.639617 1_555
Mg3 Si23 2.762646 1_555
Mg3 Si19 2.858664 1_555
Mg3 Si1 2.871879 1_555
Mg3 Sr40 3.389323 1_455
Mg3 Sr37 3.389323 1_555
Mg4 Si45 2.629777 1_555
Mg4 Si40 2.629777 1_555
Mg4 Si64 2.782590 1_555
Mg4 Si73 2.868658 1_555
Mg4 Si49 2.923042 1_555
Mg4 Sr43 3.370452 1_555
Mg4 Sr38 3.370452 1_555
Mg5 Si44 2.629777 1_555
Mg5 Si41 2.629777 1_555
Mg5 Si65 2.782590 1_555
Mg5 Si72 2.868658 1_555
Mg5 Si48 2.923042 1_555
Mg5 Sr39 3.370452 1_555
Mg5 Sr42 3.370452 1_555
Mg6 Si42 2.629777 1_555
Mg6 Si47 2.629777 1_555
Mg6 Si66 2.782590 1_555
Mg6 Si75 2.868658 1_555
Mg6 Si51 2.923042 1_555
Mg6 Sr36 3.370452 1_555
Mg6 Sr41 3.370452 1_555
Mg7 Si43 2.629777 1_555
Mg7 Si46 2.629777 1_555
Mg7 Si67 2.782590 1_555
Mg7 Si74 2.868658 1_555
Mg7 Si50 2.923042 1_555
Mg7 Sr40 3.370452 1_555
Mg7 Sr37 3.370452 1_555
Si0 Si4 2.389344 1_555
Si0 Si32 2.418820 1_555
Si0 Si37 2.418820 1_455
Si0 Sr5 3.290268 1_555
Si0 Sr1 3.298589 1_555
Si0 Sr3 3.298589 1_455
Si0 Sr25 3.487918 1_455
Si0 Sr20 3.487918 1_555
Si1 Si5 2.389344 1_555
Si1 Si33 2.418820 1_555
Si1 Si36 2.418820 1_455
Si1 Sr4 3.290268 1_555
Si1 Sr3 3.298589 1_456
Si1 Sr1 3.298589 1_556
Si1 Sr24 3.487918 1_455
Si1 Sr21 3.487918 1_555
Si2 Si6 2.389344 1_555
Si2 Si34 2.418820 1_455
Si2 Si39 2.418820 1_555
Si2 Sr7 3.290268 1_545
Si2 Sr0 3.298589 1_455
Si2 Sr2 3.298589 1_555
Si2 Sr27 3.487918 1_555
Si2 Sr22 3.487918 1_455
Si3 Si7 2.389344 1_555
Si3 Si35 2.418820 1_455
Si3 Si38 2.418820 1_555
Si3 Sr6 3.290268 1_565
Si3 Sr0 3.298589 1_465
Si3 Sr2 3.298589 1_565
Si3 Sr23 3.487918 1_455
Si3 Sr26 3.487918 1_555
Si4 Si8 2.423989 1_555
Si4 Sr17 3.321789 1_454
Si4 Sr12 3.321789 1_554
Si4 Sr4 3.334089 1_554
Si4 Sr25 3.468176 1_455
Si4 Sr20 3.468176 1_555
Si4 Sr1 3.603441 1_555
Si4 Sr3 3.603441 1_455
Si5 Si9 2.423989 1_555
Si5 Sr13 3.321789 1_556
Si5 Sr16 3.321789 1_456
Si5 Sr5 3.334089 1_556
Si5 Sr24 3.468176 1_455
Si5 Sr21 3.468176 1_555
Si5 Sr3 3.603441 1_456
Si5 Sr1 3.603441 1_556
Si6 Sr19 3.321789 1_555
Si6 Sr14 3.321789 1_455
Si6 Sr6 3.334089 1_555
Si6 Sr27 3.468176 1_555
Si6 Sr22 3.468176 1_455
Si6 Sr0 3.603441 1_455
Si6 Sr2 3.603441 1_555
Si7 Sr18 3.321789 1_555
Si7 Sr15 3.321789 1_455
Si7 Sr7 3.334089 1_555
Si7 Sr26 3.468176 1_555
Si7 Sr23 3.468176 1_455
Si7 Sr0 3.603441 1_465
Si7 Sr2 3.603441 1_565
Si8 Sr25 3.236522 1_455
Si8 Sr20 3.236522 1_555
Si8 Sr12 3.426378 1_554
Si8 Sr17 3.426378 1_454
Si8 Sr28 3.470375 1_555
Si8 Sr33 3.470375 1_455
Si9 Sr24 3.236522 1_455
Si9 Sr21 3.236522 1_555
Si9 Sr16 3.426378 1_456
Si9 Sr13 3.426378 1_556
Si9 Sr29 3.470375 1_555
Si9 Sr32 3.470375 1_455
Si10 Si30 2.343017 1_555
Si10 Si14 2.370885 1_555
Si10 Si6 2.423989 1_555
Si10 Sr22 3.236522 1_455
Si10 Sr27 3.236522 1_555
Si10 Sr19 3.426378 1_555
Si10 Sr14 3.426378 1_455
Si10 Sr35 3.470375 1_555
Si10 Sr30 3.470375 1_455
Si11 Si31 2.343017 1_555
Si11 Si15 2.370885 1_555
Si11 Si7 2.423989 1_555
Si11 Sr26 3.236522 1_555
Si11 Sr23 3.236522 1_455
Si11 Sr18 3.426378 1_555
Si11 Sr15 3.426378 1_455
Si11 Sr31 3.470375 1_455
Si11 Sr34 3.470375 1_555
Si12 Si8 2.370885 1_555
Si12 Si20 2.385960 1_565
Si12 Si18 2.398084 1_555
Si12 Sr51 3.284257 1_555
Si12 Sr46 3.284257 1_455
Si12 Sr20 3.305184 1_555
Si12 Sr25 3.305184 1_455
Si12 Sr28 3.394802 1_555
Si12 Sr33 3.394802 1_455
Si13 Si9 2.370885 1_555
Si13 Si21 2.385960 1_545
Si13 Si19 2.398084 1_555
Si13 Sr50 3.284257 1_555
Si13 Sr47 3.284257 1_455
Si13 Sr21 3.305184 1_555
Si13 Sr24 3.305184 1_455
Si13 Sr29 3.394802 1_555
Si13 Sr32 3.394802 1_455
Si14 Si22 2.385960 1_555
Si14 Si16 2.398084 1_555
Si14 Sr49 3.284257 1_455
Si14 Sr44 3.284257 1_555
Si14 Sr27 3.305184 1_555
Si14 Sr22 3.305184 1_455
Si14 Sr35 3.394802 1_555
Si14 Sr30 3.394802 1_455
Si15 Si23 2.385960 1_555
Si15 Si17 2.398084 1_555
Si15 Sr45 3.284257 1_555
Si15 Sr48 3.284257 1_455
Si15 Sr23 3.305184 1_455
Si15 Sr26 3.305184 1_555
Si15 Sr34 3.394802 1_555
Si15 Sr31 3.394802 1_455
Si16 Sr44 3.270614 1_555
Si16 Sr49 3.270614 1_455
Si16 Sr43 3.292971 1_555
Si16 Sr38 3.292971 1_455
Si16 Sr27 3.456662 1_555
Si16 Sr22 3.456662 1_455
Si16 Sr5 3.666426 1_555
Si17 Sr45 3.270614 1_555
Si17 Sr48 3.270614 1_455
Si17 Sr42 3.292971 1_555
Si17 Sr39 3.292971 1_455
Si17 Sr23 3.456662 1_455
Si17 Sr26 3.456662 1_555
Si17 Sr4 3.666426 1_555
Si18 Sr51 3.270614 1_555
Si18 Sr46 3.270614 1_455
Si18 Sr36 3.292971 1_555
Si18 Sr41 3.292971 1_455
Si18 Sr25 3.456662 1_455
Si18 Sr20 3.456662 1_555
Si18 Sr7 3.666426 1_555
Si19 Sr47 3.270614 1_455
Si19 Sr50 3.270614 1_555
Si19 Sr40 3.292971 1_455
Si19 Sr37 3.292971 1_555
Si19 Sr24 3.456662 1_455
Si19 Sr21 3.456662 1_555
Si19 Sr6 3.666426 1_555
Si20 Si24 2.406477 1_555
Si20 Sr43 3.304963 1_555
Si20 Sr38 3.304963 1_455
Si20 Sr28 3.359565 1_545
Si20 Sr33 3.359565 1_445
Si20 Sr46 3.388936 1_445
Si20 Sr51 3.388936 1_545
Si21 Si25 2.406477 1_555
Si21 Sr39 3.304963 1_455
Si21 Sr42 3.304963 1_555
Si21 Sr29 3.359565 1_565
Si21 Sr32 3.359565 1_465
Si21 Sr50 3.388936 1_565
Si21 Sr47 3.388936 1_465
Si22 Si26 2.406477 1_555
Si22 Sr36 3.304963 1_555
Si22 Sr41 3.304963 1_455
Si22 Sr35 3.359565 1_555
Si22 Sr30 3.359565 1_455
Si22 Sr44 3.388936 1_555
Si22 Sr49 3.388936 1_455
Si23 Si27 2.406477 1_555
Si23 Sr40 3.304963 1_455
Si23 Sr37 3.304963 1_555
Si23 Sr31 3.359565 1_455
Si23 Sr34 3.359565 1_555
Si23 Sr45 3.388936 1_555
Si23 Sr48 3.388936 1_455
Si24 Si29 2.352456 1_555
Si24 Sr43 3.354994 1_555
Si24 Sr38 3.354994 1_455
Si24 Sr5 3.379801 1_555
Si24 Sr13 3.437964 1_555
Si24 Sr16 3.437964 1_455
Si24 Sr28 3.462477 1_545
Si24 Sr33 3.462477 1_445
Si25 Si28 2.352456 1_555
Si25 Sr39 3.354994 1_455
Si25 Sr42 3.354994 1_555
Si25 Sr4 3.379801 1_555
Si25 Sr12 3.437964 1_555
Si25 Sr17 3.437964 1_455
Si25 Sr29 3.462477 1_565
Si25 Sr32 3.462477 1_465
Si26 Si31 2.352456 1_555
Si26 Sr36 3.354994 1_555
Si26 Sr41 3.354994 1_455
Si26 Sr7 3.379801 1_555
Si26 Sr18 3.437964 1_555
Si26 Sr15 3.437964 1_455
Si26 Sr35 3.462477 1_555
Si26 Sr30 3.462477 1_455
Si27 Si30 2.352456 1_555
Si27 Sr40 3.354994 1_455
Si27 Sr37 3.354994 1_555
Si27 Sr6 3.379801 1_555
Si27 Sr19 3.437964 1_555
Si27 Sr14 3.437964 1_455
Si27 Sr31 3.462477 1_455
Si27 Sr34 3.462477 1_555
Si28 Si29 2.342662 1_566
Si28 Si8 2.343017 1_556
Si28 Sr32 3.363438 1_465
Si28 Sr29 3.363438 1_565
Si28 Sr28 3.441862 1_556
Si28 Sr33 3.441862 1_456
Si28 Sr12 3.494240 1_555
Si28 Sr17 3.494240 1_455
Si29 Si9 2.343017 1_554
Si29 Sr28 3.363438 1_545
Si29 Sr33 3.363438 1_445
Si29 Sr29 3.441862 1_554
Si29 Sr32 3.441862 1_454
Si29 Sr13 3.494240 1_555
Si29 Sr16 3.494240 1_455
Si30 Si31 2.342662 1_555
Si30 Sr31 3.363438 1_455
Si30 Sr34 3.363438 1_555
Si30 Sr35 3.441862 1_555
Si30 Sr30 3.441862 1_455
Si30 Sr14 3.494240 1_455
Si30 Sr19 3.494240 1_555
Si31 Sr35 3.363438 1_555
Si31 Sr30 3.363438 1_455
Si31 Sr34 3.441862 1_555
Si31 Sr31 3.441862 1_455
Si31 Sr18 3.494240 1_555
Si31 Sr15 3.494240 1_455
Si32 Si40 2.371747 1_555
Si32 Sr8 3.017080 1_555
Si32 Sr20 3.085731 1_555
Si32 Sr44 3.249117 1_555
Si32 Sr5 3.261913 1_555
Si32 Sr1 3.375086 1_555
Si33 Si41 2.371747 1_555
Si33 Sr9 3.017080 1_555
Si33 Sr21 3.085731 1_555
Si33 Sr45 3.249117 1_555
Si33 Sr4 3.261913 1_555
Si33 Sr1 3.375086 1_556
Si34 Si42 2.371747 1_545
Si34 Sr10 3.017080 1_555
Si34 Sr22 3.085731 1_555
Si34 Sr46 3.249117 1_545
Si34 Sr7 3.261913 1_645
Si34 Sr0 3.375086 1_555
Si35 Si43 2.371747 1_565
Si35 Sr11 3.017080 1_555
Si35 Sr23 3.085731 1_555
Si35 Sr47 3.249117 1_565
Si35 Sr6 3.261913 1_665
Si35 Sr0 3.375086 1_565
Si36 Si44 2.371747 1_555
Si36 Sr9 3.017080 1_555
Si36 Sr24 3.085731 1_555
Si36 Sr48 3.249117 1_555
Si36 Sr4 3.261913 1_655
Si36 Sr3 3.375086 1_556
Si37 Si45 2.371747 1_555
Si37 Sr8 3.017080 1_555
Si37 Sr25 3.085731 1_555
Si37 Sr49 3.249117 1_555
Si37 Sr5 3.261913 1_655
Si37 Sr3 3.375086 1_555
Si38 Si46 2.371747 1_565
Si38 Sr11 3.017080 1_555
Si38 Sr26 3.085731 1_555
Si38 Sr50 3.249117 1_565
Si38 Sr6 3.261913 1_565
Si38 Sr2 3.375086 1_565
Si39 Si47 2.371747 1_545
Si39 Sr10 3.017080 1_555
Si39 Sr27 3.085731 1_555
Si39 Sr51 3.249117 1_545
Si39 Sr7 3.261913 1_545
Si39 Sr2 3.375086 1_555
Si40 Si49 2.415459 1_555
Si40 Sr5 3.012076 1_555
Si40 Sr13 3.093050 1_555
Si40 Sr44 3.228680 1_555
Si40 Sr8 3.282532 1_555
Si40 Sr1 3.385421 1_555
Si41 Si48 2.415459 1_555
Si41 Sr4 3.012076 1_555
Si41 Sr12 3.093050 1_555
Si41 Sr45 3.228680 1_555
Si41 Sr9 3.282532 1_555
Si41 Sr1 3.385421 1_556
Si42 Si51 2.415459 1_555
Si42 Sr7 3.012076 1_655
Si42 Sr15 3.093050 1_555
Si42 Sr46 3.228680 1_555
Si42 Sr10 3.282532 1_565
Si42 Sr0 3.385421 1_565
Si43 Si50 2.415459 1_555
Si43 Sr6 3.012076 1_655
Si43 Sr14 3.093050 1_555
Si43 Sr47 3.228680 1_555
Si43 Sr11 3.282532 1_545
Si43 Sr0 3.385421 1_555
Si44 Si48 2.415459 1_555
Si44 Sr4 3.012076 1_655
Si44 Sr17 3.093050 1_555
Si44 Sr48 3.228680 1_555
Si44 Sr9 3.282532 1_555
Si44 Sr3 3.385421 1_556
Si45 Si49 2.415459 1_555
Si45 Sr5 3.012076 1_655
Si45 Sr16 3.093050 1_555
Si45 Sr49 3.228680 1_555
Si45 Sr8 3.282532 1_555
Si45 Sr3 3.385421 1_555
Si46 Si50 2.415459 1_555
Si46 Sr6 3.012076 1_555
Si46 Sr19 3.093050 1_555
Si46 Sr50 3.228680 1_555
Si46 Sr11 3.282532 1_545
Si46 Sr2 3.385421 1_555
Si47 Si51 2.415459 1_555
Si47 Sr7 3.012076 1_555
Si47 Sr18 3.093050 1_555
Si47 Sr51 3.228680 1_555
Si47 Sr10 3.282532 1_565
Si47 Sr2 3.385421 1_565
Si48 Si52 2.386315 1_556
Si48 Sr1 3.298652 1_556
Si48 Sr3 3.298652 1_556
Si48 Sr9 3.305865 1_555
Si48 Sr17 3.447863 1_555
Si48 Sr12 3.447863 1_555
Si49 Si53 2.386315 1_554
Si49 Sr1 3.298652 1_555
Si49 Sr3 3.298652 1_555
Si49 Sr8 3.305865 1_555
Si49 Sr16 3.447863 1_555
Si49 Sr13 3.447863 1_555
Si50 Si54 2.386315 1_555
Si50 Sr2 3.298652 1_555
Si50 Sr0 3.298652 1_555
Si50 Sr11 3.305865 1_545
Si50 Sr14 3.447863 1_555
Si50 Sr19 3.447863 1_555
Si51 Si55 2.386315 1_555
Si51 Sr2 3.298652 1_565
Si51 Sr0 3.298652 1_565
Si51 Sr10 3.305865 1_565
Si51 Sr15 3.447863 1_555
Si51 Sr18 3.447863 1_555
Si52 Si56 2.420512 1_555
Si52 Sr8 3.307443 1_555
Si52 Sr25 3.368287 1_555
Si52 Sr20 3.368287 1_555
Si52 Sr17 3.414790 1_554
Si52 Sr12 3.414790 1_554
Si52 Sr1 3.575629 1_555
Si52 Sr3 3.575629 1_555
Si53 Si57 2.420512 1_555
Si53 Sr9 3.307443 1_555
Si53 Sr21 3.368287 1_555
Si53 Sr24 3.368287 1_555
Si53 Sr16 3.414790 1_556
Si53 Sr13 3.414790 1_556
Si53 Sr1 3.575629 1_556
Si53 Sr3 3.575629 1_556
Si54 Si58 2.420512 1_555
Si54 Sr10 3.307443 1_555
Si54 Sr27 3.368287 1_555
Si54 Sr22 3.368287 1_555
Si54 Sr19 3.414790 1_555
Si54 Sr14 3.414790 1_555
Si54 Sr2 3.575629 1_555
Si54 Sr0 3.575629 1_555
Si55 Si59 2.420512 1_555
Si55 Sr11 3.307443 1_555
Si55 Sr26 3.368287 1_555
Si55 Sr23 3.368287 1_555
Si55 Sr15 3.414790 1_555
Si55 Sr18 3.414790 1_555
Si55 Sr2 3.575629 1_565
Si55 Sr0 3.575629 1_565
Si56 Si60 2.357140 1_555
Si56 Si76 2.367472 1_554
Si56 Sr17 3.227925 1_554
Si56 Sr12 3.227925 1_554
Si56 Sr25 3.428113 1_555
Si56 Sr20 3.428113 1_555
Si56 Sr33 3.469519 1_555
Si56 Sr28 3.469519 1_555
Si57 Si61 2.357140 1_555
Si57 Si77 2.367472 1_556
Si57 Sr16 3.227925 1_556
Si57 Sr13 3.227925 1_556
Si57 Sr21 3.428113 1_555
Si57 Sr24 3.428113 1_555
Si57 Sr29 3.469519 1_555
Si57 Sr32 3.469519 1_555
Si58 Si62 2.357140 1_555
Si58 Si78 2.367472 1_555
Si58 Sr14 3.227925 1_555
Si58 Sr19 3.227925 1_555
Si58 Sr27 3.428113 1_555
Si58 Sr22 3.428113 1_555
Si58 Sr30 3.469519 1_555
Si58 Sr35 3.469519 1_555
Si59 Si63 2.357140 1_555
Si59 Si79 2.367472 1_555
Si59 Sr15 3.227925 1_555
Si59 Sr18 3.227925 1_555
Si59 Sr26 3.428113 1_555
Si59 Sr23 3.428113 1_555
Si59 Sr31 3.469519 1_555
Si59 Sr34 3.469519 1_555
Si60 Si66 2.361311 1_555
Si60 Si69 2.370654 1_565
Si60 Sr46 3.305352 1_555
Si60 Sr51 3.305352 1_555
Si60 Sr33 3.390790 1_555
Si60 Sr28 3.390790 1_555
Si60 Sr20 3.482892 1_555
Si60 Sr25 3.482892 1_555
Si61 Si67 2.361311 1_555
Si61 Si68 2.370654 1_545
Si61 Sr50 3.305352 1_555
Si61 Sr47 3.305352 1_555
Si61 Sr32 3.390790 1_555
Si61 Sr29 3.390790 1_555
Si61 Sr24 3.482892 1_555
Si61 Sr21 3.482892 1_555
Si62 Si64 2.361311 1_555
Si62 Si71 2.370654 1_555
Si62 Sr49 3.305352 1_555
Si62 Sr44 3.305352 1_555
Si62 Sr30 3.390790 1_555
Si62 Sr35 3.390790 1_555
Si62 Sr22 3.482892 1_555
Si62 Sr27 3.482892 1_555
Si63 Si65 2.361311 1_555
Si63 Si70 2.370654 1_555
Si63 Sr45 3.305352 1_555
Si63 Sr48 3.305352 1_555
Si63 Sr31 3.390790 1_555
Si63 Sr34 3.390790 1_555
Si63 Sr26 3.482892 1_555
Si63 Sr23 3.482892 1_555
Si64 Sr38 3.338765 1_555
Si64 Sr43 3.338765 1_555
Si64 Sr10 3.370318 1_555
Si64 Sr27 3.426451 1_555
Si64 Sr22 3.426451 1_555
Si64 Sr44 3.460553 1_555
Si64 Sr49 3.460553 1_555
Si65 Sr39 3.338765 1_555
Si65 Sr42 3.338765 1_555
Si65 Sr11 3.370318 1_555
Si65 Sr26 3.426451 1_555
Si65 Sr23 3.426451 1_555
Si65 Sr45 3.460553 1_555
Si65 Sr48 3.460553 1_555
Si66 Sr41 3.338765 1_555
Si66 Sr36 3.338765 1_555
Si66 Sr8 3.370318 1_555
Si66 Sr25 3.426451 1_555
Si66 Sr20 3.426451 1_555
Si66 Sr51 3.460553 1_555
Si66 Sr46 3.460553 1_555
Si67 Sr37 3.338765 1_555
Si67 Sr40 3.338765 1_555
Si67 Sr9 3.370318 1_555
Si67 Sr21 3.426451 1_555
Si67 Sr24 3.426451 1_555
Si67 Sr50 3.460553 1_555
Si67 Sr47 3.460553 1_555
Si68 Si72 2.404440 1_555
Si68 Sr47 3.294614 1_565
Si68 Sr50 3.294614 1_565
Si68 Sr42 3.339935 1_555
Si68 Sr39 3.339935 1_555
Si68 Sr32 3.440351 1_565
Si68 Sr29 3.440351 1_565
Si68 Sr11 3.709762 1_555
Si69 Si73 2.404440 1_555
Si69 Sr51 3.294614 1_545
Si69 Sr46 3.294614 1_545
Si69 Sr43 3.339935 1_555
Si69 Sr38 3.339935 1_555
Si69 Sr28 3.440351 1_545
Si69 Sr33 3.440351 1_545
Si69 Sr10 3.709762 1_555
Si70 Si74 2.404440 1_555
Si70 Sr45 3.294614 1_555
Si70 Sr48 3.294614 1_555
Si70 Sr37 3.339935 1_555
Si70 Sr40 3.339935 1_555
Si70 Sr31 3.440351 1_555
Si70 Sr34 3.440351 1_555
Si70 Sr9 3.709762 1_555
Si71 Si75 2.404440 1_555
Si71 Sr49 3.294614 1_555
Si71 Sr44 3.294614 1_555
Si71 Sr41 3.339935 1_555
Si71 Sr36 3.339935 1_555
Si71 Sr30 3.440351 1_555
Si71 Sr35 3.440351 1_555
Si71 Sr8 3.709762 1_555
Si72 Si76 2.403454 1_555
Si72 Sr42 3.300438 1_555
Si72 Sr39 3.300438 1_555
Si72 Sr17 3.355819 1_555
Si72 Sr12 3.355819 1_555
Si72 Sr32 3.404267 1_565
Si72 Sr29 3.404267 1_565
Si73 Si77 2.403454 1_555
Si73 Sr43 3.300438 1_555
Si73 Sr38 3.300438 1_555
Si73 Sr16 3.355819 1_555
Si73 Sr13 3.355819 1_555
Si73 Sr33 3.404267 1_545
Si73 Sr28 3.404267 1_545
Si74 Si78 2.403454 1_555
Si74 Sr37 3.300438 1_555
Si74 Sr40 3.300438 1_555
Si74 Sr14 3.355819 1_555
Si74 Sr19 3.355819 1_555
Si74 Sr31 3.404267 1_555
Si74 Sr34 3.404267 1_555
Si75 Si79 2.403454 1_555
Si75 Sr41 3.300438 1_555
Si75 Sr36 3.300438 1_555
Si75 Sr15 3.355819 1_555
Si75 Sr18 3.355819 1_555
Si75 Sr30 3.404267 1_555
Si75 Sr35 3.404267 1_555
Si76 Si77 2.351773 1_566
Si76 Sr17 3.300146 1_555
Si76 Sr12 3.300146 1_555
Si76 Sr32 3.343303 1_565
Si76 Sr29 3.343303 1_565
Si76 Sr33 3.455239 1_556
Si76 Sr28 3.455239 1_556
Si77 Sr16 3.300146 1_555
Si77 Sr13 3.300146 1_555
Si77 Sr28 3.343303 1_545
Si77 Sr33 3.343303 1_545
Si77 Sr32 3.455239 1_554
Si77 Sr29 3.455239 1_554
Si78 Si79 2.351773 1_555
Si78 Sr14 3.300146 1_555
Si78 Sr19 3.300146 1_555
Si78 Sr31 3.343303 1_555
Si78 Sr34 3.343303 1_555
Si78 Sr30 3.455239 1_555
Si78 Sr35 3.455239 1_555
Si79 Sr15 3.300146 1_555
Si79 Sr18 3.300146 1_555
Si79 Sr30 3.343303 1_555
Si79 Sr35 3.343303 1_555
Si79 Sr34 3.455239 1_555
Si79 Sr31 3.455239 1_555
