# generated using pymatgen
data_MgFe6(O5F)2
_symmetry_space_group_name_H-M   'P 1'
_cell_length_a   11.77770957
_cell_length_b   6.56755907
_cell_length_c   2.93366301
_cell_angle_alpha   90.00138216
_cell_angle_beta   90.00317299
_cell_angle_gamma   74.62838350
_symmetry_Int_Tables_number   1
_chemical_formula_structural   MgFe6(O5F)2
_chemical_formula_sum   'Mg1 Fe6 O10 F2'
_cell_volume   218.80350152
_cell_formula_units_Z   1
loop_
 _symmetry_equiv_pos_site_id
 _symmetry_equiv_pos_as_xyz
  1  'x, y, z'
loop_
 _atom_site_type_symbol
 _atom_site_label
 _atom_site_symmetry_multiplicity
 _atom_site_fract_x
 _atom_site_fract_y
 _atom_site_fract_z
 _atom_site_occupancy
  Mg  Mg0  1  0.16676900  0.16672500  0.99077300  1
  Fe  Fe0  1  0.98604000  0.00191800  0.99168500  1
  Fe  Fe1  1  0.94612800  0.53729900  0.49151200  1
  Fe  Fe2  1  0.34755000  0.33140600  0.99192500  1
  Fe  Fe3  1  0.66680200  0.16663900  0.49065000  1
  Fe  Fe4  1  0.38736900  0.79607600  0.49159900  1
  Fe  Fe5  1  0.66674800  0.66667000  0.99030200  1
  O  O0  1  0.98720000  0.32741500  0.99151700  1
  O  O1  1  0.34635400  0.00597900  0.99161200  1
  O  O2  1  0.97392700  0.71522400  0.99158800  1
  O  O3  1  0.23254300  0.33945100  0.49155500  1
  O  O4  1  0.10104600  0.99385100  0.49150900  1
  O  O5  1  0.35959200  0.61811800  0.99164300  1
  O  O6  1  0.66522000  0.35603300  0.99060100  1
  O  O7  1  0.55626100  0.72310700  0.49040300  1
  O  O8  1  0.77724800  0.61022900  0.49043700  1
  O  O9  1  0.66836300  0.97724200  0.99070000  1
  F  F0  1  0.47566800  0.25211000  0.49187500  1
  F  F1  1  0.85792400  0.08117500  0.49145000  1
loop_
_geom_bond_atom_site_label_1
_geom_bond_atom_site_label_2
_geom_bond_distance
_geom_bond_site_symmetry_2
Mg0 O0 2.098408 1_455
Mg0 O1 2.098659 1_555
Mg0 O3 2.120827 1_555
Mg0 O4 2.121133 1_545
Mg0 O3 2.123901 1_556
Mg0 O4 2.124214 1_546
Fe0 O2 1.925616 1_545
Fe0 O4 1.987288 1_646
Fe0 O4 1.988159 1_645
Fe0 O0 2.141383 1_555
Fe1 O8 1.918476 1_555
Fe1 O2 1.956163 1_554
Fe1 O2 1.956428 1_555
Fe1 O0 1.982948 1_554
Fe1 O0 1.982980 1_555
Fe2 O5 1.925456 1_555
Fe2 O3 1.987008 1_556
Fe2 O3 1.988501 1_555
Fe2 O1 2.141038 1_555
Fe3 O6 1.919981 1_555
Fe3 O9 1.920031 1_544
Fe3 O6 1.920245 1_554
Fe3 O9 1.920300 1_545
Fe4 O7 1.918608 1_555
Fe4 O5 1.956219 1_554
Fe4 O5 1.956482 1_555
Fe4 O1 1.982979 1_564
Fe4 O1 1.983026 1_565
Fe5 O7 1.930170 1_555
Fe5 O8 1.930286 1_555
Fe5 O7 1.930716 1_556
Fe5 O8 1.930792 1_556
Fe5 O9 2.044825 1_555
Fe5 O6 2.044971 1_555
F0 Fe2 2.069408 1_554
F0 Fe2 2.069716 1_555
F0 Fe3 2.170883 1_555
F1 Fe0 2.069093 1_554
F1 Fe0 2.069970 1_555
F1 Fe3 2.170745 1_555
