# generated using pymatgen
data_Rb3InS3
_symmetry_space_group_name_H-M   'P 1'
_cell_length_a   7.93281777
_cell_length_b   8.18370243
_cell_length_c   8.18370390
_cell_angle_alpha   113.20930304
_cell_angle_beta   96.27447620
_cell_angle_gamma   96.27447126
_symmetry_Int_Tables_number   1
_chemical_formula_structural   Rb3InS3
_chemical_formula_sum   'Rb6 In2 S6'
_cell_volume   478.56574119
_cell_formula_units_Z   2
loop_
 _symmetry_equiv_pos_site_id
 _symmetry_equiv_pos_as_xyz
  1  'x, y, z'
loop_
 _atom_site_type_symbol
 _atom_site_label
 _atom_site_symmetry_multiplicity
 _atom_site_fract_x
 _atom_site_fract_y
 _atom_site_fract_z
 _atom_site_occupancy
  Rb  Rb0  1  -0.00000000  0.25417104  0.74582896  1
  Rb  Rb1  1  0.50000000  0.32113481  0.67886519  1
  Rb  Rb2  1  0.35497465  0.11218128  0.11218128  1
  Rb  Rb3  1  0.50000000  0.67886519  0.32113481  1
  Rb  Rb4  1  -0.00000000  0.74582896  0.25417104  1
  Rb  Rb5  1  0.64502535  0.88781872  0.88781872  1
  In  In0  1  0.14779505  0.67587421  0.67587421  1
  In  In1  1  0.85220495  0.32412579  0.32412579  1
  S  S0  1  0.72449599  0.05154092  0.34585199  1
  S  S1  1  0.82238561  0.60035866  0.60035866  1
  S  S2  1  0.17761439  0.39964134  0.39964134  1
  S  S3  1  0.27550401  0.94845908  0.65414801  1
  S  S4  1  0.27550401  0.65414801  0.94845908  1
  S  S5  1  0.72449599  0.34585199  0.05154092  1
loop_
_geom_bond_atom_site_label_1
_geom_bond_atom_site_label_2
_geom_bond_distance
_geom_bond_site_symmetry_2
Rb0 S4 3.406855 1_555
Rb0 S0 3.406855 1_455
Rb0 S3 3.416552 1_545
Rb0 S5 3.416552 1_456
Rb0 S1 3.820100 1_455
Rb0 S2 3.820101 1_555
Rb1 S3 3.280541 1_545
Rb1 S5 3.280541 1_556
Rb1 S1 3.523311 1_555
Rb1 S2 3.523311 1_555
Rb1 S4 3.556256 1_555
Rb1 S0 3.556256 1_555
Rb2 S2 3.183231 1_555
Rb2 S4 3.403460 1_544
Rb2 S3 3.403461 1_544
Rb2 S0 3.512349 1_555
Rb2 S5 3.512349 1_555
Rb3 S0 3.280541 1_565
Rb3 S4 3.280541 1_554
Rb3 S2 3.523311 1_555
Rb3 S1 3.523311 1_555
Rb3 S5 3.556256 1_555
Rb3 S3 3.556256 1_555
Rb4 S5 3.406855 1_455
Rb4 S3 3.406855 1_555
Rb4 S0 3.416552 1_465
Rb4 S4 3.416552 1_554
Rb4 S2 3.820100 1_555
Rb4 S1 3.820101 1_455
Rb5 S1 3.183231 1_555
Rb5 S5 3.403460 1_566
Rb5 S0 3.403461 1_566
Rb5 S3 3.512349 1_555
Rb5 S4 3.512349 1_555
In0 S3 2.427392 1_555
In0 S4 2.427392 1_555
In0 S1 2.535567 1_455
In0 S2 2.546083 1_555
In1 S0 2.427392 1_555
In1 S5 2.427392 1_555
In1 S2 2.535567 1_655
In1 S1 2.546083 1_555
