# generated using pymatgen
data_Na10Ca3Sn5(PO4)12
_symmetry_space_group_name_H-M   'P 1'
_cell_length_a   18.13891400
_cell_length_b   9.08100674
_cell_length_c   22.75350562
_cell_angle_alpha   89.99114200
_cell_angle_beta   90.02702502
_cell_angle_gamma   120.12754110
_symmetry_Int_Tables_number   1
_chemical_formula_structural   Na10Ca3Sn5(PO4)12
_chemical_formula_sum   'Na30 Ca9 Sn15 P36 O144'
_cell_volume   3241.63857860
_cell_formula_units_Z   3
loop_
 _symmetry_equiv_pos_site_id
 _symmetry_equiv_pos_as_xyz
  1  'x, y, z'
loop_
 _atom_site_type_symbol
 _atom_site_label
 _atom_site_symmetry_multiplicity
 _atom_site_fract_x
 _atom_site_fract_y
 _atom_site_fract_z
 _atom_site_occupancy
  Na  Na0  1  0.32157419  0.01215924  0.24993409  1
  Na  Na1  1  0.68584958  0.35712991  0.24942380  1
  Na  Na2  1  0.31762889  0.62461898  0.75093197  1
  Na  Na3  1  0.81761199  0.62431090  0.75056961  1
  Na  Na4  1  0.15550834  0.34452235  0.57912559  1
  Na  Na5  1  0.65580459  0.34630805  0.57869995  1
  Na  Na6  1  0.01599012  0.68940022  0.57977799  1
  Na  Na7  1  0.51666429  0.68801508  0.57962879  1
  Na  Na8  1  0.32613270  0.96391266  0.57893976  1
  Na  Na9  1  0.82816061  0.96770986  0.57951212  1
  Na  Na10  1  0.15533906  0.96598236  0.07888671  1
  Na  Na11  1  0.65632664  0.96750403  0.07998114  1
  Na  Na12  1  0.32697380  0.68784318  0.07987490  1
  Na  Na13  1  0.82755195  0.68956442  0.07909445  1
  Na  Na14  1  0.01611392  0.34490240  0.07916228  1
  Na  Na15  1  0.51709624  0.34495196  0.08034625  1
  Na  Na16  1  0.66346759  0.02481535  0.41052565  1
  Na  Na17  1  0.34986037  0.67578853  0.40971136  1
  Na  Na18  1  0.00029838  0.99846047  0.49328431  1
  Na  Na19  1  0.49951843  0.01597969  0.49130486  1
  Na  Na20  1  0.00006596  0.00035394  0.99482513  1
  Na  Na21  1  0.50017092  0.99973659  0.99509763  1
  Na  Na22  1  0.33366297  0.31929779  0.83343336  1
  Na  Na23  1  0.83368737  0.31949867  0.83348807  1
  Na  Na24  1  0.33417192  0.33763516  0.32815915  1
  Na  Na25  1  0.84569672  0.34316281  0.32921502  1
  Na  Na26  1  0.16120762  0.65225936  0.16824380  1
  Na  Na27  1  0.66589945  0.67982430  0.16774446  1
  Na  Na28  1  0.16039222  0.66785417  0.66919096  1
  Na  Na29  1  0.66050471  0.66681214  0.66938982  1
  Ca  Ca0  1  0.49988191  0.00547399  0.35137263  1
  Ca  Ca1  1  0.33366190  0.32541287  0.69122779  1
  Ca  Ca2  1  0.83359090  0.32538881  0.69167743  1
  Ca  Ca3  1  0.33078253  0.33828855  0.18723361  1
  Ca  Ca4  1  0.83971327  0.33509283  0.18933843  1
  Ca  Ca5  1  0.16659486  0.66741720  0.00811516  1
  Ca  Ca6  1  0.66651600  0.66641501  0.00856349  1
  Ca  Ca7  1  0.16049359  0.65851112  0.51033380  1
  Ca  Ca8  1  0.67096596  0.67074647  0.51200081  1
  Sn  Sn0  1  0.00061771  0.99849187  0.35101468  1
  Sn  Sn1  1  0.00157703  0.00320719  0.85307497  1
  Sn  Sn2  1  0.50156042  0.00321711  0.85305053  1
  Sn  Sn3  1  0.00155491  0.00299515  0.65282352  1
  Sn  Sn4  1  0.50144718  0.00248919  0.65218122  1
  Sn  Sn5  1  0.99984509  0.00005964  0.15235006  1
  Sn  Sn6  1  0.50022565  0.99760067  0.15306165  1
  Sn  Sn7  1  0.33312458  0.33435952  0.97965223  1
  Sn  Sn8  1  0.83368571  0.33405658  0.97977744  1
  Sn  Sn9  1  0.33173438  0.32417349  0.48110425  1
  Sn  Sn10  1  0.83731042  0.34098755  0.48043804  1
  Sn  Sn11  1  0.16323875  0.66174328  0.31706813  1
  Sn  Sn12  1  0.66577082  0.66782082  0.31763602  1
  Sn  Sn13  1  0.16427483  0.66730499  0.81951559  1
  Sn  Sn14  1  0.66427596  0.66719141  0.81960120  1
  P  P0  1  0.14322273  0.98608524  0.25203700  1
  P  P1  1  0.64712624  0.98744201  0.25224205  1
  P  P2  1  0.34478659  0.70489296  0.25322981  1
  P  P3  1  0.85027153  0.71277845  0.25247820  1
  P  P4  1  0.00634777  0.29601463  0.25285860  1
  P  P5  1  0.50604605  0.30628534  0.24915425  1
  P  P6  1  0.14310530  0.30155455  0.75243385  1
  P  P7  1  0.64297320  0.30116584  0.75244341  1
  P  P8  1  0.00697934  0.71772870  0.75209187  1
  P  P9  1  0.50694663  0.71786731  0.75191996  1
  P  P10  1  0.35104232  0.98629246  0.75319179  1
  P  P11  1  0.85095012  0.98616962  0.75330146  1
  P  P12  1  0.47940907  0.32510303  0.58434480  1
  P  P13  1  0.97857648  0.32437667  0.58441242  1
  P  P14  1  0.18256873  0.04063096  0.58419504  1
  P  P15  1  0.68351872  0.04335544  0.58259008  1
  P  P16  1  0.33724926  0.63293078  0.58493595  1
  P  P17  1  0.83861106  0.63474496  0.58730567  1
  P  P18  1  0.47911646  0.63270452  0.08314361  1
  P  P19  1  0.97996561  0.63505901  0.08288721  1
  P  P20  1  0.33723839  0.04032561  0.08551473  1
  P  P21  1  0.83719599  0.04148112  0.08300210  1
  P  P22  1  0.18207807  0.32453142  0.08219724  1
  P  P23  1  0.68393015  0.32516406  0.08581540  1
  P  P24  1  0.31957707  0.66452843  0.91549747  1
  P  P25  1  0.81954474  0.66420893  0.91557927  1
  P  P26  1  0.01276745  0.36175478  0.91709524  1
  P  P27  1  0.51276362  0.36158886  0.91730067  1
  P  P28  1  0.16804611  0.97432189  0.91700964  1
  P  P29  1  0.66794745  0.97409576  0.91707431  1
  P  P30  1  0.31262485  0.96902936  0.41828991  1
  P  P31  1  0.82009354  0.97438666  0.41736494  1
  P  P32  1  0.16697072  0.36136033  0.41748155  1
  P  P33  1  0.67319166  0.37081555  0.41863652  1
  P  P34  1  0.01384934  0.66719455  0.41678017  1
  P  P35  1  0.51363745  0.65498156  0.41952468  1
  O  O0  1  0.09629277  0.00658757  0.30470138  1
  O  O1  1  0.60584881  0.00536765  0.30733686  1
  O  O2  1  0.39340309  0.78802377  0.30895647  1
  O  O3  1  0.90754730  0.80796376  0.30501184  1
  O  O4  1  0.49437694  0.19442911  0.30079016  1
  O  O5  1  0.99883185  0.18265700  0.30520962  1
  O  O6  1  0.09510253  0.18519558  0.80407998  1
  O  O7  1  0.59501844  0.18524589  0.80418322  1
  O  O8  1  0.49599114  0.81581365  0.80298608  1
  O  O9  1  0.99598106  0.81570919  0.80312633  1
  O  O10  1  0.40833091  0.00124981  0.80497371  1
  O  O11  1  0.90836351  0.00146375  0.80503587  1
  O  O12  1  0.38943393  0.95551083  0.69420917  1
  O  O13  1  0.88942623  0.95598143  0.69433079  1
  O  O14  1  0.09319041  0.22456353  0.69274812  1
  O  O15  1  0.59313723  0.22397683  0.69276499  1
  O  O16  1  0.01986393  0.81835228  0.69231608  1
  O  O17  1  0.51993494  0.81852215  0.69199979  1
  O  O18  1  0.38887436  0.82158228  0.19580355  1
  O  O19  1  0.88971990  0.81412628  0.19335943  1
  O  O20  1  0.01730945  0.21849453  0.19314429  1
  O  O21  1  0.52254153  0.22718811  0.19046775  1
  O  O22  1  0.09281350  0.96615634  0.19298470  1
  O  O23  1  0.59209327  0.96192643  0.19385823  1
  O  O24  1  0.44052482  0.35855041  0.63768656  1
  O  O25  1  0.93923252  0.35685280  0.63756788  1
  O  O26  1  0.23824649  0.12025387  0.63747894  1
  O  O27  1  0.73993374  0.12723379  0.63502546  1
  O  O28  1  0.32406220  0.52908951  0.64029223  1
  O  O29  1  0.82491427  0.53280881  0.64329690  1
  O  O30  1  0.44053418  0.52256871  0.13625489  1
  O  O31  1  0.94204967  0.52676309  0.13683689  1
  O  O32  1  0.32252723  0.10998365  0.14204489  1
  O  O33  1  0.82080338  0.11879427  0.13638099  1
  O  O34  1  0.23589629  0.35643991  0.13605932  1
  O  O35  1  0.73445522  0.35444888  0.14215894  1
  O  O36  1  0.22344668  0.28897715  0.02667600  1
  O  O37  1  0.72773106  0.29155289  0.03122457  1
  O  O38  1  0.42029290  0.55255574  0.02689314  1
  O  O39  1  0.92056273  0.55310761  0.02726868  1
  O  O40  1  0.35385949  0.16282982  0.03130388  1
  O  O41  1  0.85555985  0.15884341  0.02697297  1
  O  O42  1  0.22271003  0.15713195  0.52808197  1
  O  O43  1  0.72315062  0.15228462  0.52439423  1
  O  O44  1  0.35237016  0.54807720  0.52843709  1
  O  O45  1  0.85499607  0.54822045  0.53239980  1
  O  O46  1  0.42028204  0.28611215  0.52844203  1
  O  O47  1  0.92126212  0.28966095  0.52776638  1
  O  O48  1  0.28600943  0.69298808  0.97255591  1
  O  O49  1  0.78591749  0.69279072  0.97256888  1
  O  O50  1  0.05845941  0.42433747  0.97510748  1
  O  O51  1  0.55856488  0.42390016  0.97532627  1
  O  O52  1  0.15319101  0.88271158  0.97493275  1
  O  O53  1  0.65317515  0.88197779  0.97492747  1
  O  O54  1  0.27340812  0.87269158  0.47506591  1
  O  O55  1  0.79068080  0.88593269  0.47633378  1
  O  O56  1  0.15129940  0.42032924  0.47614170  1
  O  O57  1  0.66581097  0.44661756  0.47572550  1
  O  O58  1  0.05724874  0.69612102  0.47602694  1
  O  O59  1  0.56161394  0.67903766  0.47675189  1
  O  O60  1  0.06142923  0.64028524  0.36459851  1
  O  O61  1  0.56078636  0.63307741  0.36523266  1
  O  O62  1  0.25680286  0.87731383  0.36184425  1
  O  O63  1  0.75439877  0.87874437  0.36653694  1
  O  O64  1  0.18383638  0.49065864  0.36627403  1
  O  O65  1  0.68169839  0.48052394  0.36209533  1
  O  O66  1  0.06025628  0.48241225  0.86387597  1
  O  O67  1  0.56003837  0.48249181  0.86406732  1
  O  O68  1  0.18079967  0.87930863  0.86373183  1
  O  O69  1  0.68090958  0.87963467  0.86367956  1
  O  O70  1  0.26147179  0.64031101  0.86023371  1
  O  O71  1  0.76146991  0.63989612  0.86028959  1
  O  O72  1  0.00125969  0.82400395  0.40712217  1
  O  O73  1  0.50186908  0.81098913  0.41319922  1
  O  O74  1  0.40034119  0.98412628  0.41402346  1
  O  O75  1  0.91047161  0.00025433  0.40612570  1
  O  O76  1  0.09021300  0.17935375  0.40670388  1
  O  O77  1  0.59846693  0.18752377  0.41442434  1
  O  O78  1  0.00142611  0.18042961  0.90755754  1
  O  O79  1  0.50138267  0.18034966  0.90760353  1
  O  O80  1  0.08904090  0.99788849  0.90739150  1
  O  O81  1  0.58886710  0.99747768  0.90747465  1
  O  O82  1  0.41089982  0.82272891  0.90704244  1
  O  O83  1  0.91089735  0.82230357  0.90704287  1
  O  O84  1  0.48336710  0.15372231  0.58918006  1
  O  O85  1  0.98272842  0.15357014  0.58902342  1
  O  O86  1  0.09324349  0.03387634  0.58845975  1
  O  O87  1  0.59397383  0.03582717  0.58735598  1
  O  O88  1  0.42304914  0.81365446  0.58808654  1
  O  O89  1  0.92406854  0.81523294  0.58933088  1
  O  O90  1  0.48318091  0.81246789  0.08832538  1
  O  O91  1  0.98407022  0.81460218  0.08797926  1
  O  O92  1  0.42294800  0.03113086  0.08832814  1
  O  O93  1  0.92298332  0.03285419  0.08817898  1
  O  O94  1  0.09215762  0.15286927  0.08716598  1
  O  O95  1  0.59371492  0.15330588  0.08839337  1
  O  O96  1  0.34007470  0.14019279  0.75230658  1
  O  O97  1  0.83978487  0.13985661  0.75237006  1
  O  O98  1  0.23338585  0.32984346  0.75124015  1
  O  O99  1  0.73323125  0.32920985  0.75142692  1
  O  O100  1  0.42485379  0.54528635  0.75045797  1
  O  O101  1  0.92505030  0.54489918  0.75076272  1
  O  O102  1  0.33012770  0.52640470  0.24801885  1
  O  O103  1  0.83627007  0.53245444  0.25153255  1
  O  O104  1  0.42735758  0.32495737  0.24415560  1
  O  O105  1  0.92882695  0.31725316  0.25326300  1
  O  O106  1  0.23407664  0.13607882  0.25148433  1
  O  O107  1  0.73383334  0.15046675  0.24643799  1
  O  O108  1  0.32656421  0.49952063  0.91736080  1
  O  O109  1  0.82638275  0.49898806  0.91770912  1
  O  O110  1  0.42257126  0.34491258  0.91860236  1
  O  O111  1  0.92276815  0.34584703  0.91811478  1
  O  O112  1  0.25069994  0.15376084  0.91822615  1
  O  O113  1  0.75016395  0.15426125  0.91846919  1
  O  O114  1  0.31908794  0.14803525  0.41858512  1
  O  O115  1  0.82269176  0.15073872  0.41900205  1
  O  O116  1  0.25364866  0.36040227  0.41957519  1
  O  O117  1  0.75713278  0.35671384  0.41823516  1
  O  O118  1  0.42182581  0.49207239  0.42043042  1
  O  O119  1  0.92463640  0.50031678  0.41808824  1
  O  O120  1  0.16677759  0.47555896  0.07487861  1
  O  O121  1  0.66956649  0.47687089  0.07680257  1
  O  O122  1  0.07070807  0.66586026  0.07532360  1
  O  O123  1  0.57041316  0.66536526  0.07553070  1
  O  O124  1  0.26142374  0.85932174  0.07635114  1
  O  O125  1  0.76207986  0.85916161  0.07559699  1
  O  O126  1  0.16648615  0.85814944  0.57765259  1
  O  O127  1  0.66747396  0.86052784  0.57764487  1
  O  O128  1  0.26110239  0.66177720  0.57737371  1
  O  O129  1  0.76276269  0.66422708  0.58004025  1
  O  O130  1  0.06987097  0.47509670  0.57807582  1
  O  O131  1  0.57059564  0.47512814  0.57704140  1
  O  O132  1  0.14748907  0.81819222  0.25613354  1
  O  O133  1  0.65458250  0.82263768  0.25421205  1
  O  O134  1  0.25778774  0.70777108  0.25349466  1
  O  O135  1  0.76100011  0.69903783  0.25737527  1
  O  O136  1  0.09065031  0.47178411  0.25708163  1
  O  O137  1  0.59272284  0.48161844  0.25339243  1
  O  O138  1  0.14984257  0.48074071  0.75699452  1
  O  O139  1  0.64984656  0.48056860  0.75701837  1
  O  O140  1  0.08876793  0.70379492  0.75748277  1
  O  O141  1  0.58866252  0.70372976  0.75742285  1
  O  O142  1  0.26333882  0.81423422  0.75731913  1
  O  O143  1  0.76330723  0.81412526  0.75739245  1
loop_
_geom_bond_atom_site_label_1
_geom_bond_atom_site_label_2
_geom_bond_distance
_geom_bond_site_symmetry_2
Na0 O106 2.362084 1_555
Na0 O134 2.403187 1_545
Na0 O104 2.509257 1_555
Na0 O32 2.607629 1_555
Na0 O132 2.740531 1_545
Na0 O62 2.814489 1_545
Na0 O18 2.850472 1_545
Na0 O4 2.948309 1_555
Na1 O103 2.370820 1_555
Na1 O107 2.433933 1_555
Na1 O137 2.461049 1_555
Na1 O35 2.599670 1_555
Na1 O135 2.698583 1_555
Na1 O65 2.814155 1_555
Na1 O21 2.907672 1_555
Na2 O98 2.322593 1_555
Na2 O142 2.378700 1_555
Na2 O100 2.389252 1_555
Na2 O138 2.645249 1_555
Na2 O28 2.684449 1_555
Na2 O70 2.718691 1_555
Na2 O12 2.909090 1_555
Na3 O99 2.325295 1_555
Na3 O143 2.381221 1_555
Na3 O101 2.393472 1_555
Na3 O29 2.603279 1_555
Na3 O139 2.645487 1_555
Na3 O71 2.727060 1_555
Na3 O13 2.909935 1_555
Na4 O130 2.380856 1_555
Na4 O56 2.454101 1_555
Na4 O86 2.465829 1_555
Na4 O128 2.535932 1_555
Na4 O85 2.724863 1_455
Na4 O42 2.795493 1_555
Na4 O14 2.813189 1_555
Na4 O28 2.991047 1_555
Na5 O131 2.360875 1_555
Na5 O87 2.464102 1_555
Na5 O57 2.487220 1_555
Na5 O129 2.545016 1_555
Na5 O84 2.721774 1_555
Na5 O15 2.827801 1_555
Na5 O43 2.878578 1_555
Na6 O126 2.367145 1_555
Na6 O89 2.458880 1_455
Na6 O58 2.468296 1_555
Na6 O130 2.579408 1_555
Na6 O86 2.718041 1_565
Na6 O45 2.751871 1_455
Na6 O16 2.802004 1_555
Na6 O25 2.926918 1_455
Na7 O127 2.374336 1_555
Na7 O88 2.483437 1_555
Na7 O59 2.493872 1_555
Na7 O131 2.568344 1_555
Na7 O87 2.743557 1_565
Na7 O17 2.806364 1_555
Na7 O44 2.836941 1_555
Na7 O24 2.907976 1_555
Na8 O128 2.381523 1_555
Na8 O84 2.494819 1_565
Na8 O54 2.527873 1_555
Na8 O126 2.552843 1_555
Na8 O88 2.720867 1_555
Na8 O46 2.789686 1_565
Na8 O12 2.878932 1_555
Na8 O26 2.933554 1_565
Na9 O129 2.391791 1_555
Na9 O85 2.450598 1_565
Na9 O55 2.453048 1_555
Na9 O127 2.568379 1_555
Na9 O89 2.722356 1_555
Na9 O47 2.798268 1_565
Na9 O13 2.861399 1_555
Na9 O27 2.929989 1_565
Na10 O122 2.364535 1_555
Na10 O52 2.477689 1_554
Na10 O94 2.486341 1_565
Na10 O124 2.552525 1_555
Na10 O91 2.701322 1_455
Na10 O36 2.811308 1_565
Na10 O22 2.833858 1_555
Na11 O123 2.382125 1_555
Na11 O95 2.469266 1_565
Na11 O53 2.505209 1_554
Na11 O125 2.559760 1_555
Na11 O90 2.728326 1_555
Na11 O37 2.782442 1_565
Na11 O23 2.831512 1_555
Na11 O33 2.884010 1_565
Na12 O124 2.388212 1_555
Na12 O90 2.475202 1_555
Na12 O120 2.559156 1_555
Na12 O48 2.559336 1_554
Na12 O92 2.708831 1_565
Na12 O38 2.813864 1_555
Na12 O18 2.884941 1_555
Na12 O34 2.903505 1_555
Na13 O125 2.371625 1_555
Na13 O91 2.480709 1_555
Na13 O121 2.527652 1_555
Na13 O49 2.542952 1_554
Na13 O93 2.709281 1_565
Na13 O39 2.805965 1_555
Na13 O19 2.833447 1_555
Na14 O120 2.372985 1_555
Na14 O93 2.473955 1_455
Na14 O50 2.482115 1_554
Na14 O122 2.566299 1_555
Na14 O94 2.718661 1_555
Na14 O41 2.793573 1_455
Na14 O20 2.840489 1_555
Na14 O31 2.912715 1_455
Na15 O121 2.400976 1_555
Na15 O92 2.487053 1_555
Na15 O51 2.499932 1_554
Na15 O123 2.566846 1_555
Na15 O95 2.724236 1_555
Na15 O21 2.745298 1_555
Na15 O40 2.798073 1_555
Na15 O30 2.898171 1_555
Na16 O77 2.308708 1_555
Na16 O115 2.523971 1_555
Na16 O1 2.539430 1_555
Na16 O73 2.579275 1_545
Na16 O117 2.619315 1_555
Na16 O63 2.771297 1_545
Na16 O43 2.822238 1_555
Na17 O73 2.391183 1_555
Na17 O2 2.472079 1_555
Na17 O74 2.472733 1_555
Na17 O116 2.506259 1_555
Na17 O118 2.594718 1_555
Na17 O64 2.790633 1_555
Na17 O44 2.949018 1_555
Na18 O72 2.526335 1_555
Na18 O76 2.559675 1_565
Na18 O75 2.571304 1_465
Na18 O86 2.662321 1_565
Na18 O89 2.673682 1_455
Na18 O85 2.698751 1_465
Na19 O74 2.426274 1_545
Na19 O77 2.429720 1_555
Na19 O73 2.589635 1_545
Na19 O84 2.641841 1_555
Na19 O87 2.725977 1_555
Na19 O88 2.755424 1_545
Na20 O78 2.564378 1_555
Na20 O83 2.567581 1_445
Na20 O80 2.569497 1_545
Na20 O94 2.607343 1_556
Na20 O91 2.632551 1_446
Na20 O93 2.640306 1_456
Na21 O81 2.569038 1_555
Na21 O82 2.570051 1_555
Na21 O79 2.572292 1_565
Na21 O92 2.635758 1_566
Na21 O95 2.636725 1_566
Na21 O90 2.638201 1_556
Na22 O112 2.444918 1_555
Na22 O110 2.455801 1_555
Na22 O96 2.501462 1_555
Na22 O108 2.560183 1_555
Na22 O98 2.643259 1_555
Na22 O100 2.665742 1_555
Na23 O111 2.446428 1_555
Na23 O113 2.450617 1_555
Na23 O97 2.502479 1_555
Na23 O109 2.562142 1_555
Na23 O99 2.640543 1_555
Na23 O101 2.660006 1_555
Na24 O106 2.520378 1_555
Na24 O102 2.528659 1_555
Na24 O118 2.581089 1_555
Na24 O104 2.592709 1_555
Na24 O114 2.607525 1_555
Na24 O116 2.609367 1_555
Na25 O105 2.382105 1_555
Na25 O119 2.474464 1_555
Na25 O103 2.530240 1_555
Na25 O115 2.582441 1_555
Na25 O117 2.626816 1_555
Na25 O107 2.675775 1_555
Na26 O134 2.489249 1_555
Na26 O136 2.511119 1_555
Na26 O132 2.590268 1_555
Na26 O120 2.694813 1_555
Na26 O122 2.716663 1_555
Na26 O124 2.789800 1_555
Na27 O133 2.421425 1_555
Na27 O137 2.530287 1_555
Na27 O135 2.619163 1_555
Na27 O123 2.681021 1_555
Na27 O125 2.691129 1_555
Na27 O121 2.794156 1_555
Na28 O140 2.501721 1_555
Na28 O138 2.566728 1_555
Na28 O142 2.603916 1_555
Na28 O126 2.672815 1_555
Na28 O130 2.677844 1_555
Na28 O128 2.794564 1_555
Na29 O141 2.502807 1_555
Na29 O139 2.558194 1_555
Na29 O143 2.601810 1_555
Na29 O127 2.691495 1_555
Na29 O131 2.693153 1_555
Na29 O129 2.760698 1_555
Ca0 O4 2.109552 1_555
Ca0 O1 2.168452 1_555
Ca0 O2 2.175166 1_545
Ca0 O74 2.231754 1_545
Ca0 O77 2.240458 1_555
Ca0 O73 2.272129 1_545
Ca1 O26 2.173453 1_555
Ca1 O24 2.179119 1_555
Ca1 O96 2.229250 1_555
Ca1 O28 2.262067 1_555
Ca1 O100 2.285249 1_555
Ca1 O98 2.291376 1_555
Ca2 O27 2.171536 1_555
Ca2 O25 2.172984 1_555
Ca2 O97 2.224292 1_555
Ca2 O29 2.254164 1_555
Ca2 O101 2.283018 1_555
Ca2 O99 2.286732 1_555
Ca3 O34 2.151308 1_555
Ca3 O30 2.183202 1_555
Ca3 O102 2.202815 1_555
Ca3 O104 2.229690 1_555
Ca3 O32 2.250957 1_555
Ca3 O106 2.313921 1_555
Ca4 O31 2.158794 1_555
Ca4 O33 2.179846 1_555
Ca4 O107 2.226369 1_555
Ca4 O105 2.239476 1_555
Ca4 O35 2.272332 1_555
Ca4 O103 2.309085 1_555
Ca5 O48 2.212920 1_554
Ca5 O52 2.219929 1_554
Ca5 O50 2.221877 1_554
Ca5 O122 2.311202 1_555
Ca5 O120 2.312606 1_555
Ca5 O124 2.322811 1_555
Ca6 O49 2.213537 1_554
Ca6 O51 2.219543 1_554
Ca6 O53 2.225106 1_554
Ca6 O123 2.312237 1_555
Ca6 O125 2.312439 1_555
Ca6 O121 2.339077 1_555
Ca7 O54 2.150328 1_555
Ca7 O58 2.207666 1_555
Ca7 O56 2.224779 1_555
Ca7 O130 2.259474 1_555
Ca7 O126 2.334007 1_555
Ca7 O128 2.366673 1_555
Ca8 O57 2.154512 1_555
Ca8 O59 2.175250 1_555
Ca8 O55 2.221268 1_555
Ca8 O129 2.295487 1_555
Ca8 O127 2.305547 1_555
Ca8 O131 2.327118 1_555
O0 P0 1.534717 1_545
O0 Sn0 2.000315 1_545
O1 P1 1.510597 1_545
O2 P2 1.512043 1_555
O3 P3 1.533941 1_555
O3 Sn0 2.001482 1_655
O4 P5 1.496999 1_555
O5 P4 1.534937 1_655
O5 Sn0 1.984448 1_645
O6 P6 1.527282 1_555
O6 Sn1 2.009663 1_555
O7 P7 1.527117 1_555
O7 Sn2 2.007670 1_555
O8 P9 1.535797 1_555
O8 Sn2 2.007965 1_565
O9 P8 1.535779 1_655
O9 Sn1 2.006996 1_665
O10 P10 1.530913 1_545
O10 Sn2 2.006156 1_555
O11 P11 1.530749 1_545
O11 Sn1 2.006289 1_655
O12 P10 1.600193 1_555
O12 Sn4 2.087166 1_565
O13 P11 1.598655 1_555
O13 Sn3 2.083496 1_665
O14 P6 1.586372 1_555
O14 Sn3 2.068407 1_555
O15 P7 1.586010 1_555
O15 Sn4 2.074929 1_555
O16 P8 1.589030 1_555
O16 Sn3 2.070625 1_565
O17 P9 1.591720 1_555
O17 Sn4 2.070236 1_565
O18 P2 1.618521 1_555
O18 Sn6 2.083453 1_555
O19 P3 1.583645 1_555
O19 Sn5 2.080214 1_565
O20 P4 1.588159 1_555
O20 Sn5 2.065461 1_455
O21 P5 1.613990 1_555
O21 Sn6 2.094765 1_545
O22 P0 1.583354 1_555
O22 Sn5 2.076783 1_465
O23 P1 1.606725 1_555
O23 Sn6 2.069736 1_555
O24 P12 1.509571 1_555
O25 P13 1.507087 1_555
O26 P14 1.509551 1_555
O27 P15 1.505815 1_555
O28 P16 1.518679 1_555
O29 P17 1.520114 1_555
O30 P18 1.499415 1_555
O31 P19 1.506145 1_555
O32 P20 1.515200 1_555
O33 P21 1.505539 1_555
O34 P22 1.501312 1_555
O35 P23 1.519385 1_555
O36 P22 1.583502 1_555
O36 Sn7 2.109820 1_554
O37 P23 1.584856 1_555
O37 Sn8 2.114311 1_554
O38 P18 1.589266 1_555
O38 Sn7 2.106077 1_554
O39 P19 1.584430 1_555
O39 Sn8 2.111922 1_554
O40 P20 1.585306 1_555
O40 Sn7 2.129817 1_554
O41 P21 1.586092 1_555
O41 Sn8 2.115434 1_554
O42 P14 1.583265 1_555
O42 Sn9 2.084353 1_555
O43 P15 1.592270 1_555
O43 Sn10 2.159639 1_555
O44 P16 1.591984 1_555
O44 Sn9 2.161132 1_555
O45 P17 1.581624 1_555
O45 Sn10 2.106314 1_555
O46 P12 1.584680 1_555
O46 Sn9 2.101164 1_555
O47 P13 1.584709 1_555
O47 Sn10 2.099197 1_555
O48 P24 1.510587 1_555
O49 P25 1.510186 1_555
O50 P26 1.509507 1_555
O51 P27 1.510242 1_555
O52 P28 1.508860 1_555
O53 P29 1.509755 1_555
O54 P30 1.521859 1_555
O55 P31 1.516668 1_555
O56 P32 1.517378 1_555
O57 P33 1.507331 1_555
O58 P34 1.515762 1_555
O59 P35 1.519453 1_555
O60 P34 1.557899 1_555
O60 Sn11 2.063616 1_555
O61 P35 1.571266 1_555
O61 Sn12 2.073040 1_555
O62 P30 1.587760 1_555
O62 Sn11 2.101032 1_555
O63 P31 1.572231 1_555
O63 Sn12 2.097400 1_555
O64 P32 1.571350 1_555
O64 Sn11 2.094902 1_555
O65 P33 1.586483 1_555
O65 Sn12 2.119471 1_555
O66 P26 1.569074 1_555
O66 Sn13 2.054012 1_555
O67 P27 1.569501 1_555
O67 Sn14 2.056596 1_555
O68 P28 1.571143 1_555
O68 Sn13 2.056569 1_555
O69 P29 1.571682 1_555
O69 Sn14 2.057844 1_555
O70 P24 1.583203 1_555
O70 Sn13 2.111640 1_555
O71 P25 1.583174 1_555
O71 Sn14 2.112761 1_555
O72 P34 1.566676 1_555
O72 Sn0 2.039254 1_555
O73 P35 1.541697 1_555
O74 P30 1.530008 1_555
O75 P31 1.556239 1_545
O75 Sn0 2.067518 1_645
O76 P32 1.555678 1_555
O76 Sn0 2.064823 1_545
O77 P33 1.533623 1_555
O78 P26 1.568687 1_555
O78 Sn1 2.032699 1_555
O79 P27 1.568142 1_555
O79 Sn2 2.033224 1_555
O80 P28 1.566825 1_555
O80 Sn1 2.030220 1_565
O81 P29 1.567108 1_555
O81 Sn2 2.031042 1_565
O82 P24 1.567213 1_555
O82 Sn2 2.048289 1_565
O83 P25 1.567395 1_555
O83 Sn1 2.049601 1_665
O84 P12 1.597330 1_555
O84 Sn4 2.121234 1_555
O85 P13 1.593670 1_555
O85 Sn3 2.135732 1_655
O86 P14 1.593364 1_555
O86 Sn3 2.126826 1_555
O87 P15 1.594775 1_555
O87 Sn4 2.139210 1_555
O88 P16 1.598931 1_555
O88 Sn4 2.154193 1_565
O89 P17 1.594000 1_555
O89 Sn3 2.136107 1_665
O90 P18 1.601065 1_555
O90 Sn6 2.137805 1_555
O91 P19 1.598584 1_555
O91 Sn5 2.140105 1_565
O92 P20 1.599473 1_555
O92 Sn6 2.157177 1_545
O93 P21 1.601132 1_555
O93 Sn5 2.139892 1_555
O94 P22 1.597159 1_555
O94 Sn5 2.144378 1_455
O95 P23 1.597890 1_555
O95 Sn6 2.152857 1_545
O96 P10 1.507407 1_545
O97 P11 1.507642 1_545
O98 P6 1.525179 1_555
O99 P7 1.525532 1_555
O100 P9 1.527050 1_555
O101 P8 1.526839 1_655
O102 P2 1.509740 1_555
O103 P3 1.526095 1_555
O104 P5 1.523723 1_555
O105 P4 1.512210 1_655
O106 P0 1.522491 1_545
O107 P1 1.531506 1_545
O108 P24 1.566458 1_555
O108 Sn7 2.109709 1_555
O109 P25 1.567047 1_555
O109 Sn8 2.110363 1_555
O110 P27 1.565764 1_555
O110 Sn7 2.101708 1_555
O111 P26 1.565161 1_655
O111 Sn8 2.102238 1_555
O112 P28 1.565662 1_545
O112 Sn7 2.101362 1_555
O113 P29 1.566032 1_545
O113 Sn8 2.102990 1_555
O114 P30 1.570004 1_545
O114 Sn9 2.065603 1_555
O115 P31 1.578770 1_545
O115 Sn10 2.133000 1_555
O116 P32 1.577326 1_555
O116 Sn9 2.130767 1_555
O117 P33 1.590767 1_555
O117 Sn10 2.084501 1_555
O118 P35 1.577735 1_555
O118 Sn9 2.097939 1_555
O119 P34 1.566629 1_655
O119 Sn10 2.077484 1_555
O120 P22 1.538735 1_555
O121 P23 1.538843 1_555
O122 P19 1.534653 1_455
O123 P18 1.538695 1_555
O124 P20 1.538538 1_565
O125 P21 1.536666 1_565
O126 P14 1.538848 1_565
O127 P15 1.539088 1_565
O128 P16 1.539147 1_555
O129 P17 1.536679 1_555
O130 P13 1.536647 1_455
O131 P12 1.535444 1_555
O132 P0 1.567669 1_555
O132 Sn11 2.104474 1_555
O133 P1 1.569473 1_555
O133 Sn12 2.094236 1_555
O134 P2 1.591358 1_555
O134 Sn11 2.119187 1_555
O135 P3 1.564420 1_555
O135 Sn12 2.110618 1_555
O136 P4 1.563653 1_555
O136 Sn11 2.071540 1_555
O137 P5 1.582167 1_555
O137 Sn12 2.121653 1_555
O138 P6 1.572855 1_555
O138 Sn13 2.125489 1_555
O139 P7 1.573746 1_555
O139 Sn14 2.126835 1_555
O140 P8 1.555719 1_555
O140 Sn13 2.105112 1_555
O141 P9 1.555646 1_555
O141 Sn14 2.108954 1_555
O142 P10 1.576636 1_555
O142 Sn13 2.146377 1_555
O143 P11 1.575963 1_555
O143 Sn14 2.146258 1_555
