# generated using pymatgen
data_Tb2MgCr2O8
_symmetry_space_group_name_H-M   'P 1'
_cell_length_a   5.04693272
_cell_length_b   5.15745891
_cell_length_c   8.20405670
_cell_angle_alpha   111.70442667
_cell_angle_beta   111.25553012
_cell_angle_gamma   80.14030321
_symmetry_Int_Tables_number   1
_chemical_formula_structural   Tb2MgCr2O8
_chemical_formula_sum   'Tb2 Mg1 Cr2 O8'
_cell_volume   184.73922834
_cell_formula_units_Z   1
loop_
 _symmetry_equiv_pos_site_id
 _symmetry_equiv_pos_as_xyz
  1  'x, y, z'
loop_
 _atom_site_type_symbol
 _atom_site_label
 _atom_site_symmetry_multiplicity
 _atom_site_fract_x
 _atom_site_fract_y
 _atom_site_fract_z
 _atom_site_occupancy
  Tb  Tb0  1  0.59810347  0.84797237  0.19500850  1
  Tb  Tb1  1  0.41971052  0.16969404  0.84035273  1
  Mg  Mg0  1  0.26503109  0.51615922  0.53447510  1
  Cr  Cr0  1  0.07125438  0.32116470  0.14192753  1
  Cr  Cr1  1  0.93318795  0.68326822  0.86758797  1
  O  O0  1  0.35644495  0.21009245  0.33022140  1
  O  O1  1  0.97369270  0.62133947  0.33079759  1
  O  O2  1  0.75259145  0.48345782  0.94930484  1
  O  O3  1  0.19625724  0.96459108  0.94880586  1
  O  O4  1  0.59621664  0.75968625  0.69113991  1
  O  O5  1  0.09240022  0.42740245  0.69041401  1
  O  O6  1  0.27386776  0.51916452  0.07012943  1
  O  O7  1  0.79624162  0.05100739  0.06983513  1
loop_
_geom_bond_atom_site_label_1
_geom_bond_atom_site_label_2
_geom_bond_distance
_geom_bond_site_symmetry_2
Mg0 O1 1.965775 1_455
Mg0 O0 1.966540 1_555
Mg0 O5 1.995802 1_555
Mg0 O4 1.997645 1_555
Cr0 O0 1.883135 1_555
Cr0 O1 1.886262 1_455
Cr0 O6 1.916943 1_555
Cr0 O7 1.917082 1_455
Cr0 O2 2.111638 1_454
Cr0 O3 2.112478 1_544
Cr1 O4 1.884296 1_555
Cr1 O5 1.888078 1_655
Cr1 O3 1.901349 1_655
Cr1 O2 1.902071 1_555
Cr1 O7 2.209723 1_566
Cr1 O6 2.214508 1_656
O0 Tb0 2.207844 1_545
O1 Tb0 2.207634 1_555
O2 Tb1 2.238865 1_555
O2 Tb0 2.457674 1_556
O3 Tb1 2.239350 1_565
O3 Tb0 2.462799 1_556
O4 Tb1 2.234850 1_565
O5 Tb1 2.234402 1_555
O6 Tb0 2.247882 1_555
O6 Tb1 2.320048 1_554
O7 Tb0 2.247138 1_545
O7 Tb1 2.321725 1_554
