# generated using pymatgen
data_Ba2PCl
_symmetry_space_group_name_H-M   'P 1'
_cell_length_a   8.04301748
_cell_length_b   8.04301744
_cell_length_c   8.04301745
_cell_angle_alpha   33.83674009
_cell_angle_beta   33.83673970
_cell_angle_gamma   33.83674330
_symmetry_Int_Tables_number   1
_chemical_formula_structural   Ba2PCl
_chemical_formula_sum   'Ba2 P1 Cl1'
_cell_volume   143.76163475
_cell_formula_units_Z   1
loop_
 _symmetry_equiv_pos_site_id
 _symmetry_equiv_pos_as_xyz
  1  'x, y, z'
loop_
 _atom_site_type_symbol
 _atom_site_label
 _atom_site_symmetry_multiplicity
 _atom_site_fract_x
 _atom_site_fract_y
 _atom_site_fract_z
 _atom_site_occupancy
  Ba  Ba0  1  0.75859317  0.75859317  0.75859317  1
  Ba  Ba1  1  0.24140683  0.24140683  0.24140683  1
  P  P0  1  0.50000000  0.50000000  0.50000000  1
  Cl  Cl0  1  0.00000000  0.00000000  -0.00000000  1
loop_
_geom_bond_atom_site_label_1
_geom_bond_atom_site_label_2
_geom_bond_distance
_geom_bond_site_symmetry_2
Ba0 P0 3.192105 1_556
Ba0 P0 3.192105 1_565
Ba0 P0 3.192105 1_655
Ba0 Cl0 3.415979 1_665
Ba0 Cl0 3.415979 1_656
Ba0 Cl0 3.415979 1_566
Ba1 P0 3.192105 1_554
Ba1 P0 3.192105 1_545
Ba1 P0 3.192105 1_455
Ba1 Cl0 3.415979 1_556
Ba1 Cl0 3.415979 1_565
Ba1 Cl0 3.415979 1_655
