# generated using pymatgen
data_MgCo6O7F5
_symmetry_space_group_name_H-M   'P 1'
_cell_length_a   5.17760570
_cell_length_b   5.49079228
_cell_length_c   8.58343485
_cell_angle_alpha   88.76473629
_cell_angle_beta   91.29634077
_cell_angle_gamma   107.53454928
_symmetry_Int_Tables_number   1
_chemical_formula_structural   MgCo6O7F5
_chemical_formula_sum   'Mg1 Co6 O7 F5'
_cell_volume   232.59418072
_cell_formula_units_Z   1
loop_
 _symmetry_equiv_pos_site_id
 _symmetry_equiv_pos_as_xyz
  1  'x, y, z'
loop_
 _atom_site_type_symbol
 _atom_site_label
 _atom_site_symmetry_multiplicity
 _atom_site_fract_x
 _atom_site_fract_y
 _atom_site_fract_z
 _atom_site_occupancy
  Mg  Mg0  1  0.49622808  0.00464331  0.32357407  1
  Co  Co0  1  0.02282691  0.98035458  0.00259777  1
  Co  Co1  1  -0.00052244  0.00543264  0.32858490  1
  Co  Co2  1  0.00701751  -0.00365238  0.67004827  1
  Co  Co3  1  0.49579068  0.50738715  0.15898679  1
  Co  Co4  1  0.49490043  0.50597049  0.83085443  1
  Co  Co5  1  0.50150510  0.50259492  0.50433601  1
  O  O0  1  0.16643184  0.87600851  0.17885994  1
  O  O1  1  0.32823133  0.29593711  0.33197399  1
  O  O2  1  0.31526389  0.31468432  -0.00050552  1
  O  O3  1  0.31058803  0.31382544  0.66357149  1
  O  O4  1  0.69148797  0.68934481  0.66409359  1
  O  O5  1  0.68667324  0.68946799  -0.00090852  1
  O  O6  1  0.66761501  0.71741155  0.33048295  1
  F  F0  1  0.18538339  0.83466069  0.84082515  1
  F  F1  1  0.18504150  0.85929467  0.47947007  1
  F  F2  1  0.81424634  0.15299731  0.17947751  1
  F  F3  1  0.84631731  0.13656128  0.84845218  1
  F  F4  1  0.81275087  0.14484962  0.47951191  1
loop_
_geom_bond_atom_site_label_1
_geom_bond_atom_site_label_2
_geom_bond_distance
_geom_bond_site_symmetry_2
Mg0 O6 2.028586 1_545
Mg0 O1 2.041098 1_555
Mg0 O0 2.042711 1_545
Co0 O0 1.827154 1_555
Co0 F3 1.920969 1_464
Co0 F0 1.944976 1_554
Co0 O5 1.976320 1_455
Co0 O2 1.997018 1_565
Co0 F2 2.263411 1_465
Co1 O0 1.834027 1_545
Co1 F2 1.892695 1_455
Co1 F1 1.899397 1_545
Co1 F4 1.935027 1_455
Co1 O1 1.950966 1_555
Co1 O6 1.953579 1_445
Co2 O4 1.963070 1_445
Co2 O3 1.964973 1_555
Co2 F3 2.030867 1_455
Co2 F0 2.041183 1_545
Co2 F1 2.151987 1_545
Co2 F4 2.171072 1_455
Co3 O5 1.807417 1_555
Co3 O2 1.809967 1_555
Co3 O1 1.918949 1_555
Co3 O6 1.919359 1_555
Co4 O2 1.862858 1_556
Co4 O5 1.865844 1_556
Co4 O3 1.866043 1_555
Co4 O4 1.866792 1_555
Co5 O4 1.814176 1_555
Co5 O3 1.817205 1_555
Co5 O1 1.918374 1_555
Co5 O6 1.930981 1_555
F1 Mg0 2.073685 1_565
F2 Mg0 2.035937 1_555
F4 Mg0 2.062745 1_555
