# generated using pymatgen
data_Na14Ta2Al6Si9(SO16)3
_symmetry_space_group_name_H-M   'P 1'
_cell_length_a   17.69624323
_cell_length_b   8.85958769
_cell_length_c   21.81612957
_cell_angle_alpha   89.82309371
_cell_angle_beta   90.22125356
_cell_angle_gamma   119.96916493
_symmetry_Int_Tables_number   1
_chemical_formula_structural   Na14Ta2Al6Si9(SO16)3
_chemical_formula_sum   'Na42 Ta6 Al18 Si27 S9 O144'
_cell_volume   2963.01709665
_cell_formula_units_Z   3
loop_
 _symmetry_equiv_pos_site_id
 _symmetry_equiv_pos_as_xyz
  1  'x, y, z'
loop_
 _atom_site_type_symbol
 _atom_site_label
 _atom_site_symmetry_multiplicity
 _atom_site_fract_x
 _atom_site_fract_y
 _atom_site_fract_z
 _atom_site_occupancy
  Na  Na0  1  0.81434383  0.99969375  0.24635248  1
  Na  Na1  1  0.68723687  0.37068386  0.24567791  1
  Na  Na2  1  0.50161525  0.62597682  0.24773223  1
  Na  Na3  1  0.31325492  0.62767771  0.74634297  1
  Na  Na4  1  0.99765637  0.36970741  0.74909048  1
  Na  Na5  1  0.18529313  0.00302383  0.74531987  1
  Na  Na6  1  0.15258576  0.33788970  0.58347337  1
  Na  Na7  1  0.65473708  0.34217542  0.58459836  1
  Na  Na8  1  0.01735741  0.69587289  0.58412445  1
  Na  Na9  1  0.51438568  0.68968741  0.58304960  1
  Na  Na10  1  0.32828058  0.97044765  0.58545220  1
  Na  Na11  1  0.83162206  0.96905189  0.58595941  1
  Na  Na12  1  0.15247549  0.96436229  0.08114659  1
  Na  Na13  1  0.65518507  0.96669358  0.07961611  1
  Na  Na14  1  0.33105184  0.69253885  0.08095312  1
  Na  Na15  1  0.82979332  0.69120261  0.08266189  1
  Na  Na16  1  0.01411339  0.33862236  0.07992429  1
  Na  Na17  1  0.51768171  0.34192541  0.07879723  1
  Na  Na18  1  0.48621941  0.66745238  0.91679939  1
  Na  Na19  1  0.98272045  0.65855201  0.91306393  1
  Na  Na20  1  0.35385266  0.04212439  0.91357985  1
  Na  Na21  1  0.85393493  0.04884375  0.91514891  1
  Na  Na22  1  0.16348827  0.29848487  0.91666548  1
  Na  Na23  1  0.66535569  0.29620593  0.92190970  1
  Na  Na24  1  0.48298194  0.31024751  0.41742925  1
  Na  Na25  1  0.98441605  0.30123046  0.42094642  1
  Na  Na26  1  0.16458635  0.03480441  0.42568688  1
  Na  Na27  1  0.66488828  0.02683646  0.42055708  1
  Na  Na28  1  0.35201943  0.65629991  0.42236367  1
  Na  Na29  1  0.85306730  0.66527908  0.41682076  1
  Na  Na30  1  0.00270196  0.00100478  0.50012407  1
  Na  Na31  1  0.50160415  0.99485259  0.49997084  1
  Na  Na32  1  0.00112346  0.00811320  0.99642975  1
  Na  Na33  1  0.50267776  0.00377430  0.99508484  1
  Na  Na34  1  0.34107024  0.33458192  0.82592838  1
  Na  Na35  1  0.83410046  0.32799877  0.82894244  1
  Na  Na36  1  0.33286398  0.33189247  0.33305823  1
  Na  Na37  1  0.84142844  0.34712493  0.32695535  1
  Na  Na38  1  0.16343761  0.66179662  0.16166752  1
  Na  Na39  1  0.66854785  0.66659120  0.16547394  1
  Na  Na40  1  0.16596868  0.66844487  0.66660279  1
  Na  Na41  1  0.66847364  0.67140456  0.66466233  1
  Ta  Ta0  1  0.99998597  0.99860713  0.64704347  1
  Ta  Ta1  1  0.49576963  0.99249807  0.64505427  1
  Ta  Ta2  1  0.99576450  0.99947743  0.14433910  1
  Ta  Ta3  1  0.50691125  0.01234503  0.14361998  1
  Ta  Ta4  1  0.15830316  0.64859210  0.31386412  1
  Ta  Ta5  1  0.66263780  0.67791372  0.81122709  1
  Al  Al0  1  0.00052590  0.99908920  0.35240543  1
  Al  Al1  1  0.50539278  0.00185770  0.34832673  1
  Al  Al2  1  0.00029132  0.01675897  0.84288953  1
  Al  Al3  1  0.50203837  0.00486688  0.85118793  1
  Al  Al4  1  0.33529102  0.33229540  0.68741146  1
  Al  Al5  1  0.83825099  0.33764108  0.68367741  1
  Al  Al6  1  0.33761734  0.31976824  0.17803628  1
  Al  Al7  1  0.83656420  0.33900521  0.18773155  1
  Al  Al8  1  0.34069593  0.33527358  0.98760950  1
  Al  Al9  1  0.83694140  0.32591676  0.98223583  1
  Al  Al10  1  0.33589997  0.34795517  0.48447647  1
  Al  Al11  1  0.84055124  0.34599495  0.49014508  1
  Al  Al12  1  0.16051882  0.64670046  0.02488109  1
  Al  Al13  1  0.65849412  0.66253716  0.02342662  1
  Al  Al14  1  0.15800115  0.65395746  0.52500138  1
  Al  Al15  1  0.66093560  0.67595807  0.52641713  1
  Al  Al16  1  0.65883639  0.65893536  0.30658380  1
  Al  Al17  1  0.15773222  0.65631493  0.80617334  1
  Si  Si0  1  0.64934599  0.00271537  0.25326709  1
  Si  Si1  1  0.85416904  0.70429005  0.25612243  1
  Si  Si2  1  0.99671432  0.28439486  0.25205711  1
  Si  Si3  1  0.49219398  0.28475085  0.25512899  1
  Si  Si4  1  0.14935502  0.29512688  0.75270997  1
  Si  Si5  1  0.99378726  0.70428903  0.75556239  1
  Si  Si6  1  0.49520379  0.70692587  0.75271684  1
  Si  Si7  1  0.35363774  0.00334272  0.75622725  1
  Si  Si8  1  0.85227987  0.00512761  0.75041595  1
  Si  Si9  1  0.47430040  0.33896376  0.58127330  1
  Si  Si10  1  0.97752467  0.33568037  0.58303295  1
  Si  Si11  1  0.19407503  0.04843780  0.58133066  1
  Si  Si12  1  0.69564030  0.05581161  0.58202486  1
  Si  Si13  1  0.32816658  0.61319150  0.58262285  1
  Si  Si14  1  0.82894193  0.61575828  0.58216565  1
  Si  Si15  1  0.47679333  0.61726382  0.08370765  1
  Si  Si16  1  0.97429783  0.60956144  0.08157542  1
  Si  Si17  1  0.32812285  0.03693211  0.08085923  1
  Si  Si18  1  0.82798674  0.04424178  0.08288942  1
  Si  Si19  1  0.19686318  0.33630809  0.08319419  1
  Si  Si20  1  0.69797821  0.34575041  0.08116544  1
  Si  Si21  1  0.02327572  0.37723599  0.91604463  1
  Si  Si22  1  0.51813343  0.37096459  0.92008753  1
  Si  Si23  1  0.66666824  0.96518865  0.92092906  1
  Si  Si24  1  0.16645069  0.36759807  0.42107532  1
  Si  Si25  1  0.01603313  0.66524032  0.42173190  1
  Si  Si26  1  0.52290888  0.66870612  0.41497266  1
  S  S0  1  0.14858042  0.00669948  0.25186801  1
  S  S1  1  0.35416064  0.71184466  0.25142291  1
  S  S2  1  0.64677235  0.28864361  0.75195363  1
  S  S3  1  0.30938690  0.66398476  0.91754782  1
  S  S4  1  0.81192767  0.66722093  0.91824166  1
  S  S5  1  0.16734519  0.95446873  0.91758860  1
  S  S6  1  0.31341736  0.95613184  0.41578613  1
  S  S7  1  0.80923764  0.95306474  0.41612767  1
  S  S8  1  0.66571189  0.37753452  0.41560950  1
  O  O0  1  0.10497955  0.02238038  0.30697375  1
  O  O1  1  0.60113158  0.03584035  0.31069299  1
  O  O2  1  0.40899131  0.79707475  0.30626995  1
  O  O3  1  0.91655526  0.80743311  0.31382147  1
  O  O4  1  0.48129553  0.16113150  0.31386453  1
  O  O5  1  0.98779403  0.16800537  0.31154399  1
  O  O6  1  0.10393847  0.16903924  0.81163098  1
  O  O7  1  0.60311512  0.18268507  0.80714998  1
  O  O8  1  0.48612888  0.80644832  0.81187043  1
  O  O9  1  0.98524546  0.80817647  0.81463138  1
  O  O10  1  0.41621321  0.02584792  0.81410822  1
  O  O11  1  0.91299796  0.03633660  0.81054744  1
  O  O12  1  0.39983778  0.96573584  0.69429163  1
  O  O13  1  0.89819565  0.97196389  0.68967164  1
  O  O14  1  0.08384163  0.20427359  0.69231656  1
  O  O15  1  0.59142076  0.21132995  0.69551249  1
  O  O16  1  0.01517882  0.83186753  0.69344429  1
  O  O17  1  0.51627143  0.83201851  0.69115770  1
  O  O18  1  0.39380540  0.81408871  0.19504383  1
  O  O19  1  0.90030094  0.83502418  0.19440889  1
  O  O20  1  0.01788440  0.20266144  0.19109310  1
  O  O21  1  0.51015659  0.19183556  0.19401154  1
  O  O22  1  0.09372401  0.97125107  0.19563013  1
  O  O23  1  0.58229044  0.96255066  0.19313097  1
  O  O24  1  0.43166993  0.37705168  0.63961119  1
  O  O25  1  0.93626434  0.37298740  0.64281909  1
  O  O26  1  0.25204436  0.13195675  0.64249413  1
  O  O27  1  0.75677736  0.14405947  0.64039941  1
  O  O28  1  0.31242610  0.49819306  0.64322567  1
  O  O29  1  0.80991389  0.48828911  0.64003636  1
  O  O30  1  0.43507238  0.50004498  0.14489519  1
  O  O31  1  0.93223973  0.48755369  0.14054747  1
  O  O32  1  0.30854902  0.11935813  0.14039847  1
  O  O33  1  0.81236875  0.12592636  0.14412123  1
  O  O34  1  0.25856676  0.36943212  0.14263319  1
  O  O35  1  0.75131456  0.36993894  0.14369158  1
  O  O36  1  0.23648912  0.29649641  0.02111964  1
  O  O37  1  0.73501551  0.29761912  0.02117594  1
  O  O38  1  0.41566775  0.54045205  0.02308844  1
  O  O39  1  0.91389481  0.53940556  0.02009551  1
  O  O40  1  0.35489009  0.16454780  0.02142512  1
  O  O41  1  0.85503553  0.16726005  0.02279224  1
  O  O42  1  0.23524962  0.17147271  0.52037786  1
  O  O43  1  0.73472666  0.17253927  0.51870169  1
  O  O44  1  0.35552858  0.54569816  0.52200446  1
  O  O45  1  0.85203787  0.54294667  0.51990825  1
  O  O46  1  0.41461973  0.29009658  0.51892921  1
  O  O47  1  0.91691697  0.29182422  0.52151624  1
  O  O48  1  0.27001586  0.69300888  0.97305010  1
  O  O49  1  0.77099069  0.69402303  0.97308848  1
  O  O50  1  0.08619118  0.46489544  0.97668829  1
  O  O51  1  0.58175068  0.46295343  0.97880738  1
  O  O52  1  0.15716940  0.84807635  0.97277198  1
  O  O53  1  0.64776164  0.83219889  0.97779034  1
  O  O54  1  0.27337005  0.84815600  0.47083685  1
  O  O55  1  0.77000414  0.84541847  0.47163645  1
  O  O56  1  0.14885287  0.46706202  0.47619166  1
  O  O57  1  0.65377082  0.45884353  0.47078958  1
  O  O58  1  0.08378586  0.70187132  0.47688401  1
  O  O59  1  0.58698902  0.70991851  0.47481941  1
  O  O60  1  0.06696284  0.63454377  0.36057971  1
  O  O61  1  0.56972513  0.63586111  0.35587408  1
  O  O62  1  0.25801577  0.87027185  0.36060325  1
  O  O63  1  0.75600422  0.86811102  0.36117790  1
  O  O64  1  0.18465586  0.50342565  0.36016747  1
  O  O65  1  0.67865271  0.48524804  0.36046595  1
  O  O66  1  0.07109073  0.50567418  0.85754139  1
  O  O67  1  0.56883948  0.50149158  0.86114808  1
  O  O68  1  0.18127832  0.87494944  0.86228325  1
  O  O69  1  0.68461096  0.86862561  0.86110968  1
  O  O70  1  0.25640223  0.64262899  0.86247834  1
  O  O71  1  0.75661520  0.64147868  0.86306588  1
  O  O72  1  0.01010927  0.84156849  0.41067849  1
  O  O73  1  0.50859770  0.84367335  0.40699130  1
  O  O74  1  0.40103114  0.97107715  0.41044253  1
  O  O75  1  0.89882006  0.97577232  0.41318658  1
  O  O76  1  0.07892625  0.17841572  0.40883898  1
  O  O77  1  0.58463228  0.20019910  0.41223027  1
  O  O78  1  0.01169494  0.17708643  0.90998353  1
  O  O79  1  0.50972215  0.17854841  0.91118078  1
  O  O80  1  0.08739253  0.96964169  0.91503986  1
  O  O81  1  0.57862154  0.97966379  0.90939496  1
  O  O82  1  0.39861667  0.81954491  0.91472102  1
  O  O83  1  0.89991294  0.82492603  0.91363062  1
  O  O84  1  0.48901173  0.16685044  0.58992338  1
  O  O85  1  0.98875264  0.16118661  0.58622357  1
  O  O86  1  0.09425107  0.02429068  0.58711303  1
  O  O87  1  0.59570994  0.03283381  0.58840649  1
  O  O88  1  0.41772392  0.81484755  0.58785201  1
  O  O89  1  0.91742582  0.81216810  0.58802554  1
  O  O90  1  0.48577115  0.81275139  0.08983117  1
  O  O91  1  0.98956856  0.81200738  0.09088578  1
  O  O92  1  0.41573857  0.01538395  0.09065154  1
  O  O93  1  0.91796102  0.02202642  0.08800900  1
  O  O94  1  0.09729419  0.15978435  0.08997050  1
  O  O95  1  0.59571749  0.16687386  0.08742627  1
  O  O96  1  0.34279283  0.17082061  0.74512225  1
  O  O97  1  0.84361965  0.17656298  0.74279622  1
  O  O98  1  0.24307888  0.30965651  0.74443477  1
  O  O99  1  0.73158445  0.30371518  0.74629516  1
  O  O100  1  0.40977301  0.52101470  0.74451312  1
  O  O101  1  0.90982126  0.51246303  0.74542411  1
  O  O102  1  0.34455531  0.53778751  0.24822550  1
  O  O103  1  0.84289984  0.51465448  0.24546553  1
  O  O104  1  0.40814183  0.31302516  0.24488758  1
  O  O105  1  0.91161447  0.30160270  0.24482534  1
  O  O106  1  0.23383155  0.16388230  0.24607669  1
  O  O107  1  0.74271538  0.17558199  0.24520688  1
  O  O108  1  0.31745560  0.50474881  0.92124925  1
  O  O109  1  0.81949261  0.50859984  0.92029738  1
  O  O110  1  0.42115747  0.35811247  0.92315600  1
  O  O111  1  0.92606529  0.36034076  0.92204438  1
  O  O112  1  0.24525035  0.13298036  0.92099690  1
  O  O113  1  0.75433443  0.15680839  0.92249660  1
  O  O114  1  0.32108216  0.12834556  0.41730004  1
  O  O115  1  0.81776423  0.12839234  0.41910385  1
  O  O116  1  0.25448535  0.35235637  0.42143735  1
  O  O117  1  0.74277213  0.35366624  0.41844181  1
  O  O118  1  0.42553511  0.49269482  0.42095562  1
  O  O119  1  0.92080420  0.48497376  0.42277064  1
  O  O120  1  0.18130935  0.50405743  0.07781324  1
  O  O121  1  0.67970691  0.50826219  0.07514509  1
  O  O122  1  0.07480030  0.64516225  0.07444484  1
  O  O123  1  0.57453093  0.64478244  0.07938983  1
  O  O124  1  0.24506227  0.84122222  0.07123821  1
  O  O125  1  0.74751369  0.84540900  0.07433980  1
  O  O126  1  0.18004544  0.85134467  0.57379850  1
  O  O127  1  0.68018462  0.85703320  0.57667749  1
  O  O128  1  0.24739395  0.64959668  0.57316137  1
  O  O129  1  0.74510590  0.64622650  0.57106385  1
  O  O130  1  0.07498830  0.50539993  0.57848567  1
  O  O131  1  0.57438397  0.50426901  0.57355438  1
  O  O132  1  0.15958147  0.84887177  0.25727044  1
  O  O133  1  0.65564325  0.82539673  0.25664965  1
  O  O134  1  0.26796829  0.70194946  0.25570793  1
  O  O135  1  0.75710136  0.68883137  0.26175746  1
  O  O136  1  0.08765718  0.48400068  0.25438694  1
  O  O137  1  0.58372444  0.47319874  0.25670455  1
  O  O138  1  0.15622565  0.48561116  0.75704826  1
  O  O139  1  0.65424943  0.46431420  0.75723837  1
  O  O140  1  0.08493693  0.69496049  0.75728248  1
  O  O141  1  0.58431108  0.68896781  0.75469328  1
  O  O142  1  0.25737453  0.82466570  0.76234347  1
  O  O143  1  0.75895259  0.81884540  0.75602415  1
loop_
_geom_bond_atom_site_label_1
_geom_bond_atom_site_label_2
_geom_bond_distance
_geom_bond_site_symmetry_2
Na0 O105 2.349163 1_565
Na0 O135 2.435953 1_555
Na0 O133 2.447895 1_555
Na0 O107 2.451226 1_565
Na0 O33 2.499842 1_565
Na0 O63 2.738547 1_555
Na0 O19 2.822584 1_555
Na1 O107 2.376416 1_555
Na1 O103 2.388471 1_555
Na1 O137 2.430039 1_555
Na1 O135 2.473379 1_555
Na1 O35 2.502657 1_555
Na1 O65 2.738089 1_555
Na1 O1 2.934072 1_555
Na1 O21 2.936670 1_555
Na2 O133 2.403261 1_555
Na2 O104 2.417788 1_555
Na2 O137 2.437780 1_555
Na2 O102 2.483164 1_555
Na2 O30 2.519371 1_555
Na2 O61 2.626833 1_555
Na2 O23 2.843752 1_555
Na3 O100 2.329205 1_555
Na3 O138 2.422708 1_555
Na3 O142 2.424085 1_555
Na3 O98 2.446848 1_555
Na3 O28 2.525055 1_555
Na3 O70 2.757516 1_555
Na3 O12 2.831109 1_555
Na4 O97 2.390778 1_555
Na4 O101 2.446318 1_555
Na4 O138 2.465206 1_655
Na4 O140 2.505124 1_655
Na4 O25 2.562795 1_555
Na4 O66 2.677234 1_655
Na4 O14 2.875326 1_655
Na4 O11 2.887171 1_555
Na5 O98 2.377099 1_555
Na5 O140 2.414088 1_545
Na5 O96 2.416352 1_555
Na5 O142 2.503686 1_545
Na5 O26 2.527639 1_555
Na5 O68 2.776086 1_545
Na5 O16 2.840119 1_545
Na5 O6 2.910937 1_555
Na6 O128 2.421156 1_555
Na6 O86 2.434145 1_555
Na6 O130 2.476650 1_555
Na6 O85 2.515190 1_455
Na6 O56 2.617183 1_555
Na6 O14 2.661932 1_555
Na6 O28 2.772478 1_555
Na6 O42 2.896779 1_555
Na7 O129 2.365561 1_555
Na7 O87 2.397558 1_555
Na7 O131 2.485492 1_555
Na7 O84 2.545081 1_555
Na7 O29 2.666801 1_555
Na7 O15 2.675863 1_555
Na7 O57 2.689758 1_555
Na7 O43 2.912661 1_555
Na8 O130 2.371620 1_555
Na8 O89 2.453193 1_455
Na8 O126 2.505539 1_555
Na8 O86 2.523254 1_565
Na8 O58 2.610815 1_555
Na8 O16 2.684389 1_555
Na8 O25 2.787918 1_455
Na8 O45 2.894327 1_455
Na9 O131 2.369622 1_555
Na9 O88 2.462448 1_555
Na9 O127 2.545948 1_555
Na9 O87 2.637613 1_565
Na9 O59 2.654937 1_555
Na9 O17 2.670105 1_555
Na9 O24 2.698041 1_555
Na9 O44 2.775325 1_555
Na10 O126 2.300080 1_555
Na10 O128 2.477468 1_555
Na10 O84 2.486317 1_565
Na10 O88 2.566575 1_555
Na10 O12 2.696712 1_555
Na10 O54 2.704913 1_555
Na10 O26 2.714544 1_565
Na10 O46 2.851225 1_565
Na11 O127 2.355330 1_555
Na11 O85 2.429109 1_565
Na11 O129 2.501380 1_555
Na11 O89 2.519338 1_555
Na11 O13 2.541133 1_555
Na11 O55 2.722467 1_555
Na11 O27 2.764780 1_565
Na11 O47 2.848085 1_565
Na12 O94 2.383448 1_565
Na12 O124 2.389861 1_555
Na12 O122 2.454723 1_555
Na12 O91 2.508626 1_455
Na12 O52 2.600066 1_554
Na12 O32 2.716441 1_565
Na12 O22 2.721580 1_555
Na12 O36 2.864357 1_565
Na13 O125 2.365084 1_555
Na13 O123 2.470684 1_555
Na13 O95 2.479860 1_565
Na13 O53 2.495919 1_554
Na13 O90 2.610743 1_555
Na13 O33 2.787338 1_565
Na13 O23 2.788366 1_555
Na13 O37 2.840750 1_565
Na14 O120 2.322390 1_555
Na14 O90 2.398348 1_555
Na14 O124 2.468618 1_555
Na14 O92 2.488096 1_565
Na14 O48 2.587061 1_554
Na14 O18 2.718187 1_555
Na14 O38 2.773475 1_555
Na14 O34 2.823396 1_555
Na15 O121 2.324979 1_555
Na15 O125 2.450174 1_555
Na15 O91 2.479104 1_555
Na15 O93 2.543710 1_565
Na15 O49 2.608482 1_554
Na15 O19 2.744269 1_555
Na15 O35 2.800780 1_555
Na15 O39 2.813080 1_555
Na16 O122 2.372422 1_555
Na16 O93 2.454569 1_455
Na16 O50 2.555764 1_554
Na16 O120 2.563707 1_555
Na16 O94 2.655307 1_555
Na16 O20 2.719996 1_555
Na16 O41 2.738218 1_455
Na16 O31 2.743151 1_455
Na17 O123 2.348411 1_555
Na17 O51 2.446170 1_554
Na17 O121 2.485703 1_555
Na17 O92 2.544744 1_555
Na17 O95 2.546281 1_555
Na17 O40 2.792232 1_555
Na17 O21 2.812258 1_555
Na17 O30 2.872916 1_555
Na18 O110 2.387942 1_555
Na18 O81 2.414850 1_555
Na18 O82 2.511382 1_555
Na18 O108 2.589752 1_555
Na18 O8 2.596378 1_555
Na18 O38 2.608534 1_556
Na18 O53 2.808374 1_555
Na18 O67 2.818873 1_555
Na19 O111 2.318579 1_555
Na19 O80 2.434915 1_655
Na19 O9 2.508910 1_555
Na19 O109 2.510331 1_555
Na19 O83 2.545272 1_555
Na19 O39 2.602356 1_556
Na19 O66 2.808581 1_655
Na19 O52 2.974898 1_655
Na20 O79 2.396210 1_555
Na20 O112 2.432364 1_555
Na20 O110 2.443360 1_555
Na20 O82 2.465148 1_545
Na20 O10 2.475338 1_555
Na20 O40 2.589938 1_556
Na20 O68 2.870076 1_545
Na20 O48 2.976016 1_545
Na21 O113 2.394725 1_555
Na21 O111 2.397873 1_555
Na21 O78 2.435196 1_655
Na21 O83 2.492360 1_545
Na21 O11 2.539275 1_555
Na21 O41 2.571046 1_556
Na21 O69 2.849941 1_545
Na22 O78 2.346296 1_555
Na22 O108 2.407849 1_555
Na22 O112 2.523908 1_555
Na22 O80 2.526519 1_545
Na22 O6 2.542957 1_555
Na22 O36 2.619500 1_556
Na22 O50 2.792843 1_555
Na22 O70 2.895072 1_555
Na23 O109 2.419630 1_555
Na23 O79 2.419693 1_555
Na23 O113 2.438707 1_555
Na23 O81 2.448729 1_545
Na23 O37 2.484698 1_556
Na23 O7 2.716666 1_555
Na23 O51 2.849790 1_555
Na23 O71 2.944429 1_555
Na24 O118 2.301135 1_555
Na24 O77 2.440020 1_555
Na24 O114 2.488491 1_555
Na24 O46 2.490208 1_555
Na24 O74 2.608305 1_545
Na24 O4 2.613339 1_555
Na24 O61 2.837188 1_555
Na24 O57 2.868777 1_555
Na25 O119 2.397984 1_555
Na25 O76 2.423668 1_655
Na25 O47 2.483389 1_555
Na25 O75 2.504935 1_545
Na25 O115 2.555670 1_555
Na25 O5 2.679969 1_555
Na25 O56 2.791296 1_655
Na25 O60 2.875718 1_655
Na26 O42 2.404179 1_555
Na26 O72 2.414942 1_545
Na26 O76 2.443660 1_555
Na26 O116 2.445925 1_555
Na26 O114 2.469780 1_555
Na26 O0 2.774310 1_555
Na26 O58 2.787613 1_545
Na27 O115 2.387050 1_555
Na27 O73 2.425492 1_545
Na27 O43 2.486153 1_555
Na27 O117 2.509706 1_555
Na27 O77 2.566071 1_555
Na27 O1 2.663056 1_555
Na27 O59 2.703765 1_545
Na27 O63 2.923732 1_545
Na28 O116 2.363753 1_555
Na28 O118 2.383047 1_555
Na28 O44 2.394981 1_555
Na28 O73 2.440105 1_555
Na28 O74 2.485559 1_555
Na28 O2 2.780393 1_555
Na28 O54 2.886278 1_555
Na28 O64 2.901714 1_555
Na29 O72 2.417775 1_655
Na29 O119 2.432292 1_555
Na29 O75 2.450093 1_555
Na29 O117 2.459489 1_555
Na29 O45 2.489657 1_555
Na29 O3 2.546762 1_555
Na29 O55 2.916658 1_555
Na29 O65 2.940474 1_555
Na30 O86 2.431762 1_555
Na30 O85 2.444007 1_455
Na30 O72 2.454430 1_545
Na30 O76 2.477753 1_555
Na30 O89 2.496782 1_445
Na30 O75 2.567441 1_445
Na31 O87 2.455229 1_565
Na31 O88 2.461803 1_555
Na31 O73 2.471481 1_555
Na31 O77 2.542099 1_565
Na31 O84 2.565909 1_565
Na31 O74 2.574475 1_555
Na32 O78 2.353359 1_555
Na32 O80 2.478735 1_545
Na32 O83 2.488735 1_445
Na32 O93 2.525485 1_456
Na32 O94 2.563552 1_556
Na32 O91 2.633055 1_446
Na33 O79 2.356941 1_555
Na33 O81 2.378058 1_545
Na33 O82 2.473625 1_545
Na33 O95 2.544135 1_556
Na33 O90 2.589106 1_546
Na33 O92 2.628409 1_556
Na34 O96 2.296529 1_555
Na34 O100 2.313734 1_555
Na34 O98 2.410948 1_555
Na34 O110 2.497112 1_555
Na34 O112 2.710257 1_555
Na34 O108 2.725339 1_555
Na35 O101 2.366193 1_555
Na35 O97 2.367339 1_555
Na35 O99 2.485072 1_555
Na35 O113 2.514497 1_555
Na35 O111 2.523546 1_555
Na35 O109 2.652543 1_555
Na36 O104 2.397245 1_555
Na36 O116 2.438901 1_555
Na36 O118 2.460598 1_555
Na36 O106 2.504671 1_555
Na36 O114 2.505991 1_555
Na36 O102 2.529929 1_555
Na37 O103 2.304268 1_555
Na37 O105 2.331908 1_555
Na37 O107 2.425326 1_555
Na37 O119 2.472493 1_555
Na37 O115 2.672794 1_555
Na37 O117 2.676487 1_555
Na38 O122 2.418817 1_555
Na38 O120 2.421049 1_555
Na38 O124 2.492794 1_555
Na38 O136 2.502419 1_555
Na38 O134 2.659912 1_555
Na38 O132 2.690202 1_555
Na39 O123 2.447304 1_555
Na39 O121 2.487334 1_555
Na39 O125 2.491131 1_555
Na39 O133 2.515943 1_555
Na39 O135 2.564256 1_555
Na39 O137 2.565669 1_555
Na40 O130 2.458456 1_555
Na40 O138 2.500170 1_555
Na40 O126 2.523349 1_555
Na40 O140 2.527121 1_555
Na40 O128 2.554393 1_555
Na40 O142 2.578711 1_555
Na41 O127 2.464780 1_555
Na41 O143 2.478817 1_555
Na41 O141 2.521154 1_555
Na41 O129 2.526812 1_555
Na41 O131 2.538704 1_555
Na41 O139 2.651084 1_555
Al0 O3 1.810575 1_455
Al0 O5 1.847185 1_465
Al0 O76 1.939454 1_565
Al0 O72 1.953558 1_555
Al0 O0 2.018287 1_565
Al0 O75 2.164620 1_455
Al1 O1 1.770510 1_555
Al1 O4 1.824951 1_555
Al1 O73 1.916513 1_545
Al1 O2 1.987393 1_545
Al1 O77 2.129785 1_555
Al1 O74 2.198937 1_545
Al2 O11 1.781219 1_455
Al2 O6 1.783571 1_555
Al2 O9 1.838499 1_445
Al2 O78 1.981174 1_555
Al2 O83 2.326889 1_445
Al2 O80 2.376488 1_545
Al3 O10 1.807558 1_555
Al3 O8 1.848847 1_545
Al3 O81 1.945849 1_545
Al3 O7 1.947546 1_555
Al3 O79 1.975157 1_555
Al3 O82 2.229314 1_545
Al4 O24 1.867915 1_555
Al4 O26 1.915219 1_555
Al4 O96 1.956199 1_555
Al4 O28 1.958470 1_555
Al4 O100 1.970560 1_555
Al4 O98 1.984384 1_555
Al5 O25 1.835362 1_555
Al5 O27 1.854894 1_555
Al5 O29 1.896422 1_555
Al5 O97 1.957595 1_555
Al5 O101 1.964054 1_555
Al5 O99 2.229369 1_555
Al6 O32 1.784562 1_555
Al6 O30 1.816182 1_555
Al6 O34 1.830725 1_555
Al6 O104 1.935988 1_555
Al6 O106 2.226696 1_555
Al6 O102 2.422939 1_555
Al7 O31 1.853962 1_555
Al7 O35 1.916852 1_555
Al7 O105 1.962007 1_555
Al7 O33 1.962821 1_555
Al7 O103 1.964024 1_555
Al7 O107 2.007299 1_555
Al8 O38 1.804152 1_556
Al8 O40 1.807325 1_556
Al8 O36 1.851753 1_556
Al8 O110 1.942008 1_555
Al8 O108 2.262388 1_555
Al8 O112 2.269275 1_555
Al9 O41 1.816856 1_556
Al9 O39 1.881963 1_556
Al9 O37 1.896480 1_556
Al9 O111 1.959019 1_555
Al9 O113 1.972158 1_555
Al9 O109 2.241280 1_555
Al10 O44 1.805234 1_555
Al10 O42 1.857823 1_555
Al10 O46 1.863122 1_555
Al10 O116 2.002271 1_555
Al10 O118 2.013620 1_555
Al10 O114 2.346704 1_555
Al11 O45 1.777432 1_555
Al11 O47 1.778700 1_555
Al11 O43 1.839736 1_555
Al11 O119 1.987804 1_555
Al11 O115 2.349096 1_555
Al11 O117 2.354052 1_555
Al12 O50 1.820171 1_554
Al12 O122 1.860717 1_555
Al12 O120 1.875681 1_555
Al12 O124 1.911619 1_555
Al12 O48 2.102705 1_554
Al12 O52 2.138110 1_554
Al13 O123 1.871460 1_555
Al13 O51 1.876117 1_554
Al13 O53 1.887121 1_554
Al13 O121 1.944725 1_555
Al13 O125 1.946273 1_555
Al13 O49 2.169598 1_554
Al14 O130 1.823143 1_555
Al14 O58 1.884295 1_555
Al14 O56 1.908813 1_555
Al14 O128 1.912020 1_555
Al14 O126 1.915828 1_555
Al14 O54 2.240841 1_555
Al15 O127 1.831382 1_555
Al15 O131 1.841756 1_555
Al15 O59 1.857390 1_555
Al15 O129 1.901551 1_555
Al15 O55 2.125864 1_555
Al15 O57 2.226756 1_555
Al16 O61 1.836982 1_555
Al16 O133 1.854118 1_555
Al16 O137 1.863702 1_555
Al16 O135 1.897826 1_555
Al16 O65 2.097006 1_555
Al16 O63 2.150308 1_555
Al17 O140 1.828150 1_555
Al17 O66 1.829623 1_555
Al17 O138 1.845548 1_555
Al17 O142 1.903899 1_555
Al17 O68 2.151372 1_555
Al17 O70 2.183214 1_555
O0 S0 1.474849 1_555
O1 Si0 1.626138 1_555
O2 S1 1.485938 1_555
O3 Si1 1.620750 1_555
O4 Si3 1.631211 1_555
O5 Si2 1.613421 1_555
O6 Si4 1.627356 1_555
O7 S2 1.484511 1_555
O8 Si6 1.618247 1_555
O9 Si5 1.636596 1_555
O10 Si7 1.621931 1_555
O11 Si8 1.626781 1_555
O12 Si7 1.699591 1_565
O12 Ta1 1.924159 1_555
O13 Si8 1.658900 1_565
O13 Ta0 1.937027 1_555
O14 Si4 1.670435 1_555
O14 Ta0 1.948360 1_445
O15 S2 1.506778 1_555
O15 Ta1 2.134444 1_545
O16 Si5 1.680594 1_455
O16 Ta0 1.914345 1_455
O17 Si6 1.659136 1_555
O17 Ta1 1.915313 1_555
O18 S1 1.480015 1_555
O18 Ta3 2.200628 1_565
O19 Si1 1.695535 1_555
O19 Ta2 1.927498 1_555
O20 Si2 1.647551 1_455
O20 Ta2 1.933477 1_445
O21 Si3 1.681658 1_555
O21 Ta3 1.913036 1_555
O22 S0 1.494942 1_565
O22 Ta2 2.176259 1_455
O23 Si0 1.680743 1_565
O23 Ta3 1.927314 1_565
O24 Si9 1.602238 1_555
O25 Si10 1.610807 1_555
O26 Si11 1.617876 1_555
O27 Si12 1.598130 1_555
O28 Si13 1.604561 1_555
O29 Si14 1.611603 1_555
O30 Si15 1.624352 1_555
O31 Si16 1.603934 1_555
O32 Si17 1.613224 1_555
O33 Si18 1.610353 1_555
O34 Si19 1.622095 1_555
O35 Si20 1.608501 1_555
O36 Si19 1.645433 1_555
O37 Si20 1.616635 1_555
O38 Si15 1.625175 1_555
O39 Si16 1.630387 1_555
O40 Si17 1.626206 1_555
O41 Si18 1.615782 1_555
O42 Si11 1.640845 1_555
O43 Si12 1.655377 1_555
O44 Si13 1.624810 1_555
O45 Si14 1.643480 1_555
O46 Si9 1.639651 1_555
O47 Si10 1.636510 1_555
O48 S3 1.484962 1_555
O49 S4 1.480951 1_555
O50 Si21 1.650514 1_555
O51 Si22 1.628288 1_555
O52 S5 1.481669 1_555
O53 Si23 1.624604 1_555
O54 S6 1.477130 1_555
O55 S7 1.481859 1_555
O56 Si24 1.613362 1_555
O57 S8 1.473821 1_555
O58 Si25 1.610304 1_555
O59 Si26 1.643694 1_555
O60 Si25 1.709526 1_555
O60 Ta4 1.864886 1_555
O61 Si26 1.638525 1_555
O62 S6 1.496865 1_555
O62 Ta4 2.132309 1_555
O63 S7 1.476313 1_555
O64 Si24 1.709869 1_555
O64 Ta4 1.865353 1_555
O65 S8 1.478880 1_555
O66 Si21 1.636219 1_555
O67 Si22 1.660980 1_555
O67 Ta5 1.948277 1_555
O68 S5 1.481208 1_555
O69 Si23 1.678479 1_555
O69 Ta5 1.882026 1_555
O70 S3 1.474375 1_555
O71 S4 1.492857 1_555
O71 Ta5 2.160662 1_555
O72 Si25 1.634222 1_555
O73 Si26 1.699290 1_555
O74 S6 1.493710 1_555
O75 S7 1.496582 1_555
O76 Si24 1.638730 1_555
O77 S8 1.510054 1_555
O78 Si21 1.685838 1_555
O79 Si22 1.647520 1_555
O80 S5 1.487400 1_555
O81 Si23 1.644332 1_555
O82 S3 1.490843 1_555
O83 S4 1.487778 1_555
O84 Si9 1.680181 1_555
O84 Ta1 2.004727 1_545
O85 Si10 1.655407 1_555
O85 Ta0 2.036419 1_545
O86 Si11 1.675180 1_555
O86 Ta0 2.044424 1_445
O87 Si12 1.682290 1_555
O87 Ta1 2.040970 1_545
O88 Si13 1.699312 1_555
O88 Ta1 1.941417 1_555
O89 Si14 1.665474 1_555
O89 Ta0 2.026885 1_555
O90 Si15 1.664050 1_555
O90 Ta3 1.998106 1_565
O91 Si16 1.687847 1_555
O91 Ta2 1.989865 1_555
O92 Si17 1.667018 1_555
O92 Ta3 1.991976 1_555
O93 Si18 1.702325 1_555
O93 Ta2 1.925095 1_545
O94 Si19 1.679248 1_555
O94 Ta2 2.027009 1_445
O95 Si20 1.714735 1_555
O95 Ta3 1.924045 1_555
O96 Si7 1.605945 1_555
O97 Si8 1.608978 1_555
O98 Si4 1.608991 1_555
O99 S2 1.444557 1_555
O100 Si6 1.594514 1_555
O101 Si5 1.619242 1_555
O102 S1 1.466441 1_555
O103 Si1 1.607437 1_555
O104 Si3 1.641458 1_555
O105 Si2 1.594805 1_555
O106 S0 1.460359 1_555
O107 Si0 1.605916 1_555
O108 S3 1.489168 1_555
O109 S4 1.477285 1_555
O110 Si22 1.663760 1_555
O111 Si21 1.656258 1_655
O112 S5 1.492992 1_545
O113 Si23 1.630547 1_545
O114 S6 1.463181 1_545
O115 S7 1.485330 1_545
O116 Si24 1.629530 1_555
O117 S8 1.481727 1_555
O118 Si26 1.653451 1_555
O119 Si25 1.643855 1_655
O120 Si19 1.644888 1_555
O121 Si20 1.630455 1_555
O122 Si16 1.651726 1_455
O123 Si15 1.624690 1_555
O124 Si17 1.632367 1_565
O125 Si18 1.630836 1_565
O126 Si11 1.645013 1_565
O127 Si12 1.646107 1_565
O128 Si13 1.627158 1_555
O129 Si14 1.652109 1_555
O130 Si10 1.629399 1_455
O131 Si9 1.649056 1_555
O132 S0 1.509227 1_565
O132 Ta4 2.149407 1_555
O133 Si0 1.630930 1_565
O134 S1 1.486729 1_555
O134 Ta4 2.167513 1_555
O135 Si1 1.658604 1_555
O136 Si2 1.696018 1_455
O136 Ta4 1.884361 1_555
O137 Si3 1.646326 1_555
O138 Si4 1.633302 1_555
O139 S2 1.499444 1_555
O139 Ta5 2.173076 1_555
O140 Si5 1.656119 1_455
O141 Si6 1.662454 1_555
O141 Ta5 1.890411 1_555
O142 Si7 1.652856 1_565
O143 Si8 1.656353 1_565
O143 Ta5 1.948027 1_555
