# generated using pymatgen
data_BaDy2CuO5
_symmetry_space_group_name_H-M   'P 1'
_cell_length_a   5.70539300
_cell_length_b   7.23371500
_cell_length_c   12.26568800
_cell_angle_alpha   90.00000000
_cell_angle_beta   90.00000000
_cell_angle_gamma   90.00000000
_symmetry_Int_Tables_number   1
_chemical_formula_structural   BaDy2CuO5
_chemical_formula_sum   'Ba4 Dy8 Cu4 O20'
_cell_volume   506.21950221
_cell_formula_units_Z   4
loop_
 _symmetry_equiv_pos_site_id
 _symmetry_equiv_pos_as_xyz
  1  'x, y, z'
loop_
 _atom_site_type_symbol
 _atom_site_label
 _atom_site_symmetry_multiplicity
 _atom_site_fract_x
 _atom_site_fract_y
 _atom_site_fract_z
 _atom_site_occupancy
  Ba  Ba0  1  0.25000000  0.56654100  0.40392800  1
  Ba  Ba1  1  0.75000000  0.43345900  0.59607200  1
  Ba  Ba2  1  0.75000000  0.06654100  0.09607200  1
  Ba  Ba3  1  0.25000000  0.93345900  0.90392800  1
  Dy  Dy0  1  0.25000000  0.10424900  0.57369400  1
  Dy  Dy1  1  0.75000000  0.89575100  0.42630600  1
  Dy  Dy2  1  0.75000000  0.60424900  0.92630600  1
  Dy  Dy3  1  0.25000000  0.39575100  0.07369400  1
  Dy  Dy4  1  0.25000000  0.38879000  0.78679900  1
  Dy  Dy5  1  0.75000000  0.61121000  0.21320100  1
  Dy  Dy6  1  0.75000000  0.88879000  0.71320100  1
  Dy  Dy7  1  0.25000000  0.11121000  0.28679900  1
  Cu  Cu0  1  0.25000000  0.78026900  0.16066200  1
  Cu  Cu1  1  0.75000000  0.21973100  0.83933800  1
  Cu  Cu2  1  0.75000000  0.28026900  0.33933800  1
  Cu  Cu3  1  0.25000000  0.71973100  0.66066200  1
  O  O0  1  0.25000000  0.41698900  0.59941600  1
  O  O1  1  0.75000000  0.58301100  0.40058400  1
  O  O2  1  0.75000000  0.91698900  0.90058400  1
  O  O3  1  0.25000000  0.08301100  0.09941600  1
  O  O4  1  0.00372200  0.85337500  0.27197700  1
  O  O5  1  0.50372200  0.14662500  0.72802300  1
  O  O6  1  0.99627800  0.35337500  0.22802300  1
  O  O7  1  0.49627800  0.64662500  0.77197700  1
  O  O8  1  0.99627800  0.14662500  0.72802300  1
  O  O9  1  0.49627800  0.85337500  0.27197700  1
  O  O10  1  0.00372200  0.64662500  0.77197700  1
  O  O11  1  0.50372200  0.35337500  0.22802300  1
  O  O12  1  0.49459100  0.66052000  0.06834500  1
  O  O13  1  0.99459100  0.33948000  0.93165500  1
  O  O14  1  0.50540900  0.16051900  0.43165500  1
  O  O15  1  0.00540900  0.83948000  0.56834500  1
  O  O16  1  0.99459100  0.16051900  0.43165500  1
  O  O17  1  0.49459100  0.83948000  0.56834500  1
  O  O18  1  0.00540900  0.66052000  0.06834500  1
  O  O19  1  0.50540900  0.33948000  0.93165500  1
loop_
_geom_bond_atom_site_label_1
_geom_bond_atom_site_label_2
_geom_bond_distance
_geom_bond_site_symmetry_2
Ba0 O0 2.630541 1_555
Ba0 O1 2.855478 1_555
Ba0 O1 2.855478 1_455
Ba0 O4 2.983101 1_555
Ba0 O9 2.983101 1_555
Ba0 O11 3.021329 1_555
Ba0 O6 3.021329 1_455
Ba0 O17 3.148416 1_555
Ba0 O15 3.148416 1_555
Ba0 O14 3.296266 1_555
Ba0 O16 3.296266 1_455
Ba1 O1 2.630541 1_555
Ba1 O0 2.855478 1_555
Ba1 O0 2.855478 1_655
Ba1 O8 2.983101 1_555
Ba1 O5 2.983101 1_555
Ba1 O10 3.021329 1_655
Ba1 O7 3.021329 1_555
Ba1 O14 3.148421 1_555
Ba1 O16 3.148421 1_555
Ba1 O17 3.296259 1_555
Ba1 O15 3.296259 1_655
Ba2 O2 2.630541 1_544
Ba2 O3 2.855478 1_655
Ba2 O3 2.855478 1_555
Ba2 O11 2.983101 1_555
Ba2 O6 2.983101 1_555
Ba2 O4 3.021329 1_645
Ba2 O9 3.021329 1_545
Ba2 O19 3.148416 1_554
Ba2 O13 3.148416 1_554
Ba2 O18 3.296259 1_645
Ba2 O12 3.296259 1_545
Ba3 O3 2.630541 1_566
Ba3 O2 2.855478 1_555
Ba3 O2 2.855478 1_455
Ba3 O7 2.983101 1_555
Ba3 O10 2.983101 1_555
Ba3 O5 3.021329 1_565
Ba3 O8 3.021329 1_465
Ba3 O12 3.148416 1_556
Ba3 O18 3.148416 1_556
Ba3 O19 3.296259 1_565
Ba3 O13 3.296259 1_465
Dy0 O0 2.284166 1_555
Dy0 O14 2.307471 1_555
Dy0 O16 2.307471 1_455
Dy0 O17 2.370638 1_545
Dy0 O15 2.370638 1_545
Dy0 O5 2.402650 1_555
Dy0 O8 2.402650 1_455
Dy1 O1 2.284166 1_555
Dy1 O15 2.307472 1_655
Dy1 O17 2.307472 1_555
Dy1 O16 2.370632 1_565
Dy1 O14 2.370632 1_565
Dy1 O9 2.402650 1_555
Dy1 O4 2.402650 1_655
Dy2 O2 2.284166 1_555
Dy2 O12 2.307472 1_556
Dy2 O18 2.307472 1_656
Dy2 O13 2.370638 1_555
Dy2 O19 2.370638 1_555
Dy2 O7 2.402650 1_555
Dy2 O10 2.402650 1_655
Dy3 O3 2.284166 1_555
Dy3 O13 2.307472 1_454
Dy3 O19 2.307472 1_554
Dy3 O18 2.370638 1_555
Dy3 O12 2.370638 1_555
Dy3 O11 2.402650 1_555
Dy3 O6 2.402650 1_455
Dy4 O0 2.307416 1_555
Dy4 O13 2.325416 1_455
Dy4 O19 2.325416 1_555
Dy4 O7 2.342223 1_555
Dy4 O10 2.342223 1_555
Dy4 O5 2.384087 1_555
Dy4 O8 2.384087 1_455
Dy5 O1 2.307416 1_555
Dy5 O12 2.325416 1_555
Dy5 O18 2.325416 1_655
Dy5 O11 2.342223 1_555
Dy5 O6 2.342223 1_555
Dy5 O4 2.384087 1_655
Dy5 O9 2.384087 1_555
Dy6 O2 2.307416 1_555
Dy6 O17 2.325416 1_555
Dy6 O15 2.325416 1_655
Dy6 O8 2.342223 1_565
Dy6 O5 2.342223 1_565
Dy6 O7 2.384087 1_555
Dy6 O10 2.384087 1_655
Dy7 O3 2.307416 1_555
Dy7 O14 2.325415 1_555
Dy7 O16 2.325415 1_455
Dy7 O9 2.342223 1_545
Dy7 O4 2.342223 1_545
Dy7 O6 2.384087 1_455
Dy7 O11 2.384087 1_555
Cu0 O18 1.994973 1_555
Cu0 O12 1.994973 1_555
Cu0 O9 2.029334 1_555
Cu0 O4 2.029334 1_555
Cu0 O3 2.315214 1_565
Cu1 O19 1.994973 1_555
Cu1 O13 1.994973 1_555
Cu1 O5 2.029334 1_555
Cu1 O8 2.029334 1_555
Cu1 O2 2.315214 1_545
Cu2 O16 1.994976 1_555
Cu2 O14 1.994976 1_555
Cu2 O11 2.029334 1_555
Cu2 O6 2.029334 1_555
Cu2 O1 2.315214 1_555
Cu3 O17 1.994973 1_555
Cu3 O15 1.994973 1_555
Cu3 O10 2.029334 1_555
Cu3 O7 2.029334 1_555
Cu3 O0 2.315214 1_555
