# generated using pymatgen
data_Na4CaSn3(PO4)6
_symmetry_space_group_name_H-M   'P 1'
_cell_length_a   8.95970193
_cell_length_b   8.95561831
_cell_length_c   22.77435682
_cell_angle_alpha   90.07599263
_cell_angle_beta   89.96765504
_cell_angle_gamma   119.85670485
_symmetry_Int_Tables_number   1
_chemical_formula_structural   Na4CaSn3(PO4)6
_chemical_formula_sum   'Na12 Ca3 Sn9 P18 O72'
_cell_volume   1584.85958254
_cell_formula_units_Z   3
loop_
 _symmetry_equiv_pos_site_id
 _symmetry_equiv_pos_as_xyz
  1  'x, y, z'
loop_
 _atom_site_type_symbol
 _atom_site_label
 _atom_site_symmetry_multiplicity
 _atom_site_fract_x
 _atom_site_fract_y
 _atom_site_fract_z
 _atom_site_occupancy
  Na  Na0  1  0.64607090  0.01172807  0.24571940  1
  Na  Na1  1  0.36698214  0.35438039  0.24542777  1
  Na  Na2  1  0.98808718  0.63331863  0.24523726  1
  Na  Na3  1  0.98805794  0.36221506  0.74351938  1
  Na  Na4  1  0.37613962  0.00834279  0.74374594  1
  Na  Na5  1  0.70763184  0.67714860  0.41664024  1
  Na  Na6  1  0.01320971  0.01390338  0.49860224  1
  Na  Na7  1  0.00007434  0.00006851  0.00228130  1
  Na  Na8  1  0.66548688  0.34684744  0.83368141  1
  Na  Na9  1  0.66580019  0.32054172  0.33422237  1
  Na  Na10  1  0.33317541  0.66670667  0.15925089  1
  Na  Na11  1  0.34724566  0.66518676  0.66049500  1
  Ca  Ca0  1  0.00796990  0.00858684  0.35721285  1
  Ca  Ca1  1  0.66584746  0.34176730  0.68191608  1
  Ca  Ca2  1  0.66697557  0.33415753  0.17363874  1
  Sn  Sn0  1  0.99767094  0.99700690  0.85672770  1
  Sn  Sn1  1  0.99652131  0.99630095  0.64538143  1
  Sn  Sn2  1  0.00067459  0.00056683  0.14603626  1
  Sn  Sn3  1  0.66697962  0.33272976  0.98416039  1
  Sn  Sn4  1  0.66609893  0.32818474  0.48600222  1
  Sn  Sn5  1  0.33302232  0.66653879  0.01539756  1
  Sn  Sn6  1  0.32895003  0.66667264  0.51975280  1
  Sn  Sn7  1  0.33076762  0.66700249  0.31874948  1
  Sn  Sn8  1  0.33765562  0.66572763  0.81798218  1
  P  P0  1  0.29319004  0.99318720  0.24989985  1
  P  P1  1  0.70014680  0.70728838  0.25267357  1
  P  P2  1  0.00604409  0.29934092  0.25024513  1
  P  P3  1  0.28152776  0.28893302  0.75326185  1
  P  P4  1  0.00710899  0.71489889  0.75387273  1
  P  P5  1  0.70780263  0.98975832  0.75257097  1
  P  P6  1  0.96947190  0.33162420  0.58506162  1
  P  P7  1  0.36288494  0.03113507  0.58513087  1
  P  P8  1  0.66755949  0.63792666  0.58082283  1
  P  P9  1  0.97278367  0.63960111  0.08235027  1
  P  P10  1  0.66663566  0.02704787  0.08244844  1
  P  P11  1  0.36027389  0.33306198  0.08236193  1
  P  P12  1  0.62781333  0.66298496  0.91731731  1
  P  P13  1  0.03583090  0.37243087  0.91595821  1
  P  P14  1  0.33693137  0.96466812  0.91609388  1
  P  P15  1  0.61751940  0.96353100  0.41870738  1
  P  P16  1  0.34422481  0.37942918  0.42006957  1
  P  P17  1  0.03223862  0.65324156  0.41921119  1
  O  O0  1  0.21544508  0.02459091  0.30355180  1
  O  O1  1  0.80028543  0.77967305  0.30900232  1
  O  O2  1  0.97267848  0.18930730  0.30371164  1
  O  O3  1  0.19549490  0.17756968  0.80827796  1
  O  O4  1  0.98492561  0.80028403  0.80949009  1
  O  O5  1  0.82020473  0.01838300  0.80756173  1
  O  O6  1  0.78903557  0.96291303  0.69631373  1
  O  O7  1  0.16564941  0.20897955  0.69795687  1
  O  O8  1  0.04134312  0.83011990  0.69830124  1
  O  O9  1  0.78791019  0.82891731  0.19798663  1
  O  O10  1  0.04368913  0.21886999  0.19404651  1
  O  O11  1  0.17585906  0.95723862  0.19380490  1
  O  O12  1  0.90402842  0.35954380  0.64313177  1
  O  O13  1  0.45677649  0.09551101  0.64314522  1
  O  O14  1  0.63654211  0.53347886  0.63553007  1
  O  O15  1  0.91300127  0.55005458  0.14118724  1
  O  O16  1  0.63713756  0.08770962  0.14125828  1
  O  O17  1  0.44998290  0.36313328  0.14127568  1
  O  O18  1  0.45642445  0.30552763  0.02947686  1
  O  O19  1  0.84948447  0.54381375  0.02951794  1
  O  O20  1  0.69499349  0.15016401  0.02939762  1
  O  O21  1  0.45472676  0.15038964  0.53105900  1
  O  O22  1  0.69455517  0.55440130  0.52354164  1
  O  O23  1  0.85059727  0.30559147  0.53104324  1
  O  O24  1  0.54337860  0.69505527  0.97057984  1
  O  O25  1  0.15525109  0.46066321  0.96825437  1
  O  O26  1  0.30657695  0.84560411  0.96834468  1
  O  O27  1  0.51988695  0.84371002  0.46976815  1
  O  O28  1  0.32963360  0.47986715  0.47184721  1
  O  O29  1  0.14811949  0.67395781  0.47111934  1
  O  O30  1  0.10932356  0.63051468  0.35928057  1
  O  O31  1  0.51687966  0.88875114  0.35878944  1
  O  O32  1  0.37540786  0.48675679  0.36090453  1
  O  O33  1  0.11239521  0.47786906  0.85790795  1
  O  O34  1  0.36561943  0.88789934  0.85802376  1
  O  O35  1  0.51837967  0.63170190  0.86054519  1
  O  O36  1  0.00364819  0.80635241  0.41881816  1
  O  O37  1  0.79140931  0.97383021  0.41796600  1
  O  O38  1  0.19015541  0.20269667  0.42002418  1
  O  O39  1  0.01730828  0.19034476  0.91217268  1
  O  O40  1  0.17322524  0.98294784  0.91247223  1
  O  O41  1  0.80895507  0.82698674  0.91278278  1
  O  O42  1  0.98672833  0.16617369  0.58596038  1
  O  O43  1  0.18045732  0.01442005  0.58642899  1
  O  O44  1  0.83448737  0.81918169  0.58431022  1
  O  O45  1  0.98756930  0.82137194  0.08403664  1
  O  O46  1  0.83282723  0.01069051  0.08428253  1
  O  O47  1  0.17867352  0.16679036  0.08385151  1
  O  O48  1  0.68637494  0.14927459  0.74969356  1
  O  O49  1  0.45762815  0.30455298  0.75009154  1
  O  O50  1  0.85716785  0.53144272  0.75089036  1
  O  O51  1  0.67178965  0.52500165  0.24418814  1
  O  O52  1  0.85409959  0.33143673  0.24287872  1
  O  O53  1  0.47671839  0.14550169  0.24291364  1
  O  O54  1  0.64680621  0.50058423  0.92346122  1
  O  O55  1  0.85549774  0.35543691  0.92263777  1
  O  O56  1  0.49971332  0.14488957  0.92272890  1
  O  O57  1  0.62951733  0.14224784  0.42384388  1
  O  O58  1  0.51816800  0.37694504  0.42354101  1
  O  O59  1  0.85295389  0.48464052  0.42302365  1
  O  O60  1  0.33875765  0.49309186  0.07193163  1
  O  O61  1  0.15402317  0.66095603  0.07173135  1
  O  O62  1  0.50641555  0.84642308  0.07201443  1
  O  O63  1  0.33874355  0.84787774  0.57623416  1
  O  O64  1  0.51027351  0.66618672  0.57427027  1
  O  O65  1  0.15233553  0.49103530  0.57638232  1
  O  O66  1  0.30111155  0.82010658  0.25401292  1
  O  O67  1  0.51837595  0.69749800  0.25482630  1
  O  O68  1  0.17880667  0.47977612  0.25489308  1
  O  O69  1  0.28893390  0.46796965  0.75794934  1
  O  O70  1  0.18151853  0.70739215  0.75752742  1
  O  O71  1  0.52405066  0.82567697  0.75712160  1
loop_
_geom_bond_atom_site_label_1
_geom_bond_atom_site_label_2
_geom_bond_distance
_geom_bond_site_symmetry_2
Na0 O53 2.356257 1_555
Na0 O67 2.463102 1_545
Na0 O16 2.487565 1_555
Na0 O52 2.522485 1_555
Na0 O66 2.693044 1_545
Na0 O9 2.746351 1_545
Na0 O31 2.814032 1_545
Na0 O2 2.863902 1_555
Na1 O51 2.374665 1_555
Na1 O68 2.456477 1_555
Na1 O17 2.475077 1_555
Na1 O53 2.510011 1_555
Na1 O67 2.678912 1_555
Na1 O10 2.780730 1_555
Na1 O32 2.868868 1_555
Na1 O0 2.886936 1_555
Na2 O52 2.349760 1_555
Na2 O66 2.456126 1_655
Na2 O15 2.474188 1_555
Na2 O51 2.497122 1_555
Na2 O68 2.683258 1_655
Na2 O11 2.786611 1_655
Na2 O30 2.820788 1_655
Na2 O1 2.974256 1_555
Na3 O50 2.338605 1_555
Na3 O69 2.393785 1_655
Na3 O12 2.403802 1_555
Na3 O48 2.414667 1_555
Na3 O70 2.706516 1_655
Na3 O7 2.767722 1_655
Na3 O33 2.819181 1_655
Na4 O49 2.379433 1_555
Na4 O70 2.392805 1_545
Na4 O13 2.412866 1_555
Na4 O48 2.417546 1_555
Na4 O71 2.585632 1_545
Na4 O8 2.801582 1_545
Na4 O34 2.802115 1_545
Na5 O36 2.306517 1_655
Na5 O58 2.364566 1_555
Na5 O37 2.374427 1_555
Na5 O1 2.605039 1_555
Na5 O59 2.631469 1_555
Na5 O22 2.651039 1_555
Na5 O32 2.885131 1_555
Na5 O27 3.001640 1_555
Na6 O38 2.431170 1_555
Na6 O42 2.487677 1_455
Na6 O43 2.498547 1_555
Na6 O36 2.568376 1_545
Na6 O44 2.576906 1_445
Na6 O37 2.596690 1_445
Na7 O47 2.420363 1_555
Na7 O45 2.422714 1_445
Na7 O46 2.424964 1_455
Na7 O41 2.615766 1_444
Na7 O40 2.616514 1_544
Na7 O39 2.624104 1_554
Na8 O54 2.515136 1_555
Na8 O50 2.532856 1_555
Na8 O49 2.556493 1_555
Na8 O55 2.623295 1_555
Na8 O56 2.630911 1_555
Na8 O48 2.672970 1_555
Na9 O57 2.512426 1_555
Na9 O59 2.569813 1_555
Na9 O58 2.608094 1_555
Na9 O53 2.646289 1_555
Na9 O52 2.648800 1_555
Na9 O51 2.733517 1_555
Na10 O60 2.538463 1_555
Na10 O62 2.542537 1_555
Na10 O61 2.544218 1_555
Na10 O66 2.647982 1_555
Na10 O67 2.667253 1_555
Na10 O68 2.675986 1_555
Na11 O64 2.444099 1_555
Na11 O65 2.536875 1_555
Na11 O63 2.549070 1_555
Na11 O71 2.673292 1_555
Na11 O69 2.721903 1_555
Na11 O70 2.789986 1_555
Ca0 O0 2.168468 1_555
Ca0 O2 2.172383 1_455
Ca0 O38 2.214380 1_555
Ca0 O1 2.251436 1_445
Ca0 O37 2.274397 1_445
Ca0 O36 2.277505 1_545
Ca1 O14 2.141646 1_555
Ca1 O12 2.240448 1_555
Ca1 O13 2.244046 1_555
Ca1 O49 2.319751 1_555
Ca1 O50 2.321245 1_555
Ca1 O48 2.389844 1_555
Ca2 O17 2.212442 1_555
Ca2 O16 2.212459 1_555
Ca2 O15 2.214049 1_555
Ca2 O52 2.311247 1_555
Ca2 O53 2.320756 1_555
Ca2 O51 2.328929 1_555
O0 P0 1.500167 1_545
O1 P1 1.513579 1_555
O2 P2 1.500863 1_655
O3 P3 1.547749 1_555
O3 Sn0 2.030455 1_445
O4 P4 1.541787 1_655
O4 Sn0 2.017188 1_555
O5 P5 1.546584 1_545
O5 Sn0 2.030842 1_545
O6 P5 1.549648 1_555
O6 Sn1 2.082269 1_555
O7 P3 1.560757 1_555
O7 Sn1 2.116602 1_445
O8 P4 1.564768 1_555
O8 Sn1 2.104542 1_455
O9 P1 1.582929 1_555
O9 Sn2 2.116940 1_665
O10 P2 1.584399 1_555
O10 Sn2 2.100201 1_555
O11 P0 1.582498 1_555
O11 Sn2 2.099334 1_565
O12 P6 1.516438 1_555
O13 P7 1.517261 1_555
O14 P8 1.499464 1_555
O15 P9 1.516543 1_555
O16 P10 1.516407 1_555
O17 P11 1.517736 1_555
O18 P11 1.569439 1_555
O18 Sn3 2.055308 1_554
O19 P9 1.568196 1_555
O19 Sn3 2.057538 1_554
O20 P10 1.569791 1_555
O20 Sn3 2.052062 1_554
O21 P7 1.568931 1_555
O21 Sn4 2.043183 1_555
O22 P8 1.580211 1_555
O22 Sn4 2.093226 1_555
O23 P6 1.567071 1_555
O23 Sn4 2.039909 1_555
O24 P12 1.529898 1_555
O24 Sn5 2.044143 1_556
O25 P13 1.531295 1_555
O25 Sn5 2.040050 1_556
O26 P14 1.530116 1_555
O26 Sn5 2.039436 1_556
O27 P15 1.528567 1_555
O27 Sn6 2.009542 1_555
O28 P16 1.526688 1_555
O28 Sn6 1.998625 1_555
O29 P17 1.522810 1_555
O29 Sn6 1.990854 1_555
O30 P17 1.587292 1_555
O30 Sn7 2.061210 1_555
O31 P15 1.587889 1_555
O31 Sn7 2.062928 1_555
O32 P16 1.597866 1_555
O32 Sn7 2.082000 1_555
O33 P13 1.570794 1_555
O33 Sn8 2.086103 1_555
O34 P14 1.568734 1_555
O34 Sn8 2.086221 1_555
O35 P12 1.561582 1_555
O35 Sn8 2.036722 1_555
O36 P17 1.515143 1_555
O37 P15 1.514284 1_555
O38 P16 1.495079 1_555
O39 P13 1.557025 1_555
O39 Sn0 2.077140 1_445
O40 P14 1.556994 1_555
O40 Sn0 2.074011 1_455
O41 P12 1.558437 1_555
O41 Sn0 2.060693 1_555
O42 P6 1.564601 1_555
O42 Sn1 2.071704 1_545
O43 P7 1.565633 1_555
O43 Sn1 2.068013 1_445
O44 P8 1.568657 1_555
O44 Sn1 2.064411 1_555
O45 P9 1.566560 1_555
O45 Sn2 2.095109 1_665
O46 P10 1.567697 1_555
O46 Sn2 2.094342 1_655
O47 P11 1.566401 1_555
O47 Sn2 2.098662 1_555
O48 P5 1.534697 1_545
O49 P3 1.514727 1_555
O50 P4 1.520169 1_655
O51 P1 1.534005 1_555
O52 P2 1.534313 1_655
O53 P0 1.535221 1_545
O54 P12 1.552676 1_555
O54 Sn3 2.116533 1_555
O55 P13 1.553010 1_655
O55 Sn3 2.124518 1_555
O56 P14 1.552675 1_545
O56 Sn3 2.125842 1_555
O57 P15 1.554064 1_545
O57 Sn4 2.082085 1_555
O58 P16 1.571708 1_555
O58 Sn4 2.133310 1_555
O59 P17 1.566203 1_655
O59 Sn4 2.119032 1_555
O60 P11 1.556791 1_555
O60 Sn5 2.039127 1_555
O61 P9 1.556414 1_455
O61 Sn5 2.034360 1_555
O62 P10 1.556010 1_565
O62 Sn5 2.043579 1_555
O63 P7 1.557896 1_565
O63 Sn6 2.036821 1_555
O64 P8 1.558113 1_555
O64 Sn6 2.047013 1_555
O65 P6 1.559823 1_455
O65 Sn6 2.041158 1_555
O66 P0 1.589458 1_555
O66 Sn7 2.119632 1_555
O67 P1 1.587519 1_555
O67 Sn7 2.135569 1_555
O68 P2 1.589865 1_555
O68 Sn7 2.121999 1_555
O69 P3 1.574884 1_555
O69 Sn8 2.102595 1_555
O70 P4 1.599408 1_555
O70 Sn8 2.124890 1_555
O71 P5 1.572255 1_555
O71 Sn8 2.093535 1_555
