# generated using pymatgen
data_Na6La6Ta2Si5S7O48
_symmetry_space_group_name_H-M   'P 1'
_cell_length_a   18.83390275
_cell_length_b   9.47099297
_cell_length_c   24.67933255
_cell_angle_alpha   90.09587405
_cell_angle_beta   90.20701418
_cell_angle_gamma   120.15514924
_symmetry_Int_Tables_number   1
_chemical_formula_structural   Na6La6Ta2Si5S7O48
_chemical_formula_sum   'Na18 La18 Ta6 Si15 S21 O144'
_cell_volume   3806.38238595
_cell_formula_units_Z   3
loop_
 _symmetry_equiv_pos_site_id
 _symmetry_equiv_pos_as_xyz
  1  'x, y, z'
loop_
 _atom_site_type_symbol
 _atom_site_label
 _atom_site_symmetry_multiplicity
 _atom_site_fract_x
 _atom_site_fract_y
 _atom_site_fract_z
 _atom_site_occupancy
  Na  Na0  1  0.99324414  0.68451264  0.91042474  1
  Na  Na1  1  0.34957681  0.02795318  0.91387072  1
  Na  Na2  1  0.17422114  0.30572255  0.91300191  1
  Na  Na3  1  0.49404314  0.30624888  0.42190921  1
  Na  Na4  1  0.67274536  0.03899669  0.41655841  1
  Na  Na5  1  0.84686864  0.67066605  0.41764416  1
  Na  Na6  1  0.99667092  0.99678211  0.49526399  1
  Na  Na7  1  0.50085866  0.00255119  0.50230202  1
  Na  Na8  1  0.00204873  0.00392736  0.99687202  1
  Na  Na9  1  0.49638537  0.99664189  0.99140104  1
  Na  Na10  1  0.34011743  0.34763494  0.84136980  1
  Na  Na11  1  0.82499883  0.32347694  0.81944150  1
  Na  Na12  1  0.32697315  0.33268607  0.32478283  1
  Na  Na13  1  0.83716876  0.32844952  0.34742507  1
  Na  Na14  1  0.17121870  0.66803861  0.17238483  1
  Na  Na15  1  0.66458707  0.66422356  0.16780857  1
  Na  Na16  1  0.16808387  0.66732152  0.66688921  1
  Na  Na17  1  0.65720272  0.65190571  0.66155803  1
  La  La0  1  0.00352984  0.00427364  0.35393540  1
  La  La1  1  0.49755002  0.00421718  0.34539804  1
  La  La2  1  0.99685612  0.99146129  0.84455255  1
  La  La3  1  0.50348230  0.00383419  0.85165063  1
  La  La4  1  0.33849353  0.34628741  0.68008935  1
  La  La5  1  0.83232420  0.33108928  0.68858159  1
  La  La6  1  0.33323985  0.33390152  0.18940634  1
  La  La7  1  0.83316669  0.32215712  0.18228638  1
  La  La8  1  0.35046296  0.35632474  0.97817149  1
  La  La9  1  0.82401852  0.29361268  0.98838784  1
  La  La10  1  0.33487892  0.35429022  0.49563368  1
  La  La11  1  0.84798116  0.34022448  0.48006269  1
  La  La12  1  0.17198800  0.67972702  0.01637365  1
  La  La13  1  0.66667284  0.66526343  0.02004485  1
  La  La14  1  0.16627587  0.66660126  0.52162650  1
  La  La15  1  0.66727021  0.65682296  0.51824500  1
  La  La16  1  0.66819687  0.65232941  0.31289609  1
  La  La17  1  0.16927330  0.68492853  0.81091722  1
  Ta  Ta0  1  0.99062898  0.98492293  0.65874822  1
  Ta  Ta1  1  0.50250369  0.02537635  0.64511431  1
  Ta  Ta2  1  0.00377848  0.99867129  0.15119060  1
  Ta  Ta3  1  0.48953200  0.99380301  0.15850908  1
  Ta  Ta4  1  0.16683480  0.68267449  0.31218416  1
  Ta  Ta5  1  0.66146310  0.64502861  0.80686644  1
  Si  Si0  1  0.14220849  0.98714485  0.25004087  1
  Si  Si1  1  0.34383514  0.70415208  0.25304755  1
  Si  Si2  1  0.50483300  0.30503163  0.24894729  1
  Si  Si3  1  0.64155151  0.29080913  0.74911747  1
  Si  Si4  1  0.00387726  0.70334657  0.74936239  1
  Si  Si5  1  0.84396552  0.98306495  0.75293321  1
  Si  Si6  1  0.48714149  0.33568252  0.58330611  1
  Si  Si7  1  0.33923043  0.65430175  0.58952966  1
  Si  Si8  1  0.83984505  0.02517258  0.08855912  1
  Si  Si9  1  0.31445420  0.66750323  0.91566867  1
  Si  Si10  1  0.52493632  0.38184900  0.91223161  1
  Si  Si11  1  0.16479219  0.97002552  0.91906363  1
  Si  Si12  1  0.81306288  0.95912324  0.41630919  1
  Si  Si13  1  0.66593974  0.35912540  0.41745319  1
  Si  Si14  1  0.02355020  0.66598167  0.41336503  1
  S  S0  1  0.64133925  0.99509748  0.24422876  1
  S  S1  1  0.85859514  0.71883273  0.24318529  1
  S  S2  1  0.00939969  0.30086314  0.24791667  1
  S  S3  1  0.14250194  0.28755511  0.74467255  1
  S  S4  1  0.50844833  0.70851287  0.75168195  1
  S  S5  1  0.35812577  0.99895831  0.74351452  1
  S  S6  1  0.98525996  0.31104017  0.58929270  1
  S  S7  1  0.16992102  0.03005137  0.58848883  1
  S  S8  1  0.67329043  0.03120511  0.58610391  1
  S  S9  1  0.84427170  0.65762959  0.58760041  1
  S  S10  1  0.48577009  0.65962471  0.08911054  1
  S  S11  1  0.98436394  0.65293684  0.08694620  1
  S  S12  1  0.34302279  0.02914737  0.08777513  1
  S  S13  1  0.17227946  0.31664097  0.08689738  1
  S  S14  1  0.67172292  0.31201037  0.08806834  1
  S  S15  1  0.80847621  0.65787817  0.91188710  1
  S  S16  1  0.01560387  0.37014660  0.91774069  1
  S  S17  1  0.67056029  0.95146264  0.91122271  1
  S  S18  1  0.30653342  0.95630516  0.41070476  1
  S  S19  1  0.17284171  0.39418381  0.41042213  1
  S  S20  1  0.51468371  0.66183857  0.41636557  1
  O  O0  1  0.10092733  0.00939999  0.30262898  1
  O  O1  1  0.60893652  0.00630654  0.29711446  1
  O  O2  1  0.40037818  0.78490078  0.30471634  1
  O  O3  1  0.89891058  0.78576775  0.29522720  1
  O  O4  1  0.49897006  0.21593362  0.30620295  1
  O  O5  1  0.99432091  0.20799724  0.29749572  1
  O  O6  1  0.10902261  0.21179860  0.79788771  1
  O  O7  1  0.60321299  0.19490332  0.80380881  1
  O  O8  1  0.49771885  0.77947033  0.80125548  1
  O  O9  1  0.99836296  0.77883111  0.80768593  1
  O  O10  1  0.39783127  0.00865124  0.79600999  1
  O  O11  1  0.89993237  0.01584181  0.80528111  1
  O  O12  1  0.41150846  0.99690987  0.69773658  1
  O  O13  1  0.90217190  0.97069108  0.69866490  1
  O  O14  1  0.08427654  0.17648117  0.69959652  1
  O  O15  1  0.58116921  0.18646203  0.69603260  1
  O  O16  1  0.00189787  0.83349072  0.69911220  1
  O  O17  1  0.52100839  0.80841511  0.70317586  1
  O  O18  1  0.40180073  0.83245968  0.19811124  1
  O  O19  1  0.91257880  0.83182731  0.19738922  1
  O  O20  1  0.01727851  0.20791362  0.19996116  1
  O  O21  1  0.50205290  0.16989706  0.19802728  1
  O  O22  1  0.08075011  0.97196347  0.19590986  1
  O  O23  1  0.58433386  0.99118809  0.19880621  1
  O  O24  1  0.43420393  0.33936744  0.63349183  1
  O  O25  1  0.94239062  0.33653411  0.63439095  1
  O  O26  1  0.22449539  0.11202973  0.63495756  1
  O  O27  1  0.72759840  0.11811310  0.63179276  1
  O  O28  1  0.32256278  0.53000368  0.63872109  1
  O  O29  1  0.83578251  0.54920520  0.63222840  1
  O  O30  1  0.44289562  0.54891186  0.13436155  1
  O  O31  1  0.93927475  0.54768381  0.13287754  1
  O  O32  1  0.33462322  0.12061736  0.13256676  1
  O  O33  1  0.82851282  0.12484057  0.13804929  1
  O  O34  1  0.22715332  0.34096723  0.13245380  1
  O  O35  1  0.72739606  0.33918436  0.13437956  1
  O  O36  1  0.20042447  0.28359770  0.03548847  1
  O  O37  1  0.70933845  0.29047524  0.03751078  1
  O  O38  1  0.43888428  0.59611150  0.03785888  1
  O  O39  1  0.93839019  0.58801204  0.03543415  1
  O  O40  1  0.35584641  0.11273991  0.03529725  1
  O  O41  1  0.85824391  0.13845173  0.03317230  1
  O  O42  1  0.20572583  0.12544298  0.53779639  1
  O  O43  1  0.70361030  0.12194388  0.53466420  1
  O  O44  1  0.35908992  0.58309744  0.53360540  1
  O  O45  1  0.85801958  0.59931438  0.53511803  1
  O  O46  1  0.43636175  0.30034177  0.52526558  1
  O  O47  1  0.93883042  0.28170219  0.53785182  1
  O  O48  1  0.27073288  0.68703936  0.97064717  1
  O  O49  1  0.77147545  0.67307158  0.96247343  1
  O  O50  1  0.06466071  0.44916767  0.96718413  1
  O  O51  1  0.57267287  0.47036944  0.96774572  1
  O  O52  1  0.14597236  0.84761463  0.97074092  1
  O  O53  1  0.66831017  0.87188437  0.96340615  1
  O  O54  1  0.26828161  0.86641968  0.46015339  1
  O  O55  1  0.76923385  0.85075500  0.47010536  1
  O  O56  1  0.16863711  0.46971679  0.46177962  1
  O  O57  1  0.64620343  0.44381452  0.46813360  1
  O  O58  1  0.07335477  0.67536318  0.46770295  1
  O  O59  1  0.56372570  0.68106171  0.46560485  1
  O  O60  1  0.08309395  0.66204128  0.35977102  1
  O  O61  1  0.55531801  0.64567842  0.36719782  1
  O  O62  1  0.25616242  0.85506330  0.36084900  1
  O  O63  1  0.75713515  0.87603013  0.36141709  1
  O  O64  1  0.17466847  0.49544325  0.36208235  1
  O  O65  1  0.68007383  0.47049664  0.36306722  1
  O  O66  1  0.05517663  0.46681262  0.86869010  1
  O  O67  1  0.58351361  0.50434296  0.85942041  1
  O  O68  1  0.17751998  0.88251786  0.86543734  1
  O  O69  1  0.67401478  0.85925926  0.86359017  1
  O  O70  1  0.25608355  0.63710683  0.86239920  1
  O  O71  1  0.75867867  0.65254881  0.86328004  1
  O  O72  1  0.00645124  0.81851324  0.41101852  1
  O  O73  1  0.50648083  0.80953294  0.41314319  1
  O  O74  1  0.39019538  0.97861715  0.40757841  1
  O  O75  1  0.90295899  0.97016387  0.41449793  1
  O  O76  1  0.09801419  0.23113945  0.40791978  1
  O  O77  1  0.58558931  0.17021454  0.41583567  1
  O  O78  1  0.00639450  0.20526813  0.91468122  1
  O  O79  1  0.50709062  0.19449909  0.91101926  1
  O  O80  1  0.08425231  0.99768074  0.91725594  1
  O  O81  1  0.59701998  0.96965217  0.91021287  1
  O  O82  1  0.40337531  0.83685398  0.91478649  1
  O  O83  1  0.89355715  0.80321433  0.90986406  1
  O  O84  1  0.49410463  0.16270866  0.59594153  1
  O  O85  1  0.99314850  0.16182942  0.60009625  1
  O  O86  1  0.08717922  0.01657372  0.59763778  1
  O  O87  1  0.58948177  0.01748343  0.59735911  1
  O  O88  1  0.42463423  0.83287451  0.60691002  1
  O  O89  1  0.92170753  0.82630640  0.59820317  1
  O  O90  1  0.49379328  0.82502771  0.10017321  1
  O  O91  1  0.99160743  0.82109982  0.09665902  1
  O  O92  1  0.41990655  0.01363625  0.09796685  1
  O  O93  1  0.92474010  0.01471506  0.10599904  1
  O  O94  1  0.08836954  0.16119239  0.09961373  1
  O  O95  1  0.59002097  0.16035196  0.09669625  1
  O  O96  1  0.34784095  0.14228108  0.73892313  1
  O  O97  1  0.82761836  0.12955896  0.74040616  1
  O  O98  1  0.22245664  0.29816763  0.73912750  1
  O  O99  1  0.73454567  0.33667614  0.74008591  1
  O  O100  1  0.43891077  0.53934270  0.74654949  1
  O  O101  1  0.92147486  0.52827900  0.74352218  1
  O  O102  1  0.32761199  0.52541489  0.23988536  1
  O  O103  1  0.85106172  0.55773381  0.23507915  1
  O  O104  1  0.42220152  0.31478888  0.24303646  1
  O  O105  1  0.93993793  0.32984044  0.23852034  1
  O  O106  1  0.23378260  0.12920305  0.23870365  1
  O  O107  1  0.72196411  0.14571387  0.23845204  1
  O  O108  1  0.31812523  0.49671045  0.92134567  1
  O  O109  1  0.81764083  0.50959526  0.91352353  1
  O  O110  1  0.43284564  0.36327096  0.90868541  1
  O  O111  1  0.93392313  0.36308020  0.92278096  1
  O  O112  1  0.24974221  0.14946875  0.92553693  1
  O  O113  1  0.74625351  0.11964700  0.91195821  1
  O  O114  1  0.31219333  0.11774121  0.40869556  1
  O  O115  1  0.81759263  0.13849322  0.42151663  1
  O  O116  1  0.24758662  0.37842891  0.41011654  1
  O  O117  1  0.75082377  0.34903671  0.42407999  1
  O  O118  1  0.43283534  0.50694871  0.42017757  1
  O  O119  1  0.93225152  0.50061508  0.40980388  1
  O  O120  1  0.15557061  0.45316474  0.08384394  1
  O  O121  1  0.66111239  0.45581167  0.08316970  1
  O  O122  1  0.06785254  0.67690946  0.08535071  1
  O  O123  1  0.56918187  0.68192359  0.08415263  1
  O  O124  1  0.27133501  0.86093380  0.08716050  1
  O  O125  1  0.76261309  0.84241069  0.08243547  1
  O  O126  1  0.15808985  0.86355108  0.58297076  1
  O  O127  1  0.65893353  0.86363105  0.58286877  1
  O  O128  1  0.26327640  0.68824253  0.58216870  1
  O  O129  1  0.77385947  0.68470293  0.58632731  1
  O  O130  1  0.06876590  0.45568914  0.58450194  1
  O  O131  1  0.57997724  0.48795520  0.58603881  1
  O  O132  1  0.14777328  0.81142822  0.26079646  1
  O  O133  1  0.64687892  0.84691545  0.23912896  1
  O  O134  1  0.25407490  0.69920017  0.26138123  1
  O  O135  1  0.77899831  0.71164863  0.23856984  1
  O  O136  1  0.08741896  0.46573117  0.25251791  1
  O  O137  1  0.58999114  0.47499934  0.23958718  1
  O  O138  1  0.14644124  0.44590370  0.73988989  1
  O  O139  1  0.64537637  0.47758171  0.75874477  1
  O  O140  1  0.08937973  0.70420519  0.74041299  1
  O  O141  1  0.58758386  0.69560169  0.75941298  1
  O  O142  1  0.27834553  0.84484831  0.73927352  1
  O  O143  1  0.75451993  0.80821903  0.76312248  1
loop_
_geom_bond_atom_site_label_1
_geom_bond_atom_site_label_2
_geom_bond_distance
_geom_bond_site_symmetry_2
Na0 O80 2.579173 1_655
Na0 O83 2.628600 1_555
Na0 O9 2.675626 1_555
Na0 O111 2.682780 1_555
Na0 O109 2.861134 1_555
Na0 O52 2.893658 1_655
Na0 O66 3.015033 1_655
Na1 O82 2.478974 1_545
Na1 O79 2.567934 1_555
Na1 O112 2.668284 1_555
Na1 O110 2.749631 1_555
Na2 O108 2.393573 1_555
Na2 O112 2.534161 1_555
Na2 O80 2.535631 1_545
Na2 O78 2.806688 1_555
Na3 O77 2.624534 1_555
Na3 O118 2.673069 1_555
Na3 O57 2.726112 1_555
Na3 O74 2.733665 1_545
Na3 O46 2.765713 1_555
Na3 O114 2.978363 1_555
Na3 O4 2.994653 1_555
Na4 O115 2.399916 1_555
Na4 O77 2.507722 1_555
Na4 O117 2.545036 1_555
Na4 O73 2.774184 1_545
Na5 O75 2.481681 1_555
Na5 O72 2.607087 1_655
Na5 O117 2.654066 1_555
Na5 O119 2.796522 1_555
Na5 O45 3.008445 1_555
Na5 O55 3.038950 1_555
Na5 O65 3.042062 1_555
Na6 O75 2.584098 1_555
Na6 O72 2.740583 1_655
Na6 O89 2.967084 1_555
Na6 O86 2.995069 1_665
Na6 O76 3.000945 1_665
Na6 O85 3.038638 1_565
Na7 O77 2.666804 1_555
Na7 O84 2.800322 1_555
Na7 O87 2.835993 1_555
Na7 O73 2.894381 1_545
Na7 O88 3.005196 1_545
Na7 O74 3.057553 1_545
Na8 O80 2.524838 1_545
Na8 O78 2.759485 1_555
Na8 O83 2.907205 1_445
Na8 O91 2.962668 1_446
Na8 O94 2.969099 1_556
Na9 O82 2.497400 1_555
Na9 O79 2.668941 1_565
Na9 O81 2.860916 1_555
Na10 O110 2.355900 1_555
Na10 O108 2.577755 1_555
Na10 O112 2.750172 1_555
Na10 O100 2.980988 1_555
Na11 O99 2.635148 1_555
Na11 O101 2.658994 1_555
Na11 O97 2.694413 1_555
Na11 O113 2.881361 1_555
Na11 O109 2.958309 1_555
Na12 O116 2.743869 1_555
Na12 O104 2.765136 1_555
Na12 O102 2.777196 1_555
Na12 O106 2.805096 1_555
Na12 O114 2.821231 1_555
Na12 O118 2.981413 1_555
Na13 O119 2.296437 1_555
Na13 O115 2.462842 1_555
Na13 O117 2.569247 1_555
Na14 O134 2.618526 1_555
Na14 O136 2.658992 1_555
Na14 O132 2.720229 1_555
Na14 O124 2.810229 1_555
Na14 O120 2.895003 1_555
Na14 O122 2.923255 1_555
Na15 O137 2.413008 1_555
Na15 O133 2.603266 1_555
Na15 O135 2.625347 1_555
Na15 O125 2.757805 1_555
Na15 O123 2.792172 1_555
Na15 O121 2.849401 1_555
Na16 O140 2.479775 1_555
Na16 O142 2.604967 1_555
Na16 O138 2.639830 1_555
Na16 O128 2.701253 1_555
Na16 O130 2.800471 1_555
Na16 O126 2.853101 1_555
Na17 O131 2.387858 1_555
Na17 O129 2.777879 1_555
Na17 O127 2.782312 1_555
Na17 O139 2.859362 1_555
Na17 O141 2.878786 1_555
Na17 O143 3.010328 1_555
La0 O0 2.213161 1_555
La0 O72 2.277701 1_545
La0 O75 2.309413 1_445
La0 O76 2.385410 1_555
La0 O5 2.456935 1_455
La0 O3 2.477287 1_445
La1 O2 2.198270 1_545
La1 O4 2.215826 1_555
La1 O77 2.365144 1_555
La1 O1 2.407841 1_555
La1 O74 2.456204 1_545
La1 O73 2.557974 1_545
La2 O11 2.176323 1_565
La2 O9 2.221612 1_555
La2 O6 2.395913 1_665
La2 O80 2.411042 1_655
La2 O83 2.471671 1_555
La2 O78 2.597829 1_665
La3 O7 2.192045 1_555
La3 O79 2.297686 1_555
La3 O82 2.348919 1_545
La3 O8 2.415050 1_545
La3 O81 2.419361 1_545
La3 O10 2.432848 1_555
La4 O28 2.165201 1_555
La4 O24 2.170156 1_555
La4 O26 2.441592 1_555
La4 O100 2.470531 1_555
La4 O98 2.476142 1_555
La4 O96 2.494333 1_555
La5 O101 2.229384 1_555
La5 O99 2.263708 1_555
La5 O97 2.264028 1_555
La5 O27 2.428304 1_555
La5 O25 2.449771 1_555
La5 O29 2.465961 1_555
La6 O104 2.209376 1_555
La6 O102 2.244932 1_555
La6 O106 2.263475 1_555
La6 O30 2.462048 1_555
La6 O34 2.467084 1_555
La6 O32 2.468305 1_555
La7 O33 2.125993 1_555
La7 O107 2.369126 1_555
La7 O35 2.387173 1_555
La7 O31 2.404305 1_555
La7 O105 2.409897 1_555
La7 O103 2.453717 1_555
La8 O108 2.217924 1_555
La8 O110 2.295557 1_555
La8 O112 2.316008 1_555
La8 O38 2.504408 1_556
La8 O40 2.750445 1_556
La8 O36 2.921848 1_556
La9 O41 2.179124 1_556
La9 O113 2.441892 1_555
La9 O111 2.449208 1_555
La9 O37 2.467837 1_556
La9 O39 2.774763 1_556
La9 O109 2.805408 1_555
La10 O44 2.186203 1_555
La10 O46 2.328368 1_555
La10 O118 2.513129 1_555
La10 O42 2.535005 1_555
La10 O116 2.750196 1_555
La10 O114 2.969987 1_555
La11 O115 2.225258 1_555
La11 O117 2.323735 1_555
La11 O119 2.332283 1_555
La11 O47 2.491336 1_555
La11 O45 2.724719 1_555
La11 O43 2.805577 1_555
La12 O48 2.150118 1_554
La12 O52 2.195773 1_554
La12 O50 2.422128 1_554
La12 O124 2.497675 1_555
La12 O122 2.591692 1_555
La12 O120 2.611830 1_555
La13 O51 2.213519 1_554
La13 O125 2.318659 1_555
La13 O53 2.394395 1_554
La13 O49 2.407120 1_554
La13 O121 2.485133 1_555
La13 O123 2.492124 1_555
La14 O58 2.229370 1_555
La14 O128 2.283653 1_555
La14 O56 2.394806 1_555
La14 O54 2.439643 1_555
La14 O126 2.465019 1_555
La14 O130 2.473063 1_555
La15 O57 2.222771 1_555
La15 O55 2.225519 1_555
La15 O131 2.333929 1_555
La15 O59 2.444580 1_555
La15 O129 2.522793 1_555
La15 O127 2.589405 1_555
La16 O65 2.222852 1_555
La16 O63 2.267154 1_555
La16 O137 2.397638 1_555
La16 O61 2.491165 1_555
La16 O135 2.624579 1_555
La16 O133 2.760656 1_555
La17 O68 2.243793 1_555
La17 O70 2.285487 1_555
La17 O140 2.362882 1_555
La17 O66 2.547569 1_555
La17 O142 2.559194 1_555
La17 O138 2.717653 1_555
O0 Si0 1.582504 1_545
O1 S0 1.468873 1_545
O2 Si1 1.585445 1_555
O3 S1 1.461032 1_555
O4 Si2 1.622477 1_555
O5 S2 1.451390 1_655
O6 S3 1.480467 1_555
O7 Si3 1.587591 1_555
O8 S4 1.457654 1_555
O9 Si4 1.632774 1_655
O10 S5 1.473002 1_545
O11 Si5 1.592652 1_545
O12 S5 1.521619 1_555
O12 Ta1 2.061407 1_565
O13 Si5 1.774374 1_555
O13 Ta0 1.884369 1_555
O14 S3 1.541105 1_555
O14 Ta0 2.045665 1_445
O15 Si3 1.685847 1_555
O15 Ta1 1.952166 1_555
O16 Si4 1.763399 1_555
O16 Ta0 1.844834 1_455
O17 S4 1.471466 1_555
O17 Ta1 2.668863 1_565
O18 Si1 1.786076 1_555
O18 Ta3 1.870929 1_555
O19 S1 1.541287 1_555
O19 Ta2 2.010097 1_655
O20 S2 1.525356 1_555
O20 Ta2 2.219053 1_545
O21 Si2 1.773927 1_555
O21 Ta3 1.840123 1_545
O22 Si0 1.722246 1_555
O22 Ta2 1.934258 1_555
O23 S0 1.536855 1_555
O23 Ta3 2.051659 1_555
O24 Si6 1.604061 1_555
O25 S6 1.466425 1_555
O26 S7 1.470105 1_555
O27 S8 1.462128 1_555
O28 Si7 1.610740 1_555
O29 S9 1.460555 1_555
O30 S10 1.469166 1_555
O31 S11 1.469710 1_555
O32 S12 1.460562 1_555
O33 Si8 1.621364 1_555
O34 S13 1.461762 1_555
O35 S14 1.480270 1_555
O36 S13 1.469292 1_555
O37 S14 1.500342 1_555
O38 S10 1.482290 1_555
O39 S11 1.482734 1_555
O40 S12 1.475142 1_555
O41 Si8 1.665646 1_555
O42 S7 1.494621 1_555
O43 S8 1.480575 1_555
O44 Si7 1.659396 1_555
O45 S9 1.481016 1_555
O46 Si6 1.656911 1_555
O47 S6 1.483324 1_555
O48 Si9 1.647299 1_555
O49 S15 1.473553 1_555
O50 S16 1.482163 1_555
O51 Si10 1.618086 1_555
O52 Si11 1.640620 1_555
O53 S17 1.483224 1_555
O54 S18 1.458309 1_555
O55 Si12 1.630569 1_555
O56 S19 1.476181 1_555
O57 Si13 1.626487 1_555
O58 Si14 1.610244 1_555
O59 S20 1.478233 1_555
O60 Si14 1.749590 1_555
O60 Ta4 1.899839 1_555
O61 S20 1.485021 1_555
O62 S18 1.551455 1_555
O62 Ta4 2.039043 1_555
O63 Si12 1.648438 1_555
O64 S19 1.521554 1_555
O64 Ta4 2.225211 1_555
O65 Si13 1.646269 1_555
O66 S16 1.477751 1_555
O67 Si10 1.729540 1_555
O67 Ta5 1.914971 1_555
O68 Si11 1.641377 1_555
O69 S17 1.484218 1_555
O69 Ta5 2.374568 1_555
O70 Si9 1.640147 1_555
O71 S15 1.505089 1_555
O71 Ta5 2.268487 1_555
O72 Si14 1.631429 1_555
O73 S20 1.484678 1_555
O74 S18 1.483167 1_555
O75 Si12 1.643835 1_555
O76 S19 1.478880 1_555
O77 Si13 1.664904 1_555
O78 S16 1.483797 1_555
O79 Si10 1.631838 1_555
O80 Si11 1.664403 1_555
O81 S17 1.479241 1_555
O82 Si9 1.636892 1_555
O83 S15 1.499895 1_555
O84 Si6 1.736524 1_555
O84 Ta1 1.843933 1_555
O85 S6 1.517280 1_555
O85 Ta0 2.198511 1_545
O86 S7 1.516087 1_555
O86 Ta0 2.268202 1_445
O87 S8 1.543609 1_555
O87 Ta1 2.052994 1_555
O88 Si7 1.700308 1_555
O88 Ta1 1.913562 1_565
O89 S9 1.550041 1_555
O89 Ta0 2.047856 1_555
O90 S10 1.520473 1_555
O90 Ta3 2.180889 1_555
O91 S11 1.546887 1_555
O91 Ta2 2.072435 1_655
O92 S12 1.546875 1_555
O92 Ta3 2.054642 1_545
O93 Si8 1.704649 1_555
O93 Ta2 1.923209 1_645
O94 S13 1.559191 1_555
O94 Ta2 2.021173 1_545
O95 S14 1.503023 1_555
O95 Ta3 2.329547 1_545
O96 S5 1.468824 1_545
O97 Si5 1.595396 1_545
O98 S3 1.464893 1_555
O99 Si3 1.595207 1_555
O100 S4 1.479281 1_555
O101 Si4 1.609597 1_655
O102 Si1 1.594458 1_555
O103 S1 1.472886 1_555
O104 Si2 1.610808 1_555
O105 S2 1.483009 1_655
O106 Si0 1.592628 1_545
O107 S0 1.478842 1_545
O108 Si9 1.659523 1_555
O109 S15 1.499135 1_555
O110 Si10 1.655023 1_555
O111 S16 1.511455 1_655
O112 Si11 1.655006 1_545
O113 S17 1.512674 1_545
O114 S18 1.479217 1_545
O115 Si12 1.662329 1_545
O116 S19 1.488342 1_555
O117 Si13 1.656305 1_555
O118 S20 1.505549 1_555
O119 Si14 1.646248 1_655
O120 S13 1.478365 1_555
O121 S14 1.477584 1_555
O122 S11 1.472205 1_455
O123 S10 1.481777 1_555
O124 S12 1.483230 1_565
O125 Si8 1.613299 1_565
O126 S7 1.483549 1_565
O127 S8 1.471943 1_565
O128 Si7 1.625733 1_555
O129 S9 1.471982 1_555
O130 S6 1.483743 1_455
O131 Si6 1.614604 1_555
O132 Si0 1.739988 1_555
O132 Ta4 1.914671 1_555
O133 S0 1.463885 1_555
O134 Si1 1.680862 1_555
O134 Ta4 2.013287 1_555
O135 S1 1.470110 1_555
O136 S2 1.517644 1_555
O136 Ta4 2.348085 1_555
O137 Si2 1.620819 1_555
O138 S3 1.468829 1_555
O139 Si3 1.749620 1_555
O139 Ta5 1.877662 1_555
O140 Si4 1.622183 1_555
O141 S4 1.566483 1_555
O141 Ta5 2.048590 1_555
O142 S5 1.481214 1_555
O143 Si5 1.686739 1_555
O143 Ta5 1.980837 1_555
