# generated using pymatgen
data_Na7CaAl3(PO4)6
_symmetry_space_group_name_H-M   'P 1'
_cell_length_a   8.81959670
_cell_length_b   8.84000744
_cell_length_c   21.64262985
_cell_angle_alpha   90.07286796
_cell_angle_beta   90.00651555
_cell_angle_gamma   119.92109735
_symmetry_Int_Tables_number   1
_chemical_formula_structural   Na7CaAl3(PO4)6
_chemical_formula_sum   'Na21 Ca3 Al9 P18 O72'
_cell_volume   1462.46760788
_cell_formula_units_Z   3
loop_
 _symmetry_equiv_pos_site_id
 _symmetry_equiv_pos_as_xyz
  1  'x, y, z'
loop_
 _atom_site_type_symbol
 _atom_site_label
 _atom_site_symmetry_multiplicity
 _atom_site_fract_x
 _atom_site_fract_y
 _atom_site_fract_z
 _atom_site_occupancy
  Na  Na0  1  0.64543494  0.00879136  0.24572838  1
  Na  Na1  1  0.36328582  0.35262388  0.24609998  1
  Na  Na2  1  0.99067214  0.63682693  0.24626865  1
  Na  Na3  1  0.62972789  0.62271893  0.74901063  1
  Na  Na4  1  0.99235206  0.37018466  0.74922982  1
  Na  Na5  1  0.37864829  0.00659440  0.74911188  1
  Na  Na6  1  0.02121606  0.68754857  0.58380936  1
  Na  Na7  1  0.66443659  0.97797618  0.58317734  1
  Na  Na8  1  0.31353232  0.97674256  0.08251022  1
  Na  Na9  1  0.66515503  0.68671141  0.08304713  1
  Na  Na10  1  0.69791034  0.03243177  0.91895193  1
  Na  Na11  1  0.33116604  0.30059309  0.91832928  1
  Na  Na12  1  0.96585382  0.29222778  0.41573315  1
  Na  Na13  1  0.32611758  0.03476138  0.41541715  1
  Na  Na14  1  0.70885547  0.67442758  0.41540152  1
  Na  Na15  1  0.01190671  0.01336902  0.50285397  1
  Na  Na16  1  0.99974047  0.99861682  0.99998460  1
  Na  Na17  1  0.68017233  0.34857289  0.83645168  1
  Na  Na18  1  0.66684310  0.33332143  0.32894903  1
  Na  Na19  1  0.31567375  0.64875442  0.16124273  1
  Na  Na20  1  0.33202815  0.64863292  0.66352761  1
  Ca  Ca0  1  0.99987330  0.00048986  0.35375472  1
  Ca  Ca1  1  0.66386956  0.33431472  0.68094509  1
  Ca  Ca2  1  0.67268499  0.33635810  0.16965146  1
  Al  Al0  1  0.99964393  0.99495002  0.85522397  1
  Al  Al1  1  0.00572667  0.00528483  0.64779367  1
  Al  Al2  1  0.00096461  0.00693459  0.14743111  1
  Al  Al3  1  0.67562467  0.34082634  0.98320225  1
  Al  Al4  1  0.66388042  0.33218343  0.48427708  1
  Al  Al5  1  0.32956197  0.66488993  0.01229694  1
  Al  Al6  1  0.33294861  0.66373914  0.51866438  1
  Al  Al7  1  0.33363630  0.66559308  0.31355131  1
  Al  Al8  1  0.32926272  0.66406117  0.81568752  1
  P  P0  1  0.29527629  0.98992577  0.24996772  1
  P  P1  1  0.69461179  0.70491747  0.25007586  1
  P  P2  1  0.00974832  0.30355544  0.25157154  1
  P  P3  1  0.27424942  0.28692006  0.75527713  1
  P  P4  1  0.01335422  0.72526610  0.75264599  1
  P  P5  1  0.71239327  0.98733761  0.75390451  1
  P  P6  1  0.97563882  0.33443258  0.58245155  1
  P  P7  1  0.36036714  0.02736658  0.58197685  1
  P  P8  1  0.66398332  0.63828614  0.58262653  1
  P  P9  1  0.97789665  0.63992842  0.08113998  1
  P  P10  1  0.66446918  0.02334542  0.07894979  1
  P  P11  1  0.35696791  0.33671070  0.07916874  1
  P  P12  1  0.62512460  0.66392828  0.91529803  1
  P  P13  1  0.03943487  0.37977793  0.91484064  1
  P  P14  1  0.33310107  0.95770308  0.91514415  1
  P  P15  1  0.60785815  0.95881613  0.42002473  1
  P  P16  1  0.35124344  0.39281178  0.41917595  1
  P  P17  1  0.04118168  0.64961644  0.41995281  1
  O  O0  1  0.22894971  0.02142952  0.31115502  1
  O  O1  1  0.79243375  0.77158604  0.31123089  1
  O  O2  1  0.97796199  0.21068526  0.31371857  1
  O  O3  1  0.18555446  0.18166880  0.81402269  1
  O  O4  1  0.99571973  0.82291633  0.80790095  1
  O  O5  1  0.82347833  0.00716521  0.81146072  1
  O  O6  1  0.79967426  0.96857600  0.69389601  1
  O  O7  1  0.16317023  0.19495771  0.69729088  1
  O  O8  1  0.03206304  0.82768803  0.69167129  1
  O  O9  1  0.79775563  0.82670011  0.19416743  1
  O  O10  1  0.02961959  0.19533395  0.19811321  1
  O  O11  1  0.17375800  0.97218874  0.19392921  1
  O  O12  1  0.91643677  0.38187383  0.64246291  1
  O  O13  1  0.46670378  0.08415650  0.64179070  1
  O  O14  1  0.62880553  0.54606828  0.64448284  1
  O  O15  1  0.93169896  0.55683573  0.14443010  1
  O  O16  1  0.61495666  0.07545312  0.13941523  1
  O  O17  1  0.45898008  0.38517150  0.13989386  1
  O  O18  1  0.46133926  0.30170975  0.02701632  1
  O  O19  1  0.83157333  0.52817825  0.03289540  1
  O  O20  1  0.68892565  0.15267415  0.02556949  1
  O  O21  1  0.46241703  0.15318106  0.52762363  1
  O  O22  1  0.69584665  0.53474250  0.53002861  1
  O  O23  1  0.84038593  0.30116217  0.52912897  1
  O  O24  1  0.53562178  0.69594128  0.97068607  1
  O  O25  1  0.16816801  0.47444806  0.96715318  1
  O  O26  1  0.31440995  0.84759874  0.97204597  1
  O  O27  1  0.50990399  0.85029499  0.47628610  1
  O  O28  1  0.33734584  0.49524224  0.47276078  1
  O  O29  1  0.15180714  0.66438861  0.47619778  1
  O  O30  1  0.12800464  0.63136324  0.35974491  1
  O  O31  1  0.50376785  0.87107003  0.35972922  1
  O  O32  1  0.37023412  0.49337403  0.35767245  1
  O  O33  1  0.11908520  0.48529869  0.85444355  1
  O  O34  1  0.36478949  0.87042949  0.85757111  1
  O  O35  1  0.50547366  0.62902712  0.85737954  1
  O  O36  1  0.01837803  0.81126312  0.42171096  1
  O  O37  1  0.79217333  0.98070678  0.42243500  1
  O  O38  1  0.19015024  0.20834631  0.42147561  1
  O  O39  1  0.01551136  0.19039638  0.91200343  1
  O  O40  1  0.17192119  0.98523792  0.91074779  1
  O  O41  1  0.80878192  0.83042988  0.90990129  1
  O  O42  1  0.97774393  0.16019014  0.58907617  1
  O  O43  1  0.17850369  0.01387524  0.58824818  1
  O  O44  1  0.83732110  0.82055770  0.58592766  1
  O  O45  1  0.98714769  0.82279249  0.08436676  1
  O  O46  1  0.83237727  0.00818961  0.08607284  1
  O  O47  1  0.17986215  0.16248740  0.08646803  1
  O  O48  1  0.69027102  0.14963982  0.75306488  1
  O  O49  1  0.45854264  0.30830271  0.75376437  1
  O  O50  1  0.85123543  0.54120601  0.75256140  1
  O  O51  1  0.66503351  0.51997227  0.24301864  1
  O  O52  1  0.85377984  0.33194948  0.24306417  1
  O  O53  1  0.48041538  0.14550387  0.24267873  1
  O  O54  1  0.64031083  0.49670640  0.92439686  1
  O  O55  1  0.85259493  0.35450428  0.92462107  1
  O  O56  1  0.50015641  0.14485949  0.92101243  1
  O  O57  1  0.62747876  0.14528087  0.42341568  1
  O  O58  1  0.51872104  0.37392817  0.42440821  1
  O  O59  1  0.85529885  0.48238293  0.42429620  1
  O  O60  1  0.33700417  0.49568956  0.06428077  1
  O  O61  1  0.16078149  0.66882819  0.06555010  1
  O  O62  1  0.50593137  0.83805067  0.06610308  1
  O  O63  1  0.32841894  0.83854653  0.57156829  1
  O  O64  1  0.51125032  0.67366979  0.57109416  1
  O  O65  1  0.15895056  0.49118380  0.57049524  1
  O  O66  1  0.29729603  0.81420205  0.25356487  1
  O  O67  1  0.51624889  0.70238069  0.25343127  1
  O  O68  1  0.18473815  0.48209359  0.25412642  1
  O  O69  1  0.29397527  0.47403332  0.75714018  1
  O  O70  1  0.18158349  0.70700955  0.75667303  1
  O  O71  1  0.52661696  0.81899185  0.75742962  1
loop_
_geom_bond_atom_site_label_1
_geom_bond_atom_site_label_2
_geom_bond_distance
_geom_bond_site_symmetry_2
Na0 O53 2.310418 1_555
Na0 O67 2.363311 1_545
Na0 O16 2.423835 1_555
Na0 O52 2.510845 1_555
Na0 O66 2.673417 1_545
Na0 O31 2.760725 1_545
Na0 O9 2.791806 1_545
Na0 O2 2.953345 1_555
Na1 O51 2.312598 1_555
Na1 O68 2.370099 1_555
Na1 O17 2.416285 1_555
Na1 O53 2.512286 1_555
Na1 O67 2.691143 1_555
Na1 O32 2.701668 1_555
Na1 O10 2.754200 1_555
Na1 O0 2.916886 1_555
Na2 O15 2.292873 1_555
Na2 O52 2.340832 1_555
Na2 O66 2.359204 1_655
Na2 O51 2.522004 1_555
Na2 O68 2.676856 1_655
Na2 O30 2.749351 1_655
Na2 O11 2.812955 1_655
Na2 O1 2.920069 1_555
Na3 O71 2.333224 1_555
Na3 O14 2.359576 1_555
Na3 O50 2.397120 1_555
Na3 O49 2.414487 1_555
Na3 O69 2.577813 1_555
Na3 O35 2.601174 1_555
Na4 O69 2.347747 1_655
Na4 O50 2.390963 1_555
Na4 O48 2.392625 1_555
Na4 O12 2.422324 1_555
Na4 O33 2.515726 1_655
Na4 O70 2.591963 1_655
Na4 O7 2.873454 1_655
Na5 O70 2.338902 1_545
Na5 O48 2.385903 1_555
Na5 O49 2.396777 1_555
Na5 O13 2.437516 1_555
Na5 O71 2.577909 1_545
Na5 O34 2.614254 1_545
Na5 O8 2.926040 1_545
Na6 O63 2.363458 1_555
Na6 O44 2.432579 1_455
Na6 O43 2.502466 1_565
Na6 O65 2.583477 1_555
Na6 O8 2.620634 1_555
Na6 O29 2.650913 1_555
Na6 O12 2.699066 1_455
Na6 O22 2.746345 1_455
Na7 O64 2.345759 1_555
Na7 O42 2.409453 1_565
Na7 O44 2.526250 1_555
Na7 O63 2.592281 1_555
Na7 O27 2.634644 1_555
Na7 O13 2.676190 1_565
Na7 O6 2.696341 1_555
Na7 O23 2.743120 1_565
Na8 O61 2.387015 1_555
Na8 O47 2.454406 1_565
Na8 O45 2.496385 1_455
Na8 O62 2.565770 1_555
Na8 O26 2.649695 1_554
Na8 O16 2.651002 1_565
Na8 O11 2.699549 1_555
Na8 O18 2.769031 1_565
Na9 O62 2.402433 1_555
Na9 O46 2.464522 1_565
Na9 O45 2.470724 1_555
Na9 O60 2.552464 1_555
Na9 O17 2.664394 1_555
Na9 O9 2.689019 1_555
Na9 O24 2.705229 1_554
Na9 O19 2.710155 1_555
Na10 O56 2.400176 1_555
Na10 O39 2.432544 1_655
Na10 O41 2.434005 1_545
Na10 O55 2.471133 1_555
Na10 O20 2.557038 1_556
Na10 O5 2.633342 1_555
Na10 O24 2.812803 1_545
Na10 O34 2.871285 1_545
Na11 O54 2.395940 1_555
Na11 O40 2.421527 1_545
Na11 O39 2.451968 1_555
Na11 O56 2.483374 1_555
Na11 O3 2.548933 1_555
Na11 O18 2.615222 1_556
Na11 O25 2.783077 1_555
Na11 O35 2.844357 1_555
Na12 O59 2.333476 1_555
Na12 O2 2.340613 1_555
Na12 O37 2.396646 1_545
Na12 O38 2.437646 1_655
Na12 O57 2.598950 1_555
Na12 O23 2.709443 1_555
Na12 O30 2.869447 1_655
Na13 O57 2.336184 1_555
Na13 O38 2.375951 1_555
Na13 O0 2.395466 1_555
Na13 O36 2.437164 1_545
Na13 O58 2.613495 1_555
Na13 O21 2.678754 1_555
Na13 O31 2.873876 1_545
Na14 O58 2.337525 1_555
Na14 O36 2.374713 1_655
Na14 O1 2.395335 1_555
Na14 O37 2.430612 1_555
Na14 O59 2.602985 1_555
Na14 O22 2.749361 1_555
Na14 O32 2.875309 1_555
Na15 O43 2.359533 1_555
Na15 O42 2.375217 1_455
Na15 O38 2.418537 1_555
Na15 O44 2.428754 1_445
Na15 O37 2.511584 1_445
Na15 O36 2.524497 1_545
Na16 O45 2.366093 1_556
Na16 O46 2.404625 1_566
Na16 O47 2.412915 1_666
Na16 O40 2.495852 1_655
Na16 O39 2.508444 1_665
Na16 O41 2.518315 1_555
Na17 O55 2.424068 1_555
Na17 O54 2.431928 1_555
Na17 O50 2.432672 1_555
Na17 O56 2.503947 1_555
Na17 O49 2.540370 1_555
Na17 O48 2.550627 1_555
Na18 O52 2.488777 1_555
Na18 O53 2.492834 1_555
Na18 O51 2.493093 1_555
Na18 O57 2.548880 1_555
Na18 O59 2.562147 1_555
Na18 O58 2.563266 1_555
Na19 O68 2.419916 1_555
Na19 O66 2.527224 1_555
Na19 O61 2.535551 1_555
Na19 O67 2.548546 1_555
Na19 O60 2.552806 1_555
Na19 O62 2.657814 1_555
Na20 O69 2.467999 1_555
Na20 O65 2.488782 1_555
Na20 O64 2.490450 1_555
Na20 O71 2.599330 1_555
Na20 O70 2.602273 1_555
Na20 O63 2.615792 1_555
Ca0 O1 2.142528 1_545
Ca0 O0 2.143343 1_655
Ca0 O2 2.145477 1_555
Ca0 O38 2.292820 1_655
Ca0 O36 2.294874 1_645
Ca0 O37 2.297243 1_545
Ca1 O13 2.188803 1_555
Ca1 O14 2.191713 1_555
Ca1 O12 2.213454 1_555
Ca1 O49 2.324257 1_555
Ca1 O50 2.335640 1_555
Ca1 O48 2.353993 1_555
Ca2 O16 2.198078 1_555
Ca2 O15 2.208257 1_555
Ca2 O17 2.228276 1_555
Ca2 O52 2.266852 1_555
Ca2 O51 2.294169 1_555
Ca2 O53 2.318028 1_555
Al0 O4 1.818368 1_555
Al0 O5 1.868172 1_565
Al0 O3 1.874086 1_665
Al0 O40 1.972313 1_655
Al0 O41 1.977777 1_555
Al0 O39 2.065946 1_665
Al1 O7 1.886663 1_555
Al1 O8 1.946290 1_545
Al1 O6 1.953549 1_445
Al1 O43 1.968213 1_555
Al1 O42 1.972943 1_455
Al1 O44 2.059076 1_445
Al2 O10 1.901623 1_555
Al2 O11 1.974071 1_545
Al2 O9 1.982304 1_445
Al2 O47 1.990427 1_555
Al2 O46 1.997604 1_455
Al2 O45 2.079411 1_445
Al3 O19 1.874573 1_556
Al3 O20 1.954354 1_556
Al3 O55 1.967422 1_555
Al3 O18 1.984894 1_556
Al3 O54 2.011997 1_555
Al3 O56 2.127589 1_555
Al4 O21 1.934007 1_555
Al4 O22 1.938577 1_555
Al4 O23 1.966477 1_555
Al4 O58 1.981478 1_555
Al4 O57 2.008261 1_555
Al4 O59 2.016661 1_555
Al5 O25 1.849270 1_554
Al5 O61 1.896682 1_555
Al5 O26 1.898503 1_554
Al5 O60 1.899870 1_555
Al5 O24 1.921593 1_554
Al5 O62 1.933521 1_555
Al6 O28 1.805830 1_555
Al6 O29 1.845507 1_555
Al6 O27 1.852877 1_555
Al6 O65 1.899896 1_555
Al6 O64 1.905210 1_555
Al6 O63 1.938458 1_555
Al7 O31 1.955939 1_555
Al7 O32 1.956433 1_555
Al7 O30 1.958030 1_555
Al7 O67 1.967673 1_555
Al7 O68 1.969550 1_555
Al7 O66 1.984521 1_555
Al8 O34 1.916614 1_555
Al8 O33 1.928297 1_555
Al8 O35 1.950875 1_555
Al8 O70 1.991498 1_555
Al8 O69 1.999319 1_555
Al8 O71 2.030235 1_555
O0 P0 1.528124 1_545
O1 P1 1.527737 1_555
O2 P2 1.528061 1_655
O3 P3 1.539880 1_555
O4 P4 1.526694 1_655
O5 P5 1.539521 1_545
O6 P5 1.560080 1_555
O7 P3 1.548615 1_555
O8 P4 1.562859 1_555
O9 P1 1.573910 1_555
O10 P2 1.564942 1_555
O11 P0 1.573445 1_555
O12 P6 1.533826 1_555
O13 P7 1.528320 1_555
O14 P8 1.517755 1_555
O15 P9 1.511930 1_555
O16 P10 1.521399 1_555
O17 P11 1.527756 1_555
O18 P11 1.581316 1_555
O19 P9 1.567416 1_555
O20 P10 1.563869 1_555
O21 P7 1.560700 1_555
O22 P8 1.570570 1_555
O23 P6 1.578001 1_555
O24 P12 1.537010 1_555
O25 P13 1.523375 1_555
O26 P14 1.527797 1_555
O27 P15 1.525033 1_555
O28 P16 1.512599 1_555
O29 P17 1.524140 1_555
O30 P17 1.559908 1_555
O31 P15 1.560166 1_555
O32 P16 1.563542 1_555
O33 P13 1.556229 1_555
O34 P14 1.561619 1_555
O35 P12 1.566520 1_555
O36 P17 1.539606 1_555
O37 P15 1.539100 1_555
O38 P16 1.539192 1_555
O39 P13 1.580620 1_555
O40 P14 1.560224 1_555
O41 P12 1.557500 1_555
O42 P6 1.556448 1_555
O43 P7 1.553896 1_555
O44 P8 1.575040 1_555
O45 P9 1.578862 1_555
O46 P10 1.559698 1_555
O47 P11 1.561263 1_555
O48 P5 1.541507 1_545
O49 P3 1.540203 1_555
O50 P4 1.539778 1_655
O51 P1 1.529120 1_555
O52 P2 1.527623 1_655
O53 P0 1.530641 1_545
O54 P12 1.562105 1_555
O55 P13 1.563028 1_655
O56 P14 1.578541 1_545
O57 P15 1.570833 1_545
O58 P16 1.571134 1_555
O59 P17 1.569894 1_655
O60 P11 1.535544 1_555
O61 P9 1.539493 1_455
O62 P10 1.558633 1_565
O63 P7 1.564001 1_565
O64 P8 1.547618 1_555
O65 P6 1.538499 1_455
O66 P0 1.564397 1_555
O67 P1 1.563721 1_555
O68 P2 1.563864 1_555
O69 P3 1.575002 1_555
O70 P4 1.572876 1_555
O71 P5 1.572540 1_555
