# generated using pymatgen
data_Na2TiNbSi2PO12
_symmetry_space_group_name_H-M   'P 1'
_cell_length_a   8.90940430
_cell_length_b   8.90940400
_cell_length_c   22.38347940
_cell_angle_alpha   89.64532369
_cell_angle_beta   90.35467631
_cell_angle_gamma   120.08426198
_symmetry_Int_Tables_number   1
_chemical_formula_structural   Na2TiNbSi2PO12
_chemical_formula_sum   'Na12 Ti6 Nb6 Si12 P6 O72'
_cell_volume   1537.35826019
_cell_formula_units_Z   6
loop_
 _symmetry_equiv_pos_site_id
 _symmetry_equiv_pos_as_xyz
  1  'x, y, z'
loop_
 _atom_site_type_symbol
 _atom_site_label
 _atom_site_symmetry_multiplicity
 _atom_site_fract_x
 _atom_site_fract_y
 _atom_site_fract_z
 _atom_site_occupancy
  Na  Na0  1  0.99384809  0.62732684  0.25013912  1
  Na  Na1  1  0.37267316  0.00615191  0.75013912  1
  Na  Na2  1  0.66051509  0.96065984  0.58347212  1
  Na  Na3  1  0.03934016  0.33948491  0.08347212  1
  Na  Na4  1  0.32718109  0.29399384  0.91680612  1
  Na  Na5  1  0.70600616  0.67281891  0.41680612  1
  Na  Na6  1  0.02764979  0.01189058  0.49513877  1
  Na  Na7  1  0.98810942  0.97235021  0.99513877  1
  Na  Na8  1  0.69431679  0.34522358  0.82847177  1
  Na  Na9  1  0.65477642  0.30568321  0.32847177  1
  Na  Na10  1  0.36098279  0.67855758  0.16180577  1
  Na  Na11  1  0.32144242  0.63901721  0.66180577  1
  Ti  Ti0  1  0.99341813  0.99903310  0.35430566  1
  Ti  Ti1  1  0.00096690  0.00658187  0.85430566  1
  Ti  Ti2  1  0.66008513  0.33236610  0.68763866  1
  Ti  Ti3  1  0.66763390  0.33991487  0.18763866  1
  Ti  Ti4  1  0.32675113  0.66570010  0.02097266  1
  Ti  Ti5  1  0.33429990  0.67324887  0.52097266  1
  Nb  Nb0  1  -0.00008971  0.99937698  0.64441816  1
  Nb  Nb1  1  0.00062302  0.00008971  0.14441816  1
  Nb  Nb2  1  0.66657729  0.33270998  0.97775116  1
  Nb  Nb3  1  0.66729002  0.33342271  0.47775116  1
  Nb  Nb4  1  0.33324329  0.66604398  0.31108516  1
  Nb  Nb5  1  0.33395602  0.66675671  0.81108516  1
  Si  Si0  1  0.70971019  0.71009354  0.25119078  1
  Si  Si1  1  0.99256777  0.28278373  0.24980245  1
  Si  Si2  1  0.28990646  0.29028981  0.75119078  1
  Si  Si3  1  0.71721627  0.00743223  0.74980245  1
  Si  Si4  1  0.37637719  0.04342654  0.58452378  1
  Si  Si5  1  0.65923477  0.61611673  0.58313545  1
  Si  Si6  1  0.95657346  0.62362281  0.08452378  1
  Si  Si7  1  0.38388327  0.34076523  0.08313545  1
  Si  Si8  1  0.04304319  0.37676054  0.91785778  1
  Si  Si9  1  0.32590077  0.94945073  0.91646945  1
  Si  Si10  1  0.62323946  0.95695681  0.41785778  1
  Si  Si11  1  0.05054927  0.67409923  0.41646945  1
  P  P0  1  0.28945278  0.00733891  0.25201318  1
  P  P1  1  0.99266109  0.71054722  0.75201318  1
  P  P2  1  0.95611978  0.34067191  0.58534618  1
  P  P3  1  0.65932809  0.04388022  0.08534618  1
  P  P4  1  0.62278578  0.67400591  0.91868018  1
  P  P5  1  0.32599409  0.37721422  0.41868018  1
  O  O0  1  0.19944246  0.02350196  0.30735188  1
  O  O1  1  0.82972539  0.79586679  0.31093654  1
  O  O2  1  0.97766767  0.16027283  0.30642124  1
  O  O3  1  0.20413321  0.17027461  0.81093654  1
  O  O4  1  0.97649804  0.80055754  0.80735188  1
  O  O5  1  0.83972717  0.02233233  0.80642124  1
  O  O6  1  0.79926335  0.97524502  0.68903772  1
  O  O7  1  0.16610047  0.18843039  0.69362295  1
  O  O8  1  0.02356317  0.82757435  0.69529027  1
  O  O9  1  0.81156961  0.83389953  0.19362295  1
  O  O10  1  0.02475498  0.20073665  0.18903772  1
  O  O11  1  0.17242565  0.97643683  0.19529027  1
  O  O12  1  0.86610946  0.35683496  0.64068488  1
  O  O13  1  0.49639239  0.12919979  0.64426954  1
  O  O14  1  0.64433467  0.49360583  0.63975424  1
  O  O15  1  0.87080021  0.50360761  0.14426954  1
  O  O16  1  0.64316504  0.13389054  0.14068488  1
  O  O17  1  0.50639417  0.35566533  0.13975424  1
  O  O18  1  0.46593035  0.30857802  0.02237072  1
  O  O19  1  0.83276747  0.52176339  0.02695595  1
  O  O20  1  0.69023017  0.16090735  0.02862327  1
  O  O21  1  0.47823661  0.16723253  0.52695595  1
  O  O22  1  0.69142198  0.53406965  0.52237072  1
  O  O23  1  0.83909265  0.30976983  0.52862327  1
  O  O24  1  0.53277546  0.69016896  0.97401888  1
  O  O25  1  0.16305839  0.46253379  0.97760354  1
  O  O26  1  0.31100067  0.82693983  0.97308824  1
  O  O27  1  0.53746621  0.83694161  0.47760354  1
  O  O28  1  0.30983104  0.46722454  0.47401888  1
  O  O29  1  0.17306017  0.68899933  0.47308824  1
  O  O30  1  0.13259635  0.64191202  0.35570472  1
  O  O31  1  0.49943347  0.85509739  0.36028995  1
  O  O32  1  0.35689617  0.49424135  0.36195727  1
  O  O33  1  0.14490261  0.50056653  0.86028995  1
  O  O34  1  0.35808798  0.86740365  0.85570472  1
  O  O35  1  0.50575865  0.64310383  0.86195727  1
  O  O36  1  0.02625891  0.84317483  0.41232045  1
  O  O37  1  0.81237553  0.97039799  0.41038999  1
  O  O38  1  0.16986809  0.19610464  0.41146089  1
  O  O39  1  0.02960201  0.18762447  0.91038999  1
  O  O40  1  0.15682517  0.97374109  0.91232045  1
  O  O41  1  0.80389536  0.83013191  0.91146089  1
  O  O42  1  0.96464950  0.16828174  0.58843859  1
  O  O43  1  0.18522304  0.02512868  0.58830349  1
  O  O44  1  0.83009424  0.81366594  0.58941788  1
  O  O45  1  0.97487132  0.81477696  0.08830349  1
  O  O46  1  0.83171826  0.03535050  0.08843859  1
  O  O47  1  0.18633406  0.16990576  0.08941788  1
  O  O48  1  0.69292591  0.17650783  0.74565345  1
  O  O49  1  0.47904253  0.30373099  0.74372299  1
  O  O50  1  0.83653509  0.52943764  0.74479389  1
  O  O51  1  0.69626901  0.52095747  0.24372299  1
  O  O52  1  0.82349217  0.30707409  0.24565345  1
  O  O53  1  0.47056236  0.16346491  0.24479389  1
  O  O54  1  0.63131650  0.50161474  0.92177159  1
  O  O55  1  0.85189004  0.35846168  0.92163649  1
  O  O56  1  0.49676124  0.14699894  0.92275088  1
  O  O57  1  0.64153832  0.14810996  0.42163649  1
  O  O58  1  0.49838526  0.36868350  0.42177159  1
  O  O59  1  0.85300106  0.50323876  0.42275088  1
  O  O60  1  0.35959191  0.50984183  0.07898745  1
  O  O61  1  0.14570853  0.63706499  0.07705699  1
  O  O62  1  0.50320109  0.86277164  0.07812789  1
  O  O63  1  0.36293501  0.85429147  0.57705699  1
  O  O64  1  0.49015817  0.64040809  0.57898745  1
  O  O65  1  0.13722836  0.49679891  0.57812789  1
  O  O66  1  0.29798250  0.83494874  0.25510559  1
  O  O67  1  0.51855604  0.69179568  0.25497049  1
  O  O68  1  0.16342724  0.48033294  0.25608488  1
  O  O69  1  0.30820432  0.48144396  0.75497049  1
  O  O70  1  0.16505126  0.70201750  0.75510559  1
  O  O71  1  0.51966706  0.83657276  0.75608488  1
loop_
_geom_bond_atom_site_label_1
_geom_bond_atom_site_label_2
_geom_bond_distance
_geom_bond_site_symmetry_2
Na0 O51 2.329354 1_555
Na0 O66 2.397932 1_655
Na0 O68 2.448376 1_655
Na0 O52 2.472821 1_555
Na0 O15 2.611733 1_555
Na0 O30 2.633439 1_655
Na0 O1 2.914798 1_555
Na0 O11 2.954424 1_655
Na1 O49 2.329354 1_555
Na1 O70 2.397931 1_545
Na1 O71 2.448376 1_545
Na1 O48 2.472821 1_555
Na1 O13 2.611733 1_555
Na1 O34 2.633439 1_545
Na1 O3 2.914798 1_555
Na1 O8 2.954424 1_545
Na2 O63 2.329363 1_555
Na2 O42 2.397932 1_565
Na2 O44 2.448376 1_555
Na2 O64 2.472813 1_555
Na2 O27 2.611712 1_555
Na2 O6 2.633439 1_555
Na2 O13 2.914798 1_565
Na2 O23 2.954424 1_565
Na3 O61 2.329363 1_555
Na3 O46 2.397931 1_455
Na3 O47 2.448376 1_555
Na3 O60 2.472813 1_555
Na3 O25 2.611712 1_554
Na3 O10 2.633439 1_555
Na3 O15 2.914798 1_455
Na3 O20 2.954424 1_455
Na4 O39 2.329354 1_555
Na4 O54 2.397935 1_555
Na4 O56 2.448390 1_555
Na4 O40 2.472821 1_545
Na4 O3 2.611733 1_555
Na4 O18 2.633424 1_556
Na4 O25 2.914798 1_555
Na4 O35 2.954424 1_555
Na5 O37 2.329354 1_555
Na5 O58 2.397935 1_555
Na5 O59 2.448390 1_555
Na5 O36 2.472821 1_655
Na5 O1 2.611733 1_555
Na5 O22 2.633424 1_555
Na5 O27 2.914798 1_555
Na5 O32 2.954424 1_555
Na6 O36 2.389897 1_545
Na6 O38 2.390343 1_555
Na6 O43 2.476749 1_555
Na6 O37 2.581969 1_445
Na6 O42 2.729909 1_455
Na6 O44 2.748411 1_445
Na7 O40 2.389897 1_655
Na7 O41 2.390343 1_555
Na7 O45 2.476749 1_556
Na7 O39 2.581969 1_665
Na7 O46 2.729909 1_566
Na7 O47 2.748411 1_666
Na8 O48 2.389897 1_555
Na8 O50 2.390343 1_555
Na8 O55 2.476749 1_555
Na8 O49 2.581969 1_555
Na8 O54 2.729909 1_555
Na8 O56 2.748411 1_555
Na9 O52 2.389897 1_555
Na9 O53 2.390343 1_555
Na9 O57 2.476749 1_555
Na9 O51 2.581969 1_555
Na9 O58 2.729909 1_555
Na9 O59 2.748411 1_555
Na10 O60 2.389897 1_555
Na10 O62 2.390343 1_555
Na10 O67 2.476749 1_555
Na10 O61 2.581969 1_555
Na10 O66 2.729909 1_555
Na10 O68 2.748411 1_555
Na11 O64 2.389897 1_555
Na11 O65 2.390343 1_555
Na11 O69 2.476749 1_555
Na11 O63 2.581969 1_555
Na11 O70 2.729909 1_555
Na11 O71 2.748411 1_555
Nb0 O7 1.935173 1_565
Nb0 O6 1.968122 1_455
Nb0 O8 1.995691 1_555
Nb0 O43 1.999628 1_565
Nb0 O44 2.008668 1_455
Nb0 O42 2.092612 1_465
Nb1 O9 1.935173 1_445
Nb1 O10 1.968122 1_555
Nb1 O11 1.995691 1_545
Nb1 O45 1.999627 1_445
Nb1 O47 2.008668 1_555
Nb1 O46 2.092612 1_455
Nb2 O19 1.935173 1_556
Nb2 O18 1.968122 1_556
Nb2 O20 1.995691 1_556
Nb2 O55 1.999628 1_555
Nb2 O56 2.008668 1_555
Nb2 O54 2.092612 1_555
Nb3 O21 1.935173 1_555
Nb3 O22 1.968122 1_555
Nb3 O23 1.995691 1_555
Nb3 O57 1.999627 1_555
Nb3 O59 2.008668 1_555
Nb3 O58 2.092612 1_555
Nb4 O31 1.935173 1_555
Nb4 O30 1.968122 1_555
Nb4 O32 1.995691 1_555
Nb4 O67 1.999628 1_555
Nb4 O68 2.008668 1_555
Nb4 O66 2.092612 1_555
Nb5 O33 1.935173 1_555
Nb5 O34 1.968122 1_555
Nb5 O35 1.995691 1_555
Nb5 O69 1.999627 1_555
Nb5 O71 2.008668 1_555
Nb5 O70 2.092612 1_555
O0 P0 1.525921 1_555
O0 Ti0 2.035002 1_445
O1 Si0 1.640572 1_555
O1 Ti0 1.924420 1_555
O2 Si1 1.629355 1_555
O2 Ti0 1.847523 1_545
O3 Si2 1.640572 1_555
O3 Ti1 1.924420 1_555
O4 P1 1.525921 1_555
O4 Ti1 2.035002 1_665
O5 Si3 1.629355 1_555
O5 Ti1 1.847523 1_655
O6 Si3 1.641287 1_565
O7 Si2 1.641337 1_555
O8 P1 1.573238 1_455
O9 Si0 1.641337 1_555
O10 Si1 1.641287 1_455
O11 P0 1.573238 1_565
O12 P2 1.525921 1_555
O12 Ti2 2.035002 1_555
O13 Si4 1.640572 1_555
O13 Ti2 1.924420 1_555
O14 Si5 1.629355 1_555
O14 Ti2 1.847523 1_555
O15 Si6 1.640572 1_555
O15 Ti3 1.924420 1_555
O16 P3 1.525921 1_555
O16 Ti3 2.035002 1_555
O17 Si7 1.629355 1_555
O17 Ti3 1.847523 1_555
O18 Si7 1.641287 1_555
O19 Si6 1.641337 1_555
O20 P3 1.573238 1_555
O21 Si4 1.641337 1_555
O22 Si5 1.641287 1_555
O23 P2 1.573238 1_555
O24 P4 1.525921 1_555
O24 Ti4 2.035002 1_556
O25 Si8 1.640572 1_555
O25 Ti4 1.924420 1_556
O26 Si9 1.629355 1_555
O26 Ti4 1.847523 1_556
O27 Si10 1.640572 1_555
O27 Ti5 1.924420 1_555
O28 P5 1.525921 1_555
O28 Ti5 2.035002 1_555
O29 Si11 1.629355 1_555
O29 Ti5 1.847523 1_555
O30 Si11 1.641287 1_555
O31 Si10 1.641337 1_555
O32 P5 1.573238 1_555
O33 Si8 1.641337 1_555
O34 Si9 1.641287 1_555
O35 P4 1.573238 1_555
O36 Si11 1.627708 1_555
O36 Ti0 2.020006 1_455
O37 Si10 1.637907 1_555
O37 Ti0 1.962468 1_555
O38 P5 1.521466 1_555
O38 Ti0 2.103935 1_445
O39 Si8 1.637907 1_555
O39 Ti1 1.962468 1_555
O40 Si9 1.627708 1_555
O40 Ti1 2.020006 1_565
O41 P4 1.521466 1_555
O41 Ti1 2.103935 1_665
O42 P2 1.576443 1_555
O43 Si4 1.630168 1_555
O44 Si5 1.658056 1_555
O45 Si6 1.630168 1_555
O46 P3 1.576443 1_555
O47 Si7 1.658056 1_555
O48 Si3 1.627708 1_555
O48 Ti2 2.020006 1_555
O49 Si2 1.637907 1_555
O49 Ti2 1.962468 1_555
O50 P1 1.521466 1_555
O50 Ti2 2.103935 1_555
O51 Si0 1.637907 1_555
O51 Ti3 1.962468 1_555
O52 Si1 1.627708 1_555
O52 Ti3 2.020006 1_555
O53 P0 1.521466 1_555
O53 Ti3 2.103935 1_555
O54 P4 1.576456 1_555
O55 Si8 1.630154 1_655
O56 Si9 1.658053 1_545
O57 Si10 1.630154 1_545
O58 P5 1.576456 1_555
O59 Si11 1.658053 1_655
O60 Si7 1.627721 1_555
O60 Ti4 2.020006 1_555
O61 Si6 1.637892 1_455
O61 Ti4 1.962468 1_555
O62 P3 1.521462 1_565
O62 Ti4 2.103935 1_555
O63 Si4 1.637892 1_565
O63 Ti5 1.962468 1_555
O64 Si5 1.627721 1_555
O64 Ti5 2.020006 1_555
O65 P2 1.521462 1_455
O65 Ti5 2.103935 1_555
O66 P0 1.576443 1_565
O67 Si0 1.630168 1_555
O68 Si1 1.658056 1_455
O69 Si2 1.630168 1_555
O70 P1 1.576443 1_455
O71 Si3 1.658056 1_565
