# generated using pymatgen
data_Na2Te
_symmetry_space_group_name_H-M   'P 1'
_cell_length_a   5.13781016
_cell_length_b   5.13780821
_cell_length_c   5.13780802
_cell_angle_alpha   59.99998835
_cell_angle_beta   60.00000091
_cell_angle_gamma   59.99998808
_symmetry_Int_Tables_number   1
_chemical_formula_structural   Na2Te
_chemical_formula_sum   'Na2 Te1'
_cell_volume   95.90002973
_cell_formula_units_Z   1
loop_
 _symmetry_equiv_pos_site_id
 _symmetry_equiv_pos_as_xyz
  1  'x, y, z'
loop_
 _atom_site_type_symbol
 _atom_site_label
 _atom_site_symmetry_multiplicity
 _atom_site_fract_x
 _atom_site_fract_y
 _atom_site_fract_z
 _atom_site_occupancy
  Na  Na0  1  0.25000000  0.25000000  0.25000000  1
  Na  Na1  1  0.75000000  0.75000000  0.75000000  1
  Te  Te0  1  0.00000000  -0.00000000  0.00000000  1
loop_
_geom_bond_atom_site_label_1
_geom_bond_atom_site_label_2
_geom_bond_distance
_geom_bond_site_symmetry_2
Na0 Te0 3.146252 1_565
Na0 Te0 3.146252 1_556
Na0 Te0 3.146253 1_555
Na0 Te0 3.146253 1_655
Na1 Te0 3.146252 1_656
Na1 Te0 3.146252 1_665
Na1 Te0 3.146253 1_666
Na1 Te0 3.146253 1_566
