# generated using pymatgen
data_NaTi2Ge2P5SO24
_symmetry_space_group_name_H-M   'P 1'
_cell_length_a   8.45726421
_cell_length_b   8.46910284
_cell_length_c   22.00498199
_cell_angle_alpha   90.03037885
_cell_angle_beta   89.82321475
_cell_angle_gamma   120.00921525
_symmetry_Int_Tables_number   1
_chemical_formula_structural   NaTi2Ge2P5SO24
_chemical_formula_sum   'Na3 Ti6 Ge6 P15 S3 O72'
_cell_volume   1364.82275369
_cell_formula_units_Z   3
loop_
 _symmetry_equiv_pos_site_id
 _symmetry_equiv_pos_as_xyz
  1  'x, y, z'
loop_
 _atom_site_type_symbol
 _atom_site_label
 _atom_site_symmetry_multiplicity
 _atom_site_fract_x
 _atom_site_fract_y
 _atom_site_fract_z
 _atom_site_occupancy
  Na  Na0  1  0.66869250  0.33576220  0.83443234  1
  Na  Na1  1  0.66714137  0.33387457  0.33124381  1
  Na  Na2  1  0.33348821  0.66697337  0.16702607  1
  Ti  Ti0  1  0.99191058  0.99974439  0.85757476  1
  Ti  Ti1  1  0.00544516  0.99904982  0.64666990  1
  Ti  Ti2  1  0.66214335  0.32614589  0.68931412  1
  Ti  Ti3  1  0.65825217  0.32781200  0.47478181  1
  Ti  Ti4  1  0.33312919  0.67220114  0.51774636  1
  Ti  Ti5  1  0.33050025  0.65754957  0.81017245  1
  Ge  Ge0  1  0.00066460  0.00015434  0.35305872  1
  Ge  Ge1  1  0.99965923  0.00021305  0.14470973  1
  Ge  Ge2  1  0.66658196  0.33279196  0.18617497  1
  Ge  Ge3  1  0.67312640  0.34030511  0.98446072  1
  Ge  Ge4  1  0.33552552  0.66074073  0.02276150  1
  Ge  Ge5  1  0.33305604  0.66616582  0.31175587  1
  P  P0  1  0.28634146  0.00016686  0.24954744  1
  P  P1  1  0.71424914  0.71359451  0.24971106  1
  P  P2  1  0.99954589  0.28583650  0.24967282  1
  P  P3  1  0.28522961  0.28499558  0.75080456  1
  P  P4  1  0.00045433  0.71236511  0.75101192  1
  P  P5  1  0.71160613  0.99737278  0.74996788  1
  P  P6  1  0.37800638  0.04352726  0.58292135  1
  P  P7  1  0.95610015  0.62444106  0.08417461  1
  P  P8  1  0.66809021  0.04603701  0.08337535  1
  P  P9  1  0.37826181  0.32965450  0.08388926  1
  P  P10  1  0.61689114  0.66031333  0.91899700  1
  P  P11  1  0.04361477  0.38186736  0.91920464  1
  P  P12  1  0.62525731  0.95061770  0.41368780  1
  P  P13  1  0.32477285  0.37622401  0.41435869  1
  P  P14  1  0.04712660  0.67264747  0.41396015  1
  S  S0  1  0.95529448  0.33310307  0.58282381  1
  S  S1  1  0.66597852  0.62155512  0.58303522  1
  S  S2  1  0.33580419  0.95603220  0.91815715  1
  O  O0  1  0.20676154  0.03795044  0.30758861  1
  O  O1  1  0.83122212  0.79342447  0.30757114  1
  O  O2  1  0.96194827  0.16865047  0.30761009  1
  O  O3  1  0.20396775  0.16660385  0.80701704  1
  O  O4  1  0.96440364  0.79741652  0.80687124  1
  O  O5  1  0.83218028  0.03679848  0.80648031  1
  O  O6  1  0.79780623  0.96771910  0.69277194  1
  O  O7  1  0.16978255  0.20278952  0.69310222  1
  O  O8  1  0.03205953  0.82968069  0.69325191  1
  O  O9  1  0.79478116  0.83246424  0.19245203  1
  O  O10  1  0.03791533  0.20530864  0.19239376  1
  O  O11  1  0.16768635  0.96231655  0.19248182  1
  O  O12  1  0.87406759  0.36643909  0.63780809  1
  O  O13  1  0.49878662  0.13346960  0.63919211  1
  O  O14  1  0.63564663  0.50819918  0.63776145  1
  O  O15  1  0.87383517  0.49982131  0.14057029  1
  O  O16  1  0.62621832  0.12699167  0.14039373  1
  O  O17  1  0.50128197  0.37288892  0.14060160  1
  O  O18  1  0.46123287  0.29569449  0.02559801  1
  O  O19  1  0.83848596  0.54374230  0.02623919  1
  O  O20  1  0.70312399  0.16447890  0.02546349  1
  O  O21  1  0.46780042  0.16658528  0.52724934  1
  O  O22  1  0.70049261  0.54061803  0.52873784  1
  O  O23  1  0.84106046  0.30215502  0.52885620  1
  O  O24  1  0.53563152  0.70271761  0.97524818  1
  O  O25  1  0.16581640  0.46614113  0.97523016  1
  O  O26  1  0.29998388  0.84157278  0.97322593  1
  O  O27  1  0.53829984  0.83616352  0.47205614  1
  O  O28  1  0.29889995  0.46340571  0.47256981  1
  O  O29  1  0.16385024  0.70149535  0.47200777  1
  O  O30  1  0.12911284  0.62773162  0.35844997  1
  O  O31  1  0.49861200  0.87079777  0.35841066  1
  O  O32  1  0.37198423  0.50161465  0.35840197  1
  O  O33  1  0.12705568  0.49917856  0.86163124  1
  O  O34  1  0.37020156  0.87780261  0.86301257  1
  O  O35  1  0.50092779  0.62985108  0.86160619  1
  O  O36  1  0.02716509  0.84043418  0.40690121  1
  O  O37  1  0.81403695  0.97285049  0.40687389  1
  O  O38  1  0.15983196  0.18673340  0.40697060  1
  O  O39  1  0.02609185  0.19447008  0.90871100  1
  O  O40  1  0.17366114  0.97484757  0.91039401  1
  O  O41  1  0.80591040  0.82947524  0.90882879  1
  O  O42  1  0.97196071  0.16935655  0.59074453  1
  O  O43  1  0.19046737  0.02633270  0.59184827  1
  O  O44  1  0.82891463  0.80339223  0.59064594  1
  O  O45  1  0.97502415  0.81219704  0.09286192  1
  O  O46  1  0.83649848  0.02573704  0.09237249  1
  O  O47  1  0.18896368  0.16225780  0.09246590  1
  O  O48  1  0.69416695  0.16971122  0.74256035  1
  O  O49  1  0.47728571  0.30943573  0.74232344  1
  O  O50  1  0.83125596  0.52336158  0.74134072  1
  O  O51  1  0.69248200  0.52070260  0.24232374  1
  O  O52  1  0.82806030  0.30741606  0.24237967  1
  O  O53  1  0.47933842  0.17191597  0.24235704  1
  O  O54  1  0.63773245  0.48876156  0.92547313  1
  O  O55  1  0.84947832  0.35846793  0.92548047  1
  O  O56  1  0.50233487  0.14094905  0.92416574  1
  O  O57  1  0.64292909  0.14059442  0.42369073  1
  O  O58  1  0.49905258  0.35985370  0.42354494  1
  O  O59  1  0.85893347  0.50066445  0.42481069  1
  O  O60  1  0.36012025  0.50335146  0.07649895  1
  O  O61  1  0.14752697  0.64251775  0.07504331  1
  O  O62  1  0.49373580  0.85483847  0.07502113  1
  O  O63  1  0.35937605  0.85576946  0.57463399  1
  O  O64  1  0.50207492  0.63855732  0.57594723  1
  O  O65  1  0.13741918  0.49606310  0.57591721  1
  O  O66  1  0.30736661  0.82860915  0.25746941  1
  O  O67  1  0.52140707  0.69291922  0.25752284  1
  O  O68  1  0.17140363  0.47845031  0.25741702  1
  O  O69  1  0.30718891  0.47431949  0.75777257  1
  O  O70  1  0.16927978  0.69435091  0.75932986  1
  O  O71  1  0.52332660  0.83315322  0.75959236  1
loop_
_geom_bond_atom_site_label_1
_geom_bond_atom_site_label_2
_geom_bond_distance
_geom_bond_site_symmetry_2
Na0 O54 2.468678 1_555
Na0 O55 2.472476 1_555
Na0 O56 2.502989 1_555
Na0 O48 2.531501 1_555
Na0 O50 2.532164 1_555
Na0 O49 2.537131 1_555
Na1 O52 2.452409 1_555
Na1 O51 2.457562 1_555
Na1 O53 2.463125 1_555
Na1 O58 2.547381 1_555
Na1 O57 2.554492 1_555
Na1 O59 2.567336 1_555
Na2 O66 2.486067 1_555
Na2 O68 2.486341 1_555
Na2 O67 2.491873 1_555
Na2 O60 2.499148 1_555
Na2 O62 2.509309 1_555
Na2 O61 2.511299 1_555
Ge0 O37 1.889630 1_445
Ge0 O0 1.890289 1_555
Ge0 O36 1.894819 1_545
Ge0 O38 1.896446 1_555
Ge0 O2 1.901232 1_455
Ge0 O1 1.902144 1_445
Ge1 O45 1.883689 1_545
Ge1 O47 1.887002 1_655
Ge1 O46 1.893579 1_555
Ge1 O9 1.911111 1_545
Ge1 O10 1.913318 1_655
Ge1 O11 1.921783 1_645
Ge2 O17 1.886598 1_555
Ge2 O16 1.890604 1_555
Ge2 O15 1.894967 1_555
Ge2 O53 1.929756 1_555
Ge2 O52 1.935237 1_555
Ge2 O51 1.938589 1_555
Ge3 O19 1.834536 1_556
Ge3 O20 1.864552 1_556
Ge3 O18 1.867268 1_556
Ge3 O55 1.921281 1_555
Ge3 O54 1.932830 1_555
Ge3 O56 2.065763 1_555
Ge4 O24 1.863124 1_554
Ge4 O60 1.870514 1_555
Ge4 O25 1.873894 1_554
Ge4 O61 1.902309 1_555
Ge4 O62 1.903241 1_555
Ge4 O26 2.021936 1_554
Ge5 O30 1.887985 1_555
Ge5 O32 1.888556 1_555
Ge5 O31 1.896746 1_555
Ge5 O67 1.908011 1_555
Ge5 O68 1.913177 1_555
Ge5 O66 1.915520 1_555
O0 P0 1.547991 1_555
O1 P1 1.547468 1_555
O2 P2 1.547467 1_555
O3 P3 1.521352 1_555
O3 Ti0 1.976193 1_445
O4 P4 1.529418 1_655
O4 Ti0 1.958574 1_555
O5 P5 1.537714 1_545
O5 Ti0 1.902965 1_545
O6 P5 1.534842 1_555
O6 Ti1 1.925229 1_655
O7 P3 1.541754 1_555
O7 Ti1 1.887064 1_545
O8 P4 1.551664 1_555
O8 Ti1 1.866766 1_555
O9 P1 1.541141 1_555
O10 P2 1.541761 1_455
O11 P0 1.540194 1_565
O12 S0 1.484605 1_555
O12 Ti2 1.997359 1_555
O13 P6 1.544464 1_555
O13 Ti2 1.881585 1_555
O14 S1 1.480084 1_555
O14 Ti2 2.015782 1_555
O15 P7 1.549053 1_555
O16 P8 1.552068 1_555
O17 P9 1.549319 1_555
O18 P9 1.554464 1_555
O19 P7 1.551997 1_555
O20 P8 1.555536 1_555
O21 P6 1.538696 1_555
O21 Ti3 1.892627 1_555
O22 S1 1.476401 1_555
O22 Ti3 2.035149 1_555
O23 S0 1.471670 1_555
O23 Ti3 2.049647 1_555
O24 P10 1.540967 1_555
O25 P11 1.538343 1_555
O26 S2 1.484963 1_555
O27 P12 1.553233 1_555
O27 Ti4 1.878964 1_555
O28 P13 1.546838 1_555
O28 Ti4 1.920116 1_555
O29 P14 1.559479 1_555
O29 Ti4 1.867771 1_555
O30 P14 1.541316 1_555
O31 P12 1.538394 1_555
O32 P13 1.541928 1_555
O33 P11 1.544222 1_555
O33 Ti5 1.929456 1_555
O34 S2 1.478449 1_555
O34 Ti5 2.077943 1_555
O35 P10 1.541908 1_555
O35 Ti5 1.939599 1_555
O36 P14 1.520603 1_555
O37 P12 1.518153 1_555
O38 P13 1.519740 1_555
O39 P11 1.535801 1_555
O39 Ti0 1.895424 1_445
O40 S2 1.468009 1_555
O40 Ti0 2.023256 1_455
O41 P10 1.537956 1_555
O41 Ti0 1.883542 1_555
O42 S0 1.472872 1_555
O42 Ti1 2.021787 1_645
O43 P6 1.530516 1_555
O43 Ti1 1.893197 1_545
O44 S1 1.475452 1_555
O44 Ti1 2.007273 1_655
O45 P7 1.528384 1_555
O46 P8 1.531018 1_555
O47 P9 1.528608 1_555
O48 P5 1.547366 1_545
O48 Ti2 1.887847 1_555
O49 P3 1.542011 1_555
O49 Ti2 1.895383 1_555
O50 P4 1.538017 1_655
O50 Ti2 1.940235 1_555
O51 P1 1.558242 1_555
O52 P2 1.558564 1_555
O53 P0 1.558448 1_555
O54 P10 1.555248 1_555
O55 P11 1.557956 1_655
O56 S2 1.499440 1_545
O57 P12 1.555232 1_545
O57 Ti3 1.894266 1_555
O58 P13 1.561674 1_555
O58 Ti3 1.879561 1_555
O59 P14 1.546240 1_655
O59 Ti3 1.933298 1_555
O60 P9 1.562104 1_555
O61 P7 1.560419 1_455
O62 P8 1.563061 1_565
O63 P6 1.528359 1_565
O63 Ti4 1.920345 1_555
O64 S1 1.472263 1_555
O64 Ti4 2.044954 1_555
O65 S0 1.474010 1_455
O65 Ti4 2.030411 1_555
O66 P0 1.559464 1_565
O67 P1 1.559726 1_555
O68 P2 1.559548 1_455
O69 P3 1.526748 1_555
O69 Ti5 1.862783 1_555
O70 P4 1.521489 1_555
O70 Ti5 1.908608 1_555
O71 P5 1.515812 1_555
O71 Ti5 1.916926 1_555
