# generated using pymatgen
data_YbNiSn
_symmetry_space_group_name_H-M   'P 1'
_cell_length_a   4.45137200
_cell_length_b   7.16229500
_cell_length_c   7.63156200
_cell_angle_alpha   90.00000000
_cell_angle_beta   90.00000000
_cell_angle_gamma   90.00000000
_symmetry_Int_Tables_number   1
_chemical_formula_structural   YbNiSn
_chemical_formula_sum   'Yb4 Ni4 Sn4'
_cell_volume   243.30976051
_cell_formula_units_Z   4
loop_
 _symmetry_equiv_pos_site_id
 _symmetry_equiv_pos_as_xyz
  1  'x, y, z'
loop_
 _atom_site_type_symbol
 _atom_site_label
 _atom_site_symmetry_multiplicity
 _atom_site_fract_x
 _atom_site_fract_y
 _atom_site_fract_z
 _atom_site_occupancy
  Yb  Yb0  1  0.25000000  0.97546200  0.81576400  1
  Yb  Yb1  1  0.75000000  0.02453800  0.18423600  1
  Yb  Yb2  1  0.25000000  0.47546200  0.68423600  1
  Yb  Yb3  1  0.75000000  0.52453800  0.31576400  1
  Ni  Ni0  1  0.75000000  0.29380500  0.89571800  1
  Ni  Ni1  1  0.25000000  0.20619500  0.39571800  1
  Ni  Ni2  1  0.75000000  0.79380500  0.60428200  1
  Ni  Ni3  1  0.25000000  0.70619500  0.10428200  1
  Sn  Sn0  1  0.25000000  0.83223400  0.42397000  1
  Sn  Sn1  1  0.75000000  0.66776600  0.92397000  1
  Sn  Sn2  1  0.25000000  0.33223400  0.07603000  1
  Sn  Sn3  1  0.75000000  0.16776600  0.57603000  1
loop_
_geom_bond_atom_site_label_1
_geom_bond_atom_site_label_2
_geom_bond_distance
_geom_bond_site_symmetry_2
Ni0 Sn3 2.601374 1_555
Ni0 Sn2 2.631156 1_656
Ni0 Sn2 2.631156 1_556
Ni0 Sn1 2.687083 1_555
Ni0 Yb1 2.927028 1_556
Ni0 Yb2 3.041593 1_555
Ni0 Yb2 3.041593 1_655
Ni0 Yb0 3.244178 1_645
Ni0 Yb0 3.244178 1_545
Ni1 Sn2 2.601374 1_555
Ni1 Sn3 2.631156 1_455
Ni1 Sn3 2.631156 1_555
Ni1 Sn0 2.687083 1_545
Ni1 Yb2 2.927028 1_555
Ni1 Yb1 3.041593 1_455
Ni1 Yb1 3.041593 1_555
Ni1 Yb3 3.244178 1_455
Ni1 Yb3 3.244178 1_555
Ni2 Sn1 2.601374 1_555
Ni2 Sn0 2.631156 1_655
Ni2 Sn0 2.631156 1_555
Ni2 Sn3 2.687083 1_565
Ni2 Yb3 2.927028 1_555
Ni2 Yb0 3.041593 1_655
Ni2 Yb0 3.041593 1_555
Ni2 Yb2 3.244178 1_655
Ni2 Yb2 3.244178 1_555
Ni3 Sn0 2.601374 1_555
Ni3 Sn1 2.631156 1_554
Ni3 Sn1 2.631156 1_454
Ni3 Sn2 2.687083 1_555
Ni3 Yb0 2.927028 1_554
Ni3 Yb3 3.041593 1_455
Ni3 Yb3 3.041593 1_555
Ni3 Yb1 3.244178 1_565
Ni3 Yb1 3.244178 1_465
Sn0 Yb0 3.161084 1_555
Sn0 Yb1 3.193426 1_465
Sn0 Yb1 3.193426 1_565
Sn0 Yb2 3.236468 1_555
Sn0 Yb3 3.239193 1_555
Sn0 Yb3 3.239193 1_455
Sn1 Yb3 3.161084 1_556
Sn1 Yb2 3.193426 1_555
Sn1 Yb2 3.193426 1_655
Sn1 Yb1 3.236468 1_566
Sn1 Yb0 3.239193 1_655
Sn1 Yb0 3.239193 1_555
Sn2 Yb2 3.161084 1_554
Sn2 Yb3 3.193426 1_455
Sn2 Yb3 3.193426 1_555
Sn2 Yb0 3.236468 1_544
Sn2 Yb1 3.239193 1_555
Sn2 Yb1 3.239193 1_455
Sn3 Yb1 3.161084 1_555
Sn3 Yb0 3.193426 1_645
Sn3 Yb0 3.193426 1_545
Sn3 Yb3 3.236468 1_555
Sn3 Yb2 3.239193 1_555
Sn3 Yb2 3.239193 1_655
