# generated using pymatgen
data_MgV4(OF2)4
_symmetry_space_group_name_H-M   'P 1'
_cell_length_a   5.20305890
_cell_length_b   9.49679731
_cell_length_c   5.19515789
_cell_angle_alpha   104.16342336
_cell_angle_beta   117.94047935
_cell_angle_gamma   76.91852165
_symmetry_Int_Tables_number   1
_chemical_formula_structural   MgV4(OF2)4
_chemical_formula_sum   'Mg1 V4 O4 F8'
_cell_volume   218.01138264
_cell_formula_units_Z   1
loop_
 _symmetry_equiv_pos_site_id
 _symmetry_equiv_pos_as_xyz
  1  'x, y, z'
loop_
 _atom_site_type_symbol
 _atom_site_label
 _atom_site_symmetry_multiplicity
 _atom_site_fract_x
 _atom_site_fract_y
 _atom_site_fract_z
 _atom_site_occupancy
  Mg  Mg0  1  0.91499700  0.30557600  0.11960300  1
  V  V0  1  0.02037100  0.99311800  0.99340400  1
  V  V1  1  0.74909100  0.75988700  0.22452800  1
  V  V2  1  0.47347900  0.51816900  0.54154000  1
  V  V3  1  0.25282500  0.25286100  0.75369500  1
  O  O0  1  0.80254900  0.86535300  0.03770000  1
  O  O1  1  0.24902400  0.37698000  0.49886900  1
  O  O2  1  0.18386500  0.14276700  0.96566900  1
  O  O3  1  0.51882000  0.62872000  0.86439900  1
  F  F0  1  0.11230300  0.61644100  0.26145600  1
  F  F1  1  0.99536700  0.13965800  0.35596700  1
  F  F2  1  0.39659300  0.88180200  0.24076700  1
  F  F3  1  0.52848000  0.37745500  0.14106600  1
  F  F4  1  0.70083100  0.62721700  0.44698500  1
  F  F5  1  0.63496000  0.13800600  0.79681900  1
  F  F6  1  0.99257800  0.86239700  0.61792800  1
  F  F7  1  0.86136300  0.38502000  0.76460700  1
loop_
_geom_bond_atom_site_label_1
_geom_bond_atom_site_label_2
_geom_bond_distance
_geom_bond_site_symmetry_2
Mg0 O1 2.008287 1_655
Mg0 O2 2.109819 1_654
O0 V1 1.696306 1_555
O0 V0 1.952742 1_654
O1 V2 1.879270 1_555
O1 V3 1.967482 1_555
O2 V0 1.877900 1_545
O2 V3 1.881005 1_555
O3 V2 1.688426 1_555
O3 V1 1.980403 1_556
F0 V2 1.956511 1_555
F0 V1 2.021574 1_455
F1 V3 2.047106 1_655
F1 Mg0 2.081570 1_555
F1 V0 2.089585 1_644
F2 V1 1.961474 1_555
F2 V0 1.992878 1_554
F3 Mg0 2.018482 1_555
F3 V3 2.098851 1_554
F3 V2 2.284841 1_555
F4 V2 2.015227 1_555
F4 V1 2.028272 1_555
F5 V3 1.978282 1_555
F5 V0 2.115912 1_645
F5 Mg0 2.218446 1_556
F6 V1 1.971792 1_555
F6 V0 1.999743 1_655
F7 Mg0 2.037577 1_556
F7 V2 2.094079 1_555
F7 V3 2.154809 1_655
