# generated using pymatgen
data_Ba4Mg(Fe2O5)2
_symmetry_space_group_name_H-M   'P 1'
_cell_length_a   5.67413590
_cell_length_b   5.91749623
_cell_length_c   10.16703931
_cell_angle_alpha   106.96909944
_cell_angle_beta   106.32005894
_cell_angle_gamma   89.90890939
_symmetry_Int_Tables_number   1
_chemical_formula_structural   Ba4Mg(Fe2O5)2
_chemical_formula_sum   'Ba4 Mg1 Fe4 O10'
_cell_volume   312.15151939
_cell_formula_units_Z   1
loop_
 _symmetry_equiv_pos_site_id
 _symmetry_equiv_pos_as_xyz
  1  'x, y, z'
loop_
 _atom_site_type_symbol
 _atom_site_label
 _atom_site_symmetry_multiplicity
 _atom_site_fract_x
 _atom_site_fract_y
 _atom_site_fract_z
 _atom_site_occupancy
  Ba  Ba0  1  0.60627731  0.08846358  0.18799191  1
  Ba  Ba1  1  0.39778005  0.86097188  0.77738905  1
  Ba  Ba2  1  0.12203635  0.58395936  0.22240320  1
  Ba  Ba3  1  0.91723072  0.40039018  0.81207825  1
  Mg  Mg0  1  0.60243139  0.43991779  0.49986023  1
  Fe  Fe0  1  0.01030897  0.98514128  0.99834485  1
  Fe  Fe1  1  0.51208279  0.48682703  0.00174152  1
  Fe  Fe2  1  0.19698019  0.17798163  0.49981138  1
  Fe  Fe3  1  0.68452982  0.87709144  0.50028473  1
  O  O0  1  0.25978583  0.23337275  0.99606949  1
  O  O1  1  0.26350435  0.73785428  0.00630971  1
  O  O2  1  0.75754016  0.23216918  0.99405491  1
  O  O3  1  0.76341565  0.73742361  0.00375796  1
  O  O4  1  0.27288057  0.24395216  0.34590442  1
  O  O5  1  0.81271891  0.75652941  0.65591212  1
  O  O6  1  0.65516813  0.60066141  0.34451732  1
  O  O7  1  0.42708228  0.39915234  0.65317571  1
  O  O8  1  0.84458317  0.17194785  0.49993042  1
  O  O9  1  0.33624737  0.88202685  0.50046183  1
loop_
_geom_bond_atom_site_label_1
_geom_bond_atom_site_label_2
_geom_bond_distance
_geom_bond_site_symmetry_2
Ba0 O0 2.687642 1_554
Ba0 O1 2.693711 1_545
Ba0 O2 2.698113 1_554
Ba0 O3 2.698175 1_545
Ba0 O4 2.800359 1_555
Ba0 O6 2.955523 1_555
Ba0 O8 2.967871 1_555
Ba1 O7 2.681946 1_555
Ba1 O9 2.777911 1_555
Ba1 O3 2.903361 1_556
Ba1 O2 2.916694 1_565
Ba1 O1 2.918288 1_556
Ba1 O0 2.919844 1_565
Ba1 O5 2.938483 1_555
Ba1 O5 3.191329 1_455
Ba2 O4 2.687473 1_555
Ba2 O9 2.783089 1_555
Ba2 O0 2.903305 1_554
Ba2 O1 2.908943 1_555
Ba2 O2 2.914628 1_454
Ba2 O6 2.919036 1_555
Ba2 O3 2.921858 1_455
Ba2 O6 3.216320 1_455
Ba3 O3 2.686793 1_556
Ba3 O2 2.693536 1_555
Ba3 O1 2.697765 1_656
Ba3 O0 2.698835 1_655
Ba3 O7 2.795172 1_555
Ba3 O5 2.955332 1_555
Ba3 O8 2.971787 1_555
Mg0 O8 2.096555 1_555
Mg0 O7 2.137695 1_555
Mg0 O4 2.143323 1_555
Mg0 O6 2.152250 1_555
Mg0 O5 2.158523 1_555
Fe0 O2 2.047235 1_465
Fe0 O0 2.051074 1_565
Fe0 O1 2.051577 1_556
Fe0 O3 2.052142 1_456
Fe1 O1 2.046468 1_555
Fe1 O2 2.049999 1_554
Fe1 O3 2.050786 1_555
Fe1 O0 2.052340 1_554
Fe2 O7 1.875889 1_555
Fe2 O4 1.876763 1_555
Fe2 O9 1.921199 1_545
Fe2 O8 2.000271 1_455
Fe3 O6 1.884685 1_555
Fe3 O5 1.884693 1_555
Fe3 O8 1.969693 1_565
Fe3 O9 1.976870 1_555
