# generated using pymatgen
data_CaSiGe3S5O24
_symmetry_space_group_name_H-M   'P 1'
_cell_length_a   8.66464802
_cell_length_b   8.63052244
_cell_length_c   22.37238489
_cell_angle_alpha   90.19641500
_cell_angle_beta   90.23999563
_cell_angle_gamma   120.06662180
_symmetry_Int_Tables_number   1
_chemical_formula_structural   CaSiGe3S5O24
_chemical_formula_sum   'Ca3 Si3 Ge9 S15 O72'
_cell_volume   1447.85915068
_cell_formula_units_Z   3
loop_
 _symmetry_equiv_pos_site_id
 _symmetry_equiv_pos_as_xyz
  1  'x, y, z'
loop_
 _atom_site_type_symbol
 _atom_site_label
 _atom_site_symmetry_multiplicity
 _atom_site_fract_x
 _atom_site_fract_y
 _atom_site_fract_z
 _atom_site_occupancy
  Ca  Ca0  1  0.99904515  0.99783857  0.36209776  1
  Ca  Ca1  1  0.66578859  0.33479874  0.68994574  1
  Ca  Ca2  1  0.66527029  0.33168060  0.18243225  1
  Si  Si0  1  0.66861094  0.63511701  0.58199945  1
  Si  Si1  1  0.04631033  0.37939116  0.91598200  1
  Si  Si2  1  0.33149756  0.95248411  0.91620930  1
  Ge  Ge0  1  0.01176111  0.01079966  0.86058869  1
  Ge  Ge1  1  0.98787335  0.98751084  0.64894157  1
  Ge  Ge2  1  0.00174728  0.00140689  0.14503238  1
  Ge  Ge3  1  0.66884986  0.32512964  0.97073264  1
  Ge  Ge4  1  0.67095855  0.34341949  0.48630340  1
  Ge  Ge5  1  0.32040671  0.66221246  0.01285678  1
  Ge  Ge6  1  0.33726596  0.66664711  0.52281767  1
  Ge  Ge7  1  0.33443129  0.66727772  0.31169010  1
  Ge  Ge8  1  0.32313735  0.67148760  0.81814385  1
  S  S0  1  0.28705730  0.98866379  0.25101372  1
  S  S1  1  0.70069232  0.71291710  0.25063606  1
  S  S2  1  0.01159577  0.29817831  0.25103783  1
  S  S3  1  0.27491190  0.28870645  0.75229427  1
  S  S4  1  0.01325451  0.72649682  0.75406208  1
  S  S5  1  0.71003604  0.98392082  0.75498685  1
  S  S6  1  0.96598670  0.33352136  0.58116451  1
  S  S7  1  0.36745407  0.03577926  0.58104202  1
  S  S8  1  0.96840299  0.63365361  0.08103122  1
  S  S9  1  0.66318425  0.02584087  0.08055408  1
  S  S10  1  0.36659031  0.33870171  0.08018729  1
  S  S11  1  0.62155825  0.66637285  0.91650850  1
  S  S12  1  0.60812613  0.95999639  0.42027533  1
  S  S13  1  0.34843162  0.39183161  0.41925359  1
  S  S14  1  0.04582765  0.64975753  0.42007402  1
  O  O0  1  0.20734382  0.01500499  0.30375789  1
  O  O1  1  0.80631074  0.79297065  0.30385023  1
  O  O2  1  0.98684305  0.19266373  0.30373246  1
  O  O3  1  0.18740347  0.17031348  0.80467272  1
  O  O4  1  0.98109302  0.81403459  0.80608615  1
  O  O5  1  0.82903920  0.01295907  0.80724393  1
  O  O6  1  0.78823452  0.95383685  0.69699245  1
  O  O7  1  0.16125820  0.20837583  0.69435126  1
  O  O8  1  0.04841686  0.83787266  0.69675281  1
  O  O9  1  0.78006194  0.82843629  0.19470842  1
  O  O10  1  0.04748077  0.21871963  0.19448081  1
  O  O11  1  0.17098518  0.95147258  0.19439715  1
  O  O12  1  0.89767441  0.37453799  0.63376796  1
  O  O13  1  0.47903169  0.09919906  0.63364572  1
  O  O14  1  0.61571064  0.51357829  0.64006749  1
  O  O15  1  0.90109317  0.53132165  0.13526706  1
  O  O16  1  0.62591801  0.09180101  0.13503200  1
  O  O17  1  0.46780846  0.37281125  0.13518400  1
  O  O18  1  0.44767822  0.29845384  0.02751578  1
  O  O19  1  0.84767213  0.55327345  0.02766500  1
  O  O20  1  0.70464345  0.14900890  0.02820195  1
  O  O21  1  0.44999230  0.15334777  0.52553971  1
  O  O22  1  0.71237353  0.54358829  0.52189509  1
  O  O23  1  0.84355946  0.28888869  0.52564984  1
  O  O24  1  0.54643852  0.70539112  0.97080800  1
  O  O25  1  0.17374266  0.45920778  0.97530892  1
  O  O26  1  0.29771844  0.83131695  0.97583470  1
  O  O27  1  0.52043518  0.84132634  0.47225559  1
  O  O28  1  0.31435266  0.47861135  0.47143720  1
  O  O29  1  0.16433561  0.68281385  0.47337041  1
  O  O30  1  0.12472588  0.61974928  0.36337172  1
  O  O31  1  0.49824313  0.88194538  0.36317217  1
  O  O32  1  0.38113633  0.50271640  0.36277485  1
  O  O33  1  0.13185402  0.50488373  0.85639894  1
  O  O34  1  0.38462236  0.87479936  0.85707982  1
  O  O35  1  0.50569317  0.62412946  0.86194823  1
  O  O36  1  0.02753735  0.80621227  0.41722913  1
  O  O37  1  0.78162502  0.97694817  0.41655604  1
  O  O38  1  0.19158815  0.21756617  0.41603163  1
  O  O39  1  0.01415384  0.17950301  0.90560496  1
  O  O40  1  0.15398522  0.96704028  0.90528686  1
  O  O41  1  0.79994594  0.82550951  0.90775191  1
  O  O42  1  0.98941365  0.17470379  0.58814554  1
  O  O43  1  0.19011513  0.02228283  0.58832906  1
  O  O44  1  0.85091935  0.83428363  0.59236721  1
  O  O45  1  0.98378930  0.81794246  0.08874052  1
  O  O46  1  0.83294650  0.01393708  0.08890343  1
  O  O47  1  0.18246492  0.16953717  0.08798391  1
  O  O48  1  0.69422952  0.14187103  0.74930667  1
  O  O49  1  0.44643179  0.30081981  0.74825201  1
  O  O50  1  0.85834973  0.55099367  0.74920594  1
  O  O51  1  0.67315993  0.53489558  0.24281568  1
  O  O52  1  0.86178927  0.32569653  0.24286468  1
  O  O53  1  0.46433815  0.13881165  0.24314170  1
  O  O54  1  0.63905299  0.50437839  0.92623635  1
  O  O55  1  0.85511208  0.36776224  0.92857919  1
  O  O56  1  0.50138609  0.15262461  0.92827853  1
  O  O57  1  0.62275435  0.14095513  0.42783220  1
  O  O58  1  0.51219350  0.37508986  0.42553448  1
  O  O59  1  0.86796666  0.48098687  0.42550828  1
  O  O60  1  0.35055077  0.50215162  0.07093668  1
  O  O61  1  0.14934019  0.65470947  0.07261872  1
  O  O62  1  0.50649728  0.84334481  0.06948454  1
  O  O63  1  0.34026660  0.85232517  0.56853165  1
  O  O64  1  0.49465871  0.65647884  0.56821792  1
  O  O65  1  0.14243079  0.49664366  0.56859828  1
  O  O66  1  0.29807920  0.81688435  0.25681037  1
  O  O67  1  0.51817578  0.70154046  0.25672642  1
  O  O68  1  0.18285916  0.48134358  0.25690449  1
  O  O69  1  0.29084706  0.46904690  0.75863553  1
  O  O70  1  0.18155381  0.71575532  0.75805690  1
  O  O71  1  0.53250394  0.81452248  0.75987923  1
loop_
_geom_bond_atom_site_label_1
_geom_bond_atom_site_label_2
_geom_bond_distance
_geom_bond_site_symmetry_2
Ca0 O1 2.149543 1_555
Ca0 O38 2.152388 1_665
Ca0 O2 2.176119 1_565
Ca0 O0 2.176248 1_665
Ca0 O36 2.176693 1_655
Ca0 O37 2.178594 1_555
Ca1 O14 2.119629 1_555
Ca1 O49 2.205664 1_555
Ca1 O50 2.206376 1_555
Ca1 O13 2.237842 1_555
Ca1 O48 2.240636 1_555
Ca1 O12 2.251177 1_555
Ca2 O15 2.181775 1_555
Ca2 O17 2.183272 1_555
Ca2 O51 2.183690 1_555
Ca2 O53 2.185881 1_555
Ca2 O52 2.190741 1_555
Ca2 O16 2.191233 1_555
Ge0 O39 1.759028 1_555
Ge0 O40 1.766315 1_545
Ge0 O3 1.924761 1_555
Ge0 O5 1.986239 1_455
Ge0 O4 1.993035 1_445
Ge0 O41 2.031238 1_445
Ge1 O44 1.778340 1_555
Ge1 O6 1.935539 1_555
Ge1 O8 1.941860 1_655
Ge1 O7 2.006755 1_665
Ge1 O42 2.110422 1_565
Ge1 O43 2.120241 1_665
Ge2 O45 1.963468 1_445
Ge2 O46 1.967690 1_455
Ge2 O47 1.984729 1_555
Ge2 O10 2.033683 1_555
Ge2 O11 2.044176 1_545
Ge2 O9 2.075879 1_445
Ge3 O56 1.743055 1_555
Ge3 O55 1.746295 1_555
Ge3 O54 1.964564 1_555
Ge3 O20 2.131230 1_556
Ge3 O19 2.193022 1_556
Ge3 O18 2.218030 1_556
Ge4 O22 1.764733 1_555
Ge4 O23 1.982433 1_555
Ge4 O21 2.001022 1_555
Ge4 O59 2.042843 1_555
Ge4 O58 2.044288 1_555
Ge4 O57 2.046325 1_555
Ge5 O25 1.772065 1_554
Ge5 O26 1.774575 1_554
Ge5 O61 1.977331 1_555
Ge5 O60 2.008957 1_555
Ge5 O62 2.022945 1_555
Ge5 O24 2.036184 1_554
Ge6 O64 1.734394 1_555
Ge6 O63 1.887180 1_555
Ge6 O65 1.895938 1_555
Ge6 O28 1.912293 1_555
Ge6 O29 1.919653 1_555
Ge6 O27 1.923669 1_555
Ge7 O68 1.914025 1_555
Ge7 O67 1.918700 1_555
Ge7 O66 1.920671 1_555
Ge7 O32 2.017482 1_555
Ge7 O30 2.020085 1_555
Ge7 O31 2.027412 1_555
Ge8 O34 1.780587 1_555
Ge8 O33 1.783073 1_555
Ge8 O70 1.979239 1_555
Ge8 O35 2.065692 1_555
Ge8 O71 2.073858 1_555
Ge8 O69 2.096299 1_555
O0 S0 1.443430 1_545
O1 S1 1.443565 1_555
O2 S2 1.441828 1_655
O3 S3 1.493821 1_555
O4 S4 1.486857 1_655
O5 S5 1.490572 1_545
O6 S5 1.546374 1_555
O7 S3 1.558819 1_555
O8 S4 1.542388 1_555
O9 S1 1.536641 1_555
O10 S2 1.542396 1_555
O11 S0 1.543366 1_555
O12 S6 1.440001 1_555
O13 S7 1.440520 1_555
O14 Si0 1.590804 1_555
O15 S8 1.445546 1_555
O16 S9 1.447942 1_555
O17 S10 1.448967 1_555
O18 S10 1.500525 1_555
O19 S8 1.502573 1_555
O20 S9 1.503417 1_555
O21 S7 1.540082 1_555
O22 Si0 1.695015 1_555
O23 S6 1.546754 1_555
O24 S11 1.495413 1_555
O25 Si1 1.635447 1_555
O26 Si2 1.632431 1_555
O27 S12 1.488110 1_555
O28 S13 1.493187 1_555
O29 S14 1.500462 1_555
O30 S14 1.525154 1_555
O31 S12 1.527617 1_555
O32 S13 1.527183 1_555
O33 Si1 1.647159 1_555
O34 Si2 1.649132 1_555
O35 S11 1.500232 1_555
O36 S14 1.437834 1_555
O37 S12 1.438405 1_555
O38 S13 1.436827 1_555
O39 Si1 1.619479 1_555
O40 Si2 1.622303 1_555
O41 S11 1.480209 1_555
O42 S6 1.491425 1_555
O43 S7 1.491345 1_555
O44 Si0 1.666490 1_555
O45 S8 1.537107 1_555
O46 S9 1.535687 1_555
O47 S10 1.541872 1_555
O48 S5 1.442678 1_545
O49 S3 1.439891 1_555
O50 S4 1.438094 1_655
O51 S1 1.441752 1_555
O52 S2 1.442880 1_655
O53 S0 1.441901 1_545
O54 S11 1.496391 1_555
O55 Si1 1.634485 1_655
O56 Si2 1.633735 1_545
O57 S12 1.511102 1_545
O58 S13 1.502636 1_555
O59 S14 1.504968 1_655
O60 S10 1.500102 1_555
O61 S8 1.497846 1_455
O62 S9 1.495703 1_565
O63 S7 1.504448 1_565
O64 Si0 1.635771 1_555
O65 S6 1.499329 1_455
O66 S0 1.538495 1_555
O67 S1 1.541257 1_555
O68 S2 1.537745 1_555
O69 S3 1.498219 1_555
O70 S4 1.509143 1_555
O71 S5 1.504891 1_555
