# generated using pymatgen
data_MgTe2Mo2W2(Se2S)2
_symmetry_space_group_name_H-M   'P 1'
_cell_length_a   6.67387000
_cell_length_b   6.67385754
_cell_length_c   94.27302003
_cell_angle_alpha   90.00257828
_cell_angle_beta   90.00000000
_cell_angle_gamma   120.00007165
_symmetry_Int_Tables_number   1
_chemical_formula_structural   MgTe2Mo2W2(Se2S)2
_chemical_formula_sum   'Mg8 Te16 Mo16 W16 Se32 S16'
_cell_volume   3636.40639243
_cell_formula_units_Z   8
loop_
 _symmetry_equiv_pos_site_id
 _symmetry_equiv_pos_as_xyz
  1  'x, y, z'
loop_
 _atom_site_type_symbol
 _atom_site_label
 _atom_site_symmetry_multiplicity
 _atom_site_fract_x
 _atom_site_fract_y
 _atom_site_fract_z
 _atom_site_occupancy
  Mg  Mg0_0  1  0.49999450  0.49998900  0.28007600  1
  Mg  Mg0_1  1  0.49999450  0.49998900  0.78007600  1
  Mg  Mg0_2  1  0.49999450  0.99998900  0.28007600  1
  Mg  Mg0_3  1  0.49999450  0.99998900  0.78007600  1
  Mg  Mg0_4  1  0.99999450  0.49998900  0.28007600  1
  Mg  Mg0_5  1  0.99999450  0.49998900  0.78007600  1
  Mg  Mg0_6  1  0.99999450  0.99998900  0.28007600  1
  Mg  Mg0_7  1  0.99999450  0.99998900  0.78007600  1
  Te  Te0_0  1  0.16667500  0.33335050  0.35236550  1
  Te  Te0_1  1  0.16667500  0.33335050  0.85236550  1
  Te  Te0_2  1  0.16667500  0.83335050  0.35236550  1
  Te  Te0_3  1  0.16667500  0.83335050  0.85236550  1
  Te  Te0_4  1  0.66667500  0.33335050  0.35236550  1
  Te  Te0_5  1  0.66667500  0.33335050  0.85236550  1
  Te  Te0_6  1  0.66667500  0.83335050  0.35236550  1
  Te  Te0_7  1  0.66667500  0.83335050  0.85236550  1
  Te  Te1_0  1  0.16665700  0.33331450  0.31188900  1
  Te  Te1_1  1  0.16665700  0.33331450  0.81188900  1
  Te  Te1_2  1  0.16665700  0.83331450  0.31188900  1
  Te  Te1_3  1  0.16665700  0.83331450  0.81188900  1
  Te  Te1_4  1  0.66665700  0.33331450  0.31188900  1
  Te  Te1_5  1  0.66665700  0.33331450  0.81188900  1
  Te  Te1_6  1  0.66665700  0.83331450  0.31188900  1
  Te  Te1_7  1  0.66665700  0.83331450  0.81188900  1
  Mo  Mo0_0  1  0.16666950  0.33333950  0.04698150  1
  Mo  Mo0_1  1  0.16666950  0.33333950  0.54698150  1
  Mo  Mo0_2  1  0.16666950  0.83333950  0.04698150  1
  Mo  Mo0_3  1  0.16666950  0.83333950  0.54698150  1
  Mo  Mo0_4  1  0.66666950  0.33333950  0.04698150  1
  Mo  Mo0_5  1  0.66666950  0.33333950  0.54698150  1
  Mo  Mo0_6  1  0.66666950  0.83333950  0.04698150  1
  Mo  Mo0_7  1  0.66666950  0.83333950  0.54698150  1
  Mo  Mo1_0  1  0.33333300  0.16666600  0.33223400  1
  Mo  Mo1_1  1  0.33333300  0.16666600  0.83223400  1
  Mo  Mo1_2  1  0.33333300  0.66666600  0.33223400  1
  Mo  Mo1_3  1  0.33333300  0.66666600  0.83223400  1
  Mo  Mo1_4  1  0.83333300  0.16666600  0.33223400  1
  Mo  Mo1_5  1  0.83333300  0.16666600  0.83223400  1
  Mo  Mo1_6  1  0.83333300  0.66666600  0.33223400  1
  Mo  Mo1_7  1  0.83333300  0.66666600  0.83223400  1
  W  W0_0  1  0.16665850  0.33331650  0.23001000  1
  W  W0_1  1  0.16665850  0.33331650  0.73001000  1
  W  W0_2  1  0.16665850  0.83331650  0.23001000  1
  W  W0_3  1  0.16665850  0.83331650  0.73001000  1
  W  W0_4  1  0.66665850  0.33331650  0.23001000  1
  W  W0_5  1  0.66665850  0.33331650  0.73001000  1
  W  W0_6  1  0.66665850  0.83331650  0.23001000  1
  W  W0_7  1  0.66665850  0.83331650  0.73001000  1
  W  W1_0  1  0.33334200  0.16668350  0.14092150  1
  W  W1_1  1  0.33334200  0.16668350  0.64092150  1
  W  W1_2  1  0.33334200  0.66668350  0.14092150  1
  W  W1_3  1  0.33334200  0.66668350  0.64092150  1
  W  W1_4  1  0.83334200  0.16668350  0.14092150  1
  W  W1_5  1  0.83334200  0.16668350  0.64092150  1
  W  W1_6  1  0.83334200  0.66668350  0.14092150  1
  W  W1_7  1  0.83334200  0.66668350  0.64092150  1
  Se  Se0_0  1  0.16668050  0.33336100  0.15872800  1
  Se  Se0_1  1  0.16668050  0.33336100  0.65872800  1
  Se  Se0_2  1  0.16668050  0.83336100  0.15872800  1
  Se  Se0_3  1  0.16668050  0.83336100  0.65872800  1
  Se  Se0_4  1  0.66668050  0.33336100  0.15872800  1
  Se  Se0_5  1  0.66668050  0.33336100  0.65872800  1
  Se  Se0_6  1  0.66668050  0.83336100  0.15872800  1
  Se  Se0_7  1  0.66668050  0.83336100  0.65872800  1
  Se  Se1_0  1  0.33333100  0.16666100  0.02927300  1
  Se  Se1_1  1  0.33333100  0.16666100  0.52927300  1
  Se  Se1_2  1  0.33333100  0.66666100  0.02927300  1
  Se  Se1_3  1  0.33333100  0.66666100  0.52927300  1
  Se  Se1_4  1  0.83333100  0.16666100  0.02927300  1
  Se  Se1_5  1  0.83333100  0.16666100  0.52927300  1
  Se  Se1_6  1  0.83333100  0.66666100  0.02927300  1
  Se  Se1_7  1  0.83333100  0.66666100  0.52927300  1
  Se  Se2_0  1  0.33334500  0.16669000  0.06469800  1
  Se  Se2_1  1  0.33334500  0.16669000  0.56469800  1
  Se  Se2_2  1  0.33334500  0.66669000  0.06469800  1
  Se  Se2_3  1  0.33334500  0.66669000  0.56469800  1
  Se  Se2_4  1  0.83334500  0.16669000  0.06469800  1
  Se  Se2_5  1  0.83334500  0.16669000  0.56469800  1
  Se  Se2_6  1  0.83334500  0.66669000  0.06469800  1
  Se  Se2_7  1  0.83334500  0.66669000  0.56469800  1
  Se  Se3_0  1  0.16666750  0.33333550  0.12312200  1
  Se  Se3_1  1  0.16666750  0.33333550  0.62312200  1
  Se  Se3_2  1  0.16666750  0.83333550  0.12312200  1
  Se  Se3_3  1  0.16666750  0.83333550  0.62312200  1
  Se  Se3_4  1  0.66666750  0.33333550  0.12312200  1
  Se  Se3_5  1  0.66666750  0.33333550  0.62312200  1
  Se  Se3_6  1  0.66666750  0.83333550  0.12312200  1
  Se  Se3_7  1  0.66666750  0.83333550  0.62312200  1
  S  S0_0  1  0.33331700  0.16663250  0.21390000  1
  S  S0_1  1  0.33331700  0.16663250  0.71390000  1
  S  S0_2  1  0.33331700  0.66663250  0.21390000  1
  S  S0_3  1  0.33331700  0.66663250  0.71390000  1
  S  S0_4  1  0.83331700  0.16663250  0.21390000  1
  S  S0_5  1  0.83331700  0.16663250  0.71390000  1
  S  S0_6  1  0.83331700  0.66663250  0.21390000  1
  S  S0_7  1  0.83331700  0.66663250  0.71390000  1
  S  S1_0  1  0.33333050  0.16666050  0.24621650  1
  S  S1_1  1  0.33333050  0.16666050  0.74621650  1
  S  S1_2  1  0.33333050  0.66666050  0.24621650  1
  S  S1_3  1  0.33333050  0.66666050  0.74621650  1
  S  S1_4  1  0.83333050  0.16666050  0.24621650  1
  S  S1_5  1  0.83333050  0.16666050  0.74621650  1
  S  S1_6  1  0.83333050  0.66666050  0.24621650  1
  S  S1_7  1  0.83333050  0.66666050  0.74621650  1
loop_
_geom_bond_atom_site_label_1
_geom_bond_atom_site_label_2
_geom_bond_distance
_geom_bond_site_symmetry_2
Mg0_0 Mg0_6 3.336928 1_555
Mg0_0 Mg0_6 3.336928 1_445
Mg0_0 Mg0_2 3.336929 1_555
Mg0_0 Mg0_2 3.336929 1_545
Mg0_0 Mg0_4 3.336935 1_555
Mg0_0 Mg0_4 3.336935 1_455
Mg0_0 Te1_6 3.564486 1_555
Mg0_0 Te1_4 3.564651 1_555
Mg0_0 Te1_0 3.564652 1_555
Mg0_1 Mg0_7 3.336928 1_555
Mg0_1 Mg0_7 3.336928 1_445
Mg0_1 Mg0_3 3.336929 1_555
Mg0_1 Mg0_3 3.336929 1_545
Mg0_1 Mg0_5 3.336935 1_555
Mg0_1 Mg0_5 3.336935 1_455
Mg0_1 Te1_7 3.564486 1_555
Mg0_1 Te1_5 3.564651 1_555
Mg0_1 Te1_1 3.564652 1_555
Mg0_2 Mg0_4 3.336928 1_565
Mg0_2 Mg0_4 3.336928 1_455
Mg0_2 Mg0_6 3.336935 1_555
Mg0_2 Mg0_6 3.336935 1_455
Mg0_2 Te1_4 3.564486 1_565
Mg0_2 Te1_6 3.564651 1_555
Mg0_2 Te1_2 3.564652 1_555
Mg0_3 Mg0_5 3.336928 1_565
Mg0_3 Mg0_5 3.336928 1_455
Mg0_3 Mg0_7 3.336935 1_555
Mg0_3 Mg0_7 3.336935 1_455
Mg0_3 Te1_5 3.564486 1_565
Mg0_3 Te1_7 3.564651 1_555
Mg0_3 Te1_3 3.564652 1_555
Mg0_4 Mg0_6 3.336929 1_545
Mg0_4 Mg0_6 3.336929 1_555
Mg0_4 Te1_2 3.564486 1_655
Mg0_4 Te1_0 3.564651 1_655
Mg0_4 Te1_4 3.564652 1_555
Mg0_5 Mg0_7 3.336929 1_555
Mg0_5 Mg0_7 3.336929 1_545
Mg0_5 Te1_3 3.564486 1_655
Mg0_5 Te1_1 3.564651 1_655
Mg0_5 Te1_5 3.564652 1_555
Mg0_6 Te1_0 3.564486 1_665
Mg0_6 Te1_2 3.564651 1_655
Mg0_6 Te1_6 3.564652 1_555
Mg0_7 Te1_1 3.564486 1_665
Mg0_7 Te1_3 3.564651 1_655
Mg0_7 Te1_7 3.564652 1_555
Mo0_0 Se1_4 2.549248 1_455
Mo0_0 Se1_0 2.549254 1_555
Mo0_0 Se1_2 2.549269 1_555
Mo0_0 Se2_4 2.549746 1_455
Mo0_0 Se2_0 2.549748 1_555
Mo0_0 Se2_2 2.549758 1_555
Mo0_1 Se1_5 2.549248 1_455
Mo0_1 Se1_1 2.549254 1_555
Mo0_1 Se1_3 2.549269 1_555
Mo0_1 Se2_5 2.549746 1_455
Mo0_1 Se2_1 2.549748 1_555
Mo0_1 Se2_3 2.549758 1_555
Mo0_2 Se1_6 2.549248 1_455
Mo0_2 Se1_2 2.549254 1_555
Mo0_2 Se1_0 2.549269 1_565
Mo0_2 Se2_6 2.549746 1_455
Mo0_2 Se2_2 2.549748 1_555
Mo0_2 Se2_0 2.549758 1_565
Mo0_3 Se1_7 2.549248 1_455
Mo0_3 Se1_3 2.549254 1_555
Mo0_3 Se1_1 2.549269 1_565
Mo0_3 Se2_7 2.549746 1_455
Mo0_3 Se2_3 2.549748 1_555
Mo0_3 Se2_1 2.549758 1_565
Mo0_4 Se1_0 2.549248 1_555
Mo0_4 Se1_4 2.549254 1_555
Mo0_4 Se1_6 2.549269 1_555
Mo0_4 Se2_0 2.549746 1_555
Mo0_4 Se2_4 2.549748 1_555
Mo0_4 Se2_6 2.549758 1_555
Mo0_5 Se1_1 2.549248 1_555
Mo0_5 Se1_5 2.549254 1_555
Mo0_5 Se1_7 2.549269 1_555
Mo0_5 Se2_1 2.549746 1_555
Mo0_5 Se2_5 2.549748 1_555
Mo0_5 Se2_7 2.549758 1_555
Mo0_6 Se1_2 2.549248 1_555
Mo0_6 Se1_6 2.549254 1_555
Mo0_6 Se1_4 2.549269 1_565
Mo0_6 Se2_2 2.549746 1_555
Mo0_6 Se2_6 2.549748 1_555
Mo0_6 Se2_4 2.549758 1_565
Mo0_7 Se1_3 2.549248 1_555
Mo0_7 Se1_7 2.549254 1_555
Mo0_7 Se1_5 2.549269 1_565
Mo0_7 Se2_3 2.549746 1_555
Mo0_7 Se2_7 2.549748 1_555
Mo0_7 Se2_5 2.549758 1_565
Mo1_0 Te0_2 2.704355 1_545
Mo1_0 Te0_4 2.704362 1_555
Mo1_0 Te0_0 2.704364 1_555
Mo1_0 Te1_4 2.718521 1_555
Mo1_0 Te1_0 2.718523 1_555
Mo1_0 Te1_2 2.718525 1_545
Mo1_1 Te0_3 2.704355 1_545
Mo1_1 Te0_5 2.704362 1_555
Mo1_1 Te0_1 2.704364 1_555
Mo1_1 Te1_5 2.718521 1_555
Mo1_1 Te1_1 2.718523 1_555
Mo1_1 Te1_3 2.718525 1_545
Mo1_2 Te0_0 2.704355 1_555
Mo1_2 Te0_6 2.704362 1_555
Mo1_2 Te0_2 2.704364 1_555
Mo1_2 Te1_6 2.718521 1_555
Mo1_2 Te1_2 2.718523 1_555
Mo1_2 Te1_0 2.718525 1_555
Mo1_3 Te0_1 2.704355 1_555
Mo1_3 Te0_7 2.704362 1_555
Mo1_3 Te0_3 2.704364 1_555
Mo1_3 Te1_7 2.718521 1_555
Mo1_3 Te1_3 2.718523 1_555
Mo1_3 Te1_1 2.718525 1_555
Mo1_4 Te0_6 2.704355 1_545
Mo1_4 Te0_0 2.704362 1_655
Mo1_4 Te0_4 2.704364 1_555
Mo1_4 Te1_0 2.718521 1_655
Mo1_4 Te1_4 2.718523 1_555
Mo1_4 Te1_6 2.718525 1_545
Mo1_5 Te0_7 2.704355 1_545
Mo1_5 Te0_1 2.704362 1_655
Mo1_5 Te0_5 2.704364 1_555
Mo1_5 Te1_1 2.718521 1_655
Mo1_5 Te1_5 2.718523 1_555
Mo1_5 Te1_7 2.718525 1_545
Mo1_6 Te0_4 2.704355 1_555
Mo1_6 Te0_2 2.704362 1_655
Mo1_6 Te0_6 2.704364 1_555
Mo1_6 Te1_2 2.718521 1_655
Mo1_6 Te1_6 2.718523 1_555
Mo1_6 Te1_4 2.718525 1_555
Mo1_7 Te0_5 2.704355 1_555
Mo1_7 Te0_3 2.704362 1_655
Mo1_7 Te0_7 2.704364 1_555
Mo1_7 Te1_3 2.718521 1_655
Mo1_7 Te1_7 2.718523 1_555
Mo1_7 Te1_5 2.718525 1_555
Se0_0 W1_4 2.555307 1_455
Se0_0 W1_0 2.555310 1_555
Se0_0 W1_2 2.555333 1_555
Se0_1 W1_5 2.555307 1_455
Se0_1 W1_1 2.555310 1_555
Se0_1 W1_3 2.555333 1_555
Se0_2 W1_6 2.555307 1_455
Se0_2 W1_2 2.555310 1_555
Se0_2 W1_0 2.555333 1_565
Se0_3 W1_7 2.555307 1_455
Se0_3 W1_3 2.555310 1_555
Se0_3 W1_1 2.555333 1_565
Se0_4 W1_0 2.555307 1_555
Se0_4 W1_4 2.555310 1_555
Se0_4 W1_6 2.555333 1_555
Se0_5 W1_1 2.555307 1_555
Se0_5 W1_5 2.555310 1_555
Se0_5 W1_7 2.555333 1_555
Se0_6 W1_2 2.555307 1_555
Se0_6 W1_6 2.555310 1_555
Se0_6 W1_4 2.555333 1_565
Se0_7 W1_3 2.555307 1_555
Se0_7 W1_7 2.555310 1_555
Se0_7 W1_5 2.555333 1_565
Se3_0 W1_2 2.554880 1_555
Se3_0 W1_4 2.554883 1_455
Se3_0 W1_0 2.554887 1_555
Se3_1 W1_3 2.554880 1_555
Se3_1 W1_5 2.554883 1_455
Se3_1 W1_1 2.554887 1_555
Se3_2 W1_0 2.554880 1_565
Se3_2 W1_6 2.554883 1_455
Se3_2 W1_2 2.554887 1_555
Se3_3 W1_1 2.554880 1_565
Se3_3 W1_7 2.554883 1_455
Se3_3 W1_3 2.554887 1_555
Se3_4 W1_6 2.554880 1_555
Se3_4 W1_0 2.554883 1_555
Se3_4 W1_4 2.554887 1_555
Se3_5 W1_7 2.554880 1_555
Se3_5 W1_1 2.554883 1_555
Se3_5 W1_5 2.554887 1_555
Se3_6 W1_4 2.554880 1_565
Se3_6 W1_2 2.554883 1_555
Se3_6 W1_6 2.554887 1_555
Se3_7 W1_5 2.554880 1_565
Se3_7 W1_3 2.554883 1_555
Se3_7 W1_7 2.554887 1_555
S0_0 W0_2 2.453197 1_545
S0_0 W0_4 2.453223 1_555
S0_0 W0_0 2.453228 1_555
S0_1 W0_3 2.453197 1_545
S0_1 W0_5 2.453223 1_555
S0_1 W0_1 2.453228 1_555
S0_2 W0_0 2.453197 1_555
S0_2 W0_6 2.453223 1_555
S0_2 W0_2 2.453228 1_555
S0_3 W0_1 2.453197 1_555
S0_3 W0_7 2.453223 1_555
S0_3 W0_3 2.453228 1_555
S0_4 W0_6 2.453197 1_545
S0_4 W0_0 2.453223 1_655
S0_4 W0_4 2.453228 1_555
S0_5 W0_7 2.453197 1_545
S0_5 W0_1 2.453223 1_655
S0_5 W0_5 2.453228 1_555
S0_6 W0_4 2.453197 1_555
S0_6 W0_2 2.453223 1_655
S0_6 W0_6 2.453228 1_555
S0_7 W0_5 2.453197 1_555
S0_7 W0_3 2.453223 1_655
S0_7 W0_7 2.453228 1_555
S1_0 W0_2 2.458842 1_545
S1_0 W0_4 2.458866 1_555
S1_0 W0_0 2.458866 1_555
S1_1 W0_3 2.458842 1_545
S1_1 W0_5 2.458866 1_555
S1_1 W0_1 2.458866 1_555
S1_2 W0_0 2.458842 1_555
S1_2 W0_6 2.458866 1_555
S1_2 W0_2 2.458866 1_555
S1_3 W0_1 2.458842 1_555
S1_3 W0_7 2.458866 1_555
S1_3 W0_3 2.458866 1_555
S1_4 W0_6 2.458842 1_545
S1_4 W0_0 2.458866 1_655
S1_4 W0_4 2.458866 1_555
S1_5 W0_7 2.458842 1_545
S1_5 W0_1 2.458866 1_655
S1_5 W0_5 2.458866 1_555
S1_6 W0_4 2.458842 1_555
S1_6 W0_2 2.458866 1_655
S1_6 W0_6 2.458866 1_555
S1_7 W0_5 2.458842 1_555
S1_7 W0_3 2.458866 1_655
S1_7 W0_7 2.458866 1_555
