# generated using pymatgen
data_Cs3CoBr5
_symmetry_space_group_name_H-M   'P 1'
_cell_length_a   9.71063491
_cell_length_b   9.71063547
_cell_length_c   10.20958812
_cell_angle_alpha   118.39611342
_cell_angle_beta   118.39611861
_cell_angle_gamma   89.99999707
_symmetry_Int_Tables_number   1
_chemical_formula_structural   Cs3CoBr5
_chemical_formula_sum   'Cs6 Co2 Br10'
_cell_volume   712.46843319
_cell_formula_units_Z   2
loop_
 _symmetry_equiv_pos_site_id
 _symmetry_equiv_pos_as_xyz
  1  'x, y, z'
loop_
 _atom_site_type_symbol
 _atom_site_label
 _atom_site_symmetry_multiplicity
 _atom_site_fract_x
 _atom_site_fract_y
 _atom_site_fract_z
 _atom_site_occupancy
  Cs  Cs0  1  0.25000000  0.25000000  0.50000000  1
  Cs  Cs1  1  0.33824979  0.83824979  0.00000000  1
  Cs  Cs2  1  0.16175021  0.33824979  -0.00000000  1
  Cs  Cs3  1  0.83824979  0.66175021  0.00000000  1
  Cs  Cs4  1  0.66175021  0.16175021  -0.00000000  1
  Cs  Cs5  1  0.75000000  0.75000000  0.50000000  1
  Co  Co0  1  0.25000000  0.75000000  0.50000000  1
  Co  Co1  1  0.75000000  0.25000000  0.50000000  1
  Br  Br0  1  0.98411750  0.48411750  0.68669211  1
  Br  Br1  1  0.01588250  0.51588250  0.31330789  1
  Br  Br2  1  0.70257361  0.20257361  0.68669211  1
  Br  Br3  1  0.50000000  0.50000000  0.00000000  1
  Br  Br4  1  0.20257361  0.98411750  0.68669211  1
  Br  Br5  1  0.48411750  0.70257361  0.68669211  1
  Br  Br6  1  -0.00000000  0.00000000  0.00000000  1
  Br  Br7  1  0.29742639  0.79742639  0.31330789  1
  Br  Br8  1  0.51588250  0.29742639  0.31330789  1
  Br  Br9  1  0.79742639  0.01588250  0.31330789  1
loop_
_geom_bond_atom_site_label_1
_geom_bond_atom_site_label_2
_geom_bond_distance
_geom_bond_site_symmetry_2
Br0 Co1 2.393113 1_555
Br0 Cs1 3.599791 1_656
Br0 Cs2 3.778261 1_656
Br0 Cs3 3.778262 1_556
Br0 Cs5 4.003356 1_555
Br0 Cs0 4.003356 1_655
Br1 Co0 2.393113 1_555
Br1 Cs4 3.599791 1_455
Br1 Cs3 3.778261 1_455
Br1 Cs2 3.778262 1_555
Br1 Cs0 4.003356 1_555
Br1 Cs5 4.003356 1_455
Br2 Co1 2.393125 1_555
Br2 Cs4 3.599781 1_556
Br2 Cs2 3.778268 1_656
Br2 Cs3 3.778268 1_556
Br2 Cs0 4.003350 1_555
Br2 Cs5 4.003351 1_545
Br3 Cs1 3.640854 1_555
Br3 Cs4 3.640854 1_555
Br3 Cs2 3.640854 1_555
Br3 Cs3 3.640854 1_555
Br3 Cs0 3.777812 1_554
Br3 Cs5 3.777812 1_555
Br4 Co0 2.393119 1_555
Br4 Cs2 3.599786 1_566
Br4 Cs1 3.778261 1_556
Br4 Cs4 3.778269 1_566
Br4 Cs5 4.003347 1_455
Br4 Cs0 4.003359 1_565
Br5 Co0 2.393119 1_555
Br5 Cs3 3.599786 1_556
Br5 Cs1 3.778261 1_556
Br5 Cs4 3.778269 1_566
Br5 Cs0 4.003347 1_555
Br5 Cs5 4.003359 1_555
Br6 Cs4 3.640854 1_455
Br6 Cs1 3.640854 1_545
Br6 Cs2 3.640855 1_555
Br6 Cs3 3.640855 1_445
Br6 Cs0 3.777812 1_555
Br6 Cs5 3.777812 1_444
Br7 Co0 2.393125 1_555
Br7 Cs1 3.599781 1_555
Br7 Cs3 3.778268 1_455
Br7 Cs2 3.778268 1_555
Br7 Cs5 4.003350 1_555
Br7 Cs0 4.003351 1_565
Br8 Co1 2.393119 1_555
Br8 Cs2 3.599786 1_555
Br8 Cs4 3.778261 1_555
Br8 Cs1 3.778269 1_545
Br8 Cs5 4.003347 1_555
Br8 Cs0 4.003359 1_555
Br9 Co1 2.393119 1_555
Br9 Cs3 3.599786 1_545
Br9 Cs4 3.778261 1_555
Br9 Cs1 3.778269 1_545
Br9 Cs0 4.003347 1_655
Br9 Cs5 4.003359 1_545
