# generated using pymatgen
data_Na3MgZnP(SO6)2
_symmetry_space_group_name_H-M   'P 1'
_cell_length_a   8.92520140
_cell_length_b   8.93360615
_cell_length_c   22.21822998
_cell_angle_alpha   90.04468382
_cell_angle_beta   90.08032716
_cell_angle_gamma   119.95475597
_symmetry_Int_Tables_number   1
_chemical_formula_structural   Na3MgZnP(SO6)2
_chemical_formula_sum   'Na18 Mg6 Zn6 P6 S12 O72'
_cell_volume   1534.90561511
_cell_formula_units_Z   6
loop_
 _symmetry_equiv_pos_site_id
 _symmetry_equiv_pos_as_xyz
  1  'x, y, z'
loop_
 _atom_site_type_symbol
 _atom_site_label
 _atom_site_symmetry_multiplicity
 _atom_site_fract_x
 _atom_site_fract_y
 _atom_site_fract_z
 _atom_site_occupancy
  Na  Na0  1  0.62827527  0.99962736  0.25386873  1
  Na  Na1  1  0.00849586  0.64489633  0.24489279  1
  Na  Na2  1  0.63503776  0.64341353  0.74554547  1
  Na  Na3  1  0.37055182  0.99862935  0.75382218  1
  Na  Na4  1  0.31101546  0.34108093  0.58407931  1
  Na  Na5  1  0.66499091  0.95917673  0.58305735  1
  Na  Na6  1  0.29377991  0.95954362  0.08368230  1
  Na  Na7  1  0.03000410  0.34088876  0.08403515  1
  Na  Na8  1  0.97363810  0.67081428  0.92182695  1
  Na  Na9  1  0.69317759  0.03074428  0.91122243  1
  Na  Na10  1  0.33907247  0.03004061  0.41106297  1
  Na  Na11  1  0.69545219  0.67034959  0.42249795  1
  Na  Na12  1  0.98516697  0.99183545  0.49986804  1
  Na  Na13  1  0.00572740  0.99194083  0.99916357  1
  Na  Na14  1  0.66228997  0.32079855  0.83408351  1
  Na  Na15  1  0.65780820  0.31992032  0.33406278  1
  Na  Na16  1  0.33841981  0.66172224  0.16593239  1
  Na  Na17  1  0.32217775  0.66064218  0.66661813  1
  Mg  Mg0  1  0.00422177  0.00868815  0.34905285  1
  Mg  Mg1  1  0.98803282  0.98812664  0.65023809  1
  Mg  Mg2  1  0.00018569  0.98803270  0.15049539  1
  Mg  Mg3  1  0.67622935  0.33568351  0.68281206  1
  Mg  Mg4  1  0.65935952  0.33576569  0.18325179  1
  Mg  Mg5  1  0.33633297  0.67300470  0.31727455  1
  Zn  Zn0  1  0.00670244  0.01114966  0.84635675  1
  Zn  Zn1  1  0.65649087  0.33640471  0.98695992  1
  Zn  Zn2  1  0.67982052  0.33597200  0.48640089  1
  Zn  Zn3  1  0.32520803  0.67084244  0.01351708  1
  Zn  Zn4  1  0.34521939  0.67064631  0.51301538  1
  Zn  Zn5  1  0.34095249  0.67875322  0.81999224  1
  P  P0  1  0.29952941  0.00163825  0.25062295  1
  P  P1  1  0.70292454  0.00230008  0.75074256  1
  P  P2  1  0.66790399  0.62802365  0.58258010  1
  P  P3  1  0.96011969  0.62822133  0.08293079  1
  P  P4  1  0.33331801  0.97199027  0.91688130  1
  P  P5  1  0.63650547  0.96982128  0.41682021  1
  S  S0  1  0.70432476  0.70437399  0.25147507  1
  S  S1  1  0.00189050  0.29611533  0.24824654  1
  S  S2  1  0.29650375  0.29688751  0.74753269  1
  S  S3  1  0.99874635  0.70203351  0.75087697  1
  S  S4  1  0.96567494  0.33450306  0.58412151  1
  S  S5  1  0.36652929  0.03675149  0.58411841  1
  S  S6  1  0.67022955  0.03684202  0.08422467  1
  S  S7  1  0.36869725  0.33455615  0.08422991  1
  S  S8  1  0.62636323  0.66320014  0.91616624  1
  S  S9  1  0.03997655  0.36975674  0.91688707  1
  S  S10  1  0.32845451  0.36941636  0.41658003  1
  S  S11  1  0.03845601  0.66526868  0.41532141  1
  O  O0  1  0.21350015  0.01939303  0.30814976  1
  O  O1  1  0.80841298  0.78297794  0.30671287  1
  O  O2  1  0.97385312  0.18320965  0.30032331  1
  O  O3  1  0.21831050  0.18715993  0.80109512  1
  O  O4  1  0.97171078  0.77533587  0.80743472  1
  O  O5  1  0.80387803  0.02077809  0.80967867  1
  O  O6  1  0.79002599  0.97584969  0.69526285  1
  O  O7  1  0.19644804  0.21354916  0.69243226  1
  O  O8  1  0.02777972  0.81880394  0.69962644  1
  O  O9  1  0.78717724  0.81862159  0.19914493  1
  O  O10  1  0.01979017  0.21728403  0.19216857  1
  O  O11  1  0.18705287  0.97425623  0.19430701  1
  O  O12  1  0.88116648  0.35339964  0.63733619  1
  O  O13  1  0.47855705  0.12220804  0.63708392  1
  O  O14  1  0.64354239  0.51597744  0.63830365  1
  O  O15  1  0.87277596  0.51625169  0.13875887  1
  O  O16  1  0.64383087  0.12235537  0.13712891  1
  O  O17  1  0.47251127  0.35372081  0.13748663  1
  O  O18  1  0.44080316  0.29966209  0.02956541  1
  O  O19  1  0.86051364  0.54389418  0.02401873  1
  O  O20  1  0.69667670  0.13960100  0.02851295  1
  O  O21  1  0.44278890  0.13970912  0.52846639  1
  O  O22  1  0.68373010  0.54404937  0.52363755  1
  O  O23  1  0.85870953  0.29967841  0.52937378  1
  O  O24  1  0.53680396  0.68360557  0.96852497  1
  O  O25  1  0.13453964  0.44370514  0.97411122  1
  O  O26  1  0.30155596  0.85803682  0.97369766  1
  O  O27  1  0.55753416  0.85874035  0.47468162  1
  O  O28  1  0.30609585  0.43986268  0.47435402  1
  O  O29  1  0.14583663  0.68788714  0.46894291  1
  O  O30  1  0.11789550  0.64609657  0.35988162  1
  O  O31  1  0.51985288  0.88180466  0.36135995  1
  O  O32  1  0.34756750  0.48227192  0.36585654  1
  O  O33  1  0.12977823  0.47961067  0.86478082  1
  O  O34  1  0.36534379  0.89033704  0.85993625  1
  O  O35  1  0.53161686  0.64242962  0.85912223  1
  O  O36  1  0.02297627  0.82594157  0.41214734  1
  O  O37  1  0.81483051  0.98147430  0.40988446  1
  O  O38  1  0.17852416  0.19134856  0.41077418  1
  O  O39  1  0.01267640  0.19148772  0.91266118  1
  O  O40  1  0.16452430  0.98085738  0.91026129  1
  O  O41  1  0.80141487  0.82445393  0.91440450  1
  O  O42  1  0.98909671  0.17878893  0.58958518  1
  O  O43  1  0.19505938  0.02500507  0.59111227  1
  O  O44  1  0.82520582  0.81424154  0.58676175  1
  O  O45  1  0.98855163  0.81420156  0.08690230  1
  O  O46  1  0.82988277  0.02496525  0.09130164  1
  O  O47  1  0.18964288  0.17896929  0.08959010  1
  O  O48  1  0.67277532  0.15848027  0.74531069  1
  O  O49  1  0.47446719  0.31742653  0.74371389  1
  O  O50  1  0.83955970  0.53188648  0.74312255  1
  O  O51  1  0.69417719  0.53438560  0.24428772  1
  O  O52  1  0.84381754  0.31584030  0.24504543  1
  O  O53  1  0.48602082  0.15878094  0.24531811  1
  O  O54  1  0.65458617  0.51292992  0.92045915  1
  O  O55  1  0.86480861  0.35557903  0.91874675  1
  O  O56  1  0.50254219  0.14914669  0.92341475  1
  O  O57  1  0.64418318  0.14763833  0.42270257  1
  O  O58  1  0.48980911  0.35601288  0.41821116  1
  O  O59  1  0.86014512  0.51469637  0.41918714  1
  O  O60  1  0.34902753  0.48994340  0.07863943  1
  O  O61  1  0.14562360  0.64470946  0.08092323  1
  O  O62  1  0.51307808  0.86303144  0.07984301  1
  O  O63  1  0.34975088  0.86290027  0.57985178  1
  O  O64  1  0.49881511  0.64426234  0.58054051  1
  O  O65  1  0.14075812  0.48984745  0.57855638  1
  O  O66  1  0.31589165  0.83344706  0.25384416  1
  O  O67  1  0.52920366  0.68443995  0.25664648  1
  O  O68  1  0.15522011  0.47124222  0.25504100  1
  O  O69  1  0.31619678  0.47125362  0.75315486  1
  O  O70  1  0.15544555  0.68405450  0.75462971  1
  O  O71  1  0.51845928  0.83278081  0.75311664  1
loop_
_geom_bond_atom_site_label_1
_geom_bond_atom_site_label_2
_geom_bond_distance
_geom_bond_site_symmetry_2
Na0 O53 2.339261 1_565
Na0 O66 2.417421 1_555
Na0 O67 2.495641 1_555
Na0 O52 2.508854 1_565
Na0 O31 2.596417 1_555
Na0 O16 2.793270 1_565
Na0 O2 2.864466 1_565
Na0 O9 2.897667 1_555
Na1 O66 2.405609 1_555
Na1 O51 2.465550 1_455
Na1 O68 2.490173 1_555
Na1 O52 2.546986 1_455
Na1 O15 2.635588 1_455
Na1 O30 2.731896 1_555
Na1 O11 2.790693 1_555
Na1 O1 2.966714 1_455
Na2 O71 2.393895 1_555
Na2 O69 2.474505 1_555
Na2 O50 2.478728 1_555
Na2 O49 2.523569 1_555
Na2 O14 2.657406 1_555
Na2 O35 2.686725 1_555
Na2 O6 2.808664 1_555
Na2 O4 2.959461 1_555
Na3 O48 2.346524 1_565
Na3 O71 2.427216 1_555
Na3 O70 2.489198 1_555
Na3 O49 2.526965 1_565
Na3 O34 2.540798 1_555
Na3 O13 2.797166 1_565
Na3 O3 2.841276 1_565
Na3 O8 2.910112 1_555
Na4 O64 2.370381 1_555
Na4 O65 2.471236 1_555
Na4 O43 2.480236 1_555
Na4 O42 2.492692 1_455
Na4 O28 2.601117 1_555
Na4 O7 2.643300 1_555
Na4 O14 2.838521 1_555
Na4 O21 2.873986 1_555
Na5 O44 2.361529 1_555
Na5 O64 2.439322 1_555
Na5 O63 2.498755 1_555
Na5 O42 2.562971 1_565
Na5 O27 2.579487 1_555
Na5 O6 2.703382 1_555
Na5 O23 2.902495 1_565
Na5 O13 2.958712 1_565
Na6 O45 2.362361 1_455
Na6 O61 2.438946 1_555
Na6 O62 2.503444 1_555
Na6 O47 2.557954 1_565
Na6 O26 2.618875 1_554
Na6 O11 2.664008 1_555
Na6 O18 2.903179 1_565
Na6 O16 2.955615 1_565
Na7 O61 2.374883 1_555
Na7 O60 2.471799 1_555
Na7 O46 2.479770 1_455
Na7 O47 2.489123 1_555
Na7 O25 2.614030 1_554
Na7 O10 2.627554 1_555
Na7 O15 2.845892 1_455
Na7 O20 2.872269 1_455
Na8 O40 2.435224 1_655
Na8 O54 2.467371 1_555
Na8 O55 2.479292 1_555
Na8 O19 2.515453 1_556
Na8 O41 2.525948 1_555
Na8 O4 2.711366 1_555
Na8 O26 2.791151 1_655
Na8 O33 2.974058 1_655
Na9 O56 2.425969 1_555
Na9 O39 2.470846 1_655
Na9 O41 2.472343 1_545
Na9 O5 2.483544 1_555
Na9 O55 2.520925 1_555
Na9 O20 2.775493 1_556
Na9 O34 2.785039 1_545
Na9 O24 2.979109 1_545
Na10 O57 2.393091 1_555
Na10 O36 2.479454 1_545
Na10 O38 2.488388 1_555
Na10 O0 2.525761 1_555
Na10 O58 2.530177 1_555
Na10 O21 2.775714 1_555
Na10 O31 2.777254 1_545
Na10 O29 2.952842 1_545
Na11 O37 2.446193 1_555
Na11 O58 2.472970 1_555
Na11 O59 2.478107 1_555
Na11 O22 2.494078 1_555
Na11 O36 2.544575 1_655
Na11 O1 2.764975 1_555
Na11 O27 2.786008 1_555
Na11 O32 2.970428 1_555
Na12 O44 2.456269 1_555
Na12 O37 2.483466 1_555
Na12 O36 2.570148 1_655
Na12 O42 2.588489 1_565
Na12 O38 2.648939 1_665
Na12 O43 2.672289 1_665
Na13 O40 2.463297 1_555
Na13 O45 2.471340 1_456
Na13 O41 2.524227 1_455
Na13 O47 2.601795 1_566
Na13 O39 2.602086 1_565
Na13 O46 2.685419 1_466
Na14 O48 2.476560 1_555
Na14 O56 2.480529 1_555
Na14 O55 2.516105 1_555
Na14 O54 2.597486 1_555
Na14 O49 2.604340 1_555
Na14 O50 2.679401 1_555
Na15 O57 2.465911 1_555
Na15 O53 2.468576 1_555
Na15 O58 2.517435 1_555
Na15 O59 2.591012 1_555
Na15 O52 2.595909 1_555
Na15 O51 2.672365 1_555
Na16 O60 2.503314 1_555
Na16 O61 2.506136 1_555
Na16 O66 2.552173 1_555
Na16 O62 2.556767 1_555
Na16 O67 2.578286 1_555
Na16 O68 2.593206 1_555
Na17 O65 2.509454 1_555
Na17 O70 2.529905 1_555
Na17 O64 2.530388 1_555
Na17 O71 2.534356 1_555
Na17 O69 2.545068 1_555
Na17 O63 2.569927 1_555
Mg0 O2 2.024921 1_455
Mg0 O0 2.037261 1_555
Mg0 O37 2.083189 1_445
Mg0 O38 2.102131 1_555
Mg0 O1 2.116219 1_445
Mg0 O36 2.221339 1_545
Mg1 O6 1.986835 1_555
Mg1 O8 2.038501 1_655
Mg1 O44 2.061679 1_555
Mg1 O7 2.155414 1_665
Mg1 O43 2.155928 1_665
Mg1 O42 2.169059 1_565
Mg2 O11 1.986191 1_555
Mg2 O9 2.051390 1_455
Mg2 O45 2.062498 1_455
Mg2 O46 2.155183 1_465
Mg2 O10 2.172812 1_565
Mg2 O47 2.174784 1_565
Mg3 O12 2.026797 1_555
Mg3 O14 2.031805 1_555
Mg3 O48 2.095254 1_555
Mg3 O13 2.100917 1_555
Mg3 O50 2.105265 1_555
Mg3 O49 2.194129 1_555
Mg4 O17 2.025678 1_555
Mg4 O15 2.036163 1_555
Mg4 O53 2.088456 1_555
Mg4 O16 2.106388 1_555
Mg4 O51 2.128025 1_555
Mg4 O52 2.216698 1_555
Mg5 O31 2.015760 1_555
Mg5 O32 2.061975 1_555
Mg5 O30 2.071808 1_555
Mg5 O66 2.082654 1_555
Mg5 O67 2.149262 1_555
Mg5 O68 2.203173 1_555
O0 P0 1.540269 1_555
O1 S0 1.485390 1_555
O2 S1 1.472871 1_655
O3 S2 1.478237 1_555
O3 Zn0 2.023086 1_555
O4 S3 1.491141 1_555
O4 Zn0 2.150070 1_665
O5 P1 1.549710 1_555
O5 Zn0 2.024838 1_655
O6 P1 1.537958 1_565
O7 S2 1.477189 1_555
O8 S3 1.478085 1_455
O9 S0 1.480176 1_555
O10 S1 1.478321 1_555
O11 P0 1.544013 1_565
O12 S4 1.457622 1_555
O13 S5 1.483388 1_555
O14 P2 1.538639 1_555
O15 P3 1.540396 1_555
O16 S6 1.483207 1_555
O17 S7 1.458131 1_555
O18 S7 1.479330 1_555
O18 Zn1 2.020951 1_554
O19 P3 1.548393 1_555
O19 Zn1 2.013061 1_554
O20 S6 1.488906 1_555
O20 Zn1 2.168753 1_554
O21 S5 1.489001 1_555
O21 Zn2 2.174206 1_555
O22 P2 1.550032 1_555
O22 Zn2 2.018386 1_555
O23 S4 1.478982 1_555
O23 Zn2 2.019680 1_555
O24 S8 1.474201 1_555
O24 Zn3 2.090286 1_556
O25 S9 1.484635 1_555
O25 Zn3 2.079577 1_556
O26 P4 1.557267 1_555
O26 Zn3 1.994560 1_556
O27 P5 1.562149 1_555
O27 Zn4 1.991675 1_555
O28 S10 1.486098 1_555
O28 Zn4 2.094749 1_555
O29 S11 1.477076 1_555
O29 Zn4 2.101993 1_555
O30 S11 1.474006 1_555
O31 P5 1.548549 1_555
O32 S10 1.465005 1_555
O33 S9 1.471287 1_555
O33 Zn5 2.089779 1_555
O34 P4 1.556401 1_555
O34 Zn5 1.998453 1_555
O35 S8 1.481823 1_555
O35 Zn5 2.074788 1_555
O36 S11 1.510819 1_555
O37 P5 1.550156 1_555
O38 S10 1.487043 1_555
O39 S9 1.488858 1_555
O39 Zn0 2.163077 1_555
O40 P4 1.554374 1_555
O40 Zn0 2.109263 1_565
O41 S8 1.506792 1_555
O41 Zn0 2.320487 1_665
O42 S4 1.511343 1_555
O43 S5 1.489163 1_555
O44 P2 1.553784 1_555
O45 P3 1.552851 1_555
O46 S6 1.488895 1_555
O47 S7 1.510833 1_555
O48 P1 1.552033 1_555
O49 S2 1.507683 1_555
O50 S3 1.483579 1_555
O51 S0 1.483950 1_555
O52 S1 1.508167 1_655
O53 P0 1.556436 1_555
O54 S8 1.487468 1_555
O54 Zn1 2.168102 1_555
O55 S9 1.504805 1_655
O55 Zn1 2.339547 1_555
O56 P4 1.555300 1_545
O56 Zn1 2.091718 1_555
O57 P5 1.560835 1_545
O57 Zn2 2.096556 1_555
O58 S10 1.503885 1_555
O58 Zn2 2.345191 1_555
O59 S11 1.487379 1_655
O59 Zn2 2.194083 1_555
O60 S7 1.488904 1_555
O60 Zn3 2.257504 1_555
O61 P3 1.587945 1_455
O61 Zn3 2.121342 1_555
O62 S6 1.487377 1_565
O62 Zn3 2.246160 1_555
O63 S5 1.486962 1_565
O63 Zn4 2.254592 1_555
O64 P2 1.587165 1_555
O64 Zn4 2.122069 1_555
O65 S4 1.489386 1_455
O65 Zn4 2.264317 1_555
O66 P0 1.582208 1_565
O67 S0 1.486752 1_555
O68 S1 1.484664 1_555
O69 S2 1.482970 1_555
O69 Zn5 2.296979 1_555
O70 S3 1.487540 1_455
O70 Zn5 2.219057 1_555
O71 P1 1.586600 1_565
O71 Zn5 2.108062 1_555
