# generated using pymatgen
data_NaHf3Ta(PO4)6
_symmetry_space_group_name_H-M   'P 1'
_cell_length_a   8.83023154
_cell_length_b   8.83023125
_cell_length_c   22.98014667
_cell_angle_alpha   90.00000000
_cell_angle_beta   90.00000000
_cell_angle_gamma   120.00000109
_symmetry_Int_Tables_number   1
_chemical_formula_structural   NaHf3Ta(PO4)6
_chemical_formula_sum   'Na3 Hf9 Ta3 P18 O72'
_cell_volume   1551.77085888
_cell_formula_units_Z   3
loop_
 _symmetry_equiv_pos_site_id
 _symmetry_equiv_pos_as_xyz
  1  'x, y, z'
loop_
 _atom_site_type_symbol
 _atom_site_label
 _atom_site_symmetry_multiplicity
 _atom_site_fract_x
 _atom_site_fract_y
 _atom_site_fract_z
 _atom_site_occupancy
  Na  Na0  1  0.00000000  0.00000000  0.99856984  1
  Na  Na1  1  0.66666700  0.33333300  0.83401065  1
  Na  Na2  1  0.66666700  0.33333300  0.33314404  1
  Hf  Hf0  1  0.00000000  0.00000000  0.35788263  1
  Hf  Hf1  1  0.00000000  0.00000000  0.85428437  1
  Hf  Hf2  1  0.66666700  0.33333300  0.68645748  1
  Hf  Hf3  1  0.66666700  0.33333300  0.18650139  1
  Hf  Hf4  1  0.66666700  0.33333300  0.97976090  1
  Hf  Hf5  1  0.66666700  0.33333300  0.48006350  1
  Hf  Hf6  1  0.33333300  0.66666700  0.02230409  1
  Hf  Hf7  1  0.33333300  0.66666700  0.30896666  1
  Hf  Hf8  1  0.33333300  0.66666700  0.81002330  1
  Ta  Ta0  1  0.00000000  0.00000000  0.64507194  1
  Ta  Ta1  1  0.00000000  0.00000000  0.14706698  1
  Ta  Ta2  1  0.33333300  0.66666700  0.52136338  1
  P  P0  1  0.28683380  0.00167432  0.25067157  1
  P  P1  1  0.71484052  0.71316620  0.25067157  1
  P  P2  1  0.99832568  0.28515949  0.25067157  1
  P  P3  1  0.28713125  0.28612886  0.74964061  1
  P  P4  1  0.99899761  0.71286875  0.74964061  1
  P  P5  1  0.71387114  0.00100239  0.74964061  1
  P  P6  1  0.95699702  0.33341932  0.58330243  1
  P  P7  1  0.37642330  0.04300298  0.58330243  1
  P  P8  1  0.66658068  0.62357670  0.58330243  1
  P  P9  1  0.95546620  0.62414194  0.08379002  1
  P  P10  1  0.66867674  0.04453380  0.08379002  1
  P  P11  1  0.37585806  0.33132326  0.08379002  1
  P  P12  1  0.62119753  0.66624769  0.91654923  1
  P  P13  1  0.04504916  0.37880247  0.91654923  1
  P  P14  1  0.33375231  0.95495084  0.91654923  1
  P  P15  1  0.61781370  0.95263538  0.41643766  1
  P  P16  1  0.33482068  0.38218630  0.41643766  1
  P  P17  1  0.04736462  0.66517932  0.41643766  1
  O  O0  1  0.20188037  0.03140077  0.30401819  1
  O  O1  1  0.82952041  0.79811963  0.30401819  1
  O  O2  1  0.96859923  0.17047959  0.30401819  1
  O  O3  1  0.20384617  0.17176745  0.80337168  1
  O  O4  1  0.96792128  0.79615383  0.80337168  1
  O  O5  1  0.82823255  0.03207872  0.80337168  1
  O  O6  1  0.80679598  0.97758578  0.69511068  1
  O  O7  1  0.17078980  0.19320402  0.69511068  1
  O  O8  1  0.02241422  0.82921020  0.69511068  1
  O  O9  1  0.80622298  0.82901717  0.19560189  1
  O  O10  1  0.02279419  0.19377702  0.19560189  1
  O  O11  1  0.17098283  0.97720581  0.19560189  1
  O  O12  1  0.87596320  0.36661949  0.63706410  1
  O  O13  1  0.49065729  0.12403680  0.63706410  1
  O  O14  1  0.63338051  0.50934271  0.63706410  1
  O  O15  1  0.87034682  0.51234370  0.13776433  1
  O  O16  1  0.64199787  0.12965318  0.13776433  1
  O  O17  1  0.48765630  0.35800213  0.13776433  1
  O  O18  1  0.45599304  0.29581769  0.02965347  1
  O  O19  1  0.83982565  0.54400696  0.02965347  1
  O  O20  1  0.70418231  0.16017435  0.02965347  1
  O  O21  1  0.45740079  0.15737604  0.52957138  1
  O  O22  1  0.69997625  0.54259921  0.52957138  1
  O  O23  1  0.84262396  0.30002375  0.52957138  1
  O  O24  1  0.53798903  0.69453495  0.97119174  1
  O  O25  1  0.15654492  0.46201097  0.97119174  1
  O  O26  1  0.30546505  0.84345508  0.97119174  1
  O  O27  1  0.52649640  0.83737620  0.47145755  1
  O  O28  1  0.31087880  0.47350360  0.47145755  1
  O  O29  1  0.16262380  0.68912120  0.47145755  1
  O  O30  1  0.13090522  0.63469689  0.36279864  1
  O  O31  1  0.50379067  0.86909478  0.36279864  1
  O  O32  1  0.36530311  0.49620933  0.36279864  1
  O  O33  1  0.12895119  0.49046318  0.86190598  1
  O  O34  1  0.36151099  0.87104881  0.86190598  1
  O  O35  1  0.50953682  0.63848901  0.86190598  1
  O  O36  1  0.02985535  0.82767962  0.40965595  1
  O  O37  1  0.79782427  0.97014465  0.40965595  1
  O  O38  1  0.17232038  0.20217573  0.40965595  1
  O  O39  1  0.02382187  0.19451366  0.91002024  1
  O  O40  1  0.17069179  0.97617813  0.91002024  1
  O  O41  1  0.80548634  0.82930821  0.91002024  1
  O  O42  1  0.98052703  0.17288370  0.59523746  1
  O  O43  1  0.19235667  0.01947297  0.59523746  1
  O  O44  1  0.82711630  0.80764333  0.59523746  1
  O  O45  1  0.97557641  0.80988033  0.09343552  1
  O  O46  1  0.83430392  0.02442359  0.09343552  1
  O  O47  1  0.19011967  0.16569608  0.09343552  1
  O  O48  1  0.69442466  0.16384512  0.74118475  1
  O  O49  1  0.46942146  0.30557534  0.74118475  1
  O  O50  1  0.83615488  0.53057854  0.74118475  1
  O  O51  1  0.69423656  0.53073293  0.24206619  1
  O  O52  1  0.83649737  0.30576344  0.24206619  1
  O  O53  1  0.46926707  0.16350263  0.24206619  1
  O  O54  1  0.64235671  0.50309529  0.92350532  1
  O  O55  1  0.86073958  0.35764329  0.92350532  1
  O  O56  1  0.49690471  0.13926042  0.92350532  1
  O  O57  1  0.63870539  0.13574894  0.42528707  1
  O  O58  1  0.49704455  0.36129461  0.42528707  1
  O  O59  1  0.86425106  0.50295545  0.42528707  1
  O  O60  1  0.35242010  0.48941425  0.07466112  1
  O  O61  1  0.13699315  0.64757990  0.07466112  1
  O  O62  1  0.51058575  0.86300685  0.07466112  1
  O  O63  1  0.35280232  0.85894318  0.57141820  1
  O  O64  1  0.50613986  0.64719768  0.57141820  1
  O  O65  1  0.14105682  0.49386014  0.57141820  1
  O  O66  1  0.30326477  0.83834712  0.25720797  1
  O  O67  1  0.53508134  0.69673523  0.25720797  1
  O  O68  1  0.16165288  0.46491866  0.25720797  1
  O  O69  1  0.30385641  0.46558925  0.75681736  1
  O  O70  1  0.16173184  0.69614359  0.75681736  1
  O  O71  1  0.53441075  0.83826816  0.75681736  1
loop_
_geom_bond_atom_site_label_1
_geom_bond_atom_site_label_2
_geom_bond_distance
_geom_bond_site_symmetry_2
Na0 O39 2.602661 1_555
Na0 O41 2.602661 1_445
Na0 O40 2.602661 1_545
Na0 O45 2.693574 1_446
Na0 O47 2.693574 1_556
Na0 O46 2.693574 1_456
Na1 O56 2.616219 1_555
Na1 O54 2.616219 1_555
Na1 O55 2.616219 1_555
Na1 O50 2.686468 1_555
Na1 O48 2.686468 1_555
Na1 O49 2.686468 1_555
Na2 O51 2.655908 1_555
Na2 O53 2.655908 1_555
Na2 O52 2.655908 1_555
Na2 O57 2.675414 1_555
Na2 O59 2.675414 1_555
Na2 O58 2.675414 1_555
Hf0 O38 2.049763 1_555
Hf0 O36 2.049763 1_545
Hf0 O37 2.049763 1_445
Hf0 O2 2.071863 1_455
Hf0 O1 2.071863 1_445
Hf0 O0 2.071864 1_555
Hf1 O4 2.044321 1_445
Hf1 O3 2.044321 1_555
Hf1 O5 2.044321 1_455
Hf1 O39 2.067267 1_555
Hf1 O41 2.067267 1_445
Hf1 O40 2.067267 1_545
Hf2 O13 2.060862 1_555
Hf2 O14 2.060862 1_555
Hf2 O12 2.060862 1_555
Hf2 O50 2.061172 1_555
Hf2 O48 2.061172 1_555
Hf2 O49 2.061172 1_555
Hf3 O16 2.035873 1_555
Hf3 O15 2.035873 1_555
Hf3 O17 2.035873 1_555
Hf3 O51 2.074539 1_555
Hf3 O53 2.074539 1_555
Hf3 O52 2.074539 1_555
Hf4 O19 2.066094 1_556
Hf4 O20 2.066094 1_556
Hf4 O18 2.066094 1_556
Hf4 O56 2.070321 1_555
Hf4 O54 2.070321 1_555
Hf4 O55 2.070321 1_555
Hf5 O22 2.062033 1_555
Hf5 O21 2.062033 1_555
Hf5 O23 2.062033 1_555
Hf5 O57 2.063663 1_555
Hf5 O59 2.063663 1_555
Hf5 O58 2.063663 1_555
Hf6 O62 2.046858 1_555
Hf6 O60 2.046858 1_555
Hf6 O61 2.046858 1_555
Hf6 O25 2.064289 1_554
Hf6 O26 2.064289 1_554
Hf6 O24 2.064289 1_554
Hf7 O68 2.045949 1_555
Hf7 O67 2.045949 1_555
Hf7 O66 2.045949 1_555
Hf7 O31 2.073769 1_555
Hf7 O32 2.073769 1_555
Hf7 O30 2.073769 1_555
Hf8 O69 2.062321 1_555
Hf8 O71 2.062321 1_555
Hf8 O70 2.062321 1_555
Hf8 O34 2.071582 1_555
Hf8 O33 2.071582 1_555
Hf8 O35 2.071582 1_555
O0 P0 1.526896 1_555
O1 P1 1.526896 1_555
O2 P2 1.526897 1_555
O3 P3 1.530544 1_555
O4 P4 1.530544 1_555
O5 P5 1.530544 1_555
O6 P5 1.567162 1_565
O6 Ta0 1.983516 1_665
O7 P3 1.567162 1_555
O7 Ta0 1.983516 1_555
O8 P4 1.567162 1_455
O8 Ta0 1.983516 1_565
O9 P1 1.572793 1_555
O9 Ta1 1.966707 1_665
O10 P2 1.572793 1_455
O10 Ta1 1.966707 1_555
O11 P0 1.572793 1_565
O11 Ta1 1.966707 1_565
O12 P6 1.527765 1_555
O13 P7 1.527765 1_555
O14 P8 1.527765 1_555
O15 P9 1.528379 1_555
O16 P10 1.528379 1_555
O17 P11 1.528379 1_555
O18 P11 1.539013 1_555
O19 P9 1.539013 1_555
O20 P10 1.539013 1_555
O21 P7 1.527652 1_555
O22 P8 1.527652 1_555
O23 P6 1.527652 1_555
O24 P12 1.537056 1_555
O25 P13 1.537056 1_555
O26 P14 1.537056 1_555
O27 P15 1.569711 1_555
O27 Ta2 1.981339 1_555
O28 P16 1.569711 1_555
O28 Ta2 1.981339 1_555
O29 P17 1.569711 1_555
O29 Ta2 1.981339 1_555
O30 P17 1.527930 1_555
O31 P15 1.527930 1_555
O32 P16 1.527930 1_555
O33 P13 1.538630 1_555
O34 P14 1.538630 1_555
O35 P12 1.538630 1_555
O36 P17 1.526115 1_555
O37 P15 1.526124 1_555
O38 P16 1.526120 1_555
O39 P13 1.549441 1_555
O40 P14 1.549432 1_555
O41 P12 1.549437 1_555
O42 P6 1.556414 1_555
O42 Ta0 1.983451 1_655
O43 P7 1.556423 1_555
O43 Ta0 1.983451 1_555
O44 P8 1.556419 1_555
O44 Ta0 1.983451 1_665
O45 P9 1.574607 1_555
O45 Ta1 2.005437 1_665
O46 P10 1.574598 1_555
O46 Ta1 2.005437 1_655
O47 P11 1.574604 1_555
O47 Ta1 2.005437 1_555
O48 P5 1.543319 1_555
O49 P3 1.543327 1_555
O50 P4 1.543324 1_555
O51 P1 1.540846 1_555
O52 P2 1.540838 1_555
O53 P0 1.540843 1_555
O54 P12 1.550864 1_555
O55 P13 1.550846 1_655
O56 P14 1.550853 1_545
O57 P15 1.546473 1_545
O58 P16 1.546490 1_555
O59 P17 1.546480 1_655
O60 P11 1.524637 1_555
O61 P9 1.524620 1_455
O62 P10 1.524627 1_565
O63 P7 1.555846 1_565
O63 Ta2 1.985812 1_555
O64 P8 1.555864 1_555
O64 Ta2 1.985812 1_555
O65 P6 1.555853 1_455
O65 Ta2 1.985812 1_555
O66 P0 1.527368 1_565
O67 P1 1.527377 1_555
O68 P2 1.527373 1_455
O69 P3 1.525180 1_555
O70 P4 1.525172 1_455
O71 P5 1.525177 1_565
