# generated using pymatgen
data_MgCd2(FeO2)4
_symmetry_space_group_name_H-M   'P 1'
_cell_length_a   6.47354952
_cell_length_b   6.39649465
_cell_length_c   6.54050339
_cell_angle_alpha   59.89520224
_cell_angle_beta   56.57888250
_cell_angle_gamma   60.82159958
_symmetry_Int_Tables_number   1
_chemical_formula_structural   MgCd2(FeO2)4
_chemical_formula_sum   'Mg1 Cd2 Fe4 O8'
_cell_volume   186.99717534
_cell_formula_units_Z   1
loop_
 _symmetry_equiv_pos_site_id
 _symmetry_equiv_pos_as_xyz
  1  'x, y, z'
loop_
 _atom_site_type_symbol
 _atom_site_label
 _atom_site_symmetry_multiplicity
 _atom_site_fract_x
 _atom_site_fract_y
 _atom_site_fract_z
 _atom_site_occupancy
  Mg  Mg0  1  0.89412000  0.34734600  0.89714100  1
  Cd  Cd0  1  0.19135300  0.06140600  0.19036500  1
  Cd  Cd1  1  0.84773000  0.89873500  0.84765400  1
  Fe  Fe0  1  0.50449000  0.00450400  0.50032900  1
  Fe  Fe1  1  0.98584300  0.54525600  0.42159100  1
  Fe  Fe2  1  0.41961600  0.55274300  0.98576600  1
  Fe  Fe3  1  0.50167300  0.48895300  0.50547800  1
  O  O0  1  0.72528500  0.72900800  0.72724400  1
  O  O1  1  0.28072900  0.22985000  0.74831600  1
  O  O2  1  0.29065800  0.66595500  0.29151700  1
  O  O3  1  0.74873200  0.23647000  0.28244600  1
  O  O4  1  0.72617900  0.31407400  0.72404200  1
  O  O5  1  0.27979200  0.75238700  0.70616400  1
  O  O6  1  0.29181900  0.25620900  0.28858100  1
  O  O7  1  0.70781100  0.76085400  0.27919800  1
loop_
_geom_bond_atom_site_label_1
_geom_bond_atom_site_label_2
_geom_bond_distance
_geom_bond_site_symmetry_2
Mg0 O3 1.996191 1_556
Mg0 O1 1.998060 1_655
Mg0 O4 2.081396 1_555
Mg0 O0 2.098591 1_555
Cd0 O6 2.107531 1_555
Cd0 O2 2.110333 1_545
Cd0 O3 2.339613 1_455
Cd0 O1 2.344128 1_554
Cd1 O0 2.193543 1_555
Cd1 O4 2.199697 1_565
Cd1 O5 2.240655 1_655
Cd1 O7 2.242840 1_556
Fe0 O6 2.026787 1_555
Fe0 O3 2.101565 1_555
Fe0 O7 2.101713 1_545
Fe0 O5 2.116861 1_545
Fe0 O1 2.127922 1_555
Fe0 O0 2.146676 1_545
Fe1 O7 2.036303 1_555
Fe1 O2 2.047141 1_655
Fe1 O6 2.059871 1_655
Fe1 O4 2.179846 1_555
Fe1 O0 2.220948 1_555
Fe2 O5 2.036664 1_555
Fe2 O6 2.039940 1_556
Fe2 O2 2.060254 1_556
Fe2 O0 2.150112 1_555
Fe2 O4 2.263753 1_555
Fe3 O2 2.028440 1_555
Fe3 O5 2.099373 1_555
Fe3 O1 2.117411 1_555
Fe3 O7 2.121612 1_555
Fe3 O4 2.122814 1_555
Fe3 O3 2.137490 1_555
