# generated using pymatgen
data_MgV2S4(Br2N3)2
_symmetry_space_group_name_H-M   'P 1'
_cell_length_a   6.20879489
_cell_length_b   7.72312434
_cell_length_c   8.84677828
_cell_angle_alpha   82.17221178
_cell_angle_beta   79.33257752
_cell_angle_gamma   71.17940076
_symmetry_Int_Tables_number   1
_chemical_formula_structural   MgV2S4(Br2N3)2
_chemical_formula_sum   'Mg1 V2 S4 Br4 N6'
_cell_volume   393.25790969
_cell_formula_units_Z   1
loop_
 _symmetry_equiv_pos_site_id
 _symmetry_equiv_pos_as_xyz
  1  'x, y, z'
loop_
 _atom_site_type_symbol
 _atom_site_label
 _atom_site_symmetry_multiplicity
 _atom_site_fract_x
 _atom_site_fract_y
 _atom_site_fract_z
 _atom_site_occupancy
  Mg  Mg0  1  0.50000000  0.50000000  0.00000000  1
  V  V0  1  0.22722302  0.99435006  0.88581642  1
  V  V1  1  0.77277698  0.00564994  0.11418358  1
  S  S0  1  0.78528502  0.27122984  0.76931648  1
  S  S1  1  0.77371449  0.73547517  0.40971101  1
  S  S2  1  0.22628551  0.26452483  0.59028899  1
  S  S3  1  0.21471498  0.72877016  0.23068352  1
  Br  Br0  1  0.26398215  0.68787610  0.78416709  1
  Br  Br1  1  0.66817606  0.78169856  0.95085833  1
  Br  Br2  1  0.33182394  0.21830144  0.04914167  1
  Br  Br3  1  0.73601785  0.31212390  0.21583291  1
  N  N0  1  0.32837340  0.10318458  0.71043011  1
  N  N1  1  0.67162660  0.89681542  0.28956989  1
  N  N2  1  0.07857795  0.88796598  0.11392783  1
  N  N3  1  0.94973201  0.34669780  0.63229030  1
  N  N4  1  0.05026799  0.65330220  0.36770970  1
  N  N5  1  0.92142205  0.11203402  0.88607217  1
loop_
_geom_bond_atom_site_label_1
_geom_bond_atom_site_label_2
_geom_bond_distance
_geom_bond_site_symmetry_2
Mg0 S3 2.837016 1_555
Mg0 S0 2.837016 1_554
Br0 V0 2.572629 1_555
Br0 Mg0 2.609205 1_556
Br1 Mg0 2.655660 1_556
Br1 V1 2.693316 1_566
Br1 V0 2.819315 1_555
Br2 Mg0 2.655660 1_555
Br2 V0 2.693316 1_544
Br2 V1 2.819315 1_555
Br3 V1 2.572629 1_555
Br3 Mg0 2.609205 1_555
N0 S2 1.569441 1_555
N0 V0 1.770025 1_545
N1 S1 1.569441 1_555
N1 V1 1.770025 1_565
N2 S3 1.612381 1_555
N2 V1 1.821133 1_465
N2 V0 2.224282 1_554
N3 S0 1.607793 1_555
N3 S2 1.616810 1_655
N4 S3 1.607793 1_555
N4 S1 1.616810 1_455
N5 S0 1.612381 1_555
N5 V0 1.821133 1_645
N5 V1 2.224282 1_556
