# generated using pymatgen
data_Na4InSi2GePO12
_symmetry_space_group_name_H-M   'P 1'
_cell_length_a   9.07089849
_cell_length_b   9.07089819
_cell_length_c   22.04904079
_cell_angle_alpha   91.12325247
_cell_angle_beta   88.87674747
_cell_angle_gamma   120.35424502
_symmetry_Int_Tables_number   1
_chemical_formula_structural   Na4InSi2GePO12
_chemical_formula_sum   'Na24 In6 Si12 Ge6 P6 O72'
_cell_volume   1565.12374987
_cell_formula_units_Z   6
loop_
 _symmetry_equiv_pos_site_id
 _symmetry_equiv_pos_as_xyz
  1  'x, y, z'
loop_
 _atom_site_type_symbol
 _atom_site_label
 _atom_site_symmetry_multiplicity
 _atom_site_fract_x
 _atom_site_fract_y
 _atom_site_fract_z
 _atom_site_occupancy
  Na  Na0  1  0.63829711  0.00478906  0.25112365  1
  Na  Na1  1  0.37000595  0.36802452  0.24711170  1
  Na  Na2  1  0.99157103  0.62643021  0.25007733  1
  Na  Na3  1  0.63197548  0.62999405  0.74711170  1
  Na  Na4  1  0.99521094  0.36170289  0.75112365  1
  Na  Na5  1  0.37356979  0.00842897  0.75007733  1
  Na  Na6  1  0.30496411  0.33812206  0.58445665  1
  Na  Na7  1  0.03667295  0.70135752  0.58044470  1
  Na  Na8  1  0.65823803  0.95976321  0.58341033  1
  Na  Na9  1  0.29864248  0.96332705  0.08044470  1
  Na  Na10  1  0.66187794  0.69503589  0.08445665  1
  Na  Na11  1  0.04023679  0.34176197  0.08341033  1
  Na  Na12  1  0.97163011  0.67145606  0.91779065  1
  Na  Na13  1  0.70333895  0.03469152  0.91377870  1
  Na  Na14  1  0.32490403  0.29309721  0.91674433  1
  Na  Na15  1  0.96530848  0.29666105  0.41377870  1
  Na  Na16  1  0.32854394  0.02836989  0.41779065  1
  Na  Na17  1  0.70690279  0.67509597  0.41674433  1
  Na  Na18  1  0.99551524  0.99446838  0.49910419  1
  Na  Na19  1  0.00553162  0.00448476  0.99910419  1
  Na  Na20  1  0.66218224  0.32780138  0.83243719  1
  Na  Na21  1  0.67219862  0.33781776  0.33243719  1
  Na  Na22  1  0.32884824  0.66113538  0.16577119  1
  Na  Na23  1  0.33886462  0.67115176  0.66577119  1
  In  In0  1  0.99556137  0.99736245  0.34987603  1
  In  In1  1  0.00263755  0.00443863  0.84987603  1
  In  In2  1  0.66222837  0.33069545  0.68320903  1
  In  In3  1  0.66930455  0.33777163  0.18320903  1
  In  In4  1  0.32889437  0.66402945  0.01654303  1
  In  In5  1  0.33597055  0.67110563  0.51654303  1
  Si  Si0  1  0.70222576  0.70910546  0.25032380  1
  Si  Si1  1  0.00563594  0.29597743  0.25060536  1
  Si  Si2  1  0.29089454  0.29777424  0.75032380  1
  Si  Si3  1  0.70402257  0.99436406  0.75060536  1
  Si  Si4  1  0.36889276  0.04243846  0.58365680  1
  Si  Si5  1  0.67230294  0.62931043  0.58393836  1
  Si  Si6  1  0.95756154  0.63110724  0.08365680  1
  Si  Si7  1  0.37068957  0.32769706  0.08393836  1
  Si  Si8  1  0.03555876  0.37577246  0.91699080  1
  Si  Si9  1  0.33896894  0.96264443  0.91727236  1
  Si  Si10  1  0.62422754  0.96444124  0.41699080  1
  Si  Si11  1  0.03735557  0.66103106  0.41727236  1
  Ge  Ge0  1  0.99895906  0.99714469  0.64873210  1
  Ge  Ge1  1  0.00285531  0.00104094  0.14873210  1
  Ge  Ge2  1  0.66562606  0.33047769  0.98206510  1
  Ge  Ge3  1  0.66952231  0.33437394  0.48206510  1
  Ge  Ge4  1  0.33229206  0.66381169  0.31539910  1
  Ge  Ge5  1  0.33618831  0.66770794  0.81539910  1
  P  P0  1  0.28983008  0.99353978  0.24912486  1
  P  P1  1  0.00646022  0.71016992  0.74912486  1
  P  P2  1  0.95649708  0.32687278  0.58245786  1
  P  P3  1  0.67312722  0.04350292  0.08245786  1
  P  P4  1  0.62316308  0.66020678  0.91579186  1
  P  P5  1  0.33979322  0.37683692  0.41579186  1
  O  O0  1  0.22092768  0.03286642  0.30725338  1
  O  O1  1  0.81718705  0.77643071  0.31003492  1
  O  O2  1  0.96967014  0.18717267  0.31102948  1
  O  O3  1  0.22356929  0.18281295  0.81003492  1
  O  O4  1  0.96713358  0.77907232  0.80725338  1
  O  O5  1  0.81282733  0.03032986  0.81102948  1
  O  O6  1  0.79816477  0.95771546  0.69002425  1
  O  O7  1  0.15996356  0.20300531  0.69077993  1
  O  O8  1  0.03750202  0.82844490  0.69288185  1
  O  O9  1  0.79699469  0.84003644  0.19077993  1
  O  O10  1  0.04228454  0.20183523  0.19002425  1
  O  O11  1  0.17155510  0.96249798  0.19288185  1
  O  O12  1  0.88759468  0.36619942  0.64058638  1
  O  O13  1  0.48385405  0.10976371  0.64336792  1
  O  O14  1  0.63633714  0.52050567  0.64436248  1
  O  O15  1  0.89023629  0.51614595  0.14336792  1
  O  O16  1  0.63380058  0.11240532  0.14058638  1
  O  O17  1  0.47949433  0.36366286  0.14436248  1
  O  O18  1  0.46483177  0.29104846  0.02335725  1
  O  O19  1  0.82663056  0.53633831  0.02411293  1
  O  O20  1  0.70416902  0.16177790  0.02621485  1
  O  O21  1  0.46366169  0.17336944  0.52411293  1
  O  O22  1  0.70895154  0.53516823  0.52335725  1
  O  O23  1  0.83822210  0.29583098  0.52621485  1
  O  O24  1  0.55426068  0.69953342  0.97392038  1
  O  O25  1  0.15052005  0.44309771  0.97670192  1
  O  O26  1  0.30300314  0.85383967  0.97769648  1
  O  O27  1  0.55690229  0.84947995  0.47670192  1
  O  O28  1  0.30046658  0.44573932  0.47392038  1
  O  O29  1  0.14616033  0.69699686  0.47769648  1
  O  O30  1  0.13149777  0.62438246  0.35669125  1
  O  O31  1  0.49329656  0.86967231  0.35744693  1
  O  O32  1  0.37083502  0.49511190  0.35954885  1
  O  O33  1  0.13032769  0.50670344  0.85744693  1
  O  O34  1  0.37561754  0.86850223  0.85669125  1
  O  O35  1  0.50488810  0.62916498  0.85954885  1
  O  O36  1  0.01807950  0.82921739  0.41256516  1
  O  O37  1  0.81711843  0.99666819  0.41324941  1
  O  O38  1  0.18523234  0.19546841  0.41011614  1
  O  O39  1  0.00333181  0.18288157  0.91324941  1
  O  O40  1  0.17078261  0.98192050  0.91256516  1
  O  O41  1  0.80453159  0.81476766  0.91011614  1
  O  O42  1  0.96563221  0.15918379  0.58630535  1
  O  O43  1  0.17879148  0.03320332  0.59057731  1
  O  O44  1  0.85204771  0.82169990  0.58910379  1
  O  O45  1  0.96679668  0.82120852  0.09057731  1
  O  O46  1  0.84081621  0.03436779  0.08630535  1
  O  O47  1  0.17830010  0.14795229  0.08910379  1
  O  O48  1  0.68474650  0.16255039  0.74589816  1
  O  O49  1  0.48378543  0.33000119  0.74658241  1
  O  O50  1  0.85189934  0.52880141  0.74344914  1
  O  O51  1  0.66999881  0.51621457  0.24658241  1
  O  O52  1  0.83744961  0.31525350  0.24589816  1
  O  O53  1  0.47119859  0.14810066  0.24344914  1
  O  O54  1  0.63229921  0.49251679  0.91963835  1
  O  O55  1  0.84545848  0.36653632  0.92391031  1
  O  O56  1  0.51871471  0.15503290  0.92243679  1
  O  O57  1  0.63346368  0.15454152  0.42391031  1
  O  O58  1  0.50748321  0.36770079  0.41963835  1
  O  O59  1  0.84496710  0.48128529  0.42243679  1
  O  O60  1  0.35141250  0.49588439  0.07923216  1
  O  O61  1  0.15045143  0.66333519  0.07991641  1
  O  O62  1  0.51856534  0.86213541  0.07678314  1
  O  O63  1  0.33666481  0.84954857  0.57991641  1
  O  O64  1  0.50411561  0.64858750  0.57923216  1
  O  O65  1  0.13786459  0.48143466  0.57678314  1
  O  O66  1  0.29896521  0.82585079  0.25297235  1
  O  O67  1  0.51212448  0.69987032  0.25724431  1
  O  O68  1  0.18538071  0.48836690  0.25577079  1
  O  O69  1  0.30012968  0.48787552  0.75724431  1
  O  O70  1  0.17414921  0.70103479  0.75297235  1
  O  O71  1  0.51163310  0.81461929  0.75577079  1
loop_
_geom_bond_atom_site_label_1
_geom_bond_atom_site_label_2
_geom_bond_distance
_geom_bond_site_symmetry_2
Na0 O67 2.405703 1_545
Na0 O53 2.454819 1_555
Na0 O52 2.463813 1_555
Na0 O16 2.651819 1_555
Na0 O66 2.656836 1_545
Na0 O31 2.662796 1_545
Na0 O9 2.845555 1_545
Na0 O2 2.925887 1_555
Na1 O51 2.348274 1_555
Na1 O68 2.420687 1_555
Na1 O17 2.463433 1_555
Na1 O53 2.582678 1_555
Na1 O67 2.614515 1_555
Na1 O32 2.712012 1_555
Na1 O10 2.870029 1_555
Na1 O0 2.960146 1_555
Na2 O52 2.436568 1_555
Na2 O66 2.440443 1_655
Na2 O15 2.538636 1_555
Na2 O51 2.563674 1_555
Na2 O68 2.629611 1_655
Na2 O30 2.698118 1_655
Na2 O1 2.850259 1_555
Na2 O11 2.930642 1_655
Na3 O49 2.348274 1_555
Na3 O71 2.420687 1_555
Na3 O14 2.463433 1_555
Na3 O50 2.582678 1_555
Na3 O69 2.614515 1_555
Na3 O35 2.712012 1_555
Na3 O6 2.870029 1_555
Na3 O4 2.960147 1_555
Na4 O69 2.405703 1_655
Na4 O50 2.454819 1_555
Na4 O48 2.463813 1_555
Na4 O12 2.651819 1_555
Na4 O70 2.656836 1_655
Na4 O33 2.662796 1_655
Na4 O7 2.845555 1_655
Na4 O5 2.925886 1_555
Na5 O48 2.436568 1_555
Na5 O70 2.440443 1_545
Na5 O13 2.538636 1_555
Na5 O49 2.563674 1_555
Na5 O71 2.629611 1_545
Na5 O34 2.698118 1_545
Na5 O3 2.850259 1_555
Na5 O8 2.930642 1_545
Na6 O43 2.405703 1_555
Na6 O65 2.454832 1_555
Na6 O64 2.463817 1_555
Na6 O28 2.651804 1_555
Na6 O42 2.656836 1_455
Na6 O7 2.662796 1_555
Na6 O21 2.845555 1_555
Na6 O14 2.925887 1_555
Na7 O63 2.348266 1_555
Na7 O44 2.420687 1_455
Na7 O29 2.463407 1_555
Na7 O65 2.582662 1_555
Na7 O43 2.614515 1_565
Na7 O8 2.712012 1_555
Na7 O22 2.870029 1_455
Na7 O12 2.960146 1_455
Na8 O64 2.436559 1_555
Na8 O42 2.440443 1_565
Na8 O27 2.538615 1_555
Na8 O63 2.563683 1_555
Na8 O44 2.629611 1_555
Na8 O6 2.698118 1_555
Na8 O13 2.850259 1_565
Na8 O23 2.930642 1_565
Na9 O61 2.348266 1_555
Na9 O47 2.420687 1_565
Na9 O26 2.463407 1_554
Na9 O62 2.582662 1_555
Na9 O45 2.614515 1_455
Na9 O11 2.712012 1_555
Na9 O18 2.870029 1_565
Na9 O16 2.960147 1_565
Na10 O45 2.405703 1_555
Na10 O62 2.454832 1_555
Na10 O60 2.463817 1_555
Na10 O24 2.651804 1_554
Na10 O46 2.656836 1_565
Na10 O9 2.662796 1_555
Na10 O19 2.845555 1_555
Na10 O17 2.925886 1_555
Na11 O60 2.436559 1_555
Na11 O46 2.440443 1_455
Na11 O25 2.538615 1_554
Na11 O61 2.563683 1_555
Na11 O47 2.629611 1_555
Na11 O10 2.698118 1_555
Na11 O15 2.850259 1_455
Na11 O20 2.930642 1_455
Na12 O55 2.405711 1_555
Na12 O41 2.454819 1_555
Na12 O40 2.463813 1_655
Na12 O4 2.651819 1_555
Na12 O54 2.656828 1_555
Na12 O19 2.662777 1_556
Na12 O33 2.845555 1_655
Na12 O26 2.925887 1_655
Na13 O39 2.348274 1_655
Na13 O56 2.420670 1_555
Na13 O5 2.463433 1_555
Na13 O41 2.582678 1_545
Na13 O55 2.614504 1_555
Na13 O20 2.711986 1_556
Na13 O34 2.870029 1_545
Na13 O24 2.960146 1_545
Na14 O40 2.436568 1_545
Na14 O54 2.440448 1_555
Na14 O3 2.538636 1_555
Na14 O39 2.563674 1_555
Na14 O56 2.629625 1_555
Na14 O18 2.698106 1_556
Na14 O25 2.850259 1_555
Na14 O35 2.930642 1_555
Na15 O37 2.348274 1_545
Na15 O59 2.420670 1_555
Na15 O2 2.463433 1_555
Na15 O38 2.582678 1_655
Na15 O57 2.614504 1_555
Na15 O23 2.711986 1_555
Na15 O30 2.870029 1_655
Na15 O28 2.960147 1_655
Na16 O57 2.405711 1_555
Na16 O38 2.454819 1_555
Na16 O36 2.463813 1_545
Na16 O0 2.651819 1_555
Na16 O58 2.656828 1_555
Na16 O21 2.662777 1_555
Na16 O31 2.845555 1_545
Na16 O29 2.925886 1_545
Na17 O36 2.436568 1_655
Na17 O58 2.440448 1_555
Na17 O1 2.538636 1_555
Na17 O37 2.563674 1_555
Na17 O59 2.629625 1_555
Na17 O22 2.698106 1_555
Na17 O27 2.850259 1_555
Na17 O32 2.930642 1_555
Na18 O44 2.459036 1_555
Na18 O36 2.472309 1_655
Na18 O42 2.505776 1_565
Na18 O37 2.521261 1_555
Na18 O43 2.543317 1_665
Na18 O38 2.640509 1_665
Na19 O47 2.459036 1_556
Na19 O40 2.472309 1_545
Na19 O46 2.505776 1_456
Na19 O39 2.521261 1_555
Na19 O45 2.543317 1_446
Na19 O41 2.640509 1_445
Na20 O56 2.459036 1_555
Na20 O48 2.472309 1_555
Na20 O54 2.505776 1_555
Na20 O49 2.521261 1_555
Na20 O55 2.543317 1_555
Na20 O50 2.640509 1_555
Na21 O59 2.459036 1_555
Na21 O52 2.472309 1_555
Na21 O58 2.505776 1_555
Na21 O51 2.521261 1_555
Na21 O57 2.543317 1_555
Na21 O53 2.640509 1_555
Na22 O68 2.459036 1_555
Na22 O60 2.472309 1_555
Na22 O66 2.505776 1_555
Na22 O61 2.521261 1_555
Na22 O67 2.543317 1_555
Na22 O62 2.640509 1_555
Na23 O71 2.459036 1_555
Na23 O64 2.472309 1_555
Na23 O70 2.505776 1_555
Na23 O63 2.521261 1_555
Na23 O69 2.543317 1_555
Na23 O65 2.640509 1_555
In0 O1 2.028629 1_555
In0 O2 2.056116 1_565
In0 O0 2.106448 1_665
In0 O37 2.115161 1_555
In0 O36 2.164997 1_655
In0 O38 2.196530 1_665
In1 O3 2.028629 1_555
In1 O5 2.056116 1_455
In1 O4 2.106448 1_445
In1 O39 2.115161 1_555
In1 O40 2.164997 1_545
In1 O41 2.196530 1_445
In2 O13 2.028629 1_555
In2 O14 2.056116 1_555
In2 O12 2.106448 1_555
In2 O49 2.115161 1_555
In2 O48 2.164997 1_555
In2 O50 2.196530 1_555
In3 O15 2.028629 1_555
In3 O17 2.056116 1_555
In3 O16 2.106448 1_555
In3 O51 2.115161 1_555
In3 O52 2.164997 1_555
In3 O53 2.196530 1_555
In4 O25 2.028629 1_554
In4 O26 2.056116 1_554
In4 O24 2.106448 1_554
In4 O61 2.115161 1_555
In4 O60 2.164997 1_555
In4 O62 2.196530 1_555
In5 O27 2.028629 1_555
In5 O29 2.056116 1_555
In5 O28 2.106448 1_555
In5 O63 2.115161 1_555
In5 O64 2.164997 1_555
In5 O65 2.196530 1_555
Ge0 O6 1.887760 1_555
Ge0 O7 1.925700 1_665
Ge0 O43 1.951230 1_665
Ge0 O44 1.969853 1_555
Ge0 O8 2.005997 1_655
Ge0 O42 2.165908 1_565
Ge1 O10 1.887760 1_555
Ge1 O9 1.925700 1_445
Ge1 O45 1.951230 1_445
Ge1 O47 1.969853 1_555
Ge1 O11 2.005997 1_545
Ge1 O46 2.165908 1_455
Ge2 O18 1.887760 1_556
Ge2 O19 1.925700 1_556
Ge2 O55 1.951230 1_555
Ge2 O56 1.969853 1_555
Ge2 O20 2.005997 1_556
Ge2 O54 2.165908 1_555
Ge3 O22 1.887760 1_555
Ge3 O21 1.925700 1_555
Ge3 O57 1.951230 1_555
Ge3 O59 1.969853 1_555
Ge3 O23 2.005997 1_555
Ge3 O58 2.165908 1_555
Ge4 O30 1.887760 1_555
Ge4 O31 1.925700 1_555
Ge4 O67 1.951230 1_555
Ge4 O68 1.969853 1_555
Ge4 O32 2.005997 1_555
Ge4 O66 2.165908 1_555
Ge5 O34 1.887760 1_555
Ge5 O33 1.925700 1_555
Ge5 O69 1.951230 1_555
Ge5 O71 1.969853 1_555
Ge5 O35 2.005997 1_555
Ge5 O70 2.165908 1_555
O0 P0 1.528593 1_545
O1 Si0 1.603874 1_555
O2 Si1 1.601439 1_655
O3 Si2 1.603874 1_555
O4 P1 1.528593 1_655
O5 Si3 1.601439 1_545
O6 Si3 1.687834 1_555
O7 Si2 1.690620 1_555
O8 P1 1.581557 1_555
O9 Si0 1.690620 1_555
O10 Si1 1.687834 1_555
O11 P0 1.581557 1_555
O12 P2 1.528593 1_555
O13 Si4 1.603874 1_555
O14 Si5 1.601439 1_555
O15 Si6 1.603874 1_555
O16 P3 1.528593 1_555
O17 Si7 1.601439 1_555
O18 Si7 1.687834 1_555
O19 Si6 1.690620 1_555
O20 P3 1.581557 1_555
O21 Si4 1.690620 1_555
O22 Si5 1.687834 1_555
O23 P2 1.581557 1_555
O24 P4 1.528593 1_555
O25 Si8 1.603874 1_555
O26 Si9 1.601439 1_555
O27 Si10 1.603874 1_555
O28 P5 1.528593 1_555
O29 Si11 1.601439 1_555
O30 Si11 1.687834 1_555
O31 Si10 1.690620 1_555
O32 P5 1.581557 1_555
O33 Si8 1.690620 1_555
O34 Si9 1.687834 1_555
O35 P4 1.581557 1_555
O36 Si11 1.626446 1_555
O37 Si10 1.622351 1_555
O38 P5 1.534760 1_555
O39 Si8 1.622351 1_555
O40 Si9 1.626447 1_555
O41 P4 1.534760 1_555
O42 P2 1.568599 1_555
O43 Si4 1.687604 1_555
O44 Si5 1.685398 1_555
O45 Si6 1.687604 1_555
O46 P3 1.568599 1_555
O47 Si7 1.685398 1_555
O48 Si3 1.626446 1_545
O49 Si2 1.622351 1_555
O50 P1 1.534760 1_655
O51 Si0 1.622351 1_555
O52 Si1 1.626447 1_655
O53 P0 1.534760 1_545
O54 P4 1.568611 1_555
O55 Si8 1.687589 1_655
O56 Si9 1.685395 1_545
O57 Si10 1.687589 1_545
O58 P5 1.568611 1_555
O59 Si11 1.685395 1_655
O60 Si7 1.626459 1_555
O61 Si6 1.622338 1_455
O62 P3 1.534756 1_565
O63 Si4 1.622338 1_565
O64 Si5 1.626459 1_555
O65 P2 1.534756 1_455
O66 P0 1.568599 1_555
O67 Si0 1.687604 1_555
O68 Si1 1.685398 1_555
O69 Si2 1.687604 1_555
O70 P1 1.568599 1_555
O71 Si3 1.685398 1_555
