# generated using pymatgen
data_Na3InCl6
_symmetry_space_group_name_H-M   'P 1'
_cell_length_a   6.89244543
_cell_length_b   6.89244431
_cell_length_c   12.39463374
_cell_angle_alpha   90.00000000
_cell_angle_beta   90.00000000
_cell_angle_gamma   120.00000055
_symmetry_Int_Tables_number   1
_chemical_formula_structural   Na3InCl6
_chemical_formula_sum   'Na6 In2 Cl12'
_cell_volume   509.93042985
_cell_formula_units_Z   2
loop_
 _symmetry_equiv_pos_site_id
 _symmetry_equiv_pos_as_xyz
  1  'x, y, z'
loop_
 _atom_site_type_symbol
 _atom_site_label
 _atom_site_symmetry_multiplicity
 _atom_site_fract_x
 _atom_site_fract_y
 _atom_site_fract_z
 _atom_site_occupancy
  Na  Na0  1  0.33333300  0.66666700  0.03944003  1
  Na  Na1  1  0.33333300  0.66666700  0.46055997  1
  Na  Na2  1  0.00000000  -0.00000000  0.75000000  1
  Na  Na3  1  0.00000000  -0.00000000  0.25000000  1
  Na  Na4  1  0.66666700  0.33333300  0.96055997  1
  Na  Na5  1  0.66666700  0.33333300  0.53944003  1
  In  In0  1  0.33333300  0.66666700  0.75000000  1
  In  In1  1  0.66666700  0.33333300  0.25000000  1
  Cl  Cl0  1  0.36302565  0.04611830  0.12830985  1
  Cl  Cl1  1  0.95388170  0.31690835  0.12830985  1
  Cl  Cl2  1  0.68309165  0.63697435  0.12830985  1
  Cl  Cl3  1  0.63697435  0.68309165  0.62830985  1
  Cl  Cl4  1  0.31690835  0.95388170  0.62830985  1
  Cl  Cl5  1  0.63697435  0.95388170  0.87169015  1
  Cl  Cl6  1  0.31690835  0.36302565  0.87169015  1
  Cl  Cl7  1  0.04611830  0.68309165  0.87169015  1
  Cl  Cl8  1  0.36302565  0.31690835  0.37169015  1
  Cl  Cl9  1  0.95388170  0.63697435  0.37169015  1
  Cl  Cl10  1  0.04611830  0.36302565  0.62830985  1
  Cl  Cl11  1  0.68309165  0.04611830  0.37169015  1
loop_
_geom_bond_atom_site_label_1
_geom_bond_atom_site_label_2
_geom_bond_distance
_geom_bond_site_symmetry_2
Cl0 In1 2.535901 1_555
Cl0 Na0 2.749546 1_545
Cl0 Na3 2.800241 1_555
Cl0 Na4 2.911851 1_554
Cl1 In1 2.535895 1_555
Cl1 Na0 2.749546 1_655
Cl1 Na3 2.800247 1_655
Cl1 Na4 2.911846 1_554
Cl2 In1 2.535906 1_555
Cl2 Na0 2.749546 1_555
Cl2 Na3 2.800244 1_665
Cl2 Na4 2.911855 1_554
Cl3 In0 2.535906 1_555
Cl3 Na5 2.749546 1_555
Cl3 Na2 2.800244 1_665
Cl3 Na1 2.911856 1_555
Cl4 In0 2.535895 1_555
Cl4 Na5 2.749546 1_565
Cl4 Na2 2.800247 1_565
Cl4 Na1 2.911846 1_555
Cl5 In0 2.535901 1_555
Cl5 Na4 2.749546 1_565
Cl5 Na2 2.800241 1_665
Cl5 Na0 2.911851 1_556
Cl6 In0 2.535906 1_555
Cl6 Na4 2.749546 1_555
Cl6 Na2 2.800244 1_555
Cl6 Na0 2.911855 1_556
Cl7 In0 2.535895 1_555
Cl7 Na4 2.749546 1_455
Cl7 Na2 2.800247 1_565
Cl7 Na0 2.911846 1_556
Cl8 In1 2.535906 1_555
Cl8 Na1 2.749546 1_555
Cl8 Na3 2.800244 1_555
Cl8 Na5 2.911856 1_555
Cl9 In1 2.535901 1_555
Cl9 Na1 2.749546 1_655
Cl9 Na3 2.800241 1_665
Cl9 Na5 2.911851 1_555
Cl10 In0 2.535901 1_555
Cl10 Na5 2.749546 1_455
Cl10 Na2 2.800241 1_555
Cl10 Na1 2.911851 1_555
Cl11 In1 2.535895 1_555
Cl11 Na1 2.749546 1_545
Cl11 Na3 2.800247 1_655
Cl11 Na5 2.911846 1_555
