# generated using pymatgen
data_KIn2F7
_symmetry_space_group_name_H-M   'P 1'
_cell_length_a   8.35054800
_cell_length_b   6.76613700
_cell_length_c   11.01815294
_cell_angle_alpha   89.97633943
_cell_angle_beta   90.00000000
_cell_angle_gamma   90.00000000
_symmetry_Int_Tables_number   1
_chemical_formula_structural   KIn2F7
_chemical_formula_sum   'K4 In8 F28'
_cell_volume   622.53607500
_cell_formula_units_Z   4
loop_
 _symmetry_equiv_pos_site_id
 _symmetry_equiv_pos_as_xyz
  1  'x, y, z'
loop_
 _atom_site_type_symbol
 _atom_site_label
 _atom_site_symmetry_multiplicity
 _atom_site_fract_x
 _atom_site_fract_y
 _atom_site_fract_z
 _atom_site_occupancy
  K  K0  1  0.75000000  0.75410000  0.25282900  1
  K  K1  1  0.25000000  0.24590000  0.74717100  1
  K  K2  1  0.75000000  0.24829900  0.74876200  1
  K  K3  1  0.25000000  0.75170100  0.25123800  1
  In  In0  1  0.50283100  0.25029900  0.05778300  1
  In  In1  1  0.00283100  0.74970100  0.94221700  1
  In  In2  1  0.49716900  0.74970100  0.94221700  1
  In  In3  1  0.99716900  0.25029900  0.05778300  1
  In  In4  1  0.99713700  0.25022900  0.44151300  1
  In  In5  1  0.49713700  0.74977100  0.55848700  1
  In  In6  1  0.00286300  0.74977100  0.55848700  1
  In  In7  1  0.50286300  0.25022900  0.44151300  1
  F  F0  1  0.52134900  0.93894800  0.10554500  1
  F  F1  1  0.02134900  0.06105200  0.89445500  1
  F  F2  1  0.47865100  0.06105200  0.89445500  1
  F  F3  1  0.97865100  0.93894800  0.10554500  1
  F  F4  1  0.52624200  0.56164600  0.10485200  1
  F  F5  1  0.02624200  0.43835400  0.89514800  1
  F  F6  1  0.47375800  0.43835400  0.89514800  1
  F  F7  1  0.97375800  0.56164600  0.10485200  1
  F  F8  1  0.50787300  0.93892500  0.39314200  1
  F  F9  1  0.00787300  0.06107500  0.60685800  1
  F  F10  1  0.49212700  0.06107500  0.60685800  1
  F  F11  1  0.99212700  0.93892500  0.39314200  1
  F  F12  1  0.75000000  0.24883400  0.01070900  1
  F  F13  1  0.25000000  0.75116600  0.98929100  1
  F  F14  1  0.75000000  0.74821600  0.91396000  1
  F  F15  1  0.25000000  0.25178400  0.08604000  1
  F  F16  1  0.75000000  0.24892000  0.47857700  1
  F  F17  1  0.25000000  0.75108000  0.52142300  1
  F  F18  1  0.75000000  0.74955800  0.56795000  1
  F  F19  1  0.25000000  0.25044200  0.43205000  1
  F  F20  1  0.95817900  0.25030700  0.24975300  1
  F  F21  1  0.45817900  0.74969300  0.75024700  1
  F  F22  1  0.04182100  0.74969300  0.75024700  1
  F  F23  1  0.54182100  0.25030700  0.24975300  1
  F  F24  1  0.99135900  0.56169400  0.39320700  1
  F  F25  1  0.49135900  0.43830600  0.60679300  1
  F  F26  1  0.00864100  0.43830600  0.60679300  1
  F  F27  1  0.50864100  0.56169400  0.39320700  1
loop_
_geom_bond_atom_site_label_1
_geom_bond_atom_site_label_2
_geom_bond_distance
_geom_bond_site_symmetry_2
F0 In0 2.176668 1_565
F0 In2 2.218275 1_554
F0 K0 2.800308 1_555
F0 K3 3.051999 1_555
F1 In1 2.176668 1_545
F1 In3 2.218275 1_456
F1 K1 2.800308 1_555
F1 K2 3.051999 1_455
F2 In2 2.176668 1_545
F2 In0 2.218275 1_556
F2 K1 2.800308 1_555
F2 K2 3.051999 1_555
F3 In3 2.176668 1_565
F3 In1 2.218275 1_654
F3 K0 2.800308 1_555
F3 K3 3.051999 1_655
F4 In0 2.178512 1_555
F4 In2 2.210682 1_554
F4 K0 2.801252 1_555
F4 K3 3.094835 1_555
F5 In1 2.178512 1_555
F5 In3 2.210682 1_456
F5 K1 2.801252 1_555
F5 K2 3.094835 1_455
F6 In2 2.178512 1_555
F6 In0 2.210682 1_556
F6 K1 2.801252 1_555
F6 K2 3.094835 1_555
F7 In3 2.178512 1_555
F7 In1 2.210682 1_654
F7 K0 2.801252 1_555
F7 K3 3.094835 1_655
F8 In7 2.173322 1_565
F8 In5 2.227790 1_555
F8 K0 2.836126 1_555
F8 K3 2.947545 1_555
F9 In6 2.173322 1_545
F9 In4 2.227790 1_455
F9 K1 2.836126 1_555
F9 K2 2.947545 1_455
F10 In5 2.173322 1_545
F10 In7 2.227790 1_555
F10 K1 2.836126 1_555
F10 K2 2.947545 1_555
F11 In4 2.173322 1_565
F11 In6 2.227790 1_655
F11 K0 2.836126 1_555
F11 K3 2.947545 1_655
F12 In0 2.128192 1_555
F12 In3 2.128192 1_555
F12 K2 2.886176 1_554
F13 In1 2.128192 1_555
F13 In2 2.128192 1_555
F13 K3 2.886176 1_556
F14 In2 2.134134 1_555
F14 In1 2.134134 1_655
F15 In3 2.134134 1_455
F15 In0 2.134134 1_555
F16 In7 2.103765 1_555
F16 In4 2.103765 1_555
F16 K2 2.976941 1_555
F17 In6 2.103765 1_555
F17 In5 2.103765 1_555
F17 K3 2.976941 1_555
F18 In5 2.114118 1_555
F18 In6 2.114118 1_655
F19 In7 2.114118 1_555
F19 In4 2.114118 1_455
F20 In4 2.137739 1_555
F20 In3 2.140067 1_555
F21 In5 2.137739 1_555
F21 In2 2.140067 1_555
F22 In6 2.137739 1_555
F22 In1 2.140067 1_555
F23 In7 2.137739 1_555
F23 In0 2.140067 1_555
F24 In4 2.173909 1_555
F24 In6 2.224156 1_655
F24 K0 2.854400 1_555
F24 K3 2.960183 1_655
F25 In5 2.173909 1_555
F25 In7 2.224156 1_555
F25 K1 2.854400 1_555
F25 K2 2.960183 1_555
F26 In6 2.173909 1_555
F26 In4 2.224156 1_455
F26 K1 2.854400 1_555
F26 K2 2.960183 1_455
F27 In7 2.173909 1_555
F27 In5 2.224156 1_555
F27 K0 2.854400 1_555
F27 K3 2.960183 1_555
