# generated using pymatgen
data_InHg
_symmetry_space_group_name_H-M   'P 1'
_cell_length_a   4.91745482
_cell_length_b   4.91745491
_cell_length_c   4.91745541
_cell_angle_alpha   43.59018794
_cell_angle_beta   43.59019068
_cell_angle_gamma   43.59018090
_symmetry_Int_Tables_number   1
_chemical_formula_structural   InHg
_chemical_formula_sum   'In1 Hg1'
_cell_volume   51.30159978
_cell_formula_units_Z   1
loop_
 _symmetry_equiv_pos_site_id
 _symmetry_equiv_pos_as_xyz
  1  'x, y, z'
loop_
 _atom_site_type_symbol
 _atom_site_label
 _atom_site_symmetry_multiplicity
 _atom_site_fract_x
 _atom_site_fract_y
 _atom_site_fract_z
 _atom_site_occupancy
  In  In0  1  0.50000000  0.50000000  0.50000000  1
  Hg  Hg0  1  -0.00000000  0.00000000  -0.00000000  1
loop_
_geom_bond_atom_site_label_1
_geom_bond_atom_site_label_2
_geom_bond_distance
_geom_bond_site_symmetry_2
Hg0 In0 3.062493 1_545
Hg0 In0 3.062493 1_454
Hg0 In0 3.062493 1_554
Hg0 In0 3.062493 1_445
Hg0 In0 3.062493 1_455
Hg0 In0 3.062493 1_544
