# generated using pymatgen
data_Mg(CuO)2
_symmetry_space_group_name_H-M   'P 1'
_cell_length_a   9.27832103
_cell_length_b   5.65854522
_cell_length_c   11.18200639
_cell_angle_alpha   90.10509611
_cell_angle_beta   88.65657948
_cell_angle_gamma   89.99994813
_symmetry_Int_Tables_number   1
_chemical_formula_structural   Mg(CuO)2
_chemical_formula_sum   'Mg8 Cu16 O16'
_cell_volume   586.91309495
_cell_formula_units_Z   8
loop_
 _symmetry_equiv_pos_site_id
 _symmetry_equiv_pos_as_xyz
  1  'x, y, z'
loop_
 _atom_site_type_symbol
 _atom_site_label
 _atom_site_symmetry_multiplicity
 _atom_site_fract_x
 _atom_site_fract_y
 _atom_site_fract_z
 _atom_site_occupancy
  Mg  Mg0_0  1  0.25000000  0.00000000  0.25000000  1
  Mg  Mg0_1  1  0.25000000  0.00000000  0.75000000  1
  Mg  Mg0_2  1  0.25000000  0.50000000  0.25000000  1
  Mg  Mg0_3  1  0.25000000  0.50000000  0.75000000  1
  Mg  Mg0_4  1  0.75000000  1.00000000  0.25000000  1
  Mg  Mg0_5  1  0.75000000  0.00000000  0.75000000  1
  Mg  Mg0_6  1  0.75000000  0.50000000  0.25000000  1
  Mg  Mg0_7  1  0.75000000  0.50000000  0.75000000  1
  Cu  Cu0_0  1  0.00000000  0.25000000  0.25000000  1
  Cu  Cu0_1  1  0.00000000  0.25000000  0.75000000  1
  Cu  Cu0_2  1  0.00000000  0.75000000  0.25000000  1
  Cu  Cu0_3  1  0.00000000  0.75000000  0.75000000  1
  Cu  Cu0_4  1  0.50000000  0.25000000  0.25000000  1
  Cu  Cu0_5  1  0.50000000  0.25000000  0.75000000  1
  Cu  Cu0_6  1  0.50000000  0.75000000  0.25000000  1
  Cu  Cu0_7  1  0.50000000  0.75000000  0.75000000  1
  Cu  Cu1_0  1  0.25000000  0.00000000  0.00000000  1
  Cu  Cu1_1  1  0.25000000  0.00000000  0.50000000  1
  Cu  Cu1_2  1  0.25000000  0.50000000  0.00000000  1
  Cu  Cu1_3  1  0.25000000  0.50000000  0.50000000  1
  Cu  Cu1_4  1  0.75000000  1.00000000  0.00000000  1
  Cu  Cu1_5  1  0.75000000  1.00000000  0.50000000  1
  Cu  Cu1_6  1  0.75000000  0.50000000  0.00000000  1
  Cu  Cu1_7  1  0.75000000  0.50000000  0.50000000  1
  O  O0_0  1  0.25747583  0.24982006  0.12324976  1
  O  O0_1  1  0.25747583  0.24982006  0.62324976  1
  O  O0_2  1  0.25747583  0.74982006  0.12324976  1
  O  O0_3  1  0.25747583  0.74982006  0.62324976  1
  O  O0_4  1  0.75747583  0.24982006  0.12324976  1
  O  O0_5  1  0.75747583  0.24982006  0.62324976  1
  O  O0_6  1  0.75747583  0.74982006  0.12324976  1
  O  O0_7  1  0.75747583  0.74982006  0.62324976  1
  O  O1_0  1  0.24252417  0.25017994  0.37675024  1
  O  O1_1  1  0.24252417  0.25017994  0.87675024  1
  O  O1_2  1  0.24252417  0.75017994  0.37675024  1
  O  O1_3  1  0.24252417  0.75017994  0.87675024  1
  O  O1_4  1  0.74252417  0.25017994  0.37675024  1
  O  O1_5  1  0.74252417  0.25017994  0.87675024  1
  O  O1_6  1  0.74252417  0.75017994  0.37675024  1
  O  O1_7  1  0.74252417  0.75017994  0.87675025  1
loop_
_geom_bond_atom_site_label_1
_geom_bond_atom_site_label_2
_geom_bond_distance
_geom_bond_site_symmetry_2
Mg0_0 O0_2 2.001430 1_545
Mg0_0 O1_0 2.001430 1_555
Mg0_0 O1_2 2.003664 1_545
Mg0_0 O0_0 2.003664 1_555
Mg0_1 O0_3 2.001430 1_545
Mg0_1 O1_1 2.001430 1_555
Mg0_1 O1_3 2.003664 1_545
Mg0_1 O0_1 2.003664 1_555
Mg0_2 O1_2 2.001430 1_555
Mg0_2 O0_0 2.001430 1_555
Mg0_2 O0_2 2.003664 1_555
Mg0_2 O1_0 2.003664 1_555
Mg0_3 O0_1 2.001430 1_555
Mg0_3 O1_3 2.001430 1_555
Mg0_3 O1_1 2.003664 1_555
Mg0_3 O0_3 2.003664 1_555
Mg0_4 O1_4 2.001430 1_565
Mg0_4 O0_6 2.001430 1_555
Mg0_4 O1_6 2.003664 1_555
Mg0_4 O0_4 2.003664 1_565
Mg0_5 O1_5 2.001430 1_555
Mg0_5 O0_7 2.001430 1_545
Mg0_5 O0_5 2.003664 1_555
Mg0_5 O1_7 2.003664 1_545
Mg0_6 O1_6 2.001430 1_555
Mg0_6 O0_4 2.001430 1_555
Mg0_6 O0_6 2.003664 1_555
Mg0_6 O1_4 2.003664 1_555
Mg0_7 O1_7 2.001430 1_555
Mg0_7 O0_5 2.001430 1_555
Mg0_7 O1_5 2.003664 1_555
Mg0_7 O0_7 2.003664 1_555
Cu0_0 O1_0 2.687344 1_555
Cu0_0 O0_4 2.687344 1_455
Cu0_0 Mg0_0 2.716918 1_555
Cu0_0 Mg0_6 2.716918 1_455
Cu0_0 Mg0_4 2.716920 1_445
Cu0_0 Mg0_2 2.716920 1_555
Cu0_0 O1_4 2.749015 1_455
Cu0_0 O0_0 2.749015 1_555
Cu0_0 Cu0_2 2.829273 1_555
Cu0_0 Cu0_2 2.829273 1_545
Cu0_1 O1_1 2.687344 1_555
Cu0_1 O0_5 2.687344 1_455
Cu0_1 Mg0_1 2.716918 1_555
Cu0_1 Mg0_7 2.716918 1_455
Cu0_1 Mg0_3 2.716920 1_555
Cu0_1 Mg0_5 2.716920 1_455
Cu0_1 O1_5 2.749015 1_455
Cu0_1 O0_1 2.749015 1_555
Cu0_1 Cu0_3 2.829273 1_555
Cu0_1 Cu0_3 2.829273 1_545
Cu0_2 O0_6 2.687344 1_455
Cu0_2 O1_2 2.687344 1_555
Cu0_2 Mg0_4 2.716918 1_455
Cu0_2 Mg0_2 2.716918 1_555
Cu0_2 Mg0_0 2.716920 1_565
Cu0_2 Mg0_6 2.716920 1_455
Cu0_2 O0_2 2.749015 1_555
Cu0_2 O1_6 2.749015 1_455
Cu0_3 O1_3 2.687344 1_555
Cu0_3 O0_7 2.687344 1_455
Cu0_3 Mg0_3 2.716918 1_555
Cu0_3 Mg0_5 2.716918 1_465
Cu0_3 Mg0_1 2.716920 1_565
Cu0_3 Mg0_7 2.716920 1_455
Cu0_3 O0_3 2.749015 1_555
Cu0_3 O1_7 2.749015 1_455
Cu0_4 O0_0 2.687344 1_555
Cu0_4 O1_4 2.687344 1_555
Cu0_4 Mg0_2 2.716918 1_555
Cu0_4 Mg0_4 2.716918 1_545
Cu0_4 Mg0_6 2.716920 1_555
Cu0_4 Mg0_0 2.716920 1_555
Cu0_4 O1_0 2.749015 1_555
Cu0_4 O0_4 2.749015 1_555
Cu0_4 Cu0_6 2.829273 1_555
Cu0_4 Cu0_6 2.829273 1_545
Cu0_5 O0_1 2.687344 1_555
Cu0_5 O1_5 2.687344 1_555
Cu0_5 Mg0_5 2.716918 1_555
Cu0_5 Mg0_3 2.716918 1_555
Cu0_5 Mg0_1 2.716920 1_555
Cu0_5 Mg0_7 2.716920 1_555
Cu0_5 O0_5 2.749015 1_555
Cu0_5 O1_1 2.749015 1_555
Cu0_5 Cu0_7 2.829273 1_545
Cu0_5 Cu0_7 2.829273 1_555
Cu0_6 O0_2 2.687344 1_555
Cu0_6 O1_6 2.687344 1_555
Cu0_6 Mg0_6 2.716918 1_555
Cu0_6 Mg0_0 2.716918 1_565
Cu0_6 Mg0_2 2.716920 1_555
Cu0_6 Mg0_4 2.716920 1_555
Cu0_6 O1_2 2.749015 1_555
Cu0_6 O0_6 2.749015 1_555
Cu0_7 O0_3 2.687344 1_555
Cu0_7 O1_7 2.687344 1_555
Cu0_7 Mg0_1 2.716918 1_565
Cu0_7 Mg0_7 2.716918 1_555
Cu0_7 Mg0_3 2.716920 1_555
Cu0_7 Mg0_5 2.716920 1_565
Cu0_7 O1_3 2.749015 1_555
Cu0_7 O0_7 2.749015 1_555
Cu1_0 O1_3 1.974802 1_544
Cu1_0 O0_0 1.974802 1_555
Cu1_0 O0_2 1.979876 1_545
Cu1_0 O1_1 1.979876 1_554
Cu1_1 O1_2 1.974802 1_545
Cu1_1 O0_1 1.974802 1_555
Cu1_1 O0_3 1.979876 1_545
Cu1_1 O1_0 1.979876 1_555
Cu1_2 O1_1 1.974802 1_554
Cu1_2 O0_2 1.974802 1_555
Cu1_2 O1_3 1.979876 1_554
Cu1_2 O0_0 1.979876 1_555
Cu1_3 O1_0 1.974802 1_555
Cu1_3 O0_3 1.974802 1_555
Cu1_3 O1_2 1.979876 1_555
Cu1_3 O0_1 1.979876 1_555
Cu1_4 O1_7 1.974802 1_554
Cu1_4 O0_4 1.974802 1_565
Cu1_4 O1_5 1.979876 1_564
Cu1_4 O0_6 1.979876 1_555
Cu1_5 O1_6 1.974802 1_555
Cu1_5 O0_5 1.974802 1_565
Cu1_5 O1_4 1.979876 1_565
Cu1_5 O0_7 1.979876 1_555
Cu1_6 O0_6 1.974802 1_555
Cu1_6 O1_5 1.974802 1_554
Cu1_6 O1_7 1.979876 1_554
Cu1_6 O0_4 1.979876 1_555
Cu1_7 O0_7 1.974802 1_555
Cu1_7 O1_4 1.974802 1_555
Cu1_7 O1_6 1.979876 1_555
Cu1_7 O0_5 1.979876 1_555
