# generated using pymatgen
data_MgTi2(FeO3)2
_symmetry_space_group_name_H-M   'P 1'
_cell_length_a   5.86914620
_cell_length_b   5.86639543
_cell_length_c   5.85568324
_cell_angle_alpha   52.79896533
_cell_angle_beta   52.63675134
_cell_angle_gamma   52.53048278
_symmetry_Int_Tables_number   1
_chemical_formula_structural   MgTi2(FeO3)2
_chemical_formula_sum   'Mg1 Ti2 Fe2 O6'
_cell_volume   117.99283293
_cell_formula_units_Z   1
loop_
 _symmetry_equiv_pos_site_id
 _symmetry_equiv_pos_as_xyz
  1  'x, y, z'
loop_
 _atom_site_type_symbol
 _atom_site_label
 _atom_site_symmetry_multiplicity
 _atom_site_fract_x
 _atom_site_fract_y
 _atom_site_fract_z
 _atom_site_occupancy
  Mg  Mg0  1  0.63980800  0.64131800  0.64022900  1
  Ti  Ti0  1  0.29455100  0.29286000  0.29776600  1
  Ti  Ti1  1  0.81787300  0.81777900  0.81773800  1
  Fe  Fe0  1  0.00608700  0.00382800  0.01019500  1
  Fe  Fe1  1  0.47222700  0.47263500  0.47379500  1
  O  O0  1  0.57969000  0.21870300  0.89301600  1
  O  O1  1  0.21941500  0.89965200  0.57402000  1
  O  O2  1  0.89843800  0.57843400  0.21880600  1
  O  O3  1  0.43546000  0.68479900  0.05309300  1
  O  O4  1  0.04934900  0.43593600  0.68354400  1
  O  O5  1  0.68396000  0.05091400  0.43465600  1
loop_
_geom_bond_atom_site_label_1
_geom_bond_atom_site_label_2
_geom_bond_distance
_geom_bond_site_symmetry_2
Mg0 O4 2.034805 1_655
Mg0 O5 2.042355 1_565
Mg0 O3 2.050002 1_556
Mg0 O2 2.098315 1_555
Mg0 O1 2.106164 1_555
Mg0 O0 2.110661 1_555
Fe0 O5 2.078412 1_455
Fe0 O3 2.092356 1_545
Fe0 O4 2.116458 1_554
Fe0 O2 2.326883 1_445
Fe0 O0 2.350078 1_454
Fe0 O1 2.353662 1_544
Fe1 O3 2.067672 1_555
Fe1 O5 2.077690 1_555
Fe1 O4 2.084547 1_555
Fe1 O0 2.226470 1_555
Fe1 O1 2.240498 1_555
Fe1 O2 2.259896 1_555
O0 Ti0 2.038164 1_556
O0 Ti1 2.045914 1_545
O1 Ti0 1.997954 1_565
O1 Ti1 2.070653 1_455
O2 Ti0 2.013601 1_655
O2 Ti1 2.064757 1_554
O3 Ti1 2.149727 1_554
O3 Ti0 2.217036 1_555
O4 Ti1 2.147345 1_455
O4 Ti0 2.180812 1_555
O5 Ti1 2.154624 1_545
O5 Ti0 2.186685 1_555
