# generated using pymatgen
data_K4SrU3O12
_symmetry_space_group_name_H-M   'P 1'
_cell_length_a   7.59978688
_cell_length_b   7.59978688
_cell_length_c   7.59978688
_cell_angle_alpha   109.47122063
_cell_angle_beta   109.47122063
_cell_angle_gamma   109.47122063
_symmetry_Int_Tables_number   1
_chemical_formula_structural   K4SrU3O12
_chemical_formula_sum   'K4 Sr1 U3 O12'
_cell_volume   337.89545464
_cell_formula_units_Z   1
loop_
 _symmetry_equiv_pos_site_id
 _symmetry_equiv_pos_as_xyz
  1  'x, y, z'
loop_
 _atom_site_type_symbol
 _atom_site_label
 _atom_site_symmetry_multiplicity
 _atom_site_fract_x
 _atom_site_fract_y
 _atom_site_fract_z
 _atom_site_occupancy
  K  K0  1  0.00000000  0.50000000  0.00000000  1
  K  K1  1  0.50000000  0.50000000  0.50000000  1
  K  K2  1  0.00000000  0.00000000  0.50000000  1
  K  K3  1  0.50000000  0.00000000  0.00000000  1
  Sr  Sr0  1  0.00000000  0.00000000  0.00000000  1
  U  U0  1  0.50000000  0.50000000  0.00000000  1
  U  U1  1  0.50000000  0.00000000  0.50000000  1
  U  U2  1  0.00000000  0.50000000  0.50000000  1
  O  O0  1  0.27826100  0.00000000  0.27826100  1
  O  O1  1  0.00000000  0.27826100  0.27826100  1
  O  O2  1  0.50000000  0.25000000  0.75000000  1
  O  O3  1  0.75000000  0.50000000  0.25000000  1
  O  O4  1  0.25000000  0.75000000  0.50000000  1
  O  O5  1  0.75000000  0.25000000  0.50000000  1
  O  O6  1  0.00000000  0.72173900  0.72173900  1
  O  O7  1  0.25000000  0.50000000  0.75000000  1
  O  O8  1  0.50000000  0.75000000  0.25000000  1
  O  O9  1  0.72173900  0.00000000  0.72173900  1
  O  O10  1  0.72173900  0.72173900  0.00000000  1
  O  O11  1  0.27826100  0.27826100  0.00000000  1
loop_
_geom_bond_atom_site_label_1
_geom_bond_atom_site_label_2
_geom_bond_distance
_geom_bond_site_symmetry_2
K0 O5 3.102600 1_454
K0 O7 3.102600 1_554
K0 O4 3.102600 1_555
K0 O2 3.102600 1_454
K0 O8 3.102600 1_555
K0 O3 3.102600 1_455
K0 O10 3.112496 1_455
K0 O9 3.112496 1_454
K0 O6 3.112496 1_554
K0 O1 3.112496 1_555
K0 O0 3.112496 1_565
K0 O11 3.112496 1_555
K1 O7 3.102600 1_555
K1 O4 3.102600 1_555
K1 O8 3.102600 1_555
K1 O2 3.102600 1_555
K1 O5 3.102600 1_555
K1 O3 3.102600 1_555
K1 O0 3.112496 1_555
K1 O9 3.112496 1_565
K1 O1 3.112496 1_555
K1 O10 3.112496 1_556
K1 O6 3.112496 1_655
K1 O11 3.112496 1_555
K2 O5 3.102600 1_455
K2 O3 3.102600 1_445
K2 O7 3.102600 1_555
K2 O2 3.102600 1_555
K2 O4 3.102600 1_545
K2 O8 3.102600 1_445
K2 O10 3.112496 1_445
K2 O0 3.112496 1_555
K2 O1 3.112496 1_555
K2 O9 3.112496 1_455
K2 O6 3.112496 1_545
K2 O11 3.112496 1_556
K3 O8 3.102600 1_545
K3 O2 3.102600 1_554
K3 O7 3.102600 1_544
K3 O4 3.102600 1_544
K3 O5 3.102600 1_555
K3 O3 3.102600 1_555
K3 O9 3.112496 1_554
K3 O10 3.112496 1_545
K3 O0 3.112496 1_555
K3 O6 3.112496 1_544
K3 O1 3.112496 1_655
K3 O11 3.112496 1_555
O0 U1 1.945866 1_555
O0 Sr0 2.441873 1_555
O1 U2 1.945866 1_555
O1 Sr0 2.441873 1_555
O2 U1 2.193869 1_555
O2 U0 2.193869 1_556
O3 U2 2.193869 1_655
O3 U0 2.193869 1_555
O4 U2 2.193869 1_555
O4 U1 2.193869 1_565
O5 U1 2.193869 1_555
O5 U2 2.193869 1_655
O6 U2 1.945866 1_555
O6 Sr0 2.441873 1_566
O7 U2 2.193869 1_555
O7 U0 2.193869 1_556
O8 U1 2.193869 1_565
O8 U0 2.193869 1_555
O9 U1 1.945866 1_555
O9 Sr0 2.441873 1_656
O10 U0 1.945866 1_555
O10 Sr0 2.441873 1_665
O11 U0 1.945866 1_555
O11 Sr0 2.441873 1_555
