# generated using pymatgen
data_LiCr2(PO4)3
_symmetry_space_group_name_H-M   'P 1'
_cell_length_a   8.54451000
_cell_length_b   8.64256500
_cell_length_c   12.04510400
_cell_angle_alpha   90.00000000
_cell_angle_beta   90.00000000
_cell_angle_gamma   90.00000000
_symmetry_Int_Tables_number   1
_chemical_formula_structural   LiCr2(PO4)3
_chemical_formula_sum   'Li4 Cr8 P12 O48'
_cell_volume   889.48856859
_cell_formula_units_Z   4
loop_
 _symmetry_equiv_pos_site_id
 _symmetry_equiv_pos_as_xyz
  1  'x, y, z'
loop_
 _atom_site_type_symbol
 _atom_site_label
 _atom_site_symmetry_multiplicity
 _atom_site_fract_x
 _atom_site_fract_y
 _atom_site_fract_z
 _atom_site_occupancy
  Li  Li0  1  0.53676000  0.72408900  0.18218800  1
  Li  Li1  1  0.03676000  0.77591100  0.68218800  1
  Li  Li2  1  0.96324000  0.22408900  0.18218800  1
  Li  Li3  1  0.46324000  0.27591100  0.68218800  1
  Cr  Cr0  1  0.00302000  0.03156500  0.38390500  1
  Cr  Cr1  1  0.50302000  0.46843500  0.88390500  1
  Cr  Cr2  1  0.49698000  0.53156500  0.38390500  1
  Cr  Cr3  1  0.00642100  0.54242400  0.11884600  1
  Cr  Cr4  1  0.49357900  0.04242400  0.11884600  1
  Cr  Cr5  1  0.99357900  0.45757600  0.61884600  1
  Cr  Cr6  1  0.50642100  0.95757600  0.61884600  1
  Cr  Cr7  1  0.99698000  0.96843500  0.88390500  1
  P  P0  1  0.64463000  0.10547300  0.85538700  1
  P  P1  1  0.14736200  0.10522800  0.64553900  1
  P  P2  1  0.85537000  0.60547300  0.85538700  1
  P  P3  1  0.64736200  0.39477200  0.14553900  1
  P  P4  1  0.21386500  0.25254000  0.99899900  1
  P  P5  1  0.85263800  0.89477200  0.14553900  1
  P  P6  1  0.35537000  0.89452700  0.35538700  1
  P  P7  1  0.71386500  0.24746000  0.49899900  1
  P  P8  1  0.78613500  0.74746000  0.49899900  1
  P  P9  1  0.14463000  0.39452700  0.35538700  1
  P  P10  1  0.28613500  0.75254000  0.99899900  1
  P  P11  1  0.35263800  0.60522800  0.64553900  1
  O  O0  1  0.40513900  0.56083800  0.52841100  1
  O  O1  1  0.07882700  0.51489300  0.27224400  1
  O  O2  1  0.32905500  0.09592300  0.65848100  1
  O  O3  1  0.89642000  0.84019800  0.41863700  1
  O  O4  1  0.09489300  0.43393500  0.47294800  1
  O  O5  1  0.82462300  0.09302800  0.84100200  1
  O  O6  1  0.09486100  0.06083800  0.52841100  1
  O  O7  1  0.40165300  0.84049700  0.07815600  1
  O  O8  1  0.59486100  0.43916200  0.02841100  1
  O  O9  1  0.19114200  0.86003800  0.92724900  1
  O  O10  1  0.90510700  0.56606500  0.97294800  1
  O  O11  1  0.31219400  0.14481400  0.07461900  1
  O  O12  1  0.41558400  0.73201200  0.32260400  1
  O  O13  1  0.69114200  0.63996200  0.42724900  1
  O  O14  1  0.90381000  0.72663700  0.17474900  1
  O  O15  1  0.59489300  0.06606500  0.97294800  1
  O  O16  1  0.08441600  0.23201200  0.32260400  1
  O  O17  1  0.60358000  0.34019800  0.41863700  1
  O  O18  1  0.81219400  0.35518600  0.57461900  1
  O  O19  1  0.92117300  0.48510700  0.77224400  1
  O  O20  1  0.09619000  0.27336300  0.67474900  1
  O  O21  1  0.09834700  0.34049700  0.07815600  1
  O  O22  1  0.59834700  0.15950300  0.57815600  1
  O  O23  1  0.92760800  0.01346100  0.22643000  1
  O  O24  1  0.58441600  0.26798800  0.82260400  1
  O  O25  1  0.40381000  0.77336300  0.67474900  1
  O  O26  1  0.82905500  0.40407700  0.15848100  1
  O  O27  1  0.17094500  0.59592300  0.65848100  1
  O  O28  1  0.07239200  0.98653900  0.72643000  1
  O  O29  1  0.57882700  0.98510700  0.77224400  1
  O  O30  1  0.90165300  0.65950300  0.57815600  1
  O  O31  1  0.90513900  0.93916200  0.02841100  1
  O  O32  1  0.67094500  0.90407700  0.15848100  1
  O  O33  1  0.59619000  0.22663700  0.17474900  1
  O  O34  1  0.91558400  0.76798800  0.82260400  1
  O  O35  1  0.42117300  0.01489300  0.27224400  1
  O  O36  1  0.68780600  0.85518600  0.57461900  1
  O  O37  1  0.42760800  0.48653900  0.72643000  1
  O  O38  1  0.80885800  0.13996200  0.42724900  1
  O  O39  1  0.40510700  0.93393500  0.47294800  1
  O  O40  1  0.32462300  0.40697200  0.34100200  1
  O  O41  1  0.10358000  0.15980200  0.91863700  1
  O  O42  1  0.17537700  0.90697200  0.34100200  1
  O  O43  1  0.67537700  0.59302800  0.84100200  1
  O  O44  1  0.18780600  0.64481400  0.07461900  1
  O  O45  1  0.30885800  0.36003800  0.92724900  1
  O  O46  1  0.57239200  0.51346100  0.22643000  1
  O  O47  1  0.39642000  0.65980200  0.91863700  1
loop_
_geom_bond_atom_site_label_1
_geom_bond_atom_site_label_2
_geom_bond_distance
_geom_bond_site_symmetry_2
Li0 O46 1.921044 1_555
Li0 O32 1.953424 1_555
Li0 O7 1.978650 1_555
Li0 O12 1.984264 1_555
Li1 O28 1.921044 1_555
Li1 O27 1.953424 1_555
Li1 O30 1.978650 1_455
Li1 O34 1.984264 1_455
Li2 O23 1.921044 1_555
Li2 O26 1.953424 1_555
Li2 O21 1.978650 1_655
Li2 O16 1.984264 1_655
Li3 O37 1.921044 1_555
Li3 O2 1.953424 1_555
Li3 O22 1.978650 1_555
Li3 O24 1.984264 1_555
Cr0 O42 1.896159 1_545
Cr0 O6 1.925998 1_555
Cr0 O3 1.933920 1_445
Cr0 O38 1.975490 1_455
Cr0 O16 2.007494 1_555
Cr0 O23 2.009363 1_455
Cr1 O43 1.896159 1_555
Cr1 O8 1.925998 1_556
Cr1 O47 1.933920 1_555
Cr1 O45 1.975490 1_555
Cr1 O24 2.007494 1_555
Cr1 O37 2.009363 1_555
Cr2 O40 1.896159 1_555
Cr2 O0 1.925998 1_555
Cr2 O17 1.933920 1_555
Cr2 O13 1.975490 1_555
Cr2 O12 2.007494 1_555
Cr2 O46 2.009363 1_555
Cr3 O44 1.862493 1_555
Cr3 O14 1.938251 1_455
Cr3 O1 1.962995 1_555
Cr3 O10 1.969631 1_454
Cr3 O21 1.975544 1_555
Cr3 O26 1.988544 1_455
Cr4 O11 1.862493 1_555
Cr4 O33 1.938251 1_555
Cr4 O35 1.962995 1_555
Cr4 O15 1.969631 1_554
Cr4 O7 1.975544 1_545
Cr4 O32 1.988544 1_545
Cr5 O18 1.862493 1_555
Cr5 O20 1.938251 1_655
Cr5 O19 1.962995 1_555
Cr5 O4 1.969631 1_655
Cr5 O30 1.975544 1_555
Cr5 O27 1.988544 1_655
Cr6 O36 1.862493 1_555
Cr6 O25 1.938251 1_555
Cr6 O29 1.962995 1_555
Cr6 O39 1.969631 1_555
Cr6 O22 1.975544 1_565
Cr6 O2 1.988544 1_565
Cr7 O5 1.896159 1_565
Cr7 O31 1.925998 1_556
Cr7 O41 1.933920 1_665
Cr7 O9 1.975490 1_655
Cr7 O34 2.007494 1_555
Cr7 O28 2.009363 1_655
O0 P11 1.529323 1_555
O1 P9 1.549590 1_555
O2 P1 1.562356 1_555
O3 P8 1.570778 1_555
O4 P9 1.517155 1_555
O5 P0 1.551414 1_555
O6 P1 1.529323 1_555
O7 P10 1.568820 1_554
O8 P3 1.529323 1_555
O9 P10 1.506273 1_555
O10 P2 1.517155 1_555
O11 P4 1.549953 1_554
O12 P6 1.547057 1_555
O13 P8 1.506273 1_555
O14 P5 1.557729 1_555
O15 P0 1.517155 1_555
O16 P9 1.547057 1_555
O17 P7 1.570778 1_555
O18 P7 1.549953 1_555
O19 P2 1.549590 1_555
O20 P1 1.557729 1_555
O21 P4 1.568820 1_554
O22 P7 1.568820 1_555
O23 P5 1.553031 1_545
O24 P0 1.547057 1_555
O25 P11 1.557729 1_555
O26 P3 1.562356 1_555
O27 P11 1.562356 1_555
O28 P1 1.553031 1_565
O29 P0 1.549590 1_565
O30 P8 1.568820 1_555
O31 P5 1.529323 1_555
O32 P5 1.562356 1_555
O33 P3 1.557729 1_555
O34 P2 1.547057 1_555
O35 P6 1.549590 1_545
O36 P8 1.549953 1_555
O37 P11 1.553031 1_555
O38 P7 1.506273 1_555
O39 P6 1.517155 1_555
O40 P9 1.551414 1_555
O41 P4 1.570778 1_555
O42 P6 1.551414 1_555
O43 P2 1.551414 1_555
O44 P10 1.549953 1_554
O45 P4 1.506273 1_555
O46 P3 1.553031 1_555
O47 P10 1.570778 1_555
