# generated using pymatgen
data_K2CuF4
_symmetry_space_group_name_H-M   'P 1'
_cell_length_a   13.34229569
_cell_length_b   13.34229472
_cell_length_c   13.34226488
_cell_angle_alpha   154.82889494
_cell_angle_beta   154.82893578
_cell_angle_gamma   35.89599331
_symmetry_Int_Tables_number   1
_chemical_formula_structural   K2CuF4
_chemical_formula_sum   'K8 Cu4 F16'
_cell_volume   429.12839900
_cell_formula_units_Z   4
loop_
 _symmetry_equiv_pos_site_id
 _symmetry_equiv_pos_as_xyz
  1  'x, y, z'
loop_
 _atom_site_type_symbol
 _atom_site_label
 _atom_site_symmetry_multiplicity
 _atom_site_fract_x
 _atom_site_fract_y
 _atom_site_fract_z
 _atom_site_occupancy
  K  K0  1  0.42903594  0.42903572  0.00000248  1
  K  K1  1  0.57096557  0.57096484  0.99999832  1
  K  K2  1  0.07096396  0.07096460  0.99999743  1
  K  K3  1  0.92903352  0.92903349  0.00000010  1
  K  K4  1  0.32096316  0.82096212  0.49999692  1
  K  K5  1  0.17903473  0.67903460  0.50000373  1
  K  K6  1  0.67903750  0.17903736  0.50000298  1
  K  K7  1  0.82096490  0.32096565  0.49999612  1
  Cu  Cu0  1  0.25000047  0.24999973  0.00000008  1
  Cu  Cu1  1  0.74999977  0.74999944  -0.00000087  1
  Cu  Cu2  1  0.50000016  -0.00000072  0.49999989  1
  Cu  Cu3  1  -0.00000061  0.49999967  0.49999907  1
  F  F0  1  0.51820193  0.98179887  0.00000073  1
  F  F1  1  0.01820290  0.01820231  0.53640494  1
  F  F2  1  0.48179786  0.48179867  0.46359666  1
  F  F3  1  0.98179754  0.51820195  -0.00000055  1
  F  F4  1  0.76821221  0.73178853  0.50000072  1
  F  F5  1  0.26819883  0.76819822  0.03639745  1
  F  F6  1  0.73180204  0.23180273  0.96360418  1
  F  F7  1  0.23178681  0.26821257  0.49999938  1
  F  F8  1  0.32670029  0.32670060  0.00000533  1
  F  F9  1  0.67330123  0.67330073  0.99999480  1
  F  F10  1  0.17329896  0.17329928  0.99999372  1
  F  F11  1  0.82669949  0.82669904  0.00000576  1
  F  F12  1  0.92330297  0.42330255  0.49999431  1
  F  F13  1  0.57669972  0.07670045  0.50000515  1
  F  F14  1  0.07669767  0.57669731  0.50000616  1
  F  F15  1  0.42329947  0.92329965  0.49999400  1
loop_
_geom_bond_atom_site_label_1
_geom_bond_atom_site_label_2
_geom_bond_distance
_geom_bond_site_symmetry_2
Cu0 F1 1.906047 1_554
Cu0 F2 1.906052 1_555
Cu0 F8 1.947050 1_555
Cu0 F10 1.947052 1_554
Cu0 F0 2.205406 1_545
Cu0 F3 2.205417 1_455
Cu1 F3 1.906061 1_555
Cu1 F0 1.906070 1_555
Cu1 F11 1.947016 1_555
Cu1 F9 1.947018 1_554
Cu1 F2 2.205390 1_554
Cu1 F1 2.205404 1_665
Cu2 F5 1.906077 1_545
Cu2 F6 1.906084 1_555
Cu2 F15 1.947038 1_545
Cu2 F13 1.947051 1_555
Cu2 F4 2.205490 1_545
Cu2 F7 2.205506 1_555
Cu3 F7 1.905976 1_555
Cu3 F4 1.905982 1_455
Cu3 F12 1.946966 1_455
Cu3 F14 1.946967 1_555
Cu3 F6 2.205359 1_454
Cu3 F5 2.205373 1_556
F0 K6 2.737478 1_565
F0 K4 2.737483 1_554
F0 K7 2.737523 1_565
F0 K5 2.737529 1_554
F1 K4 2.737491 1_545
F1 K6 2.737493 1_455
F1 K5 2.737543 1_545
F1 K7 2.737544 1_455
F2 K4 2.737487 1_555
F2 K6 2.737491 1_555
F2 K5 2.737539 1_555
F2 K7 2.737543 1_555
F3 K6 2.737475 1_554
F3 K4 2.737479 1_655
F3 K7 2.737534 1_554
F3 K5 2.737537 1_655
F4 K2 2.737505 1_665
F4 K0 2.737507 1_555
F4 K3 2.737515 1_556
F4 K1 2.737515 1_554
F5 K0 2.737506 1_555
F5 K2 2.737520 1_564
F5 K1 2.737525 1_554
F5 K3 2.737529 1_455
F6 K2 2.737508 1_655
F6 K1 2.737512 1_555
F6 K0 2.737513 1_556
F6 K3 2.737536 1_546
F7 K2 2.737507 1_554
F7 K0 2.737508 1_556
F7 K1 2.737520 1_555
F7 K3 2.737530 1_445
F8 K0 2.597925 1_555
F8 K7 2.910849 1_555
F8 K4 2.910857 1_555
F8 K7 2.910906 1_454
F8 K4 2.910915 1_544
F9 K1 2.597943 1_555
F9 K5 2.910851 1_555
F9 K6 2.910859 1_555
F9 K5 2.910901 1_656
F9 K6 2.910910 1_566
F10 K2 2.597922 1_555
F10 K6 2.910853 1_455
F10 K5 2.910854 1_545
F10 K6 2.910910 1_556
F10 K5 2.910911 1_556
F11 K3 2.597932 1_555
F11 K4 2.910855 1_655
F11 K7 2.910855 1_565
F11 K4 2.910904 1_554
F11 K7 2.910906 1_554
F12 K7 2.597965 1_555
F12 K0 2.910852 1_555
F12 K3 2.910860 1_545
F12 K3 2.910897 1_556
F12 K0 2.910899 1_656
F13 K6 2.597966 1_555
F13 K2 2.910857 1_655
F13 K1 2.910859 1_555
F13 K2 2.910902 1_554
F13 K1 2.910908 1_544
F14 K5 2.597965 1_555
F14 K1 2.910853 1_555
F14 K2 2.910857 1_565
F14 K1 2.910897 1_454
F14 K2 2.910903 1_554
F15 K4 2.597965 1_555
F15 K3 2.910859 1_455
F15 K0 2.910860 1_555
F15 K3 2.910897 1_556
F15 K0 2.910908 1_566
