# generated using pymatgen
data_MgV5O12
_symmetry_space_group_name_H-M   'P 1'
_cell_length_a   6.88813041
_cell_length_b   6.88821892
_cell_length_c   5.91588997
_cell_angle_alpha   73.06342417
_cell_angle_beta   106.93667433
_cell_angle_gamma   101.57345474
_symmetry_Int_Tables_number   1
_chemical_formula_structural   MgV5O12
_chemical_formula_sum   'Mg1 V5 O12'
_cell_volume   254.80708004
_cell_formula_units_Z   1
loop_
 _symmetry_equiv_pos_site_id
 _symmetry_equiv_pos_as_xyz
  1  'x, y, z'
loop_
 _atom_site_type_symbol
 _atom_site_label
 _atom_site_symmetry_multiplicity
 _atom_site_fract_x
 _atom_site_fract_y
 _atom_site_fract_z
 _atom_site_occupancy
  Mg  Mg0  1  0.73533300  0.73534000  0.75000100  1
  V  V0  1  0.19240900  0.61196400  0.77134000  1
  V  V1  1  0.38624200  0.79676600  0.28451900  1
  V  V2  1  0.61196200  0.19240800  0.72866000  1
  V  V3  1  0.79676800  0.38624900  0.21548100  1
  V  V4  1  0.92745600  0.92745700  0.25000000  1
  O  O0  1  0.99264900  0.76360400  0.63363700  1
  O  O1  1  0.08744200  0.37673900  0.78961800  1
  O  O2  1  0.22339100  0.96928100  0.20863000  1
  O  O3  1  0.39556500  0.66439300  0.60430400  1
  O  O4  1  0.37674100  0.08745100  0.71038700  1
  O  O5  1  0.32151600  0.63542800  0.07750200  1
  O  O6  1  0.66439700  0.39557800  0.89568400  1
  O  O7  1  0.64077300  0.89712300  0.32774600  1
  O  O8  1  0.63542700  0.32151000  0.42249100  1
  O  O9  1  0.76361200  0.99264400  0.86636700  1
  O  O10  1  0.89711800  0.64077400  0.17226200  1
  O  O11  1  0.96928800  0.22338500  0.29137100  1
loop_
_geom_bond_atom_site_label_1
_geom_bond_atom_site_label_2
_geom_bond_distance
_geom_bond_site_symmetry_2
Mg0 O9 2.036503 1_555
Mg0 O0 2.036573 1_555
Mg0 O6 2.251694 1_555
Mg0 O3 2.251724 1_555
Mg0 O7 2.372251 1_555
Mg0 O10 2.372283 1_556
O0 V0 1.753803 1_655
O0 V4 2.177968 1_555
O1 V0 1.622708 1_555
O2 V1 1.674089 1_555
O2 V4 2.076555 1_455
O3 V1 1.833624 1_555
O3 V0 1.860130 1_555
O4 V2 1.622651 1_555
O5 V1 1.791574 1_555
O5 V0 1.808849 1_554
O6 V3 1.833673 1_556
O6 V2 1.860174 1_555
O7 V1 1.724121 1_555
O7 V4 2.112415 1_555
O8 V3 1.791541 1_555
O8 V2 1.808884 1_555
O9 V2 1.753874 1_565
O9 V4 2.177927 1_556
O10 V3 1.724093 1_555
O10 V4 2.112413 1_555
O11 V3 1.674180 1_555
O11 V4 2.076530 1_545
