# generated using pymatgen
data_Sr2DyCu3(PbO4)2
_symmetry_space_group_name_H-M   'P 1'
_cell_length_a   3.83396500
_cell_length_b   3.83396500
_cell_length_c   16.03081400
_cell_angle_alpha   90.00000000
_cell_angle_beta   90.00000000
_cell_angle_gamma   90.00000000
_symmetry_Int_Tables_number   1
_chemical_formula_structural   Sr2DyCu3(PbO4)2
_chemical_formula_sum   'Sr2 Dy1 Cu3 Pb2 O8'
_cell_volume   235.64154579
_cell_formula_units_Z   1
loop_
 _symmetry_equiv_pos_site_id
 _symmetry_equiv_pos_as_xyz
  1  'x, y, z'
loop_
 _atom_site_type_symbol
 _atom_site_label
 _atom_site_symmetry_multiplicity
 _atom_site_fract_x
 _atom_site_fract_y
 _atom_site_fract_z
 _atom_site_occupancy
  Sr  Sr0  1  0.00000000  0.00000000  0.77961600  1
  Sr  Sr1  1  0.00000000  0.00000000  0.22038400  1
  Dy  Dy0  1  0.00000000  0.00000000  0.00000000  1
  Cu  Cu0  1  0.00000000  0.00000000  0.50000000  1
  Cu  Cu1  1  0.50000000  0.50000000  0.89649500  1
  Cu  Cu2  1  0.50000000  0.50000000  0.10350500  1
  Pb  Pb0  1  0.50000000  0.50000000  0.38688600  1
  Pb  Pb1  1  0.50000000  0.50000000  0.61311400  1
  O  O0  1  0.00000000  0.50000000  0.90918300  1
  O  O1  1  0.50000000  0.00000000  0.09081700  1
  O  O2  1  0.00000000  0.50000000  0.09081700  1
  O  O3  1  0.50000000  0.00000000  0.90918300  1
  O  O4  1  0.00000000  0.00000000  0.38362900  1
  O  O5  1  0.50000000  0.50000000  0.74966000  1
  O  O6  1  0.50000000  0.50000000  0.25034000  1
  O  O7  1  0.00000000  0.00000000  0.61637100  1
loop_
_geom_bond_atom_site_label_1
_geom_bond_atom_site_label_2
_geom_bond_distance
_geom_bond_site_symmetry_2
Dy0 O2 2.407152 1_545
Dy0 O1 2.407152 1_455
Dy0 O1 2.407152 1_555
Dy0 O2 2.407152 1_555
Dy0 O0 2.407152 1_544
Dy0 O0 2.407152 1_554
Dy0 O3 2.407152 1_554
Dy0 O3 2.407152 1_454
Cu0 O4 1.865522 1_555
Cu0 O7 1.865522 1_555
Cu1 O3 1.927743 1_555
Cu1 O0 1.927743 1_555
Cu1 O3 1.927743 1_565
Cu1 O0 1.927743 1_655
Cu1 O5 2.353885 1_555
Cu2 O2 1.927743 1_555
Cu2 O2 1.927743 1_655
Cu2 O1 1.927743 1_555
Cu2 O1 1.927743 1_565
Cu2 O6 2.353885 1_555
O0 Sr0 2.826485 1_555
O0 Sr0 2.826485 1_565
O1 Sr1 2.826485 1_655
O1 Sr1 2.826485 1_555
O2 Sr1 2.826485 1_565
O2 Sr1 2.826485 1_555
O3 Sr0 2.826485 1_555
O3 Sr0 2.826485 1_655
O4 Sr1 2.616950 1_555
O4 Pb0 2.711525 1_555
O4 Pb0 2.711525 1_545
O4 Pb0 2.711525 1_445
O4 Pb0 2.711525 1_455
O5 Pb1 2.188944 1_555
O5 Sr0 2.753226 1_655
O5 Sr0 2.753226 1_555
O5 Sr0 2.753226 1_565
O5 Sr0 2.753226 1_665
O6 Pb0 2.188944 1_555
O6 Sr1 2.753226 1_655
O6 Sr1 2.753226 1_565
O6 Sr1 2.753226 1_665
O6 Sr1 2.753226 1_555
O7 Sr0 2.616950 1_555
O7 Pb1 2.711525 1_445
O7 Pb1 2.711525 1_555
O7 Pb1 2.711525 1_455
O7 Pb1 2.711525 1_545
