# generated using pymatgen
data_InClO
_symmetry_space_group_name_H-M   'P 1'
_cell_length_a   3.54801089
_cell_length_b   4.10001033
_cell_length_c   8.40576789
_cell_angle_alpha   90.00000000
_cell_angle_beta   90.00000000
_cell_angle_gamma   90.00000000
_symmetry_Int_Tables_number   1
_chemical_formula_structural   InClO
_chemical_formula_sum   'In2 Cl2 O2'
_cell_volume   122.27770773
_cell_formula_units_Z   2
loop_
 _symmetry_equiv_pos_site_id
 _symmetry_equiv_pos_as_xyz
  1  'x, y, z'
loop_
 _atom_site_type_symbol
 _atom_site_label
 _atom_site_symmetry_multiplicity
 _atom_site_fract_x
 _atom_site_fract_y
 _atom_site_fract_z
 _atom_site_occupancy
  In  In0  1  0.25000000  0.25000000  0.11848714  1
  In  In1  1  0.75000000  0.75000000  0.88151286  1
  Cl  Cl0  1  0.25000000  0.75000000  0.66711134  1
  Cl  Cl1  1  0.75000000  0.25000000  0.33288866  1
  O  O0  1  0.75000000  0.25000000  0.95546784  1
  O  O1  1  0.25000000  0.75000000  0.04453216  1
loop_
_geom_bond_atom_site_label_1
_geom_bond_atom_site_label_2
_geom_bond_distance
_geom_bond_site_symmetry_2
In0 O1 2.142188 1_555
In0 O1 2.142188 1_545
In0 O0 2.241612 1_554
In0 O0 2.241612 1_454
In1 O0 2.142188 1_555
In1 O0 2.142188 1_565
In1 O1 2.241612 1_556
In1 O1 2.241612 1_656
Cl0 In1 2.528844 1_455
Cl0 In1 2.528844 1_555
Cl1 In0 2.528844 1_555
Cl1 In0 2.528844 1_655
