# generated using pymatgen
data_Sr2MgZrVO6
_symmetry_space_group_name_H-M   'P 1'
_cell_length_a   5.83417108
_cell_length_b   6.49720424
_cell_length_c   5.83418943
_cell_angle_alpha   90.05153600
_cell_angle_beta   120.01519879
_cell_angle_gamma   116.60437392
_symmetry_Int_Tables_number   1
_chemical_formula_structural   Sr2MgZrVO6
_chemical_formula_sum   'Sr2 Mg1 Zr1 V1 O6'
_cell_volume   163.83248660
_cell_formula_units_Z   1
loop_
 _symmetry_equiv_pos_site_id
 _symmetry_equiv_pos_as_xyz
  1  'x, y, z'
loop_
 _atom_site_type_symbol
 _atom_site_label
 _atom_site_symmetry_multiplicity
 _atom_site_fract_x
 _atom_site_fract_y
 _atom_site_fract_z
 _atom_site_occupancy
  Sr  Sr0  1  0.44659907  0.67037188  0.22373682  1
  Sr  Sr1  1  0.38116396  0.07172298  0.69059803  1
  Mg  Mg0  1  0.74057863  0.60991630  0.86944051  1
  Zr  Zr0  1  0.98700404  0.48047677  0.49346779  1
  V  V0  1  0.04622302  0.06921489  0.02299539  1
  O  O0  1  0.01290188  0.76655530  0.25795198  1
  O  O1  1  0.04034962  0.30203273  0.78019251  1
  O  O2  1  0.50857490  0.76647010  0.75367265  1
  O  O3  1  0.52184713  0.30214454  0.26164846  1
  O  O4  1  0.03947477  0.30037904  0.26077412  1
  O  O5  1  0.01337799  0.76785847  0.75456976  1
loop_
_geom_bond_atom_site_label_1
_geom_bond_atom_site_label_2
_geom_bond_distance
_geom_bond_site_symmetry_2
Mg0 O5 1.908086 1_655
Mg0 O0 1.908520 1_656
Mg0 O2 1.908567 1_555
O0 Zr0 2.307898 1_455
O0 Sr1 2.380874 1_565
O0 V0 2.390144 1_565
O0 Sr0 2.958704 1_555
O0 Sr0 2.972690 1_455
O1 Zr0 2.011251 1_455
O1 V0 2.073085 1_556
O1 Sr0 2.610294 1_556
O2 Zr0 2.307789 1_455
O2 Sr1 2.381066 1_565
O2 V0 2.390488 1_666
O2 Sr0 2.958948 1_555
O2 Sr0 2.972291 1_556
O3 Zr0 2.011289 1_555
O3 V0 2.073277 1_555
O3 Sr0 2.609594 1_555
O4 Zr0 2.009897 1_455
O4 V0 2.070174 1_555
O4 Sr0 2.620610 1_555
O5 Zr0 2.309456 1_455
O5 Sr1 2.376867 1_565
O5 V0 2.383504 1_566
O5 Sr0 2.966008 1_556
O5 Sr0 2.966780 1_455
