# generated using pymatgen
data_Ba7Ir6O19
_symmetry_space_group_name_H-M   'P 1'
_cell_length_a   7.96243553
_cell_length_b   7.96243553
_cell_length_c   11.13283590
_cell_angle_alpha   81.32278309
_cell_angle_beta   81.32278309
_cell_angle_gamma   42.63281929
_symmetry_Int_Tables_number   1
_chemical_formula_structural   Ba7Ir6O19
_chemical_formula_sum   'Ba7 Ir6 O19'
_cell_volume   471.74362416
_cell_formula_units_Z   1
loop_
 _symmetry_equiv_pos_site_id
 _symmetry_equiv_pos_as_xyz
  1  'x, y, z'
loop_
 _atom_site_type_symbol
 _atom_site_label
 _atom_site_symmetry_multiplicity
 _atom_site_fract_x
 _atom_site_fract_y
 _atom_site_fract_z
 _atom_site_occupancy
  Ba  Ba0  1  0.50000000  0.50000000  0.50000000  1
  Ba  Ba1  1  0.85550565  0.85550565  0.94562377  1
  Ba  Ba2  1  0.14449435  0.14449435  0.05437623  1
  Ba  Ba3  1  0.57359363  0.57359363  0.83789462  1
  Ba  Ba4  1  0.42640637  0.42640637  0.16210538  1
  Ba  Ba5  1  0.80148018  0.80148018  0.59103962  1
  Ba  Ba6  1  0.19851982  0.19851982  0.40896038  1
  Ir  Ir0  1  0.18204881  0.18204881  0.73330218  1
  Ir  Ir1  1  0.81795119  0.81795119  0.26669782  1
  Ir  Ir2  1  0.34435774  0.34435774  0.78107266  1
  Ir  Ir3  1  0.65564226  0.65564226  0.21892734  1
  Ir  Ir4  1  0.02344886  0.02344886  0.67662096  1
  Ir  Ir5  1  0.97655114  0.97655114  0.32337904  1
  O  O0  1  0.00000000  -0.00000000  0.50000000  1
  O  O1  1  0.70178727  0.70178727  0.38744292  1
  O  O2  1  0.29821273  0.29821273  0.61255708  1
  O  O3  1  0.05582561  0.05582561  0.85014861  1
  O  O4  1  0.94417439  0.94417439  0.14985139  1
  O  O5  1  0.39479267  0.39479267  0.93672907  1
  O  O6  1  0.60520733  0.60520733  0.06327093  1
  O  O7  1  0.82438727  0.31959924  0.29109525  1
  O  O8  1  0.68040076  0.17561273  0.70890475  1
  O  O9  1  0.17561273  0.68040076  0.70890475  1
  O  O10  1  0.31959924  0.82438727  0.29109525  1
  O  O11  1  0.52778169  0.98786226  0.16426115  1
  O  O12  1  0.01213774  0.47221831  0.83573885  1
  O  O13  1  0.63999868  0.10928538  0.36944480  1
  O  O14  1  0.89071462  0.36000132  0.63055520  1
  O  O15  1  0.36000132  0.89071462  0.63055520  1
  O  O16  1  0.10928538  0.63999868  0.36944480  1
  O  O17  1  0.98786226  0.52778169  0.16426115  1
  O  O18  1  0.47221831  0.01213774  0.83573885  1
loop_
_geom_bond_atom_site_label_1
_geom_bond_atom_site_label_2
_geom_bond_distance
_geom_bond_site_symmetry_2
Ba0 O8 2.807116 1_555
Ba0 O10 2.807116 1_555
Ba0 O7 2.807116 1_555
Ba0 O9 2.807116 1_555
Ba0 O0 2.894489 1_655
Ba0 O0 2.894489 1_565
Ba0 O13 2.967553 1_555
Ba0 O15 2.967553 1_555
Ba0 O14 2.967553 1_555
Ba0 O16 2.967553 1_555
Ba0 O1 3.052348 1_555
Ba0 O2 3.052348 1_555
Ba1 O18 2.726107 1_565
Ba1 O12 2.726107 1_655
Ba1 O4 2.805082 1_556
Ba1 O17 2.942050 1_556
Ba1 O11 2.942050 1_556
Ba1 O5 2.951081 1_565
Ba1 O5 2.951081 1_655
Ba1 O3 2.989720 1_665
Ba1 O8 3.039486 1_565
Ba1 O9 3.039486 1_655
Ba2 O17 2.726107 1_455
Ba2 O11 2.726107 1_545
Ba2 O3 2.805082 1_554
Ba2 O12 2.942050 1_554
Ba2 O18 2.942050 1_554
Ba2 O6 2.951081 1_455
Ba2 O6 2.951081 1_545
Ba2 O4 2.989720 1_445
Ba2 O10 3.039486 1_545
Ba2 O7 3.039486 1_455
Ba3 O6 2.626134 1_556
Ba3 O5 2.702137 1_555
Ba3 O15 2.775513 1_555
Ba3 O14 2.775513 1_555
Ba3 O3 2.907665 1_655
Ba3 O3 2.907665 1_565
Ba3 O18 2.945936 1_565
Ba3 O12 2.945936 1_655
Ba3 O9 3.141095 1_555
Ba3 O8 3.141095 1_555
Ba4 O5 2.626134 1_554
Ba4 O6 2.702137 1_555
Ba4 O16 2.775513 1_555
Ba4 O13 2.775513 1_555
Ba4 O4 2.907665 1_545
Ba4 O4 2.907665 1_455
Ba4 O11 2.945936 1_545
Ba4 O17 2.945936 1_455
Ba4 O10 3.141095 1_555
Ba4 O7 3.141095 1_555
Ba5 O8 2.845621 1_565
Ba5 O9 2.845621 1_655
Ba5 O13 2.870868 1_565
Ba5 O16 2.870868 1_655
Ba5 O1 2.900120 1_555
Ba5 O2 2.904142 1_655
Ba5 O2 2.904142 1_565
Ba5 O0 2.955363 1_665
Ba5 O15 3.001321 1_555
Ba5 O14 3.001321 1_555
Ba5 O18 3.140269 1_565
Ba5 O12 3.140269 1_655
Ba6 O10 2.845621 1_545
Ba6 O7 2.845621 1_455
Ba6 O15 2.870868 1_545
Ba6 O14 2.870868 1_455
Ba6 O2 2.900120 1_555
Ba6 O1 2.904142 1_545
Ba6 O1 2.904142 1_455
Ba6 O0 2.955363 1_555
Ba6 O13 3.001321 1_555
Ba6 O16 3.001321 1_555
Ba6 O17 3.140269 1_455
Ba6 O11 3.140269 1_545
Ir0 O2 2.006624 1_555
Ir0 O15 2.042660 1_545
Ir0 O14 2.042660 1_455
Ir0 O18 2.049192 1_555
Ir0 O12 2.049192 1_555
Ir0 O3 2.099933 1_555
Ir1 O1 2.006624 1_555
Ir1 O13 2.042660 1_565
Ir1 O16 2.042660 1_655
Ir1 O11 2.049192 1_555
Ir1 O17 2.049192 1_555
Ir1 O4 2.099933 1_555
Ir2 O5 1.995678 1_555
Ir2 O9 1.999348 1_555
Ir2 O8 1.999348 1_555
Ir2 O12 2.035406 1_555
Ir2 O18 2.035406 1_555
Ir2 O2 2.098623 1_555
Ir3 O6 1.995678 1_555
Ir3 O7 1.999348 1_555
Ir3 O10 1.999348 1_555
Ir3 O17 2.035406 1_555
Ir3 O11 2.035406 1_555
Ir3 O1 2.098623 1_555
Ir4 O9 2.005936 1_545
Ir4 O8 2.005936 1_455
Ir4 O15 2.035364 1_545
Ir4 O14 2.035364 1_455
Ir4 O0 2.051553 1_555
Ir4 O3 2.064780 1_555
Ir5 O10 2.005936 1_655
Ir5 O7 2.005936 1_565
Ir5 O13 2.035364 1_565
Ir5 O16 2.035364 1_655
Ir5 O0 2.051553 1_665
Ir5 O4 2.064780 1_555
