# generated using pymatgen
data_Na10Nb4Si11Sn4SO48
_symmetry_space_group_name_H-M   'P 1'
_cell_length_a   18.04598500
_cell_length_b   9.02424555
_cell_length_c   22.80321667
_cell_angle_alpha   90.17849741
_cell_angle_beta   90.07322082
_cell_angle_gamma   119.99267731
_symmetry_Int_Tables_number   1
_chemical_formula_structural   Na10Nb4Si11Sn4SO48
_chemical_formula_sum   'Na30 Nb12 Si33 Sn12 S3 O144'
_cell_volume   3216.22073734
_cell_formula_units_Z   3
loop_
 _symmetry_equiv_pos_site_id
 _symmetry_equiv_pos_as_xyz
  1  'x, y, z'
loop_
 _atom_site_type_symbol
 _atom_site_label
 _atom_site_symmetry_multiplicity
 _atom_site_fract_x
 _atom_site_fract_y
 _atom_site_fract_z
 _atom_site_occupancy
  Na  Na0  1  0.32039486  0.00000951  0.24979344  1
  Na  Na1  1  0.82034194  0.99986610  0.25020602  1
  Na  Na2  1  0.81894374  0.63649311  0.74967491  1
  Na  Na3  1  0.49820888  0.36292635  0.74894877  1
  Na  Na4  1  0.01644773  0.70131700  0.58415461  1
  Na  Na5  1  0.33298132  0.96867780  0.58463147  1
  Na  Na6  1  0.83312339  0.96516696  0.58329731  1
  Na  Na7  1  0.33262827  0.69810542  0.08485834  1
  Na  Na8  1  0.83281827  0.69852536  0.08525814  1
  Na  Na9  1  0.01673575  0.33341529  0.08506413  1
  Na  Na10  1  0.51492373  0.33147234  0.08509152  1
  Na  Na11  1  0.98459865  0.66542730  0.91508117  1
  Na  Na12  1  0.34880648  0.03256837  0.91602815  1
  Na  Na13  1  0.85140811  0.03367777  0.91606099  1
  Na  Na14  1  0.48340521  0.30190459  0.41508731  1
  Na  Na15  1  0.98355077  0.30188528  0.41474398  1
  Na  Na16  1  0.35002701  0.66725809  0.41482147  1
  Na  Na17  1  0.84961491  0.66777302  0.41487869  1
  Na  Na18  1  0.00526475  0.00515953  0.49951089  1
  Na  Na19  1  0.50535842  0.00079631  0.50019811  1
  Na  Na20  1  0.00610769  0.00621027  0.00033445  1
  Na  Na21  1  0.50420839  0.99860298  0.99992015  1
  Na  Na22  1  0.33151933  0.33799228  0.83326193  1
  Na  Na23  1  0.83244842  0.32897467  0.83213542  1
  Na  Na24  1  0.33431382  0.34009098  0.33126749  1
  Na  Na25  1  0.83423702  0.34008383  0.33101614  1
  Na  Na26  1  0.16444186  0.66034106  0.16855835  1
  Na  Na27  1  0.66401450  0.65995019  0.16919139  1
  Na  Na28  1  0.16751481  0.66679458  0.66978963  1
  Na  Na29  1  0.66381779  0.66697372  0.66502321  1
  Nb  Nb0  1  0.50011810  0.99793924  0.85337921  1
  Nb  Nb1  1  0.50013669  0.99796231  0.64610941  1
  Nb  Nb2  1  0.83503307  0.33174323  0.68812419  1
  Nb  Nb3  1  0.33264448  0.34033834  0.97963500  1
  Nb  Nb4  1  0.83086121  0.33315322  0.98049078  1
  Nb  Nb5  1  0.33119024  0.32954876  0.48083516  1
  Nb  Nb6  1  0.83046133  0.32710283  0.48003100  1
  Nb  Nb7  1  0.16715988  0.67077851  0.01928501  1
  Nb  Nb8  1  0.66564104  0.66990893  0.01990989  1
  Nb  Nb9  1  0.16682637  0.66250746  0.51974841  1
  Nb  Nb10  1  0.66244398  0.66139432  0.52005830  1
  Nb  Nb11  1  0.66589181  0.67148748  0.81263840  1
  Si  Si0  1  0.35305692  0.70373645  0.25014275  1
  Si  Si1  1  0.85311578  0.70424010  0.25005142  1
  Si  Si2  1  0.00116448  0.29570859  0.24985873  1
  Si  Si3  1  0.50118759  0.29583800  0.24985542  1
  Si  Si4  1  0.64481011  0.28625526  0.75012333  1
  Si  Si5  1  0.00400961  0.71081762  0.75004170  1
  Si  Si6  1  0.49723754  0.70861920  0.74952660  1
  Si  Si7  1  0.35132341  0.99530667  0.74970747  1
  Si  Si8  1  0.85621090  0.00315883  0.75022407  1
  Si  Si9  1  0.47989948  0.33516621  0.58390705  1
  Si  Si10  1  0.97954728  0.33248362  0.58382081  1
  Si  Si11  1  0.18742030  0.04610432  0.58455023  1
  Si  Si12  1  0.68699726  0.04395581  0.58402678  1
  Si  Si13  1  0.33323151  0.61973552  0.58437046  1
  Si  Si14  1  0.83094981  0.61958920  0.58376839  1
  Si  Si15  1  0.48032618  0.62900659  0.08352435  1
  Si  Si16  1  0.98083892  0.62901470  0.08311355  1
  Si  Si17  1  0.33118195  0.04568892  0.08405018  1
  Si  Si18  1  0.83122373  0.04435737  0.08476114  1
  Si  Si19  1  0.18763854  0.32815121  0.08437616  1
  Si  Si20  1  0.68702515  0.32796692  0.08474950  1
  Si  Si21  1  0.31022352  0.66392734  0.91506443  1
  Si  Si22  1  0.80997351  0.66315361  0.91617568  1
  Si  Si23  1  0.02378373  0.37626653  0.91566809  1
  Si  Si24  1  0.52204558  0.37759088  0.91641666  1
  Si  Si25  1  0.16684169  0.96154529  0.91636666  1
  Si  Si26  1  0.66463446  0.95694650  0.91679590  1
  Si  Si27  1  0.30910238  0.95621395  0.41516899  1
  Si  Si28  1  0.80848414  0.95378122  0.41585486  1
  Si  Si29  1  0.16621556  0.37042283  0.41637379  1
  Si  Si30  1  0.66595483  0.37151649  0.41672616  1
  Si  Si31  1  0.02363995  0.67175157  0.41611028  1
  Si  Si32  1  0.52307815  0.67169428  0.41534214  1
  Sn  Sn0  1  0.99708646  0.99709896  0.35334318  1
  Sn  Sn1  1  0.49717921  0.99745957  0.35330280  1
  Sn  Sn2  1  0.99937773  0.99957617  0.85362733  1
  Sn  Sn3  1  0.99984876  0.99639322  0.64680408  1
  Sn  Sn4  1  0.99872793  0.00253162  0.14670284  1
  Sn  Sn5  1  0.49797679  0.00215311  0.14670122  1
  Sn  Sn6  1  0.33508594  0.33441034  0.68464266  1
  Sn  Sn7  1  0.33900986  0.34586617  0.18505805  1
  Sn  Sn8  1  0.83895998  0.34606919  0.18539158  1
  Sn  Sn9  1  0.16578361  0.65409183  0.31468896  1
  Sn  Sn10  1  0.66589867  0.65408010  0.31483314  1
  Sn  Sn11  1  0.16782463  0.67489690  0.81444835  1
  S  S0  1  0.14555278  0.00001585  0.25009447  1
  S  S1  1  0.64560048  0.00022343  0.24995313  1
  S  S2  1  0.14629818  0.29260117  0.74998242  1
  O  O0  1  0.10705888  0.02958161  0.30328640  1
  O  O1  1  0.60727703  0.02971070  0.30321604  1
  O  O2  1  0.41172067  0.78729693  0.30939570  1
  O  O3  1  0.91173894  0.78732092  0.30929050  1
  O  O4  1  0.48183863  0.17429778  0.30854542  1
  O  O5  1  0.98181781  0.17432574  0.30857217  1
  O  O6  1  0.10746430  0.18431692  0.80316031  1
  O  O7  1  0.59772962  0.16651055  0.80714534  1
  O  O8  1  0.48608880  0.80591827  0.80691892  1
  O  O9  1  0.97962364  0.78827450  0.80802472  1
  O  O10  1  0.41594403  0.03243316  0.80701537  1
  O  O11  1  0.91245233  0.03664866  0.80973069  1
  O  O12  1  0.40142727  0.97442592  0.69179111  1
  O  O13  1  0.89433768  0.95986900  0.69158542  1
  O  O14  1  0.09225273  0.21415317  0.69657484  1
  O  O15  1  0.58144694  0.19803821  0.69363789  1
  O  O16  1  0.01759364  0.82386082  0.69081862  1
  O  O17  1  0.51463995  0.83349508  0.69291689  1
  O  O18  1  0.39438283  0.82575244  0.19159576  1
  O  O19  1  0.89453387  0.82608076  0.19140773  1
  O  O20  1  0.01768828  0.21218629  0.19062463  1
  O  O21  1  0.51814978  0.21255717  0.19066390  1
  O  O22  1  0.09232102  0.97014686  0.19675610  1
  O  O23  1  0.59246209  0.97067594  0.19664915  1
  O  O24  1  0.44202584  0.37084833  0.64321953  1
  O  O25  1  0.93235832  0.36772414  0.63943824  1
  O  O26  1  0.25001412  0.12246898  0.64084493  1
  O  O27  1  0.75225204  0.13759288  0.63961591  1
  O  O28  1  0.31301046  0.50181494  0.64159367  1
  O  O29  1  0.81843095  0.50277444  0.64168788  1
  O  O30  1  0.44367197  0.50339701  0.13958501  1
  O  O31  1  0.94221276  0.50201046  0.13863583  1
  O  O32  1  0.31402902  0.12255695  0.14377222  1
  O  O33  1  0.81377663  0.12299716  0.14359816  1
  O  O34  1  0.25060618  0.37651414  0.14057835  1
  O  O35  1  0.75093700  0.37673741  0.14022553  1
  O  O36  1  0.23587578  0.30449274  0.02665713  1
  O  O37  1  0.73596054  0.30458185  0.02656295  1
  O  O38  1  0.41661705  0.53431077  0.02711410  1
  O  O39  1  0.91774465  0.53637576  0.02505993  1
  O  O40  1  0.34945867  0.16780260  0.02623803  1
  O  O41  1  0.84840910  0.16692141  0.02644688  1
  O  O42  1  0.23584360  0.16704796  0.52706111  1
  O  O43  1  0.73583530  0.16668812  0.52689114  1
  O  O44  1  0.34797016  0.53261778  0.52511069  1
  O  O45  1  0.84930799  0.53120891  0.52631578  1
  O  O46  1  0.41761662  0.30005012  0.52616040  1
  O  O47  1  0.91807090  0.29899799  0.52597656  1
  O  O48  1  0.26753346  0.70083994  0.97403395  1
  O  O49  1  0.76630587  0.69811910  0.97370106  1
  O  O50  1  0.08155383  0.46754658  0.97501510  1
  O  O51  1  0.58226336  0.46887449  0.97435841  1
  O  O52  1  0.14973396  0.83169444  0.97271852  1
  O  O53  1  0.65281126  0.83433509  0.97324485  1
  O  O54  1  0.26502087  0.83297210  0.47323047  1
  O  O55  1  0.76568515  0.83265001  0.47382921  1
  O  O56  1  0.14959289  0.46687574  0.47310075  1
  O  O57  1  0.64976367  0.46747348  0.47309441  1
  O  O58  1  0.08169067  0.69481745  0.47533587  1
  O  O59  1  0.58347182  0.69599106  0.47339031  1
  O  O60  1  0.06276616  0.62368523  0.36015137  1
  O  O61  1  0.56248574  0.62355164  0.35953629  1
  O  O62  1  0.25252950  0.87698767  0.35620038  1
  O  O63  1  0.75276696  0.87737617  0.35624376  1
  O  O64  1  0.19160773  0.49748341  0.36086829  1
  O  O65  1  0.69211853  0.49727678  0.36067951  1
  O  O66  1  0.06224065  0.50121850  0.85967174  1
  O  O67  1  0.56851008  0.49865647  0.85867334  1
  O  O68  1  0.19049225  0.88371169  0.86028766  1
  O  O69  1  0.68367865  0.86475749  0.86061548  1
  O  O70  1  0.25063994  0.62752780  0.85821599  1
  O  O71  1  0.75124179  0.63728051  0.85798752  1
  O  O72  1  0.00924037  0.83586192  0.41218887  1
  O  O73  1  0.50936146  0.83643354  0.41199569  1
  O  O74  1  0.40458856  0.97464486  0.41348108  1
  O  O75  1  0.90478969  0.97533658  0.41337778  1
  O  O76  1  0.07870636  0.18714921  0.41134309  1
  O  O77  1  0.57893738  0.18740446  0.41126276  1
  O  O78  1  0.00872689  0.18226295  0.91196861  1
  O  O79  1  0.50949354  0.18577456  0.90936952  1
  O  O80  1  0.07873889  0.96940168  0.91141913  1
  O  O81  1  0.58094980  0.97593960  0.90981756  1
  O  O82  1  0.40401480  0.84065131  0.90940773  1
  O  O83  1  0.90471474  0.83478925  0.91236905  1
  O  O84  1  0.48465987  0.15880689  0.58924662  1
  O  O85  1  0.98459371  0.15857963  0.59044150  1
  O  O86  1  0.09121171  0.01836225  0.58785117  1
  O  O87  1  0.59345980  0.02525569  0.59084377  1
  O  O88  1  0.41598787  0.81485106  0.58991440  1
  O  O89  1  0.91786431  0.80949193  0.58745368  1
  O  O90  1  0.48569372  0.81344998  0.08885718  1
  O  O91  1  0.98497166  0.81243486  0.08855514  1
  O  O92  1  0.41718878  0.02509312  0.08660585  1
  O  O93  1  0.91739011  0.02580967  0.08647427  1
  O  O94  1  0.09115441  0.16413097  0.08811031  1
  O  O95  1  0.59117733  0.16402559  0.08794698  1
  O  O96  1  0.34887793  0.17549273  0.74540268  1
  O  O97  1  0.84420403  0.16974099  0.74225959  1
  O  O98  1  0.23142277  0.30647967  0.74480133  1
  O  O99  1  0.74121084  0.31619579  0.74333696  1
  O  O100  1  0.41487580  0.51617664  0.74584245  1
  O  O101  1  0.91350664  0.52409778  0.74213237  1
  O  O102  1  0.34185136  0.51320037  0.24603485  1
  O  O103  1  0.84183482  0.51355111  0.24605236  1
  O  O104  1  0.40917541  0.29501842  0.24550696  1
  O  O105  1  0.90907623  0.29497840  0.24552308  1
  O  O106  1  0.23209679  0.15315288  0.24521614  1
  O  O107  1  0.73225060  0.15331516  0.24511510  1
  O  O108  1  0.32238315  0.49801982  0.92481592  1
  O  O109  1  0.82332058  0.49728661  0.92282586  1
  O  O110  1  0.42621428  0.35194609  0.92363307  1
  O  O111  1  0.92745361  0.35652997  0.92522008  1
  O  O112  1  0.25350081  0.14601337  0.92570218  1
  O  O113  1  0.75384692  0.14070948  0.92391950  1
  O  O114  1  0.32440288  0.15004403  0.42424771  1
  O  O115  1  0.82423065  0.14913451  0.42458824  1
  O  O116  1  0.25344631  0.36035998  0.42553300  1
  O  O117  1  0.75336457  0.36051658  0.42618441  1
  O  O118  1  0.42805213  0.49870295  0.42520825  1
  O  O119  1  0.92796948  0.49844894  0.42572273  1
  O  O120  1  0.17878759  0.50134169  0.07464657  1
  O  O121  1  0.67893906  0.50135984  0.07442036  1
  O  O122  1  0.07319398  0.63918170  0.07435795  1
  O  O123  1  0.57321012  0.63969056  0.07418660  1
  O  O124  1  0.24943759  0.85033010  0.07544704  1
  O  O125  1  0.74964108  0.85016227  0.07550930  1
  O  O126  1  0.17892534  0.85614528  0.57471391  1
  O  O127  1  0.68334269  0.85993090  0.57610483  1
  O  O128  1  0.25073247  0.65044690  0.57455915  1
  O  O129  1  0.74931104  0.64872144  0.57660196  1
  O  O130  1  0.07148027  0.50841700  0.57681846  1
  O  O131  1  0.57425697  0.50370377  0.57504152  1
  O  O132  1  0.15555429  0.84691571  0.25501836  1
  O  O133  1  0.65572576  0.84708404  0.25487819  1
  O  O134  1  0.26139563  0.70466164  0.25448604  1
  O  O135  1  0.76146630  0.70491625  0.25436527  1
  O  O136  1  0.08511959  0.48636098  0.25385897  1
  O  O137  1  0.58534421  0.48640124  0.25390681  1
  O  O138  1  0.15365767  0.46148173  0.75532995  1
  O  O139  1  0.65374935  0.47728779  0.75694735  1
  O  O140  1  0.08573258  0.68338219  0.75453529  1
  O  O141  1  0.58253674  0.68599966  0.75753585  1
  O  O142  1  0.25943386  0.82184960  0.75367389  1
  O  O143  1  0.76176140  0.82687684  0.75771176  1
loop_
_geom_bond_atom_site_label_1
_geom_bond_atom_site_label_2
_geom_bond_distance
_geom_bond_site_symmetry_2
Na0 O104 2.324130 1_555
Na0 O134 2.326752 1_545
Na0 O106 2.581073 1_555
Na0 O132 2.581648 1_545
Na0 O32 2.687765 1_555
Na0 O62 2.699064 1_545
Na0 O18 2.847362 1_545
Na0 O4 2.855216 1_555
Na1 O135 2.323137 1_555
Na1 O105 2.325219 1_565
Na1 O133 2.577589 1_555
Na1 O107 2.580613 1_565
Na1 O63 2.689274 1_555
Na1 O33 2.703000 1_565
Na1 O5 2.851617 1_565
Na1 O19 2.853161 1_555
Na2 O101 2.387585 1_555
Na2 O143 2.412720 1_555
Na2 O99 2.507281 1_555
Na2 O139 2.588299 1_555
Na2 O29 2.736817 1_555
Na2 O71 2.758494 1_555
Na2 O9 2.839429 1_555
Na2 O13 2.860235 1_555
Na3 O96 2.360309 1_555
Na3 O139 2.465423 1_555
Na3 O100 2.501747 1_555
Na3 O141 2.532623 1_555
Na3 O24 2.629280 1_555
Na3 O67 2.790941 1_555
Na3 O15 2.879069 1_555
Na3 O10 2.907778 1_555
Na4 O130 2.402414 1_555
Na4 O89 2.420697 1_455
Na4 O86 2.480359 1_565
Na4 O126 2.550146 1_555
Na4 O16 2.664510 1_555
Na4 O58 2.760920 1_555
Na4 O25 2.901019 1_455
Na4 O45 2.922602 1_455
Na5 O84 2.397903 1_565
Na5 O126 2.446566 1_555
Na5 O128 2.497289 1_555
Na5 O88 2.502968 1_555
Na5 O12 2.725232 1_555
Na5 O26 2.807530 1_565
Na5 O54 2.815677 1_555
Na5 O46 2.918332 1_565
Na6 O127 2.380382 1_555
Na6 O85 2.402462 1_565
Na6 O129 2.478772 1_555
Na6 O89 2.543515 1_555
Na6 O13 2.714163 1_555
Na6 O55 2.767833 1_555
Na6 O27 2.909125 1_565
Na6 O47 2.923455 1_565
Na7 O90 2.417817 1_555
Na7 O120 2.445765 1_555
Na7 O124 2.499955 1_555
Na7 O92 2.556315 1_565
Na7 O18 2.680514 1_555
Na7 O48 2.790844 1_554
Na7 O34 2.821474 1_555
Na7 O38 2.906669 1_555
Na8 O91 2.403879 1_555
Na8 O121 2.448225 1_555
Na8 O125 2.495916 1_555
Na8 O93 2.558503 1_565
Na8 O19 2.668051 1_555
Na8 O49 2.810632 1_554
Na8 O35 2.815060 1_555
Na8 O39 2.934157 1_555
Na9 O122 2.430142 1_555
Na9 O93 2.438439 1_455
Na9 O94 2.488709 1_555
Na9 O120 2.545247 1_555
Na9 O20 2.650746 1_555
Na9 O31 2.766583 1_455
Na9 O50 2.782391 1_554
Na9 O41 2.947101 1_455
Na10 O92 2.425216 1_555
Na10 O123 2.446343 1_555
Na10 O95 2.502090 1_555
Na10 O121 2.576355 1_555
Na10 O21 2.651169 1_555
Na10 O30 2.755194 1_555
Na10 O51 2.812664 1_554
Na10 O40 2.909775 1_555
Na11 O80 2.400108 1_655
Na11 O111 2.453170 1_555
Na11 O109 2.528226 1_555
Na11 O83 2.573135 1_555
Na11 O9 2.704160 1_555
Na11 O39 2.778925 1_556
Na11 O66 2.797178 1_655
Na11 O52 2.892518 1_655
Na12 O82 2.395566 1_545
Na12 O112 2.411360 1_555
Na12 O110 2.501848 1_555
Na12 O79 2.517409 1_555
Na12 O10 2.767030 1_555
Na12 O68 2.779450 1_545
Na12 O40 2.787796 1_556
Na12 O48 2.915874 1_545
Na13 O113 2.400953 1_555
Na13 O83 2.424726 1_545
Na13 O78 2.462115 1_655
Na13 O111 2.532481 1_555
Na13 O11 2.659134 1_555
Na13 O41 2.798457 1_556
Na13 O69 2.906756 1_545
Na13 O49 2.938772 1_545
Na14 O77 2.414149 1_555
Na14 O118 2.444737 1_555
Na14 O114 2.495364 1_555
Na14 O74 2.558472 1_545
Na14 O4 2.679400 1_555
Na14 O46 2.795184 1_555
Na14 O61 2.820032 1_555
Na14 O57 2.913366 1_555
Na15 O76 2.409190 1_655
Na15 O119 2.447836 1_555
Na15 O115 2.501587 1_555
Na15 O75 2.552821 1_545
Na15 O5 2.670964 1_555
Na15 O47 2.794261 1_555
Na15 O60 2.811256 1_655
Na15 O56 2.912583 1_655
Na16 O74 2.436198 1_555
Na16 O116 2.438645 1_555
Na16 O73 2.492960 1_555
Na16 O118 2.548536 1_555
Na16 O2 2.647583 1_555
Na16 O64 2.762991 1_555
Na16 O44 2.788696 1_555
Na16 O54 2.941072 1_555
Na17 O75 2.435952 1_555
Na17 O117 2.441752 1_555
Na17 O72 2.497000 1_655
Na17 O119 2.560652 1_555
Na17 O3 2.651766 1_555
Na17 O65 2.753165 1_555
Na17 O45 2.826455 1_555
Na17 O55 2.925859 1_555
Na18 O86 2.506698 1_555
Na18 O76 2.519347 1_555
Na18 O72 2.528880 1_545
Na18 O75 2.591812 1_445
Na18 O85 2.618372 1_455
Na18 O89 2.621610 1_445
Na19 O73 2.517832 1_545
Na19 O87 2.546934 1_555
Na19 O77 2.550369 1_555
Na19 O84 2.610075 1_555
Na19 O74 2.613745 1_545
Na19 O88 2.631791 1_545
Na20 O94 2.486035 1_555
Na20 O80 2.525298 1_544
Na20 O78 2.555734 1_554
Na20 O91 2.570486 1_445
Na20 O93 2.596495 1_455
Na20 O83 2.627926 1_444
Na21 O95 2.520274 1_566
Na21 O81 2.543429 1_555
Na21 O90 2.545805 1_556
Na21 O92 2.609762 1_566
Na21 O82 2.637498 1_555
Na21 O79 2.643266 1_565
Na22 O100 2.536052 1_555
Na22 O108 2.586778 1_555
Na22 O96 2.589407 1_555
Na22 O98 2.624180 1_555
Na22 O110 2.637616 1_555
Na22 O112 2.649297 1_555
Na23 O97 2.568595 1_555
Na23 O99 2.573819 1_555
Na23 O109 2.615789 1_555
Na23 O113 2.626663 1_555
Na23 O101 2.628211 1_555
Na23 O111 2.658561 1_555
Na24 O102 2.458365 1_555
Na24 O104 2.523116 1_555
Na24 O106 2.637780 1_555
Na24 O118 2.655182 1_555
Na24 O116 2.656341 1_555
Na24 O114 2.680620 1_555
Na25 O103 2.455200 1_555
Na25 O105 2.518267 1_555
Na25 O107 2.633225 1_555
Na25 O119 2.668726 1_555
Na25 O117 2.673589 1_555
Na25 O115 2.695849 1_555
Na26 O136 2.465118 1_555
Na26 O134 2.519374 1_555
Na26 O132 2.645323 1_555
Na26 O122 2.652585 1_555
Na26 O120 2.658090 1_555
Na26 O124 2.683679 1_555
Na27 O137 2.450108 1_555
Na27 O135 2.510492 1_555
Na27 O133 2.631504 1_555
Na27 O123 2.664752 1_555
Na27 O121 2.675560 1_555
Na27 O125 2.697626 1_555
Na28 O142 2.454188 1_555
Na28 O140 2.482202 1_555
Na28 O138 2.619302 1_555
Na28 O130 2.652560 1_555
Na28 O128 2.687102 1_555
Na28 O126 2.708326 1_555
Na29 O131 2.566145 1_555
Na29 O127 2.584170 1_555
Na29 O129 2.594756 1_555
Na29 O141 2.624645 1_555
Na29 O139 2.658847 1_555
Na29 O143 2.663661 1_555
Nb0 O8 1.933528 1_555
Nb0 O7 1.965759 1_565
Nb0 O10 1.998178 1_565
Nb0 O81 2.027268 1_555
Nb0 O82 2.051984 1_555
Nb0 O79 2.057000 1_565
Nb1 O17 1.951438 1_555
Nb1 O15 1.980567 1_565
Nb1 O12 1.982713 1_555
Nb1 O87 2.019338 1_565
Nb1 O88 2.037568 1_555
Nb1 O84 2.069367 1_565
Nb2 O25 1.964621 1_555
Nb2 O27 1.972776 1_555
Nb2 O97 1.985245 1_555
Nb2 O101 2.014927 1_555
Nb2 O29 2.016154 1_555
Nb2 O99 2.059254 1_555
Nb3 O36 1.935477 1_556
Nb3 O38 1.965864 1_556
Nb3 O108 1.973741 1_555
Nb3 O112 2.026233 1_555
Nb3 O40 2.031621 1_556
Nb3 O110 2.079063 1_555
Nb4 O37 1.915193 1_556
Nb4 O41 1.983105 1_556
Nb4 O39 1.990991 1_556
Nb4 O109 2.038304 1_555
Nb4 O113 2.044513 1_555
Nb4 O111 2.076302 1_555
Nb5 O42 1.927113 1_555
Nb5 O44 1.975388 1_555
Nb5 O46 1.996072 1_555
Nb5 O116 2.005887 1_555
Nb5 O114 2.022952 1_555
Nb5 O118 2.084383 1_555
Nb6 O43 1.922566 1_555
Nb6 O117 1.987875 1_555
Nb6 O45 1.995721 1_555
Nb6 O115 1.999201 1_555
Nb6 O47 2.014918 1_555
Nb6 O119 2.078011 1_555
Nb7 O52 1.949482 1_554
Nb7 O50 1.980171 1_554
Nb7 O48 1.983570 1_554
Nb7 O124 2.011731 1_555
Nb7 O122 2.014481 1_555
Nb7 O120 2.075530 1_555
Nb8 O53 1.933997 1_554
Nb8 O51 1.972134 1_554
Nb8 O123 1.985218 1_555
Nb8 O49 2.004829 1_554
Nb8 O125 2.016995 1_555
Nb8 O121 2.071750 1_555
Nb9 O56 1.945118 1_555
Nb9 O58 1.979089 1_555
Nb9 O54 1.980232 1_555
Nb9 O128 2.006857 1_555
Nb9 O130 2.052477 1_555
Nb9 O126 2.067945 1_555
Nb10 O59 1.924574 1_555
Nb10 O57 1.961899 1_555
Nb10 O131 1.970209 1_555
Nb10 O55 2.026646 1_555
Nb10 O127 2.072332 1_555
Nb10 O129 2.075557 1_555
Nb11 O69 1.941490 1_555
Nb11 O67 1.974196 1_555
Nb11 O71 2.002555 1_555
Nb11 O141 2.012913 1_555
Nb11 O143 2.029593 1_555
Nb11 O139 2.081711 1_555
O0 S0 1.486747 1_555
O0 Sn0 2.180274 1_445
O1 S1 1.486066 1_555
O1 Sn1 2.183210 1_545
O2 Si0 1.645253 1_555
O2 Sn1 2.009413 1_555
O3 Si1 1.644116 1_555
O3 Sn0 2.008529 1_555
O4 Si3 1.656340 1_555
O4 Sn1 2.028812 1_545
O5 Si2 1.655985 1_655
O5 Sn0 2.031286 1_545
O6 S2 1.497120 1_555
O6 Sn2 2.162151 1_445
O7 Si4 1.635230 1_555
O8 Si6 1.641448 1_555
O9 Si5 1.653397 1_655
O9 Sn2 2.037540 1_555
O10 Si7 1.668124 1_545
O11 Si8 1.627875 1_555
O11 Sn2 2.024185 1_545
O12 Si7 1.664052 1_555
O13 Si8 1.637620 1_565
O13 Sn3 2.038735 1_555
O14 S2 1.495619 1_555
O14 Sn3 2.153023 1_445
O15 Si4 1.637092 1_555
O16 Si5 1.638279 1_555
O16 Sn3 2.010338 1_455
O17 Si6 1.640491 1_555
O18 Si0 1.655808 1_555
O18 Sn5 2.028977 1_565
O19 Si1 1.657093 1_555
O19 Sn4 2.032693 1_565
O20 Si2 1.643433 1_555
O20 Sn4 2.009942 1_455
O21 Si3 1.644718 1_555
O21 Sn5 2.009692 1_555
O22 S0 1.486908 1_565
O22 Sn4 2.175188 1_465
O23 S1 1.485754 1_565
O23 Sn5 2.183239 1_565
O24 Si9 1.618577 1_555
O24 Sn6 2.024051 1_555
O25 Si10 1.644928 1_555
O26 Si11 1.615935 1_555
O26 Sn6 2.015186 1_555
O27 Si12 1.643851 1_555
O28 Si13 1.609315 1_555
O28 Sn6 2.003620 1_555
O29 Si14 1.636466 1_555
O30 Si15 1.618087 1_555
O30 Sn7 1.998309 1_555
O31 Si16 1.617100 1_555
O31 Sn8 1.995459 1_555
O32 Si17 1.625274 1_555
O32 Sn7 2.056553 1_555
O33 Si18 1.619067 1_555
O33 Sn8 2.058999 1_555
O34 Si19 1.618991 1_555
O34 Sn7 2.022148 1_555
O35 Si20 1.615405 1_555
O35 Sn8 2.024272 1_555
O36 Si19 1.650044 1_555
O37 Si20 1.665068 1_555
O38 Si15 1.647371 1_555
O39 Si16 1.668941 1_555
O40 Si17 1.645557 1_555
O41 Si18 1.659832 1_555
O42 Si11 1.652782 1_555
O43 Si12 1.654371 1_555
O44 Si13 1.648699 1_555
O45 Si14 1.649547 1_555
O46 Si9 1.653846 1_555
O47 Si10 1.649409 1_555
O48 Si21 1.664055 1_555
O49 Si22 1.640101 1_555
O50 Si23 1.651572 1_555
O51 Si24 1.643100 1_555
O52 Si25 1.663846 1_555
O53 Si26 1.643256 1_555
O54 Si27 1.658315 1_555
O55 Si28 1.645190 1_555
O56 Si29 1.666108 1_555
O57 Si30 1.653603 1_555
O58 Si31 1.655694 1_555
O59 Si32 1.656385 1_555
O60 Si31 1.618649 1_555
O60 Sn9 2.025533 1_555
O61 Si32 1.619145 1_555
O61 Sn10 2.022444 1_555
O62 Si27 1.619361 1_555
O62 Sn9 2.056412 1_555
O63 Si28 1.622250 1_555
O63 Sn10 2.058119 1_555
O64 Si29 1.616155 1_555
O64 Sn9 1.997471 1_555
O65 Si30 1.618382 1_555
O65 Sn10 1.999124 1_555
O66 Si23 1.616302 1_555
O66 Sn11 2.044455 1_555
O67 Si24 1.651177 1_555
O68 Si25 1.614404 1_555
O68 Sn11 2.006706 1_555
O69 Si26 1.652805 1_555
O70 Si21 1.607850 1_555
O70 Sn11 2.012425 1_555
O71 Si22 1.638753 1_555
O72 Si31 1.629207 1_555
O72 Sn0 2.072763 1_455
O73 Si32 1.626587 1_555
O73 Sn1 2.069293 1_555
O74 Si27 1.646826 1_555
O74 Sn1 2.093093 1_555
O75 Si28 1.650380 1_555
O75 Sn0 2.089816 1_555
O76 Si29 1.621575 1_555
O76 Sn0 2.077365 1_445
O77 Si30 1.622237 1_555
O77 Sn1 2.077082 1_545
O78 Si23 1.633844 1_555
O78 Sn2 2.055222 1_445
O79 Si24 1.636964 1_555
O80 Si25 1.630285 1_555
O80 Sn2 2.061360 1_455
O81 Si26 1.610484 1_555
O82 Si21 1.651642 1_555
O83 Si22 1.638085 1_555
O83 Sn2 2.098183 1_555
O84 Si9 1.641030 1_555
O85 Si10 1.624278 1_555
O85 Sn3 2.069650 1_545
O86 Si11 1.627437 1_555
O86 Sn3 2.060424 1_445
O87 Si12 1.618007 1_555
O88 Si13 1.647951 1_555
O89 Si14 1.647859 1_555
O89 Sn3 2.085937 1_555
O90 Si15 1.622383 1_555
O90 Sn5 2.072855 1_565
O91 Si16 1.623582 1_555
O91 Sn4 2.078911 1_565
O92 Si17 1.653823 1_555
O92 Sn5 2.084379 1_555
O93 Si18 1.645457 1_555
O93 Sn4 2.095182 1_555
O94 Si19 1.629197 1_555
O94 Sn4 2.068775 1_455
O95 Si20 1.621247 1_555
O95 Sn5 2.078290 1_555
O96 Si7 1.651765 1_545
O96 Sn6 2.099203 1_555
O97 Si8 1.633105 1_555
O98 S2 1.482440 1_555
O98 Sn6 2.232091 1_555
O99 Si4 1.629213 1_555
O100 Si6 1.627960 1_555
O100 Sn6 2.081035 1_555
O101 Si5 1.668877 1_655
O102 Si0 1.630178 1_555
O102 Sn7 2.031168 1_555
O103 Si1 1.630868 1_555
O103 Sn8 2.027023 1_555
O104 Si3 1.659602 1_555
O104 Sn7 2.072262 1_555
O105 Si2 1.661356 1_655
O105 Sn8 2.067976 1_555
O106 S0 1.484883 1_555
O106 Sn7 2.301243 1_555
O107 S1 1.485769 1_555
O107 Sn8 2.293743 1_555
O108 Si21 1.633886 1_555
O109 Si22 1.638067 1_555
O110 Si24 1.634684 1_555
O111 Si23 1.671156 1_655
O112 Si25 1.629822 1_545
O113 Si26 1.642179 1_545
O114 Si27 1.641167 1_545
O115 Si28 1.650790 1_545
O116 Si29 1.634643 1_555
O117 Si30 1.643276 1_555
O118 Si32 1.659842 1_555
O119 Si31 1.666804 1_655
O120 Si19 1.664057 1_555
O121 Si20 1.660021 1_555
O122 Si16 1.635252 1_455
O123 Si15 1.644290 1_555
O124 Si17 1.649137 1_565
O125 Si18 1.643337 1_565
O126 Si11 1.657469 1_565
O127 Si12 1.638128 1_565
O128 Si13 1.659932 1_555
O129 Si14 1.628856 1_555
O130 Si10 1.633218 1_455
O131 Si9 1.633125 1_555
O132 S0 1.484675 1_565
O132 Sn9 2.291004 1_555
O133 S1 1.486340 1_565
O133 Sn10 2.295710 1_555
O134 Si0 1.661387 1_555
O134 Sn9 2.071878 1_555
O135 Si1 1.660005 1_555
O135 Sn10 2.074854 1_555
O136 Si2 1.629850 1_555
O136 Sn9 2.028068 1_555
O137 Si3 1.630901 1_555
O137 Sn10 2.028705 1_555
O138 S2 1.466828 1_555
O138 Sn11 2.254444 1_555
O139 Si4 1.656013 1_555
O140 Si5 1.616035 1_555
O140 Sn11 2.043508 1_555
O141 Si6 1.660767 1_555
O142 Si7 1.616888 1_555
O142 Sn11 2.058562 1_555
O143 Si8 1.660281 1_565
