# generated using pymatgen
data_LiMn2P3O11
_symmetry_space_group_name_H-M   'P 1'
_cell_length_a   7.31179555
_cell_length_b   7.31179555
_cell_length_c   8.61072514
_cell_angle_alpha   72.04201507
_cell_angle_beta   72.04201507
_cell_angle_gamma   71.88387767
_symmetry_Int_Tables_number   1
_chemical_formula_structural   LiMn2P3O11
_chemical_formula_sum   'Li2 Mn4 P6 O22'
_cell_volume   404.56046106
_cell_formula_units_Z   2
loop_
 _symmetry_equiv_pos_site_id
 _symmetry_equiv_pos_as_xyz
  1  'x, y, z'
loop_
 _atom_site_type_symbol
 _atom_site_label
 _atom_site_symmetry_multiplicity
 _atom_site_fract_x
 _atom_site_fract_y
 _atom_site_fract_z
 _atom_site_occupancy
  Li  Li0  1  0.01433500  0.48307900  0.73847600  1
  Li  Li1  1  0.51692100  0.98566500  0.26152400  1
  Mn  Mn0  1  0.12160000  0.63713800  0.29324700  1
  Mn  Mn1  1  0.87974200  0.36346500  0.20577600  1
  Mn  Mn2  1  0.36286200  0.87840000  0.70675300  1
  Mn  Mn3  1  0.63653500  0.12025800  0.79422400  1
  P  P0  1  0.32567300  0.44912700  0.96711200  1
  P  P1  1  0.44946400  0.32372200  0.46789800  1
  P  P2  1  0.67627800  0.55053600  0.53210200  1
  P  P3  1  0.55087300  0.67432700  0.03288800  1
  P  P4  1  0.03657800  0.96342200  0.50000000  1
  P  P5  1  0.96275300  0.03724700  0.00000000  1
  O  O0  1  0.12457300  0.01243700  0.84087000  1
  O  O1  1  0.39871800  0.73521300  0.18494900  1
  O  O2  1  0.39230400  0.23531700  0.94811500  1
  O  O3  1  0.59931000  0.26170700  0.31579600  1
  O  O4  1  0.60682600  0.76682800  0.54677400  1
  O  O5  1  0.26478700  0.60128200  0.81505100  1
  O  O6  1  0.16409500  0.46829600  0.13177500  1
  O  O7  1  0.98756300  0.87542700  0.15913000  1
  O  O8  1  0.24677900  0.95657800  0.51683300  1
  O  O9  1  0.04342200  0.75322100  0.48316700  1
  O  O10  1  0.83763000  0.53157800  0.36757200  1
  O  O11  1  0.73829300  0.40069000  0.68420400  1
  O  O12  1  0.87496700  0.98947600  0.65867800  1
  O  O13  1  0.48766500  0.51233500  0.50000000  1
  O  O14  1  0.53170400  0.83590500  0.86822500  1
  O  O15  1  0.76468300  0.60769600  0.05188500  1
  O  O16  1  0.51483800  0.48516200  0.00000000  1
  O  O17  1  0.75265900  0.04357800  0.98382800  1
  O  O18  1  0.23317200  0.39317400  0.45322600  1
  O  O19  1  0.95642200  0.24734100  0.01617200  1
  O  O20  1  0.01052400  0.12503300  0.34132200  1
  O  O21  1  0.46842200  0.16237000  0.63242800  1
loop_
_geom_bond_atom_site_label_1
_geom_bond_atom_site_label_2
_geom_bond_distance
_geom_bond_site_symmetry_2
Li0 O9 2.464746 1_555
Li0 O19 2.481133 1_456
Li0 O11 2.483233 1_455
Li0 O5 2.572056 1_555
Li0 O18 2.635035 1_555
Li1 O8 2.464746 1_555
Li1 O17 2.481133 1_564
Li1 O3 2.483233 1_565
Li1 O1 2.572056 1_555
Li1 O4 2.635035 1_555
Mn0 O9 1.923356 1_555
Mn0 O7 1.930053 1_455
Mn0 O18 2.004458 1_555
Mn0 O6 2.026653 1_555
Mn0 O1 2.194439 1_555
Mn0 O10 2.277955 1_455
Mn1 O19 1.922252 1_555
Mn1 O20 1.926847 1_655
Mn1 O15 1.986609 1_555
Mn1 O10 2.025540 1_555
Mn1 O3 2.229740 1_555
Mn1 O6 2.278003 1_655
Mn2 O8 1.923356 1_555
Mn2 O0 1.930053 1_565
Mn2 O4 2.004458 1_555
Mn2 O14 2.026653 1_555
Mn2 O5 2.194439 1_555
Mn2 O21 2.277955 1_565
Mn3 O17 1.922252 1_555
Mn3 O12 1.926847 1_545
Mn3 O2 1.986609 1_555
Mn3 O21 2.025540 1_555
Mn3 O11 2.229740 1_555
Mn3 O14 2.278003 1_545
O0 P5 1.526580 1_456
O1 P3 1.517728 1_555
O2 P0 1.530693 1_555
O3 P1 1.514518 1_555
O4 P2 1.535946 1_555
O5 P0 1.517728 1_555
O6 P0 1.553187 1_554
O7 P5 1.526580 1_565
O8 P4 1.571873 1_555
O9 P4 1.571873 1_555
O10 P2 1.551425 1_555
O11 P2 1.514518 1_555
O12 P4 1.524601 1_655
O13 P1 1.605796 1_555
O13 P2 1.605796 1_555
O14 P3 1.553187 1_556
O15 P3 1.530693 1_555
O16 P3 1.605260 1_555
O16 P0 1.605260 1_554
O17 P5 1.570046 1_556
O18 P1 1.535946 1_555
O19 P5 1.570046 1_555
O20 P4 1.524601 1_545
O21 P1 1.551425 1_555
