# generated using pymatgen
data_Nb5Ge4
_symmetry_space_group_name_H-M   'P 1'
_cell_length_a   6.77820900
_cell_length_b   6.84453000
_cell_length_c   13.24457400
_cell_angle_alpha   90.00000000
_cell_angle_beta   90.00000000
_cell_angle_gamma   90.00000000
_symmetry_Int_Tables_number   1
_chemical_formula_structural   Nb5Ge4
_chemical_formula_sum   'Nb20 Ge16'
_cell_volume   614.46419475
_cell_formula_units_Z   4
loop_
 _symmetry_equiv_pos_site_id
 _symmetry_equiv_pos_as_xyz
  1  'x, y, z'
loop_
 _atom_site_type_symbol
 _atom_site_label
 _atom_site_symmetry_multiplicity
 _atom_site_fract_x
 _atom_site_fract_y
 _atom_site_fract_z
 _atom_site_occupancy
  Nb  Nb0  1  0.01953200  0.32476800  0.91382600  1
  Nb  Nb1  1  0.51953200  0.17523200  0.58617400  1
  Nb  Nb2  1  0.48046800  0.82476800  0.08617400  1
  Nb  Nb3  1  0.98046800  0.67523200  0.41382600  1
  Nb  Nb4  1  0.01953200  0.32476800  0.58617400  1
  Nb  Nb5  1  0.51953200  0.17523200  0.91382600  1
  Nb  Nb6  1  0.48046800  0.82476800  0.41382600  1
  Nb  Nb7  1  0.98046800  0.67523200  0.08617400  1
  Nb  Nb8  1  0.84639400  0.83577500  0.87552700  1
  Nb  Nb9  1  0.34639400  0.66422500  0.62447300  1
  Nb  Nb10  1  0.65360600  0.33577500  0.12447300  1
  Nb  Nb11  1  0.15360600  0.16422500  0.37552700  1
  Nb  Nb12  1  0.15360600  0.16422500  0.12447300  1
  Nb  Nb13  1  0.65360600  0.33577500  0.37552700  1
  Nb  Nb14  1  0.34639400  0.66422500  0.87552700  1
  Nb  Nb15  1  0.84639400  0.83577500  0.62447300  1
  Nb  Nb16  1  0.17205700  0.99185200  0.75000000  1
  Nb  Nb17  1  0.67205700  0.50814800  0.75000000  1
  Nb  Nb18  1  0.32794300  0.49185200  0.25000000  1
  Nb  Nb19  1  0.82794300  0.00814800  0.25000000  1
  Ge  Ge0  1  0.68924900  0.53462300  0.95881500  1
  Ge  Ge1  1  0.18924900  0.96537700  0.54118500  1
  Ge  Ge2  1  0.81075100  0.03462300  0.04118500  1
  Ge  Ge3  1  0.31075100  0.46537700  0.45881500  1
  Ge  Ge4  1  0.31075100  0.46537700  0.04118500  1
  Ge  Ge5  1  0.81075100  0.03462300  0.45881500  1
  Ge  Ge6  1  0.18924900  0.96537700  0.95881500  1
  Ge  Ge7  1  0.68924900  0.53462300  0.54118500  1
  Ge  Ge8  1  0.31877800  0.33963600  0.75000000  1
  Ge  Ge9  1  0.81877800  0.16036400  0.75000000  1
  Ge  Ge10  1  0.18122200  0.83963600  0.25000000  1
  Ge  Ge11  1  0.68122200  0.66036400  0.25000000  1
  Ge  Ge12  1  0.04620800  0.60373900  0.75000000  1
  Ge  Ge13  1  0.54620800  0.89626100  0.75000000  1
  Ge  Ge14  1  0.45379200  0.10373900  0.25000000  1
  Ge  Ge15  1  0.95379200  0.39626100  0.25000000  1
loop_
_geom_bond_atom_site_label_1
_geom_bond_atom_site_label_2
_geom_bond_distance
_geom_bond_site_symmetry_2
Ge0 Nb8 2.569077 1_555
Ge0 Nb10 2.593200 1_556
Ge0 Nb14 2.721113 1_555
Ge0 Nb0 2.725816 1_655
Ge0 Nb7 2.769119 1_556
Ge0 Nb17 2.774045 1_555
Ge0 Nb5 2.780169 1_555
Ge0 Nb2 2.965106 1_556
Ge1 Nb9 2.569077 1_555
Ge1 Nb11 2.593200 1_565
Ge1 Nb15 2.721113 1_455
Ge1 Nb1 2.725816 1_565
Ge1 Nb6 2.769119 1_555
Ge1 Nb16 2.774045 1_555
Ge1 Nb4 2.780169 1_565
Ge1 Nb3 2.965106 1_455
Ge2 Nb10 2.569077 1_555
Ge2 Nb8 2.593200 1_544
Ge2 Nb12 2.721113 1_655
Ge2 Nb2 2.725816 1_545
Ge2 Nb5 2.769119 1_554
Ge2 Nb19 2.774045 1_555
Ge2 Nb7 2.780169 1_545
Ge2 Nb0 2.965106 1_654
Ge3 Nb11 2.569077 1_555
Ge3 Nb9 2.593200 1_555
Ge3 Nb13 2.721113 1_555
Ge3 Nb3 2.725816 1_455
Ge3 Nb4 2.769119 1_555
Ge3 Nb18 2.774045 1_555
Ge3 Nb6 2.780169 1_555
Ge3 Nb1 2.965106 1_555
Ge4 Nb12 2.569077 1_555
Ge4 Nb14 2.593200 1_554
Ge4 Nb10 2.721113 1_555
Ge4 Nb7 2.725816 1_455
Ge4 Nb0 2.769119 1_554
Ge4 Nb18 2.774045 1_555
Ge4 Nb2 2.780169 1_555
Ge4 Nb5 2.965106 1_554
Ge5 Nb13 2.569077 1_555
Ge5 Nb15 2.593200 1_545
Ge5 Nb11 2.721113 1_655
Ge5 Nb6 2.725816 1_545
Ge5 Nb1 2.769119 1_555
Ge5 Nb19 2.774045 1_555
Ge5 Nb3 2.780169 1_545
Ge5 Nb4 2.965106 1_655
Ge6 Nb14 2.569077 1_555
Ge6 Nb12 2.593200 1_566
Ge6 Nb8 2.721113 1_455
Ge6 Nb5 2.725816 1_565
Ge6 Nb2 2.769119 1_556
Ge6 Nb16 2.774045 1_555
Ge6 Nb0 2.780169 1_565
Ge6 Nb7 2.965106 1_456
Ge7 Nb15 2.569077 1_555
Ge7 Nb13 2.593200 1_555
Ge7 Nb9 2.721113 1_555
Ge7 Nb4 2.725816 1_655
Ge7 Nb3 2.769119 1_555
Ge7 Nb17 2.774045 1_555
Ge7 Nb1 2.780169 1_555
Ge7 Nb6 2.965106 1_555
Ge8 Nb16 2.579812 1_545
Ge8 Nb17 2.657894 1_555
Ge8 Nb14 2.781166 1_555
Ge8 Nb9 2.781166 1_555
Ge8 Nb5 2.797487 1_555
Ge8 Nb1 2.797487 1_555
Ge8 Nb0 2.971973 1_555
Ge8 Nb4 2.971973 1_555
Ge9 Nb17 2.579812 1_555
Ge9 Nb16 2.657894 1_645
Ge9 Nb8 2.781166 1_545
Ge9 Nb15 2.781166 1_545
Ge9 Nb0 2.797487 1_655
Ge9 Nb4 2.797487 1_655
Ge9 Nb5 2.971973 1_555
Ge9 Nb1 2.971973 1_555
Ge10 Nb18 2.579812 1_555
Ge10 Ge14 2.584769 1_565
Ge10 Nb19 2.657894 1_465
Ge10 Nb11 2.781166 1_565
Ge10 Nb12 2.781166 1_565
Ge10 Nb3 2.797487 1_455
Ge10 Nb7 2.797487 1_455
Ge10 Nb6 2.971973 1_555
Ge10 Nb2 2.971973 1_555
Ge11 Nb19 2.579812 1_565
Ge11 Ge15 2.584769 1_555
Ge11 Nb18 2.657894 1_555
Ge11 Nb10 2.781166 1_555
Ge11 Nb13 2.781166 1_555
Ge11 Nb6 2.797487 1_555
Ge11 Nb2 2.797487 1_555
Ge11 Nb3 2.971973 1_555
Ge11 Nb7 2.971973 1_555
Ge12 Ge8 2.584769 1_555
Ge12 Nb17 2.619112 1_455
Ge12 Nb14 2.659995 1_555
Ge12 Nb9 2.659995 1_555
Ge12 Nb8 2.668470 1_455
Ge12 Nb15 2.668470 1_455
Ge12 Nb16 2.790053 1_555
Ge12 Nb0 2.895972 1_555
Ge12 Nb4 2.895972 1_555
Ge13 Ge9 2.584769 1_565
Ge13 Nb16 2.619112 1_555
Ge13 Nb8 2.659995 1_555
Ge13 Nb15 2.659995 1_555
Ge13 Nb14 2.668470 1_555
Ge13 Nb9 2.668470 1_555
Ge13 Nb17 2.790053 1_555
Ge13 Nb5 2.895972 1_565
Ge13 Nb1 2.895972 1_565
Ge14 Nb19 2.619112 1_555
Ge14 Nb11 2.659995 1_555
Ge14 Nb12 2.659995 1_555
Ge14 Nb13 2.668470 1_555
Ge14 Nb10 2.668470 1_555
Ge14 Nb18 2.790053 1_555
Ge14 Nb6 2.895972 1_545
Ge14 Nb2 2.895972 1_545
Ge15 Nb18 2.619112 1_655
Ge15 Nb13 2.659995 1_555
Ge15 Nb10 2.659995 1_555
Ge15 Nb11 2.668470 1_655
Ge15 Nb12 2.668470 1_655
Ge15 Nb19 2.790053 1_555
Ge15 Nb3 2.895972 1_555
Ge15 Nb7 2.895972 1_555
