# generated using pymatgen
data_CsPbF3
_symmetry_space_group_name_H-M   'P 1'
_cell_length_a   6.66475513
_cell_length_b   6.66475530
_cell_length_c   6.66475609
_cell_angle_alpha   62.28894391
_cell_angle_beta   62.28893761
_cell_angle_gamma   62.28893792
_symmetry_Int_Tables_number   1
_chemical_formula_structural   CsPbF3
_chemical_formula_sum   'Cs2 Pb2 F6'
_cell_volume   220.02777346
_cell_formula_units_Z   2
loop_
 _symmetry_equiv_pos_site_id
 _symmetry_equiv_pos_as_xyz
  1  'x, y, z'
loop_
 _atom_site_type_symbol
 _atom_site_label
 _atom_site_symmetry_multiplicity
 _atom_site_fract_x
 _atom_site_fract_y
 _atom_site_fract_z
 _atom_site_occupancy
  Cs  Cs0  1  0.24195867  0.24195867  0.24195867  1
  Cs  Cs1  1  0.74195867  0.74195867  0.74195867  1
  Pb  Pb0  1  0.99163686  0.99163686  0.99163686  1
  Pb  Pb1  1  0.49163686  0.49163686  0.49163686  1
  F  F0  1  0.28990644  0.78580692  0.17589211  1
  F  F1  1  0.78580692  0.17589211  0.28990644  1
  F  F2  1  0.17589211  0.28990644  0.78580692  1
  F  F3  1  0.67589211  0.28580692  0.78990644  1
  F  F4  1  0.78990644  0.67589211  0.28580692  1
  F  F5  1  0.28580692  0.78990644  0.67589211  1
loop_
_geom_bond_atom_site_label_1
_geom_bond_atom_site_label_2
_geom_bond_distance
_geom_bond_site_symmetry_2
Cs0 F4 3.064329 1_455
Cs0 F3 3.064330 1_554
Cs0 F5 3.064330 1_545
Cs0 F1 3.122341 1_455
Cs0 F0 3.122341 1_545
Cs0 F2 3.122342 1_554
Cs0 F1 3.591086 1_555
Cs0 F0 3.591087 1_555
Cs0 F2 3.591087 1_555
Cs1 F2 3.064330 1_655
Cs1 F0 3.064330 1_556
Cs1 F1 3.064330 1_565
Cs1 F5 3.122341 1_555
Cs1 F3 3.122341 1_555
Cs1 F4 3.122342 1_555
Cs1 F5 3.591086 1_655
Cs1 F3 3.591087 1_565
Cs1 F4 3.591087 1_556
F0 Pb0 2.347134 1_454
F0 Pb1 2.534276 1_555
F1 Pb0 2.347134 1_544
F1 Pb1 2.534276 1_555
F2 Pb0 2.347134 1_445
F2 Pb1 2.534276 1_555
F3 Pb1 2.347134 1_555
F3 Pb0 2.534276 1_545
F4 Pb1 2.347134 1_555
F4 Pb0 2.534276 1_554
F5 Pb1 2.347134 1_555
F5 Pb0 2.534276 1_455
