# generated using pymatgen
data_MgTi3Nb3O12
_symmetry_space_group_name_H-M   'P 1'
_cell_length_a   7.45604757
_cell_length_b   5.66501638
_cell_length_c   5.88672261
_cell_angle_alpha   77.15691962
_cell_angle_beta   69.04015658
_cell_angle_gamma   71.43555881
_symmetry_Int_Tables_number   1
_chemical_formula_structural   MgTi3Nb3O12
_chemical_formula_sum   'Mg1 Ti3 Nb3 O12'
_cell_volume   218.45613863
_cell_formula_units_Z   1
loop_
 _symmetry_equiv_pos_site_id
 _symmetry_equiv_pos_as_xyz
  1  'x, y, z'
loop_
 _atom_site_type_symbol
 _atom_site_label
 _atom_site_symmetry_multiplicity
 _atom_site_fract_x
 _atom_site_fract_y
 _atom_site_fract_z
 _atom_site_occupancy
  Mg  Mg0  1  0.85771800  0.65193800  0.15893300  1
  Ti  Ti0  1  0.64987700  0.29522200  0.34531400  1
  Ti  Ti1  1  0.19746200  0.32431100  0.31080400  1
  Ti  Ti2  1  0.00337700  0.07545000  0.93959100  1
  Nb  Nb0  1  0.81389300  0.67871700  0.68004500  1
  Nb  Nb1  1  0.34998700  0.66937900  0.66579900  1
  Nb  Nb2  1  0.50531300  0.97494800  0.98366100  1
  O  O0  1  0.66939200  0.05104300  0.61418600  1
  O  O1  1  0.35071000  0.38012500  0.96614800  1
  O  O2  1  0.65969500  0.56180100  0.51153600  1
  O  O3  1  0.96438200  0.26485500  0.19188900  1
  O  O4  1  0.27628900  0.92444400  0.91259500  1
  O  O5  1  0.72348000  0.04560200  0.11115400  1
  O  O6  1  0.02397500  0.75368200  0.80381100  1
  O  O7  1  0.36303800  0.41646000  0.45324900  1
  O  O8  1  0.33336800  0.95769300  0.38055300  1
  O  O9  1  0.65509000  0.59004000  0.04878400  1
  O  O10  1  0.99543700  0.29964600  0.67353900  1
  O  O11  1  0.02716100  0.66797800  0.33174500  1
loop_
_geom_bond_atom_site_label_1
_geom_bond_atom_site_label_2
_geom_bond_distance
_geom_bond_site_symmetry_2
Mg0 O11 1.916492 1_655
Mg0 O9 1.991279 1_555
Mg0 O3 2.071100 1_555
Mg0 O6 2.074701 1_654
Mg0 O5 2.134378 1_565
Mg0 O2 2.136691 1_555
Nb0 O0 2.061135 1_565
Nb0 O2 2.082638 1_555
Nb0 O11 2.097017 1_655
Nb0 O9 2.102691 1_556
Nb0 O6 2.131269 1_655
Nb0 O10 2.143320 1_555
Nb1 O7 2.061315 1_555
Nb1 O8 2.074455 1_555
Nb1 O4 2.087354 1_555
Nb1 O2 2.092404 1_555
Nb1 O1 2.127066 1_555
Nb1 O6 2.194810 1_555
Nb2 O4 2.012012 1_555
Nb2 O0 2.104385 1_565
Nb2 O9 2.129052 1_556
Nb2 O5 2.188847 1_566
Nb2 O1 2.214280 1_565
Nb2 O8 2.224234 1_556
O0 Ti0 1.871651 1_555
O1 Ti1 1.951482 1_556
O2 Ti0 2.005499 1_555
O3 Ti2 1.908546 1_654
O3 Ti0 2.154338 1_555
O3 Ti1 2.229684 1_655
O4 Ti2 1.902196 1_565
O5 Ti0 2.008024 1_555
O5 Ti2 2.011149 1_654
O6 Ti2 2.089685 1_565
O7 Ti0 1.932854 1_555
O7 Ti1 1.960948 1_555
O8 Ti1 2.021732 1_565
O9 Ti0 2.129485 1_555
O10 Ti2 1.789873 1_655
O10 Ti1 2.132679 1_655
O11 Ti1 1.959204 1_555
