# generated using pymatgen
data_Sr3(SnIr)4
_symmetry_space_group_name_H-M   'P 1'
_cell_length_a   7.03756032
_cell_length_b   7.03756052
_cell_length_c   7.03755946
_cell_angle_alpha   109.47121171
_cell_angle_beta   109.47121234
_cell_angle_gamma   109.47123258
_symmetry_Int_Tables_number   1
_chemical_formula_structural   Sr3(SnIr)4
_chemical_formula_sum   'Sr3 Sn4 Ir4'
_cell_volume   268.31471277
_cell_formula_units_Z   1
loop_
 _symmetry_equiv_pos_site_id
 _symmetry_equiv_pos_as_xyz
  1  'x, y, z'
loop_
 _atom_site_type_symbol
 _atom_site_label
 _atom_site_symmetry_multiplicity
 _atom_site_fract_x
 _atom_site_fract_y
 _atom_site_fract_z
 _atom_site_occupancy
  Sr  Sr0  1  -0.00000000  0.50000000  0.50000000  1
  Sr  Sr1  1  0.50000000  -0.00000000  0.50000000  1
  Sr  Sr2  1  0.50000000  0.50000000  -0.00000000  1
  Sn  Sn0  1  0.00000000  0.38466000  -0.00000000  1
  Sn  Sn1  1  0.38466000  0.00000000  -0.00000000  1
  Sn  Sn2  1  -0.00000000  -0.00000000  0.38466000  1
  Sn  Sn3  1  0.61534000  0.61534000  0.61534000  1
  Ir  Ir0  1  -0.00000000  -0.00000000  0.74982077  1
  Ir  Ir1  1  0.74982077  0.00000000  -0.00000000  1
  Ir  Ir2  1  0.25017923  0.25017923  0.25017923  1
  Ir  Ir3  1  0.00000000  0.74982077  -0.00000000  1
loop_
_geom_bond_atom_site_label_1
_geom_bond_atom_site_label_2
_geom_bond_distance
_geom_bond_site_symmetry_2
Sr0 Sr1 4.063137 1_455
Sr0 Sr1 4.063137 1_565
Sr0 Sr2 4.063138 1_455
Sr0 Sr2 4.063138 1_556
Sr1 Sr2 4.063138 1_545
Sr1 Sr2 4.063138 1_556
Sn0 Sr0 3.337144 1_555
Sn0 Sr2 3.337144 1_555
Sn0 Sr1 3.337145 1_454
Sn0 Sr0 3.865856 1_554
Sn0 Sr2 3.865857 1_455
Sn0 Sr1 3.865857 1_565
Sn1 Sr1 3.337144 1_555
Sn1 Sr2 3.337144 1_555
Sn1 Sr0 3.337145 1_544
Sn1 Sr1 3.865856 1_554
Sn1 Sr0 3.865857 1_655
Sn1 Sr2 3.865857 1_545
Sn2 Sr2 3.337144 1_445
Sn2 Sr1 3.337145 1_555
Sn2 Sr0 3.337145 1_555
Sn2 Sr1 3.865857 1_455
Sn2 Sr0 3.865857 1_545
Sn2 Sr2 3.865857 1_556
Sn3 Sr2 3.337144 1_556
Sn3 Sr0 3.337144 1_655
Sn3 Sr1 3.337144 1_565
Sn3 Sr2 3.865856 1_555
Sn3 Sr0 3.865857 1_555
Sn3 Sr1 3.865857 1_555
Ir0 Sn2 2.569841 1_555
Ir0 Sn3 2.692701 1_445
Ir0 Sn1 2.692702 1_556
Ir0 Sn0 2.692702 1_556
Ir0 Ir1 2.875131 1_456
Ir0 Ir3 2.875131 1_546
Ir0 Ir2 2.875132 1_556
Ir0 Sr2 3.368756 1_556
Ir0 Sr1 3.368756 1_455
Ir0 Sr0 3.368756 1_545
Ir1 Sn1 2.569841 1_555
Ir1 Sn0 2.692701 1_655
Ir1 Sn2 2.692702 1_655
Ir1 Sn3 2.692702 1_544
Ir1 Ir2 2.875132 1_655
Ir1 Ir3 2.875132 1_645
Ir1 Sr2 3.368756 1_545
Ir1 Sr1 3.368756 1_554
Ir1 Sr0 3.368756 1_655
Ir2 Sn3 2.569841 1_555
Ir2 Sn2 2.692701 1_555
Ir2 Sn0 2.692702 1_555
Ir2 Sn1 2.692702 1_555
Ir2 Ir3 2.875132 1_545
Ir2 Sr2 3.368756 1_555
Ir2 Sr1 3.368756 1_555
Ir2 Sr0 3.368756 1_555
Ir3 Sn0 2.569841 1_555
Ir3 Sn1 2.692701 1_565
Ir3 Sn2 2.692702 1_565
Ir3 Sn3 2.692702 1_454
Ir3 Sr2 3.368756 1_455
Ir3 Sr0 3.368756 1_554
Ir3 Sr1 3.368756 1_565
