# generated using pymatgen
data_NaY2Zr2P3(SO8)3
_symmetry_space_group_name_H-M   'P 1'
_cell_length_a   9.08495395
_cell_length_b   9.09066683
_cell_length_c   23.72060782
_cell_angle_alpha   90.22663616
_cell_angle_beta   90.01083410
_cell_angle_gamma   120.07721351
_symmetry_Int_Tables_number   1
_chemical_formula_structural   NaY2Zr2P3(SO8)3
_chemical_formula_sum   'Na3 Y6 Zr6 P9 S9 O72'
_cell_volume   1695.24206498
_cell_formula_units_Z   3
loop_
 _symmetry_equiv_pos_site_id
 _symmetry_equiv_pos_as_xyz
  1  'x, y, z'
loop_
 _atom_site_type_symbol
 _atom_site_label
 _atom_site_symmetry_multiplicity
 _atom_site_fract_x
 _atom_site_fract_y
 _atom_site_fract_z
 _atom_site_occupancy
  Na  Na0  1  0.67715280  0.33485943  0.83389580  1
  Na  Na1  1  0.66333384  0.33948682  0.33111798  1
  Na  Na2  1  0.34332440  0.67375071  0.16877415  1
  Y  Y0  1  0.67206949  0.33317467  0.68762917  1
  Y  Y1  1  0.65320779  0.32779027  0.18602417  1
  Y  Y2  1  0.66583371  0.32424375  0.98461867  1
  Y  Y3  1  0.66493451  0.33649972  0.48000319  1
  Y  Y4  1  0.33520035  0.66623592  0.31194808  1
  Y  Y5  1  0.32628266  0.66725804  0.80882414  1
  Zr  Zr0  1  0.00932275  0.99209165  0.35500318  1
  Zr  Zr1  1  0.99177152  0.00101869  0.85593441  1
  Zr  Zr2  1  0.99341405  0.99009337  0.64879532  1
  Zr  Zr3  1  0.99708181  0.99822008  0.14536663  1
  Zr  Zr4  1  0.33221359  0.65632743  0.02037911  1
  Zr  Zr5  1  0.32329225  0.65848634  0.51548871  1
  P  P0  1  0.28488774  0.99892208  0.24917809  1
  P  P1  1  0.71708231  0.71580551  0.24998657  1
  P  P2  1  0.99692184  0.71625498  0.75150059  1
  P  P3  1  0.71561969  0.00064989  0.75062548  1
  P  P4  1  0.66483937  0.03397886  0.08388830  1
  P  P5  1  0.36849692  0.33104282  0.08336149  1
  P  P6  1  0.04328546  0.37675600  0.91545969  1
  P  P7  1  0.32923070  0.37298878  0.41532891  1
  P  P8  1  0.04287387  0.66628635  0.41565635  1
  S  S0  1  0.99816796  0.28345362  0.25033182  1
  S  S1  1  0.28440824  0.28213848  0.75033362  1
  S  S2  1  0.96394530  0.33204512  0.58327235  1
  S  S3  1  0.36947270  0.03543295  0.58341741  1
  S  S4  1  0.66385694  0.62930474  0.58347614  1
  S  S5  1  0.96448231  0.62988095  0.08363375  1
  S  S6  1  0.62396735  0.66632934  0.91596076  1
  S  S7  1  0.33010829  0.95639389  0.91615386  1
  S  S8  1  0.62707388  0.95644351  0.41689873  1
  O  O0  1  0.19579797  0.01996551  0.30288525  1
  O  O1  1  0.82583822  0.80994569  0.30329386  1
  O  O2  1  0.97954132  0.18215824  0.30128727  1
  O  O3  1  0.20262387  0.17737254  0.80096274  1
  O  O4  1  0.97766189  0.80979373  0.80318917  1
  O  O5  1  0.83081678  0.02539250  0.80277977  1
  O  O6  1  0.80976539  0.98482503  0.69747809  1
  O  O7  1  0.18088070  0.19895853  0.69873750  1
  O  O8  1  0.01639922  0.82534777  0.69762464  1
  O  O9  1  0.80752736  0.82531522  0.19730717  1
  O  O10  1  0.01916068  0.20167532  0.19887905  1
  O  O11  1  0.17503102  0.98249670  0.19718478  1
  O  O12  1  0.88884908  0.36491373  0.63329049  1
  O  O13  1  0.47638446  0.11346653  0.63360426  1
  O  O14  1  0.63552766  0.52420783  0.63352050  1
  O  O15  1  0.89183690  0.52429726  0.13368426  1
  O  O16  1  0.63159886  0.11186344  0.13595964  1
  O  O17  1  0.48148981  0.37244317  0.13535406  1
  O  O18  1  0.44684647  0.30506822  0.03026356  1
  O  O19  1  0.86160196  0.55602681  0.03276192  1
  O  O20  1  0.69727943  0.14185718  0.03118831  1
  O  O21  1  0.44549814  0.14225662  0.53369416  1
  O  O22  1  0.69795654  0.55542567  0.53373615  1
  O  O23  1  0.85762246  0.30158541  0.53344370  1
  O  O24  1  0.54427804  0.69353676  0.96710215  1
  O  O25  1  0.15678069  0.46558403  0.96865808  1
  O  O26  1  0.30755998  0.85190662  0.96691559  1
  O  O27  1  0.54122856  0.84945438  0.46795122  1
  O  O28  1  0.30926698  0.46659984  0.46927986  1
  O  O29  1  0.15700049  0.69188454  0.46952679  1
  O  O30  1  0.12512728  0.64015506  0.36431059  1
  O  O31  1  0.52106509  0.88152456  0.36672217  1
  O  O32  1  0.36123432  0.48547032  0.36469273  1
  O  O33  1  0.12842963  0.48436351  0.86368282  1
  O  O34  1  0.35884271  0.87936200  0.86584774  1
  O  O35  1  0.52116396  0.64290670  0.86559702  1
  O  O36  1  0.02764153  0.82764507  0.40925225  1
  O  O37  1  0.79505534  0.97289385  0.40959899  1
  O  O38  1  0.16707597  0.19850823  0.40769127  1
  O  O39  1  0.02872657  0.19916686  0.90625968  1
  O  O40  1  0.17638643  0.97240666  0.90754729  1
  O  O41  1  0.79494076  0.82235392  0.90886506  1
  O  O42  1  0.98619065  0.18341803  0.59418459  1
  O  O43  1  0.19882206  0.01669136  0.59412245  1
  O  O44  1  0.81711760  0.80101045  0.59353866  1
  O  O45  1  0.98515405  0.80048473  0.09243610  1
  O  O46  1  0.82068896  0.01220480  0.09521203  1
  O  O47  1  0.19076166  0.17779976  0.09533303  1
  O  O48  1  0.69980080  0.16072203  0.74510490  1
  O  O49  1  0.45430510  0.29942349  0.74442825  1
  O  O50  1  0.83643886  0.54054271  0.74503565  1
  O  O51  1  0.70308269  0.54057295  0.24643197  1
  O  O52  1  0.84722707  0.30293067  0.24521316  1
  O  O53  1  0.46184324  0.15927923  0.24745766  1
  O  O54  1  0.64765203  0.51956359  0.92333991  1
  O  O55  1  0.86476230  0.35195956  0.92280889  1
  O  O56  1  0.47925183  0.12864923  0.92241420  1
  O  O57  1  0.64626758  0.12661639  0.42523415  1
  O  O58  1  0.48332836  0.34963940  0.42509373  1
  O  O59  1  0.86596123  0.51215665  0.42510561  1
  O  O60  1  0.34707443  0.49218693  0.07331312  1
  O  O61  1  0.13860925  0.65185285  0.07440117  1
  O  O62  1  0.50506686  0.85333916  0.07185640  1
  O  O63  1  0.35022563  0.86504550  0.57272706  1
  O  O64  1  0.51558542  0.65223728  0.57272597  1
  O  O65  1  0.13510905  0.48510718  0.57323196  1
  O  O66  1  0.30043448  0.83927075  0.25351747  1
  O  O67  1  0.53994465  0.69813189  0.25335563  1
  O  O68  1  0.15208202  0.45400633  0.25381578  1
  O  O69  1  0.30215439  0.44996731  0.75572145  1
  O  O70  1  0.15442896  0.70051771  0.75539969  1
  O  O71  1  0.54479886  0.84197881  0.75689419  1
loop_
_geom_bond_atom_site_label_1
_geom_bond_atom_site_label_2
_geom_bond_distance
_geom_bond_site_symmetry_2
Na0 O55 2.666062 1_555
Na0 O48 2.698988 1_555
Na0 O50 2.711711 1_555
Na0 O56 2.794589 1_555
Na0 O54 2.795663 1_555
Na0 O49 2.836497 1_555
Na1 O51 2.622016 1_555
Na1 O53 2.634355 1_555
Na1 O52 2.757942 1_555
Na1 O58 2.793395 1_555
Na1 O59 2.810257 1_555
Na1 O57 2.913139 1_555
Na2 O67 2.619841 1_555
Na2 O66 2.649662 1_555
Na2 O68 2.762750 1_555
Na2 O62 2.781385 1_555
Na2 O60 2.807086 1_555
Na2 O61 2.851956 1_555
O0 P0 1.571093 1_545
O0 Zr0 2.008880 1_545
O1 P1 1.565554 1_555
O1 Zr0 2.059493 1_655
O2 S0 1.479939 1_555
O2 Zr0 2.273322 1_645
O3 S1 1.483745 1_555
O3 Zr1 2.208902 1_455
O4 P2 1.548524 1_555
O4 Zr1 2.088801 1_565
O5 P3 1.561325 1_555
O5 Zr1 2.025674 1_555
O6 P3 1.569678 1_565
O6 Zr2 2.010121 1_555
O7 S1 1.494554 1_555
O7 Zr2 2.156232 1_445
O8 P2 1.575518 1_455
O8 Zr2 1.988774 1_455
O9 P1 1.554995 1_555
O9 Zr3 2.063295 1_555
O10 S0 1.487840 1_455
O10 Zr3 2.163738 1_445
O11 P0 1.545364 1_555
O11 Zr3 2.092154 1_455
O12 S2 1.471142 1_555
O12 Y0 2.248918 1_555
O13 S3 1.471762 1_555
O13 Y0 2.282938 1_555
O14 S4 1.466567 1_555
O14 Y0 2.317055 1_555
O15 S5 1.463119 1_555
O15 Y1 2.359931 1_555
O16 P4 1.525011 1_555
O16 Y1 2.212942 1_555
O17 P5 1.524808 1_555
O17 Y1 2.163573 1_555
O18 P5 1.521595 1_555
O18 Y2 2.194411 1_554
O19 S5 1.464474 1_555
O19 Y2 2.265175 1_554
O20 P4 1.526902 1_555
O20 Y2 2.130738 1_554
O21 S3 1.465708 1_555
O21 Y3 2.281375 1_555
O22 S4 1.463394 1_555
O22 Y3 2.248714 1_555
O23 S2 1.461383 1_555
O23 Y3 2.308977 1_555
O24 S6 1.494782 1_555
O24 Zr4 2.185035 1_556
O25 P6 1.569874 1_555
O25 Zr4 2.065050 1_556
O26 S7 1.485987 1_555
O26 Zr4 2.288325 1_556
O27 S8 1.506680 1_555
O27 Zr5 2.185534 1_555
O28 P7 1.594054 1_555
O28 Zr5 2.005632 1_555
O29 P8 1.586619 1_555
O29 Zr5 2.006225 1_555
O30 P8 1.508056 1_555
O30 Y4 2.188840 1_555
O31 S8 1.464138 1_555
O31 Y4 2.244172 1_555
O32 P7 1.511507 1_555
O32 Y4 2.174252 1_555
O33 P6 1.521548 1_555
O33 Y5 2.170508 1_555
O34 S7 1.469426 1_555
O34 Y5 2.245544 1_555
O35 S6 1.463923 1_555
O35 Y5 2.321961 1_555
O36 P8 1.548909 1_555
O36 Zr0 2.045221 1_555
O37 S8 1.467273 1_555
O37 Zr0 2.271368 1_655
O38 P7 1.540915 1_555
O38 Zr0 2.102925 1_545
O39 P6 1.566713 1_555
O39 Zr1 2.039385 1_455
O40 S7 1.489003 1_555
O40 Zr1 2.195132 1_465
O41 S6 1.498836 1_555
O41 Zr1 2.125527 1_565
O42 S2 1.486543 1_555
O42 Zr2 2.214628 1_545
O43 S3 1.494268 1_555
O43 Zr2 2.184922 1_445
O44 S4 1.500203 1_555
O44 Zr2 2.111812 1_555
O45 S5 1.479745 1_555
O45 Zr3 2.146196 1_555
O46 P4 1.548307 1_555
O46 Zr3 2.050438 1_545
O47 P5 1.541833 1_555
O47 Zr3 2.075240 1_445
O48 P3 1.538316 1_555
O48 Y0 2.189201 1_555
O49 S1 1.477794 1_555
O49 Y0 2.284561 1_555
O50 P2 1.537652 1_555
O50 Y0 2.189788 1_555
O51 P1 1.535164 1_555
O51 Y1 2.258210 1_555
O52 S0 1.473094 1_555
O52 Y1 2.351614 1_555
O53 P0 1.537104 1_545
O53 Y1 2.200429 1_555
O54 S6 1.465132 1_555
O54 Y2 2.367945 1_555
O55 P6 1.531551 1_655
O55 Y2 2.242056 1_555
O56 S7 1.476971 1_545
O56 Y2 2.273620 1_555
O57 S8 1.479813 1_545
O57 Y3 2.238957 1_555
O58 P7 1.535168 1_555
O58 Y3 2.151931 1_555
O59 P8 1.530379 1_655
O59 Y3 2.162239 1_555
O60 P5 1.590333 1_555
O60 Zr4 2.009480 1_555
O61 S5 1.508026 1_455
O61 Zr4 2.160316 1_555
O62 P4 1.578595 1_565
O62 Zr4 2.080281 1_555
O63 S3 1.489792 1_565
O63 Zr5 2.224511 1_555
O64 S4 1.484846 1_555
O64 Zr5 2.235552 1_555
O65 S2 1.498298 1_455
O65 Zr5 2.144809 1_555
O66 P0 1.530871 1_555
O66 Y4 2.238344 1_555
O67 P1 1.537204 1_555
O67 Y4 2.222445 1_555
O68 S0 1.480486 1_455
O68 Y4 2.269864 1_555
O69 S1 1.456680 1_555
O69 Y5 2.254506 1_555
O70 P2 1.510586 1_455
O70 Y5 2.147187 1_555
O71 P3 1.506372 1_565
O71 Y5 2.199337 1_555
