# generated using pymatgen
data_BaLaMgMn2O6
_symmetry_space_group_name_H-M   'P 1'
_cell_length_a   5.51958605
_cell_length_b   3.85172850
_cell_length_c   8.02245034
_cell_angle_alpha   90.00000000
_cell_angle_beta   90.00000000
_cell_angle_gamma   90.00000000
_symmetry_Int_Tables_number   1
_chemical_formula_structural   BaLaMgMn2O6
_chemical_formula_sum   'Ba1 La1 Mg1 Mn2 O6'
_cell_volume   170.55686821
_cell_formula_units_Z   1
loop_
 _symmetry_equiv_pos_site_id
 _symmetry_equiv_pos_as_xyz
  1  'x, y, z'
loop_
 _atom_site_type_symbol
 _atom_site_label
 _atom_site_symmetry_multiplicity
 _atom_site_fract_x
 _atom_site_fract_y
 _atom_site_fract_z
 _atom_site_occupancy
  Ba  Ba0  1  0.00000000  0.00000000  0.00000000  1
  La  La0  1  0.00000000  0.00000000  0.50000000  1
  Mg  Mg0  1  0.50000000  0.00000000  0.00000000  1
  Mn  Mn0  1  0.50000100  0.50000100  0.73062406  1
  Mn  Mn1  1  0.50000100  0.50000100  0.26937594  1
  O  O0  1  0.00000000  0.50000100  0.71009694  1
  O  O1  1  0.50000100  0.00000000  0.76382055  1
  O  O2  1  0.00000000  0.50000100  0.28990406  1
  O  O3  1  0.50000100  0.00000000  0.23618045  1
  O  O4  1  0.50000100  0.50000100  0.00000000  1
  O  O5  1  0.50000100  0.50000100  0.50000000  1
loop_
_geom_bond_atom_site_label_1
_geom_bond_atom_site_label_2
_geom_bond_distance
_geom_bond_site_symmetry_2
Ba0 Mg0 2.759793 1_455
Ba0 Mg0 2.759793 1_555
Ba0 O0 3.019598 1_544
Ba0 O0 3.019603 1_554
Ba0 O2 3.019604 1_545
Ba0 O2 3.019609 1_555
La0 O2 2.559257 1_545
La0 O0 2.559262 1_545
La0 O2 2.559263 1_555
La0 O0 2.559268 1_555
Mg0 O1 1.894738 1_554
Mg0 O3 1.894746 1_555
Mg0 O4 1.925860 1_545
Mg0 O4 1.925868 1_555
Mn0 O5 1.850170 1_555
Mn0 O1 1.944187 1_565
Mn0 O1 1.944195 1_555
Mn0 O4 2.161055 1_556
Mn0 O0 2.764696 1_655
Mn0 O0 2.764707 1_555
Mn1 O5 1.850170 1_555
Mn1 O3 1.944186 1_565
Mn1 O3 1.944194 1_555
Mn1 O4 2.161055 1_555
Mn1 O2 2.764697 1_655
Mn1 O2 2.764708 1_555
