# generated using pymatgen
data_Na14Hf3Mg5(PO4)12
_symmetry_space_group_name_H-M   'P 1'
_cell_length_a   18.03094189
_cell_length_b   9.01495512
_cell_length_c   22.26876826
_cell_angle_alpha   90.12823064
_cell_angle_beta   89.89680468
_cell_angle_gamma   120.07275818
_symmetry_Int_Tables_number   1
_chemical_formula_structural   Na14Hf3Mg5(PO4)12
_chemical_formula_sum   'Na42 Hf9 Mg15 P36 O144'
_cell_volume   3132.48293789
_cell_formula_units_Z   3
loop_
 _symmetry_equiv_pos_site_id
 _symmetry_equiv_pos_as_xyz
  1  'x, y, z'
loop_
 _atom_site_type_symbol
 _atom_site_label
 _atom_site_symmetry_multiplicity
 _atom_site_fract_x
 _atom_site_fract_y
 _atom_site_fract_z
 _atom_site_occupancy
  Na  Na0  1  0.18459853  0.35968746  0.24649250  1
  Na  Na1  1  0.68519383  0.36080744  0.24708525  1
  Na  Na2  1  0.99391517  0.62950702  0.24756573  1
  Na  Na3  1  0.49417422  0.62886351  0.24632680  1
  Na  Na4  1  0.31961791  0.62920449  0.74644125  1
  Na  Na5  1  0.82020029  0.63108227  0.74680352  1
  Na  Na6  1  0.18507302  0.01255078  0.74650937  1
  Na  Na7  1  0.68542736  0.01144009  0.74590792  1
  Na  Na8  1  0.15589348  0.34378482  0.57776085  1
  Na  Na9  1  0.65616669  0.34427057  0.57762945  1
  Na  Na10  1  0.01529161  0.68687324  0.57822096  1
  Na  Na11  1  0.51530388  0.68656975  0.57812355  1
  Na  Na12  1  0.32761142  0.96824810  0.57765209  1
  Na  Na13  1  0.82782505  0.96797454  0.57811444  1
  Na  Na14  1  0.15644333  0.97101697  0.07824710  1
  Na  Na15  1  0.65344862  0.96343723  0.08088835  1
  Na  Na16  1  0.32777847  0.68640781  0.07809860  1
  Na  Na17  1  0.01908551  0.34529863  0.08055799  1
  Na  Na18  1  0.51557873  0.34541321  0.07749742  1
  Na  Na19  1  0.48100623  0.66538893  0.91871118  1
  Na  Na20  1  0.98815346  0.67941980  0.91355055  1
  Na  Na21  1  0.35125437  0.03626868  0.91836156  1
  Na  Na22  1  0.16737205  0.29427962  0.91868291  1
  Na  Na23  1  0.66180671  0.30051898  0.91386938  1
  Na  Na24  1  0.48212698  0.29772719  0.41836017  1
  Na  Na25  1  0.98209851  0.29753164  0.41826014  1
  Na  Na26  1  0.16662110  0.03642683  0.41850414  1
  Na  Na27  1  0.66675370  0.03644966  0.41860250  1
  Na  Na28  1  0.35141419  0.66571498  0.41858540  1
  Na  Na29  1  0.85156883  0.66599180  0.41829745  1
  Na  Na30  1  0.99989810  0.00028178  0.49396601  1
  Na  Na31  1  0.49993355  0.00037071  0.49384092  1
  Na  Na32  1  0.98838594  0.99163724  0.99346604  1
  Na  Na33  1  0.49869142  0.99898872  0.99428351  1
  Na  Na34  1  0.33962621  0.33380950  0.83167805  1
  Na  Na35  1  0.84136934  0.32473166  0.82683560  1
  Na  Na36  1  0.33281795  0.32009214  0.33173978  1
  Na  Na37  1  0.83321393  0.32062703  0.33203885  1
  Na  Na38  1  0.17250520  0.67852216  0.16234839  1
  Na  Na39  1  0.67832654  0.67842201  0.16006215  1
  Na  Na40  1  0.16070129  0.65607490  0.66159601  1
  Na  Na41  1  0.66124115  0.65677517  0.66178079  1
  Hf  Hf0  1  0.99964524  0.00292160  0.64963665  1
  Hf  Hf1  1  0.50004060  0.00286571  0.64968516  1
  Hf  Hf2  1  0.99570084  0.99493463  0.14831263  1
  Hf  Hf3  1  0.49881779  0.00018313  0.14947250  1
  Hf  Hf4  1  0.83349001  0.33095630  0.98139180  1
  Hf  Hf5  1  0.16874680  0.67168584  0.31498131  1
  Hf  Hf6  1  0.66889633  0.67201380  0.31511444  1
  Hf  Hf7  1  0.16429169  0.66288744  0.81498994  1
  Hf  Hf8  1  0.66569009  0.66464331  0.81552737  1
  Mg  Mg0  1  0.99907215  0.00068776  0.35007286  1
  Mg  Mg1  1  0.49925753  0.00093214  0.35017886  1
  Mg  Mg2  1  0.99709809  0.00280226  0.85118268  1
  Mg  Mg3  1  0.49899253  0.00072929  0.85003289  1
  Mg  Mg4  1  0.33678404  0.33406160  0.68337895  1
  Mg  Mg5  1  0.83692318  0.33424358  0.68288652  1
  Mg  Mg6  1  0.33273761  0.32630432  0.18338671  1
  Mg  Mg7  1  0.83289205  0.32787868  0.18485708  1
  Mg  Mg8  1  0.33316720  0.33246110  0.98390011  1
  Mg  Mg9  1  0.33373132  0.33334361  0.48357338  1
  Mg  Mg10  1  0.83377147  0.33343186  0.48355368  1
  Mg  Mg11  1  0.16717993  0.66756846  0.01640910  1
  Mg  Mg12  1  0.67040890  0.66782898  0.01744956  1
  Mg  Mg13  1  0.16662681  0.66678195  0.51604621  1
  Mg  Mg14  1  0.66671897  0.66684526  0.51606464  1
  P  P0  1  0.14744160  0.00235688  0.25132880  1
  P  P1  1  0.64828317  0.00290354  0.25225458  1
  P  P2  1  0.35260780  0.70283490  0.25201442  1
  P  P3  1  0.85276936  0.70307396  0.25304408  1
  P  P4  1  0.99806203  0.29347944  0.25236915  1
  P  P5  1  0.49811145  0.29464675  0.25279656  1
  P  P6  1  0.14832971  0.29427900  0.75235797  1
  P  P7  1  0.64873967  0.29555011  0.75238592  1
  P  P8  1  0.99861631  0.70367126  0.75231554  1
  P  P9  1  0.49892839  0.70347114  0.75235285  1
  P  P10  1  0.35264519  0.00392103  0.75297473  1
  P  P11  1  0.85317713  0.00411775  0.75181413  1
  P  P12  1  0.48033840  0.33538015  0.58222034  1
  P  P13  1  0.98047947  0.33546355  0.58205283  1
  P  P14  1  0.18651379  0.03881501  0.58402020  1
  P  P15  1  0.68655609  0.03887242  0.58395263  1
  P  P16  1  0.33245243  0.62601253  0.58413900  1
  P  P17  1  0.83252663  0.62597048  0.58406102  1
  P  P18  1  0.48036506  0.62627077  0.08382678  1
  P  P19  1  0.98109491  0.62791319  0.08499834  1
  P  P20  1  0.33244792  0.03941753  0.08211019  1
  P  P21  1  0.83150716  0.03853500  0.08512050  1
  P  P22  1  0.18643383  0.33404872  0.08413522  1
  P  P23  1  0.68707014  0.33790080  0.08608404  1
  P  P24  1  0.31476558  0.66708791  0.91836700  1
  P  P25  1  0.81489885  0.67009191  0.91770848  1
  P  P26  1  0.01994659  0.36986466  0.91995415  1
  P  P27  1  0.51854712  0.37025789  0.92010301  1
  P  P28  1  0.16643073  0.96310008  0.91853599  1
  P  P29  1  0.66535033  0.95985078  0.91847207  1
  P  P30  1  0.31535005  0.96297794  0.42002151  1
  P  P31  1  0.81544085  0.96326923  0.42013253  1
  P  P32  1  0.16640991  0.37036579  0.41832249  1
  P  P33  1  0.66636894  0.37021623  0.41839230  1
  P  P34  1  0.01881060  0.66782335  0.41841321  1
  P  P35  1  0.51871478  0.66769109  0.41838287  1
  O  O0  1  0.10433502  0.02401060  0.30705975  1
  O  O1  1  0.60449503  0.02421733  0.30747977  1
  O  O2  1  0.40730695  0.78913813  0.30718813  1
  O  O3  1  0.90591709  0.78520802  0.30915226  1
  O  O4  1  0.49017531  0.19142549  0.30855205  1
  O  O5  1  0.99016418  0.19140327  0.30855544  1
  O  O6  1  0.10536289  0.18446472  0.80747415  1
  O  O7  1  0.60576405  0.18646026  0.80765320  1
  O  O8  1  0.48793559  0.79016517  0.80773230  1
  O  O9  1  0.98841663  0.79044945  0.80792893  1
  O  O10  1  0.40391587  0.01954824  0.80883621  1
  O  O11  1  0.90756505  0.02064380  0.80534861  1
  O  O12  1  0.39561867  0.97328812  0.69610323  1
  O  O13  1  0.89310117  0.97193213  0.69327247  1
  O  O14  1  0.09297857  0.20853320  0.69481024  1
  O  O15  1  0.59330294  0.20865980  0.69499498  1
  O  O16  1  0.01355552  0.82117907  0.69572665  1
  O  O17  1  0.51421465  0.82130026  0.69573323  1
  O  O18  1  0.39599174  0.81400249  0.19451170  1
  O  O19  1  0.89773123  0.81813135  0.19723464  1
  O  O20  1  0.01282489  0.20702126  0.19550564  1
  O  O21  1  0.51359946  0.20872308  0.19568503  1
  O  O22  1  0.08849111  0.97105272  0.19480824  1
  O  O23  1  0.58976512  0.97276537  0.19539171  1
  O  O24  1  0.43697937  0.36236967  0.63617465  1
  O  O25  1  0.93721794  0.36249730  0.63609578  1
  O  O26  1  0.23970708  0.12153354  0.64049534  1
  O  O27  1  0.73960204  0.12173607  0.64042153  1
  O  O28  1  0.32021383  0.51955131  0.64058601  1
  O  O29  1  0.82018181  0.51951719  0.64056919  1
  O  O30  1  0.43874908  0.52014794  0.14023566  1
  O  O31  1  0.93849766  0.51889244  0.14057520  1
  O  O32  1  0.31903998  0.12618743  0.13607491  1
  O  O33  1  0.81903173  0.12536249  0.13926306  1
  O  O34  1  0.24032178  0.36005955  0.14046221  1
  O  O35  1  0.73807850  0.35322309  0.14233495  1
  O  O36  1  0.22453240  0.29873016  0.02742172  1
  O  O37  1  0.72956081  0.30614160  0.02914791  1
  O  O38  1  0.42488144  0.55048159  0.02720282  1
  O  O39  1  0.92587723  0.54081936  0.02748018  1
  O  O40  1  0.35144706  0.14619610  0.02418650  1
  O  O41  1  0.84823773  0.15695431  0.02865801  1
  O  O42  1  0.22480182  0.15027753  0.52740101  1
  O  O43  1  0.72471460  0.15017785  0.52734660  1
  O  O44  1  0.35058762  0.55066761  0.52747180  1
  O  O45  1  0.85033746  0.55013350  0.52745475  1
  O  O46  1  0.42679586  0.29699676  0.52431840  1
  O  O47  1  0.92682309  0.29716914  0.52425093  1
  O  O48  1  0.27230770  0.69239142  0.97365752  1
  O  O49  1  0.76849468  0.68601089  0.97157742  1
  O  O50  1  0.07200295  0.45328718  0.97634577  1
  O  O51  1  0.57273677  0.45173439  0.97617005  1
  O  O52  1  0.15288341  0.85098135  0.97332744  1
  O  O53  1  0.65326265  0.85117056  0.97400048  1
  O  O54  1  0.27454449  0.85495312  0.47599499  1
  O  O55  1  0.77451655  0.85505892  0.47604230  1
  O  O56  1  0.15386697  0.45555631  0.47356686  1
  O  O57  1  0.65375995  0.45538987  0.47363729  1
  O  O58  1  0.07433687  0.69384040  0.47340021  1
  O  O59  1  0.57427443  0.69402161  0.47342568  1
  O  O60  1  0.06469689  0.64501829  0.36101746  1
  O  O61  1  0.56466235  0.64490685  0.36107059  1
  O  O62  1  0.25554202  0.86621212  0.36463782  1
  O  O63  1  0.75561097  0.86650909  0.36473154  1
  O  O64  1  0.17755109  0.48524724  0.36128115  1
  O  O65  1  0.67743405  0.48499204  0.36134535  1
  O  O66  1  0.06487781  0.49136744  0.86475429  1
  O  O67  1  0.56794569  0.49044294  0.86499873  1
  O  O68  1  0.17752119  0.87041161  0.86123265  1
  O  O69  1  0.67817233  0.87467068  0.86089452  1
  O  O70  1  0.25703626  0.64444760  0.86145964  1
  O  O71  1  0.75914168  0.63824080  0.85924574  1
  O  O72  1  0.00959904  0.82886951  0.41168190  1
  O  O73  1  0.50926799  0.82847078  0.41155808  1
  O  O74  1  0.40485188  0.98114514  0.41186854  1
  O  O75  1  0.90495868  0.98164789  0.41201204  1
  O  O76  1  0.08591403  0.19029820  0.41160715  1
  O  O77  1  0.58584322  0.19018241  0.41172297  1
  O  O78  1  0.01195819  0.19390613  0.91135173  1
  O  O79  1  0.50920666  0.19107576  0.91171824  1
  O  O80  1  0.08658831  0.98322148  0.91149836  1
  O  O81  1  0.58591206  0.98198179  0.91198500  1
  O  O82  1  0.40469770  0.82801902  0.91161626  1
  O  O83  1  0.90664621  0.81927980  0.91140624  1
  O  O84  1  0.49045899  0.16991096  0.59039886  1
  O  O85  1  0.99084119  0.17029995  0.59004431  1
  O  O86  1  0.09349745  0.01843449  0.59007103  1
  O  O87  1  0.59351033  0.01850718  0.59004670  1
  O  O88  1  0.41526598  0.81245434  0.59062616  1
  O  O89  1  0.91553353  0.81199885  0.59032326  1
  O  O90  1  0.49048454  0.81252457  0.08993084  1
  O  O91  1  0.99181217  0.81198694  0.08808691  1
  O  O92  1  0.41534576  0.01935151  0.09007208  1
  O  O93  1  0.91649111  0.02977355  0.08898614  1
  O  O94  1  0.09356954  0.16898344  0.09080232  1
  O  O95  1  0.59572087  0.16584447  0.08838383  1
  O  O96  1  0.33670307  0.15437644  0.74541561  1
  O  O97  1  0.83663881  0.15375376  0.74468624  1
  O  O98  1  0.23877390  0.31735894  0.74539542  1
  O  O99  1  0.73889376  0.31730977  0.74554507  1
  O  O100  1  0.41900011  0.52664819  0.74422748  1
  O  O101  1  0.91891286  0.52663236  0.74432851  1
  O  O102  1  0.34143679  0.52243341  0.24512058  1
  O  O103  1  0.84168602  0.52275477  0.24523279  1
  O  O104  1  0.42280563  0.32598491  0.24517049  1
  O  O105  1  0.92318108  0.32688417  0.24535586  1
  O  O106  1  0.23593821  0.16165307  0.24358743  1
  O  O107  1  0.73670611  0.16254324  0.24482038  1
  O  O108  1  0.32157622  0.50202164  0.91990807  1
  O  O109  1  0.82033338  0.49885624  0.92154905  1
  O  O110  1  0.42963268  0.35778909  0.92058256  1
  O  O111  1  0.93060805  0.36153866  0.92207887  1
  O  O112  1  0.24965098  0.14125962  0.92022697  1
  O  O113  1  0.74639098  0.14472755  0.92193663  1
  O  O114  1  0.32155828  0.14084654  0.42081994  1
  O  O115  1  0.82156361  0.14102793  0.42088554  1
  O  O116  1  0.24894099  0.35680334  0.41996048  1
  O  O117  1  0.74886991  0.35664721  0.42001130  1
  O  O118  1  0.42943370  0.50227186  0.42012326  1
  O  O119  1  0.92952749  0.50240425  0.42008697  1
  O  O120  1  0.17363876  0.49132363  0.07868686  1
  O  O121  1  0.67036154  0.48722431  0.07908595  1
  O  O122  1  0.07175962  0.65121776  0.07872395  1
  O  O123  1  0.57220567  0.65397281  0.07866414  1
  O  O124  1  0.25464865  0.85498905  0.07746437  1
  O  O125  1  0.75256871  0.86079157  0.07657607  1
  O  O126  1  0.17286447  0.85539115  0.57873431  1
  O  O127  1  0.67283125  0.85537869  0.57874926  1
  O  O128  1  0.25417258  0.65241431  0.57877856  1
  O  O129  1  0.75422736  0.65249020  0.57878805  1
  O  O130  1  0.07257822  0.49099610  0.57736706  1
  O  O131  1  0.57248992  0.49079050  0.57746964  1
  O  O132  1  0.15194255  0.83229324  0.25461807  1
  O  O133  1  0.65236123  0.83274114  0.25501567  1
  O  O134  1  0.26083308  0.68221748  0.25465910  1
  O  O135  1  0.76078219  0.68158013  0.25515083  1
  O  O136  1  0.08387231  0.47552423  0.25430889  1
  O  O137  1  0.58375783  0.47609353  0.25473895  1
  O  O138  1  0.15874076  0.47806557  0.75529255  1
  O  O139  1  0.65904898  0.47915089  0.75509827  1
  O  O140  1  0.08368589  0.69500357  0.75484989  1
  O  O141  1  0.58400012  0.69526894  0.75543161  1
  O  O142  1  0.26178151  0.83254518  0.75477622  1
  O  O143  1  0.76210534  0.83324687  0.75496895  1
loop_
_geom_bond_atom_site_label_1
_geom_bond_atom_site_label_2
_geom_bond_distance
_geom_bond_site_symmetry_2
Na0 O106 2.388270 1_555
Na0 O102 2.447952 1_555
Na0 O136 2.513587 1_555
Na0 O134 2.523821 1_555
Na0 O34 2.563733 1_555
Na0 O64 2.821627 1_555
Na0 O20 2.917163 1_555
Na0 O0 2.948407 1_555
Na1 O107 2.392284 1_555
Na1 O103 2.442623 1_555
Na1 O135 2.510120 1_555
Na1 O137 2.521411 1_555
Na1 O35 2.532167 1_555
Na1 O65 2.808911 1_555
Na1 O21 2.918423 1_555
Na1 O1 2.952895 1_555
Na2 O105 2.363109 1_555
Na2 O103 2.411620 1_555
Na2 O132 2.503102 1_655
Na2 O31 2.582383 1_555
Na2 O136 2.615106 1_655
Na2 O60 2.804001 1_655
Na2 O22 2.918123 1_655
Na2 O3 2.929889 1_555
Na3 O104 2.364392 1_555
Na3 O102 2.420286 1_555
Na3 O133 2.509471 1_555
Na3 O30 2.560723 1_555
Na3 O137 2.602431 1_555
Na3 O61 2.826864 1_555
Na3 O23 2.919297 1_555
Na3 O2 2.937593 1_555
Na4 O100 2.393358 1_555
Na4 O98 2.433417 1_555
Na4 O138 2.519496 1_555
Na4 O142 2.529009 1_555
Na4 O28 2.556191 1_555
Na4 O70 2.827711 1_555
Na4 O12 2.916537 1_555
Na4 O8 2.961715 1_555
Na5 O101 2.395141 1_555
Na5 O99 2.448481 1_555
Na5 O143 2.522493 1_555
Na5 O139 2.522668 1_555
Na5 O29 2.568488 1_555
Na5 O71 2.747100 1_555
Na5 O13 2.924632 1_555
Na5 O9 2.958972 1_555
Na6 O96 2.367875 1_555
Na6 O98 2.412978 1_555
Na6 O140 2.515502 1_545
Na6 O26 2.557559 1_555
Na6 O142 2.613784 1_545
Na6 O68 2.832973 1_545
Na6 O16 2.911398 1_545
Na6 O6 2.920026 1_555
Na7 O97 2.361075 1_555
Na7 O99 2.422535 1_555
Na7 O141 2.508150 1_545
Na7 O27 2.547483 1_555
Na7 O143 2.600208 1_545
Na7 O69 2.818746 1_545
Na7 O17 2.901291 1_545
Na7 O7 2.949207 1_555
Na8 O128 2.437305 1_555
Na8 O130 2.452788 1_555
Na8 O56 2.539282 1_555
Na8 O86 2.576610 1_555
Na8 O85 2.590750 1_455
Na8 O42 2.828958 1_555
Na8 O14 2.860943 1_555
Na8 O28 2.923438 1_555
Na9 O129 2.433850 1_555
Na9 O131 2.453246 1_555
Na9 O57 2.534264 1_555
Na9 O87 2.579667 1_555
Na9 O84 2.602124 1_555
Na9 O43 2.827842 1_555
Na9 O15 2.867937 1_555
Na9 O29 2.920422 1_555
Na10 O130 2.452184 1_555
Na10 O126 2.460621 1_555
Na10 O58 2.551611 1_555
Na10 O89 2.571145 1_455
Na10 O86 2.601141 1_565
Na10 O45 2.824063 1_455
Na10 O25 2.842289 1_455
Na10 O16 2.887488 1_555
Na11 O131 2.449924 1_555
Na11 O127 2.460046 1_555
Na11 O59 2.547773 1_555
Na11 O88 2.582108 1_555
Na11 O87 2.604279 1_565
Na11 O44 2.820160 1_555
Na11 O24 2.842748 1_555
Na11 O17 2.888663 1_555
Na12 O126 2.444571 1_555
Na12 O128 2.466264 1_555
Na12 O54 2.470108 1_555
Na12 O84 2.580365 1_565
Na12 O88 2.604244 1_555
Na12 O46 2.844018 1_565
Na12 O12 2.901513 1_555
Na12 O26 2.925511 1_565
Na13 O127 2.449026 1_555
Na13 O129 2.463261 1_555
Na13 O55 2.478637 1_555
Na13 O85 2.581612 1_565
Na13 O89 2.604607 1_555
Na13 O13 2.816247 1_555
Na13 O47 2.851552 1_565
Na13 O27 2.927517 1_565
Na14 O124 2.466969 1_555
Na14 O122 2.496292 1_555
Na14 O52 2.560004 1_554
Na14 O94 2.563725 1_565
Na14 O91 2.578579 1_455
Na14 O36 2.809133 1_565
Na14 O32 2.847066 1_565
Na14 O22 2.868392 1_555
Na15 O125 2.390836 1_555
Na15 O123 2.415632 1_555
Na15 O95 2.518390 1_565
Na15 O90 2.553097 1_555
Na15 O53 2.583758 1_554
Na15 O23 2.812934 1_555
Na15 O33 2.893487 1_565
Na15 O37 2.918351 1_565
Na16 O120 2.432878 1_555
Na16 O124 2.461111 1_555
Na16 O48 2.544706 1_554
Na16 O90 2.574399 1_555
Na16 O92 2.611771 1_565
Na16 O38 2.826375 1_555
Na16 O18 2.852465 1_555
Na16 O34 2.903733 1_555
Na17 O120 2.413268 1_555
Na17 O122 2.425849 1_555
Na17 O93 2.505161 1_455
Na17 O50 2.512945 1_554
Na17 O94 2.554266 1_555
Na17 O20 2.826864 1_555
Na17 O41 2.910407 1_455
Na17 O31 2.934168 1_455
Na18 O121 2.418473 1_555
Na18 O123 2.436007 1_555
Na18 O51 2.466508 1_554
Na18 O92 2.581230 1_555
Na18 O95 2.667364 1_555
Na18 O40 2.840693 1_555
Na18 O21 2.901153 1_555
Na18 O30 2.919328 1_555
Na19 O110 2.444459 1_555
Na19 O82 2.468005 1_555
Na19 O108 2.488044 1_555
Na19 O81 2.517245 1_555
Na19 O38 2.624099 1_556
Na19 O8 2.694256 1_555
Na20 O83 2.368425 1_555
Na20 O80 2.404515 1_655
Na20 O111 2.519243 1_555
Na20 O9 2.557307 1_555
Na20 O109 2.626924 1_555
Na20 O39 2.802969 1_556
Na20 O66 2.881902 1_655
Na20 O52 2.896104 1_655
Na21 O112 2.447681 1_555
Na21 O79 2.469172 1_555
Na21 O82 2.507373 1_545
Na21 O110 2.509041 1_555
Na21 O40 2.553766 1_556
Na21 O10 2.646977 1_555
Na22 O80 2.432276 1_545
Na22 O108 2.453644 1_555
Na22 O112 2.481232 1_555
Na22 O78 2.481498 1_555
Na22 O36 2.625745 1_556
Na22 O6 2.693106 1_555
Na23 O79 2.413747 1_555
Na23 O81 2.486339 1_545
Na23 O109 2.504979 1_555
Na23 O113 2.545506 1_555
Na23 O7 2.574771 1_555
Na23 O37 2.834389 1_556
Na23 O71 2.912542 1_555
Na23 O51 2.922329 1_555
Na24 O118 2.461666 1_555
Na24 O74 2.474073 1_545
Na24 O77 2.504897 1_555
Na24 O114 2.506301 1_555
Na24 O46 2.558890 1_555
Na24 O4 2.654518 1_555
Na25 O119 2.462795 1_555
Na25 O75 2.468321 1_545
Na25 O76 2.504466 1_655
Na25 O115 2.505901 1_555
Na25 O47 2.559804 1_555
Na25 O5 2.651868 1_555
Na26 O114 2.461314 1_555
Na26 O76 2.467840 1_555
Na26 O72 2.496235 1_545
Na26 O116 2.499837 1_555
Na26 O42 2.636948 1_555
Na26 O0 2.704741 1_555
Na26 O58 2.942909 1_545
Na26 O62 2.968954 1_545
Na27 O115 2.458868 1_555
Na27 O77 2.469941 1_555
Na27 O117 2.498388 1_555
Na27 O73 2.503574 1_545
Na27 O43 2.632804 1_555
Na27 O1 2.698250 1_555
Na27 O59 2.941277 1_545
Na27 O63 2.966135 1_545
Na28 O116 2.452247 1_555
Na28 O73 2.468307 1_555
Na28 O118 2.495775 1_555
Na28 O74 2.508433 1_555
Na28 O44 2.636479 1_555
Na28 O2 2.699441 1_555
Na29 O117 2.456071 1_555
Na29 O72 2.470489 1_655
Na29 O119 2.496065 1_555
Na29 O75 2.509937 1_555
Na29 O3 2.640158 1_555
Na29 O45 2.643501 1_555
Na30 O75 2.451735 1_545
Na30 O72 2.456235 1_645
Na30 O76 2.458589 1_655
Na30 O85 2.681123 1_555
Na30 O86 2.681401 1_655
Na30 O89 2.686292 1_545
Na31 O74 2.452241 1_545
Na31 O77 2.453343 1_555
Na31 O73 2.456591 1_545
Na31 O87 2.682988 1_555
Na31 O84 2.689666 1_555
Na31 O88 2.694125 1_545
Na32 O83 2.372274 1_555
Na32 O78 2.466724 1_665
Na32 O80 2.568118 1_655
Na32 O93 2.599373 1_566
Na32 O91 2.680032 1_556
Na32 O94 2.794956 1_666
Na33 O82 2.453044 1_555
Na33 O81 2.466890 1_555
Na33 O79 2.469632 1_565
Na33 O95 2.660123 1_566
Na33 O92 2.665590 1_566
Na33 O90 2.673915 1_556
Na34 O96 2.492075 1_555
Na34 O110 2.501636 1_555
Na34 O100 2.524776 1_555
Na34 O112 2.591308 1_555
Na34 O108 2.597072 1_555
Na34 O98 2.600316 1_555
Na35 O97 2.363433 1_555
Na35 O101 2.469577 1_555
Na35 O99 2.565768 1_555
Na35 O111 2.582956 1_555
Na35 O113 2.695975 1_555
Na35 O109 2.763228 1_555
Na36 O104 2.500943 1_555
Na36 O114 2.504301 1_555
Na36 O106 2.538572 1_555
Na36 O118 2.595456 1_555
Na36 O116 2.596989 1_555
Na36 O102 2.608202 1_555
Na37 O115 2.500402 1_555
Na37 O105 2.501668 1_555
Na37 O107 2.519082 1_555
Na37 O119 2.586789 1_555
Na37 O117 2.595661 1_555
Na37 O103 2.610770 1_555
Na38 O124 2.437121 1_555
Na38 O120 2.517864 1_555
Na38 O122 2.527894 1_555
Na38 O134 2.592603 1_555
Na38 O132 2.603969 1_555
Na38 O136 2.677801 1_555
Na39 O125 2.397987 1_555
Na39 O121 2.445846 1_555
Na39 O123 2.565849 1_555
Na39 O135 2.581421 1_555
Na39 O133 2.694753 1_555
Na39 O137 2.750783 1_555
Na40 O130 2.426104 1_555
Na40 O128 2.507405 1_555
Na40 O126 2.509980 1_555
Na40 O140 2.615103 1_555
Na40 O138 2.624469 1_555
Na40 O142 2.692823 1_555
Na41 O131 2.433796 1_555
Na41 O129 2.506322 1_555
Na41 O127 2.511273 1_555
Na41 O139 2.614415 1_555
Na41 O141 2.622983 1_555
Na41 O143 2.691476 1_555
Hf0 O14 2.037486 1_655
Hf0 O13 2.041931 1_545
Hf0 O16 2.054505 1_645
Hf0 O85 2.076738 1_555
Hf0 O89 2.094775 1_545
Hf0 O86 2.097210 1_655
Hf1 O15 2.039325 1_555
Hf1 O12 2.043451 1_545
Hf1 O17 2.055154 1_545
Hf1 O84 2.076313 1_555
Hf1 O87 2.092527 1_555
Hf1 O88 2.092903 1_545
Hf2 O19 2.006704 1_555
Hf2 O20 2.062980 1_665
Hf2 O22 2.070240 1_655
Hf2 O93 2.083760 1_565
Hf2 O91 2.097195 1_555
Hf2 O94 2.107610 1_665
Hf3 O18 2.035349 1_545
Hf3 O21 2.038273 1_555
Hf3 O23 2.051653 1_545
Hf3 O92 2.076946 1_555
Hf3 O90 2.092493 1_545
Hf3 O95 2.125847 1_555
Hf4 O41 2.016333 1_556
Hf4 O39 2.060727 1_556
Hf4 O37 2.065533 1_556
Hf4 O113 2.095956 1_555
Hf4 O111 2.096783 1_555
Hf4 O109 2.119718 1_555
Hf5 O62 1.998582 1_555
Hf5 O60 2.042238 1_555
Hf5 O64 2.046672 1_555
Hf5 O134 2.098799 1_555
Hf5 O132 2.108290 1_555
Hf5 O136 2.139909 1_555
Hf6 O63 1.997462 1_555
Hf6 O61 2.042848 1_555
Hf6 O65 2.048075 1_555
Hf6 O135 2.093992 1_555
Hf6 O133 2.102979 1_555
Hf6 O137 2.136177 1_555
Hf7 O66 2.013665 1_555
Hf7 O68 2.040174 1_555
Hf7 O70 2.044649 1_555
Hf7 O138 2.092084 1_555
Hf7 O140 2.102436 1_555
Hf7 O142 2.129187 1_555
Hf8 O67 2.003229 1_555
Hf8 O69 2.054604 1_555
Hf8 O71 2.062194 1_555
Hf8 O139 2.100309 1_555
Hf8 O141 2.110224 1_555
Hf8 O143 2.122182 1_555
Mg0 O5 2.030012 1_555
Mg0 O3 2.037824 1_545
Mg0 O0 2.039230 1_655
Mg0 O75 2.124224 1_545
Mg0 O76 2.136864 1_655
Mg0 O72 2.150021 1_645
Mg1 O4 2.030936 1_555
Mg1 O2 2.033675 1_545
Mg1 O1 2.035685 1_555
Mg1 O74 2.122485 1_545
Mg1 O77 2.134068 1_555
Mg1 O73 2.147013 1_545
Mg2 O11 1.985121 1_555
Mg2 O6 2.058265 1_655
Mg2 O9 2.075808 1_545
Mg2 O78 2.088888 1_655
Mg2 O83 2.119794 1_545
Mg2 O80 2.175600 1_645
Mg3 O10 2.026608 1_555
Mg3 O8 2.035617 1_545
Mg3 O7 2.042172 1_555
Mg3 O79 2.130498 1_555
Mg3 O82 2.131611 1_545
Mg3 O81 2.159256 1_545
Mg4 O24 1.991551 1_555
Mg4 O26 2.069649 1_555
Mg4 O28 2.074230 1_555
Mg4 O100 2.113113 1_555
Mg4 O96 2.130740 1_555
Mg4 O98 2.185961 1_555
Mg5 O25 1.988391 1_555
Mg5 O27 2.066969 1_555
Mg5 O29 2.069346 1_555
Mg5 O101 2.119591 1_555
Mg5 O97 2.131450 1_555
Mg5 O99 2.194577 1_555
Mg6 O32 1.992858 1_555
Mg6 O30 2.069813 1_555
Mg6 O34 2.073217 1_555
Mg6 O106 2.109703 1_555
Mg6 O104 2.131463 1_555
Mg6 O102 2.180050 1_555
Mg7 O33 1.990421 1_555
Mg7 O35 2.066342 1_555
Mg7 O31 2.068371 1_555
Mg7 O107 2.102946 1_555
Mg7 O105 2.118507 1_555
Mg7 O103 2.151782 1_555
Mg8 O36 2.065466 1_556
Mg8 O38 2.065773 1_556
Mg8 O40 2.072577 1_556
Mg8 O112 2.155138 1_555
Mg8 O110 2.158753 1_555
Mg8 O108 2.177596 1_555
Mg9 O44 2.069316 1_555
Mg9 O42 2.070169 1_555
Mg9 O46 2.074684 1_555
Mg9 O114 2.149648 1_555
Mg9 O118 2.158819 1_555
Mg9 O116 2.173016 1_555
Mg10 O45 2.066166 1_555
Mg10 O43 2.071612 1_555
Mg10 O47 2.073583 1_555
Mg10 O115 2.147594 1_555
Mg10 O119 2.159613 1_555
Mg10 O117 2.172508 1_555
Mg11 O48 2.029504 1_554
Mg11 O50 2.036679 1_554
Mg11 O52 2.038611 1_554
Mg11 O124 2.125449 1_555
Mg11 O122 2.155389 1_555
Mg11 O120 2.158057 1_555
Mg12 O49 1.975336 1_554
Mg12 O53 2.069758 1_554
Mg12 O51 2.073896 1_554
Mg12 O125 2.090065 1_555
Mg12 O121 2.131524 1_555
Mg12 O123 2.186232 1_555
Mg13 O56 2.031594 1_555
Mg13 O58 2.035698 1_555
Mg13 O54 2.037609 1_555
Mg13 O130 2.135366 1_555
Mg13 O126 2.156559 1_555
Mg13 O128 2.161882 1_555
Mg14 O57 2.031604 1_555
Mg14 O55 2.036301 1_555
Mg14 O59 2.038638 1_555
Mg14 O131 2.138773 1_555
Mg14 O127 2.156763 1_555
Mg14 O129 2.161191 1_555
O0 P0 1.526419 1_555
O1 P1 1.523213 1_555
O2 P2 1.522726 1_555
O3 P3 1.522101 1_555
O4 P5 1.516259 1_555
O5 P4 1.518470 1_555
O6 P6 1.523172 1_555
O7 P7 1.523340 1_555
O8 P9 1.523487 1_555
O9 P8 1.522691 1_555
O10 P10 1.514846 1_555
O11 P11 1.504031 1_555
O12 P10 1.577949 1_565
O13 P11 1.583086 1_565
O14 P6 1.569356 1_555
O15 P7 1.568917 1_555
O16 P8 1.581621 1_455
O17 P9 1.582831 1_555
O18 P2 1.572401 1_555
O19 P3 1.561113 1_555
O20 P4 1.576105 1_455
O21 P5 1.583218 1_555
O22 P0 1.579954 1_565
O23 P1 1.583201 1_565
O24 P12 1.516561 1_555
O25 P13 1.517245 1_555
O26 P14 1.530028 1_555
O27 P15 1.529121 1_555
O28 P16 1.530363 1_555
O29 P17 1.531117 1_555
O30 P18 1.529307 1_555
O31 P19 1.527440 1_555
O32 P20 1.516162 1_555
O33 P21 1.512691 1_555
O34 P22 1.532049 1_555
O35 P23 1.519914 1_555
O36 P22 1.543559 1_555
O37 P23 1.578363 1_555
O38 P18 1.540552 1_555
O39 P19 1.570028 1_555
O40 P20 1.543132 1_555
O41 P21 1.579074 1_555
O42 P14 1.543799 1_555
O43 P15 1.542674 1_555
O44 P16 1.542065 1_555
O45 P17 1.540860 1_555
O46 P12 1.543383 1_555
O47 P13 1.542654 1_555
O48 P24 1.524616 1_555
O49 P25 1.508530 1_555
O50 P26 1.521885 1_555
O51 P27 1.527776 1_555
O52 P28 1.525457 1_555
O53 P29 1.525420 1_555
O54 P30 1.525586 1_555
O55 P31 1.525439 1_555
O56 P32 1.524220 1_555
O57 P33 1.524619 1_555
O58 P34 1.524654 1_555
O59 P35 1.525505 1_555
O60 P34 1.589314 1_555
O61 P35 1.588395 1_555
O62 P30 1.581830 1_555
O63 P31 1.582280 1_555
O64 P32 1.588365 1_555
O65 P33 1.588180 1_555
O66 P26 1.574874 1_555
O67 P27 1.583628 1_555
O68 P28 1.590070 1_555
O69 P29 1.568295 1_555
O70 P24 1.588009 1_555
O71 P25 1.581722 1_555
O72 P34 1.549381 1_555
O73 P35 1.549659 1_555
O74 P30 1.548657 1_555
O75 P31 1.548066 1_555
O76 P32 1.550003 1_555
O77 P33 1.549951 1_555
O78 P26 1.530821 1_555
O79 P27 1.548742 1_555
O80 P28 1.546824 1_555
O81 P29 1.549051 1_555
O82 P24 1.548944 1_555
O83 P25 1.528207 1_555
O84 P12 1.601804 1_555
O85 P13 1.601132 1_555
O86 P14 1.598528 1_555
O87 P15 1.599191 1_555
O88 P16 1.599984 1_555
O89 P17 1.598802 1_555
O90 P18 1.600959 1_555
O91 P19 1.572863 1_555
O92 P20 1.603261 1_555
O93 P21 1.575918 1_555
O94 P22 1.594691 1_555
O95 P23 1.600339 1_555
O96 P10 1.530550 1_555
O97 P11 1.529082 1_555
O98 P6 1.544667 1_555
O99 P7 1.543959 1_555
O100 P9 1.532326 1_555
O101 P8 1.531383 1_555
O102 P2 1.542635 1_555
O103 P3 1.544654 1_555
O104 P5 1.529007 1_555
O105 P4 1.531831 1_555
O106 P0 1.530277 1_555
O107 P1 1.530054 1_555
O108 P24 1.553698 1_555
O109 P25 1.597526 1_555
O110 P27 1.549959 1_555
O111 P26 1.575215 1_655
O112 P28 1.554739 1_545
O113 P29 1.574169 1_545
O114 P30 1.550477 1_545
O115 P31 1.550167 1_545
O116 P32 1.553486 1_555
O117 P33 1.552967 1_555
O118 P35 1.552727 1_555
O119 P34 1.552710 1_655
O120 P22 1.551409 1_555
O121 P23 1.527976 1_555
O122 P19 1.546363 1_455
O123 P18 1.550101 1_555
O124 P20 1.550852 1_565
O125 P21 1.530858 1_565
O126 P14 1.549213 1_565
O127 P15 1.549189 1_565
O128 P16 1.549365 1_555
O129 P17 1.550207 1_555
O130 P13 1.549523 1_455
O131 P12 1.549805 1_555
O132 P0 1.577218 1_565
O133 P1 1.573482 1_565
O134 P2 1.570917 1_555
O135 P3 1.571121 1_555
O136 P4 1.595066 1_455
O137 P5 1.590800 1_555
O138 P6 1.572400 1_555
O139 P7 1.571298 1_555
O140 P8 1.575609 1_455
O141 P9 1.573900 1_555
O142 P10 1.592477 1_565
O143 P11 1.593513 1_565
