# generated using pymatgen
data_MgFe6O11F
_symmetry_space_group_name_H-M   'P 1'
_cell_length_a   10.71486156
_cell_length_b   7.66978099
_cell_length_c   2.94190200
_cell_angle_alpha   90.00000000
_cell_angle_beta   90.00000000
_cell_angle_gamma   67.97362864
_symmetry_Int_Tables_number   1
_chemical_formula_structural   MgFe6O11F
_chemical_formula_sum   'Mg1 Fe6 O11 F1'
_cell_volume   224.12111471
_cell_formula_units_Z   1
loop_
 _symmetry_equiv_pos_site_id
 _symmetry_equiv_pos_as_xyz
  1  'x, y, z'
loop_
 _atom_site_type_symbol
 _atom_site_label
 _atom_site_symmetry_multiplicity
 _atom_site_fract_x
 _atom_site_fract_y
 _atom_site_fract_z
 _atom_site_occupancy
  Mg  Mg0  1  0.48916900  0.51088200  0.50000000  1
  Fe  Fe0  1  0.98715500  0.06612600  0.00000000  1
  Fe  Fe1  1  0.01307300  0.47876500  0.50000000  1
  Fe  Fe2  1  0.33263200  0.27065700  0.00000000  1
  Fe  Fe3  1  0.67223500  0.11522500  0.50000000  1
  Fe  Fe4  1  0.30922100  0.86834600  0.50000000  1
  Fe  Fe5  1  0.69164300  0.69429300  0.00000000  1
  O  O0  1  0.00903800  0.31236700  0.00000000  1
  O  O1  1  0.33034900  0.02347800  0.00000000  1
  O  O2  1  0.01165300  0.63285700  0.00000000  1
  O  O3  1  0.21032400  0.38100000  0.50000000  1
  O  O4  1  0.46437500  0.26138300  0.50000000  1
  O  O5  1  0.11130300  0.95516500  0.50000000  1
  O  O6  1  0.36225600  0.66660600  0.00000000  1
  O  O7  1  0.85683900  0.10707000  0.50000000  1
  O  O8  1  0.57118800  0.70992500  0.50000000  1
  O  O9  1  0.81506000  0.59108400  0.50000000  1
  O  O10  1  0.68048900  0.95613500  0.00000000  1
  F  F0  1  0.63199700  0.35863300  0.00000000  1
loop_
_geom_bond_atom_site_label_1
_geom_bond_atom_site_label_2
_geom_bond_distance
_geom_bond_site_symmetry_2
Mg0 O8 2.027114 1_555
Mg0 O4 2.028243 1_555
Mg0 O6 2.054552 1_556
Mg0 O6 2.054552 1_555
Fe0 O5 1.951498 1_645
Fe0 O5 1.951498 1_644
Fe0 O7 1.970564 1_555
Fe0 O7 1.970564 1_554
Fe0 O0 1.988465 1_655
Fe1 O2 1.883405 1_555
Fe1 O2 1.883405 1_556
Fe1 O0 1.958502 1_555
Fe1 O0 1.958502 1_556
Fe1 O3 1.959722 1_555
Fe1 O9 1.967922 1_455
Fe2 O1 1.905118 1_555
Fe2 O3 1.940485 1_554
Fe2 O3 1.940485 1_555
Fe2 O4 2.021406 1_555
Fe2 O4 2.021406 1_554
Fe3 O10 1.891938 1_546
Fe3 O10 1.891938 1_545
Fe3 O7 1.955409 1_555
Fe3 O4 2.084309 1_555
Fe4 O1 1.957722 1_565
Fe4 O1 1.957722 1_566
Fe4 O5 1.970136 1_555
Fe4 O6 2.054568 1_556
Fe4 O6 2.054568 1_555
Fe5 O8 1.930752 1_555
Fe5 O8 1.930752 1_554
Fe5 O9 1.937492 1_555
Fe5 O9 1.937492 1_554
Fe5 O10 1.966572 1_555
F0 Mg0 2.128126 1_555
F0 Mg0 2.128126 1_554
F0 Fe3 2.287164 1_554
F0 Fe3 2.287164 1_555
