# generated using pymatgen
data_Na7Ca3Nb(PO4)6
_symmetry_space_group_name_H-M   'P 1'
_cell_length_a   9.38035437
_cell_length_b   9.39928904
_cell_length_c   22.81857489
_cell_angle_alpha   89.97221694
_cell_angle_beta   90.02560081
_cell_angle_gamma   119.94295524
_symmetry_Int_Tables_number   1
_chemical_formula_structural   Na7Ca3Nb(PO4)6
_chemical_formula_sum   'Na21 Ca9 Nb3 P18 O72'
_cell_volume   1743.34239151
_cell_formula_units_Z   3
loop_
 _symmetry_equiv_pos_site_id
 _symmetry_equiv_pos_as_xyz
  1  'x, y, z'
loop_
 _atom_site_type_symbol
 _atom_site_label
 _atom_site_symmetry_multiplicity
 _atom_site_fract_x
 _atom_site_fract_y
 _atom_site_fract_z
 _atom_site_occupancy
  Na  Na0  1  0.63630316  0.00009163  0.24807574  1
  Na  Na1  1  0.36359266  0.36385603  0.24823698  1
  Na  Na2  1  0.99981323  0.63606261  0.24819091  1
  Na  Na3  1  0.66252615  0.65090647  0.74977882  1
  Na  Na4  1  0.98745652  0.34238779  0.74902892  1
  Na  Na5  1  0.29497971  0.33834034  0.58459964  1
  Na  Na6  1  0.04077759  0.70348374  0.58559830  1
  Na  Na7  1  0.66344011  0.95902379  0.58568090  1
  Na  Na8  1  0.29581794  0.95868107  0.08428276  1
  Na  Na9  1  0.65915528  0.70201545  0.08460913  1
  Na  Na10  1  0.04520885  0.33865492  0.08492529  1
  Na  Na11  1  0.31796064  0.29935424  0.90873049  1
  Na  Na12  1  0.98599634  0.30704083  0.40343235  1
  Na  Na13  1  0.32115217  0.01353204  0.40389601  1
  Na  Na14  1  0.69272114  0.67893622  0.40351475  1
  Na  Na15  1  0.99967085  0.99971992  0.49872778  1
  Na  Na16  1  0.98238214  0.98368906  0.99586013  1
  Na  Na17  1  0.66344891  0.31809225  0.82911945  1
  Na  Na18  1  0.66659460  0.33328771  0.32099984  1
  Na  Na19  1  0.33323054  0.66647685  0.17473028  1
  Na  Na20  1  0.33479454  0.68499876  0.66653543  1
  Ca  Ca0  1  0.99997929  -0.00007942  0.34470490  1
  Ca  Ca1  1  0.99755939  0.99197717  0.85067557  1
  Ca  Ca2  1  0.00447799  0.99793645  0.65570932  1
  Ca  Ca3  1  0.00015236  0.00038295  0.14896861  1
  Ca  Ca4  1  0.65781276  0.32684666  0.68693154  1
  Ca  Ca5  1  0.66650896  0.33329041  0.18192054  1
  Ca  Ca6  1  0.33484894  0.67126790  0.01247212  1
  Ca  Ca7  1  0.33329693  0.66609448  0.51302826  1
  Ca  Ca8  1  0.33335059  0.66701838  0.32094252  1
  Nb  Nb0  1  0.67125529  0.33345432  0.97887967  1
  Nb  Nb1  1  0.66610315  0.33277428  0.48496750  1
  Nb  Nb2  1  0.33221232  0.67474269  0.82086280  1
  P  P0  1  0.30671668  0.99615180  0.24992135  1
  P  P1  1  0.68942475  0.69335465  0.24991603  1
  P  P2  1  0.00395696  0.31066383  0.24997570  1
  P  P3  1  0.30544276  0.32151690  0.75502286  1
  P  P4  1  0.00870741  0.69382195  0.74938023  1
  P  P5  1  0.68846884  0.98919345  0.75106120  1
  P  P6  1  0.96036112  0.33067463  0.58500975  1
  P  P7  1  0.36970937  0.03829855  0.58194486  1
  P  P8  1  0.66887965  0.62999402  0.58457499  1
  P  P9  1  0.95833383  0.62782381  0.08039017  1
  P  P10  1  0.66998857  0.04213053  0.08050379  1
  P  P11  1  0.37253685  0.33038971  0.07899342  1
  P  P12  1  0.62715771  0.65372201  0.91977147  1
  P  P13  1  0.03119971  0.37334486  0.91967829  1
  P  P14  1  0.34582349  0.97602505  0.92116916  1
  P  P15  1  0.64393795  0.98378740  0.42119536  1
  P  P16  1  0.34013232  0.35679355  0.42102997  1
  P  P17  1  0.01657697  0.65993594  0.42114643  1
  O  O0  1  0.22080588  0.00509981  0.30673641  1
  O  O1  1  0.78440262  0.77894426  0.30674705  1
  O  O2  1  0.99474910  0.21554088  0.30674780  1
  O  O3  1  0.21981479  0.21718477  0.80841820  1
  O  O4  1  0.97411311  0.78790922  0.79557971  1
  O  O5  1  0.81155406  0.01201628  0.79822996  1
  O  O6  1  0.73591682  0.94136212  0.69168632  1
  O  O7  1  0.20313893  0.25272951  0.69783323  1
  O  O8  1  0.04201735  0.77801649  0.68868453  1
  O  O9  1  0.77896605  0.79485051  0.19462679  1
  O  O10  1  0.01615095  0.22139694  0.19464367  1
  O  O11  1  0.20526800  0.98420819  0.19455185  1
  O  O12  1  0.88227991  0.34340667  0.64160008  1
  O  O13  1  0.47080939  0.12214460  0.63559336  1
  O  O14  1  0.65728944  0.54054846  0.64141593  1
  O  O15  1  0.88261317  0.53707739  0.13722675  1
  O  O16  1  0.65578736  0.11768478  0.13748862  1
  O  O17  1  0.46496930  0.34498666  0.13553458  1
  O  O18  1  0.48638047  0.32828881  0.02493117  1
  O  O19  1  0.83990484  0.51027130  0.02719984  1
  O  O20  1  0.67092558  0.16106231  0.02762416  1
  O  O21  1  0.47944409  0.14818133  0.52659210  1
  O  O22  1  0.66604339  0.51158261  0.53168688  1
  O  O23  1  0.84378956  0.33028083  0.53177707  1
  O  O24  1  0.55627618  0.66754233  0.97782327  1
  O  O25  1  0.12144289  0.44308274  0.97684025  1
  O  O26  1  0.32540093  0.89150330  0.97930774  1
  O  O27  1  0.56426138  0.88072685  0.47611336  1
  O  O28  1  0.31574414  0.43521211  0.47612494  1
  O  O29  1  0.12009655  0.68378404  0.47596511  1
  O  O30  1  0.08791302  0.62077659  0.36666416  1
  O  O31  1  0.53276675  0.91226201  0.36685337  1
  O  O32  1  0.37777838  0.46746038  0.36672452  1
  O  O33  1  0.13499994  0.49885816  0.86751787  1
  O  O34  1  0.35728328  0.86216930  0.87051660  1
  O  O35  1  0.49881270  0.63486286  0.86847582  1
  O  O36  1  0.98899775  0.80775389  0.41479253  1
  O  O37  1  0.81918198  0.01020400  0.41488607  1
  O  O38  1  0.19285948  0.18120747  0.41475286  1
  O  O39  1  0.01481241  0.20628364  0.90830541  1
  O  O40  1  0.20767209  0.01319254  0.90957713  1
  O  O41  1  0.79902957  0.79471389  0.90942445  1
  O  O42  1  0.96373054  0.16801208  0.57913169  1
  O  O43  1  0.20453319  0.03819360  0.57825641  1
  O  O44  1  0.83210137  0.79484891  0.57785336  1
  O  O45  1  0.95720010  0.79090208  0.07403552  1
  O  O46  1  0.83354455  0.04148641  0.07380617  1
  O  O47  1  0.20738132  0.16718782  0.07338118  1
  O  O48  1  0.66805061  0.14096229  0.74904292  1
  O  O49  1  0.48637111  0.36333221  0.75147965  1
  O  O50  1  0.86700220  0.51281338  0.74958125  1
  O  O51  1  0.67212684  0.51953307  0.24985427  1
  O  O52  1  0.84713014  0.32791558  0.24996785  1
  O  O53  1  0.48050690  0.15284876  0.24988821  1
  O  O54  1  0.62581585  0.48127806  0.91889129  1
  O  O55  1  0.85505338  0.36075551  0.92127927  1
  O  O56  1  0.51398455  0.14844110  0.91982885  1
  O  O57  1  0.66618919  0.16475786  0.42864166  1
  O  O58  1  0.50168152  0.33896632  0.42838402  1
  O  O59  1  0.83652412  0.50026621  0.42926912  1
  O  O60  1  0.34851437  0.48092687  0.07514184  1
  O  O61  1  0.13244883  0.65165942  0.07561934  1
  O  O62  1  0.51961339  0.86848741  0.07581021  1
  O  O63  1  0.34415161  0.86302977  0.57766621  1
  O  O64  1  0.51687335  0.65192957  0.57882297  1
  O  O65  1  0.13391501  0.48244114  0.57881619  1
  O  O66  1  0.32479163  0.84000236  0.25063741  1
  O  O67  1  0.51502918  0.67549396  0.25062152  1
  O  O68  1  0.16035281  0.48463634  0.25069522  1
  O  O69  1  0.31325937  0.49786674  0.76411693  1
  O  O70  1  0.17276049  0.68507120  0.76558004  1
  O  O71  1  0.51299693  0.82898854  0.76744161  1
loop_
_geom_bond_atom_site_label_1
_geom_bond_atom_site_label_2
_geom_bond_distance
_geom_bond_site_symmetry_2
Na0 O53 2.508751 1_555
Na0 O66 2.533166 1_545
Na0 O67 2.672285 1_545
Na0 O52 2.706333 1_555
Na0 O16 2.723760 1_555
Na0 O31 2.858404 1_545
Na1 O51 2.508188 1_555
Na1 O67 2.539137 1_555
Na1 O68 2.662192 1_555
Na1 O53 2.703508 1_555
Na1 O17 2.778568 1_555
Na1 O32 2.854639 1_555
Na2 O52 2.510116 1_555
Na2 O68 2.536997 1_655
Na2 O66 2.671509 1_655
Na2 O51 2.699738 1_555
Na2 O15 2.732072 1_555
Na2 O30 2.850977 1_655
Na3 O49 2.362062 1_555
Na3 O14 2.672839 1_555
Na3 O71 2.697498 1_555
Na3 O4 2.744911 1_555
Na3 O6 2.793836 1_555
Na3 O50 2.801611 1_555
Na3 O69 2.864591 1_555
Na4 O50 2.376918 1_555
Na4 O48 2.626519 1_555
Na4 O12 2.643849 1_555
Na4 O69 2.671190 1_655
Na4 O7 2.805933 1_655
Na4 O70 2.819617 1_655
Na4 O5 2.917022 1_555
Na5 O65 2.485369 1_555
Na5 O43 2.512096 1_555
Na5 O28 2.610555 1_555
Na5 O64 2.629257 1_555
Na5 O42 2.695815 1_455
Na5 O7 2.715475 1_555
Na6 O8 2.453075 1_555
Na6 O63 2.473854 1_555
Na6 O44 2.505593 1_455
Na6 O65 2.629885 1_555
Na6 O29 2.643084 1_555
Na6 O43 2.731417 1_565
Na7 O64 2.506996 1_555
Na7 O42 2.508371 1_565
Na7 O6 2.540003 1_555
Na7 O27 2.640874 1_555
Na7 O63 2.668293 1_555
Na7 O44 2.711805 1_555
Na8 O47 2.492644 1_565
Na8 O61 2.510146 1_555
Na8 O26 2.527949 1_554
Na8 O62 2.634422 1_555
Na8 O11 2.704840 1_555
Na8 O45 2.762256 1_455
Na9 O45 2.498237 1_555
Na9 O62 2.499216 1_555
Na9 O24 2.580759 1_554
Na9 O60 2.609785 1_555
Na9 O9 2.710617 1_555
Na9 O46 2.776119 1_565
Na10 O60 2.476885 1_555
Na10 O46 2.504464 1_455
Na10 O25 2.618435 1_554
Na10 O61 2.639390 1_555
Na10 O10 2.693538 1_555
Na10 O47 2.725673 1_555
Na11 O40 2.351035 1_555
Na11 O3 2.444083 1_555
Na11 O39 2.523551 1_555
Na11 O54 2.527321 1_555
Na11 O56 2.839065 1_555
Na12 O2 2.384581 1_555
Na12 O37 2.437749 1_555
Na12 O57 2.667325 1_555
Na12 O30 2.738220 1_655
Na12 O38 2.742500 1_655
Na12 O59 2.855843 1_555
Na13 O0 2.394036 1_555
Na13 O38 2.426418 1_555
Na13 O58 2.714094 1_555
Na13 O31 2.729343 1_545
Na13 O36 2.737675 1_445
Na13 O57 2.867266 1_555
Na14 O1 2.385707 1_555
Na14 O36 2.428279 1_555
Na14 O59 2.691656 1_555
Na14 O37 2.735472 1_565
Na14 O32 2.742407 1_555
Na14 O58 2.833215 1_555
Na15 O44 2.533049 1_555
Na15 O43 2.533904 1_665
Na15 O42 2.552979 1_565
Na15 O37 2.588385 1_565
Na15 O36 2.599391 1_555
Na15 O38 2.603778 1_665
Na16 O45 2.468082 1_556
Na16 O46 2.483576 1_566
Na16 O47 2.631360 1_666
Na16 O41 2.637023 1_555
Na16 O39 2.796889 1_665
Na16 O40 2.799551 1_665
Na17 O48 2.487425 1_555
Na17 O56 2.561313 1_555
Na17 O49 2.603905 1_555
Na17 O50 2.607848 1_555
Na17 O55 2.662993 1_555
Na17 O54 2.686575 1_555
Na18 O52 2.363365 1_555
Na18 O53 2.366691 1_555
Na18 O51 2.368416 1_555
Na18 O58 2.913084 1_555
Na18 O57 2.921055 1_555
Na18 O59 2.934370 1_555
Na19 O67 2.401554 1_555
Na19 O68 2.405926 1_555
Na19 O66 2.407982 1_555
Na19 O61 2.901026 1_555
Na19 O62 2.905582 1_555
Na19 O60 2.912056 1_555
Na20 O63 2.601990 1_555
Na20 O70 2.724366 1_555
Na20 O64 2.748322 1_555
Na20 O65 2.756985 1_555
Na20 O71 2.769251 1_555
Na20 O69 2.781102 1_555
Ca0 O0 2.223673 1_655
Ca0 O2 2.226550 1_555
Ca0 O1 2.227276 1_545
Ca0 O37 2.369889 1_555
Ca0 O36 2.375383 1_545
Ca0 O38 2.377876 1_655
Ca1 O5 2.199534 1_565
Ca1 O4 2.211107 1_555
Ca1 O41 2.292570 1_555
Ca1 O40 2.310055 1_665
Ca1 O3 2.313308 1_665
Ca1 O39 2.343066 1_665
Ca2 O7 2.382744 1_565
Ca2 O8 2.384938 1_555
Ca2 O6 2.442787 1_455
Ca2 O43 2.466131 1_565
Ca2 O44 2.516745 1_455
Ca2 O42 2.522227 1_465
Ca3 O11 2.257672 1_545
Ca3 O10 2.261639 1_555
Ca3 O9 2.262967 1_445
Ca3 O46 2.476492 1_455
Ca3 O47 2.483881 1_555
Ca3 O45 2.484659 1_445
Ca4 O13 2.186883 1_555
Ca4 O14 2.263004 1_555
Ca4 O12 2.280855 1_555
Ca4 O48 2.288135 1_555
Ca4 O49 2.329473 1_555
Ca4 O50 2.350620 1_555
Ca5 O17 2.216313 1_555
Ca5 O15 2.223082 1_555
Ca5 O16 2.223366 1_555
Ca5 O52 2.316722 1_555
Ca5 O53 2.317731 1_555
Ca5 O51 2.319619 1_555
Ca6 O25 2.232180 1_554
Ca6 O24 2.239339 1_554
Ca6 O26 2.246607 1_554
Ca6 O62 2.306963 1_555
Ca6 O61 2.316839 1_555
Ca6 O60 2.342754 1_555
Ca7 O29 2.252284 1_555
Ca7 O28 2.256241 1_555
Ca7 O27 2.260541 1_555
Ca7 O63 2.329504 1_555
Ca7 O64 2.337402 1_555
Ca7 O65 2.346991 1_555
Ca8 O66 2.313311 1_555
Ca8 O67 2.313501 1_555
Ca8 O68 2.316205 1_555
Ca8 O32 2.358253 1_555
Ca8 O30 2.362351 1_555
Ca8 O31 2.367759 1_555
Nb0 O20 1.963671 1_556
Nb0 O19 1.963687 1_556
Nb0 O18 2.007871 1_556
Nb0 O55 2.079884 1_555
Nb0 O56 2.110823 1_555
Nb0 O54 2.138880 1_555
Nb1 O21 1.986319 1_555
Nb1 O23 1.989201 1_555
Nb1 O22 1.990939 1_555
Nb1 O59 2.033922 1_555
Nb1 O58 2.033966 1_555
Nb1 O57 2.036948 1_555
Nb2 O70 1.995258 1_555
Nb2 O71 2.002363 1_555
Nb2 O34 2.007655 1_555
Nb2 O69 2.044266 1_555
Nb2 O33 2.058077 1_555
Nb2 O35 2.084712 1_555
O0 P0 1.551116 1_545
O1 P1 1.551489 1_555
O2 P2 1.551435 1_655
O3 P3 1.518138 1_555
O4 P4 1.512095 1_655
O5 P5 1.513081 1_545
O6 P5 1.561000 1_555
O7 P3 1.556357 1_555
O8 P4 1.547440 1_555
O9 P1 1.551497 1_555
O10 P2 1.551837 1_555
O11 P0 1.551426 1_555
O12 P6 1.518800 1_555
O13 P7 1.507609 1_555
O14 P8 1.519456 1_555
O15 P9 1.519545 1_555
O16 P10 1.519332 1_555
O17 P11 1.521710 1_555
O18 P11 1.638556 1_555
O19 P9 1.644030 1_555
O20 P10 1.641520 1_555
O21 P7 1.631020 1_555
O22 P8 1.633277 1_555
O23 P6 1.632782 1_555
O24 P12 1.516857 1_555
O25 P13 1.514434 1_555
O26 P14 1.508340 1_555
O27 P15 1.531100 1_555
O28 P16 1.531545 1_555
O29 P17 1.529638 1_555
O30 P17 1.541386 1_555
O31 P15 1.541705 1_555
O32 P16 1.541005 1_555
O33 P13 1.615376 1_555
O34 P14 1.615201 1_555
O35 P12 1.623824 1_555
O36 P17 1.541728 1_655
O37 P15 1.541863 1_545
O38 P16 1.541679 1_555
O39 P13 1.521867 1_555
O40 P14 1.524119 1_545
O41 P12 1.509432 1_555
O42 P6 1.550808 1_555
O43 P7 1.551166 1_555
O44 P8 1.549313 1_555
O45 P9 1.544905 1_555
O46 P10 1.544890 1_555
O47 P11 1.548295 1_555
O48 P5 1.531810 1_545
O49 P3 1.541299 1_555
O50 P4 1.550451 1_655
O51 P1 1.559163 1_555
O52 P2 1.558376 1_655
O53 P0 1.558831 1_545
O54 P12 1.614739 1_555
O55 P13 1.596981 1_655
O56 P14 1.601105 1_545
O57 P15 1.616056 1_545
O58 P16 1.614271 1_555
O59 P17 1.615211 1_655
O60 P11 1.542309 1_555
O61 P9 1.537673 1_455
O62 P10 1.538436 1_565
O63 P7 1.544930 1_565
O64 P8 1.544712 1_555
O65 P6 1.544968 1_455
O66 P0 1.559337 1_555
O67 P1 1.558990 1_555
O68 P2 1.559371 1_555
O69 P3 1.635526 1_555
O70 P4 1.623998 1_555
O71 P5 1.625481 1_555
