# generated using pymatgen
data_Na7MgSc3Si3(SO8)3
_symmetry_space_group_name_H-M   'P 1'
_cell_length_a   9.16544284
_cell_length_b   9.13273244
_cell_length_c   22.58036459
_cell_angle_alpha   90.22122723
_cell_angle_beta   89.87784581
_cell_angle_gamma   119.84407833
_symmetry_Int_Tables_number   1
_chemical_formula_structural   Na7MgSc3Si3(SO8)3
_chemical_formula_sum   'Na21 Mg3 Sc9 Si9 S9 O72'
_cell_volume   1639.42943383
_cell_formula_units_Z   3
loop_
 _symmetry_equiv_pos_site_id
 _symmetry_equiv_pos_as_xyz
  1  'x, y, z'
loop_
 _atom_site_type_symbol
 _atom_site_label
 _atom_site_symmetry_multiplicity
 _atom_site_fract_x
 _atom_site_fract_y
 _atom_site_fract_z
 _atom_site_occupancy
  Na  Na0  1  0.63809471  0.99329996  0.24216429  1
  Na  Na1  1  0.38643054  0.37805866  0.23967658  1
  Na  Na2  1  0.98230874  0.63400622  0.25454302  1
  Na  Na3  1  0.62446094  0.62582366  0.73982610  1
  Na  Na4  1  0.99664470  0.34845832  0.74965826  1
  Na  Na5  1  0.38342400  0.01853292  0.75506294  1
  Na  Na6  1  0.01772456  0.69668617  0.57680966  1
  Na  Na7  1  0.66744053  0.95441974  0.58415281  1
  Na  Na8  1  0.31842697  0.98484392  0.08028239  1
  Na  Na9  1  0.65441095  0.69210304  0.09109521  1
  Na  Na10  1  0.68972047  0.03344220  0.91645552  1
  Na  Na11  1  0.33444042  0.28926036  0.91894815  1
  Na  Na12  1  0.95966964  0.29863605  0.41233769  1
  Na  Na13  1  0.33196984  0.01802706  0.41585695  1
  Na  Na14  1  0.72088687  0.68691453  0.41475617  1
  Na  Na15  1  0.98731083  0.98377573  0.49637853  1
  Na  Na16  1  0.01262218  0.01086402  0.00383985  1
  Na  Na17  1  0.65524812  0.31980579  0.82995976  1
  Na  Na18  1  0.67786579  0.34650329  0.33150174  1
  Na  Na19  1  0.34633079  0.65775058  0.16156141  1
  Na  Na20  1  0.35184613  0.64888565  0.66681523  1
  Mg  Mg0  1  0.98287655  0.97779176  0.35262108  1
  Mg  Mg1  1  0.65047820  0.33214157  0.68575876  1
  Mg  Mg2  1  0.65754553  0.33700574  0.17759359  1
  Sc  Sc0  1  0.01183899  0.00824584  0.84931899  1
  Sc  Sc1  1  0.99286198  0.00432868  0.65124346  1
  Sc  Sc2  1  0.98475531  0.00353036  0.14486634  1
  Sc  Sc3  1  0.65179091  0.31437106  0.98614970  1
  Sc  Sc4  1  0.67811823  0.35022859  0.48146185  1
  Sc  Sc5  1  0.33289808  0.67398549  0.02138058  1
  Sc  Sc6  1  0.34893996  0.67400382  0.51600986  1
  Sc  Sc7  1  0.34420569  0.68079630  0.31807676  1
  Sc  Sc8  1  0.34460600  0.67922441  0.81407913  1
  Si  Si0  1  0.70224180  0.69616103  0.25081048  1
  Si  Si1  1  0.29612295  0.29709085  0.75051282  1
  Si  Si2  1  0.70551974  0.00463536  0.75055411  1
  Si  Si3  1  0.66653222  0.63053609  0.58600597  1
  Si  Si4  1  0.66710573  0.03965223  0.08533435  1
  Si  Si5  1  0.36527125  0.33229253  0.08426386  1
  Si  Si6  1  0.32749258  0.96175878  0.91714365  1
  Si  Si7  1  0.63540481  0.97104379  0.41700794  1
  Si  Si8  1  0.04362278  0.66971484  0.41740521  1
  S  S0  1  0.29083050  0.00058647  0.25157895  1
  S  S1  1  0.00238739  0.29407140  0.25237004  1
  S  S2  1  0.00029526  0.70530013  0.74904174  1
  S  S3  1  0.96019265  0.33445912  0.58438678  1
  S  S4  1  0.37219837  0.03992890  0.58371052  1
  S  S5  1  0.95792824  0.62247544  0.08500622  1
  S  S6  1  0.62979477  0.66678909  0.91671279  1
  S  S7  1  0.03897268  0.37637682  0.91552704  1
  S  S8  1  0.33098939  0.37078490  0.41555504  1
  O  O0  1  0.21215759  0.02551511  0.30493925  1
  O  O1  1  0.81524654  0.78143083  0.30956628  1
  O  O2  1  0.98397059  0.19523859  0.30626007  1
  O  O3  1  0.21017219  0.17973287  0.80979626  1
  O  O4  1  0.97270621  0.78800878  0.80091343  1
  O  O5  1  0.82060191  0.02704355  0.80930613  1
  O  O6  1  0.78803268  0.96479254  0.69186369  1
  O  O7  1  0.16873962  0.19953975  0.69520170  1
  O  O8  1  0.03017286  0.80916995  0.69499321  1
  O  O9  1  0.79163739  0.82009910  0.19297613  1
  O  O10  1  0.02830573  0.21139922  0.19957081  1
  O  O11  1  0.18909044  0.97921721  0.19783847  1
  O  O12  1  0.87828608  0.35594479  0.63746923  1
  O  O13  1  0.47797855  0.11938528  0.63662057  1
  O  O14  1  0.65331134  0.52457413  0.64460189  1
  O  O15  1  0.88375611  0.52622654  0.13966135  1
  O  O16  1  0.63938854  0.12519878  0.14424892  1
  O  O17  1  0.48308796  0.37394624  0.14262885  1
  O  O18  1  0.45591576  0.30339704  0.02498066  1
  O  O19  1  0.85155851  0.54164307  0.03270869  1
  O  O20  1  0.69150234  0.14838487  0.02462367  1
  O  O21  1  0.45233278  0.13783285  0.52940363  1
  O  O22  1  0.69207400  0.54077346  0.52598708  1
  O  O23  1  0.85507636  0.30905508  0.53034939  1
  O  O24  1  0.54602022  0.69006211  0.96946780  1
  O  O25  1  0.14877776  0.45949859  0.96703503  1
  O  O26  1  0.31238495  0.85034972  0.97552648  1
  O  O27  1  0.54566179  0.84557073  0.47409913  1
  O  O28  1  0.30334318  0.45113369  0.46798600  1
  O  O29  1  0.15622816  0.68688102  0.47645304  1
  O  O30  1  0.12727288  0.63123386  0.35875854  1
  O  O31  1  0.51349071  0.88155719  0.35881950  1
  O  O32  1  0.36286120  0.47765523  0.36196359  1
  O  O33  1  0.11915769  0.47028339  0.86032440  1
  O  O34  1  0.35636933  0.87163128  0.85826068  1
  O  O35  1  0.52260858  0.63828173  0.86301431  1
  O  O36  1  0.03412368  0.84367812  0.41404292  1
  O  O37  1  0.82540365  0.99950104  0.41245330  1
  O  O38  1  0.18110407  0.20235311  0.40836790  1
  O  O39  1  0.01865487  0.20177495  0.91286862  1
  O  O40  1  0.16419167  0.99100650  0.91398564  1
  O  O41  1  0.79458461  0.82378162  0.91094916  1
  O  O42  1  0.97516569  0.17943197  0.58738318  1
  O  O43  1  0.20012008  0.01587521  0.58868811  1
  O  O44  1  0.84173722  0.82103623  0.58591373  1
  O  O45  1  0.97858721  0.79616906  0.08946305  1
  O  O46  1  0.82559086  0.00150204  0.08583218  1
  O  O47  1  0.18653523  0.15224345  0.09044834  1
  O  O48  1  0.69187304  0.17554908  0.74345371  1
  O  O49  1  0.48384438  0.31940372  0.74708833  1
  O  O50  1  0.85186364  0.53436473  0.74388082  1
  O  O51  1  0.68486634  0.50765283  0.24523562  1
  O  O52  1  0.84928287  0.31060986  0.24649449  1
  O  O53  1  0.46435910  0.14755950  0.24755997  1
  O  O54  1  0.64840545  0.51587789  0.92189140  1
  O  O55  1  0.86982783  0.35809366  0.92048208  1
  O  O56  1  0.50349613  0.15139656  0.91846798  1
  O  O57  1  0.64032132  0.15292368  0.42388169  1
  O  O58  1  0.48272934  0.35157355  0.42248829  1
  O  O59  1  0.85170551  0.50121946  0.42126924  1
  O  O60  1  0.34807152  0.50109827  0.07416779  1
  O  O61  1  0.13069882  0.64585703  0.07909246  1
  O  O62  1  0.49380706  0.84975385  0.07959639  1
  O  O63  1  0.35402100  0.86630508  0.57961725  1
  O  O64  1  0.50237878  0.65947666  0.58063447  1
  O  O65  1  0.12784254  0.48880604  0.57855389  1
  O  O66  1  0.30235398  0.84097132  0.25523226  1
  O  O67  1  0.51017031  0.67716538  0.25434476  1
  O  O68  1  0.15497908  0.46697458  0.25507734  1
  O  O69  1  0.30686142  0.48276353  0.75587016  1
  O  O70  1  0.15314908  0.68795988  0.75596205  1
  O  O71  1  0.51555081  0.83386012  0.75454069  1
loop_
_geom_bond_atom_site_label_1
_geom_bond_atom_site_label_2
_geom_bond_distance
_geom_bond_site_symmetry_2
Na0 O16 2.519086 1_565
Na0 O67 2.534106 1_555
Na0 O52 2.563180 1_565
Na0 O53 2.601119 1_565
Na0 O66 2.688908 1_555
Na0 O9 2.812734 1_555
Na0 O31 2.851711 1_555
Na1 O17 2.369085 1_555
Na1 O51 2.382566 1_555
Na1 O67 2.401895 1_555
Na1 O53 2.544235 1_555
Na1 O68 2.643801 1_555
Na1 O32 2.944884 1_555
Na1 O10 2.990047 1_555
Na2 O51 2.382732 1_555
Na2 O52 2.579818 1_555
Na2 O66 2.580530 1_655
Na2 O68 2.689759 1_655
Na2 O30 2.711258 1_655
Na2 O15 2.760317 1_555
Na2 O1 2.780619 1_555
Na3 O14 2.402892 1_555
Na3 O49 2.435618 1_555
Na3 O69 2.554547 1_555
Na3 O71 2.568638 1_555
Na3 O50 2.604658 1_555
Na3 O6 2.898915 1_555
Na3 O35 2.951965 1_555
Na4 O48 2.434309 1_555
Na4 O69 2.477438 1_655
Na4 O50 2.627804 1_555
Na4 O70 2.694867 1_655
Na4 O33 2.736827 1_655
Na4 O12 2.772330 1_555
Na4 O7 2.821985 1_655
Na4 O5 2.888137 1_555
Na5 O49 2.432244 1_555
Na5 O48 2.466223 1_555
Na5 O71 2.518681 1_545
Na5 O34 2.642350 1_545
Na5 O70 2.688486 1_545
Na5 O13 2.822567 1_555
Na5 O3 2.919011 1_555
Na6 O44 2.398689 1_455
Na6 O43 2.551451 1_565
Na6 O65 2.555854 1_555
Na6 O29 2.618011 1_555
Na6 O63 2.674348 1_555
Na6 O22 2.832871 1_455
Na6 O8 2.837847 1_555
Na7 O64 2.343869 1_555
Na7 O44 2.444379 1_555
Na7 O42 2.532636 1_565
Na7 O63 2.570975 1_555
Na7 O6 2.655456 1_555
Na7 O27 2.701468 1_555
Na8 O47 2.384695 1_565
Na8 O62 2.465717 1_555
Na8 O26 2.649047 1_554
Na8 O61 2.691386 1_555
Na8 O45 2.715173 1_455
Na8 O18 2.825534 1_565
Na8 O11 2.895002 1_555
Na8 O16 2.938375 1_565
Na9 O46 2.459566 1_565
Na9 O60 2.489403 1_555
Na9 O62 2.533985 1_555
Na9 O9 2.601724 1_555
Na9 O45 2.630975 1_555
Na9 O17 2.782044 1_555
Na9 O24 2.919377 1_554
Na10 O56 2.430037 1_555
Na10 O41 2.536709 1_545
Na10 O55 2.579041 1_555
Na10 O39 2.616512 1_655
Na10 O20 2.651645 1_556
Na10 O5 2.711562 1_555
Na11 O40 2.373815 1_545
Na11 O56 2.434699 1_555
Na11 O54 2.576967 1_555
Na11 O39 2.594904 1_555
Na11 O18 2.618135 1_556
Na11 O3 2.689151 1_555
Na12 O37 2.373135 1_545
Na12 O59 2.502258 1_555
Na12 O57 2.555137 1_555
Na12 O38 2.583627 1_655
Na12 O2 2.620730 1_555
Na12 O23 2.847256 1_555
Na12 O30 2.902826 1_655
Na12 O28 3.012923 1_655
Na13 O36 2.379721 1_545
Na13 O57 2.464342 1_555
Na13 O58 2.649352 1_555
Na13 O38 2.663527 1_555
Na13 O0 2.751581 1_555
Na13 O21 2.788716 1_555
Na13 O31 2.832373 1_545
Na13 O29 2.964305 1_545
Na14 O36 2.490266 1_655
Na14 O37 2.519761 1_555
Na14 O59 2.522268 1_555
Na14 O1 2.529590 1_555
Na14 O58 2.742910 1_555
Na14 O22 2.798507 1_555
Na14 O27 2.960787 1_555
Na15 O36 2.408789 1_655
Na15 O37 2.457682 1_555
Na15 O44 2.472775 1_555
Na15 O38 2.752415 1_665
Na15 O42 2.756201 1_565
Na15 O43 2.771016 1_665
Na16 O47 2.444974 1_555
Na16 O46 2.493077 1_455
Na16 O40 2.513018 1_544
Na16 O45 2.664178 1_445
Na16 O39 2.682125 1_554
Na16 O41 2.811454 1_444
Na17 O49 2.444669 1_555
Na17 O48 2.466050 1_555
Na17 O56 2.485365 1_555
Na17 O50 2.713860 1_555
Na17 O55 2.737783 1_555
Na17 O54 2.757193 1_555
Na18 O51 2.427372 1_555
Na18 O59 2.528791 1_555
Na18 O52 2.599074 1_555
Na18 O57 2.648610 1_555
Na18 O53 2.678382 1_555
Na18 O58 2.736412 1_555
Na19 O60 2.437635 1_555
Na19 O62 2.445956 1_555
Na19 O67 2.534036 1_555
Na19 O61 2.680669 1_555
Na19 O68 2.746237 1_555
Na19 O66 2.841912 1_555
Na20 O64 2.357328 1_555
Na20 O69 2.431640 1_555
Na20 O71 2.548143 1_555
Na20 O65 2.707772 1_555
Na20 O63 2.794741 1_555
Na20 O70 2.849842 1_555
Mg0 O1 1.942245 1_555
Mg0 O37 2.054791 1_555
Mg0 O36 2.057393 1_655
Mg0 O0 2.201753 1_665
Mg0 O2 2.244085 1_565
Mg0 O38 2.317926 1_665
Mg1 O14 1.979901 1_555
Mg1 O49 2.019723 1_555
Mg1 O13 2.107017 1_555
Mg1 O48 2.107824 1_555
Mg1 O12 2.266310 1_555
Mg1 O50 2.266941 1_555
Mg2 O17 1.959141 1_555
Mg2 O16 2.001327 1_555
Mg2 O51 2.102208 1_555
Mg2 O15 2.111037 1_555
Mg2 O53 2.363205 1_555
Mg2 O52 2.450133 1_555
O0 S0 1.476860 1_555
O1 Si0 1.623118 1_555
O2 S1 1.476452 1_655
O3 Si1 1.651525 1_555
O3 Sc0 1.929778 1_555
O4 S2 1.479328 1_655
O4 Sc0 2.153045 1_665
O5 Si2 1.644217 1_555
O5 Sc0 2.055588 1_655
O6 Si2 1.651219 1_565
O6 Sc1 1.953629 1_565
O7 Si1 1.636786 1_555
O7 Sc1 1.973580 1_455
O8 S2 1.487714 1_555
O8 Sc1 2.211614 1_465
O9 Si0 1.655825 1_555
O9 Sc2 2.043068 1_565
O10 S1 1.489378 1_555
O10 Sc2 2.125777 1_455
O11 S0 1.483925 1_565
O11 Sc2 2.326583 1_465
O12 S3 1.476387 1_555
O13 S4 1.480523 1_555
O14 Si3 1.610684 1_555
O15 S5 1.472397 1_555
O16 Si4 1.622568 1_555
O17 Si5 1.625112 1_555
O18 Si5 1.662092 1_555
O18 Sc3 1.953658 1_554
O19 S5 1.473713 1_555
O19 Sc3 2.230421 1_554
O20 Si4 1.644260 1_555
O20 Sc3 1.935421 1_554
O21 S4 1.481102 1_555
O21 Sc4 2.286588 1_555
O22 Si3 1.656687 1_555
O22 Sc4 1.954728 1_555
O23 S3 1.500415 1_555
O23 Sc4 2.146715 1_555
O24 S6 1.486720 1_555
O24 Sc5 2.217513 1_556
O25 S7 1.476365 1_555
O25 Sc5 2.211559 1_556
O26 Si6 1.631473 1_555
O26 Sc5 2.004203 1_556
O27 Si7 1.649345 1_555
O27 Sc6 1.947823 1_555
O28 S8 1.476953 1_555
O28 Sc6 2.152149 1_555
O29 Si8 1.646427 1_555
O29 Sc6 2.036101 1_555
O30 Si8 1.650831 1_555
O30 Sc7 2.025264 1_555
O31 Si7 1.652857 1_555
O31 Sc7 1.943485 1_555
O32 S8 1.492034 1_555
O32 Sc7 2.187192 1_555
O33 S7 1.485403 1_555
O33 Sc8 2.254596 1_555
O34 Si6 1.649929 1_555
O34 Sc8 1.973072 1_555
O35 S6 1.500406 1_555
O35 Sc8 2.154187 1_555
O36 Si8 1.635889 1_555
O37 Si7 1.630850 1_555
O38 S8 1.474980 1_555
O39 S7 1.511545 1_555
O39 Sc0 2.248963 1_555
O40 Si6 1.647765 1_555
O40 Sc0 2.082335 1_565
O41 S6 1.482953 1_555
O41 Sc0 2.325358 1_665
O42 S3 1.490679 1_555
O42 Sc1 2.222599 1_555
O43 S4 1.484240 1_555
O43 Sc1 2.324909 1_455
O44 Si3 1.680757 1_555
O44 Sc1 2.139808 1_565
O45 S5 1.504069 1_555
O45 Sc2 2.242788 1_565
O46 Si4 1.653887 1_555
O46 Sc2 1.971448 1_555
O47 Si5 1.651301 1_555
O47 Sc2 2.068343 1_455
O48 Si2 1.635274 1_555
O49 Si1 1.630459 1_555
O50 S2 1.478828 1_655
O51 Si0 1.652462 1_555
O52 S1 1.490465 1_655
O53 S0 1.488309 1_555
O54 S6 1.475671 1_555
O54 Sc3 2.360227 1_555
O55 S7 1.478363 1_655
O55 Sc3 2.355735 1_555
O56 Si6 1.679826 1_545
O56 Sc3 2.091933 1_555
O57 Si7 1.645838 1_545
O57 Sc4 2.102375 1_555
O58 S8 1.494496 1_555
O58 Sc4 2.238900 1_555
O59 Si8 1.666147 1_655
O59 Sc4 2.025300 1_555
O60 Si5 1.642645 1_555
O60 Sc5 2.041302 1_555
O61 S5 1.494568 1_455
O61 Sc5 2.171907 1_555
O62 Si4 1.674783 1_565
O62 Sc5 2.028688 1_555
O63 S4 1.512157 1_565
O63 Sc6 2.246961 1_555
O64 Si3 1.656809 1_555
O64 Sc6 2.078636 1_555
O65 S3 1.486689 1_455
O65 Sc6 2.357258 1_555
O66 S0 1.515624 1_565
O66 Sc7 2.208522 1_555
O67 Si0 1.682585 1_555
O67 Sc7 2.103913 1_555
O68 S1 1.501602 1_555
O68 Sc7 2.337348 1_555
O69 Si1 1.652899 1_555
O69 Sc8 2.105342 1_555
O70 S2 1.494712 1_555
O70 Sc8 2.226600 1_555
O71 Si2 1.664286 1_565
O71 Sc8 2.014968 1_555
