# generated using pymatgen
data_Ga3Co
_symmetry_space_group_name_H-M   'P 1'
_cell_length_a   6.18072931
_cell_length_b   6.18072931
_cell_length_c   6.39402288
_cell_angle_alpha   90.00000000
_cell_angle_beta   90.00000000
_cell_angle_gamma   90.00000000
_symmetry_Int_Tables_number   1
_chemical_formula_structural   Ga3Co
_chemical_formula_sum   'Ga12 Co4'
_cell_volume   244.26072030
_cell_formula_units_Z   4
loop_
 _symmetry_equiv_pos_site_id
 _symmetry_equiv_pos_as_xyz
  1  'x, y, z'
loop_
 _atom_site_type_symbol
 _atom_site_label
 _atom_site_symmetry_multiplicity
 _atom_site_fract_x
 _atom_site_fract_y
 _atom_site_fract_z
 _atom_site_occupancy
  Ga  Ga0  1  0.00000000  -0.00000000  0.25000000  1
  Ga  Ga1  1  0.00000000  -0.00000000  0.75000000  1
  Ga  Ga2  1  0.50000000  0.50000000  0.25000000  1
  Ga  Ga3  1  0.50000000  0.50000000  0.75000000  1
  Ga  Ga4  1  0.15173663  0.34826337  0.99298508  1
  Ga  Ga5  1  0.34826337  0.84826337  0.00701492  1
  Ga  Ga6  1  0.65173663  0.15173663  0.00701492  1
  Ga  Ga7  1  0.84826337  0.65173663  0.99298508  1
  Ga  Ga8  1  0.84826337  0.65173663  0.50701492  1
  Ga  Ga9  1  0.15173663  0.34826337  0.50701492  1
  Ga  Ga10  1  0.34826337  0.84826337  0.49298508  1
  Ga  Ga11  1  0.65173663  0.15173663  0.49298508  1
  Co  Co0  1  0.34409123  0.15590877  0.25000000  1
  Co  Co1  1  0.15590877  0.65590877  0.75000000  1
  Co  Co2  1  0.84409123  0.34409123  0.75000000  1
  Co  Co3  1  0.65590877  0.84409123  0.25000000  1
loop_
_geom_bond_atom_site_label_1
_geom_bond_atom_site_label_2
_geom_bond_distance
_geom_bond_site_symmetry_2
Ga0 Ga5 2.815446 1_545
Ga0 Ga11 2.815446 1_455
Ga0 Ga10 2.815446 1_545
Ga0 Ga6 2.815446 1_455
Ga0 Ga7 2.865925 1_444
Ga0 Ga8 2.865925 1_445
Ga0 Ga4 2.865925 1_554
Ga0 Ga9 2.865925 1_555
Ga1 Ga8 2.815446 1_445
Ga1 Ga9 2.815446 1_555
Ga1 Ga7 2.815446 1_445
Ga1 Ga4 2.815446 1_555
Ga1 Ga10 2.865925 1_545
Ga1 Ga6 2.865925 1_456
Ga1 Ga11 2.865925 1_455
Ga1 Ga5 2.865925 1_546
Ga2 Ga6 2.815446 1_555
Ga2 Ga5 2.815446 1_555
Ga2 Ga4 2.865925 1_554
Ga2 Ga9 2.865925 1_555
Ga2 Ga7 2.865925 1_554
Ga2 Ga8 2.865925 1_555
Ga3 Ga9 2.815446 1_555
Ga3 Ga4 2.815446 1_555
Ga3 Ga8 2.815446 1_555
Ga3 Ga7 2.815446 1_555
Ga3 Ga6 2.865925 1_556
Ga3 Ga5 2.865925 1_556
Ga4 Ga7 2.652621 1_455
Ga5 Ga6 2.652621 1_565
Ga8 Ga9 2.652621 1_655
Ga10 Ga11 2.652621 1_565
Ga10 Ga2 2.815446 1_555
Ga10 Ga3 2.865925 1_555
Ga11 Ga2 2.815446 1_555
Ga11 Ga3 2.865925 1_555
Co0 Ga2 2.334863 1_555
Co0 Ga0 2.334863 1_555
Co0 Ga4 2.351076 1_554
Co0 Ga9 2.351076 1_555
Co0 Ga5 2.455626 1_545
Co0 Ga10 2.455626 1_545
Co0 Ga11 2.455626 1_555
Co0 Ga6 2.455626 1_555
Co0 Co3 2.725557 1_545
Co1 Ga1 2.334863 1_565
Co1 Ga3 2.334863 1_555
Co1 Ga10 2.351076 1_555
Co1 Ga5 2.351076 1_556
Co1 Ga8 2.455626 1_455
Co1 Ga9 2.455626 1_555
Co1 Ga7 2.455626 1_455
Co1 Ga4 2.455626 1_555
Co1 Co2 2.725557 1_455
Co2 Ga3 2.334863 1_555
Co2 Ga1 2.334863 1_655
Co2 Ga11 2.351076 1_555
Co2 Ga6 2.351076 1_556
Co2 Ga8 2.455626 1_555
Co2 Ga9 2.455626 1_655
Co2 Ga4 2.455626 1_655
Co2 Ga7 2.455626 1_555
Co3 Ga0 2.334863 1_665
Co3 Ga2 2.334863 1_555
Co3 Ga7 2.351076 1_554
Co3 Ga8 2.351076 1_555
Co3 Ga6 2.455626 1_565
Co3 Ga5 2.455626 1_555
Co3 Ga10 2.455626 1_555
Co3 Ga11 2.455626 1_565
