# generated using pymatgen
data_NaCaAl3(SO4)6
_symmetry_space_group_name_H-M   'P 1'
_cell_length_a   8.46778681
_cell_length_b   8.46778656
_cell_length_c   22.07914953
_cell_angle_alpha   90.00000000
_cell_angle_beta   90.00000000
_cell_angle_gamma   120.00000096
_symmetry_Int_Tables_number   1
_chemical_formula_structural   NaCaAl3(SO4)6
_chemical_formula_sum   'Na3 Ca3 Al9 S18 O72'
_cell_volume   1371.04839920
_cell_formula_units_Z   3
loop_
 _symmetry_equiv_pos_site_id
 _symmetry_equiv_pos_as_xyz
  1  'x, y, z'
loop_
 _atom_site_type_symbol
 _atom_site_label
 _atom_site_symmetry_multiplicity
 _atom_site_fract_x
 _atom_site_fract_y
 _atom_site_fract_z
 _atom_site_occupancy
  Na  Na0  1  -0.00000000  0.00000000  0.00132565  1
  Na  Na1  1  0.66666700  0.33333300  0.83155541  1
  Na  Na2  1  0.66666700  0.33333300  0.33263769  1
  Ca  Ca0  1  -0.00000000  0.00000000  0.35803889  1
  Ca  Ca1  1  -0.00000000  0.00000000  0.85103927  1
  Ca  Ca2  1  0.66666700  0.33333300  0.98185678  1
  Al  Al0  1  -0.00000000  0.00000000  0.64665814  1
  Al  Al1  1  -0.00000000  0.00000000  0.15568780  1
  Al  Al2  1  0.66666700  0.33333300  0.67857730  1
  Al  Al3  1  0.66666700  0.33333300  0.17931785  1
  Al  Al4  1  0.66666700  0.33333300  0.48220593  1
  Al  Al5  1  0.33333300  0.66666700  0.02435589  1
  Al  Al6  1  0.33333300  0.66666700  0.52475735  1
  Al  Al7  1  0.33333300  0.66666700  0.31338787  1
  Al  Al8  1  0.33333300  0.66666700  0.80795837  1
  S  S0  1  0.30714172  0.00328213  0.24907193  1
  S  S1  1  0.69614041  0.69285828  0.24907193  1
  S  S2  1  0.99671787  0.30385959  0.24907193  1
  S  S3  1  0.30570664  0.30261049  0.74477799  1
  S  S4  1  0.99690385  0.69429336  0.74477799  1
  S  S5  1  0.69738951  0.00309615  0.74477799  1
  S  S6  1  0.95470425  0.32840340  0.58227507  1
  S  S7  1  0.37370015  0.04529575  0.58227507  1
  S  S8  1  0.67159660  0.62629985  0.58227507  1
  S  S9  1  0.97147362  0.64320640  0.08617504  1
  S  S10  1  0.67173377  0.02852638  0.08617504  1
  S  S11  1  0.35679360  0.32826623  0.08617504  1
  S  S12  1  0.60472712  0.66672316  0.91639892  1
  S  S13  1  0.06199504  0.39527288  0.91639892  1
  S  S14  1  0.33327684  0.93800496  0.91639892  1
  S  S15  1  0.59935171  0.95509498  0.42105841  1
  S  S16  1  0.35574227  0.40064829  0.42105841  1
  S  S17  1  0.04490502  0.64425773  0.42105841  1
  O  O0  1  0.25062163  0.05580452  0.30432603  1
  O  O1  1  0.80518289  0.74937837  0.30432603  1
  O  O2  1  0.94419548  0.19481711  0.30432603  1
  O  O3  1  0.24936965  0.19610406  0.80074747  1
  O  O4  1  0.94673441  0.75063035  0.80074747  1
  O  O5  1  0.80389594  0.05326559  0.80074747  1
  O  O6  1  0.79332525  0.97023530  0.69384215  1
  O  O7  1  0.17691005  0.20667475  0.69384215  1
  O  O8  1  0.02976470  0.82308995  0.69384215  1
  O  O9  1  0.79135861  0.82016162  0.19805377  1
  O  O10  1  0.02880301  0.20864139  0.19805377  1
  O  O11  1  0.17983838  0.97119699  0.19805377  1
  O  O12  1  0.87175010  0.36772162  0.63474470  1
  O  O13  1  0.49597252  0.12824990  0.63474470  1
  O  O14  1  0.63227838  0.50402748  0.63474470  1
  O  O15  1  0.87257569  0.51275501  0.13612115  1
  O  O16  1  0.64018033  0.12742431  0.13612115  1
  O  O17  1  0.48724499  0.35981967  0.13612115  1
  O  O18  1  0.41145562  0.27810089  0.02993389  1
  O  O19  1  0.86664627  0.58854438  0.02993389  1
  O  O20  1  0.72189911  0.13335373  0.02993389  1
  O  O21  1  0.45538819  0.16437174  0.52831090  1
  O  O22  1  0.70898455  0.54461181  0.52831090  1
  O  O23  1  0.83562826  0.29101545  0.52831090  1
  O  O24  1  0.50674224  0.65844125  0.97320593  1
  O  O25  1  0.15169801  0.49325776  0.97320593  1
  O  O26  1  0.34155875  0.84830199  0.97320593  1
  O  O27  1  0.50836286  0.84822753  0.47558768  1
  O  O28  1  0.33986366  0.49163714  0.47558768  1
  O  O29  1  0.15177247  0.66013634  0.47558768  1
  O  O30  1  0.12827128  0.62078116  0.36442202  1
  O  O31  1  0.49250888  0.87172872  0.36442202  1
  O  O32  1  0.37921884  0.50749112  0.36442202  1
  O  O33  1  0.16023790  0.48529675  0.85967951  1
  O  O34  1  0.32505785  0.83976210  0.85967951  1
  O  O35  1  0.51470325  0.67494215  0.85967951  1
  O  O36  1  0.02367425  0.80301488  0.41808782  1
  O  O37  1  0.77934064  0.97632575  0.41808782  1
  O  O38  1  0.19698512  0.22065936  0.41808782  1
  O  O39  1  0.04935101  0.21625785  0.92122198  1
  O  O40  1  0.16690684  0.95064899  0.92122198  1
  O  O41  1  0.78374215  0.83309316  0.92122198  1
  O  O42  1  0.97204872  0.16605181  0.59368024  1
  O  O43  1  0.19400309  0.02795128  0.59368024  1
  O  O44  1  0.83394819  0.80599691  0.59368024  1
  O  O45  1  0.00066533  0.82663965  0.10137684  1
  O  O46  1  0.82597432  0.99933467  0.10137684  1
  O  O47  1  0.17336035  0.17402568  0.10137684  1
  O  O48  1  0.66874891  0.15880462  0.73103283  1
  O  O49  1  0.49005671  0.33125109  0.73103283  1
  O  O50  1  0.84119538  0.50994329  0.73103283  1
  O  O51  1  0.66358879  0.50748430  0.23382131  1
  O  O52  1  0.84389651  0.33641121  0.23382131  1
  O  O53  1  0.49251570  0.15610349  0.23382131  1
  O  O54  1  0.61752570  0.50044403  0.91164736  1
  O  O55  1  0.88291933  0.38247430  0.91164736  1
  O  O56  1  0.49955597  0.11708067  0.91164736  1
  O  O57  1  0.60986665  0.13695879  0.42578139  1
  O  O58  1  0.52709314  0.39013335  0.42578139  1
  O  O59  1  0.86304121  0.47290686  0.42578139  1
  O  O60  1  0.34368789  0.49490964  0.07917482  1
  O  O61  1  0.15122075  0.65631211  0.07917482  1
  O  O62  1  0.50509036  0.84877925  0.07917482  1
  O  O63  1  0.35107386  0.86186936  0.57386560  1
  O  O64  1  0.51079450  0.64892614  0.57386560  1
  O  O65  1  0.13813064  0.48920550  0.57386560  1
  O  O66  1  0.31677339  0.83474176  0.25795049  1
  O  O67  1  0.51796737  0.68322661  0.25795049  1
  O  O68  1  0.16525824  0.48203263  0.25795049  1
  O  O69  1  0.31996603  0.48275116  0.75272871  1
  O  O70  1  0.16278413  0.68003397  0.75272871  1
  O  O71  1  0.51724884  0.83721587  0.75272871  1
loop_
_geom_bond_atom_site_label_1
_geom_bond_atom_site_label_2
_geom_bond_distance
_geom_bond_site_symmetry_2
Na0 O39 2.427094 1_554
Na0 O41 2.427094 1_444
Na0 O40 2.427094 1_544
Na0 O45 2.653892 1_545
Na0 O47 2.653892 1_555
Na0 O46 2.653892 1_445
Na1 O56 2.427239 1_555
Na1 O54 2.427239 1_555
Na1 O55 2.427239 1_555
Na1 O50 2.671410 1_555
Na1 O48 2.671410 1_555
Na1 O49 2.671410 1_555
Na2 O57 2.534948 1_555
Na2 O59 2.534948 1_555
Na2 O58 2.534948 1_555
Na2 O53 2.640825 1_555
Na2 O51 2.640825 1_555
Na2 O52 2.640825 1_555
Ca0 O38 2.216916 1_555
Ca0 O37 2.216916 1_445
Ca0 O36 2.216916 1_545
Ca0 O1 2.265101 1_445
Ca0 O2 2.265101 1_455
Ca0 O0 2.265101 1_555
Ca1 O4 2.223262 1_445
Ca1 O3 2.223262 1_555
Ca1 O5 2.223263 1_455
Ca1 O39 2.272431 1_555
Ca1 O41 2.272432 1_445
Ca1 O40 2.272432 1_545
Ca2 O19 2.237197 1_556
Ca2 O20 2.237197 1_556
Ca2 O18 2.237197 1_556
Ca2 O56 2.273190 1_555
Ca2 O54 2.273190 1_555
Ca2 O55 2.273190 1_555
Al0 O44 1.932389 1_445
Al0 O42 1.932389 1_455
Al0 O43 1.932389 1_555
Al0 O7 1.941782 1_555
Al0 O8 1.941782 1_545
Al0 O6 1.941782 1_445
Al1 O45 1.897683 1_545
Al1 O47 1.897683 1_555
Al1 O46 1.897683 1_445
Al1 O10 1.903918 1_555
Al1 O9 1.903918 1_445
Al1 O11 1.903918 1_545
Al2 O13 1.879227 1_555
Al2 O14 1.879227 1_555
Al2 O12 1.879227 1_555
Al2 O50 1.884629 1_555
Al2 O48 1.884629 1_555
Al2 O49 1.884629 1_555
Al3 O17 1.899733 1_555
Al3 O15 1.899733 1_555
Al3 O16 1.899733 1_555
Al3 O53 1.913618 1_555
Al3 O51 1.913618 1_555
Al3 O52 1.913618 1_555
Al4 O22 1.929847 1_555
Al4 O21 1.929847 1_555
Al4 O23 1.929847 1_555
Al4 O57 1.936147 1_555
Al4 O59 1.936147 1_555
Al4 O58 1.936147 1_555
Al5 O26 1.881152 1_554
Al5 O25 1.881152 1_554
Al5 O24 1.881152 1_554
Al5 O62 1.927555 1_555
Al5 O60 1.927555 1_555
Al5 O61 1.927555 1_555
Al6 O28 1.860179 1_555
Al6 O27 1.860179 1_555
Al6 O29 1.860179 1_555
Al6 O63 1.918874 1_555
Al6 O65 1.918874 1_555
Al6 O64 1.918874 1_555
Al7 O68 1.934681 1_555
Al7 O66 1.934681 1_555
Al7 O67 1.934681 1_555
Al7 O31 1.939353 1_555
Al7 O32 1.939353 1_555
Al7 O30 1.939353 1_555
Al8 O33 1.886812 1_555
Al8 O34 1.886812 1_555
Al8 O35 1.886812 1_555
Al8 O69 1.936208 1_555
Al8 O71 1.936208 1_555
Al8 O70 1.936208 1_555
O0 S0 1.458776 1_555
O1 S1 1.458776 1_555
O2 S2 1.458776 1_555
O3 S3 1.462126 1_555
O4 S4 1.462126 1_555
O5 S5 1.462126 1_555
O6 S5 1.492709 1_565
O7 S3 1.492709 1_555
O8 S4 1.492709 1_455
O9 S1 1.487225 1_555
O10 S2 1.487225 1_455
O11 S0 1.487225 1_565
O12 S6 1.476558 1_555
O13 S7 1.476558 1_555
O14 S8 1.476558 1_555
O15 S9 1.487467 1_555
O16 S10 1.487467 1_555
O17 S11 1.487467 1_555
O18 S11 1.460572 1_555
O19 S9 1.460572 1_555
O20 S10 1.460572 1_555
O21 S7 1.489070 1_555
O22 S8 1.489070 1_555
O23 S6 1.489070 1_555
O24 S12 1.486036 1_555
O25 S13 1.486036 1_555
O26 S14 1.486036 1_555
O27 S15 1.471334 1_555
O28 S16 1.471334 1_555
O29 S17 1.471334 1_555
O30 S17 1.497296 1_555
O31 S15 1.497296 1_555
O32 S16 1.497296 1_555
O33 S13 1.485698 1_555
O34 S14 1.485698 1_555
O35 S12 1.485698 1_555
O36 S17 1.444127 1_555
O37 S15 1.444135 1_555
O38 S16 1.444132 1_555
O39 S13 1.469129 1_555
O40 S14 1.469120 1_555
O41 S12 1.469125 1_555
O42 S6 1.475416 1_555
O43 S7 1.475425 1_555
O44 S8 1.475421 1_555
O45 S9 1.484070 1_455
O46 S10 1.484062 1_565
O47 S11 1.484067 1_555
O48 S5 1.486319 1_555
O49 S3 1.486327 1_555
O50 S4 1.486324 1_555
O51 S1 1.490190 1_555
O52 S2 1.490181 1_555
O53 S0 1.490187 1_555
O54 S12 1.468964 1_555
O55 S13 1.468947 1_655
O56 S14 1.468955 1_545
O57 S15 1.501078 1_545
O58 S16 1.501095 1_555
O59 S17 1.501086 1_655
O60 S11 1.477839 1_555
O61 S9 1.477822 1_455
O62 S10 1.477830 1_565
O63 S7 1.478538 1_565
O64 S8 1.478555 1_555
O65 S6 1.478545 1_455
O66 S0 1.482658 1_565
O67 S1 1.482666 1_555
O68 S2 1.482663 1_455
O69 S3 1.479201 1_555
O70 S4 1.479192 1_455
O71 S5 1.479197 1_565
