# generated using pymatgen
data_MgFe4(CoO4)2
_symmetry_space_group_name_H-M   'P 1'
_cell_length_a   6.26588028
_cell_length_b   6.00451479
_cell_length_c   5.97052582
_cell_angle_alpha   59.81149471
_cell_angle_beta   64.02970908
_cell_angle_gamma   61.37050950
_symmetry_Int_Tables_number   1
_chemical_formula_structural   MgFe4(CoO4)2
_chemical_formula_sum   'Mg1 Fe4 Co2 O8'
_cell_volume   164.58371350
_cell_formula_units_Z   1
loop_
 _symmetry_equiv_pos_site_id
 _symmetry_equiv_pos_as_xyz
  1  'x, y, z'
loop_
 _atom_site_type_symbol
 _atom_site_label
 _atom_site_symmetry_multiplicity
 _atom_site_fract_x
 _atom_site_fract_y
 _atom_site_fract_z
 _atom_site_occupancy
  Mg  Mg0  1  0.62500000  0.12500000  0.12500000  1
  Fe  Fe0  1  0.10496300  0.93625200  0.02253400  1
  Fe  Fe1  1  0.14503700  0.31374800  0.22746600  1
  Fe  Fe2  1  0.12500000  0.62500000  0.62500000  1
  Fe  Fe3  1  0.62500000  0.62500000  0.12500000  1
  Co  Co0  1  0.62500000  0.12500000  0.62500000  1
  Co  Co1  1  0.62500000  0.62500000  0.62500000  1
  O  O0  1  0.37569900  0.39962900  0.34710100  1
  O  O1  1  0.37700500  0.38452600  0.85394400  1
  O  O2  1  0.37569900  0.87757100  0.34710100  1
  O  O3  1  0.79922300  0.39331400  0.41415000  1
  O  O4  1  0.45077700  0.85668600  0.83585000  1
  O  O5  1  0.87430100  0.37242900  0.90289900  1
  O  O6  1  0.87299500  0.86547400  0.39605600  1
  O  O7  1  0.87430100  0.85037100  0.90289900  1
loop_
_geom_bond_atom_site_label_1
_geom_bond_atom_site_label_2
_geom_bond_distance
_geom_bond_site_symmetry_2
Mg0 O6 2.192658 1_545
Mg0 O1 2.192658 1_554
Mg0 O2 2.198706 1_545
Mg0 O5 2.198706 1_554
Mg0 O0 2.198707 1_555
Mg0 O7 2.198707 1_544
Fe0 O4 1.895792 1_554
Fe0 O6 2.016572 1_455
Fe0 O5 2.203132 1_464
Fe0 O7 2.203136 1_454
Fe1 O3 1.895792 1_455
Fe1 O1 2.016572 1_554
Fe1 O2 2.203132 1_545
Fe1 O0 2.203136 1_555
Fe2 O1 2.041376 1_555
Fe2 O6 2.041376 1_455
Fe2 O5 2.233860 1_455
Fe2 O2 2.233860 1_555
Fe2 O7 2.233861 1_455
Fe2 O0 2.233861 1_555
Fe3 O4 1.971631 1_554
Fe3 O3 1.971631 1_555
Fe3 O7 2.106340 1_554
Fe3 O0 2.106340 1_555
Fe3 O5 2.106340 1_554
Fe3 O2 2.106340 1_555
Co0 O4 1.953001 1_545
Co0 O3 1.953001 1_555
Co0 O1 2.161698 1_555
Co0 O6 2.161698 1_545
Co0 O7 2.227597 1_545
Co0 O0 2.227597 1_555
Co1 O4 1.952997 1_555
Co1 O3 1.952997 1_555
Co1 O6 2.161694 1_555
Co1 O1 2.161694 1_555
Co1 O5 2.227597 1_555
Co1 O2 2.227597 1_555
