# generated using pymatgen
data_Na6Nb4Zn8Si3(S5O24)3
_symmetry_space_group_name_H-M   'P 1'
_cell_length_a   8.81054851
_cell_length_b   8.78522764
_cell_length_c   22.71734479
_cell_angle_alpha   89.86823800
_cell_angle_beta   90.24421204
_cell_angle_gamma   119.90559784
_symmetry_Int_Tables_number   1
_chemical_formula_structural   Na6Nb4Zn8Si3(S5O24)3
_chemical_formula_sum   'Na6 Nb4 Zn8 Si3 S15 O72'
_cell_volume   1524.23719128
_cell_formula_units_Z   1
loop_
 _symmetry_equiv_pos_site_id
 _symmetry_equiv_pos_as_xyz
  1  'x, y, z'
loop_
 _atom_site_type_symbol
 _atom_site_label
 _atom_site_symmetry_multiplicity
 _atom_site_fract_x
 _atom_site_fract_y
 _atom_site_fract_z
 _atom_site_occupancy
  Na  Na0  1  0.98749694  0.98466929  0.49189205  1
  Na  Na1  1  0.00455051  0.01541014  0.99866245  1
  Na  Na2  1  0.66685016  0.33032566  0.82534849  1
  Na  Na3  1  0.67067294  0.33521168  0.32859570  1
  Na  Na4  1  0.33317680  0.66099625  0.16457841  1
  Na  Na5  1  0.33804364  0.67080220  0.65280898  1
  Nb  Nb0  1  0.67506224  0.33534074  0.98081789  1
  Nb  Nb1  1  0.67333604  0.33266028  0.47693545  1
  Nb  Nb2  1  0.33007550  0.67335373  0.31816077  1
  Nb  Nb3  1  0.32189262  0.65843077  0.81270085  1
  Zn  Zn0  1  0.98450865  0.98853681  0.35401474  1
  Zn  Zn1  1  0.99835171  0.01213867  0.84984135  1
  Zn  Zn2  1  0.99615351  0.99710393  0.64244150  1
  Zn  Zn3  1  0.99902514  0.99974519  0.15523613  1
  Zn  Zn4  1  0.66732441  0.33201490  0.67725697  1
  Zn  Zn5  1  0.66663820  0.33249066  0.18650752  1
  Zn  Zn6  1  0.32773578  0.65506528  0.01747550  1
  Zn  Zn7  1  0.33931735  0.68306669  0.51333489  1
  Si  Si0  1  0.04378554  0.36511281  0.92058703  1
  Si  Si1  1  0.63346941  0.95577479  0.42169316  1
  Si  Si2  1  0.04648288  0.67867798  0.42163484  1
  S  S0  1  0.29393808  0.00132267  0.24930234  1
  S  S1  1  0.70171819  0.70153138  0.24828923  1
  S  S2  1  0.00105904  0.29406596  0.24894166  1
  S  S3  1  0.29713357  0.29040115  0.75001833  1
  S  S4  1  0.99500991  0.71039705  0.75124890  1
  S  S5  1  0.70561942  0.00215869  0.74994885  1
  S  S6  1  0.96220179  0.33290395  0.58519337  1
  S  S7  1  0.37130042  0.04166516  0.58601385  1
  S  S8  1  0.66471030  0.62530807  0.58533160  1
  S  S9  1  0.96118386  0.63061367  0.08589164  1
  S  S10  1  0.66441830  0.03570485  0.08463948  1
  S  S11  1  0.37466211  0.33235653  0.08503790  1
  S  S12  1  0.62493301  0.66694841  0.91800333  1
  S  S13  1  0.33261104  0.95741503  0.91813935  1
  S  S14  1  0.33364623  0.37598200  0.41838867  1
  O  O0  1  0.20997429  0.01906832  0.30122390  1
  O  O1  1  0.80534752  0.78574505  0.30051701  1
  O  O2  1  0.98469336  0.19144222  0.30110007  1
  O  O3  1  0.21827257  0.19240678  0.80386417  1
  O  O4  1  0.98126280  0.79307228  0.80499601  1
  O  O5  1  0.80574929  0.02152907  0.80377851  1
  O  O6  1  0.77802709  0.96810163  0.69710454  1
  O  O7  1  0.19008956  0.22076378  0.69729742  1
  O  O8  1  0.02623279  0.81415905  0.69797465  1
  O  O9  1  0.77572705  0.80448342  0.19350791  1
  O  O10  1  0.02507715  0.21871603  0.19366412  1
  O  O11  1  0.19355349  0.97353687  0.19401333  1
  O  O12  1  0.88104592  0.35433569  0.63884320  1
  O  O13  1  0.46975646  0.12345864  0.64081185  1
  O  O14  1  0.65110100  0.52853535  0.64031702  1
  O  O15  1  0.87324546  0.52169226  0.13678434  1
  O  O16  1  0.64424704  0.12137630  0.13630140  1
  O  O17  1  0.47749445  0.34610753  0.13745602  1
  O  O18  1  0.47384986  0.32071005  0.03042792  1
  O  O19  1  0.84764665  0.52786434  0.03008944  1
  O  O20  1  0.68047066  0.15343855  0.02943660  1
  O  O21  1  0.46956434  0.15181522  0.53345085  1
  O  O22  1  0.67922039  0.52726121  0.53283252  1
  O  O23  1  0.84788568  0.31865635  0.53182435  1
  O  O24  1  0.55143859  0.69580442  0.97106667  1
  O  O25  1  0.15338573  0.45965244  0.97704675  1
  O  O26  1  0.31957893  0.86054887  0.97149894  1
  O  O27  1  0.55450142  0.84274640  0.47851263  1
  O  O28  1  0.30959049  0.45203472  0.47155601  1
  O  O29  1  0.14436733  0.68416515  0.47988749  1
  O  O30  1  0.13547626  0.63539462  0.36096811  1
  O  O31  1  0.49985700  0.85813693  0.36185366  1
  O  O32  1  0.36425100  0.49303996  0.36457465  1
  O  O33  1  0.14129551  0.49730711  0.86064271  1
  O  O34  1  0.36370882  0.87306893  0.86464175  1
  O  O35  1  0.51083332  0.64260888  0.86494714  1
  O  O36  1  0.02327004  0.84166164  0.40905821  1
  O  O37  1  0.82986822  0.01279137  0.40868530  1
  O  O38  1  0.18923364  0.20200487  0.40723899  1
  O  O39  1  0.00725618  0.17097503  0.91100481  1
  O  O40  1  0.17925477  0.97599566  0.90937310  1
  O  O41  1  0.80333356  0.80784234  0.90856839  1
  O  O42  1  0.96428824  0.16616498  0.58503913  1
  O  O43  1  0.19957404  0.03382230  0.58600655  1
  O  O44  1  0.82716898  0.79859699  0.58519207  1
  O  O45  1  0.96383775  0.79862227  0.08412476  1
  O  O46  1  0.82704408  0.02889524  0.08359929  1
  O  O47  1  0.20232013  0.17164957  0.08390738  1
  O  O48  1  0.67696020  0.15374451  0.74498034  1
  O  O49  1  0.47754807  0.32415785  0.74508362  1
  O  O50  1  0.85035276  0.52815140  0.74703611  1
  O  O51  1  0.67834822  0.52243901  0.24397971  1
  O  O52  1  0.84791214  0.32168058  0.24485343  1
  O  O53  1  0.47515070  0.15095886  0.24486202  1
  O  O54  1  0.62740412  0.49479920  0.92199578  1
  O  O55  1  0.84732315  0.35980482  0.92586878  1
  O  O56  1  0.49548717  0.13873037  0.92105430  1
  O  O57  1  0.62569014  0.14485228  0.42680260  1
  O  O58  1  0.50248720  0.36979937  0.42156167  1
  O  O59  1  0.84816876  0.49176525  0.42598370  1
  O  O60  1  0.36326588  0.49358849  0.08019974  1
  O  O61  1  0.13515336  0.65059908  0.07909573  1
  O  O62  1  0.50746256  0.86411841  0.07554032  1
  O  O63  1  0.35256856  0.86635176  0.58237666  1
  O  O64  1  0.50646609  0.63961400  0.58063089  1
  O  O65  1  0.13688885  0.48523083  0.57926980  1
  O  O66  1  0.31141977  0.83432522  0.25412633  1
  O  O67  1  0.51928737  0.67956166  0.25378463  1
  O  O68  1  0.16499710  0.47523350  0.25362433  1
  O  O69  1  0.31892611  0.47974632  0.75845856  1
  O  O70  1  0.16591134  0.69443491  0.75834144  1
  O  O71  1  0.52245624  0.83880261  0.75896469  1
loop_
_geom_bond_atom_site_label_1
_geom_bond_atom_site_label_2
_geom_bond_distance
_geom_bond_site_symmetry_2
Na0 O36 2.372674 1_655
Na0 O37 2.424952 1_565
Na0 O44 2.620503 1_555
Na0 O38 2.670453 1_665
Na0 O42 2.721431 1_565
Na0 O43 2.722982 1_665
Na1 O39 2.406083 1_555
Na1 O47 2.503790 1_556
Na1 O46 2.528746 1_456
Na1 O45 2.613993 1_446
Na1 O40 2.676742 1_545
Na1 O41 2.723935 1_445
Na2 O48 2.429002 1_555
Na2 O49 2.448243 1_555
Na2 O50 2.451094 1_555
Na2 O56 2.704968 1_555
Na2 O55 2.714986 1_555
Na2 O54 2.747907 1_555
Na3 O51 2.506144 1_555
Na3 O52 2.506640 1_555
Na3 O53 2.532165 1_555
Na3 O59 2.659267 1_555
Na3 O58 2.688305 1_555
Na3 O57 2.694563 1_555
Na4 O60 2.512709 1_555
Na4 O67 2.555126 1_555
Na4 O68 2.559313 1_555
Na4 O61 2.576133 1_555
Na4 O66 2.608149 1_555
Na4 O62 2.628910 1_555
Na5 O63 2.301676 1_555
Na5 O64 2.322464 1_555
Na5 O65 2.386626 1_555
Na5 O71 2.868051 1_555
Na5 O69 2.882536 1_555
Na5 O70 2.904821 1_555
Nb0 O55 1.896721 1_555
Nb0 O20 1.960434 1_556
Nb0 O19 1.963521 1_556
Nb0 O18 2.053926 1_556
Nb0 O54 2.120748 1_555
Nb0 O56 2.144156 1_555
Nb1 O57 1.873364 1_555
Nb1 O59 1.878060 1_555
Nb1 O23 2.026487 1_555
Nb1 O58 2.103908 1_555
Nb1 O22 2.111631 1_555
Nb1 O21 2.135839 1_555
Nb2 O31 1.852432 1_555
Nb2 O30 1.854481 1_555
Nb2 O32 2.043775 1_555
Nb2 O66 2.088853 1_555
Nb2 O68 2.182559 1_555
Nb2 O67 2.202407 1_555
Nb3 O33 1.866395 1_555
Nb3 O70 1.982641 1_555
Nb3 O69 1.987720 1_555
Nb3 O71 2.083534 1_555
Nb3 O34 2.097020 1_555
Nb3 O35 2.100548 1_555
O0 S0 1.444338 1_555
O0 Zn0 2.223466 1_445
O1 S1 1.452566 1_555
O1 Zn0 2.081373 1_555
O2 S2 1.450700 1_655
O2 Zn0 2.147051 1_545
O3 S3 1.458137 1_555
O3 Zn1 2.074419 1_455
O4 S4 1.458113 1_555
O4 Zn1 2.117360 1_565
O5 S5 1.464480 1_555
O5 Zn1 2.026191 1_555
O6 S5 1.461564 1_565
O6 Zn2 2.197948 1_555
O7 S3 1.454850 1_555
O7 Zn2 2.231302 1_445
O8 S4 1.455699 1_455
O8 Zn2 2.158114 1_455
O9 S1 1.485138 1_555
O9 Zn3 2.052227 1_555
O10 S2 1.485153 1_555
O10 Zn3 2.020188 1_445
O11 S0 1.481915 1_565
O11 Zn3 2.036215 1_455
O12 S6 1.474744 1_555
O12 Zn4 1.997679 1_555
O13 S7 1.480497 1_555
O13 Zn4 1.971537 1_555
O14 S8 1.480614 1_555
O14 Zn4 1.985890 1_555
O15 S9 1.454613 1_555
O15 Zn5 2.084273 1_555
O16 S10 1.454188 1_555
O16 Zn5 2.102999 1_555
O17 S11 1.461430 1_555
O17 Zn5 2.053156 1_555
O18 S11 1.553134 1_555
O19 S9 1.586362 1_555
O20 S10 1.584982 1_555
O21 S7 1.509942 1_555
O22 S8 1.515424 1_555
O23 S6 1.537724 1_555
O24 S12 1.452043 1_555
O24 Zn6 2.106376 1_556
O25 Si0 1.569074 1_555
O25 Zn6 1.875108 1_556
O26 S13 1.451131 1_555
O26 Zn6 2.115406 1_556
O27 Si1 1.564953 1_555
O27 Zn7 1.882492 1_555
O28 S14 1.448192 1_555
O28 Zn7 2.136731 1_555
O29 Si2 1.564109 1_555
O29 Zn7 1.879633 1_555
O30 Si2 1.722700 1_555
O31 Si1 1.718825 1_555
O32 S14 1.531448 1_555
O33 Si0 1.717286 1_555
O34 S13 1.520062 1_555
O35 S12 1.511808 1_555
O36 Si2 1.569481 1_555
O36 Zn0 1.942557 1_455
O37 Si1 1.572210 1_545
O37 Zn0 1.936321 1_545
O38 S14 1.441880 1_555
O38 Zn0 2.202556 1_445
O39 Si0 1.585437 1_555
O39 Zn1 1.944940 1_455
O40 S13 1.452378 1_555
O40 Zn1 2.225867 1_465
O41 S12 1.452679 1_555
O41 Zn1 2.210637 1_565
O42 S6 1.474103 1_555
O42 Zn2 2.094997 1_545
O43 S7 1.479856 1_555
O43 Zn2 2.097870 1_445
O44 S8 1.481080 1_555
O44 Zn2 2.086694 1_555
O45 S9 1.464936 1_555
O45 Zn3 2.300097 1_555
O46 S10 1.463859 1_555
O46 Zn3 2.318184 1_545
O47 S11 1.470293 1_555
O47 Zn3 2.330415 1_445
O48 S5 1.477949 1_555
O48 Zn4 2.224269 1_555
O49 S3 1.469184 1_555
O49 Zn4 2.254117 1_555
O50 S4 1.470330 1_555
O50 Zn4 2.302697 1_555
O51 S1 1.484913 1_555
O51 Zn5 2.082586 1_555
O52 S2 1.487733 1_655
O52 Zn5 2.109335 1_555
O53 S0 1.481654 1_555
O53 Zn5 2.115069 1_555
O54 S12 1.525827 1_555
O55 Si0 1.712889 1_655
O56 S13 1.523601 1_545
O57 Si1 1.700549 1_545
O58 S14 1.516800 1_555
O59 Si2 1.702604 1_655
O60 S11 1.472931 1_555
O60 Zn6 2.137892 1_555
O61 S9 1.462046 1_455
O61 Zn6 2.189454 1_555
O62 S10 1.465524 1_565
O62 Zn6 2.171145 1_555
O63 S7 1.467376 1_565
O63 Zn7 2.211108 1_555
O64 S8 1.464390 1_555
O64 Zn7 2.278240 1_555
O65 S6 1.457711 1_455
O65 Zn7 2.316271 1_555
O66 S0 1.553250 1_565
O67 S1 1.525962 1_555
O68 S2 1.529019 1_555
O69 S3 1.588503 1_555
O70 S4 1.587841 1_455
O71 S5 1.548513 1_565
