# generated using pymatgen
data_Eu4Mg(Fe2O5)2
_symmetry_space_group_name_H-M   'P 1'
_cell_length_a   5.48361339
_cell_length_b   5.84962266
_cell_length_c   8.97514211
_cell_angle_alpha   108.59038653
_cell_angle_beta   107.39074263
_cell_angle_gamma   90.97622087
_symmetry_Int_Tables_number   1
_chemical_formula_structural   Eu4Mg(Fe2O5)2
_chemical_formula_sum   'Eu4 Mg1 Fe4 O10'
_cell_volume   258.38525508
_cell_formula_units_Z   1
loop_
 _symmetry_equiv_pos_site_id
 _symmetry_equiv_pos_as_xyz
  1  'x, y, z'
loop_
 _atom_site_type_symbol
 _atom_site_label
 _atom_site_symmetry_multiplicity
 _atom_site_fract_x
 _atom_site_fract_y
 _atom_site_fract_z
 _atom_site_occupancy
  Eu  Eu0  1  0.61930100  0.13863400  0.21634200  1
  Eu  Eu1  1  0.40872200  0.88558600  0.80614700  1
  Eu  Eu2  1  0.10253500  0.57943900  0.19362800  1
  Eu  Eu3  1  0.90359400  0.42200400  0.78389900  1
  Mg  Mg0  1  0.04215200  0.53124200  0.49995100  1
  Fe  Fe0  1  0.01697500  0.00890200  0.00627800  1
  Fe  Fe1  1  0.51136000  0.50286500  0.99457600  1
  Fe  Fe2  1  0.23873600  0.13871300  0.50048700  1
  Fe  Fe3  1  0.68450800  0.84853300  0.49983400  1
  O  O0  1  0.25531100  0.24986500  0.98731300  1
  O  O1  1  0.28573500  0.77385900  0.03724200  1
  O  O2  1  0.74586600  0.23872100  0.96285700  1
  O  O3  1  0.76936200  0.76483800  0.01227400  1
  O  O4  1  0.14231600  0.23251700  0.29900500  1
  O  O5  1  0.93294800  0.76094100  0.69110100  1
  O  O6  1  0.74186500  0.56997700  0.30844200  1
  O  O7  1  0.34193600  0.43312800  0.70081300  1
  O  O8  1  0.81992200  0.17236400  0.50015400  1
  O  O9  1  0.31247100  0.79548700  0.49965500  1
loop_
_geom_bond_atom_site_label_1
_geom_bond_atom_site_label_2
_geom_bond_distance
_geom_bond_site_symmetry_2
Eu0 O8 2.394727 1_555
Eu0 O6 2.404532 1_555
Eu0 O1 2.530850 1_545
Eu0 O0 2.660281 1_554
Eu0 O3 2.687287 1_545
Eu0 O4 2.737174 1_655
Eu0 O2 2.789206 1_554
Eu0 O4 2.939825 1_555
Eu1 O2 2.475139 1_565
Eu1 O7 2.489492 1_555
Eu1 O5 2.499857 1_455
Eu1 O9 2.514266 1_555
Eu1 O3 2.554635 1_556
Eu1 O0 2.561608 1_565
Eu1 O1 2.620947 1_556
Eu2 O1 2.468689 1_555
Eu2 O4 2.485136 1_555
Eu2 O6 2.495486 1_455
Eu2 O9 2.512675 1_555
Eu2 O0 2.560001 1_554
Eu2 O3 2.564919 1_455
Eu2 O2 2.626992 1_454
Eu3 O8 2.394987 1_555
Eu3 O5 2.402633 1_555
Eu3 O2 2.524710 1_555
Eu3 O3 2.663866 1_556
Eu3 O0 2.683336 1_655
Eu3 O7 2.726751 1_655
Eu3 O1 2.796142 1_656
Eu3 O7 2.951448 1_555
Mg0 O5 2.068586 1_455
Mg0 O6 2.070342 1_455
Mg0 O9 2.124496 1_555
Mg0 O7 2.280805 1_555
Mg0 O4 2.285459 1_555
Mg0 O8 2.410125 1_455
Fe0 O3 1.977737 1_445
Fe0 O0 1.986722 1_554
Fe0 O1 2.051213 1_545
Fe0 O2 2.055512 1_454
Fe0 O4 2.405139 1_555
Fe0 O5 2.626794 1_444
Fe1 O0 1.994720 1_555
Fe1 O3 2.002950 1_556
Fe1 O2 2.031804 1_555
Fe1 O1 2.037965 1_556
Fe1 O7 2.412072 1_555
Fe1 O6 2.614719 1_556
Fe2 O7 1.975647 1_555
Fe2 O4 1.980332 1_555
Fe2 O9 2.052920 1_545
Fe2 O8 2.307568 1_455
Fe3 O8 2.021647 1_565
Fe3 O9 2.057784 1_555
Fe3 O5 2.062042 1_555
Fe3 O6 2.064106 1_555
