# generated using pymatgen
data_Na4Mg(FeO3)2
_symmetry_space_group_name_H-M   'P 1'
_cell_length_a   5.78454352
_cell_length_b   5.58633161
_cell_length_c   6.18685693
_cell_angle_alpha   88.00293244
_cell_angle_beta   100.53420410
_cell_angle_gamma   59.94292576
_symmetry_Int_Tables_number   1
_chemical_formula_structural   Na4Mg(FeO3)2
_chemical_formula_sum   'Na4 Mg1 Fe2 O6'
_cell_volume   168.23570730
_cell_formula_units_Z   1
loop_
 _symmetry_equiv_pos_site_id
 _symmetry_equiv_pos_as_xyz
  1  'x, y, z'
loop_
 _atom_site_type_symbol
 _atom_site_label
 _atom_site_symmetry_multiplicity
 _atom_site_fract_x
 _atom_site_fract_y
 _atom_site_fract_z
 _atom_site_occupancy
  Na  Na0  1  0.40982733  0.61364058  0.48693279  1
  Na  Na1  1  0.32958526  0.20267889  0.53458661  1
  Na  Na2  1  0.77027290  0.65598950  0.83310055  1
  Na  Na3  1  0.44378241  0.31289187  0.03033922  1
  Mg  Mg0  1  0.81581066  0.65616602  0.29347372  1
  Fe  Fe0  1  0.94746437  0.03719669  0.59220771  1
  Fe  Fe1  1  0.09500068  -0.00096339  0.06033351  1
  O  O0  1  0.28234219  0.94874660  0.79241825  1
  O  O1  1  0.06774160  0.68152592  0.12715998  1
  O  O2  1  -0.00173202  0.67659084  0.58149418  1
  O  O3  1  0.73029516  0.23853423  0.79235818  1
  O  O4  1  0.42646527  0.93932496  0.25230072  1
  O  O5  1  0.86199118  0.26508030  0.30639458  1
loop_
_geom_bond_atom_site_label_1
_geom_bond_atom_site_label_2
_geom_bond_distance
_geom_bond_site_symmetry_2
Na0 O4 2.338604 1_555
Na0 O2 2.412168 1_555
Na0 O3 2.439283 1_555
Na0 O1 2.567667 1_555
Na0 O0 2.644555 1_555
Na0 O5 2.828132 1_555
Na1 O0 2.240879 1_545
Na1 O4 2.289023 1_545
Na1 O2 2.437307 1_555
Na1 O5 2.656245 1_455
Na1 O3 2.663073 1_555
Na2 O2 2.250776 1_655
Na2 O1 2.326031 1_656
Na2 O0 2.406639 1_555
Na2 O3 2.472918 1_555
Na3 O3 2.309202 1_554
Na3 O1 2.325168 1_555
Na3 O4 2.512135 1_545
Na3 O5 2.578916 1_555
Na3 O0 2.964115 1_544
Mg0 O2 1.936336 1_655
Mg0 O4 1.957761 1_555
Mg0 O1 1.986833 1_655
Mg0 O5 2.060634 1_555
Fe0 O2 1.890033 1_645
Fe0 O3 1.904477 1_555
Fe0 O0 1.911038 1_645
Fe0 O5 1.970997 1_555
Fe1 O1 1.895989 1_545
Fe1 O4 1.922813 1_545
Fe1 O0 2.094054 1_544
Fe1 O3 2.174505 1_454
Fe1 O5 2.290058 1_455
