# generated using pymatgen
data_TbBH4
_symmetry_space_group_name_H-M   'P 1'
_cell_length_a   4.15621971
_cell_length_b   5.74019720
_cell_length_c   6.85493163
_cell_angle_alpha   114.76096469
_cell_angle_beta   107.65280641
_cell_angle_gamma   90.00649880
_symmetry_Int_Tables_number   1
_chemical_formula_structural   TbBH4
_chemical_formula_sum   'Tb3 B3 H12'
_cell_volume   139.97773888
_cell_formula_units_Z   3
loop_
 _symmetry_equiv_pos_site_id
 _symmetry_equiv_pos_as_xyz
  1  'x, y, z'
loop_
 _atom_site_type_symbol
 _atom_site_label
 _atom_site_symmetry_multiplicity
 _atom_site_fract_x
 _atom_site_fract_y
 _atom_site_fract_z
 _atom_site_occupancy
  Tb  Tb0  1  0.00014600  0.53260500  0.00003100  1
  Tb  Tb1  1  0.33574500  0.89507700  0.67176300  1
  Tb  Tb2  1  0.66412600  0.22335400  0.32823400  1
  B  B0  1  0.99992400  0.05001400  0.00001700  1
  B  B1  1  0.33397100  0.38718700  0.66767400  1
  B  B2  1  0.66612100  0.71947700  0.33228800  1
  H  H0  1  0.90895000  0.08663000  0.81758800  1
  H  H1  1  0.09102000  0.26912700  0.18246100  1
  H  H2  1  0.75451600  0.91567400  0.99999500  1
  H  H3  1  0.24520700  0.91566200  0.99994200  1
  H  H4  1  0.09139700  0.52040300  0.67398500  1
  H  H5  1  0.90880100  0.84645900  0.32610900  1
  H  H6  1  0.41994800  0.33843800  0.83972600  1
  H  H7  1  0.57998200  0.49860400  0.16018400  1
  H  H8  1  0.58301600  0.52035700  0.67405500  1
  H  H9  1  0.41715700  0.84632600  0.32601200  1
  H  H10  1  0.24190500  0.17948200  0.48390800  1
  H  H11  1  0.75806900  0.69552400  0.51602700  1
loop_
_geom_bond_atom_site_label_1
_geom_bond_atom_site_label_2
_geom_bond_distance
_geom_bond_site_symmetry_2
B0 H3 1.278359 1_644
B0 H2 1.278524 1_544
B0 H0 1.297847 1_554
B0 H1 1.297865 1_655
B1 H4 1.265694 1_555
B1 H8 1.265705 1_555
B1 H10 1.266582 1_555
B1 H6 1.271953 1_555
B2 H5 1.265715 1_555
B2 H9 1.265762 1_555
B2 H11 1.266683 1_555
B2 H7 1.272102 1_555
H0 Tb0 2.300364 1_656
H0 Tb1 2.347333 1_645
H0 Tb1 2.349100 1_545
H1 Tb0 2.300413 1_555
H1 Tb2 2.347488 1_455
H1 Tb2 2.348991 1_555
H2 Tb2 2.346732 1_566
H2 Tb1 2.346882 1_555
H2 Tb0 2.424491 1_656
H3 Tb1 2.346747 1_555
H3 Tb2 2.347083 1_566
H3 Tb0 2.423471 1_556
H4 Tb0 2.350966 1_556
H4 Tb1 2.386095 1_555
H4 Tb2 2.395777 1_455
H5 Tb0 2.351109 1_655
H5 Tb2 2.387038 1_565
H5 Tb1 2.395166 1_655
H6 Tb1 2.286028 1_545
H6 Tb0 2.372989 1_656
H6 Tb0 2.373058 1_556
H7 Tb2 2.286074 1_555
H7 Tb0 2.371932 1_555
H7 Tb0 2.373823 1_655
H8 Tb0 2.350021 1_656
H8 Tb1 2.387910 1_555
H8 Tb2 2.395664 1_555
H9 Tb0 2.349418 1_555
H9 Tb2 2.387483 1_565
H9 Tb1 2.396038 1_555
H10 Tb2 2.374838 1_455
H10 Tb2 2.375383 1_555
H10 Tb1 2.435592 1_545
H11 Tb1 2.374200 1_655
H11 Tb1 2.375997 1_555
H11 Tb2 2.434719 1_555
