# generated using pymatgen
data_Na6Ca4In4SiS11O48
_symmetry_space_group_name_H-M   'P 1'
_cell_length_a   18.11659070
_cell_length_b   9.07415569
_cell_length_c   23.87346722
_cell_angle_alpha   89.95195712
_cell_angle_beta   89.96625810
_cell_angle_gamma   120.01228215
_symmetry_Int_Tables_number   1
_chemical_formula_structural   Na6Ca4In4SiS11O48
_chemical_formula_sum   'Na18 Ca12 In12 Si3 S33 O144'
_cell_volume   3398.40096310
_cell_formula_units_Z   3
loop_
 _symmetry_equiv_pos_site_id
 _symmetry_equiv_pos_as_xyz
  1  'x, y, z'
loop_
 _atom_site_type_symbol
 _atom_site_label
 _atom_site_symmetry_multiplicity
 _atom_site_fract_x
 _atom_site_fract_y
 _atom_site_fract_z
 _atom_site_occupancy
  Na  Na0  1  0.81850038  0.99247344  0.24684358  1
  Na  Na1  1  0.99419782  0.63859694  0.25553336  1
  Na  Na2  1  0.31942805  0.65352156  0.74701384  1
  Na  Na3  1  0.81765090  0.65095048  0.74431086  1
  Na  Na4  1  0.99344465  0.35101536  0.75226802  1
  Na  Na5  1  0.69373529  0.00040219  0.74866621  1
  Na  Na6  1  0.99708201  0.99562303  0.49806034  1
  Na  Na7  1  0.50290151  0.00485977  0.49519608  1
  Na  Na8  1  0.00060643  0.00159587  0.00195025  1
  Na  Na9  1  0.49968765  0.00012261  0.00195655  1
  Na  Na10  1  0.33625863  0.30097262  0.83377826  1
  Na  Na11  1  0.83488784  0.31532268  0.83693308  1
  Na  Na12  1  0.33523608  0.33518391  0.33187377  1
  Na  Na13  1  0.82630083  0.35633469  0.33538906  1
  Na  Na14  1  0.17730650  0.67003289  0.16585935  1
  Na  Na15  1  0.66691056  0.65258954  0.17028110  1
  Na  Na16  1  0.17757927  0.69983367  0.66523506  1
  Na  Na17  1  0.67257689  0.67544910  0.66254566  1
  Ca  Ca0  1  0.49806853  0.99773933  0.35153444  1
  Ca  Ca1  1  0.83417394  0.32757007  0.67873818  1
  Ca  Ca2  1  0.33328268  0.33371745  0.17997550  1
  Ca  Ca3  1  0.82935477  0.34441454  0.18105601  1
  Ca  Ca4  1  0.33279251  0.33316760  0.98747827  1
  Ca  Ca5  1  0.83258017  0.33226108  0.98612602  1
  Ca  Ca6  1  0.83271306  0.33140631  0.48377771  1
  Ca  Ca7  1  0.16558934  0.66243318  0.51547693  1
  Ca  Ca8  1  0.66999265  0.67176302  0.51637117  1
  Ca  Ca9  1  0.17520792  0.67246220  0.31986880  1
  Ca  Ca10  1  0.17271041  0.68627908  0.81556222  1
  Ca  Ca11  1  0.66511504  0.66381841  0.81754919  1
  In  In0  1  0.99973755  0.99545714  0.35061114  1
  In  In1  1  0.99961087  0.00472561  0.85232253  1
  In  In2  1  0.49361721  0.00630777  0.85160017  1
  In  In3  1  0.99610568  0.99846910  0.64863729  1
  In  In4  1  0.49655873  0.00163231  0.64761537  1
  In  In5  1  0.99397863  0.99204601  0.15110846  1
  In  In6  1  0.50146574  0.00263466  0.15242655  1
  In  In7  1  0.33430436  0.31679987  0.68389335  1
  In  In8  1  0.33285020  0.33270868  0.48373325  1
  In  In9  1  0.16720532  0.66783046  0.01414595  1
  In  In10  1  0.66631417  0.66998945  0.01434679  1
  In  In11  1  0.66540096  0.65551862  0.31697685  1
  Si  Si0  1  0.85119463  0.70668269  0.25227773  1
  Si  Si1  1  0.35393181  0.00305378  0.74767304  1
  Si  Si2  1  0.85385637  0.00081859  0.75137056  1
  S  S0  1  0.14589195  0.00079920  0.24989499  1
  S  S1  1  0.64687094  0.99127746  0.24992365  1
  S  S2  1  0.35235196  0.70521616  0.24730604  1
  S  S3  1  0.00211252  0.29439601  0.24915569  1
  S  S4  1  0.50148588  0.29904013  0.24963576  1
  S  S5  1  0.14821241  0.28990335  0.74889327  1
  S  S6  1  0.64561569  0.28770485  0.75012190  1
  S  S7  1  0.99971893  0.71001266  0.74951859  1
  S  S8  1  0.49802355  0.70957632  0.74842657  1
  S  S9  1  0.47982192  0.33078066  0.58283757  1
  S  S10  1  0.98800038  0.33001745  0.58578909  1
  S  S11  1  0.18307578  0.04170334  0.58439892  1
  S  S12  1  0.67410042  0.02692627  0.58743379  1
  S  S13  1  0.33607463  0.62128830  0.58637502  1
  S  S14  1  0.83716259  0.64297653  0.58635005  1
  S  S15  1  0.48935986  0.64598331  0.08297647  1
  S  S16  1  0.99073770  0.64427909  0.08329345  1
  S  S17  1  0.33326594  0.02159609  0.08319869  1
  S  S18  1  0.83250165  0.02206470  0.08336799  1
  S  S19  1  0.17645887  0.33178451  0.08348748  1
  S  S20  1  0.67550806  0.33300015  0.08210949  1
  S  S21  1  0.31843184  0.67053931  0.91653608  1
  S  S22  1  0.81842413  0.67142629  0.91653396  1
  S  S23  1  0.01996709  0.36621616  0.91562127  1
  S  S24  1  0.51885072  0.36440519  0.91840236  1
  S  S25  1  0.16163848  0.96534528  0.91744982  1
  S  S26  1  0.66092153  0.96452550  0.91466546  1
  S  S27  1  0.31813458  0.97872872  0.42037918  1
  S  S28  1  0.81784770  0.96704466  0.41217786  1
  S  S29  1  0.16667240  0.35521222  0.41687644  1
  S  S30  1  0.66626906  0.36802458  0.41628802  1
  S  S31  1  0.01665812  0.67328563  0.41400606  1
  S  S32  1  0.51529774  0.65676167  0.41656467  1
  O  O0  1  0.10689078  0.02552704  0.30130057  1
  O  O1  1  0.60682648  0.01583028  0.29966388  1
  O  O2  1  0.40106949  0.78983402  0.29789400  1
  O  O3  1  0.91457895  0.79664022  0.30550500  1
  O  O4  1  0.49390148  0.19919670  0.29949524  1
  O  O5  1  0.99363909  0.19319385  0.30039142  1
  O  O6  1  0.11369365  0.18659094  0.80025853  1
  O  O7  1  0.60630574  0.18001027  0.80074322  1
  O  O8  1  0.48563379  0.78799804  0.79977086  1
  O  O9  1  0.99271779  0.79475539  0.80085097  1
  O  O10  1  0.40824880  0.03283665  0.80560869  1
  O  O11  1  0.91718117  0.04048298  0.80564839  1
  O  O12  1  0.39763868  0.96655963  0.69341515  1
  O  O13  1  0.89710627  0.96240516  0.69707487  1
  O  O14  1  0.09714246  0.20444058  0.69847660  1
  O  O15  1  0.59720813  0.20651020  0.69860101  1
  O  O16  1  0.01459051  0.81457148  0.69849634  1
  O  O17  1  0.51508434  0.81861590  0.69835706  1
  O  O18  1  0.39520756  0.80709583  0.19545775  1
  O  O19  1  0.88901372  0.83074955  0.19623055  1
  O  O20  1  0.01639990  0.21896979  0.19822731  1
  O  O21  1  0.51392311  0.22076689  0.19737943  1
  O  O22  1  0.09345725  0.98092205  0.19912555  1
  O  O23  1  0.59786126  0.97413979  0.19763163  1
  O  O24  1  0.43976132  0.35104707  0.63453583  1
  O  O25  1  0.94978369  0.34147645  0.63939564  1
  O  O26  1  0.23335431  0.12500708  0.63577692  1
  O  O27  1  0.71999574  0.10280924  0.64017170  1
  O  O28  1  0.32898971  0.52339062  0.63902144  1
  O  O29  1  0.83099227  0.55518189  0.63995808  1
  O  O30  1  0.45056916  0.54341953  0.13331862  1
  O  O31  1  0.95443473  0.54966016  0.13579252  1
  O  O32  1  0.32061338  0.09855758  0.13360260  1
  O  O33  1  0.82231548  0.09457383  0.13589908  1
  O  O34  1  0.22790987  0.35659057  0.13372491  1
  O  O35  1  0.72552503  0.35702699  0.13303446  1
  O  O36  1  0.21521523  0.30782270  0.03284444  1
  O  O37  1  0.71478393  0.30815758  0.03197794  1
  O  O38  1  0.43852455  0.56856429  0.03238368  1
  O  O39  1  0.93714609  0.55844070  0.03439992  1
  O  O40  1  0.34470647  0.12226968  0.03250878  1
  O  O41  1  0.84080570  0.12736558  0.03426834  1
  O  O42  1  0.22383636  0.14621277  0.53367786  1
  O  O43  1  0.71785534  0.13336964  0.53799322  1
  O  O44  1  0.34377886  0.53313995  0.53601943  1
  O  O45  1  0.84205542  0.54849714  0.53784116  1
  O  O46  1  0.42682207  0.30900347  0.53271574  1
  O  O47  1  0.93326267  0.31191794  0.53741715  1
  O  O48  1  0.27389625  0.69231341  0.96616513  1
  O  O49  1  0.77300980  0.69059700  0.96592958  1
  O  O50  1  0.07300934  0.45745308  0.96553828  1
  O  O51  1  0.57097781  0.45206344  0.96909869  1
  O  O52  1  0.15006117  0.86003279  0.96856581  1
  O  O53  1  0.65071626  0.85695475  0.96477775  1
  O  O54  1  0.27467112  0.87672997  0.47031823  1
  O  O55  1  0.77625058  0.86320207  0.46241553  1
  O  O56  1  0.15503428  0.43265929  0.46751978  1
  O  O57  1  0.65907517  0.45394712  0.46661839  1
  O  O58  1  0.06815113  0.68543422  0.46343524  1
  O  O59  1  0.56508715  0.67290609  0.46725624  1
  O  O60  1  0.05658805  0.66142902  0.36141715  1
  O  O61  1  0.55657250  0.63695272  0.36499434  1
  O  O62  1  0.26961496  0.90268676  0.36873164  1
  O  O63  1  0.76856569  0.88319874  0.36025048  1
  O  O64  1  0.17856647  0.45582517  0.36610231  1
  O  O65  1  0.67428809  0.46739156  0.36426536  1
  O  O66  1  0.05907829  0.45761269  0.86290123  1
  O  O67  1  0.55927497  0.45955274  0.86696610  1
  O  O68  1  0.17025336  0.88476696  0.86665249  1
  O  O69  1  0.67012341  0.88708480  0.86252639  1
  O  O70  1  0.27219227  0.65570627  0.86392268  1
  O  O71  1  0.77297006  0.65748996  0.86369413  1
  O  O72  1  0.01092297  0.83409617  0.41442518  1
  O  O73  1  0.50453565  0.80709636  0.41240569  1
  O  O74  1  0.40450653  0.99975132  0.41760027  1
  O  O75  1  0.90527824  0.98646508  0.40984562  1
  O  O76  1  0.08905685  0.18019635  0.41147427  1
  O  O77  1  0.58925703  0.19759775  0.41334119  1
  O  O78  1  0.01511717  0.19538565  0.91620618  1
  O  O79  1  0.51458995  0.19398116  0.91753155  1
  O  O80  1  0.08130674  0.97757719  0.91392937  1
  O  O81  1  0.58122260  0.97718389  0.91179541  1
  O  O82  1  0.40506580  0.82879990  0.91561019  1
  O  O83  1  0.90520884  0.82893379  0.91592470  1
  O  O84  1  0.48663474  0.17324361  0.58574200  1
  O  O85  1  0.99691000  0.17315730  0.58598670  1
  O  O86  1  0.09726587  0.02750973  0.58916500  1
  O  O87  1  0.58745120  0.01356179  0.58884233  1
  O  O88  1  0.41584198  0.79008727  0.58763070  1
  O  O89  1  0.91838438  0.81427835  0.58496825  1
  O  O90  1  0.49974682  0.82120811  0.08885550  1
  O  O91  1  0.00171409  0.81985756  0.08673188  1
  O  O92  1  0.41052296  0.00128355  0.08908505  1
  O  O93  1  0.91124632  0.00559280  0.08469097  1
  O  O94  1  0.08862576  0.17756360  0.08968478  1
  O  O95  1  0.58799805  0.17749201  0.08816035  1
  O  O96  1  0.34483762  0.17539983  0.74542086  1
  O  O97  1  0.84414041  0.17168968  0.74927983  1
  O  O98  1  0.23861997  0.32963415  0.74240376  1
  O  O99  1  0.73290676  0.30953211  0.74657785  1
  O  O100  1  0.41607557  0.54378956  0.74182452  1
  O  O101  1  0.91751760  0.54520470  0.74553733  1
  O  O102  1  0.34439181  0.53509230  0.24359889  1
  O  O103  1  0.84739800  0.52420720  0.24769873  1
  O  O104  1  0.42488971  0.31610929  0.24446846  1
  O  O105  1  0.92062005  0.29728924  0.24437049  1
  O  O106  1  0.23237156  0.14832192  0.24501512  1
  O  O107  1  0.73554911  0.13576763  0.24439634  1
  O  O108  1  0.32743077  0.51968125  0.92286994  1
  O  O109  1  0.82724011  0.51942129  0.92242643  1
  O  O110  1  0.43273659  0.34163770  0.92306552  1
  O  O111  1  0.93380243  0.34401053  0.92104386  1
  O  O112  1  0.23664228  0.13637673  0.92276202  1
  O  O113  1  0.73693413  0.13526380  0.92062882  1
  O  O114  1  0.32563111  0.15205686  0.42407845  1
  O  O115  1  0.82602021  0.13695825  0.41576432  1
  O  O116  1  0.24437078  0.33577919  0.42218785  1
  O  O117  1  0.74405231  0.35282095  0.41806421  1
  O  O118  1  0.42829403  0.49875345  0.42004795  1
  O  O119  1  0.92968044  0.52255457  0.41779390  1
  O  O120  1  0.16694322  0.48770680  0.07729193  1
  O  O121  1  0.66542501  0.48720575  0.07608743  1
  O  O122  1  0.07766481  0.66199565  0.07661845  1
  O  O123  1  0.57713694  0.66647551  0.07694875  1
  O  O124  1  0.25547768  0.84570396  0.07729658  1
  O  O125  1  0.75537115  0.84654982  0.07679512  1
  O  O126  1  0.17449683  0.87222083  0.58038809  1
  O  O127  1  0.66320902  0.85443496  0.58281233  1
  O  O128  1  0.26032857  0.64024745  0.58287472  1
  O  O129  1  0.76210218  0.66758372  0.58314778  1
  O  O130  1  0.07316040  0.48287441  0.58148800  1
  O  O131  1  0.56502987  0.48209883  0.57876831  1
  O  O132  1  0.14701511  0.83780065  0.25412862  1
  O  O133  1  0.65243260  0.83189687  0.25456263  1
  O  O134  1  0.26677365  0.69045022  0.24856018  1
  O  O135  1  0.75822034  0.69946257  0.25765835  1
  O  O136  1  0.07378503  0.47188532  0.25422688  1
  O  O137  1  0.57981115  0.47268740  0.25267619  1
  O  O138  1  0.14961611  0.45527594  0.75376925  1
  O  O139  1  0.65478225  0.45877751  0.75478318  1
  O  O140  1  0.06975681  0.67094242  0.75329268  1
  O  O141  1  0.57181565  0.68396624  0.75384452  1
  O  O142  1  0.26166155  0.82651345  0.74841537  1
  O  O143  1  0.75826463  0.83082585  0.75271603  1
loop_
_geom_bond_atom_site_label_1
_geom_bond_atom_site_label_2
_geom_bond_distance
_geom_bond_site_symmetry_2
Na0 O135 2.328615 1_555
Na0 O107 2.430486 1_565
Na0 O105 2.440737 1_565
Na0 O133 2.611921 1_555
Na0 O19 2.668714 1_555
Na0 O33 2.794635 1_565
Na0 O63 2.868268 1_555
Na1 O103 2.329110 1_555
Na1 O132 2.434509 1_655
Na1 O136 2.559372 1_655
Na1 O105 2.704012 1_555
Na1 O60 2.735017 1_655
Na1 O3 2.762371 1_555
Na1 O31 2.960862 1_555
Na2 O142 2.281214 1_555
Na2 O100 2.411760 1_555
Na2 O98 2.547467 1_555
Na2 O138 2.681248 1_555
Na2 O12 2.771136 1_555
Na2 O28 2.877575 1_555
Na2 O8 2.910901 1_555
Na2 O70 2.921771 1_555
Na3 O143 2.370426 1_555
Na3 O101 2.435506 1_555
Na3 O139 2.580838 1_555
Na3 O99 2.683200 1_555
Na3 O29 2.689432 1_555
Na3 O13 2.693346 1_555
Na3 O71 2.971094 1_555
Na4 O97 2.359382 1_555
Na4 O138 2.494736 1_655
Na4 O140 2.514932 1_655
Na4 O101 2.729005 1_555
Na4 O11 2.751420 1_555
Na4 O25 2.797987 1_555
Na4 O66 2.860563 1_655
Na5 O143 2.354413 1_545
Na5 O97 2.367289 1_555
Na5 O99 2.526456 1_555
Na5 O141 2.606398 1_545
Na5 O27 2.711261 1_555
Na5 O69 2.860601 1_545
Na6 O72 2.563172 1_655
Na6 O89 2.586333 1_555
Na6 O85 2.648052 1_565
Na6 O76 2.655723 1_665
Na6 O75 2.659775 1_555
Na6 O86 2.754781 1_665
Na7 O74 2.555935 1_545
Na7 O77 2.564873 1_555
Na7 O73 2.680819 1_545
Na7 O87 2.689612 1_555
Na7 O84 2.747617 1_555
Na7 O88 2.840628 1_545
Na8 O93 2.564973 1_455
Na8 O91 2.616154 1_545
Na8 O78 2.623448 1_554
Na8 O80 2.629949 1_544
Na8 O94 2.634740 1_555
Na8 O83 2.638231 1_444
Na9 O79 2.597683 1_554
Na9 O95 2.611291 1_555
Na9 O90 2.633576 1_545
Na9 O82 2.635961 1_544
Na9 O92 2.636143 1_555
Na9 O81 2.676363 1_544
Na10 O96 2.439858 1_555
Na10 O110 2.663712 1_555
Na10 O112 2.700795 1_555
Na10 O98 2.901553 1_555
Na10 O100 2.926733 1_555
Na10 O108 2.968537 1_555
Na11 O97 2.515641 1_555
Na11 O111 2.617173 1_555
Na11 O113 2.626970 1_555
Na11 O109 2.806717 1_555
Na11 O99 2.824362 1_555
Na11 O101 2.866669 1_555
Na12 O118 2.642455 1_555
Na12 O104 2.701865 1_555
Na12 O114 2.709472 1_555
Na12 O116 2.713568 1_555
Na12 O102 2.729750 1_555
Na12 O106 2.738108 1_555
Na13 O117 2.462898 1_555
Na13 O103 2.502085 1_555
Na13 O119 2.614631 1_555
Na13 O115 2.761907 1_555
Na13 O107 2.854389 1_555
Na13 O105 2.973539 1_555
Na14 O134 2.502699 1_555
Na14 O124 2.597960 1_555
Na14 O120 2.634161 1_555
Na14 O122 2.770564 1_555
Na14 O136 2.795785 1_555
Na14 O132 2.810543 1_555
Na15 O137 2.537364 1_555
Na15 O135 2.563287 1_555
Na15 O133 2.682617 1_555
Na15 O121 2.697219 1_555
Na15 O125 2.795469 1_555
Na15 O123 2.799028 1_555
Na16 O142 2.416794 1_555
Na16 O126 2.575903 1_555
Na16 O128 2.686074 1_555
Na16 O130 2.781581 1_555
Na16 O140 2.790299 1_555
Na16 O138 2.918032 1_555
Na17 O129 2.518128 1_555
Na17 O127 2.561434 1_555
Na17 O143 2.617488 1_555
Na17 O131 2.732297 1_555
Na17 O139 2.859422 1_555
Na17 O141 2.868051 1_555
Ca0 O2 2.230991 1_555
Ca0 O4 2.241717 1_565
Ca0 O1 2.261814 1_565
Ca0 O77 2.281574 1_565
Ca0 O73 2.305844 1_555
Ca0 O74 2.321405 1_555
Ca1 O25 2.240074 1_555
Ca1 O27 2.251924 1_555
Ca1 O97 2.263034 1_555
Ca1 O29 2.289590 1_555
Ca1 O99 2.389825 1_555
Ca1 O101 2.397535 1_555
Ca2 O34 2.303255 1_555
Ca2 O102 2.307328 1_555
Ca2 O30 2.307680 1_555
Ca2 O32 2.312152 1_555
Ca2 O104 2.327719 1_555
Ca2 O106 2.344971 1_555
Ca3 O103 2.184322 1_555
Ca3 O35 2.254644 1_555
Ca3 O107 2.352170 1_555
Ca3 O31 2.354370 1_555
Ca3 O105 2.431161 1_555
Ca3 O33 2.456259 1_555
Ca4 O36 2.295649 1_556
Ca4 O40 2.296660 1_556
Ca4 O38 2.300918 1_556
Ca4 O108 2.326622 1_555
Ca4 O112 2.346518 1_555
Ca4 O110 2.346560 1_555
Ca5 O41 2.252501 1_556
Ca5 O39 2.290467 1_556
Ca5 O37 2.308730 1_556
Ca5 O109 2.316566 1_555
Ca5 O113 2.356313 1_555
Ca5 O111 2.364123 1_555
Ca6 O45 2.290428 1_555
Ca6 O47 2.305214 1_555
Ca6 O117 2.322411 1_555
Ca6 O43 2.342353 1_555
Ca6 O119 2.349471 1_555
Ca6 O115 2.357002 1_555
Ca7 O54 2.235769 1_555
Ca7 O58 2.252549 1_555
Ca7 O130 2.281545 1_555
Ca7 O56 2.302179 1_555
Ca7 O126 2.397763 1_555
Ca7 O128 2.433866 1_555
Ca8 O57 2.229259 1_555
Ca8 O59 2.238148 1_555
Ca8 O55 2.242916 1_555
Ca8 O129 2.322458 1_555
Ca8 O127 2.342361 1_555
Ca8 O131 2.348496 1_555
Ca9 O62 2.254417 1_555
Ca9 O64 2.280884 1_555
Ca9 O60 2.322528 1_555
Ca9 O134 2.324200 1_555
Ca9 O132 2.395522 1_555
Ca9 O136 2.409833 1_555
Ca10 O142 2.174401 1_555
Ca10 O68 2.194875 1_555
Ca10 O70 2.271603 1_555
Ca10 O140 2.334977 1_555
Ca10 O66 2.353889 1_555
Ca10 O138 2.423584 1_555
Ca11 O67 2.223138 1_555
Ca11 O143 2.230409 1_555
Ca11 O69 2.255118 1_555
Ca11 O71 2.269266 1_555
Ca11 O139 2.323508 1_555
Ca11 O141 2.348428 1_555
In0 O3 2.003841 1_555
In0 O0 2.166940 1_665
In0 O75 2.189105 1_555
In0 O72 2.190746 1_655
In0 O76 2.198429 1_665
In0 O5 2.205440 1_565
In1 O11 2.015699 1_555
In1 O80 2.186573 1_645
In1 O78 2.217392 1_655
In1 O9 2.218517 1_545
In1 O83 2.244722 1_545
In1 O6 2.263061 1_655
In2 O10 2.007343 1_555
In2 O79 2.209052 1_555
In2 O7 2.213864 1_555
In2 O82 2.216146 1_545
In2 O81 2.252902 1_545
In2 O8 2.279015 1_545
In3 O13 2.017627 1_555
In3 O85 2.173218 1_565
In3 O89 2.176930 1_555
In3 O14 2.200762 1_665
In3 O16 2.206753 1_655
In3 O86 2.226475 1_665
In4 O12 1.983674 1_545
In4 O87 2.123830 1_555
In4 O15 2.208602 1_555
In4 O17 2.211958 1_545
In4 O84 2.217145 1_555
In4 O88 2.252316 1_545
In5 O19 2.032089 1_555
In5 O22 2.180933 1_655
In5 O20 2.199576 1_665
In5 O93 2.227680 1_565
In5 O94 2.242687 1_665
In5 O91 2.246284 1_655
In6 O18 2.118276 1_545
In6 O21 2.162755 1_555
In6 O23 2.175953 1_545
In6 O95 2.198605 1_555
In6 O90 2.228790 1_545
In6 O92 2.232509 1_555
In7 O96 2.020501 1_555
In7 O26 2.124828 1_555
In7 O24 2.130242 1_555
In7 O28 2.201913 1_555
In7 O98 2.273556 1_555
In7 O100 2.303169 1_555
In8 O114 2.126547 1_555
In8 O44 2.132847 1_555
In8 O46 2.163406 1_555
In8 O116 2.185507 1_555
In8 O42 2.199184 1_555
In8 O118 2.226753 1_555
In9 O50 2.156425 1_554
In9 O48 2.159828 1_554
In9 O122 2.183967 1_555
In9 O124 2.204608 1_555
In9 O52 2.204872 1_554
In9 O120 2.220857 1_555
In10 O51 2.156279 1_554
In10 O49 2.177796 1_554
In10 O123 2.188673 1_555
In10 O125 2.193984 1_555
In10 O53 2.198900 1_554
In10 O121 2.212002 1_555
In11 O135 2.077883 1_555
In11 O65 2.118144 1_555
In11 O61 2.212336 1_555
In11 O137 2.224151 1_555
In11 O63 2.229767 1_555
In11 O133 2.282444 1_555
O0 S0 1.487858 1_555
O1 S1 1.465317 1_545
O2 S2 1.466963 1_555
O3 Si0 1.632613 1_555
O4 S4 1.459462 1_555
O5 S3 1.489937 1_655
O6 S5 1.477956 1_555
O7 S6 1.491124 1_555
O8 S8 1.490034 1_555
O9 S7 1.485992 1_555
O10 Si1 1.640303 1_555
O11 Si2 1.647496 1_555
O12 Si1 1.635948 1_565
O13 Si2 1.639640 1_565
O14 S5 1.480281 1_555
O15 S6 1.476889 1_555
O16 S7 1.482717 1_455
O17 S8 1.481552 1_555
O18 S2 1.506158 1_555
O19 Si0 1.658909 1_555
O20 S3 1.480523 1_555
O21 S4 1.507597 1_555
O22 S0 1.494752 1_565
O23 S1 1.494830 1_555
O24 S9 1.488853 1_555
O25 S10 1.482966 1_555
O26 S11 1.489848 1_555
O27 S12 1.476683 1_555
O28 S13 1.506377 1_555
O29 S14 1.481254 1_555
O30 S15 1.465367 1_555
O31 S16 1.474078 1_555
O32 S17 1.466098 1_555
O33 S18 1.470478 1_555
O34 S19 1.466222 1_555
O35 S20 1.466557 1_555
O36 S19 1.467711 1_555
O37 S20 1.466078 1_555
O38 S15 1.468347 1_555
O39 S16 1.469072 1_555
O40 S17 1.466417 1_555
O41 S18 1.470972 1_555
O42 S11 1.485717 1_555
O43 S12 1.478342 1_555
O44 S13 1.489150 1_555
O45 S14 1.470225 1_555
O46 S9 1.484835 1_555
O47 S10 1.477390 1_555
O48 S21 1.500850 1_555
O49 S22 1.496723 1_555
O50 S23 1.495361 1_555
O51 S24 1.496949 1_555
O52 S25 1.497869 1_555
O53 S26 1.495155 1_555
O54 S27 1.471744 1_555
O55 S28 1.476793 1_555
O56 S29 1.466100 1_555
O57 S30 1.473657 1_555
O58 S31 1.474300 1_555
O59 S32 1.472762 1_555
O60 S31 1.479229 1_555
O61 S32 1.496983 1_555
O62 S27 1.471405 1_555
O63 S28 1.495381 1_555
O64 S29 1.466395 1_555
O65 S30 1.497816 1_555
O66 S23 1.477604 1_555
O67 S24 1.467749 1_555
O68 S25 1.464605 1_555
O69 S26 1.479656 1_555
O70 S21 1.478611 1_555
O71 S22 1.477404 1_555
O72 S31 1.513906 1_555
O73 S32 1.474678 1_555
O74 S27 1.480044 1_555
O75 S28 1.504553 1_555
O76 S29 1.510823 1_555
O77 S30 1.478166 1_555
O78 S23 1.508167 1_555
O79 S24 1.509487 1_555
O80 S25 1.516282 1_555
O81 S26 1.506211 1_555
O82 S21 1.507086 1_555
O83 S22 1.505619 1_555
O84 S9 1.496631 1_555
O85 S10 1.510593 1_555
O86 S11 1.498577 1_555
O87 S12 1.513130 1_555
O88 S13 1.490367 1_555
O89 S14 1.514677 1_555
O90 S15 1.511408 1_555
O91 S16 1.505972 1_455
O92 S17 1.506970 1_555
O93 S18 1.507261 1_555
O94 S19 1.511306 1_555
O95 S20 1.512263 1_555
O96 Si1 1.653308 1_555
O97 Si2 1.646348 1_555
O98 S5 1.498504 1_555
O99 S6 1.494571 1_555
O100 S8 1.502830 1_555
O101 S7 1.495243 1_555
O102 S2 1.479619 1_555
O103 Si0 1.626275 1_555
O104 S4 1.476480 1_555
O105 S3 1.494110 1_655
O106 S0 1.470241 1_555
O107 S1 1.486522 1_545
O108 S21 1.465024 1_555
O109 S22 1.472377 1_555
O110 S24 1.471835 1_555
O111 S23 1.476203 1_655
O112 S25 1.470365 1_545
O113 S26 1.477589 1_545
O114 S27 1.512127 1_545
O115 S28 1.475920 1_545
O116 S29 1.508999 1_555
O117 S30 1.483619 1_555
O118 S32 1.511940 1_555
O119 S31 1.485088 1_655
O120 S19 1.515623 1_555
O121 S20 1.505800 1_555
O122 S16 1.509205 1_455
O123 S15 1.512602 1_555
O124 S17 1.517830 1_565
O125 S18 1.512645 1_565
O126 S11 1.469573 1_565
O127 S12 1.480661 1_565
O128 S13 1.468318 1_555
O129 S14 1.486172 1_555
O130 S10 1.474292 1_455
O131 S9 1.468657 1_555
O132 S0 1.492699 1_565
O133 S1 1.503183 1_555
O134 S2 1.488179 1_555
O135 Si0 1.657484 1_555
O136 S3 1.484271 1_555
O137 S4 1.505062 1_555
O138 S5 1.492705 1_555
O139 S6 1.480589 1_555
O140 S7 1.481174 1_455
O141 S8 1.472710 1_555
O142 Si1 1.637667 1_565
O143 Si2 1.645319 1_565
