# generated using pymatgen
data_LiCrPO4
_symmetry_space_group_name_H-M   'P 1'
_cell_length_a   5.92482300
_cell_length_b   7.41674200
_cell_length_c   14.18034900
_cell_angle_alpha   90.00000000
_cell_angle_beta   90.00000000
_cell_angle_gamma   90.00000000
_symmetry_Int_Tables_number   1
_chemical_formula_structural   LiCrPO4
_chemical_formula_sum   'Li8 Cr8 P8 O32'
_cell_volume   623.12542533
_cell_formula_units_Z   8
loop_
 _symmetry_equiv_pos_site_id
 _symmetry_equiv_pos_as_xyz
  1  'x, y, z'
loop_
 _atom_site_type_symbol
 _atom_site_label
 _atom_site_symmetry_multiplicity
 _atom_site_fract_x
 _atom_site_fract_y
 _atom_site_fract_z
 _atom_site_occupancy
  Li  Li0  1  0.20154600  0.18494800  0.22110000  1
  Li  Li1  1  0.79845400  0.81505200  0.77890000  1
  Li  Li2  1  0.29845400  0.81505200  0.72110000  1
  Li  Li3  1  0.79845400  0.68494800  0.27890000  1
  Li  Li4  1  0.29845400  0.68494800  0.22110000  1
  Li  Li5  1  0.70154600  0.31505200  0.77890000  1
  Li  Li6  1  0.20154600  0.31505200  0.72110000  1
  Li  Li7  1  0.70154600  0.18494800  0.27890000  1
  Cr  Cr0  1  0.61677400  0.84011800  0.45197700  1
  Cr  Cr1  1  0.11677400  0.84011800  0.04802300  1
  Cr  Cr2  1  0.61677400  0.65988200  0.95197700  1
  Cr  Cr3  1  0.11677400  0.65988200  0.54802300  1
  Cr  Cr4  1  0.88322600  0.34011800  0.45197700  1
  Cr  Cr5  1  0.38322600  0.34011800  0.04802300  1
  Cr  Cr6  1  0.88322600  0.15988200  0.95197700  1
  Cr  Cr7  1  0.38322600  0.15988200  0.54802300  1
  P  P0  1  0.89281600  0.04282200  0.62684000  1
  P  P1  1  0.39281600  0.04282200  0.87316000  1
  P  P2  1  0.89281600  0.45717800  0.12684000  1
  P  P3  1  0.39281600  0.45717800  0.37316000  1
  P  P4  1  0.60718400  0.54282200  0.62684000  1
  P  P5  1  0.10718400  0.54282200  0.87316000  1
  P  P6  1  0.60718400  0.95717800  0.12684000  1
  P  P7  1  0.10718400  0.95717800  0.37316000  1
  O  O0  1  0.78705900  0.42122900  0.22256900  1
  O  O1  1  0.43949500  0.80294200  0.09775300  1
  O  O2  1  0.93949500  0.80294200  0.40224700  1
  O  O3  1  0.01720600  0.85847300  0.63286200  1
  O  O4  1  0.51720700  0.85847300  0.86713800  1
  O  O5  1  0.71294100  0.92122900  0.22256900  1
  O  O6  1  0.21294100  0.92122900  0.27743100  1
  O  O7  1  0.79364400  0.96315900  0.04592000  1
  O  O8  1  0.70635600  0.03684100  0.54592000  1
  O  O9  1  0.20635600  0.03684100  0.95408000  1
  O  O10  1  0.78705900  0.07877100  0.72256900  1
  O  O11  1  0.28705900  0.07877100  0.77743100  1
  O  O12  1  0.48279300  0.14152700  0.13286200  1
  O  O13  1  0.98279300  0.14152700  0.36713800  1
  O  O14  1  0.06050500  0.19705800  0.59775300  1
  O  O15  1  0.93949500  0.69705800  0.90224700  1
  O  O16  1  0.06050500  0.30294200  0.09775300  1
  O  O17  1  0.56050500  0.30294200  0.40224700  1
  O  O18  1  0.48279300  0.35847300  0.63286200  1
  O  O19  1  0.98279300  0.35847300  0.86713800  1
  O  O20  1  0.56050500  0.19705800  0.90224700  1
  O  O21  1  0.28705900  0.42122900  0.27743100  1
  O  O22  1  0.70635600  0.46315900  0.04592000  1
  O  O23  1  0.20635600  0.46315900  0.45408000  1
  O  O24  1  0.79364400  0.53684100  0.54592000  1
  O  O25  1  0.29364400  0.53684100  0.95408000  1
  O  O26  1  0.71294100  0.57877100  0.72256900  1
  O  O27  1  0.21294100  0.57877100  0.77743100  1
  O  O28  1  0.01720600  0.64152700  0.13286200  1
  O  O29  1  0.51720700  0.64152700  0.36713800  1
  O  O30  1  0.43949500  0.69705800  0.59775300  1
  O  O31  1  0.29364400  0.96315900  0.45408000  1
loop_
_geom_bond_atom_site_label_1
_geom_bond_atom_site_label_2
_geom_bond_distance
_geom_bond_site_symmetry_2
Li0 O21 1.991430 1_555
Li0 O12 2.108557 1_555
Li0 O6 2.113839 1_545
Li0 O16 2.126856 1_555
Li0 O13 2.464146 1_455
Li1 O26 1.991430 1_555
Li1 O4 2.108557 1_555
Li1 O10 2.113839 1_565
Li1 O15 2.126856 1_555
Li1 O3 2.464143 1_655
Li2 O27 1.991430 1_555
Li2 O3 2.108561 1_555
Li2 O11 2.113839 1_565
Li2 O30 2.126856 1_555
Li2 O4 2.464146 1_555
Li3 O5 1.991430 1_555
Li3 O29 2.108557 1_555
Li3 O0 2.113839 1_555
Li3 O2 2.126856 1_555
Li3 O28 2.464143 1_655
Li4 O6 1.991430 1_555
Li4 O28 2.108561 1_555
Li4 O21 2.113839 1_555
Li4 O1 2.126856 1_555
Li4 O29 2.464146 1_555
Li5 O10 1.991430 1_555
Li5 O19 2.108557 1_555
Li5 O26 2.113839 1_555
Li5 O20 2.126856 1_555
Li5 O18 2.464146 1_555
Li6 O11 1.991430 1_555
Li6 O18 2.108557 1_555
Li6 O27 2.113839 1_555
Li6 O14 2.126856 1_555
Li6 O19 2.464146 1_455
Li7 O0 1.991430 1_555
Li7 O13 2.108557 1_555
Li7 O5 2.113839 1_545
Li7 O17 2.126856 1_555
Li7 O12 2.464146 1_555
Cr0 O29 1.991169 1_555
Cr0 O8 2.045757 1_565
Cr0 O2 2.056528 1_555
Cr0 O31 2.121067 1_555
Cr0 O30 2.549933 1_555
Cr1 O28 1.991170 1_555
Cr1 O9 2.045757 1_564
Cr1 O1 2.056528 1_555
Cr1 O7 2.121067 1_455
Cr1 O15 2.549933 1_454
Cr2 O4 1.991169 1_555
Cr2 O22 2.045757 1_556
Cr2 O15 2.056528 1_555
Cr2 O25 2.121067 1_555
Cr2 O1 2.549933 1_556
Cr3 O3 1.991170 1_555
Cr3 O23 2.045757 1_555
Cr3 O30 2.056528 1_555
Cr3 O24 2.121067 1_455
Cr3 O2 2.549933 1_455
Cr4 O13 1.991169 1_555
Cr4 O24 2.045757 1_555
Cr4 O17 2.056528 1_555
Cr4 O23 2.121067 1_655
Cr4 O14 2.549933 1_655
Cr5 O12 1.991169 1_555
Cr5 O25 2.045757 1_554
Cr5 O16 2.056528 1_555
Cr5 O22 2.121067 1_555
Cr5 O20 2.549933 1_554
Cr6 O19 1.991169 1_555
Cr6 O7 2.045757 1_546
Cr6 O20 2.056528 1_555
Cr6 O9 2.121067 1_655
Cr6 O16 2.549933 1_656
Cr7 O18 1.991169 1_555
Cr7 O31 2.045757 1_545
Cr7 O14 2.056528 1_555
Cr7 O8 2.121067 1_555
Cr7 O17 2.549933 1_555
O0 P2 1.518694 1_555
O1 P6 1.570285 1_555
O2 P7 1.570285 1_655
O3 P0 1.555593 1_465
O4 P1 1.555596 1_565
O5 P6 1.518694 1_555
O6 P7 1.518694 1_555
O7 P6 1.593462 1_555
O8 P0 1.593462 1_555
O9 P1 1.593462 1_555
O10 P0 1.518694 1_555
O11 P1 1.518694 1_555
O12 P6 1.555596 1_545
O13 P7 1.555596 1_645
O14 P0 1.570285 1_455
O15 P5 1.570285 1_655
O16 P2 1.570285 1_455
O17 P3 1.570285 1_555
O18 P4 1.555596 1_555
O19 P5 1.555596 1_655
O20 P1 1.570285 1_555
O21 P3 1.518694 1_555
O22 P2 1.593462 1_555
O23 P3 1.593462 1_555
O24 P4 1.593462 1_555
O25 P5 1.593462 1_555
O26 P4 1.518694 1_555
O27 P5 1.518694 1_555
O28 P2 1.555593 1_455
O29 P3 1.555596 1_555
O30 P4 1.570285 1_555
O31 P7 1.593462 1_555
