# generated using pymatgen
data_Hf3ZnSiS5O24
_symmetry_space_group_name_H-M   'P 1'
_cell_length_a   8.89615963
_cell_length_b   8.88431133
_cell_length_c   22.91328748
_cell_angle_alpha   89.73436428
_cell_angle_beta   89.94071674
_cell_angle_gamma   119.97305282
_symmetry_Int_Tables_number   1
_chemical_formula_structural   Hf3ZnSiS5O24
_chemical_formula_sum   'Hf9 Zn3 Si3 S15 O72'
_cell_volume   1568.75209269
_cell_formula_units_Z   3
loop_
 _symmetry_equiv_pos_site_id
 _symmetry_equiv_pos_as_xyz
  1  'x, y, z'
loop_
 _atom_site_type_symbol
 _atom_site_label
 _atom_site_symmetry_multiplicity
 _atom_site_fract_x
 _atom_site_fract_y
 _atom_site_fract_z
 _atom_site_occupancy
  Hf  Hf0  1  0.00802230  0.00831052  0.85753076  1
  Hf  Hf1  1  0.99226797  0.99228117  0.64508088  1
  Hf  Hf2  1  0.00057063  0.00095745  0.14452320  1
  Hf  Hf3  1  0.66608219  0.32744886  0.97354333  1
  Hf  Hf4  1  0.66982918  0.34428066  0.48063654  1
  Hf  Hf5  1  0.32308287  0.66342305  0.01824984  1
  Hf  Hf6  1  0.33993558  0.66729879  0.52476063  1
  Hf  Hf7  1  0.33342398  0.66716117  0.30964763  1
  Hf  Hf8  1  0.32529558  0.66971623  0.81215534  1
  Zn  Zn0  1  0.99913569  0.99931066  0.35244728  1
  Zn  Zn1  1  0.66323435  0.34174887  0.68772584  1
  Zn  Zn2  1  0.66634571  0.33363499  0.18588893  1
  Si  Si0  1  0.66853801  0.61937259  0.58660692  1
  Si  Si1  1  0.04570433  0.37831010  0.91626774  1
  Si  Si2  1  0.33176034  0.95362199  0.91580762  1
  S  S0  1  0.29130013  0.00565036  0.25076649  1
  S  S1  1  0.71385649  0.70855334  0.25086272  1
  S  S2  1  0.99480453  0.28627667  0.25077608  1
  S  S3  1  0.29349535  0.28988168  0.74923176  1
  S  S4  1  0.99514235  0.70638374  0.75000236  1
  S  S5  1  0.71000906  0.00490571  0.74953886  1
  S  S6  1  0.95401144  0.33290930  0.58451153  1
  S  S7  1  0.37933154  0.04644200  0.58462520  1
  S  S8  1  0.95355982  0.61992260  0.08513278  1
  S  S9  1  0.66481015  0.04450505  0.08518254  1
  S  S10  1  0.38130793  0.33594188  0.08522574  1
  S  S11  1  0.62098946  0.66752024  0.91641235  1
  S  S12  1  0.62526107  0.95574311  0.41590127  1
  S  S13  1  0.32865731  0.37378498  0.41616712  1
  S  S14  1  0.04530369  0.67049594  0.41603114  1
  O  O0  1  0.21021249  0.02903463  0.30285158  1
  O  O1  1  0.81834702  0.78923620  0.30271697  1
  O  O2  1  0.97078489  0.18086502  0.30296981  1
  O  O3  1  0.20372499  0.17823585  0.80145589  1
  O  O4  1  0.97195076  0.79270033  0.80141472  1
  O  O5  1  0.81876141  0.02633059  0.80125726  1
  O  O6  1  0.79630858  0.97494269  0.69712857  1
  O  O7  1  0.17886158  0.20697798  0.69742005  1
  O  O8  1  0.02907395  0.82310249  0.69747444  1
  O  O9  1  0.79332282  0.82391348  0.19791836  1
  O  O10  1  0.03033252  0.20696780  0.19807040  1
  O  O11  1  0.17665181  0.96989882  0.19810097  1
  O  O12  1  0.88101304  0.36430555  0.63579564  1
  O  O13  1  0.48564335  0.11505235  0.63559233  1
  O  O14  1  0.62931263  0.49774134  0.64106216  1
  O  O15  1  0.87767724  0.51500697  0.13740107  1
  O  O16  1  0.63734669  0.12167190  0.13704246  1
  O  O17  1  0.48445986  0.36102674  0.13736696  1
  O  O18  1  0.45543771  0.30280885  0.03237713  1
  O  O19  1  0.84684159  0.54703569  0.03248950  1
  O  O20  1  0.69941870  0.15503095  0.03236874  1
  O  O21  1  0.46031029  0.15380238  0.53024963  1
  O  O22  1  0.69747835  0.53271566  0.52618171  1
  O  O23  1  0.84534095  0.30221992  0.53043876  1
  O  O24  1  0.54366001  0.69689768  0.96954147  1
  O  O25  1  0.16610612  0.46388042  0.97395361  1
  O  O26  1  0.30498485  0.83660590  0.97409662  1
  O  O27  1  0.53750457  0.84438689  0.46811672  1
  O  O28  1  0.30496869  0.46051202  0.46798081  1
  O  O29  1  0.15284623  0.69314166  0.46808888  1
  O  O30  1  0.12983662  0.63946156  0.36381651  1
  O  O31  1  0.50946862  0.86982894  0.36399207  1
  O  O32  1  0.36202991  0.49043313  0.36398427  1
  O  O33  1  0.13688388  0.49950702  0.85939870  1
  O  O34  1  0.36987731  0.86734048  0.85949376  1
  O  O35  1  0.51273445  0.63552943  0.86410280  1
  O  O36  1  0.02413114  0.82102953  0.40721386  1
  O  O37  1  0.79527649  0.97268229  0.40763112  1
  O  O38  1  0.17742584  0.20355344  0.40782126  1
  O  O39  1  0.01835591  0.18672636  0.90666082  1
  O  O40  1  0.16133023  0.97034656  0.90625532  1
  O  O41  1  0.79427661  0.82031720  0.90759330  1
  O  O42  1  0.97882378  0.18026005  0.59107397  1
  O  O43  1  0.20464231  0.02754755  0.59136298  1
  O  O44  1  0.83666156  0.81481857  0.59292242  1
  O  O45  1  0.97621373  0.79937821  0.09401979  1
  O  O46  1  0.82438436  0.02604487  0.09388721  1
  O  O47  1  0.20210442  0.17757549  0.09415649  1
  O  O48  1  0.69211514  0.15669501  0.73994715  1
  O  O49  1  0.46120107  0.30247775  0.74342423  1
  O  O50  1  0.84714740  0.53535625  0.74245972  1
  O  O51  1  0.68850046  0.53560173  0.24066969  1
  O  O52  1  0.84722691  0.31153647  0.24052181  1
  O  O53  1  0.46446624  0.15301695  0.24053900  1
  O  O54  1  0.64024990  0.51366892  0.92637918  1
  O  O55  1  0.85922310  0.36324168  0.92778660  1
  O  O56  1  0.49753511  0.14442073  0.92748841  1
  O  O57  1  0.63851779  0.12719167  0.42472440  1
  O  O58  1  0.48719095  0.35844201  0.42450459  1
  O  O59  1  0.87302931  0.50835765  0.42368845  1
  O  O60  1  0.35760683  0.48748854  0.07652215  1
  O  O61  1  0.13037050  0.64474342  0.07689293  1
  O  O62  1  0.51713368  0.86837220  0.07577457  1
  O  O63  1  0.35320261  0.86914231  0.57203511  1
  O  O64  1  0.50213998  0.64587918  0.57115064  1
  O  O65  1  0.12858499  0.48760438  0.57197559  1
  O  O66  1  0.30581949  0.84311207  0.25924258  1
  O  O67  1  0.53709576  0.69403200  0.25933278  1
  O  O68  1  0.15694625  0.46296395  0.25928514  1
  O  O69  1  0.30906012  0.46263961  0.75769393  1
  O  O70  1  0.15737303  0.69653715  0.75589048  1
  O  O71  1  0.54005347  0.84325528  0.75652056  1
loop_
_geom_bond_atom_site_label_1
_geom_bond_atom_site_label_2
_geom_bond_distance
_geom_bond_site_symmetry_2
Hf0 O39 1.912964 1_555
Hf0 O40 1.918223 1_545
Hf0 O3 2.076594 1_555
Hf0 O41 2.127333 1_445
Hf0 O5 2.189738 1_455
Hf0 O4 2.198883 1_445
Hf1 O44 1.915859 1_555
Hf1 O6 2.052001 1_555
Hf1 O8 2.069631 1_655
Hf1 O42 2.124967 1_565
Hf1 O43 2.140753 1_665
Hf1 O7 2.166485 1_665
Hf2 O47 2.043626 1_555
Hf2 O46 2.050107 1_455
Hf2 O45 2.055567 1_445
Hf2 O9 2.109509 1_445
Hf2 O10 2.112496 1_555
Hf2 O11 2.114172 1_545
Hf3 O56 1.894462 1_555
Hf3 O55 1.897324 1_555
Hf3 O54 2.078866 1_555
Hf3 O20 2.164901 1_556
Hf3 O18 2.226877 1_556
Hf3 O19 2.260619 1_556
Hf4 O22 1.886140 1_555
Hf4 O59 2.107109 1_555
Hf4 O21 2.111010 1_555
Hf4 O23 2.112450 1_555
Hf4 O58 2.125333 1_555
Hf4 O57 2.219362 1_555
Hf5 O26 1.910548 1_554
Hf5 O25 1.915491 1_554
Hf5 O61 2.116870 1_555
Hf5 O24 2.143343 1_554
Hf5 O60 2.186648 1_555
Hf5 O62 2.217907 1_555
Hf6 O64 1.877228 1_555
Hf6 O63 2.051778 1_555
Hf6 O65 2.057866 1_555
Hf6 O27 2.112429 1_555
Hf6 O28 2.148610 1_555
Hf6 O29 2.211920 1_555
Hf7 O66 2.050664 1_555
Hf7 O67 2.056700 1_555
Hf7 O68 2.065169 1_555
Hf7 O30 2.104406 1_555
Hf7 O31 2.110103 1_555
Hf7 O32 2.112314 1_555
Hf8 O33 1.927813 1_555
Hf8 O34 1.933720 1_555
Hf8 O70 2.075403 1_555
Hf8 O71 2.164660 1_555
Hf8 O69 2.172295 1_555
Hf8 O35 2.190056 1_555
O0 S0 1.462223 1_555
O0 Zn0 2.093920 1_445
O1 S1 1.460827 1_555
O1 Zn0 2.095875 1_555
O2 S2 1.463589 1_555
O2 Zn0 2.083437 1_545
O3 S3 1.499692 1_555
O4 S4 1.477956 1_555
O5 S5 1.482235 1_555
O6 S5 1.519106 1_565
O7 S3 1.500658 1_555
O8 S4 1.513259 1_455
O9 S1 1.511492 1_555
O10 S2 1.511431 1_455
O11 S0 1.509892 1_565
O12 S6 1.436251 1_555
O12 Zn1 2.194215 1_555
O13 S7 1.436212 1_555
O13 Zn1 2.196860 1_555
O14 Si0 1.567222 1_555
O14 Zn1 1.886739 1_555
O15 S8 1.455378 1_555
O15 Zn2 2.077864 1_555
O16 S9 1.454659 1_555
O16 Zn2 2.097665 1_555
O17 S10 1.455859 1_555
O17 Zn2 2.075616 1_555
O18 S10 1.477679 1_555
O19 S8 1.473425 1_555
O20 S9 1.486464 1_555
O21 S7 1.510506 1_555
O22 Si0 1.668281 1_555
O23 S6 1.512041 1_555
O24 S11 1.484575 1_555
O25 Si1 1.634300 1_555
O26 Si2 1.631063 1_555
O27 S12 1.495007 1_555
O28 S13 1.489228 1_555
O29 S14 1.480151 1_555
O30 S14 1.510404 1_555
O31 S12 1.511209 1_555
O32 S13 1.507363 1_555
O33 Si1 1.620932 1_555
O34 Si2 1.623435 1_555
O35 S11 1.475435 1_555
O36 S14 1.454019 1_555
O36 Zn0 2.113526 1_455
O37 S12 1.455292 1_555
O37 Zn0 2.123108 1_555
O38 S13 1.450542 1_555
O38 Zn0 2.137280 1_445
O39 Si1 1.610766 1_555
O40 Si2 1.610668 1_555
O41 S11 1.471714 1_555
O42 S6 1.485886 1_555
O43 S7 1.485170 1_555
O44 Si0 1.637331 1_555
O45 S8 1.518567 1_555
O46 S9 1.521464 1_555
O47 S10 1.522647 1_555
O48 S5 1.450528 1_555
O48 Zn1 2.145977 1_555
O49 S3 1.445246 1_555
O49 Zn1 2.084566 1_555
O50 S4 1.440856 1_555
O50 Zn1 2.102540 1_555
O51 S1 1.457241 1_555
O51 Zn2 2.121807 1_555
O52 S2 1.457308 1_555
O52 Zn2 2.124267 1_555
O53 S0 1.457179 1_555
O53 Zn2 2.113195 1_555
O54 S11 1.476830 1_555
O55 Si1 1.617594 1_655
O56 Si2 1.620845 1_545
O57 S12 1.482680 1_545
O58 S13 1.495507 1_555
O59 S14 1.498608 1_655
O60 S10 1.475886 1_555
O61 S8 1.486885 1_455
O62 S9 1.473322 1_565
O63 S7 1.502320 1_565
O64 Si0 1.649487 1_555
O65 S6 1.498671 1_455
O66 S0 1.524296 1_565
O67 S1 1.524294 1_555
O68 S2 1.524384 1_455
O69 S3 1.484235 1_555
O70 S4 1.495063 1_455
O71 S5 1.483870 1_565
