# generated using pymatgen
data_Dy3In
_symmetry_space_group_name_H-M   'P 1'
_cell_length_a   4.82695394
_cell_length_b   4.82695394
_cell_length_c   4.82978336
_cell_angle_alpha   90.00000000
_cell_angle_beta   90.00000000
_cell_angle_gamma   90.00000000
_symmetry_Int_Tables_number   1
_chemical_formula_structural   Dy3In
_chemical_formula_sum   'Dy3 In1'
_cell_volume   112.53146176
_cell_formula_units_Z   1
loop_
 _symmetry_equiv_pos_site_id
 _symmetry_equiv_pos_as_xyz
  1  'x, y, z'
loop_
 _atom_site_type_symbol
 _atom_site_label
 _atom_site_symmetry_multiplicity
 _atom_site_fract_x
 _atom_site_fract_y
 _atom_site_fract_z
 _atom_site_occupancy
  Dy  Dy0  1  0.50000000  0.50000000  0.00000000  1
  Dy  Dy1  1  0.00000000  0.50000000  0.50000000  1
  Dy  Dy2  1  0.50000000  -0.00000000  0.50000000  1
  In  In0  1  0.00000000  -0.00000000  0.00000000  1
loop_
_geom_bond_atom_site_label_1
_geom_bond_atom_site_label_2
_geom_bond_distance
_geom_bond_site_symmetry_2
Dy0 In0 3.413172 1_555
Dy0 In0 3.413172 1_565
Dy0 In0 3.413172 1_665
Dy0 In0 3.413172 1_655
Dy0 Dy1 3.414172 1_655
Dy0 Dy2 3.414172 1_564
Dy0 Dy2 3.414172 1_555
Dy0 Dy1 3.414172 1_654
Dy0 Dy2 3.414172 1_554
Dy0 Dy2 3.414172 1_565
Dy0 Dy1 3.414172 1_555
Dy0 Dy1 3.414172 1_554
Dy1 Dy2 3.413172 1_465
Dy1 Dy2 3.413172 1_555
Dy1 Dy2 3.413172 1_455
Dy1 Dy2 3.413172 1_565
Dy1 In0 3.414172 1_555
Dy1 In0 3.414172 1_556
Dy1 In0 3.414172 1_565
Dy1 In0 3.414172 1_566
Dy2 In0 3.414172 1_555
Dy2 In0 3.414172 1_556
Dy2 In0 3.414172 1_655
Dy2 In0 3.414172 1_656
