# generated using pymatgen
data_Na7Ti2Si5Ge2PO24
_symmetry_space_group_name_H-M   'P 1'
_cell_length_a   8.84673244
_cell_length_b   8.83737094
_cell_length_c   21.79237781
_cell_angle_alpha   90.05897392
_cell_angle_beta   89.71754079
_cell_angle_gamma   120.05271946
_symmetry_Int_Tables_number   1
_chemical_formula_structural   Na7Ti2Si5Ge2PO24
_chemical_formula_sum   'Na21 Ti6 Si15 Ge6 P3 O72'
_cell_volume   1474.70241775
_cell_formula_units_Z   3
loop_
 _symmetry_equiv_pos_site_id
 _symmetry_equiv_pos_as_xyz
  1  'x, y, z'
loop_
 _atom_site_type_symbol
 _atom_site_label
 _atom_site_symmetry_multiplicity
 _atom_site_fract_x
 _atom_site_fract_y
 _atom_site_fract_z
 _atom_site_occupancy
  Na  Na0  1  0.63174346  0.00066788  0.24994917  1
  Na  Na1  1  0.36941103  0.37017215  0.25020557  1
  Na  Na2  1  0.00025031  0.62880489  0.25016555  1
  Na  Na3  1  0.62894748  0.63016170  0.74946524  1
  Na  Na4  1  0.00095384  0.36926728  0.74945732  1
  Na  Na5  1  0.37055541  0.00059499  0.74957323  1
  Na  Na6  1  0.29724127  0.33467009  0.58344575  1
  Na  Na7  1  0.03634361  0.70249688  0.58393267  1
  Na  Na8  1  0.66751132  0.96381312  0.58401720  1
  Na  Na9  1  0.29889861  0.96754684  0.08277072  1
  Na  Na10  1  0.03435054  0.33593333  0.08502151  1
  Na  Na11  1  0.96703025  0.66726346  0.91657384  1
  Na  Na12  1  0.33433037  0.29970983  0.91678272  1
  Na  Na13  1  0.33147938  0.03266209  0.41677738  1
  Na  Na14  1  0.69841383  0.66526214  0.41753536  1
  Na  Na15  1  0.99873269  0.00712022  0.49899594  1
  Na  Na16  1  0.98501532  0.99303418  0.99989118  1
  Na  Na17  1  0.66735494  0.32410595  0.83417522  1
  Na  Na18  1  0.67492029  0.33140738  0.33492895  1
  Na  Na19  1  0.34204056  0.66624282  0.16559516  1
  Na  Na20  1  0.33437859  0.66564904  0.66653478  1
  Ti  Ti0  1  0.66804826  0.34042452  0.18838788  1
  Ti  Ti1  1  0.66667687  0.32902259  0.98142136  1
  Ti  Ti2  1  0.32677233  0.65910873  0.01836974  1
  Ti  Ti3  1  0.33613369  0.67352179  0.52017128  1
  Ti  Ti4  1  0.32980389  0.67133390  0.31322446  1
  Ti  Ti5  1  0.32938731  0.67070737  0.81175904  1
  Si  Si0  1  0.28316023  0.00078228  0.25076994  1
  Si  Si1  1  0.71748858  0.71907599  0.25002125  1
  Si  Si2  1  0.00030937  0.28124966  0.25002621  1
  Si  Si3  1  0.28775572  0.28411910  0.74855113  1
  Si  Si4  1  0.99558440  0.71484688  0.74911921  1
  Si  Si5  1  0.71844525  0.00295080  0.74921452  1
  Si  Si6  1  0.95157922  0.33014350  0.58499863  1
  Si  Si7  1  0.38234157  0.05314766  0.58402624  1
  Si  Si8  1  0.66944237  0.61828616  0.58414928  1
  Si  Si9  1  0.95302124  0.63022602  0.08372329  1
  Si  Si10  1  0.37509116  0.33461775  0.08443012  1
  Si  Si11  1  0.03662328  0.36614697  0.91470463  1
  Si  Si12  1  0.33326254  0.95956180  0.91594350  1
  Si  Si13  1  0.63280896  0.96697517  0.41645052  1
  Si  Si14  1  0.03595042  0.66217947  0.41705066  1
  Ge  Ge0  1  0.99456207  0.99732453  0.35271907  1
  Ge  Ge1  1  0.00205506  0.00452004  0.85171122  1
  Ge  Ge2  1  0.99977866  0.00018423  0.64605630  1
  Ge  Ge3  1  0.00156312  0.99743161  0.14749506  1
  Ge  Ge4  1  0.66756210  0.33338477  0.68737291  1
  Ge  Ge5  1  0.67671091  0.33168373  0.48213504  1
  P  P0  1  0.66834911  0.04081857  0.08474688  1
  P  P1  1  0.62587205  0.67373410  0.91532850  1
  P  P2  1  0.32870548  0.37302880  0.41631535  1
  O  O0  1  0.20012210  0.04149663  0.31156774  1
  O  O1  1  0.83953414  0.79324872  0.31144449  1
  O  O2  1  0.95628543  0.15148093  0.30870812  1
  O  O3  1  0.20714843  0.16018283  0.80974049  1
  O  O4  1  0.95667094  0.79773873  0.81051026  1
  O  O5  1  0.84779277  0.04605938  0.80787931  1
  O  O6  1  0.79742202  0.95773715  0.68785480  1
  O  O7  1  0.16083926  0.20191875  0.68857114  1
  O  O8  1  0.04111571  0.84044667  0.68858157  1
  O  O9  1  0.80296741  0.84852598  0.19116004  1
  O  O10  1  0.04224026  0.20190753  0.18783740  1
  O  O11  1  0.16116332  0.95724068  0.18971166  1
  O  O12  1  0.87146109  0.37646739  0.64558643  1
  O  O13  1  0.50727841  0.13183164  0.64435122  1
  O  O14  1  0.62627686  0.49335924  0.64466700  1
  O  O15  1  0.86787058  0.50004258  0.14318991  1
  O  O16  1  0.63473319  0.12342392  0.14243654  1
  O  O17  1  0.49598591  0.35902514  0.14433980  1
  O  O18  1  0.46397553  0.29566290  0.02471391  1
  O  O19  1  0.83459867  0.53269976  0.02346155  1
  O  O20  1  0.70127858  0.16427280  0.02877104  1
  O  O21  1  0.46528543  0.17644696  0.52284392  1
  O  O22  1  0.70832576  0.53378791  0.52296983  1
  O  O23  1  0.82283024  0.28416213  0.52614167  1
  O  O24  1  0.53273837  0.69666189  0.97211521  1
  O  O25  1  0.16498199  0.45947370  0.97493802  1
  O  O26  1  0.29782729  0.83196931  0.97558096  1
  O  O27  1  0.53881805  0.83568749  0.47607385  1
  O  O28  1  0.30444274  0.46125047  0.47476254  1
  O  O29  1  0.16652925  0.70014626  0.47597961  1
  O  O30  1  0.12995278  0.63455787  0.35649298  1
  O  O31  1  0.50254911  0.87098782  0.35757652  1
  O  O32  1  0.36233537  0.49114085  0.35936348  1
  O  O33  1  0.13339637  0.49778276  0.85634451  1
  O  O34  1  0.36247939  0.86628306  0.85554568  1
  O  O35  1  0.51002333  0.63781695  0.85775781  1
  O  O36  1  0.02660661  0.84419738  0.41152300  1
  O  O37  1  0.81987930  0.97229525  0.41089519  1
  O  O38  1  0.16691545  0.18879733  0.41211093  1
  O  O39  1  0.03016436  0.17907722  0.90999095  1
  O  O40  1  0.15198886  0.96938875  0.91046499  1
  O  O41  1  0.81004811  0.83470648  0.91120787  1
  O  O42  1  0.97196977  0.15500234  0.58961325  1
  O  O43  1  0.18563693  0.02967521  0.58878947  1
  O  O44  1  0.84502137  0.81415267  0.58862491  1
  O  O45  1  0.97724376  0.82500650  0.08912088  1
  O  O46  1  0.83899168  0.03332949  0.08848375  1
  O  O47  1  0.17988456  0.15702341  0.08896905  1
  O  O48  1  0.69620452  0.17740191  0.74422045  1
  O  O49  1  0.48307202  0.30341274  0.74383538  1
  O  O50  1  0.82159723  0.51845373  0.74480436  1
  O  O51  1  0.69571859  0.52291993  0.24470352  1
  O  O52  1  0.82737866  0.30350502  0.24461728  1
  O  O53  1  0.47947177  0.17100842  0.24577170  1
  O  O54  1  0.64215592  0.50683075  0.92145886  1
  O  O55  1  0.85120397  0.36084128  0.92206079  1
  O  O56  1  0.50172481  0.15531587  0.92179931  1
  O  O57  1  0.63400317  0.15215746  0.42331992  1
  O  O58  1  0.49666230  0.35867593  0.42075015  1
  O  O59  1  0.83972961  0.49189035  0.42291960  1
  O  O60  1  0.35161223  0.50572182  0.07846322  1
  O  O61  1  0.14811932  0.64745004  0.07763412  1
  O  O62  1  0.50272690  0.86293885  0.07707294  1
  O  O63  1  0.36025792  0.85649517  0.57773589  1
  O  O64  1  0.49566433  0.63976884  0.57801594  1
  O  O65  1  0.14666579  0.50351810  0.57758362  1
  O  O66  1  0.30511896  0.82669747  0.25525964  1
  O  O67  1  0.52138582  0.69247634  0.25618035  1
  O  O68  1  0.17406190  0.47657651  0.25546550  1
  O  O69  1  0.31073860  0.47920300  0.75503306  1
  O  O70  1  0.16973536  0.69284545  0.75408916  1
  O  O71  1  0.52328209  0.82922645  0.75498531  1
loop_
_geom_bond_atom_site_label_1
_geom_bond_atom_site_label_2
_geom_bond_distance
_geom_bond_site_symmetry_2
Na0 O52 2.351761 1_555
Na0 O67 2.392859 1_545
Na0 O53 2.474208 1_555
Na0 O66 2.504823 1_545
Na0 O16 2.577383 1_555
Na0 O31 2.605387 1_545
Na0 O9 2.785838 1_545
Na0 O2 2.803470 1_555
Na1 O68 2.347243 1_555
Na1 O53 2.402184 1_555
Na1 O67 2.470398 1_555
Na1 O51 2.502768 1_555
Na1 O17 2.582770 1_555
Na1 O32 2.620274 1_555
Na1 O0 2.845909 1_555
Na1 O10 2.856532 1_555
Na2 O66 2.371356 1_555
Na2 O51 2.371905 1_455
Na2 O52 2.493093 1_455
Na2 O68 2.502312 1_555
Na2 O30 2.579890 1_555
Na2 O15 2.605347 1_455
Na2 O1 2.821994 1_455
Na2 O11 2.835069 1_555
Na3 O50 2.360695 1_555
Na3 O71 2.372488 1_555
Na3 O69 2.440232 1_555
Na3 O49 2.507414 1_555
Na3 O14 2.577629 1_555
Na3 O35 2.593709 1_555
Na3 O6 2.841000 1_555
Na3 O4 2.846441 1_555
Na4 O48 2.362337 1_455
Na4 O69 2.409493 1_555
Na4 O70 2.478143 1_555
Na4 O50 2.522565 1_455
Na4 O12 2.557176 1_455
Na4 O33 2.603291 1_555
Na4 O5 2.780191 1_455
Na4 O7 2.832159 1_555
Na5 O49 2.345090 1_555
Na5 O70 2.392083 1_545
Na5 O71 2.486853 1_545
Na5 O48 2.498642 1_555
Na5 O13 2.576667 1_555
Na5 O34 2.581929 1_545
Na5 O3 2.796003 1_555
Na5 O8 2.857750 1_545
Na6 O43 2.363763 1_555
Na6 O64 2.371358 1_555
Na6 O65 2.451602 1_555
Na6 O42 2.498000 1_455
Na6 O7 2.577052 1_555
Na6 O28 2.607225 1_555
Na6 O21 2.822819 1_555
Na6 O14 2.857566 1_555
Na7 O44 2.349430 1_455
Na7 O65 2.404366 1_555
Na7 O63 2.484436 1_555
Na7 O43 2.508307 1_565
Na7 O8 2.575383 1_555
Na7 O29 2.618882 1_555
Na7 O12 2.830841 1_455
Na7 O22 2.847688 1_455
Na8 O42 2.359885 1_565
Na8 O63 2.393346 1_555
Na8 O64 2.483900 1_555
Na8 O44 2.511495 1_555
Na8 O6 2.555781 1_555
Na8 O27 2.615637 1_555
Na8 O23 2.754565 1_565
Na8 O13 2.833497 1_565
Na9 O47 2.386347 1_565
Na9 O62 2.406000 1_555
Na9 O61 2.452644 1_555
Na9 O45 2.471756 1_455
Na9 O11 2.604910 1_555
Na9 O26 2.622071 1_554
Na9 O18 2.808833 1_565
Na9 O16 2.889726 1_565
Na10 O46 2.348207 1_455
Na10 O61 2.417010 1_555
Na10 O60 2.434734 1_555
Na10 O47 2.491022 1_555
Na10 O10 2.553012 1_555
Na10 O25 2.645176 1_554
Na10 O15 2.827825 1_455
Na10 O20 2.835678 1_455
Na11 O40 2.333831 1_655
Na11 O55 2.370145 1_555
Na11 O41 2.488442 1_555
Na11 O54 2.489526 1_555
Na11 O4 2.606497 1_555
Na11 O19 2.606902 1_556
Na11 O26 2.846622 1_655
Na11 O33 2.883932 1_655
Na12 O39 2.351508 1_555
Na12 O56 2.393312 1_555
Na12 O54 2.405539 1_555
Na12 O40 2.535262 1_545
Na12 O3 2.618829 1_555
Na12 O18 2.629993 1_556
Na12 O25 2.817867 1_555
Na12 O35 2.887040 1_555
Na13 O57 2.339019 1_555
Na13 O36 2.359015 1_545
Na13 O38 2.459174 1_555
Na13 O58 2.495502 1_555
Na13 O0 2.594384 1_555
Na13 O21 2.621645 1_555
Na13 O29 2.850157 1_545
Na13 O31 2.852885 1_545
Na14 O37 2.370004 1_555
Na14 O58 2.384759 1_555
Na14 O59 2.417550 1_555
Na14 O36 2.519081 1_655
Na14 O1 2.597259 1_555
Na14 O22 2.597398 1_555
Na14 O27 2.827965 1_555
Na14 O32 2.874991 1_555
Na15 O37 2.413586 1_545
Na15 O38 2.441813 1_655
Na15 O42 2.442072 1_555
Na15 O36 2.472438 1_645
Na15 O44 2.496079 1_545
Na15 O43 2.510752 1_655
Na16 O45 2.427608 1_556
Na16 O41 2.437911 1_555
Na16 O46 2.440856 1_566
Na16 O39 2.458069 1_665
Na16 O40 2.510677 1_655
Na16 O47 2.522983 1_666
Na17 O56 2.409882 1_555
Na17 O48 2.431077 1_555
Na17 O55 2.432997 1_555
Na17 O50 2.497666 1_555
Na17 O49 2.509875 1_555
Na17 O54 2.573987 1_555
Na18 O59 2.401041 1_555
Na18 O57 2.403313 1_555
Na18 O52 2.461571 1_555
Na18 O53 2.519257 1_555
Na18 O58 2.528529 1_555
Na18 O51 2.540812 1_555
Na19 O60 2.395458 1_555
Na19 O67 2.475796 1_555
Na19 O62 2.503748 1_555
Na19 O68 2.517294 1_555
Na19 O66 2.527339 1_555
Na19 O61 2.528158 1_555
Na20 O64 2.471479 1_555
Na20 O69 2.476995 1_555
Na20 O70 2.478334 1_555
Na20 O71 2.490853 1_555
Na20 O65 2.492217 1_555
Na20 O63 2.501464 1_555
Ge0 O2 1.832608 1_565
Ge0 O1 1.863876 1_555
Ge0 O0 1.880770 1_665
Ge0 O37 1.919192 1_555
Ge0 O36 1.986254 1_655
Ge0 O38 2.072223 1_665
Ge1 O5 1.850671 1_455
Ge1 O3 1.872783 1_555
Ge1 O4 1.889993 1_445
Ge1 O39 1.915575 1_555
Ge1 O40 1.981214 1_545
Ge1 O41 2.060984 1_445
Ge2 O6 1.867418 1_545
Ge2 O8 1.873083 1_645
Ge2 O7 1.879451 1_655
Ge2 O42 1.946537 1_555
Ge2 O43 1.969804 1_655
Ge2 O44 1.975327 1_545
Ge3 O9 1.842376 1_455
Ge3 O11 1.865986 1_555
Ge3 O10 1.875181 1_565
Ge3 O45 1.912283 1_455
Ge3 O47 1.964668 1_565
Ge3 O46 2.073402 1_465
Ge4 O14 1.876559 1_555
Ge4 O12 1.877412 1_555
Ge4 O13 1.882094 1_555
Ge4 O49 1.948308 1_555
Ge4 O48 1.963569 1_555
Ge4 O50 1.969427 1_555
Ge5 O23 1.823153 1_555
Ge5 O22 1.886535 1_555
Ge5 O21 1.893048 1_555
Ge5 O59 1.920925 1_555
Ge5 O57 1.924285 1_555
Ge5 O58 2.187642 1_555
O0 Si0 1.636680 1_555
O1 Si1 1.640350 1_555
O2 Si2 1.628801 1_655
O3 Si3 1.642438 1_555
O4 Si4 1.640434 1_555
O5 Si5 1.632719 1_555
O6 Si5 1.644737 1_565
O7 Si3 1.640879 1_555
O8 Si4 1.638504 1_455
O9 Si1 1.628786 1_555
O10 Si2 1.649102 1_555
O11 Si0 1.637240 1_565
O12 Si6 1.641214 1_555
O13 Si7 1.635868 1_555
O14 Si8 1.636998 1_555
O15 Si9 1.641913 1_555
O15 Ti0 1.890262 1_555
O16 P0 1.553632 1_555
O16 Ti0 2.049421 1_555
O17 Si10 1.636172 1_555
O17 Ti0 1.879059 1_555
O18 Si10 1.640273 1_555
O18 Ti1 1.909742 1_554
O19 Si9 1.634586 1_555
O19 Ti1 1.902084 1_554
O20 P0 1.563360 1_555
O20 Ti1 1.931541 1_554
O21 Si7 1.641943 1_555
O22 Si8 1.644448 1_555
O23 Si6 1.630142 1_555
O24 P1 1.551775 1_555
O24 Ti2 1.955312 1_556
O25 Si11 1.663468 1_555
O25 Ti2 1.880894 1_556
O26 Si12 1.644305 1_555
O26 Ti2 1.914634 1_556
O27 Si13 1.658914 1_555
O27 Ti3 1.898565 1_555
O28 P2 1.561768 1_555
O28 Ti3 2.012227 1_555
O29 Si14 1.649774 1_555
O29 Ti3 1.898015 1_555
O30 Si14 1.638476 1_555
O30 Ti4 1.878649 1_555
O31 Si13 1.651329 1_555
O31 Ti4 1.921762 1_555
O32 P2 1.551254 1_555
O32 Ti4 2.023570 1_555
O33 Si11 1.642718 1_555
O33 Ti5 1.902181 1_555
O34 Si12 1.639079 1_555
O34 Ti5 1.864423 1_555
O35 P1 1.552801 1_555
O35 Ti5 2.030934 1_555
O36 Si14 1.656045 1_555
O37 Si13 1.635808 1_555
O38 P2 1.541024 1_555
O39 Si11 1.628495 1_555
O40 Si12 1.653779 1_555
O41 P1 1.537475 1_555
O42 Si6 1.648772 1_555
O43 Si7 1.648875 1_555
O44 Si8 1.651245 1_555
O45 Si9 1.628855 1_555
O46 P0 1.546379 1_555
O47 Si10 1.655076 1_555
O48 Si5 1.652798 1_555
O49 Si3 1.651820 1_555
O50 Si4 1.647940 1_555
O51 Si1 1.649537 1_555
O51 Ti0 1.941801 1_555
O52 Si2 1.642036 1_655
O52 Ti0 2.018245 1_555
O53 Si0 1.634869 1_555
O53 Ti0 2.017461 1_555
O54 P1 1.558078 1_555
O54 Ti1 2.138268 1_555
O55 Si11 1.624515 1_655
O55 Ti1 1.984334 1_555
O56 Si12 1.627645 1_545
O56 Ti1 1.986236 1_555
O57 Si13 1.637965 1_545
O58 P2 1.556743 1_555
O59 Si14 1.635896 1_655
O60 Si10 1.631498 1_555
O60 Ti2 1.976264 1_555
O61 Si9 1.659648 1_455
O61 Ti2 1.998407 1_555
O62 P0 1.529992 1_565
O62 Ti2 2.123875 1_555
O63 Si7 1.654367 1_565
O63 Ti3 1.971486 1_555
O64 Si8 1.646761 1_555
O64 Ti3 2.027270 1_555
O65 Si6 1.643633 1_455
O65 Ti3 2.023121 1_555
O66 Si0 1.647417 1_565
O66 Ti4 1.958339 1_555
O67 Si1 1.634731 1_555
O67 Ti4 2.028644 1_555
O68 Si2 1.643262 1_555
O68 Ti4 2.020516 1_555
O69 Si3 1.637760 1_555
O69 Ti5 2.034120 1_555
O70 Si4 1.650732 1_455
O70 Ti5 1.976707 1_555
O71 Si5 1.642305 1_565
O71 Ti5 2.002857 1_555
