# generated using pymatgen
data_Na8Hf2In2Si5SO24
_symmetry_space_group_name_H-M   'P 1'
_cell_length_a   9.27748170
_cell_length_b   9.27254493
_cell_length_c   22.55694450
_cell_angle_alpha   89.89863262
_cell_angle_beta   90.02387568
_cell_angle_gamma   119.94031234
_symmetry_Int_Tables_number   1
_chemical_formula_structural   Na8Hf2In2Si5SO24
_chemical_formula_sum   'Na24 Hf6 In6 Si15 S3 O72'
_cell_volume   1681.51252325
_cell_formula_units_Z   3
loop_
 _symmetry_equiv_pos_site_id
 _symmetry_equiv_pos_as_xyz
  1  'x, y, z'
loop_
 _atom_site_type_symbol
 _atom_site_label
 _atom_site_symmetry_multiplicity
 _atom_site_fract_x
 _atom_site_fract_y
 _atom_site_fract_z
 _atom_site_occupancy
  Na  Na0  1  0.64488976  0.00309654  0.25328192  1
  Na  Na1  1  0.35466212  0.35868101  0.24600466  1
  Na  Na2  1  0.99971199  0.64106363  0.24943267  1
  Na  Na3  1  0.63731729  0.63612635  0.74560248  1
  Na  Na4  1  0.99434016  0.35786440  0.74928450  1
  Na  Na5  1  0.36719159  0.00936835  0.74943180  1
  Na  Na6  1  0.30179328  0.33953564  0.58759671  1
  Na  Na7  1  0.04038780  0.70174036  0.58212648  1
  Na  Na8  1  0.66255414  0.95901962  0.58257451  1
  Na  Na9  1  0.28264596  0.96312320  0.08007173  1
  Na  Na10  1  0.67125592  0.69163678  0.08850305  1
  Na  Na11  1  0.04742622  0.33766783  0.08720461  1
  Na  Na12  1  0.97608821  0.66988023  0.91595645  1
  Na  Na13  1  0.70586029  0.04655729  0.90663099  1
  Na  Na14  1  0.31795199  0.28074102  0.91902970  1
  Na  Na15  1  0.95851708  0.29312053  0.40978556  1
  Na  Na16  1  0.32511160  0.01692779  0.41554518  1
  Na  Na17  1  0.71595705  0.68524096  0.41850170  1
  Na  Na18  1  0.98841214  0.98665634  0.50059824  1
  Na  Na19  1  0.02374417  0.01065075  0.99957436  1
  Na  Na20  1  0.66645001  0.32375059  0.83182148  1
  Na  Na21  1  0.67599478  0.33129769  0.33175402  1
  Na  Na22  1  0.32299369  0.65458324  0.16607177  1
  Na  Na23  1  0.33598729  0.66761495  0.66309645  1
  Hf  Hf0  1  0.00000624  0.00096658  0.64847942  1
  Hf  Hf1  1  0.66966217  0.33551313  0.68467674  1
  Hf  Hf2  1  0.66682218  0.34265738  0.18587362  1
  Hf  Hf3  1  0.67447740  0.33176364  0.48382373  1
  Hf  Hf4  1  0.33073768  0.67492359  0.31403843  1
  Hf  Hf5  1  0.32185044  0.66854750  0.81205858  1
  In  In0  1  0.99338007  0.99119736  0.34531300  1
  In  In1  1  0.01066824  0.00791505  0.84617522  1
  In  In2  1  0.00681597  0.99889139  0.15389033  1
  In  In3  1  0.66608581  0.33568489  0.98145822  1
  In  In4  1  0.31053248  0.65190676  0.01661951  1
  In  In5  1  0.33691242  0.67916577  0.52020512  1
  Si  Si0  1  0.30104417  0.00239699  0.25086524  1
  Si  Si1  1  0.69751773  0.70034787  0.24952081  1
  Si  Si2  1  0.00027835  0.29861682  0.24994618  1
  Si  Si3  1  0.30076159  0.29987502  0.75016151  1
  Si  Si4  1  0.99626604  0.70496911  0.75132749  1
  Si  Si5  1  0.70319231  0.99870020  0.75084335  1
  Si  Si6  1  0.96379685  0.33157304  0.58353546  1
  Si  Si7  1  0.37200541  0.04386345  0.58340708  1
  Si  Si8  1  0.66898575  0.62832542  0.58240163  1
  Si  Si9  1  0.96061192  0.63228355  0.08195809  1
  Si  Si10  1  0.36953436  0.33361728  0.08100127  1
  Si  Si11  1  0.03349499  0.36335875  0.91684595  1
  Si  Si12  1  0.33450309  0.96269662  0.91841861  1
  Si  Si13  1  0.63284862  0.96469389  0.41775541  1
  Si  Si14  1  0.03418976  0.66646177  0.41798582  1
  S  S0  1  0.66846771  0.03856870  0.08335701  1
  S  S1  1  0.62262024  0.66820661  0.91627462  1
  S  S2  1  0.33610961  0.37390799  0.41751077  1
  O  O0  1  0.22631807  0.04911059  0.30841441  1
  O  O1  1  0.81504742  0.76908246  0.30778518  1
  O  O2  1  0.96104360  0.18247267  0.30891781  1
  O  O3  1  0.23413536  0.18699803  0.80984227  1
  O  O4  1  0.95421412  0.77562654  0.81081621  1
  O  O5  1  0.81572769  0.03729612  0.81028829  1
  O  O6  1  0.79686810  0.96917879  0.69392558  1
  O  O7  1  0.17287172  0.20640300  0.69411762  1
  O  O8  1  0.02903694  0.82780913  0.69434618  1
  O  O9  1  0.77356375  0.82333175  0.19250663  1
  O  O10  1  0.03989008  0.22148199  0.19151276  1
  O  O11  1  0.18323945  0.95356029  0.19282209  1
  O  O12  1  0.87404652  0.35951705  0.64122569  1
  O  O13  1  0.48951238  0.13843295  0.64068646  1
  O  O14  1  0.64706235  0.51387224  0.64069607  1
  O  O15  1  0.86123851  0.50982186  0.13880314  1
  O  O16  1  0.64933154  0.12553664  0.13598433  1
  O  O17  1  0.48659960  0.34923133  0.13889522  1
  O  O18  1  0.44732753  0.29885979  0.02125544  1
  O  O19  1  0.85524768  0.55148141  0.02099900  1
  O  O20  1  0.68905906  0.13426629  0.02838777  1
  O  O21  1  0.46248725  0.15770821  0.52365474  1
  O  O22  1  0.69296296  0.53621682  0.52336827  1
  O  O23  1  0.84535417  0.30410128  0.52462996  1
  O  O24  1  0.54668775  0.68710548  0.97189173  1
  O  O25  1  0.14385206  0.43215300  0.97762774  1
  O  O26  1  0.31556181  0.85903118  0.97986940  1
  O  O27  1  0.55725597  0.84956118  0.47681303  1
  O  O28  1  0.31433421  0.44958718  0.47138827  1
  O  O29  1  0.14288736  0.69420018  0.47785737  1
  O  O30  1  0.12871486  0.63780209  0.36072676  1
  O  O31  1  0.51167328  0.86525668  0.36064496  1
  O  O32  1  0.35369725  0.47722604  0.36402647  1
  O  O33  1  0.13646522  0.48675595  0.86029896  1
  O  O34  1  0.35592886  0.86385472  0.86099302  1
  O  O35  1  0.51936108  0.65410778  0.86378091  1
  O  O36  1  0.01958834  0.83607799  0.41354965  1
  O  O37  1  0.82289239  0.99552812  0.41285297  1
  O  O38  1  0.18838841  0.20498075  0.41306459  1
  O  O39  1  0.00457926  0.17428805  0.91258187  1
  O  O40  1  0.16322217  0.97397243  0.91519698  1
  O  O41  1  0.79068141  0.81669766  0.91323757  1
  O  O42  1  0.97452796  0.16072791  0.58734595  1
  O  O43  1  0.18782594  0.02813378  0.58780050  1
  O  O44  1  0.83767457  0.81279890  0.58740211  1
  O  O45  1  0.97421082  0.81586722  0.08616828  1
  O  O46  1  0.81830591  0.02164670  0.08789354  1
  O  O47  1  0.18061952  0.17325239  0.08642220  1
  O  O48  1  0.67821122  0.16205334  0.74385870  1
  O  O49  1  0.48829775  0.32580924  0.74212130  1
  O  O50  1  0.83783713  0.51647307  0.74419836  1
  O  O51  1  0.67488294  0.51270131  0.24174172  1
  O  O52  1  0.83457698  0.31999747  0.24261446  1
  O  O53  1  0.49015972  0.16008827  0.24225135  1
  O  O54  1  0.63382885  0.51339565  0.91620968  1
  O  O55  1  0.85317656  0.35882005  0.91789669  1
  O  O56  1  0.50298841  0.14867361  0.91753730  1
  O  O57  1  0.63783966  0.14717289  0.42004288  1
  O  O58  1  0.49162644  0.36199301  0.41917011  1
  O  O59  1  0.84617519  0.49724998  0.42015502  1
  O  O60  1  0.36941772  0.51281898  0.08100254  1
  O  O61  1  0.14669683  0.65024793  0.08434710  1
  O  O62  1  0.51612619  0.87027263  0.08209758  1
  O  O63  1  0.35499994  0.85985988  0.58387896  1
  O  O64  1  0.50035785  0.64228396  0.58065601  1
  O  O65  1  0.14922436  0.49388659  0.57930397  1
  O  O66  1  0.32224614  0.83657784  0.25882138  1
  O  O67  1  0.50894150  0.67042633  0.25876833  1
  O  O68  1  0.16623945  0.48523378  0.25763272  1
  O  O69  1  0.31775157  0.48499610  0.75572204  1
  O  O70  1  0.16696090  0.69039597  0.75542487  1
  O  O71  1  0.51889026  0.82902030  0.75602174  1
loop_
_geom_bond_atom_site_label_1
_geom_bond_atom_site_label_2
_geom_bond_distance
_geom_bond_site_symmetry_2
Na0 O53 2.515157 1_555
Na0 O52 2.574007 1_555
Na0 O66 2.597269 1_545
Na0 O67 2.690104 1_545
Na0 O31 2.727793 1_545
Na0 O9 2.842301 1_545
Na0 O2 2.842383 1_555
Na0 O16 2.869511 1_555
Na1 O67 2.521933 1_555
Na1 O68 2.559438 1_555
Na1 O51 2.576697 1_555
Na1 O53 2.699945 1_555
Na1 O17 2.730128 1_555
Na1 O10 2.819843 1_555
Na1 O0 2.866138 1_555
Na1 O32 2.883733 1_555
Na2 O52 2.585062 1_555
Na2 O68 2.595401 1_655
Na2 O66 2.621302 1_655
Na2 O51 2.635980 1_555
Na2 O30 2.787299 1_655
Na2 O15 2.793961 1_555
Na2 O11 2.826647 1_655
Na2 O1 2.848544 1_555
Na3 O49 2.495378 1_555
Na3 O71 2.534731 1_555
Na3 O69 2.580305 1_555
Na3 O50 2.598695 1_555
Na3 O14 2.646679 1_555
Na3 O6 2.917664 1_555
Na3 O35 2.918510 1_555
Na3 O4 2.947501 1_555
Na4 O50 2.532808 1_555
Na4 O48 2.568731 1_555
Na4 O69 2.623547 1_655
Na4 O70 2.676486 1_655
Na4 O12 2.683599 1_555
Na4 O33 2.805806 1_655
Na4 O5 2.923317 1_555
Na4 O7 2.931596 1_655
Na5 O48 2.503611 1_555
Na5 O49 2.570372 1_555
Na5 O70 2.594494 1_545
Na5 O71 2.673500 1_545
Na5 O13 2.715393 1_555
Na5 O34 2.830481 1_545
Na5 O3 2.851743 1_555
Na5 O8 2.992070 1_545
Na6 O65 2.471422 1_555
Na6 O64 2.476962 1_555
Na6 O43 2.531401 1_555
Na6 O42 2.634878 1_455
Na6 O7 2.691829 1_555
Na6 O28 2.792561 1_555
Na7 O63 2.529629 1_555
Na7 O29 2.551441 1_555
Na7 O44 2.558394 1_455
Na7 O65 2.584817 1_555
Na7 O43 2.629826 1_565
Na7 O8 2.814040 1_555
Na8 O63 2.523676 1_555
Na8 O64 2.545742 1_555
Na8 O42 2.546322 1_565
Na8 O44 2.586094 1_555
Na8 O27 2.587031 1_555
Na8 O6 2.784155 1_555
Na9 O45 2.484157 1_455
Na9 O61 2.522570 1_555
Na9 O26 2.536955 1_554
Na9 O47 2.560258 1_565
Na9 O11 2.691898 1_555
Na9 O62 2.701243 1_555
Na10 O60 2.446506 1_555
Na10 O45 2.448997 1_555
Na10 O9 2.597527 1_555
Na10 O46 2.656673 1_565
Na10 O62 2.685983 1_555
Na10 O24 2.864564 1_554
Na11 O47 2.394183 1_555
Na11 O61 2.566706 1_555
Na11 O10 2.572458 1_555
Na11 O60 2.595714 1_555
Na11 O46 2.624441 1_455
Na11 O25 2.624709 1_554
Na12 O40 2.465463 1_655
Na12 O55 2.517545 1_555
Na12 O4 2.611000 1_555
Na12 O19 2.615495 1_556
Na12 O41 2.674502 1_555
Na12 O54 2.754801 1_555
Na13 O39 2.413512 1_655
Na13 O5 2.420537 1_555
Na13 O56 2.505934 1_555
Na13 O55 2.523571 1_555
Na13 O41 2.618635 1_545
Na13 O20 2.891985 1_556
Na13 O34 2.997140 1_545
Na14 O40 2.466633 1_545
Na14 O56 2.558590 1_555
Na14 O39 2.565835 1_555
Na14 O18 2.565901 1_556
Na14 O3 2.599532 1_555
Na14 O54 2.633456 1_555
Na14 O25 2.932430 1_555
Na15 O37 2.395012 1_545
Na15 O2 2.502470 1_555
Na15 O59 2.587405 1_555
Na15 O57 2.591642 1_555
Na15 O38 2.638367 1_655
Na15 O23 2.816626 1_555
Na15 O30 2.980635 1_655
Na16 O36 2.470616 1_545
Na16 O57 2.527670 1_555
Na16 O38 2.619182 1_555
Na16 O0 2.652815 1_555
Na16 O21 2.761019 1_555
Na16 O58 2.774471 1_555
Na16 O29 2.953971 1_545
Na16 O31 2.990815 1_545
Na17 O36 2.443508 1_655
Na17 O37 2.535359 1_555
Na17 O59 2.569301 1_555
Na17 O1 2.639753 1_555
Na17 O58 2.662465 1_555
Na17 O22 2.691658 1_555
Na17 O27 2.909891 1_555
Na18 O44 2.475716 1_555
Na18 O36 2.510374 1_655
Na18 O37 2.530876 1_555
Na18 O42 2.582578 1_565
Na18 O43 2.594066 1_665
Na18 O38 2.771061 1_665
Na19 O40 2.419978 1_545
Na19 O47 2.459045 1_556
Na19 O39 2.538297 1_555
Na19 O45 2.539378 1_446
Na19 O46 2.794603 1_456
Na19 O41 2.798148 1_445
Na20 O56 2.491485 1_555
Na20 O55 2.512706 1_555
Na20 O48 2.524062 1_555
Na20 O50 2.604245 1_555
Na20 O49 2.618146 1_555
Na20 O54 2.711256 1_555
Na21 O52 2.524997 1_555
Na21 O57 2.528174 1_555
Na21 O59 2.533774 1_555
Na21 O53 2.616308 1_555
Na21 O51 2.637656 1_555
Na21 O58 2.717654 1_555
Na22 O61 2.450966 1_555
Na22 O60 2.484027 1_555
Na22 O68 2.560836 1_555
Na22 O67 2.667364 1_555
Na22 O62 2.685291 1_555
Na22 O66 2.692425 1_555
Na23 O63 2.465143 1_555
Na23 O64 2.490020 1_555
Na23 O65 2.528161 1_555
Na23 O69 2.638792 1_555
Na23 O71 2.643125 1_555
Na23 O70 2.678812 1_555
Hf0 O6 2.033610 1_445
Hf0 O8 2.036296 1_545
Hf0 O7 2.053432 1_555
Hf0 O42 2.119913 1_455
Hf0 O43 2.129736 1_555
Hf0 O44 2.143442 1_445
Hf1 O13 2.018367 1_555
Hf1 O14 2.025713 1_555
Hf1 O12 2.045762 1_555
Hf1 O49 2.090111 1_555
Hf1 O50 2.108429 1_555
Hf1 O48 2.120157 1_555
Hf2 O51 1.992258 1_555
Hf2 O15 1.997074 1_555
Hf2 O17 2.005570 1_555
Hf2 O53 2.096158 1_555
Hf2 O52 2.104353 1_555
Hf2 O16 2.242260 1_555
Hf3 O23 1.957061 1_555
Hf3 O22 2.024959 1_555
Hf3 O21 2.026811 1_555
Hf3 O59 2.123401 1_555
Hf3 O57 2.131343 1_555
Hf3 O58 2.356770 1_555
Hf4 O66 1.978781 1_555
Hf4 O31 2.021305 1_555
Hf4 O30 2.024066 1_555
Hf4 O67 2.088091 1_555
Hf4 O68 2.090096 1_555
Hf4 O32 2.249341 1_555
Hf5 O70 2.006510 1_555
Hf5 O34 2.008310 1_555
Hf5 O33 2.021078 1_555
Hf5 O71 2.105624 1_555
Hf5 O69 2.110948 1_555
Hf5 O35 2.231451 1_555
In0 O1 2.073487 1_555
In0 O2 2.106048 1_565
In0 O0 2.119645 1_665
In0 O36 2.199567 1_655
In0 O37 2.211344 1_555
In0 O38 2.442713 1_665
In1 O3 2.070619 1_555
In1 O4 2.104622 1_445
In1 O5 2.119014 1_455
In1 O39 2.173052 1_555
In1 O40 2.228733 1_545
In1 O41 2.445075 1_445
In2 O11 2.076326 1_555
In2 O10 2.109070 1_565
In2 O9 2.138179 1_455
In2 O45 2.191249 1_455
In2 O47 2.218365 1_565
In2 O46 2.384203 1_465
In3 O18 2.085695 1_556
In3 O19 2.092611 1_556
In3 O55 2.178012 1_555
In3 O56 2.182526 1_555
In3 O20 2.245965 1_556
In3 O54 2.335470 1_555
In4 O25 2.043738 1_554
In4 O26 2.069519 1_554
In4 O61 2.150128 1_555
In4 O60 2.183326 1_555
In4 O24 2.282870 1_554
In4 O62 2.464260 1_555
In5 O27 2.098919 1_555
In5 O29 2.102552 1_555
In5 O63 2.150819 1_555
In5 O65 2.183672 1_555
In5 O64 2.188595 1_555
In5 O28 2.313248 1_555
O0 Si0 1.629689 1_555
O1 Si1 1.621884 1_555
O2 Si2 1.632739 1_655
O3 Si3 1.624739 1_555
O4 Si4 1.625055 1_555
O5 Si5 1.625937 1_545
O6 Si5 1.648710 1_555
O7 Si3 1.653254 1_555
O8 Si4 1.640540 1_455
O9 Si1 1.626234 1_555
O10 Si2 1.627901 1_555
O11 Si0 1.618840 1_565
O12 Si6 1.634422 1_555
O13 Si7 1.635665 1_555
O14 Si8 1.636021 1_555
O15 Si9 1.653602 1_555
O16 S0 1.495837 1_555
O17 Si10 1.657842 1_555
O18 Si10 1.635708 1_555
O19 Si9 1.636800 1_555
O20 S0 1.479338 1_555
O21 Si7 1.657418 1_555
O22 Si8 1.657120 1_555
O23 Si6 1.660858 1_555
O24 S1 1.491851 1_555
O25 Si11 1.638578 1_555
O26 Si12 1.644121 1_555
O27 Si13 1.629293 1_555
O28 S2 1.467980 1_555
O29 Si14 1.627327 1_555
O30 Si14 1.656099 1_555
O31 Si13 1.655853 1_555
O32 S2 1.496653 1_555
O33 Si11 1.659380 1_555
O34 Si12 1.656413 1_555
O35 S1 1.487112 1_555
O36 Si14 1.647448 1_555
O37 Si13 1.643002 1_555
O38 S2 1.483056 1_555
O39 Si11 1.638878 1_555
O40 Si12 1.645306 1_555
O41 S1 1.479317 1_555
O42 Si6 1.638241 1_555
O43 Si7 1.643819 1_555
O44 Si8 1.648113 1_555
O45 Si9 1.645875 1_555
O46 S0 1.478203 1_555
O47 Si10 1.641934 1_555
O48 Si5 1.649967 1_545
O49 Si3 1.643263 1_555
O50 Si4 1.636337 1_555
O51 Si1 1.654896 1_555
O52 Si2 1.653425 1_655
O53 Si0 1.640904 1_555
O54 S1 1.490122 1_555
O55 Si11 1.652478 1_655
O56 Si12 1.651294 1_545
O57 Si13 1.670306 1_545
O58 S2 1.501449 1_555
O59 Si14 1.665745 1_655
O60 Si10 1.662196 1_555
O61 Si9 1.650456 1_455
O62 S0 1.494037 1_565
O63 Si7 1.633187 1_565
O64 Si8 1.633351 1_555
O65 Si6 1.627543 1_455
O66 Si0 1.654054 1_565
O67 Si1 1.642212 1_555
O68 Si2 1.654207 1_555
O69 Si3 1.648564 1_555
O70 Si4 1.657737 1_455
O71 Si5 1.651326 1_555
