# generated using pymatgen
data_GaBr2
_symmetry_space_group_name_H-M   'P 1'
_cell_length_a   7.61484989
_cell_length_b   10.04969229
_cell_length_c   10.22190241
_cell_angle_alpha   90.00000000
_cell_angle_beta   90.00000000
_cell_angle_gamma   90.00000000
_symmetry_Int_Tables_number   1
_chemical_formula_structural   GaBr2
_chemical_formula_sum   'Ga8 Br16'
_cell_volume   782.25048544
_cell_formula_units_Z   8
loop_
 _symmetry_equiv_pos_site_id
 _symmetry_equiv_pos_as_xyz
  1  'x, y, z'
loop_
 _atom_site_type_symbol
 _atom_site_label
 _atom_site_symmetry_multiplicity
 _atom_site_fract_x
 _atom_site_fract_y
 _atom_site_fract_z
 _atom_site_occupancy
  Ga  Ga0  1  0.25000000  0.00000000  0.18157953  1
  Ga  Ga1  1  0.25000000  0.50000000  0.31842047  1
  Ga  Ga2  1  0.75000000  0.00000000  0.81842047  1
  Ga  Ga3  1  0.75000000  0.50000000  0.68157953  1
  Ga  Ga4  1  0.62894979  0.25000000  0.25000000  1
  Ga  Ga5  1  0.87105021  0.75000000  0.25000000  1
  Ga  Ga6  1  0.37105021  0.75000000  0.75000000  1
  Ga  Ga7  1  0.12894979  0.25000000  0.75000000  1
  Br  Br0  1  0.33232978  0.18381830  0.05347592  1
  Br  Br1  1  0.33232978  0.31618170  0.44652408  1
  Br  Br2  1  0.16767022  0.68381830  0.44652408  1
  Br  Br3  1  0.16767022  0.81618170  0.05347592  1
  Br  Br4  1  0.66767022  0.81618170  0.94652408  1
  Br  Br5  1  0.66767022  0.68381830  0.55347592  1
  Br  Br6  1  0.83232978  0.31618170  0.55347592  1
  Br  Br7  1  0.83232978  0.18381830  0.94652408  1
  Br  Br8  1  0.00316341  0.04221206  0.31217270  1
  Br  Br9  1  0.00316341  0.45778794  0.18782730  1
  Br  Br10  1  0.49683659  0.54221206  0.18782730  1
  Br  Br11  1  0.49683659  0.95778794  0.31217270  1
  Br  Br12  1  -0.00316341  0.95778794  0.68782730  1
  Br  Br13  1  -0.00316341  0.54221206  0.81217270  1
  Br  Br14  1  0.50316341  0.45778794  0.81217270  1
  Br  Br15  1  0.50316341  0.04221206  0.68782730  1
loop_
_geom_bond_atom_site_label_1
_geom_bond_atom_site_label_2
_geom_bond_distance
_geom_bond_site_symmetry_2
Br0 Ga0 2.349535 1_555
Br0 Ga4 3.095100 1_555
Br1 Ga1 2.349535 1_555
Br1 Ga4 3.095100 1_555
Br2 Ga1 2.349535 1_555
Br2 Ga5 3.095100 1_455
Br3 Ga0 2.349535 1_565
Br3 Ga5 3.095100 1_455
Br4 Ga2 2.349535 1_565
Br4 Ga6 3.095100 1_555
Br5 Ga3 2.349535 1_555
Br5 Ga6 3.095100 1_555
Br6 Ga3 2.349535 1_555
Br6 Ga7 3.095100 1_655
Br7 Ga2 2.349535 1_555
Br7 Ga7 3.095100 1_655
Br8 Ga0 2.344127 1_555
Br8 Ga5 3.168569 1_445
Br9 Ga1 2.344127 1_555
Br9 Ga5 3.168569 1_455
Br10 Ga1 2.344127 1_555
Br10 Ga4 3.168569 1_555
Br11 Ga0 2.344127 1_565
Br11 Ga4 3.168569 1_565
Br12 Ga2 2.344127 1_465
Br12 Ga7 3.168569 1_565
Br13 Ga3 2.344127 1_455
Br13 Ga7 3.168569 1_555
Br14 Ga3 2.344127 1_555
Br14 Ga6 3.168569 1_555
Br15 Ga2 2.344127 1_555
Br15 Ga6 3.168569 1_545
