# generated using pymatgen
data_Na3HfGaSi2SO12
_symmetry_space_group_name_H-M   'P 1'
_cell_length_a   9.02544895
_cell_length_b   9.02544387
_cell_length_c   22.41860169
_cell_angle_alpha   91.32151319
_cell_angle_beta   88.67851463
_cell_angle_gamma   120.48298364
_symmetry_Int_Tables_number   1
_chemical_formula_structural   Na3HfGaSi2SO12
_chemical_formula_sum   'Na18 Hf6 Ga6 Si12 S6 O72'
_cell_volume   1573.21811675
_cell_formula_units_Z   6
loop_
 _symmetry_equiv_pos_site_id
 _symmetry_equiv_pos_as_xyz
  1  'x, y, z'
loop_
 _atom_site_type_symbol
 _atom_site_label
 _atom_site_symmetry_multiplicity
 _atom_site_fract_x
 _atom_site_fract_y
 _atom_site_fract_z
 _atom_site_occupancy
  Na  Na0  1  0.62814289  0.00237177  0.24380089  1
  Na  Na1  1  0.99871144  0.64359530  0.24562399  1
  Na  Na2  1  0.99762757  0.37185664  0.74380101  1
  Na  Na3  1  0.35640536  0.00128901  0.74562395  1
  Na  Na4  1  0.29480838  0.33570549  0.57713356  1
  Na  Na5  1  0.66538042  0.97692118  0.57895938  1
  Na  Na6  1  0.66429449  0.70519150  0.07713378  1
  Na  Na7  1  0.02307908  0.33461968  0.07895945  1
  Na  Na8  1  0.96147296  0.66903950  0.91046568  1
  Na  Na9  1  0.33204633  0.31025393  0.91229440  1
  Na  Na10  1  0.33095785  0.03852477  0.41046571  1
  Na  Na11  1  0.68974566  0.66795368  0.41229442  1
  Na  Na12  1  0.00429214  0.02098965  0.49492176  1
  Na  Na13  1  0.97900960  0.99570811  0.99492131  1
  Na  Na14  1  0.67096341  0.35432580  0.82825302  1
  Na  Na15  1  0.64567502  0.32903689  0.32825321  1
  Na  Na16  1  0.33763248  0.68765677  0.16158838  1
  Na  Na17  1  0.31234318  0.66236791  0.66158837  1
  Hf  Hf0  1  0.01366701  0.00221927  0.64681083  1
  Hf  Hf1  1  0.99778088  0.98633293  0.14681055  1
  Hf  Hf2  1  0.68033098  0.33555158  0.98014472  1
  Hf  Hf3  1  0.66444794  0.31966910  0.48014483  1
  Hf  Hf4  1  0.34699506  0.66888703  0.31347864  1
  Hf  Hf5  1  0.33111266  0.65300471  0.81347866  1
  Ga  Ga0  1  0.00408376  0.00890233  0.35089290  1
  Ga  Ga1  1  0.99109777  0.99591644  0.85089290  1
  Ga  Ga2  1  0.67074333  0.34222415  0.68422281  1
  Ga  Ga3  1  0.65777583  0.32925667  0.18422292  1
  Ga  Ga4  1  0.33740930  0.67556314  0.01755905  1
  Ga  Ga5  1  0.32443720  0.66259092  0.51755899  1
  Si  Si0  1  0.29450366  0.00648602  0.25255584  1
  Si  Si1  1  0.71118051  0.70107319  0.25137340  1
  Si  Si2  1  0.29892677  0.28881946  0.75137355  1
  Si  Si3  1  0.99351411  0.70549629  0.75255585  1
  Si  Si4  1  0.96116378  0.33981708  0.58588749  1
  Si  Si5  1  0.37783692  0.03440532  0.58470958  1
  Si  Si6  1  0.96559498  0.62216326  0.08470966  1
  Si  Si7  1  0.66018332  0.03883611  0.08588755  1
  Si  Si8  1  0.62783514  0.67315721  0.91922308  1
  Si  Si9  1  0.04450408  0.36774478  0.91804433  1
  Si  Si10  1  0.63225536  0.95549634  0.41804433  1
  Si  Si11  1  0.32684295  0.37216489  0.41922312  1
  S  S0  1  -0.00017082  0.29070857  0.25103189  1
  S  S1  1  0.70929148  0.00017084  0.75103227  1
  S  S2  1  0.66649435  0.62405039  0.58436592  1
  S  S3  1  0.37594891  0.33350603  0.08436599  1
  S  S4  1  0.33316332  0.95738607  0.91770082  1
  S  S5  1  0.04261243  0.66683522  0.41770074  1
  O  O0  1  0.20528841  0.02917282  0.31354245  1
  O  O1  1  0.83229153  0.79277815  0.30966853  1
  O  O2  1  0.97318345  0.18202951  0.30263015  1
  O  O3  1  0.20722189  0.16770855  0.80966849  1
  O  O4  1  0.97082725  0.79471143  0.81354239  1
  O  O5  1  0.81797044  0.02681671  0.80263003  1
  O  O6  1  0.78210186  0.97121486  0.69515325  1
  O  O7  1  0.17380618  0.20608610  0.69276160  1
  O  O8  1  0.02485113  0.82981172  0.69578891  1
  O  O9  1  0.79391338  0.82619304  0.19276190  1
  O  O10  1  0.02878542  0.21789844  0.19515332  1
  O  O11  1  0.17018876  0.97514901  0.19578925  1
  O  O12  1  0.87195554  0.36250374  0.64687569  1
  O  O13  1  0.49896090  0.12610974  0.64300214  1
  O  O14  1  0.63985184  0.51536463  0.63596334  1
  O  O15  1  0.87388988  0.50103901  0.14300216  1
  O  O16  1  0.63749645  0.12804470  0.14687589  1
  O  O17  1  0.48463613  0.36014844  0.13596319  1
  O  O18  1  0.44876806  0.30454560  0.02848596  1
  O  O19  1  0.84047681  0.53941987  0.02609454  1
  O  O20  1  0.69151663  0.16314370  0.02912238  1
  O  O21  1  0.46058007  0.15952307  0.52609465  1
  O  O22  1  0.69545480  0.55123285  0.52848601  1
  O  O23  1  0.83685670  0.30848326  0.52912266  1
  O  O24  1  0.53862380  0.69584300  0.98020971  1
  O  O25  1  0.16562724  0.45944567  0.97633577  1
  O  O26  1  0.30651498  0.84869508  0.96929748  1
  O  O27  1  0.54055439  0.83437287  0.47633569  1
  O  O28  1  0.30415648  0.46137617  0.48020977  1
  O  O29  1  0.15130537  0.69348495  0.46929732  1
  O  O30  1  0.11543356  0.63787910  0.36181983  1
  O  O31  1  0.50714110  0.87275473  0.35942829  1
  O  O32  1  0.35818331  0.49647704  0.36245750  1
  O  O33  1  0.12724590  0.49285958  0.85942811  1
  O  O34  1  0.36212142  0.88456659  0.86181958  1
  O  O35  1  0.50352303  0.64181702  0.86245756  1
  O  O36  1  0.02557789  0.82080268  0.41461022  1
  O  O37  1  0.81821394  0.96726420  0.40880931  1
  O  O38  1  0.16498703  0.17560005  0.41237352  1
  O  O39  1  0.03273567  0.18178615  0.90880921  1
  O  O40  1  0.17919659  0.97442232  0.91461011  1
  O  O41  1  0.82439931  0.83501247  0.91237338  1
  O  O42  1  0.96967589  0.15858053  0.58940904  1
  O  O43  1  0.18862805  0.02092649  0.58812637  1
  O  O44  1  0.81806618  0.80045975  0.59011029  1
  O  O45  1  0.97907346  0.81137196  0.08812649  1
  O  O46  1  0.84141978  0.03032403  0.08940902  1
  O  O47  1  0.19954067  0.18193415  0.09011019  1
  O  O48  1  0.69224491  0.15413481  0.74794362  1
  O  O49  1  0.48487934  0.30059879  0.74214236  1
  O  O50  1  0.83165506  0.50893598  0.74570637  1
  O  O51  1  0.69940112  0.51512088  0.24214240  1
  O  O52  1  0.84586522  0.30775557  0.24794361  1
  O  O53  1  0.49106438  0.16834501  0.24570631  1
  O  O54  1  0.63634439  0.49191235  0.92274318  1
  O  O55  1  0.85529540  0.35426000  0.92145898  1
  O  O56  1  0.48473508  0.13379854  0.92344327  1
  O  O57  1  0.64573970  0.14470383  0.42145907  1
  O  O58  1  0.50808765  0.36365584  0.42274318  1
  O  O59  1  0.86620236  0.51526538  0.42344328  1
  O  O60  1  0.35891025  0.48746604  0.08127696  1
  O  O61  1  0.15154963  0.63393271  0.07547656  1
  O  O62  1  0.49832075  0.84226796  0.07904137  1
  O  O63  1  0.36606723  0.84845028  0.57547660  1
  O  O64  1  0.51253348  0.64109025  0.58127678  1
  O  O65  1  0.15773119  0.50167825  0.57904133  1
  O  O66  1  0.30300998  0.82524656  0.25607769  1
  O  O67  1  0.52196280  0.68759462  0.25479362  1
  O  O68  1  0.15140177  0.46713164  0.25677708  1
  O  O69  1  0.31240597  0.47803746  0.75479356  1
  O  O70  1  0.17475342  0.69698984  0.75607760  1
  O  O71  1  0.53286911  0.84859892  0.75677709  1
loop_
_geom_bond_atom_site_label_1
_geom_bond_atom_site_label_2
_geom_bond_distance
_geom_bond_site_symmetry_2
Na0 O53 2.377252 1_555
Na0 O52 2.443034 1_555
Na0 O16 2.454247 1_555
Na0 O67 2.511885 1_545
Na0 O66 2.542847 1_545
Na0 O31 2.827340 1_545
Na0 O9 2.885636 1_545
Na0 O2 3.005703 1_555
Na1 O51 2.340038 1_555
Na1 O66 2.393610 1_655
Na1 O15 2.594213 1_555
Na1 O68 2.599870 1_655
Na1 O52 2.618198 1_555
Na1 O11 2.823786 1_655
Na1 O1 2.827301 1_555
Na1 O30 2.843612 1_655
Na2 O50 2.377253 1_555
Na2 O48 2.443027 1_555
Na2 O12 2.454250 1_555
Na2 O69 2.511895 1_655
Na2 O70 2.542847 1_655
Na2 O33 2.827337 1_655
Na2 O7 2.885639 1_655
Na2 O5 3.005696 1_555
Na3 O49 2.340032 1_555
Na3 O70 2.393614 1_545
Na3 O13 2.594210 1_555
Na3 O71 2.599869 1_545
Na3 O48 2.618198 1_555
Na3 O8 2.823793 1_545
Na3 O3 2.827302 1_555
Na3 O34 2.843609 1_545
Na4 O65 2.377238 1_555
Na4 O64 2.443047 1_555
Na4 O28 2.454224 1_555
Na4 O43 2.511900 1_555
Na4 O42 2.542841 1_455
Na4 O7 2.827359 1_555
Na4 O21 2.885671 1_555
Na4 O14 3.005728 1_555
Na5 O63 2.340065 1_555
Na5 O42 2.393585 1_565
Na5 O27 2.594239 1_555
Na5 O44 2.599812 1_555
Na5 O64 2.618125 1_555
Na5 O23 2.823864 1_565
Na5 O13 2.827317 1_565
Na5 O6 2.843549 1_555
Na6 O62 2.377240 1_555
Na6 O60 2.443045 1_555
Na6 O24 2.454228 1_554
Na6 O45 2.511901 1_555
Na6 O46 2.542839 1_565
Na6 O9 2.827358 1_555
Na6 O19 2.885673 1_555
Na6 O17 3.005721 1_555
Na7 O61 2.340063 1_555
Na7 O46 2.393585 1_455
Na7 O25 2.594240 1_554
Na7 O47 2.599811 1_555
Na7 O60 2.618129 1_555
Na7 O20 2.823871 1_455
Na7 O15 2.827319 1_455
Na7 O10 2.843548 1_555
Na8 O41 2.377213 1_555
Na8 O40 2.443032 1_655
Na8 O4 2.454207 1_555
Na8 O55 2.511911 1_555
Na8 O54 2.542817 1_555
Na8 O19 2.827368 1_556
Na8 O33 2.885651 1_655
Na8 O26 3.005738 1_655
Na9 O39 2.340050 1_555
Na9 O54 2.393601 1_555
Na9 O3 2.594274 1_555
Na9 O56 2.599781 1_555
Na9 O40 2.618128 1_545
Na9 O35 2.823873 1_555
Na9 O25 2.827320 1_555
Na9 O18 2.843506 1_556
Na10 O38 2.377208 1_555
Na10 O36 2.443011 1_545
Na10 O0 2.454200 1_555
Na10 O57 2.511929 1_555
Na10 O58 2.542835 1_555
Na10 O21 2.827377 1_555
Na10 O31 2.885653 1_545
Na10 O29 3.005721 1_545
Na11 O37 2.340047 1_555
Na11 O58 2.393598 1_555
Na11 O1 2.594276 1_555
Na11 O59 2.599788 1_555
Na11 O36 2.618135 1_655
Na11 O32 2.823868 1_555
Na11 O27 2.827316 1_555
Na11 O22 2.843505 1_555
Na12 O38 2.327549 1_555
Na12 O37 2.462256 1_445
Na12 O42 2.523603 1_455
Na12 O36 2.594072 1_545
Na12 O43 2.700998 1_555
Na12 O44 2.824344 1_445
Na13 O41 2.327544 1_555
Na13 O39 2.462248 1_665
Na13 O46 2.523606 1_566
Na13 O40 2.594068 1_655
Na13 O45 2.701011 1_556
Na13 O47 2.824353 1_666
Na14 O50 2.327511 1_555
Na14 O49 2.462253 1_555
Na14 O54 2.523645 1_555
Na14 O48 2.594050 1_555
Na14 O55 2.701007 1_555
Na14 O56 2.824368 1_555
Na15 O53 2.327516 1_555
Na15 O51 2.462257 1_555
Na15 O58 2.523645 1_555
Na15 O52 2.594048 1_555
Na15 O57 2.701008 1_555
Na15 O59 2.824364 1_555
Na16 O62 2.327511 1_555
Na16 O61 2.462272 1_555
Na16 O66 2.523656 1_555
Na16 O60 2.594065 1_555
Na16 O67 2.700974 1_555
Na16 O68 2.824338 1_555
Na17 O65 2.327516 1_555
Na17 O63 2.462268 1_555
Na17 O70 2.523653 1_555
Na17 O64 2.594065 1_555
Na17 O69 2.700976 1_555
Na17 O71 2.824341 1_555
Hf0 O7 1.954193 1_555
Hf0 O8 1.969879 1_545
Hf0 O43 1.974046 1_555
Hf0 O42 2.116848 1_455
Hf0 O44 2.187129 1_445
Hf0 O6 2.221944 1_445
Hf1 O9 1.954206 1_555
Hf1 O11 1.969889 1_655
Hf1 O45 1.974038 1_555
Hf1 O46 2.116844 1_565
Hf1 O47 2.187130 1_665
Hf1 O10 2.221948 1_665
Hf2 O19 1.954205 1_556
Hf2 O20 1.969882 1_556
Hf2 O55 1.974084 1_555
Hf2 O54 2.116819 1_555
Hf2 O56 2.187099 1_555
Hf2 O18 2.221909 1_556
Hf3 O21 1.954205 1_555
Hf3 O23 1.969892 1_555
Hf3 O57 1.974089 1_555
Hf3 O58 2.116819 1_555
Hf3 O59 2.187108 1_555
Hf3 O22 2.221911 1_555
Hf4 O31 1.954201 1_555
Hf4 O32 1.969925 1_555
Hf4 O67 1.974098 1_555
Hf4 O66 2.116795 1_555
Hf4 O68 2.187100 1_555
Hf4 O30 2.221892 1_555
Hf5 O33 1.954193 1_555
Hf5 O35 1.969926 1_555
Hf5 O69 1.974097 1_555
Hf5 O70 2.116795 1_555
Hf5 O71 2.187108 1_555
Hf5 O34 2.221888 1_555
Ga0 O0 1.905832 1_555
Ga0 O37 1.980837 1_445
Ga0 O1 1.994380 1_445
Ga0 O38 2.013014 1_555
Ga0 O2 2.055250 1_455
Ga0 O36 2.327878 1_545
Ga1 O4 1.905834 1_555
Ga1 O39 1.980833 1_665
Ga1 O3 1.994381 1_665
Ga1 O41 2.013017 1_555
Ga1 O5 2.055253 1_565
Ga1 O40 2.327871 1_655
Ga2 O12 1.905831 1_555
Ga2 O49 1.980869 1_555
Ga2 O13 1.994265 1_555
Ga2 O50 2.013133 1_555
Ga2 O14 2.055269 1_555
Ga2 O48 2.327886 1_555
Ga3 O16 1.905828 1_555
Ga3 O51 1.980868 1_555
Ga3 O15 1.994265 1_555
Ga3 O53 2.013130 1_555
Ga3 O17 2.055268 1_555
Ga3 O52 2.327883 1_555
Ga4 O24 1.905869 1_554
Ga4 O61 1.980801 1_555
Ga4 O25 1.994307 1_554
Ga4 O62 2.013090 1_555
Ga4 O26 2.055243 1_554
Ga4 O60 2.327897 1_555
Ga5 O28 1.905866 1_555
Ga5 O63 1.980799 1_555
Ga5 O27 1.994307 1_555
Ga5 O65 2.013099 1_555
Ga5 O29 2.055243 1_555
Ga5 O64 2.327888 1_555
O0 Si0 1.631931 1_555
O1 Si1 1.638888 1_555
O2 S0 1.469091 1_655
O3 Si2 1.638885 1_555
O4 Si3 1.631929 1_555
O5 S1 1.469081 1_555
O6 S1 1.480081 1_565
O7 Si2 1.651388 1_555
O8 Si3 1.638836 1_455
O9 Si1 1.651377 1_555
O10 S0 1.480072 1_555
O11 Si0 1.638827 1_565
O12 Si4 1.631926 1_555
O13 Si5 1.638891 1_555
O14 S2 1.469118 1_555
O15 Si6 1.638893 1_555
O16 Si7 1.631930 1_555
O17 S3 1.469122 1_555
O18 S3 1.480156 1_555
O19 Si6 1.651442 1_555
O20 Si7 1.638768 1_555
O21 Si5 1.651437 1_555
O22 S2 1.480146 1_555
O23 Si4 1.638758 1_555
O24 Si8 1.631909 1_555
O25 Si9 1.638863 1_555
O26 S4 1.469123 1_555
O27 Si10 1.638864 1_555
O28 Si11 1.631911 1_555
O29 S5 1.469129 1_555
O30 S5 1.480167 1_555
O31 Si10 1.651441 1_555
O32 Si11 1.638789 1_555
O33 Si9 1.651447 1_555
O34 S4 1.480172 1_555
O35 Si8 1.638787 1_555
O36 S5 1.476884 1_555
O37 Si10 1.635594 1_555
O38 Si11 1.635045 1_555
O39 Si9 1.635591 1_555
O40 S4 1.476887 1_555
O41 Si8 1.635039 1_555
O42 Si4 1.679737 1_555
O43 Si5 1.649398 1_555
O44 S2 1.487239 1_555
O45 Si6 1.649397 1_555
O46 Si7 1.679736 1_555
O47 S3 1.487233 1_555
O48 S1 1.476913 1_555
O49 Si2 1.635484 1_555
O50 Si3 1.635028 1_555
O51 Si1 1.635480 1_555
O52 S0 1.476915 1_655
O53 Si0 1.635031 1_555
O54 Si8 1.679795 1_555
O55 Si9 1.649371 1_655
O56 S4 1.487252 1_545
O57 Si10 1.649361 1_545
O58 Si11 1.679794 1_555
O59 S5 1.487233 1_655
O60 S3 1.476836 1_555
O61 Si6 1.635548 1_455
O62 Si7 1.635077 1_565
O63 Si5 1.635549 1_565
O64 S2 1.476851 1_555
O65 Si4 1.635069 1_455
O66 Si0 1.679735 1_565
O67 Si1 1.649481 1_555
O68 S0 1.487317 1_555
O69 Si2 1.649480 1_555
O70 Si3 1.679735 1_455
O71 S1 1.487311 1_565
