# generated using pymatgen
data_CsXeF7
_symmetry_space_group_name_H-M   'P 1'
_cell_length_a   8.51868932
_cell_length_b   8.51868932
_cell_length_c   8.51868932
_cell_angle_alpha   90.00000000
_cell_angle_beta   90.00000000
_cell_angle_gamma   90.00000000
_symmetry_Int_Tables_number   1
_chemical_formula_structural   CsXeF7
_chemical_formula_sum   'Cs4 Xe4 F28'
_cell_volume   618.18482355
_cell_formula_units_Z   4
loop_
 _symmetry_equiv_pos_site_id
 _symmetry_equiv_pos_as_xyz
  1  'x, y, z'
loop_
 _atom_site_type_symbol
 _atom_site_label
 _atom_site_symmetry_multiplicity
 _atom_site_fract_x
 _atom_site_fract_y
 _atom_site_fract_z
 _atom_site_occupancy
  Cs  Cs0  1  0.89866698  0.60133302  0.39866698  1
  Cs  Cs1  1  0.60133302  0.39866698  0.89866698  1
  Cs  Cs2  1  0.39866698  0.89866698  0.60133302  1
  Cs  Cs3  1  0.10133302  0.10133302  0.10133302  1
  Xe  Xe0  1  0.59823496  0.90176504  0.09823496  1
  Xe  Xe1  1  0.90176504  0.09823496  0.59823496  1
  Xe  Xe2  1  0.09823496  0.59823496  0.90176504  1
  Xe  Xe3  1  0.40176504  0.40176504  0.40176504  1
  F  F0  1  0.10953555  0.69972684  0.11982684  1
  F  F1  1  0.60953555  0.80027316  0.88017316  1
  F  F2  1  0.89046445  0.19972684  0.38017316  1
  F  F3  1  0.80027316  0.88017316  0.60953555  1
  F  F4  1  0.38017316  0.89046445  0.19972684  1
  F  F5  1  0.88017316  0.60953555  0.80027316  1
  F  F6  1  0.69972684  0.11982684  0.10953555  1
  F  F7  1  0.11982684  0.10953555  0.69972684  1
  F  F8  1  0.17041853  0.34407130  0.41305395  1
  F  F9  1  0.41305395  0.17041853  0.34407130  1
  F  F10  1  0.34407130  0.41305395  0.17041853  1
  F  F11  1  0.15592870  0.58694605  0.67041853  1
  F  F12  1  0.91305395  0.32958147  0.65592870  1
  F  F13  1  0.65592870  0.91305395  0.32958147  1
  F  F14  1  0.08694605  0.82958147  0.84407130  1
  F  F15  1  0.58694605  0.67041853  0.15592870  1
  F  F16  1  0.84407130  0.08694605  0.82958147  1
  F  F17  1  0.67041853  0.15592870  0.58694605  1
  F  F18  1  0.82958147  0.84407130  0.08694605  1
  F  F19  1  0.32958147  0.65592870  0.91305395  1
  F  F20  1  0.54512690  0.54512690  0.54512690  1
  F  F21  1  0.95487310  0.45487310  0.04512690  1
  F  F22  1  0.04512690  0.95487310  0.45487310  1
  F  F23  1  0.45487310  0.04512690  0.95487310  1
  F  F24  1  0.39046445  0.30027316  0.61982684  1
  F  F25  1  0.61982684  0.39046445  0.30027316  1
  F  F26  1  0.30027316  0.61982684  0.39046445  1
  F  F27  1  0.19972684  0.38017316  0.89046445  1
loop_
_geom_bond_atom_site_label_1
_geom_bond_atom_site_label_2
_geom_bond_distance
_geom_bond_site_symmetry_2
Cs0 F0 3.093806 1_655
Cs0 F25 3.093806 1_555
Cs0 F3 3.093806 1_555
Cs0 F12 3.190127 1_555
Cs0 F11 3.190127 1_655
Cs0 F8 3.190127 1_655
Cs0 F22 3.294875 1_655
Cs0 F21 3.294875 1_555
Cs0 F20 3.294875 1_555
Cs0 F18 3.416670 1_555
Cs0 F15 3.416670 1_555
Cs0 F13 3.416670 1_555
Cs0 F26 3.425496 1_655
Cs0 F2 3.425496 1_555
Cs0 F5 3.425496 1_555
Cs1 F6 3.093806 1_556
Cs1 F24 3.093806 1_555
Cs1 F5 3.093806 1_555
Cs1 F19 3.190127 1_555
Cs1 F15 3.190127 1_556
Cs1 F10 3.190127 1_556
Cs1 F21 3.294875 1_556
Cs1 F23 3.294875 1_555
Cs1 F20 3.294875 1_555
Cs1 F17 3.416670 1_555
Cs1 F16 3.416670 1_555
Cs1 F12 3.416670 1_555
Cs1 F25 3.425496 1_556
Cs1 F27 3.425496 1_555
Cs1 F1 3.425496 1_555
Cs2 F7 3.093806 1_565
Cs2 F26 3.093806 1_555
Cs2 F1 3.093806 1_555
Cs2 F13 3.190127 1_555
Cs2 F17 3.190127 1_565
Cs2 F9 3.190127 1_565
Cs2 F23 3.294875 1_565
Cs2 F22 3.294875 1_555
Cs2 F20 3.294875 1_555
Cs2 F14 3.416670 1_555
Cs2 F11 3.416670 1_555
Cs2 F19 3.416670 1_555
Cs2 F24 3.425496 1_565
Cs2 F4 3.425496 1_555
Cs2 F3 3.425496 1_555
Cs3 F2 3.093806 1_455
Cs3 F27 3.093806 1_554
Cs3 F4 3.093806 1_545
Cs3 F16 3.190127 1_454
Cs3 F18 3.190127 1_445
Cs3 F14 3.190127 1_544
Cs3 F22 3.294875 1_545
Cs3 F23 3.294875 1_554
Cs3 F21 3.294875 1_455
Cs3 F8 3.416670 1_555
Cs3 F9 3.416670 1_555
Cs3 F10 3.416670 1_555
Cs3 F6 3.425496 1_455
Cs3 F0 3.425496 1_545
Cs3 F7 3.425496 1_554
F0 Xe2 2.051205 1_554
F1 Xe0 2.051205 1_556
F2 Xe1 2.051205 1_555
F3 Xe1 2.051205 1_565
F4 Xe0 2.051205 1_555
F5 Xe2 2.051205 1_655
F6 Xe0 2.051205 1_545
F7 Xe1 2.051205 1_455
F8 Xe3 2.033403 1_555
F9 Xe3 2.033403 1_555
F10 Xe3 2.033403 1_555
F11 Xe2 2.033403 1_555
F12 Xe1 2.033403 1_555
F13 Xe0 2.033403 1_555
F14 Xe2 2.033403 1_555
F15 Xe0 2.033403 1_555
F16 Xe1 2.033403 1_555
F17 Xe1 2.033403 1_555
F18 Xe0 2.033403 1_555
F19 Xe2 2.033403 1_555
F20 Xe3 2.115276 1_555
F21 Xe2 2.115276 1_654
F22 Xe1 2.115276 1_465
F23 Xe0 2.115276 1_546
F24 Xe3 2.051205 1_555
F25 Xe3 2.051205 1_555
F26 Xe3 2.051205 1_555
F27 Xe2 2.051205 1_555
