# generated using pymatgen
data_Na2ScNbSi(PO6)2
_symmetry_space_group_name_H-M   'P 1'
_cell_length_a   8.95524007
_cell_length_b   8.95523976
_cell_length_c   22.85075363
_cell_angle_alpha   89.98276178
_cell_angle_beta   90.01723821
_cell_angle_gamma   119.72085657
_symmetry_Int_Tables_number   1
_chemical_formula_structural   Na2ScNbSi(PO6)2
_chemical_formula_sum   'Na12 Sc6 Nb6 Si6 P12 O72'
_cell_volume   1591.47683910
_cell_formula_units_Z   6
loop_
 _symmetry_equiv_pos_site_id
 _symmetry_equiv_pos_as_xyz
  1  'x, y, z'
loop_
 _atom_site_type_symbol
 _atom_site_label
 _atom_site_symmetry_multiplicity
 _atom_site_fract_x
 _atom_site_fract_y
 _atom_site_fract_z
 _atom_site_occupancy
  Na  Na0  1  0.99062720  0.63018298  0.24711029  1
  Na  Na1  1  0.36981702  0.00937280  0.74711029  1
  Na  Na2  1  0.65634692  0.96471986  0.58318400  1
  Na  Na3  1  0.03528014  0.34365308  0.08318400  1
  Na  Na4  1  0.97797107  0.67731602  0.91654958  1
  Na  Na5  1  0.32268398  0.02202893  0.41654958  1
  Na  Na6  1  0.99938955  0.99544928  0.49525634  1
  Na  Na7  1  0.00455072  0.00061045  0.99525634  1
  Na  Na8  1  0.67008263  0.32963100  0.82887857  1
  Na  Na9  1  0.67036900  0.32991737  0.32887857  1
  Na  Na10  1  0.34908075  0.67766581  0.16174238  1
  Na  Na11  1  0.32233419  0.65091925  0.66174238  1
  Sc  Sc0  1  0.99130588  0.00134574  0.35283197  1
  Sc  Sc1  1  0.99865426  0.00869412  0.85283197  1
  Sc  Sc2  1  0.66952409  0.33280826  0.68575405  1
  Sc  Sc3  1  0.66719174  0.33047591  0.18575405  1
  Sc  Sc4  1  0.33407763  0.67483178  0.01923896  1
  Sc  Sc5  1  0.32516822  0.66592237  0.51923896  1
  Nb  Nb0  1  0.00355775  0.99958764  0.64709956  1
  Nb  Nb1  1  0.00041236  0.99644225  0.14709956  1
  Nb  Nb2  1  0.66134248  0.33046948  0.98030323  1
  Nb  Nb3  1  0.66953052  0.33865752  0.48030323  1
  Nb  Nb4  1  0.32769581  0.65783390  0.31348666  1
  Nb  Nb5  1  0.34216610  0.67230419  0.81348666  1
  Si  Si0  1  0.99757832  0.28923564  0.25037464  1
  Si  Si1  1  0.71076436  0.00242168  0.75037464  1
  Si  Si2  1  0.37442246  0.04196964  0.58437017  1
  Si  Si3  1  0.95803036  0.62557754  0.08437017  1
  Si  Si4  1  0.33335499  0.96117742  0.91727794  1
  Si  Si5  1  0.03882258  0.66664501  0.41727794  1
  P  P0  1  0.29247314  0.00180904  0.25262170  1
  P  P1  1  0.70821003  0.71173377  0.25073136  1
  P  P2  1  0.28826623  0.29178997  0.75073136  1
  P  P3  1  0.99819096  0.70752686  0.75262170  1
  P  P4  1  0.95848764  0.33379119  0.58437750  1
  P  P5  1  0.66845132  0.62412321  0.58484969  1
  P  P6  1  0.66620881  0.04151236  0.08437750  1
  P  P7  1  0.37587679  0.33154868  0.08484969  1
  P  P8  1  0.62281946  0.66514010  0.91817838  1
  P  P9  1  0.04423096  0.37702602  0.91875816  1
  P  P10  1  0.62297398  0.95576904  0.41875816  1
  P  P11  1  0.33485990  0.37718054  0.41817838  1
  O  O0  1  0.20867661  0.01929849  0.30798807  1
  O  O1  1  0.82436298  0.79146534  0.30346985  1
  O  O2  1  0.97727843  0.17622296  0.30635400  1
  O  O3  1  0.20853466  0.17563702  0.80346985  1
  O  O4  1  0.98070151  0.79132339  0.80798807  1
  O  O5  1  0.82377704  0.02272157  0.80635400  1
  O  O6  1  0.80155325  0.97332083  0.69051096  1
  O  O7  1  0.17010618  0.19754026  0.69530228  1
  O  O8  1  0.03209247  0.83288165  0.69788937  1
  O  O9  1  0.80245974  0.82989382  0.19530228  1
  O  O10  1  0.02667917  0.19844675  0.19051096  1
  O  O11  1  0.16711835  0.96790753  0.19788937  1
  O  O12  1  0.87382873  0.35725378  0.63846197  1
  O  O13  1  0.48969746  0.12830824  0.64177265  1
  O  O14  1  0.64645706  0.51675225  0.63832216  1
  O  O15  1  0.87169176  0.51030254  0.14177265  1
  O  O16  1  0.64274622  0.12617127  0.13846197  1
  O  O17  1  0.48324775  0.35354294  0.13832216  1
  O  O18  1  0.46655359  0.30433396  0.02905734  1
  O  O19  1  0.83465425  0.52949454  0.02528766  1
  O  O20  1  0.69594469  0.16344458  0.02963173  1
  O  O21  1  0.47050546  0.16534575  0.52528766  1
  O  O22  1  0.69566604  0.53344641  0.52905734  1
  O  O23  1  0.83655542  0.30405531  0.52963173  1
  O  O24  1  0.53729052  0.68662473  0.97155567  1
  O  O25  1  0.14487236  0.45596716  0.97488979  1
  O  O26  1  0.29985094  0.83550563  0.97149274  1
  O  O27  1  0.54403284  0.85512764  0.47488979  1
  O  O28  1  0.31337527  0.46270948  0.47155567  1
  O  O29  1  0.16449437  0.70014906  0.47149274  1
  O  O30  1  0.13576623  0.63763654  0.35783333  1
  O  O31  1  0.50128273  0.86422023  0.36460174  1
  O  O32  1  0.36135911  0.49355691  0.36219404  1
  O  O33  1  0.13577977  0.49871727  0.86460174  1
  O  O34  1  0.36236346  0.86423377  0.85783333  1
  O  O35  1  0.50644309  0.63864089  0.86219404  1
  O  O36  1  0.02541199  0.83823003  0.40973113  1
  O  O37  1  0.80333407  0.98281965  0.41153841  1
  O  O38  1  0.18509185  0.19399047  0.41034794  1
  O  O39  1  0.01718035  0.19666593  0.91153841  1
  O  O40  1  0.16176997  0.97458801  0.90973113  1
  O  O41  1  0.80600953  0.81490815  0.91034794  1
  O  O42  1  0.96099248  0.15871406  0.58855441  1
  O  O43  1  0.18201129  0.02596809  0.59071678  1
  O  O44  1  0.83542325  0.80732165  0.58929665  1
  O  O45  1  0.97403191  0.81798871  0.09071678  1
  O  O46  1  0.84128594  0.03900752  0.08855441  1
  O  O47  1  0.19267835  0.16457675  0.08929665  1
  O  O48  1  0.66762243  0.15736361  0.74589582  1
  O  O49  1  0.46688343  0.31242183  0.74198752  1
  O  O50  1  0.84371155  0.53095282  0.74338764  1
  O  O51  1  0.68757817  0.53311657  0.24198752  1
  O  O52  1  0.84263639  0.33237757  0.24589582  1
  O  O53  1  0.46904718  0.15628845  0.24338764  1
  O  O54  1  0.63922568  0.49720747  0.92205797  1
  O  O55  1  0.86402843  0.37107817  0.92279398  1
  O  O56  1  0.51099958  0.14988892  0.92411326  1
  O  O57  1  0.62892183  0.13597157  0.42279398  1
  O  O58  1  0.50279253  0.36077432  0.42205797  1
  O  O59  1  0.85011108  0.48900042  0.42411326  1
  O  O60  1  0.34463633  0.48286175  0.07633398  1
  O  O61  1  0.14391049  0.63779390  0.07828125  1
  O  O62  1  0.51605297  0.86137478  0.07684210  1
  O  O63  1  0.36220610  0.85608951  0.57828125  1
  O  O64  1  0.51713825  0.65536367  0.57633398  1
  O  O65  1  0.13862522  0.48394703  0.57684210  1
  O  O66  1  0.30048030  0.82933933  0.25561494  1
  O  O67  1  0.53080618  0.70233157  0.25629797  1
  O  O68  1  0.17823593  0.48488190  0.25661772  1
  O  O69  1  0.29766843  0.46919382  0.75629797  1
  O  O70  1  0.17066067  0.69951970  0.75561494  1
  O  O71  1  0.51511810  0.82176407  0.75661772  1
loop_
_geom_bond_atom_site_label_1
_geom_bond_atom_site_label_2
_geom_bond_distance
_geom_bond_site_symmetry_2
Na0 O52 2.316262 1_555
Na0 O51 2.407320 1_555
Na0 O66 2.451740 1_655
Na0 O68 2.594278 1_655
Na0 O15 2.635726 1_555
Na0 O30 2.829726 1_655
Na0 O1 2.845379 1_555
Na0 O11 2.858213 1_655
Na1 O48 2.316262 1_555
Na1 O49 2.407320 1_555
Na1 O70 2.451740 1_545
Na1 O71 2.594278 1_545
Na1 O13 2.635726 1_555
Na1 O34 2.829726 1_545
Na1 O3 2.845379 1_555
Na1 O8 2.858213 1_545
Na2 O63 2.314403 1_555
Na2 O42 2.403435 1_565
Na2 O64 2.414371 1_555
Na2 O44 2.611351 1_555
Na2 O27 2.668273 1_555
Na2 O6 2.758715 1_555
Na2 O13 2.887204 1_565
Na2 O23 2.910779 1_565
Na3 O61 2.314403 1_555
Na3 O46 2.403435 1_455
Na3 O60 2.414371 1_555
Na3 O47 2.611351 1_555
Na3 O25 2.668273 1_554
Na3 O10 2.758715 1_555
Na3 O15 2.887204 1_455
Na3 O20 2.910779 1_455
Na4 O40 2.340003 1_655
Na4 O41 2.406452 1_555
Na4 O55 2.409906 1_555
Na4 O54 2.639762 1_555
Na4 O4 2.677808 1_555
Na4 O26 2.800343 1_655
Na4 O19 2.808714 1_556
Na4 O33 2.864901 1_655
Na5 O36 2.340003 1_545
Na5 O38 2.406452 1_555
Na5 O57 2.409906 1_555
Na5 O58 2.639762 1_555
Na5 O0 2.677808 1_555
Na5 O29 2.800343 1_545
Na5 O21 2.808714 1_555
Na5 O31 2.864901 1_545
Na6 O36 2.486604 1_655
Na6 O37 2.560509 1_555
Na6 O38 2.599871 1_665
Na6 O43 2.657551 1_665
Na6 O44 2.675623 1_555
Na6 O42 2.702192 1_565
Na7 O40 2.486604 1_545
Na7 O39 2.560509 1_555
Na7 O41 2.599871 1_445
Na7 O45 2.657551 1_446
Na7 O47 2.675623 1_556
Na7 O46 2.702192 1_456
Na8 O48 2.438047 1_555
Na8 O50 2.589300 1_555
Na8 O49 2.645242 1_555
Na8 O56 2.661253 1_555
Na8 O55 2.668118 1_555
Na8 O54 2.697306 1_555
Na9 O52 2.438047 1_555
Na9 O53 2.589300 1_555
Na9 O51 2.645242 1_555
Na9 O59 2.661253 1_555
Na9 O57 2.668118 1_555
Na9 O58 2.697306 1_555
Na10 O62 2.503354 1_555
Na10 O61 2.547226 1_555
Na10 O60 2.605188 1_555
Na10 O67 2.647154 1_555
Na10 O66 2.687766 1_555
Na10 O68 2.720685 1_555
Na11 O65 2.503354 1_555
Na11 O63 2.547226 1_555
Na11 O64 2.605188 1_555
Na11 O69 2.647154 1_555
Na11 O70 2.687766 1_555
Na11 O71 2.720685 1_555
Nb0 O6 1.972524 1_455
Nb0 O43 1.973922 1_565
Nb0 O7 1.989679 1_565
Nb0 O8 2.004501 1_555
Nb0 O44 2.099016 1_455
Nb0 O42 2.121986 1_465
Nb1 O10 1.972524 1_565
Nb1 O45 1.973922 1_455
Nb1 O9 1.989679 1_455
Nb1 O11 2.004501 1_555
Nb1 O47 2.099016 1_565
Nb1 O46 2.121986 1_465
Nb2 O19 1.974695 1_556
Nb2 O56 1.979342 1_555
Nb2 O18 1.983679 1_556
Nb2 O20 2.015489 1_556
Nb2 O54 2.081375 1_555
Nb2 O55 2.121420 1_555
Nb3 O21 1.974695 1_555
Nb3 O59 1.979342 1_555
Nb3 O22 1.983679 1_555
Nb3 O23 2.015489 1_555
Nb3 O58 2.081375 1_555
Nb3 O57 2.121420 1_555
Nb4 O30 1.925222 1_555
Nb4 O68 1.955419 1_555
Nb4 O32 1.983043 1_555
Nb4 O31 2.085219 1_555
Nb4 O67 2.111248 1_555
Nb4 O66 2.129982 1_555
Nb5 O34 1.925221 1_555
Nb5 O71 1.955419 1_555
Nb5 O35 1.983043 1_555
Nb5 O33 2.085219 1_555
Nb5 O69 2.111248 1_555
Nb5 O70 2.129982 1_555
O0 P0 1.518396 1_555
O0 Sc0 2.134469 1_455
O1 P1 1.519021 1_555
O1 Sc0 2.062542 1_565
O2 Si0 1.584461 1_555
O2 Sc0 1.946868 1_555
O3 P2 1.519021 1_555
O3 Sc1 2.062542 1_455
O4 P3 1.518396 1_555
O4 Sc1 2.134469 1_565
O5 Si1 1.584461 1_555
O5 Sc1 1.946868 1_555
O6 Si1 1.676649 1_565
O7 P2 1.597063 1_555
O8 P3 1.605616 1_455
O9 P1 1.597063 1_555
O10 Si0 1.676649 1_455
O11 P0 1.605616 1_565
O12 P4 1.518213 1_555
O12 Sc2 2.041343 1_555
O13 Si2 1.610090 1_555
O13 Sc2 2.008258 1_555
O14 P5 1.505987 1_555
O14 Sc2 2.065691 1_555
O15 Si3 1.610090 1_555
O15 Sc3 2.008258 1_555
O16 P6 1.518213 1_555
O16 Sc3 2.041343 1_555
O17 P7 1.505987 1_555
O17 Sc3 2.065691 1_555
O18 P7 1.594114 1_555
O19 Si3 1.685516 1_555
O20 P6 1.593501 1_555
O21 Si2 1.685516 1_555
O22 P5 1.594114 1_555
O23 P4 1.593501 1_555
O24 P8 1.502727 1_555
O24 Sc4 2.078626 1_556
O25 P9 1.524903 1_555
O25 Sc4 2.108728 1_556
O26 Si4 1.598722 1_555
O26 Sc4 1.947002 1_556
O27 P10 1.524903 1_555
O27 Sc5 2.108728 1_555
O28 P11 1.502727 1_555
O28 Sc5 2.078625 1_555
O29 Si5 1.598722 1_555
O29 Sc5 1.947002 1_555
O30 Si5 1.700248 1_555
O31 P10 1.582750 1_555
O32 P11 1.591594 1_555
O33 P9 1.582750 1_555
O34 Si4 1.700248 1_555
O35 P8 1.591594 1_555
O36 Si5 1.608745 1_555
O36 Sc0 2.087711 1_465
O37 P10 1.518830 1_555
O37 Sc0 2.094046 1_565
O38 P11 1.529866 1_555
O38 Sc0 2.178672 1_455
O39 P9 1.518830 1_555
O39 Sc1 2.094046 1_455
O40 Si4 1.608745 1_555
O40 Sc1 2.087711 1_465
O41 P8 1.529866 1_555
O41 Sc1 2.178672 1_565
O42 P4 1.581952 1_555
O43 Si2 1.663102 1_555
O44 P5 1.582816 1_555
O45 Si3 1.663102 1_555
O46 P6 1.581952 1_555
O47 P7 1.582816 1_555
O48 Si1 1.617542 1_555
O48 Sc2 2.080779 1_555
O49 P2 1.529633 1_555
O49 Sc2 2.156474 1_555
O50 P3 1.513176 1_555
O50 Sc2 2.138205 1_555
O51 P1 1.529633 1_555
O51 Sc3 2.156473 1_555
O52 Si0 1.617543 1_555
O52 Sc3 2.080779 1_555
O53 P0 1.513176 1_555
O53 Sc3 2.138205 1_555
O54 P8 1.584326 1_555
O55 P9 1.590726 1_655
O56 Si4 1.656929 1_545
O57 P10 1.590726 1_545
O58 P11 1.584326 1_555
O59 Si5 1.656929 1_655
O60 P7 1.525772 1_555
O60 Sc4 2.196880 1_555
O61 Si3 1.619193 1_455
O61 Sc4 2.066752 1_555
O62 P6 1.513044 1_565
O62 Sc4 2.116519 1_555
O63 Si2 1.619193 1_565
O63 Sc5 2.066752 1_555
O64 P5 1.525772 1_555
O64 Sc5 2.196880 1_555
O65 P4 1.513044 1_455
O65 Sc5 2.116519 1_555
O66 P0 1.582742 1_565
O67 P1 1.553930 1_555
O68 Si0 1.702020 1_455
O69 P2 1.553930 1_555
O70 P3 1.582742 1_455
O71 Si1 1.702020 1_565
