# generated using pymatgen
data_Na4CoO4
_symmetry_space_group_name_H-M   'P 1'
_cell_length_a   5.65928823
_cell_length_b   5.68625173
_cell_length_c   7.85772992
_cell_angle_alpha   88.39598698
_cell_angle_beta   107.43167736
_cell_angle_gamma   107.66961931
_symmetry_Int_Tables_number   1
_chemical_formula_structural   Na4CoO4
_chemical_formula_sum   'Na8 Co2 O8'
_cell_volume   229.31696661
_cell_formula_units_Z   2
loop_
 _symmetry_equiv_pos_site_id
 _symmetry_equiv_pos_as_xyz
  1  'x, y, z'
loop_
 _atom_site_type_symbol
 _atom_site_label
 _atom_site_symmetry_multiplicity
 _atom_site_fract_x
 _atom_site_fract_y
 _atom_site_fract_z
 _atom_site_occupancy
  Na  Na0  1  0.47882338  0.23944557  0.41478753  1
  Na  Na1  1  0.22884515  0.71142401  0.15430505  1
  Na  Na2  1  0.89681449  0.71720948  0.36521488  1
  Na  Na3  1  0.32429709  0.20934485  0.01025714  1
  Na  Na4  1  0.77115485  0.28857599  0.84569495  1
  Na  Na5  1  0.52117662  0.76055443  0.58521247  1
  Na  Na6  1  0.10318551  0.28279052  0.63478512  1
  Na  Na7  1  0.67570291  0.79065515  0.98974286  1
  Co  Co0  1  0.08216817  0.76933559  0.75401420  1
  Co  Co1  1  0.91783183  0.23066441  0.24598580  1
  O  O0  1  0.63953052  0.99296155  0.26470543  1
  O  O1  1  0.75949921  0.43569604  0.12035889  1
  O  O2  1  0.24050079  0.56430396  0.87964111  1
  O  O3  1  0.91038398  0.96828088  0.78644889  1
  O  O4  1  0.36046948  0.00703845  0.73529457  1
  O  O5  1  0.80679582  0.53308609  0.61502752  1
  O  O6  1  0.08961602  0.03171912  0.21355111  1
  O  O7  1  0.19320418  0.46691391  0.38497248  1
loop_
_geom_bond_atom_site_label_1
_geom_bond_atom_site_label_2
_geom_bond_distance
_geom_bond_site_symmetry_2
Na0 O6 2.277193 1_555
Na0 O5 2.285759 1_555
Na0 O7 2.316456 1_555
Na0 O0 2.385643 1_545
Na0 O4 2.970637 1_555
Na1 O7 2.273038 1_555
Na1 O6 2.300658 1_565
Na1 O0 2.308309 1_555
Na1 O2 2.362633 1_554
Na1 O1 2.579803 1_455
Na2 O6 2.298752 1_665
Na2 O5 2.317153 1_555
Na2 O1 2.321551 1_555
Na2 O0 2.414553 1_555
Na2 O7 2.478723 1_655
Na3 O1 2.309209 1_555
Na3 O2 2.350667 1_554
Na3 O6 2.387953 1_555
Na3 O3 2.485239 1_444
Na3 O4 2.565239 1_554
Na3 O0 2.784211 1_545
Na4 O5 2.273038 1_555
Na4 O3 2.300658 1_545
Na4 O4 2.308309 1_555
Na4 O1 2.362633 1_556
Na4 O2 2.579803 1_655
Na5 O3 2.277193 1_555
Na5 O7 2.285759 1_555
Na5 O5 2.316456 1_555
Na5 O4 2.385643 1_565
Na5 O0 2.970637 1_555
Na6 O3 2.298752 1_445
Na6 O7 2.317153 1_555
Na6 O2 2.321551 1_555
Na6 O4 2.414553 1_555
Na6 O5 2.478723 1_455
Na7 O2 2.309209 1_555
Na7 O1 2.350667 1_556
Na7 O3 2.387953 1_555
Na7 O6 2.485239 1_666
Na7 O0 2.565239 1_556
Na7 O4 2.784211 1_565
Co0 O3 1.766927 1_455
Co0 O4 1.778907 1_565
Co0 O2 1.782240 1_555
Co0 O5 1.793755 1_455
Co1 O6 1.766927 1_655
Co1 O0 1.778907 1_545
Co1 O1 1.782240 1_555
Co1 O7 1.793755 1_655
