# generated using pymatgen
data_La4MgCr2O12
_symmetry_space_group_name_H-M   'P 1'
_cell_length_a   4.83345258
_cell_length_b   7.37843252
_cell_length_c   8.77660047
_cell_angle_alpha   105.54543658
_cell_angle_beta   93.64585851
_cell_angle_gamma   108.63832308
_symmetry_Int_Tables_number   1
_chemical_formula_structural   La4MgCr2O12
_chemical_formula_sum   'La4 Mg1 Cr2 O12'
_cell_volume   281.89321543
_cell_formula_units_Z   1
loop_
 _symmetry_equiv_pos_site_id
 _symmetry_equiv_pos_as_xyz
  1  'x, y, z'
loop_
 _atom_site_type_symbol
 _atom_site_label
 _atom_site_symmetry_multiplicity
 _atom_site_fract_x
 _atom_site_fract_y
 _atom_site_fract_z
 _atom_site_occupancy
  La  La0  1  0.63038600  0.36281600  0.12542400  1
  La  La1  1  0.33230300  0.67095400  0.43521500  1
  La  La2  1  0.66037800  0.35845300  0.59164000  1
  La  La3  1  0.23670200  0.59046200  0.91622900  1
  Mg  Mg0  1  0.66668800  0.99942300  0.85537800  1
  Cr  Cr0  1  0.96056800  0.99758400  0.24506700  1
  Cr  Cr1  1  0.10499100  0.00860500  0.72111900  1
  O  O0  1  0.67020100  0.48662400  0.88858000  1
  O  O1  1  0.28530600  0.99252500  0.90166600  1
  O  O2  1  0.27975500  0.18971000  0.30592400  1
  O  O3  1  0.75611400  0.80262800  0.68478000  1
  O  O4  1  0.19640300  0.49827900  0.62709700  1
  O  O5  1  0.34482700  0.01059700  0.57866500  1
  O  O6  1  0.77464000  0.52387700  0.39019300  1
  O  O7  1  0.75955400  0.01876200  0.08764900  1
  O  O8  1  0.25051100  0.48974300  0.14702800  1
  O  O9  1  0.76642500  0.00068000  0.39371300  1
  O  O10  1  0.96722100  0.21395300  0.79706700  1
  O  O11  1  0.02369200  0.78432600  0.19037700  1
loop_
_geom_bond_atom_site_label_1
_geom_bond_atom_site_label_2
_geom_bond_distance
_geom_bond_site_symmetry_2
La0 O6 2.254426 1_555
La0 O8 2.309227 1_555
La0 O0 2.479676 1_554
La0 O2 2.656235 1_555
La0 O7 2.744511 1_555
La0 O1 2.810344 1_544
La0 O8 2.816983 1_655
La0 O11 2.957070 1_655
La1 O4 2.376268 1_555
La1 O8 2.462452 1_555
La1 O5 2.463970 1_565
La1 O6 2.522738 1_455
La1 O3 2.637108 1_555
La1 O6 2.695463 1_555
La1 O9 2.786323 1_565
La1 O11 2.982569 1_555
La2 O6 2.402228 1_555
La2 O4 2.427055 1_655
La2 O5 2.499175 1_555
La2 O0 2.514558 1_555
La2 O2 2.738357 1_555
La2 O4 2.754277 1_555
La2 O10 2.878889 1_555
La2 O9 2.961263 1_555
La2 O3 3.028153 1_555
La3 O8 2.341215 1_556
La3 O4 2.422246 1_555
La3 O0 2.455051 1_555
La3 O10 2.542530 1_455
La3 O0 2.572605 1_455
La3 O11 2.882184 1_556
La3 O1 2.938333 1_555
La3 O7 3.240393 1_566
Mg0 O1 1.900547 1_555
Mg0 O3 1.963470 1_555
Mg0 O10 1.984087 1_565
Mg0 O7 2.016010 1_566
Cr0 O11 1.649266 1_655
Cr0 O9 1.654237 1_565
Cr0 O2 1.663262 1_665
Cr0 O7 1.708582 1_565
Cr1 O5 1.757977 1_555
Cr1 O1 1.809921 1_545
Cr1 O3 1.813480 1_445
Cr1 O10 1.828504 1_455
