# generated using pymatgen
data_K4MgMo2(SO3)2
_symmetry_space_group_name_H-M   'P 1'
_cell_length_a   6.18177851
_cell_length_b   7.08960906
_cell_length_c   8.13846761
_cell_angle_alpha   101.93074492
_cell_angle_beta   88.25039869
_cell_angle_gamma   107.00533921
_symmetry_Int_Tables_number   1
_chemical_formula_structural   K4MgMo2(SO3)2
_chemical_formula_sum   'K4 Mg1 Mo2 S2 O6'
_cell_volume   333.54592926
_cell_formula_units_Z   1
loop_
 _symmetry_equiv_pos_site_id
 _symmetry_equiv_pos_as_xyz
  1  'x, y, z'
loop_
 _atom_site_type_symbol
 _atom_site_label
 _atom_site_symmetry_multiplicity
 _atom_site_fract_x
 _atom_site_fract_y
 _atom_site_fract_z
 _atom_site_occupancy
  K  K0  1  0.51712182  0.07273947  0.31961539  1
  K  K1  1  0.53866917  0.04178842  0.86178101  1
  K  K2  1  0.11871327  0.25833073  0.64350285  1
  K  K3  1  0.84392011  0.69827890  0.32109064  1
  Mg  Mg0  1  0.39221545  0.56767223  0.98764342  1
  Mo  Mo0  1  0.07761111  0.27608034  0.17413768  1
  Mo  Mo1  1  0.90061558  0.70138576  0.80814811  1
  S  S0  1  0.30598401  0.60175134  0.29948931  1
  S  S1  1  0.67121781  0.39403136  0.65837871  1
  O  O0  1  0.10490554  0.09967481  0.30080289  1
  O  O1  1  0.90213107  0.88006712  0.67977439  1
  O  O2  1  0.79821126  0.29158798  0.13377005  1
  O  O3  1  0.24725562  0.27289002  0.97219041  1
  O  O4  1  0.17128276  0.66923353  0.87791432  1
  O  O5  1  0.70181244  0.74856198  0.98676083  1
loop_
_geom_bond_atom_site_label_1
_geom_bond_atom_site_label_2
_geom_bond_distance
_geom_bond_site_symmetry_2
K0 O0 2.621817 1_555
K0 O2 2.635743 1_555
K0 S1 3.160971 1_555
K0 S0 3.180852 1_545
K1 O2 2.746727 1_556
K1 O3 2.784949 1_555
K1 O5 2.921741 1_545
K1 O4 2.961067 1_545
K1 O1 3.026280 1_545
K1 S1 3.174511 1_555
K2 O1 2.697119 1_445
K2 O0 2.777155 1_555
K2 O3 2.786652 1_555
K2 O4 3.068845 1_555
K2 S1 3.175032 1_455
K2 S1 3.265073 1_555
K3 O0 2.867216 1_665
K3 O2 2.906825 1_555
K3 O1 2.923906 1_555
K3 O5 3.005405 1_554
K3 S0 3.117865 1_655
K3 S0 3.195680 1_555
Mg0 O5 1.968475 1_555
Mg0 O3 1.997313 1_555
Mg0 O4 2.024047 1_555
Mg0 S0 2.553998 1_556
Mo0 O2 1.806614 1_455
Mo0 O0 1.822734 1_555
Mo0 O3 1.922181 1_554
Mo0 S0 2.360548 1_555
Mo1 O1 1.798895 1_555
Mo1 O4 1.873118 1_655
Mo1 O5 1.914569 1_555
Mo1 S1 2.333405 1_555
