# generated using pymatgen
data_Na5Nb2Al2Si3(PO8)3
_symmetry_space_group_name_H-M   'P 1'
_cell_length_a   8.82733741
_cell_length_b   8.82055240
_cell_length_c   22.08020128
_cell_angle_alpha   89.54156737
_cell_angle_beta   90.45607602
_cell_angle_gamma   119.88460999
_symmetry_Int_Tables_number   1
_chemical_formula_structural   Na5Nb2Al2Si3(PO8)3
_chemical_formula_sum   'Na15 Nb6 Al6 Si9 P9 O72'
_cell_volume   1490.54300090
_cell_formula_units_Z   3
loop_
 _symmetry_equiv_pos_site_id
 _symmetry_equiv_pos_as_xyz
  1  'x, y, z'
loop_
 _atom_site_type_symbol
 _atom_site_label
 _atom_site_symmetry_multiplicity
 _atom_site_fract_x
 _atom_site_fract_y
 _atom_site_fract_z
 _atom_site_occupancy
  Na  Na0  1  0.99300622  0.62682893  0.24608167  1
  Na  Na1  1  0.37173682  0.00746934  0.74629143  1
  Na  Na2  1  0.03652996  0.69879903  0.57945325  1
  Na  Na3  1  0.65265226  0.95847724  0.58075924  1
  Na  Na4  1  0.30014551  0.96289244  0.07934739  1
  Na  Na5  1  0.03931224  0.34615597  0.08191062  1
  Na  Na6  1  0.97143485  0.67160632  0.91595393  1
  Na  Na7  1  0.96724894  0.29482846  0.41137584  1
  Na  Na8  1  0.33190255  0.02866058  0.41533972  1
  Na  Na9  1  0.99558126  0.99280359  0.49374762  1
  Na  Na10  1  0.99402307  0.00158434  0.99250131  1
  Na  Na11  1  0.66998795  0.33028782  0.82729804  1
  Na  Na12  1  0.66071603  0.33046067  0.32603330  1
  Na  Na13  1  0.35097568  0.66237584  0.16184982  1
  Na  Na14  1  0.33592346  0.64677519  0.66136059  1
  Nb  Nb0  1  0.99668430  0.99955874  0.64584505  1
  Nb  Nb1  1  -0.00006537  0.00244431  0.14512571  1
  Nb  Nb2  1  0.65687936  0.32971287  0.97774512  1
  Nb  Nb3  1  0.66632473  0.33997503  0.47849973  1
  Nb  Nb4  1  0.33287138  0.66669723  0.31130240  1
  Nb  Nb5  1  0.34052665  0.67169421  0.81110147  1
  Al  Al0  1  0.98547515  0.99036630  0.35317530  1
  Al  Al1  1  0.00495988  0.01084397  0.85358401  1
  Al  Al2  1  0.66759020  0.33142349  0.68654393  1
  Al  Al3  1  0.66915253  0.33250959  0.18604676  1
  Al  Al4  1  0.32999088  0.66393719  0.01949338  1
  Al  Al5  1  0.34058443  0.67475594  0.52019755  1
  Si  Si0  1  0.98595268  0.28156040  0.25302282  1
  Si  Si1  1  0.72290381  0.01714841  0.75332919  1
  Si  Si2  1  0.37984972  0.04285042  0.58629766  1
  Si  Si3  1  0.64926670  0.60947316  0.58793669  1
  Si  Si4  1  0.95652065  0.61804860  0.08491602  1
  Si  Si5  1  0.39029734  0.35073469  0.08733050  1
  Si  Si6  1  0.32393579  0.95346913  0.91825093  1
  Si  Si7  1  0.62948857  0.94951046  0.41972254  1
  Si  Si8  1  0.04795710  0.67698930  0.41835842  1
  P  P0  1  0.29690543  0.01427905  0.25243491  1
  P  P1  1  0.71391455  0.70850774  0.25169091  1
  P  P2  1  0.28985357  0.28472847  0.75274621  1
  P  P3  1  0.98624264  0.70152100  0.75291121  1
  P  P4  1  0.95887348  0.34120502  0.58486164  1
  P  P5  1  0.65838511  0.04194301  0.08499219  1
  P  P6  1  0.62300176  0.67715987  0.91974306  1
  P  P7  1  0.05000882  0.37246357  0.91836156  1
  P  P8  1  0.32933730  0.38198865  0.41926496  1
  O  O0  1  0.20458075  0.02844989  0.30873099  1
  O  O1  1  0.83318728  0.79747444  0.30630726  1
  O  O2  1  0.97490512  0.16739783  0.31175794  1
  O  O3  1  0.20160838  0.16468559  0.80702303  1
  O  O4  1  0.97173566  0.79325835  0.80921849  1
  O  O5  1  0.84254324  0.02855251  0.80926211  1
  O  O6  1  0.80143573  0.97794484  0.69063495  1
  O  O7  1  0.17322627  0.19724463  0.69513258  1
  O  O8  1  0.02898817  0.82487266  0.69536142  1
  O  O9  1  0.80235436  0.82528470  0.19444418  1
  O  O10  1  0.02004185  0.19501235  0.19148859  1
  O  O11  1  0.17490166  0.97316282  0.19482669  1
  O  O12  1  0.87016951  0.36845049  0.63898202  1
  O  O13  1  0.50421460  0.13241962  0.64411079  1
  O  O14  1  0.64063821  0.49354140  0.64429145  1
  O  O15  1  0.86831012  0.49495130  0.14337104  1
  O  O16  1  0.62965441  0.12735196  0.13995631  1
  O  O17  1  0.50675270  0.36146260  0.14387967  1
  O  O18  1  0.46834679  0.29713033  0.02698005  1
  O  O19  1  0.83736892  0.53049760  0.02321479  1
  O  O20  1  0.69959662  0.16346101  0.02801760  1
  O  O21  1  0.46882357  0.16298494  0.52440986  1
  O  O22  1  0.70243339  0.53238427  0.52731915  1
  O  O23  1  0.84226826  0.30067048  0.52616250  1
  O  O24  1  0.52769908  0.69283358  0.97387973  1
  O  O25  1  0.15482737  0.45784224  0.97636620  1
  O  O26  1  0.29653976  0.83006696  0.97654612  1
  O  O27  1  0.53665870  0.83944534  0.47976658  1
  O  O28  1  0.30075446  0.47079128  0.47305923  1
  O  O29  1  0.16783669  0.70137503  0.47724713  1
  O  O30  1  0.13276695  0.63324631  0.35794997  1
  O  O31  1  0.49644583  0.85892586  0.36089417  1
  O  O32  1  0.36085380  0.49410587  0.36080709  1
  O  O33  1  0.13900007  0.49578776  0.86293892  1
  O  O34  1  0.35569458  0.86070269  0.85773473  1
  O  O35  1  0.50820308  0.64259732  0.86140684  1
  O  O36  1  0.03663371  0.85219763  0.40696452  1
  O  O37  1  0.82539626  0.98352435  0.41084010  1
  O  O38  1  0.17217004  0.19676765  0.41200581  1
  O  O39  1  0.02924369  0.19144345  0.91014252  1
  O  O40  1  0.14931109  0.96820486  0.90782834  1
  O  O41  1  0.80805164  0.83250000  0.91198954  1
  O  O42  1  0.97068784  0.17018813  0.58919171  1
  O  O43  1  0.18181370  0.01913452  0.58927871  1
  O  O44  1  0.83124466  0.80945890  0.59118983  1
  O  O45  1  0.98148382  0.81691583  0.08925455  1
  O  O46  1  0.82908871  0.02946342  0.08899947  1
  O  O47  1  0.19056685  0.16889111  0.09088790  1
  O  O48  1  0.68601586  0.17806208  0.74442019  1
  O  O49  1  0.47003069  0.30311162  0.74486135  1
  O  O50  1  0.82948776  0.52230804  0.74338904  1
  O  O51  1  0.69732352  0.52874794  0.24442834  1
  O  O52  1  0.82089252  0.31262211  0.24437823  1
  O  O53  1  0.47644132  0.17043311  0.24337866  1
  O  O54  1  0.64396808  0.50887227  0.92222773  1
  O  O55  1  0.86722279  0.36317804  0.92116039  1
  O  O56  1  0.50425818  0.14591826  0.92067798  1
  O  O57  1  0.64323550  0.14631621  0.42170666  1
  O  O58  1  0.49534745  0.36099033  0.42176792  1
  O  O59  1  0.85711585  0.49486844  0.42135310  1
  O  O60  1  0.35469145  0.51025872  0.07503841  1
  O  O61  1  0.15286642  0.64581055  0.07684291  1
  O  O62  1  0.49849426  0.86186134  0.07525643  1
  O  O63  1  0.35123577  0.84632688  0.57872761  1
  O  O64  1  0.48690304  0.64118911  0.57730538  1
  O  O65  1  0.13872180  0.50142347  0.57579050  1
  O  O66  1  0.30505689  0.83877670  0.25500378  1
  O  O67  1  0.53203692  0.69479340  0.25532986  1
  O  O68  1  0.16506580  0.48152919  0.25480955  1
  O  O69  1  0.30280938  0.46670892  0.75678125  1
  O  O70  1  0.16002451  0.69030137  0.75605247  1
  O  O71  1  0.52151738  0.83576264  0.75645647  1
loop_
_geom_bond_atom_site_label_1
_geom_bond_atom_site_label_2
_geom_bond_distance
_geom_bond_site_symmetry_2
Na0 O51 2.304596 1_555
Na0 O52 2.407390 1_555
Na0 O68 2.432632 1_655
Na0 O66 2.446850 1_655
Na0 O15 2.536632 1_555
Na0 O30 2.740558 1_655
Na0 O1 2.863947 1_555
Na0 O11 2.876933 1_655
Na1 O49 2.301838 1_555
Na1 O48 2.408998 1_555
Na1 O71 2.465294 1_545
Na1 O70 2.480389 1_545
Na1 O13 2.527924 1_555
Na1 O34 2.742778 1_545
Na1 O3 2.848454 1_555
Na1 O8 2.851578 1_545
Na2 O65 2.328017 1_555
Na2 O63 2.410180 1_555
Na2 O43 2.463699 1_565
Na2 O44 2.465321 1_455
Na2 O29 2.539964 1_555
Na2 O22 2.799377 1_455
Na2 O8 2.813003 1_555
Na2 O12 2.842551 1_455
Na3 O63 2.331499 1_555
Na3 O64 2.429028 1_555
Na3 O27 2.460326 1_555
Na3 O42 2.485232 1_565
Na3 O44 2.514044 1_555
Na3 O6 2.715044 1_555
Na3 O13 2.845073 1_565
Na3 O23 2.881776 1_565
Na4 O62 2.329505 1_555
Na4 O61 2.427648 1_555
Na4 O45 2.452420 1_455
Na4 O47 2.462708 1_565
Na4 O26 2.555428 1_554
Na4 O18 2.800698 1_565
Na4 O11 2.807202 1_555
Na4 O16 2.849581 1_565
Na5 O61 2.315222 1_555
Na5 O60 2.419959 1_555
Na5 O46 2.470473 1_455
Na5 O47 2.517526 1_555
Na5 O25 2.537969 1_554
Na5 O10 2.718313 1_555
Na5 O15 2.806789 1_455
Na5 O20 2.857247 1_455
Na6 O40 2.290289 1_655
Na6 O55 2.400708 1_555
Na6 O41 2.477378 1_555
Na6 O54 2.510756 1_555
Na6 O4 2.581169 1_555
Na6 O19 2.662398 1_556
Na6 O26 2.819749 1_655
Na6 O33 2.881961 1_655
Na7 O38 2.361999 1_655
Na7 O37 2.383668 1_545
Na7 O59 2.413715 1_555
Na7 O57 2.494113 1_555
Na7 O2 2.494746 1_555
Na7 O23 2.783311 1_555
Na7 O30 2.839313 1_655
Na7 O28 2.889213 1_655
Na8 O36 2.281355 1_545
Na8 O57 2.409075 1_555
Na8 O38 2.504458 1_555
Na8 O58 2.546244 1_555
Na8 O0 2.600019 1_555
Na8 O21 2.690126 1_555
Na8 O31 2.831955 1_545
Na8 O29 2.846377 1_545
Na9 O37 2.334691 1_555
Na9 O36 2.416237 1_655
Na9 O38 2.474336 1_665
Na9 O43 2.603453 1_665
Na9 O44 2.646710 1_555
Na9 O42 2.709307 1_565
Na10 O41 2.373965 1_545
Na10 O39 2.376872 1_655
Na10 O40 2.431647 1_645
Na10 O45 2.645339 1_546
Na10 O46 2.671073 1_556
Na10 O47 2.710549 1_656
Na11 O48 2.324737 1_555
Na11 O50 2.428702 1_555
Na11 O49 2.453651 1_555
Na11 O56 2.580632 1_555
Na11 O55 2.619073 1_555
Na11 O54 2.710828 1_555
Na12 O52 2.354029 1_555
Na12 O53 2.382240 1_555
Na12 O51 2.409511 1_555
Na12 O57 2.612497 1_555
Na12 O59 2.650231 1_555
Na12 O58 2.668652 1_555
Na13 O60 2.358299 1_555
Na13 O62 2.479928 1_555
Na13 O61 2.509998 1_555
Na13 O67 2.529452 1_555
Na13 O68 2.615976 1_555
Na13 O66 2.740243 1_555
Na14 O64 2.308570 1_555
Na14 O65 2.450763 1_555
Na14 O63 2.482109 1_555
Na14 O69 2.557490 1_555
Na14 O71 2.674228 1_555
Na14 O70 2.754709 1_555
Nb0 O6 1.918757 1_555
Nb0 O7 1.987187 1_665
Nb0 O44 1.991186 1_555
Nb0 O43 2.002066 1_665
Nb0 O8 2.014140 1_655
Nb0 O42 2.047460 1_565
Nb1 O10 1.920694 1_555
Nb1 O9 1.989147 1_445
Nb1 O47 1.990830 1_555
Nb1 O45 1.997480 1_445
Nb1 O11 2.005609 1_545
Nb1 O46 2.047121 1_455
Nb2 O18 1.892431 1_556
Nb2 O56 1.964730 1_555
Nb2 O19 1.968274 1_556
Nb2 O20 2.010745 1_556
Nb2 O54 2.039416 1_555
Nb2 O55 2.140234 1_555
Nb3 O22 1.904897 1_555
Nb3 O21 1.948038 1_555
Nb3 O59 2.002129 1_555
Nb3 O58 2.031349 1_555
Nb3 O23 2.035832 1_555
Nb3 O57 2.053096 1_555
Nb4 O31 1.929687 1_555
Nb4 O30 1.942370 1_555
Nb4 O32 1.979185 1_555
Nb4 O68 2.002504 1_555
Nb4 O66 2.060507 1_555
Nb4 O67 2.067670 1_555
Nb5 O34 1.913218 1_555
Nb5 O71 1.949714 1_555
Nb5 O35 1.959148 1_555
Nb5 O33 2.033612 1_555
Nb5 O69 2.060834 1_555
Nb5 O70 2.066327 1_555
Al0 O2 1.845084 1_565
Al0 O1 1.870741 1_555
Al0 O37 1.887858 1_555
Al0 O36 1.901722 1_655
Al0 O0 2.047972 1_665
Al0 O38 2.175253 1_665
Al1 O5 1.798894 1_455
Al1 O3 1.889540 1_555
Al1 O40 1.909382 1_545
Al1 O39 1.957143 1_555
Al1 O4 2.047842 1_445
Al1 O41 2.106517 1_445
Al2 O14 1.812716 1_555
Al2 O13 1.876440 1_555
Al2 O48 1.917733 1_555
Al2 O12 1.962075 1_555
Al2 O50 2.014970 1_555
Al2 O49 2.087660 1_555
Al3 O17 1.823993 1_555
Al3 O15 1.877812 1_555
Al3 O52 1.920120 1_555
Al3 O16 1.956271 1_555
Al3 O53 2.030265 1_555
Al3 O51 2.078785 1_555
Al4 O26 1.881010 1_554
Al4 O60 1.911240 1_555
Al4 O24 1.925041 1_554
Al4 O25 1.950768 1_554
Al4 O61 1.962871 1_555
Al4 O62 2.047883 1_555
Al5 O27 1.844240 1_555
Al5 O29 1.900009 1_555
Al5 O64 1.922260 1_555
Al5 O28 1.958935 1_555
Al5 O63 1.963879 1_555
Al5 O65 2.075915 1_555
O0 P0 1.531360 1_555
O1 P1 1.533041 1_555
O2 Si0 1.608936 1_555
O3 P2 1.528672 1_555
O4 P3 1.529310 1_555
O5 Si1 1.589362 1_555
O6 Si1 1.666808 1_565
O7 P2 1.573797 1_555
O8 P3 1.586597 1_455
O9 P1 1.568993 1_555
O10 Si0 1.664750 1_455
O11 P0 1.582950 1_565
O12 P4 1.518513 1_555
O13 Si2 1.608855 1_555
O14 Si3 1.582198 1_555
O15 Si4 1.613138 1_555
O16 P5 1.521401 1_555
O17 Si5 1.584072 1_555
O18 Si5 1.680252 1_555
O19 Si4 1.656296 1_555
O20 P5 1.568741 1_555
O21 Si2 1.664811 1_555
O22 Si3 1.678282 1_555
O23 P4 1.576899 1_555
O24 P6 1.513360 1_555
O25 P7 1.538111 1_555
O26 Si6 1.618732 1_555
O27 Si7 1.604881 1_555
O28 P8 1.518105 1_555
O29 Si8 1.616339 1_555
O30 Si8 1.673447 1_555
O31 Si7 1.661969 1_555
O32 P8 1.559673 1_555
O33 P7 1.562176 1_555
O34 Si6 1.669023 1_555
O35 P6 1.567366 1_555
O36 Si8 1.615229 1_555
O37 Si7 1.614477 1_555
O38 P8 1.536741 1_555
O39 P7 1.525919 1_555
O40 Si6 1.624660 1_555
O41 P6 1.531453 1_555
O42 P4 1.565177 1_555
O43 Si2 1.655673 1_555
O44 Si3 1.695202 1_555
O45 Si4 1.658866 1_555
O46 P5 1.566391 1_555
O47 Si5 1.693952 1_555
O48 Si1 1.616893 1_555
O49 P2 1.527483 1_555
O50 P3 1.509532 1_555
O51 P1 1.527586 1_555
O52 Si0 1.620807 1_555
O53 P0 1.508033 1_555
O54 P6 1.585238 1_555
O55 P7 1.575998 1_655
O56 Si6 1.650944 1_545
O57 Si7 1.679682 1_545
O58 P8 1.566480 1_555
O59 Si8 1.651119 1_655
O60 Si5 1.607979 1_555
O61 Si4 1.636166 1_455
O62 P5 1.525750 1_565
O63 Si2 1.632245 1_565
O64 Si3 1.606451 1_555
O65 P4 1.523968 1_455
O66 P0 1.585659 1_565
O67 P1 1.551472 1_555
O68 Si0 1.683327 1_455
O69 P2 1.554597 1_555
O70 P3 1.586611 1_455
O71 Si1 1.700200 1_565
