# generated using pymatgen
data_MgFe4O7F
_symmetry_space_group_name_H-M   'P 1'
_cell_length_a   5.18699931
_cell_length_b   5.10256155
_cell_length_c   5.78910343
_cell_angle_alpha   89.26313981
_cell_angle_beta   92.68738192
_cell_angle_gamma   99.19167327
_symmetry_Int_Tables_number   1
_chemical_formula_structural   MgFe4O7F
_chemical_formula_sum   'Mg1 Fe4 O7 F1'
_cell_volume   151.08409413
_cell_formula_units_Z   1
loop_
 _symmetry_equiv_pos_site_id
 _symmetry_equiv_pos_as_xyz
  1  'x, y, z'
loop_
 _atom_site_type_symbol
 _atom_site_label
 _atom_site_symmetry_multiplicity
 _atom_site_fract_x
 _atom_site_fract_y
 _atom_site_fract_z
 _atom_site_occupancy
  Mg  Mg0  1  0.00210296  0.50517397  0.99857354  1
  Fe  Fe0  1  0.00897832  0.99955555  0.99477728  1
  Fe  Fe1  1  0.00834490  0.98356654  0.48406672  1
  Fe  Fe2  1  0.55272743  0.42798127  0.25535039  1
  Fe  Fe3  1  0.44793666  0.56086111  0.72682357  1
  O  O0  1  0.13499429  0.79814984  0.23885816  1
  O  O1  1  0.15834588  0.78502396  0.75429680  1
  O  O2  1  0.30654353  0.31910448  0.98286445  1
  O  O3  1  0.31919279  0.29461228  0.50003879  1
  O  O4  1  0.68692113  0.68501632  0.98145771  1
  O  O5  1  0.67084026  0.70705161  0.49518034  1
  O  O6  1  0.83813259  0.21451941  0.22310501  1
  F  F0  1  0.85104726  0.20549664  0.73960624  1
loop_
_geom_bond_atom_site_label_1
_geom_bond_atom_site_label_2
_geom_bond_distance
_geom_bond_site_symmetry_2
Mg0 O2 1.974341 1_555
Mg0 O4 1.996596 1_455
Mg0 O6 2.064845 1_456
Mg0 O0 2.068644 1_556
Mg0 O1 2.093195 1_555
Fe0 O0 1.889611 1_556
Fe0 O1 2.036656 1_555
Fe0 O6 2.047751 1_466
Fe0 O2 2.061244 1_565
Fe0 O4 2.122968 1_455
Fe1 O0 1.913714 1_555
Fe1 O1 2.043508 1_555
Fe1 O5 2.068506 1_455
Fe1 O3 2.073525 1_565
Fe1 O6 2.147578 1_465
Fe2 O3 1.951862 1_555
Fe2 O6 1.989740 1_555
Fe2 O5 2.005760 1_555
Fe2 O2 2.008634 1_554
Fe2 O4 2.115914 1_554
Fe3 O5 1.880336 1_555
Fe3 O3 1.920700 1_555
Fe3 O4 1.926846 1_555
Fe3 O2 2.005625 1_555
Fe3 O1 2.041051 1_555
F0 Fe0 2.019671 1_645
F0 Fe1 2.141953 1_645
F0 Mg0 2.183057 1_655
