# generated using pymatgen
data_SrCaSn
_symmetry_space_group_name_H-M   'P 1'
_cell_length_a   5.17101231
_cell_length_b   8.46908547
_cell_length_c   9.62651684
_cell_angle_alpha   90.00000000
_cell_angle_beta   90.00000000
_cell_angle_gamma   90.00000000
_symmetry_Int_Tables_number   1
_chemical_formula_structural   SrCaSn
_chemical_formula_sum   'Sr4 Ca4 Sn4'
_cell_volume   421.58122585
_cell_formula_units_Z   4
loop_
 _symmetry_equiv_pos_site_id
 _symmetry_equiv_pos_as_xyz
  1  'x, y, z'
loop_
 _atom_site_type_symbol
 _atom_site_label
 _atom_site_symmetry_multiplicity
 _atom_site_fract_x
 _atom_site_fract_y
 _atom_site_fract_z
 _atom_site_occupancy
  Sr  Sr0  1  0.75000000  0.97812350  0.31800279  1
  Sr  Sr1  1  0.25000000  0.02187650  0.68199721  1
  Sr  Sr2  1  0.75000000  0.47812350  0.18199721  1
  Sr  Sr3  1  0.25000000  0.52187650  0.81800279  1
  Ca  Ca0  1  0.75000000  0.85128909  0.92950859  1
  Ca  Ca1  1  0.25000000  0.14871091  0.07049141  1
  Ca  Ca2  1  0.75000000  0.35128909  0.57049141  1
  Ca  Ca3  1  0.25000000  0.64871091  0.42950859  1
  Sn  Sn0  1  0.75000000  0.73497566  0.60919968  1
  Sn  Sn1  1  0.25000000  0.26502434  0.39080032  1
  Sn  Sn2  1  0.75000000  0.23497566  0.89080032  1
  Sn  Sn3  1  0.25000000  0.76502434  0.10919968  1
loop_
_geom_bond_atom_site_label_1
_geom_bond_atom_site_label_2
_geom_bond_distance
_geom_bond_site_symmetry_2
Sr0 Sr1 4.370372 1_565
Sr0 Sr1 4.370372 1_665
Sr0 Sr2 4.432326 1_555
Sr0 Sr2 4.432326 1_565
Sr1 Sr3 4.432326 1_555
Sr1 Sr3 4.432326 1_545
Sr2 Sr3 4.370372 1_654
Sr2 Sr3 4.370372 1_554
Ca0 Sn3 3.195434 1_656
Ca0 Sn3 3.195434 1_556
Ca0 Sn0 3.236986 1_555
Ca0 Sn2 3.270770 1_565
Ca0 Sr1 3.801208 1_565
Ca0 Sr1 3.801208 1_665
Ca0 Ca1 3.856368 1_566
Ca0 Ca1 3.856368 1_666
Ca0 Sr0 3.891053 1_556
Ca0 Sr3 3.952236 1_555
Ca0 Sr3 3.952236 1_655
Ca0 Sr2 3.986941 1_556
Ca1 Sn2 3.195434 1_554
Ca1 Sn2 3.195434 1_454
Ca1 Sn1 3.236986 1_555
Ca1 Sn3 3.270770 1_545
Ca1 Sr0 3.801208 1_545
Ca1 Sr0 3.801208 1_445
Ca1 Sr1 3.891053 1_554
Ca1 Sr2 3.952236 1_455
Ca1 Sr2 3.952236 1_555
Ca1 Sr3 3.986941 1_554
Ca2 Sn1 3.195434 1_655
Ca2 Sn1 3.195434 1_555
Ca2 Sn2 3.236986 1_555
Ca2 Sn0 3.270770 1_555
Ca2 Sr3 3.801208 1_555
Ca2 Sr3 3.801208 1_655
Ca2 Ca3 3.856368 1_655
Ca2 Ca3 3.856368 1_555
Ca2 Sr2 3.891053 1_555
Ca2 Sr1 3.952236 1_555
Ca2 Sr1 3.952236 1_655
Ca2 Sr0 3.986941 1_545
Ca3 Sn0 3.195434 1_555
Ca3 Sn0 3.195434 1_455
Ca3 Sn3 3.236986 1_555
Ca3 Sn1 3.270770 1_555
Ca3 Sr2 3.801208 1_455
Ca3 Sr2 3.801208 1_555
Ca3 Sr3 3.891053 1_555
Ca3 Sr0 3.952236 1_455
Ca3 Sr0 3.952236 1_555
Ca3 Sr1 3.986941 1_565
Sn0 Sr0 3.478285 1_555
Sn0 Sr1 3.616602 1_565
Sn0 Sr1 3.616602 1_665
Sn0 Sr3 3.739287 1_655
Sn0 Sr3 3.739287 1_555
Sn1 Sr1 3.478285 1_555
Sn1 Sr0 3.616602 1_545
Sn1 Sr0 3.616602 1_445
Sn1 Sr2 3.739287 1_455
Sn1 Sr2 3.739287 1_555
Sn2 Sr2 3.478285 1_556
Sn2 Sr3 3.616602 1_555
Sn2 Sr3 3.616602 1_655
Sn2 Sr1 3.739287 1_655
Sn2 Sr1 3.739287 1_555
Sn3 Sr3 3.478285 1_554
Sn3 Sr2 3.616602 1_455
Sn3 Sr2 3.616602 1_555
Sn3 Sr0 3.739287 1_455
Sn3 Sr0 3.739287 1_555
