# generated using pymatgen
data_Na6Ca2Si5Sn6S7O48
_symmetry_space_group_name_H-M   'P 1'
_cell_length_a   17.91043535
_cell_length_b   9.01307640
_cell_length_c   23.04590894
_cell_angle_alpha   89.87583674
_cell_angle_beta   90.07693652
_cell_angle_gamma   120.17930838
_symmetry_Int_Tables_number   1
_chemical_formula_structural   Na6Ca2Si5Sn6S7O48
_chemical_formula_sum   'Na18 Ca6 Si15 Sn18 S21 O144'
_cell_volume   3215.99299768
_cell_formula_units_Z   3
loop_
 _symmetry_equiv_pos_site_id
 _symmetry_equiv_pos_as_xyz
  1  'x, y, z'
loop_
 _atom_site_type_symbol
 _atom_site_label
 _atom_site_symmetry_multiplicity
 _atom_site_fract_x
 _atom_site_fract_y
 _atom_site_fract_z
 _atom_site_occupancy
  Na  Na0  1  0.66439125  0.35823724  0.58171433  1
  Na  Na1  1  0.51306690  0.67016180  0.58884064  1
  Na  Na2  1  0.82372438  0.97801962  0.58506971  1
  Na  Na3  1  0.16325633  0.97012171  0.08903217  1
  Na  Na4  1  0.31947916  0.66846096  0.09507034  1
  Na  Na5  1  0.01234207  0.35775577  0.09797325  1
  Na  Na6  1  0.01146325  0.97894159  0.49734836  1
  Na  Na7  1  0.48112229  0.01581704  0.50074608  1
  Na  Na8  1  0.98456903  0.95380006  0.00535287  1
  Na  Na9  1  0.50882810  0.01690160  0.00262515  1
  Na  Na10  1  0.32016550  0.30566800  0.82308845  1
  Na  Na11  1  0.82326492  0.33302645  0.83612925  1
  Na  Na12  1  0.31763222  0.31094714  0.33769258  1
  Na  Na13  1  0.83239099  0.34724067  0.32738812  1
  Na  Na14  1  0.16125671  0.66486426  0.15766537  1
  Na  Na15  1  0.68374132  0.70243619  0.17586084  1
  Na  Na16  1  0.18006723  0.66113137  0.66726828  1
  Na  Na17  1  0.66543688  0.66359521  0.64923248  1
  Ca  Ca0  1  0.32723178  0.31984774  0.68991600  1
  Ca  Ca1  1  0.83669636  0.33727237  0.68612047  1
  Ca  Ca2  1  0.33515276  0.33588547  0.18715624  1
  Ca  Ca3  1  0.82890206  0.33972385  0.19258696  1
  Ca  Ca4  1  0.16626351  0.66751220  0.01429806  1
  Ca  Ca5  1  0.66739427  0.66686347  0.51279297  1
  Si  Si0  1  0.64077160  0.98792822  0.25344367  1
  Si  Si1  1  0.85514189  0.72134877  0.25658760  1
  Si  Si2  1  0.14056385  0.29324101  0.75357392  1
  Si  Si3  1  0.35752315  -0.00715595  0.75743676  1
  Si  Si4  1  0.47543417  0.33144485  0.58283868  1
  Si  Si5  1  0.68444997  0.04678800  0.58391226  1
  Si  Si6  1  0.84024173  0.64668952  0.58765293  1
  Si  Si7  1  0.97471217  0.62131533  0.08239136  1
  Si  Si8  1  0.34279698  0.03981723  0.08397620  1
  Si  Si9  1  0.18231871  0.32293653  0.08390582  1
  Si  Si10  1  0.81443326  0.66896848  0.91302786  1
  Si  Si11  1  0.66723380  0.96758550  0.91649530  1
  Si  Si12  1  0.31366773  0.95692634  0.41251014  1
  Si  Si13  1  0.16858365  0.36938596  0.41647376  1
  Si  Si14  1  0.01453760  0.65546911  0.41768675  1
  Sn  Sn0  1  0.00365802  0.99339491  0.35792299  1
  Sn  Sn1  1  0.49570430  0.99586562  0.35264776  1
  Sn  Sn2  1  0.99623162  0.99531734  0.85270864  1
  Sn  Sn3  1  0.50466545  0.00098324  0.85426312  1
  Sn  Sn4  1  0.00662812  0.00519397  0.64831866  1
  Sn  Sn5  1  0.49347863  0.00717554  0.64630593  1
  Sn  Sn6  1  0.99524951  0.98127294  0.15052012  1
  Sn  Sn7  1  0.50378512  0.00981236  0.15209577  1
  Sn  Sn8  1  0.32935104  0.31014340  0.98755410  1
  Sn  Sn9  1  0.83041490  0.34819554  0.97725160  1
  Sn  Sn10  1  0.32974515  0.30954638  0.47645032  1
  Sn  Sn11  1  0.83371056  0.35848340  0.48555915  1
  Sn  Sn12  1  0.67163618  0.68109013  0.01085910  1
  Sn  Sn13  1  0.16789984  0.66464724  0.50787709  1
  Sn  Sn14  1  0.16244987  0.65500079  0.32102063  1
  Sn  Sn15  1  0.67099129  0.68431512  0.31428844  1
  Sn  Sn16  1  0.17070759  0.65748100  0.81273895  1
  Sn  Sn17  1  0.67021240  0.68071791  0.81673064  1
  S  S0  1  0.14670796  0.97889649  0.25312986  1
  S  S1  1  0.34434207  0.71000991  0.25000482  1
  S  S2  1  0.01323576  0.29815065  0.25127220  1
  S  S3  1  0.50481489  0.30175352  0.25603758  1
  S  S4  1  0.64646383  0.31357382  0.75545559  1
  S  S5  1  0.00499606  0.70973244  0.75685261  1
  S  S6  1  0.51160851  0.71714451  0.75160607  1
  S  S7  1  0.84650265  0.98519005  0.75083633  1
  S  S8  1  0.99136663  0.34174337  0.58250424  1
  S  S9  1  0.18210970  0.01502981  0.58033589  1
  S  S10  1  0.32689573  0.62272039  0.58107983  1
  S  S11  1  0.48832412  0.63339148  0.07848569  1
  S  S12  1  0.82735100  0.03604558  0.08075523  1
  S  S13  1  0.68090154  0.34728618  0.07834747  1
  S  S14  1  0.32147756  0.64698870  0.91905723  1
  S  S15  1  0.01334823  0.36698564  0.91378077  1
  S  S16  1  0.51584821  0.37433666  0.91745506  1
  S  S17  1  0.17282031  0.97838941  0.91426941  1
  S  S18  1  0.81908953  0.98798406  0.41765933  1
  S  S19  1  0.66799708  0.36535481  0.41335408  1
  S  S20  1  0.51278884  0.65863838  0.41406155  1
  O  O0  1  0.09971680  -0.01394973  0.30434237  1
  O  O1  1  0.58727385  0.00657429  0.30715867  1
  O  O2  1  0.39317719  0.81597965  0.30068229  1
  O  O3  1  0.90514204  0.83654247  0.31277328  1
  O  O4  1  0.49235714  0.19396955  0.30761741  1
  O  O5  1  0.02144399  0.20535215  0.30152835  1
  O  O6  1  0.08913593  0.17306382  0.80934191  1
  O  O7  1  0.60238328  0.21386617  0.80915121  1
  O  O8  1  0.51793950  0.81860829  0.80472065  1
  O  O9  1  0.99234688  0.78827102  0.81006405  1
  O  O10  1  0.40657668  -0.00812618  0.81807570  1
  O  O11  1  0.89039192  -0.03086175  0.80353634  1
  O  O12  1  0.40115963  0.95183988  0.70100253  1
  O  O13  1  0.89151092  0.98468569  0.69633512  1
  O  O14  1  0.08920891  0.19956812  0.69213171  1
  O  O15  1  0.59953367  0.22343424  0.70164431  1
  O  O16  1  0.00706966  0.80572318  0.70348484  1
  O  O17  1  0.52211679  0.81690233  0.69735018  1
  O  O18  1  0.38759187  0.80108078  0.19385921  1
  O  O19  1  0.89280672  0.83500923  0.19570122  1
  O  O20  1  0.02107740  0.22142670  0.19448505  1
  O  O21  1  0.50859222  0.21488111  0.20127142  1
  O  O22  1  0.10211226  0.97720229  0.19727672  1
  O  O23  1  0.58977968  0.97663111  0.19029524  1
  O  O24  1  0.43682537  0.39362294  0.63342750  1
  O  O25  1  0.95712187  0.36305343  0.63693026  1
  O  O26  1  0.23039421  0.09401943  0.63234531  1
  O  O27  1  0.75138355  0.11342958  0.63670765  1
  O  O28  1  0.31002164  0.52665464  0.63451958  1
  O  O29  1  0.82658470  0.53394857  0.64383195  1
  O  O30  1  0.45368996  0.54283174  0.13236646  1
  O  O31  1  0.93391895  0.47322039  0.13012986  1
  O  O32  1  0.32866212  0.13395362  0.13695097  1
  O  O33  1  0.81074419  0.10112244  0.13314505  1
  O  O34  1  0.25599960  0.39389094  0.13249718  1
  O  O35  1  0.73307171  0.37857522  0.12931582  1
  O  O36  1  0.22046389  0.26290534  0.02591297  1
  O  O37  1  0.71751007  0.32033112  0.02356144  1
  O  O38  1  0.43109321  0.54674170  0.02654558  1
  O  O39  1  0.92386544  0.54052310  0.01837238  1
  O  O40  1  0.36592669  0.15596473  0.02214825  1
  O  O41  1  0.82961442  0.12959225  0.02654556  1
  O  O42  1  0.21981344  0.11473018  0.52579303  1
  O  O43  1  0.72680502  0.18757850  0.52787832  1
  O  O44  1  0.33264222  0.53394763  0.52835265  1
  O  O45  1  0.85992198  0.56983282  0.52803880  1
  O  O46  1  0.42504442  0.31965883  0.51992496  1
  O  O47  1  0.93354805  0.31444756  0.53173466  1
  O  O48  1  0.28723873  0.66880102  0.97334965  1
  O  O49  1  0.77100777  0.69339461  0.97157722  1
  O  O50  1  0.05576008  0.43270189  0.96866806  1
  O  O51  1  0.56917895  0.45595770  0.96992251  1
  O  O52  1  0.16873497  0.90066260  0.97007372  1
  O  O53  1  0.64299155  0.83929332  0.97164102  1
  O  O54  1  0.27359420  0.85151173  0.47249953  1
  O  O55  1  0.78837092  0.89266740  0.47192468  1
  O  O56  1  0.15097632  0.45005817  0.47402826  1
  O  O57  1  0.66279637  0.43376407  0.46932975  1
  O  O58  1  0.07328972  0.68852645  0.47548329  1
  O  O59  1  0.55468859  0.67627979  0.46931932  1
  O  O60  1  0.05730428  0.62719454  0.35887513  1
  O  O61  1  0.56270512  0.64310122  0.36462326  1
  O  O62  1  0.25732065  0.86793956  0.35458296  1
  O  O63  1  0.76120474  0.88890131  0.36751251  1
  O  O64  1  0.18827477  0.48786429  0.35868971  1
  O  O65  1  0.66984227  0.47437857  0.36367986  1
  O  O66  1  0.06307336  0.48328376  0.86400488  1
  O  O67  1  0.55636286  0.47558376  0.86399388  1
  O  O68  1  0.17622284  0.87642804  0.86423554  1
  O  O69  1  0.68046024  0.88212026  0.85799444  1
  O  O70  1  0.26501645  0.62667321  0.86803543  1
  O  O71  1  0.75549599  0.64213060  0.85583119  1
  O  O72  1  -0.00012088  0.82126413  0.41426344  1
  O  O73  1  0.50409400  0.81424502  0.40700541  1
  O  O74  1  0.41244059  0.98175196  0.41060094  1
  O  O75  1  0.90875077  0.02595758  0.40789579  1
  O  O76  1  0.08591259  0.17365610  0.41074088  1
  O  O77  1  0.58948349  0.19041427  0.40893552  1
  O  O78  1  0.00355901  0.19330635  0.90659146  1
  O  O79  1  0.50504445  0.19955019  0.91473510  1
  O  O80  1  0.09579523  0.00069127  0.90954847  1
  O  O81  1  0.58591802  0.00702234  0.91249827  1
  O  O82  1  0.41043702  0.79803354  0.91148224  1
  O  O83  1  0.91284437  0.84090236  0.91118692  1
  O  O84  1  0.46766504  0.13983880  0.58820497  1
  O  O85  1  0.99853808  0.18143957  0.58369109  1
  O  O86  1  0.09306404  -0.00580088  0.58376099  1
  O  O87  1  0.59083127  0.04632439  0.59464895  1
  O  O88  1  0.41419633  0.78906093  0.58417543  1
  O  O89  1  0.92482876  0.84941004  0.59159366  1
  O  O90  1  0.49848425  0.80918384  0.07964906  1
  O  O91  1  0.96977244  0.79942675  0.09054420  1
  O  O92  1  0.42632590  0.00225705  0.09085473  1
  O  O93  1  0.91279946  0.04056301  0.08306987  1
  O  O94  1  0.08947259  0.13881518  0.09588542  1
  O  O95  1  0.59335832  0.18807671  0.08431525  1
  O  O96  1  0.34896876  0.15902638  0.75294731  1
  O  O97  1  0.83821729  0.13680267  0.75611444  1
  O  O98  1  0.23796818  0.33732035  0.75370680  1
  O  O99  1  0.73473798  0.34612814  0.75625531  1
  O  O100  1  0.43370560  0.55219733  0.75339039  1
  O  O101  1  0.93585441  0.53172558  0.75603191  1
  O  O102  1  0.33869037  0.54348463  0.25372292  1
  O  O103  1  0.84968433  0.53994214  0.25464386  1
  O  O104  1  0.43472991  0.33839866  0.25476986  1
  O  O105  1  0.93490945  0.30639507  0.25297900  1
  O  O106  1  0.23413023  0.12628266  0.25417863  1
  O  O107  1  0.73811039  0.13856862  0.25371448  1
  O  O108  1  0.32977465  0.48879858  0.92052505  1
  O  O109  1  0.82438716  0.49969560  0.91559803  1
  O  O110  1  0.43051932  0.36248968  0.92242937  1
  O  O111  1  0.92577038  0.34709291  0.91113698  1
  O  O112  1  0.25394755  0.15296725  0.91131872  1
  O  O113  1  0.75379479  0.15428461  0.92491447  1
  O  O114  1  0.32665326  0.14919452  0.41543094  1
  O  O115  1  0.81873071  0.15226101  0.41987630  1
  O  O116  1  0.25372298  0.34719836  0.42403863  1
  O  O117  1  0.74723694  0.35130910  0.41016184  1
  O  O118  1  0.42533894  0.50437196  0.41110866  1
  O  O119  1  0.91888165  0.48255620  0.42362574  1
  O  O120  1  0.15613834  0.46594225  0.07176156  1
  O  O121  1  0.66503522  0.49472098  0.07029258  1
  O  O122  1  0.07637500  0.68304960  0.07556816  1
  O  O123  1  0.57452289  0.64758118  0.07056077  1
  O  O124  1  0.26153158  0.84888042  0.07607409  1
  O  O125  1  0.75539478  0.85020146  0.07555595  1
  O  O126  1  0.17160073  0.84000771  0.57538596  1
  O  O127  1  0.65812115  0.85316524  0.56886493  1
  O  O128  1  0.25716527  0.66766050  0.57434278  1
  O  O129  1  0.75966543  0.67735684  0.57828963  1
  O  O130  1  0.07942074  0.49371686  0.57495406  1
  O  O131  1  0.57664811  0.47239094  0.57514032  1
  O  O132  1  0.14688114  0.81217589  0.25266251  1
  O  O133  1  0.63018621  0.79414976  0.25692724  1
  O  O134  1  0.25801450  0.69641934  0.24891949  1
  O  O135  1  0.75790186  0.70327828  0.25850142  1
  O  O136  1  0.09261379  0.47613024  0.25078629  1
  O  O137  1  0.59077473  0.46172593  0.25918790  1
  O  O138  1  0.13032963  0.46692162  0.75601773  1
  O  O139  1  0.64326092  0.47713694  0.75659992  1
  O  O140  1  0.09193159  0.72442864  0.75978558  1
  O  O141  1  0.59053395  0.69617287  0.75257232  1
  O  O142  1  0.26182769  0.81285181  0.75977224  1
  O  O143  1  0.75937972  0.82367782  0.74795920  1
loop_
_geom_bond_atom_site_label_1
_geom_bond_atom_site_label_2
_geom_bond_distance
_geom_bond_site_symmetry_2
Na0 O131 2.274983 1_555
Na0 O87 2.449801 1_555
Na0 O129 2.501121 1_555
Na0 O43 2.625953 1_555
Na0 O57 2.680307 1_555
Na1 O127 2.318101 1_555
Na1 O24 2.388222 1_555
Na1 O88 2.490527 1_555
Na1 O131 2.572576 1_555
Na1 O17 2.797627 1_555
Na1 O59 2.847706 1_555
Na2 O129 2.357900 1_555
Na2 O27 2.486915 1_565
Na2 O89 2.598901 1_555
Na2 O127 2.616518 1_555
Na2 O55 2.703047 1_555
Na2 O85 2.719201 1_565
Na2 O13 2.823432 1_555
Na2 O47 2.927123 1_565
Na3 O122 2.272992 1_555
Na3 O94 2.470793 1_565
Na3 O124 2.513582 1_555
Na3 O36 2.719999 1_565
Na3 O22 2.739461 1_555
Na3 O32 2.788624 1_565
Na3 O52 2.826187 1_554
Na4 O34 2.307678 1_555
Na4 O124 2.367632 1_555
Na4 O18 2.576530 1_555
Na4 O120 2.609608 1_555
Na4 O92 2.633162 1_565
Na4 O90 2.815407 1_555
Na4 O48 2.863526 1_554
Na5 O31 2.254089 1_455
Na5 O120 2.329247 1_555
Na5 O93 2.519480 1_455
Na5 O20 2.581060 1_555
Na5 O122 2.606199 1_555
Na5 O94 2.923373 1_555
Na6 O72 2.333098 1_555
Na6 O86 2.431484 1_565
Na6 O76 2.545768 1_565
Na6 O89 2.581632 1_455
Na6 O85 2.790332 1_465
Na6 O75 2.929752 1_465
Na7 O74 2.353623 1_545
Na7 O84 2.377411 1_555
Na7 O88 2.614706 1_545
Na7 O77 2.765113 1_555
Na7 O87 2.840379 1_555
Na7 O73 2.984623 1_545
Na8 O91 2.340851 1_555
Na8 O83 2.466375 1_554
Na8 O93 2.548457 1_565
Na8 O94 2.741977 1_665
Na8 O80 2.860632 1_664
Na9 O95 2.423461 1_555
Na9 O92 2.479136 1_555
Na9 O90 2.515562 1_545
Na9 O81 2.522018 1_554
Na9 O79 2.629576 1_554
Na9 O82 2.814562 1_544
Na10 O98 2.284597 1_555
Na10 O96 2.307160 1_555
Na10 O112 2.405932 1_555
Na10 O100 2.665131 1_555
Na10 O108 2.743311 1_555
Na10 O110 2.895747 1_555
Na11 O109 2.364872 1_555
Na11 O99 2.468972 1_555
Na11 O111 2.476530 1_555
Na11 O113 2.511450 1_555
Na11 O101 2.654394 1_555
Na11 O97 2.663013 1_555
Na12 O114 2.363457 1_555
Na12 O116 2.400356 1_555
Na12 O106 2.492925 1_555
Na12 O118 2.499203 1_555
Na12 O102 2.733021 1_555
Na12 O104 2.756590 1_555
Na13 O103 2.317529 1_555
Na13 O117 2.455745 1_555
Na13 O107 2.466687 1_555
Na13 O119 2.628518 1_555
Na13 O105 2.671784 1_555
Na13 O115 2.691516 1_555
Na14 O122 2.481779 1_555
Na14 O124 2.552000 1_555
Na14 O136 2.626650 1_555
Na14 O132 2.641968 1_555
Na14 O120 2.644215 1_555
Na14 O134 2.646527 1_555
Na15 O135 2.318331 1_555
Na15 O133 2.429486 1_555
Na15 O125 2.653390 1_555
Na15 O137 2.743288 1_555
Na15 O121 2.987174 1_555
Na15 O123 2.996678 1_555
Na16 O128 2.534202 1_555
Na16 O138 2.542139 1_555
Na16 O142 2.559297 1_555
Na16 O130 2.705784 1_555
Na16 O126 2.708554 1_555
Na16 O140 2.878035 1_555
Na17 O129 2.309271 1_555
Na17 O131 2.380020 1_555
Na17 O127 2.564697 1_555
Na17 O143 2.766346 1_555
Na17 O141 2.822311 1_555
Na17 O139 2.901399 1_555
Ca0 O24 2.163472 1_555
Ca0 O96 2.217976 1_555
Ca0 O98 2.236627 1_555
Ca0 O26 2.316796 1_555
Ca0 O28 2.401154 1_555
Ca0 O100 2.480454 1_555
Ca1 O29 2.107066 1_555
Ca1 O27 2.146565 1_555
Ca1 O25 2.343661 1_555
Ca1 O101 2.386779 1_555
Ca1 O97 2.429854 1_555
Ca1 O99 2.471560 1_555
Ca2 O32 2.112052 1_555
Ca2 O34 2.146486 1_555
Ca2 O104 2.358260 1_555
Ca2 O30 2.365661 1_555
Ca2 O102 2.398223 1_555
Ca2 O106 2.405547 1_555
Ca3 O103 2.185140 1_555
Ca3 O31 2.186711 1_555
Ca3 O107 2.224139 1_555
Ca3 O35 2.406250 1_555
Ca3 O33 2.432193 1_555
Ca3 O105 2.489310 1_555
Ca4 O120 2.178591 1_555
Ca4 O124 2.193106 1_555
Ca4 O122 2.199768 1_555
Ca4 O50 2.301012 1_554
Ca4 O52 2.313853 1_554
Ca4 O48 2.359131 1_554
Ca5 O127 2.192571 1_555
Ca5 O129 2.203461 1_555
Ca5 O131 2.215750 1_555
Ca5 O59 2.291770 1_555
Ca5 O57 2.293249 1_555
Ca5 O55 2.299436 1_555
O0 S0 1.470722 1_545
O0 Sn0 2.147016 1_545
O1 Si0 1.626266 1_545
O1 Sn1 1.908696 1_545
O2 S1 1.484402 1_555
O2 Sn1 2.108098 1_555
O3 Si1 1.620019 1_555
O3 Sn0 1.920441 1_655
O4 S3 1.477945 1_555
O4 Sn1 2.089994 1_545
O5 S2 1.477015 1_555
O5 Sn0 2.195149 1_545
O6 Si2 1.633251 1_555
O6 Sn2 1.910891 1_445
O7 S4 1.498900 1_555
O7 Sn3 2.108419 1_555
O8 S6 1.499249 1_555
O8 Sn3 2.112779 1_565
O9 S5 1.490633 1_655
O9 Sn2 2.080948 1_555
O10 Si3 1.652055 1_555
O10 Sn3 1.907873 1_555
O11 S7 1.491617 1_545
O11 Sn2 2.116360 1_545
O12 Si3 1.653518 1_565
O12 Sn5 1.935306 1_565
O13 S7 1.494619 1_555
O13 Sn4 2.265343 1_665
O14 Si2 1.668764 1_555
O14 Sn4 1.916967 1_555
O15 S4 1.489787 1_555
O15 Sn5 2.305545 1_555
O16 S5 1.491906 1_555
O16 Sn4 2.202956 1_565
O17 S6 1.494292 1_555
O17 Sn5 2.337090 1_565
O18 S1 1.518835 1_555
O18 Sn7 2.204028 1_565
O19 Si1 1.665818 1_555
O19 Sn6 1.937996 1_555
O20 S2 1.520761 1_555
O20 Sn6 2.219750 1_445
O21 S3 1.506123 1_555
O21 Sn7 2.134669 1_555
O22 S0 1.510003 1_555
O22 Sn6 2.211467 1_455
O23 Si0 1.692919 1_555
O23 Sn7 1.922236 1_565
O24 Si4 1.595652 1_555
O25 S8 1.451857 1_555
O26 S9 1.439889 1_555
O27 Si5 1.598003 1_555
O28 S10 1.446054 1_555
O29 Si6 1.585518 1_555
O30 S11 1.442749 1_555
O31 Si7 1.594099 1_555
O32 Si8 1.579788 1_555
O33 S12 1.438639 1_555
O34 Si9 1.598475 1_555
O35 S13 1.437318 1_555
O36 Si9 1.709672 1_555
O36 Sn8 1.983501 1_554
O37 S13 1.498928 1_555
O37 Sn9 2.187537 1_554
O38 S11 1.513055 1_555
O38 Sn8 2.184601 1_554
O39 Si7 1.694298 1_555
O39 Sn9 1.946831 1_554
O40 Si8 1.690234 1_555
O40 Sn8 1.976071 1_554
O41 S12 1.494830 1_555
O41 Sn9 2.265995 1_554
O42 S9 1.493590 1_555
O42 Sn10 2.185027 1_555
O43 Si5 1.697351 1_555
O43 Sn11 2.005803 1_555
O44 S10 1.488188 1_555
O44 Sn10 2.330006 1_555
O45 Si6 1.656053 1_555
O45 Sn11 1.978687 1_555
O46 Si4 1.681897 1_555
O46 Sn10 1.940327 1_555
O47 S8 1.497906 1_555
O47 Sn11 2.279032 1_555
O48 S14 1.450720 1_555
O49 Si10 1.627983 1_555
O49 Sn12 1.950624 1_556
O50 S15 1.440898 1_555
O51 S16 1.486569 1_555
O51 Sn12 2.152851 1_556
O52 S17 1.447376 1_555
O53 Si11 1.622051 1_555
O53 Sn12 1.960088 1_556
O54 Si12 1.624973 1_555
O54 Sn13 1.969148 1_555
O55 S18 1.458323 1_555
O56 Si13 1.619660 1_555
O56 Sn13 1.964091 1_555
O57 S19 1.454127 1_555
O58 Si14 1.628787 1_555
O58 Sn13 1.958977 1_555
O59 S20 1.445165 1_555
O60 Si14 1.639883 1_555
O60 Sn14 1.974657 1_555
O61 S20 1.498769 1_555
O61 Sn15 2.127187 1_555
O62 Si12 1.622085 1_555
O62 Sn14 1.973081 1_555
O63 S18 1.509416 1_555
O63 Sn15 2.127050 1_555
O64 Si13 1.629274 1_555
O64 Sn14 1.982586 1_555
O65 S19 1.496592 1_555
O65 Sn15 2.197267 1_555
O66 S15 1.505574 1_555
O66 Sn16 2.128904 1_555
O67 S16 1.486281 1_555
O67 Sn17 2.229230 1_555
O68 S17 1.496302 1_555
O68 Sn16 2.264138 1_555
O69 Si11 1.629715 1_555
O69 Sn17 1.976157 1_555
O70 S14 1.500107 1_555
O70 Sn16 2.240187 1_555
O71 Si10 1.628259 1_555
O71 Sn17 1.948119 1_555
O72 Si14 1.643785 1_555
O72 Sn0 1.995828 1_555
O73 S20 1.495400 1_555
O73 Sn1 2.123545 1_555
O74 Si12 1.668466 1_555
O74 Sn1 1.959028 1_555
O75 S18 1.481429 1_545
O75 Sn0 2.193218 1_645
O76 Si13 1.642023 1_555
O76 Sn0 1.972042 1_545
O77 S19 1.498334 1_555
O77 Sn1 2.149754 1_545
O78 S15 1.494564 1_555
O78 Sn2 2.125406 1_445
O79 S16 1.488978 1_555
O79 Sn3 2.268005 1_555
O80 S17 1.494561 1_545
O80 Sn2 2.192103 1_445
O81 Si11 1.666105 1_545
O81 Sn3 1.958924 1_555
O82 S14 1.497105 1_555
O82 Sn3 2.196545 1_565
O83 Si10 1.662426 1_555
O83 Sn2 1.972616 1_555
O84 Si4 1.665702 1_555
O84 Sn5 1.995885 1_555
O85 S8 1.513666 1_555
O85 Sn4 2.232325 1_655
O86 S9 1.511369 1_555
O86 Sn4 2.186558 1_555
O87 Si5 1.693164 1_555
O87 Sn5 1.991776 1_555
O88 S10 1.530000 1_555
O88 Sn5 2.265249 1_565
O89 Si6 1.690897 1_555
O89 Sn4 1.939446 1_665
O90 S11 1.501512 1_555
O90 Sn7 2.430330 1_565
O91 Si7 1.662639 1_555
O91 Sn6 2.015238 1_555
O92 Si8 1.698882 1_555
O92 Sn7 1.954844 1_555
O93 S12 1.511233 1_555
O93 Sn6 2.380384 1_545
O94 Si9 1.679327 1_555
O94 Sn6 2.009531 1_445
O95 S13 1.508003 1_555
O95 Sn7 2.235974 1_555
O96 Si3 1.583553 1_555
O97 S7 1.452163 1_545
O98 Si2 1.582549 1_555
O99 S4 1.455891 1_555
O100 S6 1.439802 1_555
O101 S5 1.452740 1_655
O102 S1 1.454998 1_555
O103 Si1 1.588871 1_555
O104 S3 1.449930 1_555
O105 S2 1.442237 1_655
O106 S0 1.457970 1_545
O107 Si0 1.582086 1_545
O108 S14 1.506279 1_555
O108 Sn8 2.226233 1_555
O109 Si10 1.623578 1_555
O109 Sn9 2.008592 1_555
O110 S16 1.482067 1_555
O110 Sn8 2.214298 1_555
O111 S15 1.487705 1_655
O111 Sn9 2.294030 1_555
O112 S17 1.514221 1_545
O112 Sn8 2.235701 1_555
O113 Si11 1.628026 1_545
O113 Sn9 1.996467 1_555
O114 Si12 1.630001 1_545
O114 Sn10 1.999379 1_555
O115 S18 1.484872 1_545
O115 Sn11 2.308206 1_555
O116 Si13 1.643588 1_555
O116 Sn10 1.971404 1_555
O117 S19 1.488820 1_555
O117 Sn11 2.305368 1_555
O118 S20 1.483794 1_555
O118 Sn10 2.292416 1_555
O119 Si14 1.642551 1_655
O119 Sn11 1.974482 1_555
O120 Si9 1.601641 1_555
O121 S13 1.503159 1_555
O121 Sn12 2.121895 1_555
O122 Si7 1.622189 1_455
O123 S11 1.495108 1_555
O123 Sn12 2.118026 1_555
O124 Si8 1.611058 1_565
O125 S12 1.520210 1_565
O125 Sn12 2.121713 1_555
O126 S9 1.496364 1_565
O126 Sn13 2.197286 1_555
O127 Si5 1.600911 1_565
O128 S10 1.501913 1_555
O128 Sn13 2.202972 1_555
O129 Si6 1.614196 1_555
O130 S8 1.490464 1_455
O130 Sn13 2.194546 1_555
O131 Si4 1.617407 1_555
O132 S0 1.504289 1_555
O132 Sn14 2.225468 1_555
O133 Si0 1.661116 1_555
O133 Sn15 1.995192 1_555
O134 S1 1.488538 1_555
O134 Sn14 2.278709 1_555
O135 Si1 1.666332 1_555
O135 Sn15 1.960126 1_555
O136 S2 1.517112 1_555
O136 Sn14 2.182191 1_555
O137 S3 1.490901 1_555
O137 Sn15 2.193106 1_555
O138 Si2 1.666174 1_555
O138 Sn16 1.984948 1_555
O139 S4 1.504151 1_555
O139 Sn17 2.153808 1_555
O140 S5 1.496303 1_555
O140 Sn16 2.166147 1_555
O141 S6 1.517563 1_555
O141 Sn17 2.106056 1_555
O142 Si3 1.666319 1_565
O142 Sn16 1.953112 1_555
O143 S7 1.508217 1_555
O143 Sn17 2.156774 1_555
