# generated using pymatgen
data_LiTi2(PO4)3
_symmetry_space_group_name_H-M   'P 1'
_cell_length_a   8.70179300
_cell_length_b   8.60881000
_cell_length_c   14.73069005
_cell_angle_alpha   54.90698888
_cell_angle_beta   90.00000000
_cell_angle_gamma   90.00000000
_symmetry_Int_Tables_number   1
_chemical_formula_structural   LiTi2(PO4)3
_chemical_formula_sum   'Li4 Ti8 P12 O48'
_cell_volume   902.91106154
_cell_formula_units_Z   4
loop_
 _symmetry_equiv_pos_site_id
 _symmetry_equiv_pos_as_xyz
  1  'x, y, z'
loop_
 _atom_site_type_symbol
 _atom_site_label
 _atom_site_symmetry_multiplicity
 _atom_site_fract_x
 _atom_site_fract_y
 _atom_site_fract_z
 _atom_site_occupancy
  Li  Li0  1  0.21974600  0.02608700  0.17921900  1
  Li  Li1  1  0.71974600  0.97391300  0.32078100  1
  Li  Li2  1  0.28025400  0.02608700  0.67921900  1
  Li  Li3  1  0.78025400  0.97391300  0.82078100  1
  Ti  Ti0  1  0.47156500  0.62969600  0.62015500  1
  Ti  Ti1  1  0.97156500  0.37030400  0.87984500  1
  Ti  Ti2  1  0.04010600  0.85586200  0.39003600  1
  Ti  Ti3  1  0.54010600  0.14413800  0.10996400  1
  Ti  Ti4  1  0.45989400  0.85586200  0.89003600  1
  Ti  Ti5  1  0.95989400  0.14413800  0.60996400  1
  Ti  Ti6  1  0.02843500  0.62969600  0.12015500  1
  Ti  Ti7  1  0.52843500  0.37030400  0.37984500  1
  P  P0  1  0.74923600  0.53889000  0.49300800  1
  P  P1  1  0.61811900  0.25060900  0.85251700  1
  P  P2  1  0.89351000  0.96472600  0.14382700  1
  P  P3  1  0.11811900  0.74939100  0.64748300  1
  P  P4  1  0.39351000  0.03527400  0.35617300  1
  P  P5  1  0.24923600  0.46111000  0.00699200  1
  P  P6  1  0.75076400  0.53889000  0.99300800  1
  P  P7  1  0.60649000  0.96472600  0.64382700  1
  P  P8  1  0.88188100  0.25060900  0.35251700  1
  P  P9  1  0.10649000  0.03527400  0.85617300  1
  P  P10  1  0.38188100  0.74939100  0.14748300  1
  P  P11  1  0.25076400  0.46111000  0.50699200  1
  O  O0  1  0.13608200  0.62509100  0.43364200  1
  O  O1  1  0.10804200  0.20861200  0.86112100  1
  O  O2  1  0.32747400  0.48474200  0.59185200  1
  O  O3  1  0.40954900  0.91522500  0.15888700  1
  O  O4  1  0.63403400  0.54300800  0.57033400  1
  O  O5  1  0.79075400  0.29751100  0.83166000  1
  O  O6  1  0.57621500  0.18371200  0.97261800  1
  O  O7  1  0.01075900  0.93120200  0.23331800  1
  O  O8  1  0.83566900  0.73235600  0.42776800  1
  O  O9  1  0.73133100  0.99215100  0.17793400  1
  O  O10  1  0.94215000  0.14629400  0.03338500  1
  O  O11  1  0.51402600  0.41899200  0.77191200  1
  O  O12  1  0.01402600  0.58100800  0.72808800  1
  O  O13  1  0.44215000  0.85370600  0.46661500  1
  O  O14  1  0.23133100  0.00784900  0.32206600  1
  O  O15  1  0.33566900  0.26764400  0.07223200  1
  O  O16  1  0.51075900  0.06879800  0.26668200  1
  O  O17  1  0.07621500  0.81628800  0.52738200  1
  O  O18  1  0.29075400  0.70248900  0.66834000  1
  O  O19  1  0.13403400  0.45699200  0.92966600  1
  O  O20  1  0.82747400  0.51525800  0.90814800  1
  O  O21  1  0.60804200  0.79138800  0.63887900  1
  O  O22  1  0.90954900  0.08477500  0.34111300  1
  O  O23  1  0.63608200  0.37490900  0.06635800  1
  O  O24  1  0.36391800  0.62509100  0.93364200  1
  O  O25  1  0.09045100  0.91522500  0.65888700  1
  O  O26  1  0.39195800  0.20861200  0.36112100  1
  O  O27  1  0.17252600  0.48474200  0.09185200  1
  O  O28  1  0.86596600  0.54300800  0.07033400  1
  O  O29  1  0.70924600  0.29751100  0.33166000  1
  O  O30  1  0.92378500  0.18371200  0.47261800  1
  O  O31  1  0.48924100  0.93120200  0.73331800  1
  O  O32  1  0.66433100  0.73235600  0.92776800  1
  O  O33  1  0.76866900  0.99215100  0.67793400  1
  O  O34  1  0.55785000  0.14629400  0.53338500  1
  O  O35  1  0.98597400  0.41899200  0.27191200  1
  O  O36  1  0.48597400  0.58100800  0.22808800  1
  O  O37  1  0.05785000  0.85370600  0.96661500  1
  O  O38  1  0.26866900  0.00784900  0.82206600  1
  O  O39  1  0.16433100  0.26764400  0.57223200  1
  O  O40  1  0.98924100  0.06879800  0.76668200  1
  O  O41  1  0.42378500  0.81628800  0.02738200  1
  O  O42  1  0.20924600  0.70248900  0.16834000  1
  O  O43  1  0.36596600  0.45699200  0.42966600  1
  O  O44  1  0.59045100  0.08477500  0.84111300  1
  O  O45  1  0.67252600  0.51525800  0.40814800  1
  O  O46  1  0.89195800  0.79138800  0.13887900  1
  O  O47  1  0.86391800  0.37490900  0.56635800  1
loop_
_geom_bond_atom_site_label_1
_geom_bond_atom_site_label_2
_geom_bond_distance
_geom_bond_site_symmetry_2
Li0 O7 1.964943 1_545
Li0 O3 2.014224 1_545
Li0 O15 2.014304 1_555
Li0 O14 2.020580 1_555
Li1 O16 1.964943 1_565
Li1 O22 2.014224 1_565
Li1 O8 2.014304 1_555
Li1 O9 2.020580 1_555
Li2 O31 1.964943 1_545
Li2 O25 2.014224 1_545
Li2 O39 2.014304 1_555
Li2 O38 2.020580 1_555
Li3 O40 1.964943 1_565
Li3 O44 2.014224 1_565
Li3 O32 2.014304 1_555
Li3 O33 2.020580 1_555
O0 P11 1.549959 1_555
O0 Ti2 1.894633 1_555
O1 P9 1.535355 1_555
O1 Ti1 1.966088 1_455
O2 P11 1.530357 1_555
O2 Ti0 1.975192 1_555
O3 P10 1.549219 1_555
O3 Ti3 2.015097 1_565
O4 P0 1.533001 1_555
O4 Ti0 1.929776 1_555
O5 P1 1.539966 1_555
O5 Ti1 1.970655 1_555
O6 P1 1.556625 1_555
O6 Ti3 1.874995 1_556
O7 P2 1.557121 1_455
O7 Ti2 2.023297 1_555
O8 P0 1.556535 1_555
O8 Ti2 1.981070 1_655
O9 P2 1.560826 1_555
O9 Ti3 1.994255 1_565
O10 P2 1.531409 1_545
O10 Ti1 1.971006 1_554
O11 P1 1.533802 1_555
O11 Ti0 1.939520 1_555
O12 P3 1.533802 1_555
O12 Ti1 1.939520 1_455
O13 P4 1.531409 1_565
O13 Ti0 1.971006 1_555
O14 P4 1.560826 1_555
O14 Ti2 1.994255 1_545
O15 P5 1.556535 1_555
O15 Ti3 1.981070 1_555
O16 P4 1.557121 1_555
O16 Ti3 2.023297 1_555
O17 P3 1.556625 1_555
O17 Ti2 1.874995 1_555
O18 P3 1.539966 1_555
O18 Ti0 1.970655 1_555
O19 P5 1.533001 1_556
O19 Ti1 1.929776 1_455
O20 P6 1.530357 1_555
O20 Ti1 1.975192 1_555
O21 P7 1.535355 1_555
O21 Ti0 1.966088 1_555
O22 P8 1.549219 1_555
O22 Ti2 2.015097 1_645
O23 P6 1.549959 1_554
O23 Ti3 1.894633 1_555
O24 P5 1.549959 1_556
O24 Ti4 1.894633 1_555
O25 P3 1.549219 1_555
O25 Ti5 2.015097 1_465
O26 P4 1.535355 1_555
O26 Ti7 1.966088 1_555
O27 P5 1.530357 1_555
O27 Ti6 1.975192 1_555
O28 P6 1.533001 1_554
O28 Ti6 1.929776 1_655
O29 P8 1.539966 1_555
O29 Ti7 1.970655 1_555
O30 P8 1.556625 1_555
O30 Ti5 1.874995 1_555
O31 P7 1.557121 1_555
O31 Ti4 2.023297 1_555
O32 P6 1.556535 1_555
O32 Ti4 1.981070 1_555
O33 P7 1.560826 1_555
O33 Ti5 1.994255 1_565
O34 P7 1.531409 1_545
O34 Ti7 1.971006 1_555
O35 P8 1.533802 1_555
O35 Ti6 1.939520 1_655
O36 P10 1.533802 1_555
O36 Ti7 1.939520 1_555
O37 P9 1.531409 1_565
O37 Ti6 1.971006 1_556
O38 P9 1.560826 1_555
O38 Ti4 1.994255 1_545
O39 P11 1.556535 1_555
O39 Ti5 1.981070 1_455
O40 P9 1.557121 1_655
O40 Ti5 2.023297 1_555
O41 P10 1.556625 1_555
O41 Ti4 1.874995 1_554
O42 P10 1.539966 1_555
O42 Ti6 1.970655 1_555
O43 P11 1.533001 1_555
O43 Ti7 1.929776 1_555
O44 P1 1.549219 1_555
O44 Ti4 2.015097 1_545
O45 P0 1.530357 1_555
O45 Ti7 1.975192 1_555
O46 P2 1.535355 1_555
O46 Ti6 1.966088 1_655
O47 P0 1.549959 1_555
O47 Ti5 1.894633 1_555
