# generated using pymatgen
data_Th2BiN2
_symmetry_space_group_name_H-M   'P 1'
_cell_length_a   4.07224883
_cell_length_b   4.07224958
_cell_length_c   7.64469621
_cell_angle_alpha   105.44688297
_cell_angle_beta   105.44688768
_cell_angle_gamma   89.99999037
_symmetry_Int_Tables_number   1
_chemical_formula_structural   Th2BiN2
_chemical_formula_sum   'Th2 Bi1 N2'
_cell_volume   117.43650836
_cell_formula_units_Z   1
loop_
 _symmetry_equiv_pos_site_id
 _symmetry_equiv_pos_as_xyz
  1  'x, y, z'
loop_
 _atom_site_type_symbol
 _atom_site_label
 _atom_site_symmetry_multiplicity
 _atom_site_fract_x
 _atom_site_fract_y
 _atom_site_fract_z
 _atom_site_occupancy
  Th  Th0  1  0.33120171  0.33120171  0.66240442  1
  Th  Th1  1  0.66879829  0.66879829  0.33759558  1
  Bi  Bi0  1  -0.00000000  -0.00000000  -0.00000000  1
  N  N0  1  0.75000000  0.25000000  0.50000000  1
  N  N1  1  0.25000000  0.75000000  0.50000000  1
loop_
_geom_bond_atom_site_label_1
_geom_bond_atom_site_label_2
_geom_bond_distance
_geom_bond_site_symmetry_2
Bi0 Th1 3.742620 1_445
Bi0 Th0 3.742620 1_554
Bi0 Th1 3.742621 1_545
Bi0 Th0 3.742621 1_454
Bi0 Th1 3.742621 1_455
Bi0 Th0 3.742621 1_544
Bi0 Th0 3.742623 1_444
Bi0 Th1 3.742623 1_555
N0 Th0 2.338483 1_655
N0 Th1 2.338484 1_545
N0 Th0 2.338487 1_555
N0 Th1 2.338487 1_555
N1 Th1 2.338483 1_455
N1 Th0 2.338484 1_565
N1 Th1 2.338487 1_555
N1 Th0 2.338487 1_555
