# generated using pymatgen
data_Na6Zr2Zn6SiS11O48
_symmetry_space_group_name_H-M   'P 1'
_cell_length_a   17.66670498
_cell_length_b   8.85850557
_cell_length_c   22.82530495
_cell_angle_alpha   90.40153263
_cell_angle_beta   89.64812694
_cell_angle_gamma   120.11742782
_symmetry_Int_Tables_number   1
_chemical_formula_structural   Na6Zr2Zn6SiS11O48
_chemical_formula_sum   'Na18 Zr6 Zn18 Si3 S33 O144'
_cell_volume   3089.83626451
_cell_formula_units_Z   3
loop_
 _symmetry_equiv_pos_site_id
 _symmetry_equiv_pos_as_xyz
  1  'x, y, z'
loop_
 _atom_site_type_symbol
 _atom_site_label
 _atom_site_symmetry_multiplicity
 _atom_site_fract_x
 _atom_site_fract_y
 _atom_site_fract_z
 _atom_site_occupancy
  Na  Na0  1  0.68572149  0.36095313  0.23896819  1
  Na  Na1  1  0.99575631  0.63367157  0.25826222  1
  Na  Na2  1  0.33480502  0.96107332  0.59178182  1
  Na  Na3  1  0.83572411  0.96351007  0.59166056  1
  Na  Na4  1  0.33417840  0.69968971  0.08111143  1
  Na  Na5  1  0.34534964  0.66419660  0.41434278  1
  Na  Na6  1  0.01002882  0.99675668  0.49588509  1
  Na  Na7  1  0.51646679  0.02027431  0.50122938  1
  Na  Na8  1  0.00136532  0.99984598  0.99895083  1
  Na  Na9  1  0.51487963  0.02216172  0.00624612  1
  Na  Na10  1  0.33361167  0.32055568  0.84300045  1
  Na  Na11  1  0.83293585  0.32009510  0.84295975  1
  Na  Na12  1  0.32654140  0.31325577  0.32870019  1
  Na  Na13  1  0.83893738  0.33747308  0.33567601  1
  Na  Na14  1  0.17016937  0.67249315  0.16672830  1
  Na  Na15  1  0.66814685  0.67835630  0.15322589  1
  Na  Na16  1  0.16698867  0.66406536  0.67650746  1
  Na  Na17  1  0.66820297  0.66515720  0.67731350  1
  Zr  Zr0  1  0.99435735  0.00309952  0.85136960  1
  Zr  Zr1  1  0.49461176  0.00255562  0.85241528  1
  Zr  Zr2  1  0.99494062  0.99539682  0.14882782  1
  Zr  Zr3  1  0.33431209  0.33018522  0.68805980  1
  Zr  Zr4  1  0.83425092  0.33041445  0.68787147  1
  Zr  Zr5  1  0.66959497  0.67270255  0.31580236  1
  Zn  Zn0  1  0.99834597  0.98658818  0.34902276  1
  Zn  Zn1  1  0.49599384  0.00091295  0.34711118  1
  Zn  Zn2  1  0.99471972  0.99207291  0.65597118  1
  Zn  Zn3  1  0.49539250  0.99253730  0.65659957  1
  Zn  Zn4  1  0.50085147  0.00314118  0.15056163  1
  Zn  Zn5  1  0.33454262  0.33560929  0.17992618  1
  Zn  Zn6  1  0.83418867  0.34112475  0.17860680  1
  Zn  Zn7  1  0.33564904  0.32629850  0.98606316  1
  Zn  Zn8  1  0.82993348  0.33099208  0.98577813  1
  Zn  Zn9  1  0.32820306  0.32233240  0.48364528  1
  Zn  Zn10  1  0.83641923  0.34248570  0.48115552  1
  Zn  Zn11  1  0.16440109  0.67445205  0.01256466  1
  Zn  Zn12  1  0.66665148  0.66796118  0.01427560  1
  Zn  Zn13  1  0.16047686  0.65480760  0.51274288  1
  Zn  Zn14  1  0.66331115  0.65940709  0.51559538  1
  Zn  Zn15  1  0.17041503  0.66534433  0.31991288  1
  Zn  Zn16  1  0.17640209  0.68473645  0.81755409  1
  Zn  Zn17  1  0.67730848  0.68544220  0.81781684  1
  Si  Si0  1  0.85323364  0.69554770  0.25226846  1
  Si  Si1  1  0.34591965  0.98538673  0.74389023  1
  Si  Si2  1  0.84540341  0.98604504  0.74367626  1
  S  S0  1  0.15173801  0.00561747  0.25071159  1
  S  S1  1  0.64373057  -0.00094787  0.25039101  1
  S  S2  1  0.34967067  0.69880705  0.25038302  1
  S  S3  1  0.00237378  0.29936252  0.25264526  1
  S  S4  1  0.49544562  0.28973300  0.25117854  1
  S  S5  1  0.14456664  0.29549534  0.74853990  1
  S  S6  1  0.64444574  0.29530151  0.74864248  1
  S  S7  1  0.00303816  0.70909910  0.74875764  1
  S  S8  1  0.50314128  0.70924556  0.74884878  1
  S  S9  1  0.48322399  0.33820186  0.57948822  1
  S  S10  1  0.98340534  0.33714471  0.57969331  1
  S  S11  1  0.18181524  0.03451444  0.58185662  1
  S  S12  1  0.68364944  0.03848571  0.58048192  1
  S  S13  1  0.33377056  0.62981985  0.57773038  1
  S  S14  1  0.83306252  0.62887153  0.57967480  1
  S  S15  1  0.48184032  0.62866630  0.08388468  1
  S  S16  1  0.98497656  0.62819730  0.08324570  1
  S  S17  1  0.33312516  0.03519605  0.08391833  1
  S  S18  1  0.83103441  0.04219292  0.08297174  1
  S  S19  1  0.18792660  0.33814549  0.08222999  1
  S  S20  1  0.68168106  0.33424584  0.08454747  1
  S  S21  1  0.31316744  0.65730993  0.92004632  1
  S  S22  1  0.81244141  0.65739275  0.91874917  1
  S  S23  1  0.02091600  0.38233689  0.91681633  1
  S  S24  1  0.52129150  0.38293791  0.91649339  1
  S  S25  1  0.16890221  0.96819055  0.91796858  1
  S  S26  1  0.66885306  0.96493234  0.91860200  1
  S  S27  1  0.31575149  0.96542076  0.41840380  1
  S  S28  1  0.81680552  0.96936346  0.42223664  1
  S  S29  1  0.16576851  0.36474639  0.41664071  1
  S  S30  1  0.66482639  0.36451031  0.41693895  1
  S  S31  1  0.01820338  0.66687517  0.41560151  1
  S  S32  1  0.51616989  0.66760017  0.41915268  1
  O  O0  1  0.11530769  0.03411623  0.30472446  1
  O  O1  1  0.60363478  0.02923453  0.30302841  1
  O  O2  1  0.40038792  0.78002784  0.30537061  1
  O  O3  1  0.91689978  0.78140955  0.30689005  1
  O  O4  1  0.48446916  0.19027336  0.30501785  1
  O  O5  1  0.99552588  0.20021574  0.30524009  1
  O  O6  1  0.10527388  0.18240211  0.80126849  1
  O  O7  1  0.60462161  0.18176201  0.80125089  1
  O  O8  1  0.49332980  0.79829012  0.80156768  1
  O  O9  1  0.99350129  0.79855592  0.80152142  1
  O  O10  1  0.41208311  0.01190937  0.79976779  1
  O  O11  1  0.91156073  0.01298129  0.79960854  1
  O  O12  1  0.38670909  0.97298908  0.68166425  1
  O  O13  1  0.88644934  0.97299438  0.68179381  1
  O  O14  1  0.09694338  0.21056662  0.69470714  1
  O  O15  1  0.59691893  0.21079899  0.69463954  1
  O  O16  1  0.01660435  0.81086359  0.69523492  1
  O  O17  1  0.51666883  0.81053628  0.69513316  1
  O  O18  1  0.39311473  0.80485796  0.19729048  1
  O  O19  1  0.89816955  0.81779574  0.19340321  1
  O  O20  1  0.01257255  0.21144503  0.19838141  1
  O  O21  1  0.51674206  0.21621779  0.19945537  1
  O  O22  1  0.09329385  0.98616239  0.19898770  1
  O  O23  1  0.59226621  0.97133080  0.19694598  1
  O  O24  1  0.43710144  0.35099699  0.63407293  1
  O  O25  1  0.93687650  0.35116687  0.63417944  1
  O  O26  1  0.24125290  0.13185369  0.63360289  1
  O  O27  1  0.74141871  0.13330992  0.63320032  1
  O  O28  1  0.32829339  0.52296293  0.62974182  1
  O  O29  1  0.82698444  0.52687268  0.63337127  1
  O  O30  1  0.44235577  0.52754409  0.13794026  1
  O  O31  1  0.94677829  0.53772330  0.13932795  1
  O  O32  1  0.32342732  0.11734322  0.13746761  1
  O  O33  1  0.82378461  0.12566911  0.13723381  1
  O  O34  1  0.24104586  0.36359043  0.13526991  1
  O  O35  1  0.72825372  0.35143278  0.14095381  1
  O  O36  1  0.22695749  0.31079894  0.02888369  1
  O  O37  1  0.72773187  0.31392693  0.03375300  1
  O  O38  1  0.42541717  0.54385568  0.03192372  1
  O  O39  1  0.92934071  0.54331585  0.03213411  1
  O  O40  1  0.34315426  0.13468000  0.03005929  1
  O  O41  1  0.84331858  0.14420326  0.02979749  1
  O  O42  1  0.22099983  0.13691108  0.52836908  1
  O  O43  1  0.72467871  0.14160596  0.52761962  1
  O  O44  1  0.33867436  0.54559286  0.52257465  1
  O  O45  1  0.83732550  0.53978533  0.52638473  1
  O  O46  1  0.42749999  0.31377219  0.52829922  1
  O  O47  1  0.92711397  0.30986782  0.52858125  1
  O  O48  1  0.27791664  0.68558765  0.97577074  1
  O  O49  1  0.77522044  0.68821882  0.97222385  1
  O  O50  1  0.07098075  0.45690666  0.97110209  1
  O  O51  1  0.57008267  0.45794539  0.97099368  1
  O  O52  1  0.15486456  0.86654248  0.97205426  1
  O  O53  1  0.65582995  0.86161539  0.97191000  1
  O  O54  1  0.27598294  0.86114635  0.47279807  1
  O  O55  1  0.77462197  0.86939663  0.47606587  1
  O  O56  1  0.15632678  0.44570058  0.47122245  1
  O  O57  1  0.65482532  0.45132937  0.46919699  1
  O  O58  1  0.07110882  0.68124215  0.46758227  1
  O  O59  1  0.56800657  0.68770991  0.47178606  1
  O  O60  1  0.05850340  0.65099859  0.35956155  1
  O  O61  1  0.56192946  0.65231581  0.36564100  1
  O  O62  1  0.26222969  0.87896169  0.36596104  1
  O  O63  1  0.75986545  0.86566199  0.36985288  1
  O  O64  1  0.18197615  0.48031831  0.36526343  1
  O  O65  1  0.67128075  0.47044098  0.36262117  1
  O  O66  1  0.06438604  0.48166342  0.86399012  1
  O  O67  1  0.56465209  0.48194845  0.86367759  1
  O  O68  1  0.17742610  0.88360499  0.86487726  1
  O  O69  1  0.67762899  0.88321597  0.86477644  1
  O  O70  1  0.25988200  0.63966978  0.86882317  1
  O  O71  1  0.76266127  0.63737775  0.86529897  1
  O  O72  1  0.01053046  0.82624522  0.41523724  1
  O  O73  1  0.50536448  0.82329930  0.41371482  1
  O  O74  1  0.40302641  0.97449348  0.41295077  1
  O  O75  1  0.90395333  0.98919353  0.41555327  1
  O  O76  1  0.08819501  0.18970640  0.41008754  1
  O  O77  1  0.58610415  0.19000514  0.41137151  1
  O  O78  1  0.01178684  0.20012990  0.91179656  1
  O  O79  1  0.51255509  0.20129326  0.91177236  1
  O  O80  1  0.08933740  0.98909364  0.91212785  1
  O  O81  1  0.58896397  0.98557273  0.91322029  1
  O  O82  1  0.40373892  0.82004384  0.91310122  1
  O  O83  1  0.90392558  0.81984966  0.91254965  1
  O  O84  1  0.49177105  0.18064365  0.58361536  1
  O  O85  1  0.99235241  0.18046957  0.58472250  1
  O  O86  1  0.09446564  0.01213387  0.59061319  1
  O  O87  1  0.59592052  0.01595030  0.58866162  1
  O  O88  1  0.41364256  0.80549062  0.58103660  1
  O  O89  1  0.91294762  0.80460541  0.58217797  1
  O  O90  1  0.48686739  0.80360174  0.08842201  1
  O  O91  1  0.99586710  0.81089893  0.08713670  1
  O  O92  1  0.41163219  0.01078304  0.08785459  1
  O  O93  1  0.91350890  0.02662061  0.08731641  1
  O  O94  1  0.09805615  0.18126131  0.08870998  1
  O  O95  1  0.59291820  0.17419886  0.08728822  1
  O  O96  1  0.34211598  0.17078492  0.74358485  1
  O  O97  1  0.84155004  0.17095192  0.74378253  1
  O  O98  1  0.23557653  0.32027688  0.74442197  1
  O  O99  1  0.73525506  0.31963084  0.74473560  1
  O  O100  1  0.41705900  0.53917341  0.74465443  1
  O  O101  1  0.91723339  0.53908074  0.74482932  1
  O  O102  1  0.34038807  0.52263728  0.24563803  1
  O  O103  1  0.83852714  0.49992530  0.24329141  1
  O  O104  1  0.41962755  0.31326097  0.24402781  1
  O  O105  1  0.92299658  0.31460710  0.24628076  1
  O  O106  1  0.24036604  0.15479602  0.24160709  1
  O  O107  1  0.73320417  0.14954659  0.24525839  1
  O  O108  1  0.32603246  0.50550942  0.92329436  1
  O  O109  1  0.82551484  0.50555484  0.92381021  1
  O  O110  1  0.43101460  0.35341212  0.92031429  1
  O  O111  1  0.93108075  0.35388951  0.92115029  1
  O  O112  1  0.24752050  0.14514934  0.92249323  1
  O  O113  1  0.74706928  0.14301277  0.92312558  1
  O  O114  1  0.32846344  0.14352628  0.42243429  1
  O  O115  1  0.81923412  0.13839054  0.42083195  1
  O  O116  1  0.24804607  0.35310587  0.42012739  1
  O  O117  1  0.74560375  0.35458778  0.41770644  1
  O  O118  1  0.42774943  0.50926962  0.42010148  1
  O  O119  1  0.92955572  0.50711050  0.41885224  1
  O  O120  1  0.17958337  0.49693661  0.07782632  1
  O  O121  1  0.67305289  0.49219741  0.07919055  1
  O  O122  1  0.07334782  0.65059004  0.07813403  1
  O  O123  1  0.57075828  0.65351641  0.07741745  1
  O  O124  1  0.25476918  0.85400551  0.07982268  1
  O  O125  1  0.75542982  0.86345709  0.07894175  1
  O  O126  1  0.18118915  0.86596065  0.57958858  1
  O  O127  1  0.68182745  0.86820501  0.57907763  1
  O  O128  1  0.25477857  0.65028781  0.57855554  1
  O  O129  1  0.75402735  0.65008979  0.57969814  1
  O  O130  1  0.06908716  0.49958441  0.57776403  1
  O  O131  1  0.56914497  0.49985986  0.57767874  1
  O  O132  1  0.15149864  0.83670272  0.25202481  1
  O  O133  1  0.65089912  0.83740214  0.25816053  1
  O  O134  1  0.26164030  0.68383233  0.25460447  1
  O  O135  1  0.75421988  0.67277932  0.25750666  1
  O  O136  1  0.08013856  0.47984104  0.25342324  1
  O  O137  1  0.57719061  0.46897526  0.25853805  1
  O  O138  1  0.15095368  0.46461621  0.75653665  1
  O  O139  1  0.65072118  0.46436463  0.75652529  1
  O  O140  1  0.07348024  0.67104079  0.75612506  1
  O  O141  1  0.57330618  0.67069903  0.75617374  1
  O  O142  1  0.25079334  0.81935060  0.75307207  1
  O  O143  1  0.75049134  0.82008220  0.75309528  1
loop_
_geom_bond_atom_site_label_1
_geom_bond_atom_site_label_2
_geom_bond_distance
_geom_bond_site_symmetry_2
Na0 O103 2.340806 1_555
Na0 O35 2.370047 1_555
Na0 O107 2.411074 1_555
Na0 O135 2.430870 1_555
Na0 O137 2.572225 1_555
Na0 O21 2.746828 1_555
Na1 O132 2.420361 1_655
Na1 O103 2.437113 1_555
Na1 O105 2.462370 1_555
Na1 O136 2.475090 1_655
Na1 O60 2.540546 1_655
Na1 O3 2.583788 1_555
Na1 O31 2.845917 1_555
Na2 O12 2.232478 1_555
Na2 O128 2.399367 1_555
Na2 O88 2.411854 1_555
Na2 O126 2.421532 1_555
Na2 O84 2.468551 1_565
Na3 O13 2.233241 1_555
Na3 O89 2.410183 1_555
Na3 O129 2.416409 1_555
Na3 O127 2.426938 1_555
Na3 O85 2.457155 1_565
Na3 O55 2.814768 1_555
Na4 O90 2.379755 1_555
Na4 O92 2.388087 1_565
Na4 O124 2.400698 1_555
Na4 O120 2.401812 1_555
Na4 O48 2.585613 1_554
Na4 O38 2.820184 1_555
Na4 O18 2.830201 1_555
Na4 O34 2.865367 1_555
Na5 O74 2.405206 1_555
Na5 O116 2.411458 1_555
Na5 O73 2.445310 1_555
Na5 O118 2.455570 1_555
Na5 O44 2.670063 1_555
Na5 O2 2.681400 1_555
Na5 O64 2.744967 1_555
Na5 O54 2.901536 1_555
Na6 O72 2.375809 1_555
Na6 O76 2.511699 1_565
Na6 O86 2.598163 1_565
Na6 O75 2.606328 1_455
Na6 O89 2.606584 1_455
Na6 O85 2.704394 1_465
Na7 O87 2.458440 1_555
Na7 O77 2.477271 1_555
Na7 O84 2.513814 1_555
Na7 O73 2.585701 1_545
Na7 O88 2.603404 1_545
Na7 O74 2.731963 1_545
Na8 O80 2.541653 1_555
Na8 O83 2.576459 1_455
Na8 O91 2.596980 1_456
Na8 O78 2.618454 1_565
Na8 O93 2.618747 1_466
Na8 O94 2.634395 1_566
Na9 O95 2.295534 1_555
Na9 O92 2.565827 1_555
Na9 O90 2.567024 1_545
Na9 O81 2.590099 1_544
Na9 O79 2.698928 1_554
Na9 O82 2.837442 1_544
Na10 O112 2.377781 1_555
Na10 O110 2.384850 1_555
Na10 O108 2.497258 1_555
Na10 O96 2.661900 1_555
Na10 O98 2.847114 1_555
Na10 O100 2.849217 1_555
Na11 O113 2.393373 1_555
Na11 O111 2.406421 1_555
Na11 O109 2.508510 1_555
Na11 O97 2.654973 1_555
Na11 O99 2.836347 1_555
Na11 O101 2.849333 1_555
Na12 O106 2.468500 1_555
Na12 O104 2.529936 1_555
Na12 O102 2.585133 1_555
Na12 O116 2.616882 1_555
Na12 O114 2.633729 1_555
Na12 O118 2.728346 1_555
Na13 O119 2.451246 1_555
Na13 O115 2.536344 1_555
Na13 O117 2.540983 1_555
Na13 O103 2.563366 1_555
Na13 O105 2.582402 1_555
Na13 O107 2.720009 1_555
Na14 O124 2.520054 1_555
Na14 O132 2.539536 1_555
Na14 O134 2.553201 1_555
Na14 O136 2.577355 1_555
Na14 O122 2.599364 1_555
Na14 O120 2.602904 1_555
Na15 O125 2.326112 1_555
Na15 O123 2.377828 1_555
Na15 O121 2.384383 1_555
Na15 O135 2.846364 1_555
Na15 O133 2.861688 1_555
Na15 O137 2.970619 1_555
Na16 O142 2.256692 1_555
Na16 O138 2.464812 1_555
Na16 O140 2.469703 1_555
Na16 O128 2.750025 1_555
Na16 O130 2.768961 1_555
Na16 O126 2.784571 1_555
Na17 O143 2.232558 1_555
Na17 O139 2.452578 1_555
Na17 O141 2.469298 1_555
Na17 O129 2.727388 1_555
Na17 O131 2.794507 1_555
Na17 O127 2.817166 1_555
O0 S0 1.465215 1_555
O0 Zn0 2.139295 1_445
O1 S1 1.480503 1_555
O1 Zn1 2.047668 1_555
O2 S2 1.499998 1_555
O2 Zn1 2.065488 1_565
O3 Si0 1.594810 1_555
O3 Zn0 1.914879 1_555
O4 S4 1.471346 1_555
O4 Zn1 2.036211 1_555
O5 S3 1.460678 1_655
O5 Zn0 2.168913 1_545
O6 S5 1.497598 1_555
O6 Zr0 2.131865 1_455
O7 S6 1.498314 1_555
O7 Zr1 2.136139 1_555
O8 S8 1.490501 1_555
O8 Zr1 2.133433 1_565
O9 S7 1.491626 1_655
O9 Zr0 2.126452 1_565
O10 Si1 1.669345 1_545
O10 Zr1 1.928959 1_555
O11 Si2 1.669448 1_545
O11 Zr0 1.922059 1_555
O12 Si1 1.616583 1_555
O12 Zn3 1.923074 1_555
O13 Si2 1.613561 1_555
O13 Zn2 1.922973 1_555
O14 S5 1.465681 1_555
O14 Zn2 2.068147 1_445
O15 S6 1.467569 1_555
O15 Zn3 2.055407 1_545
O16 S7 1.468880 1_555
O16 Zn2 2.043706 1_455
O17 S8 1.470413 1_555
O17 Zn3 2.036261 1_555
O18 S2 1.490359 1_555
O18 Zn4 2.119409 1_565
O19 Si0 1.659162 1_555
O19 Zr2 1.932624 1_555
O20 S3 1.515812 1_555
O20 Zr2 2.101177 1_445
O21 S4 1.479570 1_555
O21 Zn4 2.080782 1_555
O22 S0 1.524199 1_565
O22 Zr2 2.122519 1_455
O23 S1 1.469854 1_565
O23 Zn4 2.071337 1_565
O24 S9 1.518992 1_555
O24 Zr3 2.118930 1_555
O25 S10 1.524984 1_555
O25 Zr4 2.112886 1_555
O26 S11 1.527586 1_555
O26 Zr3 2.104872 1_555
O27 S12 1.528316 1_555
O27 Zr4 2.101545 1_555
O28 S13 1.495730 1_555
O28 Zr3 2.217058 1_555
O29 S14 1.498891 1_555
O29 Zr4 2.202095 1_555
O30 S15 1.479600 1_555
O30 Zn5 2.046369 1_555
O31 S16 1.482358 1_555
O31 Zn6 2.077714 1_555
O32 S17 1.470696 1_555
O32 Zn5 2.076363 1_555
O33 S18 1.475632 1_555
O33 Zn6 2.047732 1_555
O34 S19 1.481557 1_555
O34 Zn5 2.064916 1_555
O35 S20 1.497445 1_555
O35 Zn6 2.107588 1_555
O36 S19 1.473095 1_555
O36 Zn7 2.091803 1_554
O37 S20 1.473412 1_555
O37 Zn8 2.046009 1_554
O38 S15 1.488357 1_555
O38 Zn7 2.061537 1_554
O39 S16 1.467184 1_555
O39 Zn8 2.102734 1_554
O40 S17 1.474841 1_555
O40 Zn7 2.039312 1_554
O41 S18 1.467017 1_555
O41 Zn8 2.054817 1_554
O42 S11 1.472250 1_555
O42 Zn9 2.050583 1_555
O43 S12 1.468321 1_555
O43 Zn10 2.159583 1_555
O44 S13 1.483077 1_555
O44 Zn9 2.084590 1_555
O45 S14 1.467333 1_555
O45 Zn10 2.016832 1_555
O46 S9 1.475786 1_555
O46 Zn9 2.068462 1_555
O47 S10 1.475669 1_555
O47 Zn10 2.076753 1_555
O48 S21 1.486857 1_555
O48 Zn11 2.125749 1_556
O49 S22 1.470526 1_555
O49 Zn12 2.065629 1_556
O50 S23 1.472975 1_555
O50 Zn11 2.033507 1_556
O51 S24 1.469291 1_555
O51 Zn12 2.038992 1_556
O52 S25 1.477862 1_555
O52 Zn11 2.022528 1_556
O53 S26 1.473761 1_555
O53 Zn12 2.066205 1_556
O54 S27 1.497474 1_555
O54 Zn13 2.143308 1_555
O55 S28 1.480180 1_555
O55 Zn14 2.114761 1_555
O56 S29 1.482971 1_555
O56 Zn13 2.043231 1_555
O57 S30 1.471877 1_555
O57 Zn14 2.058871 1_555
O58 S31 1.479747 1_555
O58 Zn13 2.001132 1_555
O59 S32 1.469859 1_555
O59 Zn14 2.084592 1_555
O60 S31 1.499877 1_555
O60 Zn15 2.114619 1_555
O61 S32 1.503045 1_555
O61 Zr5 2.139216 1_555
O62 S27 1.479128 1_555
O62 Zn15 2.056558 1_555
O63 S28 1.535403 1_555
O63 Zr5 2.060615 1_555
O64 S29 1.491271 1_555
O64 Zn15 2.040114 1_555
O65 S30 1.529024 1_555
O65 Zr5 2.105707 1_555
O66 S23 1.463982 1_555
O66 Zn16 2.168906 1_555
O67 S24 1.462404 1_555
O67 Zn17 2.169527 1_555
O68 S25 1.466601 1_555
O68 Zn16 2.052360 1_555
O69 S26 1.468092 1_555
O69 Zn17 2.045034 1_555
O70 S21 1.463193 1_555
O70 Zn16 2.079067 1_555
O71 S22 1.465256 1_555
O71 Zn17 2.073769 1_555
O72 S31 1.484520 1_555
O72 Zn0 2.165415 1_455
O73 S32 1.490346 1_555
O73 Zn1 2.261003 1_565
O74 S27 1.507550 1_555
O74 Zn1 2.144677 1_565
O75 S28 1.466499 1_555
O75 Zn0 2.257112 1_555
O76 S29 1.473630 1_555
O76 Zn0 2.196748 1_445
O77 S30 1.477129 1_555
O77 Zn1 2.193107 1_555
O78 S23 1.542980 1_555
O78 Zr0 2.115587 1_455
O79 S24 1.540512 1_555
O79 Zr1 2.108861 1_555
O80 S25 1.513857 1_555
O80 Zr0 2.234778 1_465
O81 S26 1.517210 1_555
O81 Zr1 2.238396 1_565
O82 S21 1.532590 1_555
O82 Zr1 2.123517 1_565
O83 S22 1.539198 1_555
O83 Zr0 2.130582 1_565
O84 S9 1.480965 1_555
O84 Zn3 2.388131 1_545
O85 S10 1.478872 1_555
O85 Zn2 2.353870 1_545
O86 S11 1.466421 1_555
O86 Zn2 2.240433 1_445
O87 S12 1.470819 1_555
O87 Zn3 2.280986 1_545
O88 S13 1.488123 1_555
O88 Zn3 2.322737 1_555
O89 S14 1.487750 1_555
O89 Zn2 2.294554 1_555
O90 S15 1.509909 1_555
O90 Zn4 2.174436 1_565
O91 S16 1.532980 1_555
O91 Zr2 2.156051 1_555
O92 S17 1.510403 1_555
O92 Zn4 2.161900 1_555
O93 S18 1.534777 1_555
O93 Zr2 2.132372 1_545
O94 S19 1.503254 1_555
O94 Zr2 2.214362 1_445
O95 S20 1.497317 1_555
O95 Zn4 2.134465 1_555
O96 Si1 1.677141 1_545
O96 Zr3 1.960033 1_555
O97 Si2 1.673179 1_545
O97 Zr4 1.962348 1_555
O98 S5 1.512087 1_555
O98 Zr3 2.127395 1_555
O99 S6 1.509871 1_555
O99 Zr4 2.135118 1_555
O100 S8 1.514003 1_555
O100 Zr3 2.122936 1_555
O101 S7 1.510928 1_655
O101 Zr4 2.127556 1_555
O102 S2 1.488325 1_555
O102 Zn5 2.191041 1_555
O103 Si0 1.629831 1_555
O103 Zn6 2.007174 1_555
O104 S4 1.465451 1_555
O104 Zn5 2.183851 1_555
O105 S3 1.482804 1_655
O105 Zn6 2.303804 1_555
O106 S0 1.471231 1_555
O106 Zn5 2.155070 1_555
O107 S1 1.474709 1_555
O107 Zn6 2.311251 1_555
O108 S21 1.474368 1_555
O108 Zn7 2.215258 1_555
O109 S22 1.479911 1_555
O109 Zn8 2.133336 1_555
O110 S24 1.483134 1_555
O110 Zn7 2.171712 1_555
O111 S23 1.479597 1_655
O111 Zn8 2.240186 1_555
O112 S25 1.487153 1_545
O112 Zn7 2.142984 1_555
O113 S26 1.490154 1_545
O113 Zn8 2.122982 1_555
O114 S27 1.480143 1_545
O114 Zn9 2.106467 1_555
O115 S28 1.476835 1_545
O115 Zn10 2.162455 1_555
O116 S29 1.510563 1_555
O116 Zn9 2.144718 1_555
O117 S30 1.473354 1_555
O117 Zn10 2.210513 1_555
O118 S32 1.486308 1_555
O118 Zn9 2.240208 1_555
O119 S31 1.495633 1_655
O119 Zn10 2.109198 1_555
O120 S19 1.490213 1_555
O120 Zn11 2.285770 1_555
O121 S20 1.487500 1_555
O121 Zn12 2.200818 1_555
O122 S16 1.475700 1_455
O122 Zn11 2.122704 1_555
O123 S15 1.479362 1_555
O123 Zn12 2.172235 1_555
O124 S17 1.506979 1_565
O124 Zn11 2.209765 1_555
O125 S18 1.475326 1_565
O125 Zn12 2.214612 1_555
O126 S11 1.488154 1_565
O126 Zn13 2.289242 1_555
O127 S12 1.492662 1_565
O127 Zn14 2.233568 1_555
O128 S13 1.494753 1_555
O128 Zn13 2.265452 1_555
O129 S14 1.499443 1_555
O129 Zn14 2.208940 1_555
O130 S10 1.475826 1_455
O130 Zn13 2.114564 1_555
O131 S9 1.474854 1_555
O131 Zn14 2.100655 1_555
O132 S0 1.494725 1_565
O132 Zn15 2.316360 1_555
O133 S1 1.511251 1_565
O133 Zr5 2.117699 1_555
O134 S2 1.495611 1_555
O134 Zn15 2.134340 1_555
O135 Si0 1.660887 1_555
O135 Zr5 1.995058 1_555
O136 S3 1.496489 1_555
O136 Zn15 2.216285 1_555
O137 S4 1.527427 1_555
O137 Zr5 2.160318 1_555
O138 S5 1.455094 1_555
O138 Zn16 2.243648 1_555
O139 S6 1.455146 1_555
O139 Zn17 2.249386 1_555
O140 S7 1.454334 1_555
O140 Zn16 2.257085 1_555
O141 S8 1.452322 1_555
O141 Zn17 2.271803 1_555
O142 Si1 1.597176 1_555
O142 Zn16 1.934834 1_555
O143 Si2 1.595412 1_555
O143 Zn17 1.931383 1_555
