# generated using pymatgen
data_Na14Mg8Si3(S3O16)3
_symmetry_space_group_name_H-M   'P 1'
_cell_length_a   18.04229514
_cell_length_b   9.00966040
_cell_length_c   22.15702559
_cell_angle_alpha   90.05190258
_cell_angle_beta   89.83048486
_cell_angle_gamma   119.95769931
_symmetry_Int_Tables_number   1
_chemical_formula_structural   Na14Mg8Si3(S3O16)3
_chemical_formula_sum   'Na42 Mg24 Si9 S27 O144'
_cell_volume   3120.50771146
_cell_formula_units_Z   3
loop_
 _symmetry_equiv_pos_site_id
 _symmetry_equiv_pos_as_xyz
  1  'x, y, z'
loop_
 _atom_site_type_symbol
 _atom_site_label
 _atom_site_symmetry_multiplicity
 _atom_site_fract_x
 _atom_site_fract_y
 _atom_site_fract_z
 _atom_site_occupancy
  Na  Na0  1  0.80833718  0.99760234  0.25612518  1
  Na  Na1  1  0.18231981  0.36782313  0.25728901  1
  Na  Na2  1  0.68098366  0.34731634  0.25141732  1
  Na  Na3  1  0.99772171  0.62891502  0.24081945  1
  Na  Na4  1  0.50717950  0.65330815  0.24720549  1
  Na  Na5  1  0.31113303  0.62305049  0.75637047  1
  Na  Na6  1  0.00540635  0.36054289  0.74733323  1
  Na  Na7  1  0.50674015  0.36241705  0.73978407  1
  Na  Na8  1  0.18179846  0.01497881  0.75111688  1
  Na  Na9  1  0.67839170  0.00992402  0.75919561  1
  Na  Na10  1  0.14958693  0.33217431  0.58539550  1
  Na  Na11  1  0.64157716  0.33152288  0.59300430  1
  Na  Na12  1  0.34178737  0.99181153  0.58396646  1
  Na  Na13  1  0.83088661  0.96016710  0.57859561  1
  Na  Na14  1  0.14374329  0.95231190  0.08178805  1
  Na  Na15  1  0.64967360  0.96580821  0.07985356  1
  Na  Na16  1  0.33246325  0.70383751  0.07349246  1
  Na  Na17  1  0.84080313  0.68980541  0.07936434  1
  Na  Na18  1  0.48593338  0.68390110  0.91544795  1
  Na  Na19  1  0.98062830  0.66060909  0.92328689  1
  Na  Na20  1  0.34997320  0.01572272  0.91688236  1
  Na  Na21  1  0.83834704  0.02711532  0.91253447  1
  Na  Na22  1  0.17288348  0.32069577  0.90596381  1
  Na  Na23  1  0.66468177  0.28107093  0.90741611  1
  Na  Na24  1  0.48218647  0.30225981  0.42799891  1
  Na  Na25  1  0.98471016  0.28737888  0.42035569  1
  Na  Na26  1  0.16752779  0.04788970  0.41921513  1
  Na  Na27  1  0.67250814  0.02688728  0.41020927  1
  Na  Na28  1  0.34109583  0.65163236  0.41757052  1
  Na  Na29  1  0.84623136  0.68093001  0.42205912  1
  Na  Na30  1  0.99900147  0.00289377  0.49660261  1
  Na  Na31  1  0.50085090  0.00108447  0.50826644  1
  Na  Na32  1  0.99820431  0.99602132  0.00384272  1
  Na  Na33  1  0.50088407  0.99769358  0.99203204  1
  Na  Na34  1  0.32950437  0.34826934  0.83143154  1
  Na  Na35  1  0.81851236  0.32438641  0.83103990  1
  Na  Na36  1  0.32890859  0.32836689  0.33708997  1
  Na  Na37  1  0.82530977  0.30633516  0.33373556  1
  Na  Na38  1  0.15815288  0.66117004  0.16048747  1
  Na  Na39  1  0.66248900  0.66942718  0.16707360  1
  Na  Na40  1  0.16316235  0.65723762  0.66931821  1
  Na  Na41  1  0.65684822  0.63885009  0.66768542  1
  Mg  Mg0  1  0.99956485  0.00811832  0.35530151  1
  Mg  Mg1  1  0.50420894  0.00292232  0.34504229  1
  Mg  Mg2  1  0.00299674  0.00466482  0.84347167  1
  Mg  Mg3  1  0.50661986  0.99857355  0.85230478  1
  Mg  Mg4  1  0.00210079  0.99855552  0.65311928  1
  Mg  Mg5  1  0.50463199  0.01845492  0.65095951  1
  Mg  Mg6  1  0.99929970  0.99643127  0.14675400  1
  Mg  Mg7  1  0.50334749  0.00575992  0.15159436  1
  Mg  Mg8  1  0.33712616  0.33959443  0.68191697  1
  Mg  Mg9  1  0.82804817  0.33962511  0.68666384  1
  Mg  Mg10  1  0.33493574  0.32825058  0.18261746  1
  Mg  Mg11  1  0.83398770  0.33229756  0.18001704  1
  Mg  Mg12  1  0.33502827  0.34070482  0.98191633  1
  Mg  Mg13  1  0.83329408  0.33310825  0.98487569  1
  Mg  Mg14  1  0.33358688  0.33621841  0.48749302  1
  Mg  Mg15  1  0.83335444  0.32684561  0.48444085  1
  Mg  Mg16  1  0.16337791  0.65860282  0.01686058  1
  Mg  Mg17  1  0.66368746  0.66592541  0.01285393  1
  Mg  Mg18  1  0.16300314  0.65661480  0.51570017  1
  Mg  Mg19  1  0.66401457  0.66830802  0.51948570  1
  Mg  Mg20  1  0.17053794  0.66349661  0.31982590  1
  Mg  Mg21  1  0.66893125  0.68598129  0.31748519  1
  Mg  Mg22  1  0.16924386  0.65323018  0.81633210  1
  Mg  Mg23  1  0.66998250  0.66972157  0.81516271  1
  Si  Si0  1  0.65006940  0.00098692  0.24766666  1
  Si  Si1  1  0.15008569  0.29879101  0.74757863  1
  Si  Si2  1  0.65048826  0.30387693  0.75139893  1
  Si  Si3  1  0.48225336  0.33512024  0.58162449  1
  Si  Si4  1  0.98295294  0.62812996  0.08348079  1
  Si  Si5  1  0.31494694  0.66671395  0.91884897  1
  Si  Si6  1  0.66914365  0.96515366  0.91849506  1
  Si  Si7  1  0.81438765  0.96413225  0.41873523  1
  Si  Si8  1  0.16941675  0.36980407  0.41690667  1
  S  S0  1  0.14802670  0.99935389  0.25033669  1
  S  S1  1  0.35108568  0.70597498  0.24838512  1
  S  S2  1  0.85379682  0.70686744  0.25086359  1
  S  S3  1  0.00119527  0.29286467  0.24948644  1
  S  S4  1  0.49731676  0.29247545  0.25138652  1
  S  S5  1  0.99973718  0.70441624  0.75146044  1
  S  S6  1  0.49870336  0.70782807  0.74924357  1
  S  S7  1  0.35156049  0.99900306  0.75071112  1
  S  S8  1  0.85312385  0.99870125  0.74812363  1
  S  S9  1  0.98007486  0.33546524  0.58459389  1
  S  S10  1  0.18302597  0.03067659  0.58255213  1
  S  S11  1  0.68674671  0.03931722  0.58327441  1
  S  S12  1  0.33346369  0.63218168  0.58340742  1
  S  S13  1  0.83703365  0.62958801  0.58187305  1
  S  S14  1  0.48018128  0.62545751  0.08514943  1
  S  S15  1  0.33594801  0.04393357  0.08366916  1
  S  S16  1  0.83379104  0.03562090  0.08406012  1
  S  S17  1  0.18735051  0.33206722  0.08552008  1
  S  S18  1  0.68348527  0.33608921  0.08341217  1
  S  S19  1  0.81539065  0.66988119  0.91725229  1
  S  S20  1  0.01867295  0.36929712  0.91598908  1
  S  S21  1  0.51902158  0.37395814  0.91743745  1
  S  S22  1  0.16487870  0.95813018  0.91677569  1
  S  S23  1  0.31399453  0.95925780  0.41548017  1
  S  S24  1  0.66488930  0.37257335  0.41561992  1
  S  S25  1  0.02077242  0.66647949  0.41531273  1
  S  S26  1  0.51849001  0.66813911  0.41521075  1
  O  O0  1  0.10728818  0.02546160  0.30443610  1
  O  O1  1  0.60827736  0.03571768  0.30844101  1
  O  O2  1  0.40306525  0.78518113  0.30330210  1
  O  O3  1  0.90783774  0.78980363  0.30459253  1
  O  O4  1  0.48295966  0.19009360  0.30702624  1
  O  O5  1  0.99091241  0.19232761  0.30489421  1
  O  O6  1  0.10838896  0.18082037  0.80848138  1
  O  O7  1  0.60542585  0.18171288  0.81042711  1
  O  O8  1  0.48396346  0.78132226  0.80507982  1
  O  O9  1  0.98482602  0.77730379  0.80743048  1
  O  O10  1  0.40348883  0.02096264  0.80507617  1
  O  O11  1  0.90501652  0.02094594  0.80348202  1
  O  O12  1  0.38903550  0.96571613  0.69623714  1
  O  O13  1  0.89426340  0.97492517  0.69378774  1
  O  O14  1  0.08951816  0.20944207  0.68859305  1
  O  O15  1  0.59289355  0.21765353  0.69078131  1
  O  O16  1  0.01185997  0.81403957  0.69854251  1
  O  O17  1  0.50856179  0.81419174  0.69621148  1
  O  O18  1  0.39291633  0.80765927  0.19376903  1
  O  O19  1  0.89296516  0.81559131  0.19665412  1
  O  O20  1  0.01477889  0.20906566  0.19673100  1
  O  O21  1  0.50866358  0.20724430  0.19813455  1
  O  O22  1  0.09524811  0.97514558  0.19585405  1
  O  O23  1  0.58884045  0.96833747  0.18916744  1
  O  O24  1  0.43531882  0.35110192  0.64224060  1
  O  O25  1  0.93761079  0.35123607  0.63931848  1
  O  O26  1  0.23577658  0.11071808  0.63696083  1
  O  O27  1  0.74269217  0.12392883  0.63634047  1
  O  O28  1  0.31657147  0.51908566  0.63626194  1
  O  O29  1  0.82692167  0.51934345  0.63408132  1
  O  O30  1  0.43860359  0.52667829  0.14085974  1
  O  O31  1  0.93844872  0.52155436  0.14548553  1
  O  O32  1  0.32374150  0.13018011  0.13647408  1
  O  O33  1  0.81875337  0.11462709  0.13784949  1
  O  O34  1  0.24087254  0.35689920  0.14012246  1
  O  O35  1  0.73592339  0.36253334  0.13854780  1
  O  O36  1  0.22726564  0.30172791  0.03158841  1
  O  O37  1  0.72436819  0.30727775  0.03001772  1
  O  O38  1  0.42749515  0.53944250  0.03150805  1
  O  O39  1  0.92152666  0.54469786  0.02409038  1
  O  O40  1  0.34567646  0.14246338  0.02768088  1
  O  O41  1  0.84373881  0.13584260  0.02883841  1
  O  O42  1  0.22297292  0.13975920  0.52816465  1
  O  O43  1  0.72585412  0.14858678  0.52836409  1
  O  O44  1  0.34255754  0.55249593  0.52731691  1
  O  O45  1  0.84727066  0.55216008  0.52505001  1
  O  O46  1  0.42226608  0.29975342  0.52109271  1
  O  O47  1  0.92943397  0.31746828  0.52958679  1
  O  O48  1  0.27115462  0.69761741  0.97926976  1
  O  O49  1  0.77769421  0.69432788  0.97369077  1
  O  O50  1  0.07458402  0.45033163  0.96871909  1
  O  O51  1  0.57418784  0.45306842  0.97085624  1
  O  O52  1  0.15204877  0.85180542  0.97107325  1
  O  O53  1  0.65366895  0.85005138  0.97964863  1
  O  O54  1  0.27540210  0.85774548  0.47116546  1
  O  O55  1  0.76980123  0.84228059  0.47756794  1
  O  O56  1  0.15081406  0.45612278  0.47566168  1
  O  O57  1  0.65258293  0.45494811  0.46904077  1
  O  O58  1  0.07657459  0.69770934  0.46811791  1
  O  O59  1  0.57423328  0.69791849  0.46748349  1
  O  O60  1  0.05881568  0.63763330  0.35982665  1
  O  O61  1  0.55558096  0.63814019  0.35953656  1
  O  O62  1  0.25858263  0.87626431  0.36269630  1
  O  O63  1  0.75670812  0.88413436  0.35794183  1
  O  O64  1  0.18724656  0.48717396  0.35588485  1
  O  O65  1  0.67616881  0.47353814  0.35981205  1
  O  O66  1  0.05628440  0.47436184  0.86080971  1
  O  O67  1  0.55637001  0.48085201  0.86306355  1
  O  O68  1  0.17606941  0.87832963  0.86173984  1
  O  O69  1  0.68637048  0.87680275  0.85920979  1
  O  O70  1  0.25421791  0.62865229  0.85968899  1
  O  O71  1  0.76032777  0.64513130  0.86477520  1
  O  O72  1  0.01128806  0.82046640  0.40868581  1
  O  O73  1  0.50716119  0.82206862  0.40971850  1
  O  O74  1  0.40044543  0.97449211  0.40866539  1
  O  O75  1  0.90923139  0.97922824  0.41287441  1
  O  O76  1  0.08548866  0.17691219  0.41126770  1
  O  O77  1  0.58690760  0.19701860  0.41189965  1
  O  O78  1  0.00771652  0.19317340  0.91054805  1
  O  O79  1  0.50759227  0.19966075  0.91169889  1
  O  O80  1  0.08707466  0.97799130  0.91316116  1
  O  O81  1  0.58335556  0.98399884  0.91534386  1
  O  O82  1  0.40921815  0.84013166  0.91192185  1
  O  O83  1  0.90248541  0.82769643  0.91093553  1
  O  O84  1  0.48908739  0.15591838  0.58413633  1
  O  O85  1  0.98671093  0.17521430  0.58644037  1
  O  O86  1  0.09646151  0.01246108  0.58779145  1
  O  O87  1  0.60063540  0.01891695  0.58912349  1
  O  O88  1  0.40988572  0.80313780  0.58998928  1
  O  O89  1  0.91265689  0.80601714  0.58791013  1
  O  O90  1  0.48616970  0.79825803  0.08737626  1
  O  O91  1  0.99289044  0.82472517  0.08757893  1
  O  O92  1  0.41163118  0.01960507  0.09012482  1
  O  O93  1  0.91104389  0.01741063  0.09021748  1
  O  O94  1  0.10140119  0.17804769  0.09181817  1
  O  O95  1  0.59701120  0.18108201  0.08903796  1
  O  O96  1  0.34393215  0.15606341  0.74522878  1
  O  O97  1  0.85007999  0.16162824  0.74300707  1
  O  O98  1  0.24645868  0.31949153  0.74251880  1
  O  O99  1  0.74370870  0.31004686  0.74633138  1
  O  O100  1  0.42213251  0.53178217  0.74482335  1
  O  O101  1  0.92780676  0.52689454  0.74404471  1
  O  O102  1  0.34276784  0.53048130  0.24416948  1
  O  O103  1  0.84556358  0.53415807  0.24578037  1
  O  O104  1  0.42360662  0.32375638  0.24491631  1
  O  O105  1  0.92322677  0.30877178  0.24512479  1
  O  O106  1  0.23407741  0.15759333  0.24429303  1
  O  O107  1  0.74663849  0.17373803  0.24269664  1
  O  O108  1  0.32597602  0.49434242  0.92359742  1
  O  O109  1  0.82557658  0.51628598  0.92096615  1
  O  O110  1  0.43167104  0.35326484  0.92538248  1
  O  O111  1  0.93272104  0.35167602  0.92294866  1
  O  O112  1  0.24330875  0.13075697  0.92302063  1
  O  O113  1  0.75566349  0.15987186  0.92341492  1
  O  O114  1  0.32411089  0.13325374  0.41915036  1
  O  O115  1  0.82721598  0.16002128  0.42318583  1
  O  O116  1  0.25605173  0.35009186  0.42278782  1
  O  O117  1  0.74328199  0.35598817  0.42128017  1
  O  O118  1  0.43189128  0.51396807  0.42135144  1
  O  O119  1  0.93402374  0.51364968  0.42282282  1
  O  O120  1  0.18120188  0.48950158  0.08003861  1
  O  O121  1  0.67799219  0.49538657  0.07660977  1
  O  O122  1  0.08134852  0.66083582  0.07798075  1
  O  O123  1  0.56730833  0.64744521  0.08179690  1
  O  O124  1  0.25728169  0.87094980  0.08100537  1
  O  O125  1  0.75725097  0.85786751  0.08021324  1
  O  O126  1  0.17780374  0.86066172  0.57524699  1
  O  O127  1  0.68158182  0.87046630  0.57754716  1
  O  O128  1  0.25576749  0.65497236  0.57896570  1
  O  O129  1  0.75827083  0.64388013  0.57931104  1
  O  O130  1  0.06792637  0.48775530  0.58106096  1
  O  O131  1  0.58033792  0.49898592  0.57642543  1
  O  O132  1  0.15527812  0.84225387  0.25629790  1
  O  O133  1  0.65681420  0.82387505  0.25097910  1
  O  O134  1  0.26377702  0.68342535  0.25230813  1
  O  O135  1  0.76561222  0.68112180  0.25622684  1
  O  O136  1  0.07818702  0.47034133  0.25353359  1
  O  O137  1  0.57751235  0.46292119  0.25649767  1
  O  O138  1  0.15645844  0.48868535  0.75104494  1
  O  O139  1  0.65516466  0.49087443  0.75703035  1
  O  O140  1  0.08082979  0.69711796  0.75710529  1
  O  O141  1  0.57713650  0.69260378  0.75423297  1
  O  O142  1  0.26240726  0.84909818  0.75601839  1
  O  O143  1  0.76545062  0.85250455  0.75264725  1
loop_
_geom_bond_atom_site_label_1
_geom_bond_atom_site_label_2
_geom_bond_distance
_geom_bond_site_symmetry_2
Na0 O107 2.369205 1_565
Na0 O133 2.380055 1_555
Na0 O63 2.458215 1_555
Na0 O105 2.531859 1_565
Na0 O135 2.555271 1_555
Na0 O33 2.796233 1_565
Na1 O64 2.416208 1_555
Na1 O134 2.466459 1_555
Na1 O136 2.474698 1_555
Na1 O106 2.511270 1_555
Na1 O102 2.524117 1_555
Na1 O34 2.820002 1_555
Na1 O0 2.874981 1_555
Na1 O20 2.947220 1_555
Na2 O107 2.394681 1_555
Na2 O137 2.554054 1_555
Na2 O103 2.583148 1_555
Na2 O135 2.608030 1_555
Na2 O35 2.665679 1_555
Na2 O65 2.676093 1_555
Na2 O1 2.741762 1_555
Na2 O21 2.958553 1_555
Na3 O31 2.348985 1_555
Na3 O103 2.436219 1_555
Na3 O105 2.502633 1_555
Na3 O136 2.510545 1_655
Na3 O132 2.537828 1_655
Na3 O60 2.846838 1_655
Na3 O22 2.886682 1_655
Na4 O133 2.348366 1_555
Na4 O104 2.573112 1_555
Na4 O102 2.598278 1_555
Na4 O137 2.602130 1_555
Na4 O30 2.643338 1_555
Na4 O61 2.666211 1_555
Na4 O23 2.774770 1_555
Na4 O2 2.949180 1_555
Na5 O98 2.397736 1_555
Na5 O138 2.427964 1_555
Na5 O70 2.516992 1_555
Na5 O100 2.528569 1_555
Na5 O142 2.590160 1_555
Na5 O28 2.838130 1_555
Na5 O8 2.915130 1_555
Na5 O12 2.990785 1_555
Na6 O138 2.371881 1_555
Na6 O97 2.461704 1_455
Na6 O101 2.511642 1_455
Na6 O140 2.640752 1_555
Na6 O25 2.673118 1_455
Na6 O66 2.699036 1_555
Na6 O14 2.810461 1_555
Na6 O11 2.940872 1_455
Na7 O139 2.359376 1_555
Na7 O24 2.495371 1_555
Na7 O96 2.577534 1_555
Na7 O141 2.606267 1_555
Na7 O100 2.645034 1_555
Na7 O15 2.703401 1_555
Na7 O67 2.908003 1_555
Na8 O98 2.393206 1_555
Na8 O140 2.515267 1_545
Na8 O96 2.544478 1_555
Na8 O142 2.555902 1_545
Na8 O26 2.690827 1_555
Na8 O68 2.722332 1_545
Na8 O6 2.750523 1_555
Na8 O16 2.917010 1_545
Na9 O99 2.366131 1_555
Na9 O141 2.511475 1_545
Na9 O69 2.559121 1_545
Na9 O143 2.592886 1_545
Na9 O97 2.712582 1_555
Na9 O7 2.727662 1_555
Na9 O27 2.933779 1_555
Na9 O17 3.011723 1_545
Na10 O130 2.491684 1_555
Na10 O14 2.533508 1_555
Na10 O86 2.541929 1_555
Na10 O85 2.546631 1_455
Na10 O128 2.565791 1_555
Na10 O56 2.671905 1_555
Na10 O28 2.851768 1_555
Na10 O42 2.940233 1_555
Na11 O131 2.302280 1_555
Na11 O15 2.368612 1_555
Na11 O84 2.401364 1_555
Na11 O87 2.531341 1_555
Na11 O129 2.554400 1_555
Na12 O84 2.307544 1_565
Na12 O88 2.550349 1_555
Na12 O126 2.588158 1_555
Na12 O128 2.632004 1_555
Na12 O12 2.680266 1_555
Na12 O54 2.776259 1_555
Na12 O46 2.778180 1_565
Na12 O26 2.866296 1_565
Na13 O127 2.395060 1_555
Na13 O129 2.471530 1_555
Na13 O55 2.488921 1_555
Na13 O89 2.489324 1_555
Na13 O85 2.500071 1_565
Na13 O13 2.775663 1_555
Na13 O27 2.945373 1_565
Na13 O47 2.997001 1_565
Na14 O122 2.284391 1_555
Na14 O91 2.370486 1_455
Na14 O124 2.496691 1_555
Na14 O94 2.513816 1_565
Na14 O52 2.643768 1_554
Na14 O22 2.713152 1_555
Na15 O53 2.468263 1_554
Na15 O123 2.486038 1_555
Na15 O95 2.558255 1_565
Na15 O90 2.561061 1_555
Na15 O125 2.568730 1_555
Na15 O23 2.660968 1_555
Na15 O37 2.890851 1_565
Na15 O33 2.947910 1_565
Na16 O48 2.353023 1_554
Na16 O120 2.435757 1_555
Na16 O90 2.481426 1_555
Na16 O124 2.484445 1_555
Na16 O92 2.492509 1_565
Na16 O18 2.856647 1_555
Na16 O38 2.919479 1_555
Na17 O91 2.389892 1_555
Na17 O121 2.561799 1_555
Na17 O93 2.576938 1_565
Na17 O49 2.615842 1_554
Na17 O125 2.616300 1_555
Na17 O39 2.686735 1_555
Na17 O19 2.804945 1_555
Na17 O35 2.900770 1_555
Na18 O81 2.377727 1_555
Na18 O82 2.418635 1_555
Na18 O108 2.520570 1_555
Na18 O8 2.605256 1_555
Na18 O110 2.639720 1_555
Na18 O38 2.835135 1_556
Na18 O67 2.935687 1_555
Na18 O53 2.986669 1_555
Na19 O109 2.426350 1_555
Na19 O111 2.468122 1_555
Na19 O39 2.468639 1_556
Na19 O80 2.535630 1_655
Na19 O83 2.540004 1_555
Na19 O9 2.761342 1_555
Na19 O52 2.889489 1_655
Na19 O66 2.977839 1_655
Na20 O82 2.311991 1_545
Na20 O79 2.477588 1_555
Na20 O112 2.605083 1_555
Na20 O110 2.642040 1_555
Na20 O10 2.648021 1_555
Na20 O40 2.723781 1_556
Na20 O48 2.841169 1_545
Na21 O113 2.343848 1_555
Na21 O111 2.555728 1_555
Na21 O83 2.577716 1_545
Na21 O78 2.647946 1_655
Na21 O69 2.656356 1_545
Na21 O11 2.708822 1_555
Na21 O41 2.740707 1_556
Na22 O108 2.432934 1_555
Na22 O6 2.480493 1_555
Na22 O78 2.605705 1_555
Na22 O70 2.613979 1_555
Na22 O112 2.619443 1_555
Na22 O80 2.679774 1_545
Na22 O50 2.914502 1_555
Na22 O36 2.987322 1_556
Na23 O81 2.329093 1_545
Na23 O7 2.369976 1_555
Na23 O113 2.409763 1_555
Na23 O79 2.549966 1_555
Na23 O109 2.620701 1_555
Na23 O37 2.890835 1_556
Na24 O46 2.320873 1_555
Na24 O114 2.481276 1_555
Na24 O118 2.492659 1_555
Na24 O77 2.526023 1_555
Na24 O74 2.594420 1_545
Na24 O57 2.821596 1_555
Na24 O4 2.866170 1_555
Na25 O75 2.411333 1_545
Na25 O115 2.477442 1_555
Na25 O76 2.478317 1_655
Na25 O119 2.618534 1_555
Na25 O47 2.679592 1_555
Na25 O5 2.716756 1_555
Na25 O56 2.874429 1_655
Na26 O76 2.300772 1_555
Na26 O116 2.372292 1_555
Na26 O114 2.530369 1_555
Na26 O72 2.536455 1_545
Na26 O42 2.587842 1_555
Na26 O0 2.736029 1_555
Na27 O115 2.443973 1_555
Na27 O1 2.557669 1_555
Na27 O117 2.588752 1_555
Na27 O73 2.609065 1_545
Na27 O77 2.664599 1_555
Na27 O63 2.691002 1_545
Na27 O43 2.817456 1_555
Na27 O59 2.878183 1_545
Na28 O116 2.363229 1_555
Na28 O118 2.501833 1_555
Na28 O74 2.556552 1_555
Na28 O44 2.596008 1_555
Na28 O73 2.601513 1_555
Na28 O64 2.771223 1_555
Na28 O2 2.784473 1_555
Na28 O54 2.906788 1_555
Na29 O75 2.346295 1_555
Na29 O45 2.565254 1_555
Na29 O117 2.567197 1_555
Na29 O72 2.606369 1_655
Na29 O119 2.676781 1_555
Na29 O55 2.741593 1_555
Na29 O3 2.805417 1_555
Na30 O75 2.404697 1_545
Na30 O76 2.452063 1_655
Na30 O85 2.599509 1_555
Na30 O89 2.625694 1_545
Na30 O72 2.626923 1_645
Na30 O86 2.655382 1_655
Na31 O84 2.259722 1_555
Na31 O87 2.491261 1_555
Na31 O88 2.493592 1_545
Na31 O77 2.708492 1_555
Na31 O73 2.749120 1_545
Na31 O74 2.792592 1_545
Na32 O91 2.385308 1_555
Na32 O93 2.541058 1_565
Na32 O80 2.621995 1_654
Na32 O83 2.630531 1_554
Na32 O94 2.630975 1_665
Na32 O78 2.675394 1_664
Na33 O81 2.298811 1_555
Na33 O82 2.359899 1_555
Na33 O79 2.505720 1_565
Na33 O90 2.699837 1_556
Na33 O95 2.740694 1_566
Na33 O92 2.766224 1_566
Na34 O98 2.412851 1_555
Na34 O108 2.446300 1_555
Na34 O100 2.536984 1_555
Na34 O96 2.675059 1_555
Na34 O112 2.705918 1_555
Na34 O110 2.770000 1_555
Na35 O99 2.280638 1_555
Na35 O113 2.446460 1_555
Na35 O109 2.598219 1_555
Na35 O97 2.664902 1_555
Na35 O101 2.706197 1_555
Na35 O111 2.823372 1_555
Na36 O116 2.369227 1_555
Na36 O114 2.501301 1_555
Na36 O118 2.577991 1_555
Na36 O106 2.628354 1_555
Na36 O104 2.672449 1_555
Na36 O102 2.676998 1_555
Na37 O115 2.391126 1_555
Na37 O107 2.414512 1_555
Na37 O117 2.606847 1_555
Na37 O105 2.630037 1_555
Na37 O103 2.720031 1_555
Na37 O119 2.754933 1_555
Na38 O122 2.296306 1_555
Na38 O120 2.524968 1_555
Na38 O124 2.546334 1_555
Na38 O136 2.607550 1_555
Na38 O132 2.692337 1_555
Na38 O134 2.729754 1_555
Na39 O133 2.353622 1_555
Na39 O123 2.497447 1_555
Na39 O125 2.568463 1_555
Na39 O137 2.622576 1_555
Na39 O121 2.642669 1_555
Na39 O135 2.683380 1_555
Na40 O138 2.328108 1_555
Na40 O130 2.549950 1_555
Na40 O140 2.575622 1_555
Na40 O142 2.609155 1_555
Na40 O128 2.610361 1_555
Na40 O126 2.700642 1_555
Na41 O139 2.379336 1_555
Na41 O131 2.420081 1_555
Na41 O141 2.580285 1_555
Na41 O129 2.661000 1_555
Na41 O143 2.708673 1_555
Na41 O127 2.759499 1_555
Mg0 O76 1.976652 1_655
Mg0 O75 1.978878 1_545
Mg0 O5 2.071090 1_555
Mg0 O3 2.150837 1_545
Mg0 O72 2.159743 1_645
Mg0 O0 2.180858 1_655
Mg1 O1 1.925573 1_555
Mg1 O4 2.085773 1_555
Mg1 O2 2.113130 1_545
Mg1 O73 2.191535 1_545
Mg1 O77 2.209362 1_555
Mg1 O74 2.250300 1_545
Mg2 O6 1.927482 1_555
Mg2 O11 2.049430 1_455
Mg2 O9 2.066203 1_445
Mg2 O78 2.225392 1_555
Mg2 O80 2.263144 1_545
Mg2 O83 2.272838 1_445
Mg3 O7 1.953661 1_565
Mg3 O81 2.019487 1_555
Mg3 O8 2.071946 1_555
Mg3 O82 2.086909 1_555
Mg3 O79 2.231274 1_565
Mg3 O10 2.232663 1_565
Mg4 O14 1.930590 1_565
Mg4 O16 2.025837 1_555
Mg4 O13 2.054035 1_455
Mg4 O86 2.186788 1_565
Mg4 O89 2.216855 1_455
Mg4 O85 2.289367 1_465
Mg5 O15 1.920025 1_555
Mg5 O84 2.038972 1_555
Mg5 O17 2.128679 1_545
Mg5 O12 2.140281 1_545
Mg5 O87 2.203681 1_555
Mg5 O88 2.281988 1_545
Mg6 O91 1.986021 1_555
Mg6 O19 2.103960 1_555
Mg6 O20 2.106654 1_665
Mg6 O93 2.110285 1_565
Mg6 O94 2.128963 1_665
Mg6 O22 2.135469 1_655
Mg7 O23 1.927053 1_545
Mg7 O21 2.047241 1_555
Mg7 O18 2.114004 1_545
Mg7 O95 2.143882 1_555
Mg7 O92 2.197413 1_555
Mg7 O90 2.243853 1_545
Mg8 O24 1.931251 1_555
Mg8 O98 2.050205 1_555
Mg8 O28 2.092883 1_555
Mg8 O100 2.156208 1_555
Mg8 O26 2.197572 1_555
Mg8 O96 2.219274 1_555
Mg9 O99 1.928235 1_555
Mg9 O29 2.004007 1_555
Mg9 O27 2.099713 1_555
Mg9 O101 2.163207 1_555
Mg9 O25 2.190981 1_555
Mg9 O97 2.220711 1_555
Mg10 O32 1.977032 1_555
Mg10 O30 2.050306 1_555
Mg10 O34 2.068998 1_555
Mg10 O104 2.131744 1_555
Mg10 O106 2.176617 1_555
Mg10 O102 2.222439 1_555
Mg11 O31 1.956859 1_555
Mg11 O107 2.048266 1_555
Mg11 O33 2.062616 1_555
Mg11 O35 2.130809 1_555
Mg11 O105 2.252440 1_555
Mg11 O103 2.256570 1_555
Mg12 O108 1.960290 1_555
Mg12 O38 2.054418 1_556
Mg12 O110 2.100590 1_555
Mg12 O36 2.102616 1_556
Mg12 O40 2.145312 1_556
Mg12 O112 2.213925 1_555
Mg13 O39 1.974244 1_556
Mg13 O113 2.019025 1_555
Mg13 O37 2.109240 1_556
Mg13 O41 2.117039 1_556
Mg13 O111 2.194282 1_555
Mg13 O109 2.232308 1_555
Mg14 O46 1.937670 1_555
Mg14 O116 2.053005 1_555
Mg14 O44 2.069911 1_555
Mg14 O42 2.095782 1_555
Mg14 O118 2.238360 1_555
Mg14 O114 2.313105 1_555
Mg15 O115 1.986046 1_555
Mg15 O43 2.041819 1_555
Mg15 O47 2.041917 1_555
Mg15 O45 2.117204 1_555
Mg15 O119 2.220821 1_555
Mg15 O117 2.260238 1_555
Mg16 O48 1.976566 1_554
Mg16 O122 2.010621 1_555
Mg16 O50 2.056595 1_554
Mg16 O52 2.112058 1_554
Mg16 O120 2.209072 1_555
Mg16 O124 2.307108 1_555
Mg17 O53 1.904846 1_554
Mg17 O51 2.015963 1_554
Mg17 O49 2.124528 1_554
Mg17 O121 2.196616 1_555
Mg17 O123 2.254009 1_555
Mg17 O125 2.272104 1_555
Mg18 O56 1.923494 1_555
Mg18 O58 2.065738 1_555
Mg18 O54 2.165924 1_555
Mg18 O126 2.167755 1_555
Mg18 O130 2.176539 1_555
Mg18 O128 2.192045 1_555
Mg19 O131 1.972362 1_555
Mg19 O55 1.991650 1_555
Mg19 O59 2.113271 1_555
Mg19 O127 2.120022 1_555
Mg19 O57 2.142091 1_555
Mg19 O129 2.255046 1_555
Mg20 O64 1.932590 1_555
Mg20 O62 2.016140 1_555
Mg20 O60 2.103253 1_555
Mg20 O134 2.187263 1_555
Mg20 O136 2.253042 1_555
Mg20 O132 2.258365 1_555
Mg21 O63 1.918502 1_555
Mg21 O133 2.009777 1_555
Mg21 O61 2.084568 1_555
Mg21 O65 2.194023 1_555
Mg21 O135 2.224655 1_555
Mg21 O137 2.298508 1_555
Mg22 O70 1.915865 1_555
Mg22 O138 2.000027 1_555
Mg22 O66 2.105397 1_555
Mg22 O142 2.180356 1_555
Mg22 O68 2.210898 1_555
Mg22 O140 2.250862 1_555
Mg23 O139 1.973579 1_555
Mg23 O69 1.992064 1_555
Mg23 O71 2.070315 1_555
Mg23 O67 2.175000 1_555
Mg23 O143 2.180505 1_555
Mg23 O141 2.242766 1_555
O0 S0 1.483025 1_545
O1 Si0 1.645786 1_555
O2 S1 1.485313 1_555
O3 S2 1.484543 1_555
O4 S4 1.483013 1_555
O5 S3 1.481523 1_655
O6 Si1 1.647610 1_555
O7 Si2 1.638789 1_555
O8 S6 1.487345 1_555
O9 S5 1.488133 1_555
O10 S7 1.479540 1_545
O11 S8 1.496728 1_545
O12 S7 1.483555 1_555
O13 S8 1.483002 1_555
O14 Si1 1.636545 1_555
O15 Si2 1.639324 1_555
O16 S5 1.477473 1_455
O17 S6 1.470119 1_555
O18 S1 1.476276 1_555
O19 S2 1.485730 1_555
O20 S3 1.475781 1_555
O21 S4 1.475703 1_555
O22 S0 1.486778 1_555
O23 Si0 1.634076 1_565
O24 Si3 1.629833 1_555
O25 S9 1.476593 1_555
O26 S10 1.482878 1_555
O27 S11 1.489756 1_555
O28 S12 1.480719 1_555
O29 S13 1.475755 1_555
O30 S14 1.486004 1_555
O31 Si4 1.637078 1_555
O32 S15 1.479512 1_555
O33 S16 1.479913 1_555
O34 S17 1.495623 1_555
O35 S18 1.491802 1_555
O36 S17 1.487350 1_555
O37 S18 1.482097 1_555
O38 S14 1.478539 1_555
O39 Si4 1.643096 1_555
O40 S15 1.484207 1_555
O41 S16 1.477658 1_555
O42 S10 1.492349 1_555
O43 S11 1.500211 1_555
O44 S12 1.483823 1_555
O45 S13 1.493863 1_555
O46 Si3 1.653826 1_555
O47 S9 1.484866 1_555
O48 Si5 1.645241 1_555
O49 S19 1.489611 1_555
O50 S20 1.478357 1_555
O51 S21 1.482070 1_555
O52 S22 1.482434 1_555
O53 Si6 1.643320 1_555
O54 S23 1.484779 1_555
O55 Si7 1.632793 1_555
O56 Si8 1.633561 1_555
O57 S24 1.470566 1_555
O58 S25 1.478235 1_555
O59 S26 1.470297 1_555
O60 S25 1.490873 1_555
O61 S26 1.489210 1_555
O62 S23 1.478233 1_555
O63 Si7 1.635335 1_555
O64 Si8 1.646226 1_555
O65 S24 1.487810 1_555
O66 S20 1.485587 1_555
O67 S21 1.477230 1_555
O68 S22 1.478729 1_555
O69 Si6 1.642720 1_555
O70 Si5 1.633641 1_555
O71 S19 1.474368 1_555
O72 S25 1.487702 1_555
O73 S26 1.504496 1_555
O74 S23 1.503116 1_555
O75 Si7 1.652222 1_555
O76 Si8 1.643571 1_555
O77 S24 1.505325 1_555
O78 S20 1.502700 1_555
O79 S21 1.483612 1_555
O80 S22 1.503512 1_555
O81 Si6 1.640901 1_555
O82 Si5 1.643930 1_555
O83 S19 1.509358 1_555
O84 Si3 1.680503 1_555
O85 S9 1.507769 1_555
O86 S10 1.490861 1_555
O87 S11 1.475822 1_555
O88 S12 1.474644 1_555
O89 S13 1.496959 1_555
O90 S14 1.506605 1_555
O91 Si4 1.691264 1_555
O92 S15 1.494398 1_555
O93 S16 1.489234 1_555
O94 S17 1.483161 1_555
O95 S18 1.491029 1_555
O96 S7 1.493658 1_545
O97 S8 1.500499 1_545
O98 Si1 1.657030 1_555
O99 Si2 1.658324 1_555
O100 S6 1.498670 1_555
O101 S5 1.482266 1_555
O102 S1 1.514621 1_555
O103 S2 1.491638 1_555
O104 S4 1.498047 1_555
O105 S3 1.486927 1_655
O106 S0 1.499808 1_545
O107 Si0 1.661667 1_555
O108 Si5 1.664801 1_555
O109 S19 1.486556 1_555
O110 S21 1.501500 1_555
O111 S20 1.485468 1_655
O112 S22 1.497749 1_545
O113 Si6 1.670923 1_545
O114 S23 1.487121 1_545
O115 Si7 1.664331 1_545
O116 Si8 1.664417 1_555
O117 S24 1.500233 1_555
O118 S26 1.490207 1_555
O119 S25 1.489919 1_655
O120 S17 1.482075 1_555
O121 S18 1.494965 1_555
O122 Si4 1.652163 1_455
O123 S14 1.484649 1_555
O124 S15 1.496017 1_565
O125 S16 1.506912 1_565
O126 S10 1.495632 1_565
O127 S11 1.482311 1_565
O128 S12 1.518312 1_555
O129 S13 1.490793 1_555
O130 S9 1.492826 1_455
O131 Si3 1.647553 1_555
O132 S0 1.491093 1_555
O133 Si0 1.661539 1_565
O134 S1 1.486552 1_555
O135 S2 1.493224 1_555
O136 S3 1.508842 1_555
O137 S4 1.498720 1_555
O138 Si1 1.658189 1_555
O139 Si2 1.648908 1_555
O140 S5 1.502598 1_455
O141 S6 1.492780 1_555
O142 S7 1.501590 1_555
O143 S8 1.471599 1_555
