# generated using pymatgen
data_Ca3Mg
_symmetry_space_group_name_H-M   'P 1'
_cell_length_a   14.07747044
_cell_length_b   14.07747044
_cell_length_c   14.07747044
_cell_angle_alpha   145.75789214
_cell_angle_beta   129.47546670
_cell_angle_gamma   62.45694512
_symmetry_Int_Tables_number   1
_chemical_formula_structural   Ca3Mg
_chemical_formula_sum   'Ca24 Mg8'
_cell_volume   1198.85207768
_cell_formula_units_Z   8
loop_
 _symmetry_equiv_pos_site_id
 _symmetry_equiv_pos_as_xyz
  1  'x, y, z'
loop_
 _atom_site_type_symbol
 _atom_site_label
 _atom_site_symmetry_multiplicity
 _atom_site_fract_x
 _atom_site_fract_y
 _atom_site_fract_z
 _atom_site_occupancy
  Ca  Ca0_0  1  0.45696702  0.25000000  0.20696702  1
  Ca  Ca0_1  1  0.45696702  0.25000000  0.70696702  1
  Ca  Ca0_2  1  0.45696701  0.75000000  0.20696702  1
  Ca  Ca0_3  1  0.45696702  0.75000000  0.70696702  1
  Ca  Ca0_4  1  0.95696702  0.25000000  0.20696702  1
  Ca  Ca0_5  1  0.95696701  0.25000000  0.70696701  1
  Ca  Ca0_6  1  0.95696701  0.75000000  0.20696702  1
  Ca  Ca0_7  1  0.95696702  0.75000000  0.70696702  1
  Ca  Ca1_0  1  0.09755829  0.13746847  0.46008982  1
  Ca  Ca1_1  1  0.09755829  0.13746846  0.96008982  1
  Ca  Ca1_2  1  0.09755829  0.63746846  0.46008982  1
  Ca  Ca1_3  1  0.09755829  0.63746846  0.96008982  1
  Ca  Ca1_4  1  0.59755829  0.13746847  0.46008982  1
  Ca  Ca1_5  1  0.59755829  0.13746847  0.96008982  1
  Ca  Ca1_6  1  0.59755829  0.63746846  0.46008982  1
  Ca  Ca1_7  1  0.59755829  0.63746846  0.96008982  1
  Ca  Ca2_0  1  0.32262085  0.36253153  0.46008982  1
  Ca  Ca2_1  1  0.32262085  0.36253153  0.96008982  1
  Ca  Ca2_2  1  0.32262085  0.86253153  0.46008982  1
  Ca  Ca2_3  1  0.32262085  0.86253153  0.96008982  1
  Ca  Ca2_4  1  0.82262085  0.36253153  0.46008982  1
  Ca  Ca2_5  1  0.82262085  0.36253153  0.96008982  1
  Ca  Ca2_6  1  0.82262085  0.86253153  0.46008982  1
  Ca  Ca2_7  1  0.82262085  0.86253153  0.96008982  1
  Mg  Mg0_0  1  0.20618684  0.00000000  0.20618684  1
  Mg  Mg0_1  1  0.20618684  0.00000000  0.70618684  1
  Mg  Mg0_2  1  0.20618684  0.50000000  0.20618684  1
  Mg  Mg0_3  1  0.20618684  0.50000000  0.70618684  1
  Mg  Mg0_4  1  0.70618684  0.00000000  0.20618684  1
  Mg  Mg0_5  1  0.70618684  0.00000000  0.70618684  1
  Mg  Mg0_6  1  0.70618684  0.50000000  0.20618684  1
  Mg  Mg0_7  1  0.70618684  0.50000000  0.70618684  1
loop_
_geom_bond_atom_site_label_1
_geom_bond_atom_site_label_2
_geom_bond_distance
_geom_bond_site_symmetry_2
Ca0_0 Mg0_4 3.641534 1_555
Ca0_0 Mg0_7 3.641534 1_555
Ca0_0 Mg0_2 3.656967 1_555
Ca0_0 Mg0_1 3.656967 1_554
Ca0_0 Ca1_6 3.904967 1_555
Ca0_0 Ca1_5 3.904967 1_554
Ca0_0 Ca2_3 3.904971 1_544
Ca0_0 Ca2_0 3.904973 1_555
Ca0_0 Ca2_1 4.017366 1_554
Ca0_0 Ca1_1 4.017368 1_554
Ca0_0 Ca2_4 4.073087 1_555
Ca0_0 Ca1_4 4.073093 1_555
Ca0_0 Ca0_3 4.144288 1_555
Ca0_0 Ca0_3 4.144288 1_544
Ca0_1 Mg0_5 3.641534 1_555
Ca0_1 Mg0_6 3.641534 1_556
Ca0_1 Mg0_0 3.656967 1_555
Ca0_1 Mg0_3 3.656967 1_555
Ca0_1 Ca1_7 3.904967 1_555
Ca0_1 Ca1_4 3.904967 1_555
Ca0_1 Ca2_2 3.904971 1_545
Ca0_1 Ca2_1 3.904973 1_555
Ca0_1 Ca2_0 4.017366 1_555
Ca0_1 Ca1_0 4.017368 1_555
Ca0_1 Ca2_5 4.073087 1_555
Ca0_1 Ca1_5 4.073093 1_555
Ca0_1 Ca0_2 4.144288 1_545
Ca0_1 Ca0_2 4.144288 1_556
Ca0_2 Mg0_6 3.641534 1_555
Ca0_2 Mg0_5 3.641534 1_565
Ca0_2 Mg0_3 3.656967 1_554
Ca0_2 Mg0_0 3.656967 1_565
Ca0_2 Ca1_4 3.904967 1_565
Ca0_2 Ca1_7 3.904967 1_554
Ca0_2 Ca2_1 3.904971 1_554
Ca0_2 Ca2_2 3.904973 1_555
Ca0_2 Ca2_3 4.017366 1_554
Ca0_2 Ca1_3 4.017368 1_554
Ca0_2 Ca2_6 4.073087 1_555
Ca0_2 Ca1_6 4.073093 1_555
Ca0_3 Mg0_7 3.641534 1_555
Ca0_3 Mg0_4 3.641534 1_566
Ca0_3 Mg0_2 3.656967 1_555
Ca0_3 Mg0_1 3.656967 1_565
Ca0_3 Ca1_5 3.904967 1_565
Ca0_3 Ca1_6 3.904967 1_555
Ca0_3 Ca2_0 3.904971 1_555
Ca0_3 Ca2_3 3.904973 1_555
Ca0_3 Ca2_2 4.017366 1_555
Ca0_3 Ca1_2 4.017368 1_555
Ca0_3 Ca2_7 4.073087 1_555
Ca0_3 Ca1_7 4.073093 1_555
Ca0_4 Mg0_0 3.641534 1_655
Ca0_4 Mg0_3 3.641534 1_655
Ca0_4 Mg0_6 3.656967 1_555
Ca0_4 Mg0_5 3.656967 1_554
Ca0_4 Ca1_2 3.904967 1_655
Ca0_4 Ca1_1 3.904967 1_654
Ca0_4 Ca2_7 3.904971 1_544
Ca0_4 Ca2_4 3.904973 1_555
Ca0_4 Ca2_5 4.017366 1_554
Ca0_4 Ca1_5 4.017368 1_554
Ca0_4 Ca2_0 4.073087 1_655
Ca0_4 Ca1_0 4.073093 1_655
Ca0_4 Ca0_7 4.144288 1_544
Ca0_4 Ca0_7 4.144288 1_555
Ca0_5 Mg0_1 3.641534 1_655
Ca0_5 Mg0_2 3.641534 1_656
Ca0_5 Mg0_4 3.656967 1_555
Ca0_5 Mg0_7 3.656967 1_555
Ca0_5 Ca1_3 3.904967 1_655
Ca0_5 Ca1_0 3.904967 1_655
Ca0_5 Ca2_6 3.904971 1_545
Ca0_5 Ca2_5 3.904973 1_555
Ca0_5 Ca2_4 4.017366 1_555
Ca0_5 Ca1_4 4.017368 1_555
Ca0_5 Ca2_1 4.073087 1_655
Ca0_5 Ca1_1 4.073093 1_655
Ca0_5 Ca0_6 4.144288 1_545
Ca0_5 Ca0_6 4.144288 1_556
Ca0_6 Mg0_1 3.641534 1_665
Ca0_6 Mg0_2 3.641534 1_655
Ca0_6 Mg0_7 3.656967 1_554
Ca0_6 Mg0_4 3.656967 1_565
Ca0_6 Ca1_0 3.904967 1_665
Ca0_6 Ca1_3 3.904967 1_654
Ca0_6 Ca2_5 3.904971 1_554
Ca0_6 Ca2_6 3.904973 1_555
Ca0_6 Ca2_7 4.017366 1_554
Ca0_6 Ca1_7 4.017368 1_554
Ca0_6 Ca2_2 4.073087 1_655
Ca0_6 Ca1_2 4.073093 1_655
Ca0_7 Mg0_3 3.641534 1_655
Ca0_7 Mg0_0 3.641534 1_666
Ca0_7 Mg0_6 3.656967 1_555
Ca0_7 Mg0_5 3.656967 1_565
Ca0_7 Ca1_1 3.904967 1_665
Ca0_7 Ca1_2 3.904967 1_655
Ca0_7 Ca2_4 3.904971 1_555
Ca0_7 Ca2_7 3.904973 1_555
Ca0_7 Ca2_6 4.017366 1_555
Ca0_7 Ca1_6 4.017368 1_555
Ca0_7 Ca2_3 4.073087 1_655
Ca0_7 Ca1_3 4.073093 1_655
Ca1_0 Mg0_0 3.411161 1_555
Ca1_0 Mg0_3 3.411161 1_555
Ca1_0 Ca2_2 3.698300 1_545
Ca1_0 Ca2_1 3.698302 1_555
Ca1_0 Ca2_7 3.698305 1_444
Ca1_0 Ca2_4 3.698307 1_455
Ca1_0 Ca1_3 4.144288 1_555
Ca1_0 Ca1_3 4.144288 1_544
Ca1_1 Mg0_1 3.411161 1_555
Ca1_1 Mg0_2 3.411161 1_556
Ca1_1 Ca2_3 3.698300 1_545
Ca1_1 Ca2_0 3.698302 1_556
Ca1_1 Ca2_6 3.698305 1_445
Ca1_1 Ca2_5 3.698307 1_455
Ca1_1 Ca1_2 4.144288 1_556
Ca1_1 Ca1_2 4.144288 1_545
Ca1_2 Mg0_2 3.411161 1_555
Ca1_2 Mg0_1 3.411161 1_565
Ca1_2 Ca2_0 3.698300 1_555
Ca1_2 Ca2_3 3.698302 1_555
Ca1_2 Ca2_5 3.698305 1_454
Ca1_2 Ca2_6 3.698307 1_455
Ca1_3 Mg0_3 3.411161 1_555
Ca1_3 Mg0_0 3.411161 1_566
Ca1_3 Ca2_1 3.698300 1_555
Ca1_3 Ca2_2 3.698302 1_556
Ca1_3 Ca2_4 3.698305 1_455
Ca1_3 Ca2_7 3.698307 1_455
Ca1_4 Mg0_4 3.411161 1_555
Ca1_4 Mg0_7 3.411161 1_555
Ca1_4 Ca2_6 3.698300 1_545
Ca1_4 Ca2_5 3.698302 1_555
Ca1_4 Ca2_3 3.698305 1_544
Ca1_4 Ca2_0 3.698307 1_555
Ca1_4 Ca1_7 4.144288 1_544
Ca1_4 Ca1_7 4.144288 1_555
Ca1_5 Mg0_5 3.411161 1_555
Ca1_5 Mg0_6 3.411161 1_556
Ca1_5 Ca2_7 3.698300 1_545
Ca1_5 Ca2_4 3.698302 1_556
Ca1_5 Ca2_2 3.698305 1_545
Ca1_5 Ca2_1 3.698307 1_555
Ca1_5 Ca1_6 4.144288 1_556
Ca1_5 Ca1_6 4.144288 1_545
Ca1_6 Mg0_6 3.411161 1_555
Ca1_6 Mg0_5 3.411161 1_565
Ca1_6 Ca2_4 3.698300 1_555
Ca1_6 Ca2_7 3.698302 1_555
Ca1_6 Ca2_1 3.698305 1_554
Ca1_6 Ca2_2 3.698307 1_555
Ca1_7 Mg0_7 3.411161 1_555
Ca1_7 Mg0_4 3.411161 1_566
Ca1_7 Ca2_5 3.698300 1_555
Ca1_7 Ca2_6 3.698302 1_556
Ca1_7 Ca2_0 3.698305 1_555
Ca1_7 Ca2_3 3.698307 1_555
Ca2_0 Mg0_3 3.411155 1_555
Ca2_0 Mg0_0 3.411157 1_555
Ca2_0 Ca2_3 4.144288 1_555
Ca2_0 Ca2_3 4.144288 1_544
Ca2_1 Mg0_2 3.411155 1_556
Ca2_1 Mg0_1 3.411157 1_555
Ca2_1 Ca2_2 4.144288 1_545
Ca2_1 Ca2_2 4.144288 1_556
Ca2_2 Mg0_1 3.411155 1_565
Ca2_2 Mg0_2 3.411157 1_555
Ca2_3 Mg0_0 3.411155 1_566
Ca2_3 Mg0_3 3.411157 1_555
Ca2_4 Mg0_7 3.411155 1_555
Ca2_4 Mg0_4 3.411157 1_555
Ca2_4 Ca2_7 4.144288 1_555
Ca2_4 Ca2_7 4.144288 1_544
Ca2_5 Mg0_6 3.411155 1_556
Ca2_5 Mg0_5 3.411157 1_555
Ca2_5 Ca2_6 4.144288 1_545
Ca2_5 Ca2_6 4.144288 1_556
Ca2_6 Mg0_5 3.411155 1_565
Ca2_6 Mg0_6 3.411157 1_555
Ca2_7 Mg0_4 3.411155 1_566
Ca2_7 Mg0_7 3.411157 1_555
