# generated using pymatgen
data_Sr2MgCu2(BiO4)2
_symmetry_space_group_name_H-M   'P 1'
_cell_length_a   3.71579190
_cell_length_b   3.71579322
_cell_length_c   15.66664794
_cell_angle_alpha   96.81068337
_cell_angle_beta   96.81068480
_cell_angle_gamma   90.00000987
_symmetry_Int_Tables_number   1
_chemical_formula_structural   Sr2MgCu2(BiO4)2
_chemical_formula_sum   'Sr2 Mg1 Cu2 Bi2 O8'
_cell_volume   213.24743527
_cell_formula_units_Z   1
loop_
 _symmetry_equiv_pos_site_id
 _symmetry_equiv_pos_as_xyz
  1  'x, y, z'
loop_
 _atom_site_type_symbol
 _atom_site_label
 _atom_site_symmetry_multiplicity
 _atom_site_fract_x
 _atom_site_fract_y
 _atom_site_fract_z
 _atom_site_occupancy
  Sr  Sr0  1  0.89274100  0.89274100  0.78548300  1
  Sr  Sr1  1  0.10725900  0.10725900  0.21451700  1
  Mg  Mg0  1  0.00000000  0.00000000  0.00000000  1
  Cu  Cu0  1  0.54520100  0.54520100  0.09040100  1
  Cu  Cu1  1  0.45479900  0.45479900  0.90959900  1
  Bi  Bi0  1  0.30017900  0.30017900  0.60035800  1
  Bi  Bi1  1  0.69982100  0.69982100  0.39964200  1
  O  O0  1  0.19889300  0.19889300  0.39778600  1
  O  O1  1  0.95418500  0.45418500  0.90836900  1
  O  O2  1  0.04581600  0.54581600  0.09163100  1
  O  O3  1  0.80110700  0.80110700  0.60221400  1
  O  O4  1  0.36764800  0.36764800  0.73529700  1
  O  O5  1  0.63235200  0.63235200  0.26470300  1
  O  O6  1  0.45418500  0.95418500  0.90836900  1
  O  O7  1  0.54581600  0.04581500  0.09163100  1
loop_
_geom_bond_atom_site_label_1
_geom_bond_atom_site_label_2
_geom_bond_distance
_geom_bond_site_symmetry_2
Mg0 O7 2.335511 1_455
Mg0 O6 2.335511 1_444
Mg0 O2 2.335511 1_545
Mg0 O1 2.335512 1_444
Mg0 O6 2.335514 1_544
Mg0 O7 2.335514 1_555
Mg0 O1 2.335514 1_454
Mg0 O2 2.335515 1_555
Cu0 O7 1.857990 1_565
Cu0 O2 1.857993 1_555
Cu0 O2 1.857993 1_655
Cu0 O7 1.857997 1_555
Cu0 O5 2.692051 1_555
Cu1 O1 1.857989 1_455
Cu1 O6 1.857990 1_545
Cu1 O1 1.857997 1_555
Cu1 O6 1.857997 1_555
Cu1 O4 2.692051 1_555
Bi0 O4 2.084099 1_555
Bi0 O3 2.627618 1_445
Bi0 O3 2.627618 1_555
Bi0 O3 2.627619 1_545
Bi0 O3 2.627619 1_455
Bi1 O5 2.084099 1_555
Bi1 O0 2.627618 1_665
Bi1 O0 2.627618 1_555
Bi1 O0 2.627619 1_565
Bi1 O0 2.627619 1_655
O0 Sr1 2.830544 1_555
O1 Sr0 2.655928 1_555
O1 Sr0 2.655934 1_545
O2 Sr1 2.655931 1_555
O2 Sr1 2.655931 1_565
O3 Sr0 2.830544 1_555
O4 Sr0 2.739407 1_445
O4 Sr0 2.739407 1_555
O4 Sr0 2.739408 1_545
O4 Sr0 2.739408 1_455
O5 Sr1 2.739407 1_665
O5 Sr1 2.739407 1_555
O5 Sr1 2.739408 1_565
O5 Sr1 2.739408 1_655
O6 Sr0 2.655928 1_555
O6 Sr0 2.655933 1_455
O7 Sr1 2.655930 1_555
O7 Sr1 2.655931 1_655
