# generated using pymatgen
data_Na3AlSi3Sn3(SO8)3
_symmetry_space_group_name_H-M   'P 1'
_cell_length_a   8.79020814
_cell_length_b   8.81581191
_cell_length_c   22.69957850
_cell_angle_alpha   89.78275124
_cell_angle_beta   90.16528395
_cell_angle_gamma   119.85984494
_symmetry_Int_Tables_number   1
_chemical_formula_structural   Na3AlSi3Sn3(SO8)3
_chemical_formula_sum   'Na9 Al3 Si9 Sn9 S9 O72'
_cell_volume   1525.52072282
_cell_formula_units_Z   3
loop_
 _symmetry_equiv_pos_site_id
 _symmetry_equiv_pos_as_xyz
  1  'x, y, z'
loop_
 _atom_site_type_symbol
 _atom_site_label
 _atom_site_symmetry_multiplicity
 _atom_site_fract_x
 _atom_site_fract_y
 _atom_site_fract_z
 _atom_site_occupancy
  Na  Na0  1  0.35803933  0.36073994  0.24384457  1
  Na  Na1  1  0.64014660  0.62807199  0.75367746  1
  Na  Na2  1  0.97107232  0.29380467  0.41731595  1
  Na  Na3  1  0.99607626  0.00660093  0.49617437  1
  Na  Na4  1  0.00103149  0.98848102  0.00454991  1
  Na  Na5  1  0.66351311  0.34049065  0.83061320  1
  Na  Na6  1  0.66331630  0.31832892  0.33006031  1
  Na  Na7  1  0.31090534  0.65582050  0.16472650  1
  Na  Na8  1  0.30154491  0.64712374  0.66747808  1
  Al  Al0  1  0.98945069  0.01847016  0.35440108  1
  Al  Al1  1  0.68337635  0.34478895  0.68914280  1
  Al  Al2  1  0.69558191  0.34722522  0.18039535  1
  Si  Si0  1  0.98414504  0.28946173  0.25140648  1
  Si  Si1  1  0.30308415  0.28952060  0.74862886  1
  Si  Si2  1  0.99889481  0.70426994  0.74709202  1
  Si  Si3  1  0.95144988  0.33349091  0.58557789  1
  Si  Si4  1  0.96153789  0.62920656  0.08479019  1
  Si  Si5  1  0.38714573  0.33090241  0.09037301  1
  Si  Si6  1  0.62988851  0.67449413  0.91552083  1
  Si  Si7  1  0.62473789  0.94914211  0.41612337  1
  Si  Si8  1  0.33053776  0.36149009  0.41422030  1
  Sn  Sn0  1  0.00422489  0.99173788  0.85009636  1
  Sn  Sn1  1  0.01052360  0.01337479  0.64744882  1
  Sn  Sn2  1  0.00927299  0.00864751  0.14699542  1
  Sn  Sn3  1  0.66579350  0.35747378  0.98400981  1
  Sn  Sn4  1  0.66147421  0.31848450  0.48011751  1
  Sn  Sn5  1  0.34071021  0.65780624  0.02577270  1
  Sn  Sn6  1  0.32776237  0.65093942  0.51841423  1
  Sn  Sn7  1  0.33495026  0.66153280  0.31567653  1
  Sn  Sn8  1  0.32344978  0.65435796  0.81321404  1
  S  S0  1  0.28703086  0.99693182  0.25353552  1
  S  S1  1  0.71891974  0.71482606  0.25188892  1
  S  S2  1  0.70727433  0.00757114  0.74896101  1
  S  S3  1  0.37676798  0.04022505  0.58549014  1
  S  S4  1  0.66876001  0.62152820  0.58597270  1
  S  S5  1  0.66720241  0.05328998  0.08430296  1
  S  S6  1  0.03323348  0.36726662  0.91799803  1
  S  S7  1  0.33925883  0.95867161  0.91851163  1
  S  S8  1  0.03970016  0.67721809  0.41565029  1
  O  O0  1  0.19220311  0.01472293  0.30412271  1
  O  O1  1  0.82496219  0.80276797  0.30408463  1
  O  O2  1  0.96720973  0.17813992  0.31101957  1
  O  O3  1  0.21574322  0.17702620  0.80936929  1
  O  O4  1  0.94226692  0.77787096  0.80453551  1
  O  O5  1  0.81535196  0.04222844  0.80295383  1
  O  O6  1  0.78102529  0.96343161  0.69743108  1
  O  O7  1  0.17261899  0.22046340  0.69246280  1
  O  O8  1  0.03089384  0.82609360  0.68933076  1
  O  O9  1  0.79293125  0.81524710  0.19673723  1
  O  O10  1  0.04400267  0.20932999  0.19607945  1
  O  O11  1  0.18571612  0.96278914  0.19744028  1
  O  O12  1  0.84322443  0.34875180  0.63997654  1
  O  O13  1  0.48208107  0.13237216  0.63795861  1
  O  O14  1  0.64629913  0.51658869  0.63976278  1
  O  O15  1  0.87446812  0.50413935  0.14040436  1
  O  O16  1  0.64720115  0.13814255  0.13651873  1
  O  O17  1  0.50277079  0.34634088  0.14882777  1
  O  O18  1  0.45055971  0.28851067  0.02724236  1
  O  O19  1  0.86153506  0.55750094  0.02152780  1
  O  O20  1  0.69499362  0.15200883  0.02802222  1
  O  O21  1  0.44684917  0.14177635  0.52990730  1
  O  O22  1  0.68872022  0.54207446  0.53147704  1
  O  O23  1  0.85667909  0.31263013  0.52096236  1
  O  O24  1  0.53595726  0.70277956  0.97273782  1
  O  O25  1  0.14062051  0.45015505  0.97024459  1
  O  O26  1  0.30917859  0.84942801  0.97079402  1
  O  O27  1  0.53561821  0.83767333  0.47681530  1
  O  O28  1  0.27090199  0.44047936  0.46991954  1
  O  O29  1  0.14719216  0.71068014  0.46996687  1
  O  O30  1  0.11386465  0.62926187  0.36442896  1
  O  O31  1  0.49581035  0.87335163  0.35900460  1
  O  O32  1  0.37264108  0.47916591  0.35408890  1
  O  O33  1  0.10353442  0.47632809  0.86330646  1
  O  O34  1  0.35570825  0.87721231  0.86295923  1
  O  O35  1  0.51917507  0.64859956  0.85428170  1
  O  O36  1  0.02127466  0.82976955  0.40422699  1
  O  O37  1  0.81691614  0.96680393  0.40832703  1
  O  O38  1  0.15894060  0.16957946  0.40534967  1
  O  O39  1  0.02603772  0.19681855  0.91095921  1
  O  O40  1  0.18293194  0.98363621  0.91459192  1
  O  O41  1  0.82469428  0.85351276  0.91234413  1
  O  O42  1  0.97063001  0.15467812  0.58667276  1
  O  O43  1  0.19573431  0.01456997  0.58630882  1
  O  O44  1  0.82593889  0.79906981  0.58870750  1
  O  O45  1  0.96839005  0.81797312  0.09121545  1
  O  O46  1  0.82065252  0.02608907  0.08868230  1
  O  O47  1  0.18516636  0.16747524  0.08877830  1
  O  O48  1  0.68635684  0.16217731  0.73974363  1
  O  O49  1  0.49582465  0.31085068  0.73717309  1
  O  O50  1  0.82756305  0.51163891  0.74029038  1
  O  O51  1  0.69334249  0.53565690  0.24776617  1
  O  O52  1  0.80911432  0.30476352  0.23976183  1
  O  O53  1  0.45951281  0.15768864  0.24879294  1
  O  O54  1  0.64426152  0.49453121  0.91655292  1
  O  O55  1  0.85158398  0.33777686  0.92283771  1
  O  O56  1  0.50283192  0.13180269  0.92163179  1
  O  O57  1  0.66242353  0.15290146  0.41954083  1
  O  O58  1  0.51329485  0.36074294  0.42476311  1
  O  O59  1  0.86525099  0.51585900  0.42264961  1
  O  O60  1  0.37957565  0.51440431  0.08625388  1
  O  O61  1  0.16179197  0.65764979  0.07818394  1
  O  O62  1  0.50494349  0.87906997  0.08103139  1
  O  O63  1  0.36694016  0.86754965  0.58135534  1
  O  O64  1  0.50802889  0.63961422  0.58291011  1
  O  O65  1  0.14887134  0.51476520  0.58134540  1
  O  O66  1  0.31080838  0.84041407  0.25686315  1
  O  O67  1  0.53720047  0.69483864  0.25334987  1
  O  O68  1  0.17050223  0.48775671  0.25524471  1
  O  O69  1  0.33567934  0.49166738  0.75382927  1
  O  O70  1  0.18025974  0.69829045  0.75593664  1
  O  O71  1  0.53246763  0.84910916  0.75582311  1
loop_
_geom_bond_atom_site_label_1
_geom_bond_atom_site_label_2
_geom_bond_distance
_geom_bond_site_symmetry_2
Na0 O53 2.366510 1_555
Na0 O68 2.425093 1_555
Na0 O17 2.542703 1_555
Na0 O51 2.558652 1_555
Na0 O67 2.566290 1_555
Na0 O10 2.627173 1_555
Na0 O32 2.693229 1_555
Na1 O69 2.324680 1_555
Na1 O50 2.355645 1_555
Na1 O49 2.458249 1_555
Na1 O71 2.555969 1_555
Na1 O35 2.566598 1_555
Na1 O4 2.575097 1_555
Na1 O14 2.779982 1_555
Na1 O6 2.870405 1_555
Na2 O57 2.356027 1_555
Na2 O38 2.409555 1_655
Na2 O37 2.510242 1_545
Na2 O59 2.554942 1_555
Na2 O28 2.577613 1_655
Na2 O23 2.599380 1_555
Na2 O2 2.616603 1_555
Na2 O30 2.836904 1_655
Na3 O37 2.452893 1_545
Na3 O42 2.507578 1_555
Na3 O38 2.512125 1_655
Na3 O43 2.669992 1_655
Na3 O36 2.684532 1_645
Na3 O44 2.694489 1_545
Na4 O45 2.400698 1_455
Na4 O47 2.495424 1_565
Na4 O41 2.522465 1_454
Na4 O40 2.610698 1_554
Na4 O46 2.610920 1_465
Na4 O39 2.739730 1_564
Na5 O54 2.434997 1_555
Na5 O49 2.518431 1_555
Na5 O50 2.527197 1_555
Na5 O56 2.654967 1_555
Na5 O48 2.665983 1_555
Na5 O55 2.671177 1_555
Na6 O52 2.455166 1_555
Na6 O53 2.468287 1_555
Na6 O57 2.493754 1_555
Na6 O51 2.588855 1_555
Na6 O58 2.648311 1_555
Na6 O59 2.743869 1_555
Na7 O61 2.362927 1_555
Na7 O60 2.421576 1_555
Na7 O68 2.472043 1_555
Na7 O62 2.653259 1_555
Na7 O66 2.655120 1_555
Na7 O67 2.724515 1_555
Na8 O65 2.329839 1_555
Na8 O70 2.422833 1_555
Na8 O69 2.489189 1_555
Na8 O63 2.606490 1_555
Na8 O64 2.669184 1_555
Na8 O71 2.777971 1_555
Al0 O2 1.803256 1_555
Al0 O37 1.823353 1_545
Al0 O38 1.832281 1_655
Al0 O1 2.068885 1_545
Al0 O0 2.133229 1_655
Al0 O36 2.138262 1_645
Al1 O12 1.783527 1_555
Al1 O50 1.807221 1_555
Al1 O49 1.874266 1_555
Al1 O48 1.984815 1_555
Al1 O14 2.032995 1_555
Al1 O13 2.166271 1_555
Al2 O15 1.744411 1_555
Al2 O52 1.820026 1_555
Al2 O17 1.834647 1_555
Al2 O16 1.949683 1_555
Al2 O51 2.269499 1_555
Al2 O53 2.460660 1_555
O0 S0 1.474821 1_545
O1 S1 1.467899 1_555
O2 Si0 1.631575 1_555
O3 Si1 1.646685 1_555
O3 Sn0 1.988493 1_545
O4 Si2 1.643419 1_555
O4 Sn0 1.977381 1_655
O5 S2 1.484964 1_555
O5 Sn0 2.195825 1_645
O6 S2 1.482880 1_565
O6 Sn1 2.162346 1_665
O7 Si1 1.616645 1_555
O7 Sn1 1.955192 1_555
O8 Si2 1.625520 1_455
O8 Sn1 1.985777 1_565
O9 S1 1.482256 1_555
O9 Sn2 2.137167 1_665
O10 Si0 1.653429 1_455
O10 Sn2 1.984888 1_555
O11 S0 1.494844 1_555
O11 Sn2 2.119143 1_565
O12 Si3 1.607295 1_555
O13 S3 1.479034 1_555
O14 S4 1.482112 1_555
O15 Si4 1.596831 1_555
O16 S5 1.460906 1_555
O17 Si5 1.633411 1_555
O18 Si5 1.649270 1_555
O18 Sn3 1.942418 1_554
O19 Si4 1.637309 1_555
O19 Sn3 1.943463 1_554
O20 S5 1.493612 1_555
O20 Sn3 2.189227 1_554
O21 S3 1.489844 1_555
O21 Sn4 2.082274 1_555
O22 S4 1.477109 1_555
O22 Sn4 2.201731 1_555
O23 Si3 1.649723 1_555
O23 Sn4 1.971095 1_555
O24 Si6 1.626181 1_555
O24 Sn5 1.970477 1_556
O25 S6 1.464518 1_555
O25 Sn5 2.198186 1_556
O26 S7 1.464739 1_555
O26 Sn5 2.221779 1_556
O27 Si7 1.645227 1_555
O27 Sn6 1.985720 1_555
O28 Si8 1.652960 1_555
O28 Sn6 1.998229 1_555
O29 S8 1.489462 1_555
O29 Sn6 2.196381 1_555
O30 S8 1.496049 1_555
O30 Sn7 2.131167 1_555
O31 Si7 1.629718 1_555
O31 Sn7 1.957139 1_555
O32 Si8 1.638950 1_555
O32 Sn7 1.993210 1_555
O33 S6 1.500433 1_555
O33 Sn8 2.114507 1_555
O34 S7 1.496027 1_555
O34 Sn8 2.162302 1_555
O35 Si6 1.644684 1_555
O35 Sn8 1.977111 1_555
O36 S8 1.454697 1_555
O37 Si7 1.627531 1_555
O38 Si8 1.624131 1_555
O39 S6 1.481409 1_555
O39 Sn0 2.210519 1_545
O40 S7 1.498306 1_555
O40 Sn0 2.171120 1_555
O41 Si6 1.654384 1_555
O41 Sn0 2.014158 1_655
O42 Si3 1.666836 1_555
O42 Sn1 1.999295 1_655
O43 S3 1.491832 1_555
O43 Sn1 2.138365 1_555
O44 S4 1.486422 1_555
O44 Sn1 2.221294 1_665
O45 Si4 1.642015 1_555
O45 Sn2 1.992473 1_665
O46 S5 1.485911 1_555
O46 Sn2 2.182760 1_655
O47 Si5 1.637729 1_555
O47 Sn2 1.984819 1_555
O48 S2 1.477315 1_555
O49 Si1 1.630438 1_555
O50 Si2 1.621669 1_555
O51 S1 1.483771 1_555
O52 Si0 1.630728 1_555
O53 S0 1.476133 1_545
O54 Si6 1.653133 1_555
O54 Sn3 2.013075 1_555
O55 S6 1.488848 1_655
O55 Sn3 2.218725 1_555
O56 S7 1.488940 1_545
O56 Sn3 2.277451 1_555
O57 Si7 1.658566 1_545
O57 Sn4 2.012252 1_555
O58 Si8 1.626769 1_555
O58 Sn4 1.970890 1_555
O59 S8 1.492592 1_655
O59 Sn4 2.197864 1_555
O60 Si5 1.654143 1_555
O60 Sn5 2.003490 1_555
O61 Si4 1.657001 1_455
O61 Sn5 1.974213 1_555
O62 S5 1.489193 1_565
O62 Sn5 2.160200 1_555
O63 S3 1.484479 1_565
O63 Sn6 2.273643 1_555
O64 S4 1.500031 1_555
O64 Sn6 2.192553 1_555
O65 Si3 1.677172 1_455
O65 Sn6 2.018599 1_555
O66 S0 1.496535 1_555
O66 Sn7 2.151715 1_555
O67 S1 1.517784 1_555
O67 Sn7 2.177168 1_555
O68 Si0 1.701709 1_455
O68 Sn7 2.029200 1_555
O69 Si1 1.662778 1_555
O69 Sn8 2.013649 1_555
O70 Si2 1.632920 1_455
O70 Sn8 1.974046 1_555
O71 S2 1.482955 1_565
O71 Sn8 2.208244 1_555
