# generated using pymatgen
data_Mg(CrS2)4
_symmetry_space_group_name_H-M   'P 1'
_cell_length_a   8.40439287
_cell_length_b   8.35137314
_cell_length_c   6.54454977
_cell_angle_alpha   67.98706342
_cell_angle_beta   68.03631851
_cell_angle_gamma   45.84998827
_symmetry_Int_Tables_number   1
_chemical_formula_structural   Mg(CrS2)4
_chemical_formula_sum   'Mg1 Cr4 S8'
_cell_volume   301.12824022
_cell_formula_units_Z   1
loop_
 _symmetry_equiv_pos_site_id
 _symmetry_equiv_pos_as_xyz
  1  'x, y, z'
loop_
 _atom_site_type_symbol
 _atom_site_label
 _atom_site_symmetry_multiplicity
 _atom_site_fract_x
 _atom_site_fract_y
 _atom_site_fract_z
 _atom_site_occupancy
  Mg  Mg0  1  0.38142815  0.37085182  0.36405958  1
  Cr  Cr0  1  0.56269605  0.56672371  0.42993810  1
  Cr  Cr1  1  0.95035177  0.41864830  0.56833494  1
  Cr  Cr2  1  0.56637981  0.56644508  0.94350133  1
  Cr  Cr3  1  0.41905142  0.94806308  0.56722324  1
  S  S0  1  0.28781607  0.76847149  0.72136908  1
  S  S1  1  0.71959164  0.72551311  0.75981706  1
  S  S2  1  0.76384942  0.29172813  0.72173509  1
  S  S3  1  0.71851650  0.72218786  0.30537853  1
  S  S4  1  0.23516669  0.23231149  0.27986958  1
  S  S5  1  0.75019411  0.27920001  0.23378364  1
  S  S6  1  0.24415268  0.24221840  0.74022398  1
  S  S7  1  0.28043369  0.74727151  0.23476386  1
loop_
_geom_bond_atom_site_label_1
_geom_bond_atom_site_label_2
_geom_bond_distance
_geom_bond_site_symmetry_2
Mg0 S4 2.473676 1_555
Mg0 S5 2.475085 1_555
Mg0 S7 2.478887 1_555
Mg0 S6 2.482971 1_555
Cr0 S3 2.200421 1_555
Cr0 S7 2.317882 1_555
Cr0 S5 2.328808 1_555
Cr0 S2 2.344748 1_555
Cr0 S0 2.346081 1_555
Cr1 S2 2.219893 1_555
Cr1 S6 2.302280 1_655
Cr1 S4 2.312624 1_655
Cr1 S3 2.354004 1_555
Cr1 S1 2.359012 1_555
Cr2 S1 2.212651 1_555
Cr2 S7 2.316225 1_556
Cr2 S5 2.316627 1_556
Cr2 S2 2.348290 1_555
Cr2 S0 2.376059 1_555
Cr3 S0 2.195829 1_555
Cr3 S4 2.297177 1_565
Cr3 S6 2.299377 1_565
Cr3 S3 2.326484 1_555
Cr3 S1 2.347033 1_555
