# generated using pymatgen
data_Na9Ca4Ta2(PO4)9
_symmetry_space_group_name_H-M   'P 1'
_cell_length_a   15.98082573
_cell_length_b   27.74500830
_cell_length_c   9.18898054
_cell_angle_alpha   90.05397929
_cell_angle_beta   125.25847882
_cell_angle_gamma   89.93903929
_symmetry_Int_Tables_number   1
_chemical_formula_structural   Na9Ca4Ta2(PO4)9
_chemical_formula_sum   'Na36 Ca16 Ta8 P36 O144'
_cell_volume   3326.88028722
_cell_formula_units_Z   4
loop_
 _symmetry_equiv_pos_site_id
 _symmetry_equiv_pos_as_xyz
  1  'x, y, z'
loop_
 _atom_site_type_symbol
 _atom_site_label
 _atom_site_symmetry_multiplicity
 _atom_site_fract_x
 _atom_site_fract_y
 _atom_site_fract_z
 _atom_site_occupancy
  Na  Na0  1  0.26325093  0.25164815  0.01440805  1
  Na  Na1  1  0.25421706  0.58145294  0.01010899  1
  Na  Na2  1  0.25105724  0.91579038  0.01330094  1
  Na  Na3  1  0.75668544  0.24939465  0.50707929  1
  Na  Na4  1  0.77158022  0.60390249  0.52409753  1
  Na  Na5  1  0.74689674  0.90296978  0.51185624  1
  Na  Na6  1  0.75421706  0.08145294  0.01010899  1
  Na  Na7  1  0.75105724  0.41579038  0.01330094  1
  Na  Na8  1  0.76325093  0.75164815  0.01440805  1
  Na  Na9  1  0.27158022  0.10390249  0.52409753  1
  Na  Na10  1  0.24689674  0.40296978  0.51185624  1
  Na  Na11  1  0.25668544  0.74939465  0.50707929  1
  Na  Na12  1  0.50472380  0.03957168  0.77262771  1
  Na  Na13  1  0.50841167  0.37504126  0.78060286  1
  Na  Na14  1  0.50469970  0.69878349  0.78728084  1
  Na  Na15  1  0.50542854  0.30188505  0.27109832  1
  Na  Na16  1  0.49520776  0.63630225  0.26102189  1
  Na  Na17  1  0.50063956  0.97223221  0.27293512  1
  Na  Na18  1  0.00469970  0.19878349  0.78728084  1
  Na  Na19  1  0.00472380  0.53957168  0.77262771  1
  Na  Na20  1  0.00841167  0.87504126  0.78060286  1
  Na  Na21  1  0.99520776  0.13630225  0.26102189  1
  Na  Na22  1  0.00063956  0.47223221  0.27293512  1
  Na  Na23  1  0.00542854  0.80188505  0.27109832  1
  Na  Na24  1  0.83342369  0.97629811  0.23997988  1
  Na  Na25  1  0.17728752  0.63426744  0.26337803  1
  Na  Na26  1  0.18857501  0.96977953  0.30736250  1
  Na  Na27  1  0.17991259  0.68884867  0.74623975  1
  Na  Na28  1  0.80749557  0.02093038  0.74364205  1
  Na  Na29  1  0.80775236  0.35656147  0.72244440  1
  Na  Na30  1  0.33342369  0.47629811  0.23997988  1
  Na  Na31  1  0.67728752  0.13426744  0.26337803  1
  Na  Na32  1  0.68857501  0.46977953  0.30736250  1
  Na  Na33  1  0.67991259  0.18884867  0.74623975  1
  Na  Na34  1  0.30749557  0.52093038  0.74364205  1
  Na  Na35  1  0.30775236  0.85656147  0.72244440  1
  Ca  Ca0  1  0.08871045  0.58418070  0.54682496  1
  Ca  Ca1  1  0.09469930  0.92208594  0.55880802  1
  Ca  Ca2  1  0.89565627  0.25095479  0.94970443  1
  Ca  Ca3  1  0.89695269  0.58219920  0.95686061  1
  Ca  Ca4  1  0.89049080  0.91819087  0.94583856  1
  Ca  Ca5  1  0.90618390  0.07986702  0.45913717  1
  Ca  Ca6  1  0.89439649  0.41502041  0.44495959  1
  Ca  Ca7  1  0.89651721  0.74722419  0.43274411  1
  Ca  Ca8  1  0.58871045  0.08418070  0.54682496  1
  Ca  Ca9  1  0.59469930  0.42208594  0.55880802  1
  Ca  Ca10  1  0.39695269  0.08219920  0.95686061  1
  Ca  Ca11  1  0.39049080  0.41819087  0.94583856  1
  Ca  Ca12  1  0.39565627  0.75095479  0.94970443  1
  Ca  Ca13  1  0.39651721  0.24722419  0.43274411  1
  Ca  Ca14  1  0.40618390  0.57986702  0.45913717  1
  Ca  Ca15  1  0.39439649  0.91502041  0.44495959  1
  Ta  Ta0  1  0.10100775  0.25281976  0.54393193  1
  Ta  Ta1  1  0.09927888  0.08667045  0.03325429  1
  Ta  Ta2  1  0.10517633  0.40953934  0.04946965  1
  Ta  Ta3  1  0.09931386  0.74994748  0.04957402  1
  Ta  Ta4  1  0.60100775  0.75281976  0.54393193  1
  Ta  Ta5  1  0.59931386  0.24994748  0.04957402  1
  Ta  Ta6  1  0.59927888  0.58667045  0.03325429  1
  Ta  Ta7  1  0.60517633  0.90953934  0.04946965  1
  P  P0  1  0.00001628  0.31530386  0.73623321  1
  P  P1  1  0.00991992  0.65097244  0.76723085  1
  P  P2  1  0.00180358  0.98483127  0.73889039  1
  P  P3  1  0.99476714  0.02136471  0.21253033  1
  P  P4  1  0.99888662  0.35038047  0.23131896  1
  P  P5  1  0.01795337  0.68526220  0.26610548  1
  P  P6  1  0.50991992  0.15097244  0.76723085  1
  P  P7  1  0.50180358  0.48483127  0.73889039  1
  P  P8  1  0.50001628  0.81530386  0.73623321  1
  P  P9  1  0.51795337  0.18526220  0.26610548  1
  P  P10  1  0.49476714  0.52136471  0.21253033  1
  P  P11  1  0.49888662  0.85038047  0.23131896  1
  P  P12  1  0.34812088  0.29551004  0.74019671  1
  P  P13  1  0.34491465  0.63066979  0.74490334  1
  P  P14  1  0.35295512  0.95974553  0.76402543  1
  P  P15  1  0.64097815  0.30019694  0.73649076  1
  P  P16  1  0.64298494  0.64032122  0.73312897  1
  P  P17  1  0.64313479  0.96569300  0.74392811  1
  P  P18  1  0.64996085  0.02543716  0.23844053  1
  P  P19  1  0.64176298  0.36491857  0.23134307  1
  P  P20  1  0.64221665  0.69831625  0.23804230  1
  P  P21  1  0.34714386  0.03624069  0.27170067  1
  P  P22  1  0.35725224  0.37019186  0.27916648  1
  P  P23  1  0.34508082  0.70318460  0.24630932  1
  P  P24  1  0.84491465  0.13066979  0.74490334  1
  P  P25  1  0.85295512  0.45974553  0.76402543  1
  P  P26  1  0.84812088  0.79551004  0.74019671  1
  P  P27  1  0.14298494  0.14032122  0.73312897  1
  P  P28  1  0.14313479  0.46569300  0.74392811  1
  P  P29  1  0.14097815  0.80019694  0.73649076  1
  P  P30  1  0.14221665  0.19831625  0.23804230  1
  P  P31  1  0.14996085  0.52543716  0.23844053  1
  P  P32  1  0.14176298  0.86491857  0.23134307  1
  P  P33  1  0.84508082  0.20318460  0.24630932  1
  P  P34  1  0.84714386  0.53624069  0.27170067  1
  P  P35  1  0.85725224  0.87019186  0.27916648  1
  O  O0  1  0.13961748  0.19802828  0.72445895  1
  O  O1  1  0.16476231  0.51992005  0.79009169  1
  O  O2  1  0.15676852  0.85434916  0.77635364  1
  O  O3  1  0.83780228  0.18609544  0.73680271  1
  O  O4  1  0.85995416  0.51458698  0.77312411  1
  O  O5  1  0.84339117  0.84917163  0.76811422  1
  O  O6  1  0.83672054  0.15103911  0.29058432  1
  O  O7  1  0.81712070  0.48368339  0.26922606  1
  O  O8  1  0.84862580  0.81663142  0.23089638  1
  O  O9  1  0.14407348  0.14101065  0.24068434  1
  O  O10  1  0.14961552  0.46795251  0.21318250  1
  O  O11  1  0.14333899  0.80793913  0.20304297  1
  O  O12  1  0.66476231  0.01992005  0.79009169  1
  O  O13  1  0.65676852  0.35434916  0.77635364  1
  O  O14  1  0.63961748  0.69802828  0.72445895  1
  O  O15  1  0.35995416  0.01458698  0.77312411  1
  O  O16  1  0.34339117  0.34917163  0.76811422  1
  O  O17  1  0.33780228  0.68609544  0.73680271  1
  O  O18  1  0.34862580  0.31663142  0.23089638  1
  O  O19  1  0.33672054  0.65103911  0.29058432  1
  O  O20  1  0.31712070  0.98368339  0.26922606  1
  O  O21  1  0.64333899  0.30793913  0.20304297  1
  O  O22  1  0.64407348  0.64101065  0.24068434  1
  O  O23  1  0.64961552  0.96795251  0.21318250  1
  O  O24  1  0.46915925  0.18397560  0.60970203  1
  O  O25  1  0.45710318  0.50335857  0.55103274  1
  O  O26  1  0.42603040  0.84566987  0.57796361  1
  O  O27  1  0.56568915  0.18616748  0.94128696  1
  O  O28  1  0.54564497  0.53329124  0.86729764  1
  O  O29  1  0.56681314  0.84839372  0.90705985  1
  O  O30  1  0.59224225  0.16524303  0.45652712  1
  O  O31  1  0.56236682  0.48514053  0.36144222  1
  O  O32  1  0.55670475  0.80959206  0.38649990  1
  O  O33  1  0.48509481  0.14437405  0.13423184  1
  O  O34  1  0.41485532  0.49723691  0.03581610  1
  O  O35  1  0.42467077  0.82555116  0.05525739  1
  O  O36  1  0.95710318  0.00335857  0.55103274  1
  O  O37  1  0.92603040  0.34566987  0.57796361  1
  O  O38  1  0.96915925  0.68397560  0.60970203  1
  O  O39  1  0.04564497  0.03329124  0.86729764  1
  O  O40  1  0.06681314  0.34839372  0.90705985  1
  O  O41  1  0.06568915  0.68616748  0.94128696  1
  O  O42  1  0.05670475  0.30959206  0.38649990  1
  O  O43  1  0.09224225  0.66524303  0.45652712  1
  O  O44  1  0.06236682  0.98514053  0.36144222  1
  O  O45  1  0.92467077  0.32555116  0.05525739  1
  O  O46  1  0.98509481  0.64437405  0.13423184  1
  O  O47  1  0.91485532  0.99723691  0.03581610  1
  O  O48  1  0.24993761  0.27078452  0.71730795  1
  O  O49  1  0.27423699  0.60682964  0.78673324  1
  O  O50  1  0.28181118  0.93674156  0.80562223  1
  O  O51  1  0.73312521  0.27662989  0.75078532  1
  O  O52  1  0.74179553  0.62087384  0.77167705  1
  O  O53  1  0.72555427  0.94193427  0.73184464  1
  O  O54  1  0.74681970  0.04507293  0.25824158  1
  O  O55  1  0.73100175  0.38895119  0.24201207  1
  O  O56  1  0.73504539  0.71845583  0.25648469  1
  O  O57  1  0.24023630  0.06554324  0.17676660  1
  O  O58  1  0.24756158  0.38873312  0.22513717  1
  O  O59  1  0.25621146  0.73278672  0.23064407  1
  O  O60  1  0.77423699  0.10682964  0.78673324  1
  O  O61  1  0.78181118  0.43674156  0.80562223  1
  O  O62  1  0.74993761  0.77078452  0.71730795  1
  O  O63  1  0.24179553  0.12087384  0.77167705  1
  O  O64  1  0.22555427  0.44193427  0.73184464  1
  O  O65  1  0.23312521  0.77662989  0.75078532  1
  O  O66  1  0.23504539  0.21845583  0.25648469  1
  O  O67  1  0.24681970  0.54507293  0.25824158  1
  O  O68  1  0.23100175  0.88895119  0.24201207  1
  O  O69  1  0.75621146  0.23278672  0.23064407  1
  O  O70  1  0.74023630  0.56554324  0.17676660  1
  O  O71  1  0.74756158  0.88873312  0.22513717  1
  O  O72  1  0.34576919  0.28435553  0.57896836  1
  O  O73  1  0.32624892  0.60954250  0.57555522  1
  O  O74  1  0.32522119  0.94049343  0.58572129  1
  O  O75  1  0.62757694  0.27626663  0.88434099  1
  O  O76  1  0.63005675  0.62953432  0.89020704  1
  O  O77  1  0.64340179  0.94150125  0.90519150  1
  O  O78  1  0.64948629  0.03253248  0.40531787  1
  O  O79  1  0.64435858  0.36923389  0.40176521  1
  O  O80  1  0.63372620  0.71321229  0.40045403  1
  O  O81  1  0.39046437  0.04132940  0.16133427  1
  O  O82  1  0.38075450  0.40219429  0.17076757  1
  O  O83  1  0.33924520  0.70454415  0.07532307  1
  O  O84  1  0.82624892  0.10954250  0.57555522  1
  O  O85  1  0.82522119  0.44049343  0.58572129  1
  O  O86  1  0.84576919  0.78435553  0.57896836  1
  O  O87  1  0.13005675  0.12953432  0.89020704  1
  O  O88  1  0.14340179  0.44150125  0.90519150  1
  O  O89  1  0.12757694  0.77626663  0.88434099  1
  O  O90  1  0.13372620  0.21321229  0.40045403  1
  O  O91  1  0.14948629  0.53253248  0.40531787  1
  O  O92  1  0.14435858  0.86923389  0.40176521  1
  O  O93  1  0.83924520  0.20454415  0.07532307  1
  O  O94  1  0.89046437  0.54132940  0.16133427  1
  O  O95  1  0.88075450  0.90219429  0.17076757  1
  O  O96  1  0.45125181  0.27314919  0.91434790  1
  O  O97  1  0.46122186  0.61682384  0.90490003  1
  O  O98  1  0.46674101  0.93670125  0.91159052  1
  O  O99  1  0.54502387  0.28747667  0.55642086  1
  O  O100  1  0.54816555  0.62280042  0.55884584  1
  O  O101  1  0.53690906  0.95906171  0.57360977  1
  O  O102  1  0.55596854  0.04686407  0.07078812  1
  O  O103  1  0.54152796  0.38285424  0.06441785  1
  O  O104  1  0.54271146  0.71396614  0.06788437  1
  O  O105  1  0.41967368  0.05854649  0.45759547  1
  O  O106  1  0.43389997  0.38307922  0.47678266  1
  O  O107  1  0.45336094  0.72637227  0.40282530  1
  O  O108  1  0.96122186  0.11682384  0.90490003  1
  O  O109  1  0.96674101  0.43670125  0.91159052  1
  O  O110  1  0.95125181  0.77314919  0.91434790  1
  O  O111  1  0.04816555  0.12280042  0.55884584  1
  O  O112  1  0.03690906  0.45906171  0.57360977  1
  O  O113  1  0.04502387  0.78747667  0.55642086  1
  O  O114  1  0.04271146  0.21396614  0.06788437  1
  O  O115  1  0.05596854  0.54686407  0.07078812  1
  O  O116  1  0.04152796  0.88285424  0.06441785  1
  O  O117  1  0.95336094  0.22637227  0.40282530  1
  O  O118  1  0.91967368  0.55854649  0.45759547  1
  O  O119  1  0.93389997  0.88307922  0.47678266  1
  O  O120  1  0.07830599  0.28818741  0.71026086  1
  O  O121  1  0.09834413  0.61936239  0.79689934  1
  O  O122  1  0.09270382  0.95131791  0.80473245  1
  O  O123  1  0.94211025  0.27669107  0.76400463  1
  O  O124  1  0.92892052  0.61984369  0.76120055  1
  O  O125  1  0.91927524  0.96111266  0.75119390  1
  O  O126  1  0.93875973  0.05871365  0.25182841  1
  O  O127  1  0.94906858  0.38885986  0.27535455  1
  O  O128  1  0.93168645  0.71815712  0.23378698  1
  O  O129  1  0.07467533  0.05042221  0.19101918  1
  O  O130  1  0.08631926  0.37604715  0.22991228  1
  O  O131  1  0.09008013  0.72087679  0.24035922  1
  O  O132  1  0.59834413  0.11936239  0.79689934  1
  O  O133  1  0.59270382  0.45131791  0.80473245  1
  O  O134  1  0.57830599  0.78818741  0.71026086  1
  O  O135  1  0.42892052  0.11984369  0.76120055  1
  O  O136  1  0.41927524  0.46111266  0.75119390  1
  O  O137  1  0.44211025  0.77669107  0.76400463  1
  O  O138  1  0.43168645  0.21815712  0.23378698  1
  O  O139  1  0.43875973  0.55871365  0.25182841  1
  O  O140  1  0.44906858  0.88885986  0.27535455  1
  O  O141  1  0.59008013  0.22087679  0.24035922  1
  O  O142  1  0.57467533  0.55042221  0.19101918  1
  O  O143  1  0.58631926  0.87604715  0.22991228  1
loop_
_geom_bond_atom_site_label_1
_geom_bond_atom_site_label_2
_geom_bond_distance
_geom_bond_site_symmetry_2
Na0 O138 2.430248 1_555
Na0 O18 2.436066 1_555
Na0 O48 2.666873 1_554
Na0 O0 2.671470 1_554
Na0 O66 2.676142 1_555
Na0 O120 2.834843 1_554
Na1 O121 2.348087 1_554
Na1 O49 2.360638 1_554
Na1 O1 2.389050 1_554
Na1 O139 2.542623 1_555
Na1 O67 2.558782 1_555
Na1 O19 2.860260 1_555
Na2 O50 2.303651 1_554
Na2 O122 2.333990 1_554
Na2 O68 2.419746 1_555
Na2 O2 2.475438 1_554
Na2 O20 2.706062 1_555
Na2 O140 2.751563 1_555
Na3 O3 2.462449 1_555
Na3 O141 2.487713 1_555
Na3 O69 2.576892 1_555
Na3 O51 2.587930 1_555
Na3 O123 2.617744 1_555
Na3 O21 2.807915 1_555
Na4 O124 2.222738 1_555
Na4 O22 2.422446 1_555
Na4 O52 2.621379 1_555
Na5 O5 2.441345 1_555
Na5 O53 2.482435 1_555
Na5 O143 2.485954 1_555
Na5 O71 2.669812 1_555
Na5 O125 2.834763 1_555
Na5 O23 2.877001 1_555
Na6 O132 2.348087 1_554
Na6 O60 2.360638 1_554
Na6 O12 2.389050 1_554
Na6 O126 2.542623 1_555
Na6 O54 2.558782 1_555
Na6 O6 2.860260 1_555
Na7 O61 2.303651 1_554
Na7 O133 2.333990 1_554
Na7 O55 2.419746 1_555
Na7 O13 2.475438 1_554
Na7 O7 2.706062 1_555
Na7 O127 2.751563 1_555
Na8 O128 2.430248 1_555
Na8 O8 2.436066 1_555
Na8 O62 2.666873 1_554
Na8 O14 2.671470 1_554
Na8 O56 2.676142 1_555
Na8 O134 2.834843 1_554
Na9 O135 2.222738 1_555
Na9 O9 2.422446 1_555
Na9 O63 2.621379 1_555
Na10 O16 2.441345 1_555
Na10 O64 2.482435 1_555
Na10 O130 2.485954 1_555
Na10 O58 2.669812 1_555
Na10 O136 2.834763 1_555
Na10 O10 2.877001 1_555
Na11 O17 2.462449 1_555
Na11 O131 2.487713 1_555
Na11 O59 2.576892 1_555
Na11 O65 2.587930 1_555
Na11 O137 2.617744 1_555
Na11 O11 2.807915 1_555
Na12 O102 2.372112 1_556
Na12 O15 2.418390 1_555
Na12 O105 2.441984 1_555
Na12 O135 2.507298 1_555
Na12 O12 2.527337 1_555
Na12 O132 2.609579 1_555
Na13 O106 2.329014 1_555
Na13 O103 2.352502 1_556
Na13 O133 2.450059 1_555
Na13 O13 2.460906 1_555
Na13 O16 2.671599 1_555
Na13 O136 2.711916 1_555
Na14 O104 2.320572 1_556
Na14 O137 2.338326 1_555
Na14 O17 2.454828 1_555
Na14 O76 2.531198 1_555
Na14 O14 2.533634 1_555
Na14 O97 2.774316 1_555
Na15 O18 2.347859 1_555
Na15 O99 2.349516 1_555
Na15 O138 2.537842 1_555
Na15 O79 2.605671 1_555
Na15 O21 2.620835 1_555
Na15 O141 2.719365 1_555
Na15 O96 2.975131 1_554
Na16 O139 2.317499 1_555
Na16 O100 2.381878 1_555
Na16 O22 2.495119 1_555
Na16 O19 2.729058 1_555
Na16 O83 2.791867 1_555
Na16 O80 2.797425 1_555
Na17 O81 2.395595 1_565
Na17 O140 2.460845 1_555
Na17 O101 2.501125 1_555
Na17 O78 2.569219 1_565
Na17 O23 2.737162 1_555
Na17 O20 2.930180 1_555
Na18 O114 2.320572 1_556
Na18 O123 2.338326 1_455
Na18 O3 2.454828 1_455
Na18 O87 2.531198 1_555
Na18 O0 2.533634 1_555
Na18 O108 2.774316 1_455
Na19 O115 2.372112 1_556
Na19 O4 2.418390 1_455
Na19 O118 2.441984 1_455
Na19 O124 2.507298 1_455
Na19 O1 2.527337 1_555
Na19 O121 2.609579 1_555
Na20 O119 2.329014 1_455
Na20 O116 2.352502 1_556
Na20 O122 2.450059 1_555
Na20 O2 2.460906 1_555
Na20 O5 2.671599 1_455
Na20 O125 2.711916 1_455
Na21 O126 2.317499 1_555
Na21 O111 2.381878 1_655
Na21 O9 2.495119 1_655
Na21 O6 2.729058 1_555
Na21 O93 2.791867 1_555
Na21 O90 2.797425 1_655
Na22 O94 2.395595 1_455
Na22 O127 2.460845 1_455
Na22 O112 2.501125 1_555
Na22 O91 2.569219 1_555
Na22 O10 2.737162 1_555
Na22 O7 2.930180 1_455
Na23 O8 2.347859 1_455
Na23 O113 2.349516 1_555
Na23 O128 2.537842 1_455
Na23 O92 2.605671 1_555
Na23 O11 2.620835 1_555
Na23 O131 2.719365 1_555
Na23 O110 2.975131 1_454
Na24 O95 2.398625 1_555
Na24 O54 2.417975 1_565
Na24 O36 2.473185 1_565
Na24 O126 2.805405 1_565
Na25 O19 2.457151 1_555
Na25 O73 2.546079 1_555
Na25 O46 2.590573 1_455
Na25 O131 2.723010 1_555
Na25 O67 2.723157 1_555
Na25 O41 2.814671 1_554
Na25 O43 2.918113 1_555
Na25 O115 2.968504 1_555
Na26 O20 2.307531 1_555
Na26 O74 2.350056 1_555
Na26 O44 2.377278 1_555
Na26 O68 2.512724 1_555
Na26 O129 2.685401 1_565
Na27 O43 2.274086 1_555
Na27 O121 2.517995 1_555
Na27 O65 2.572881 1_555
Na27 O17 2.575291 1_555
Na27 O83 2.632030 1_556
Na27 O49 2.633596 1_555
Na27 O38 2.838647 1_455
Na28 O47 2.294918 1_546
Na28 O125 2.408527 1_545
Na28 O60 2.521465 1_555
Na28 O53 2.524290 1_545
Na28 O12 2.551490 1_555
Na28 O78 2.661135 1_555
Na29 O61 2.462831 1_555
Na29 O79 2.596450 1_555
Na29 O51 2.602618 1_555
Na29 O45 2.643564 1_556
Na29 O13 2.729711 1_555
Na29 O85 2.736964 1_555
Na29 O37 2.884786 1_555
Na29 O123 2.951532 1_555
Na30 O82 2.398625 1_555
Na30 O67 2.417975 1_555
Na30 O25 2.473185 1_555
Na30 O139 2.805405 1_555
Na31 O6 2.457151 1_555
Na31 O84 2.546079 1_555
Na31 O33 2.590573 1_555
Na31 O141 2.723010 1_555
Na31 O54 2.723157 1_555
Na31 O27 2.814671 1_554
Na31 O30 2.918113 1_555
Na31 O102 2.968504 1_555
Na32 O7 2.307531 1_555
Na32 O85 2.350056 1_555
Na32 O31 2.377278 1_555
Na32 O55 2.512724 1_555
Na32 O142 2.685401 1_555
Na33 O30 2.274086 1_555
Na33 O132 2.517995 1_555
Na33 O51 2.572881 1_555
Na33 O3 2.575291 1_555
Na33 O93 2.632030 1_556
Na33 O60 2.633596 1_555
Na33 O24 2.838647 1_555
Na34 O34 2.294918 1_556
Na34 O136 2.408527 1_555
Na34 O49 2.521465 1_555
Na34 O64 2.524290 1_555
Na34 O1 2.551490 1_555
Na34 O91 2.661135 1_555
Na35 O50 2.462831 1_555
Na35 O92 2.596450 1_555
Na35 O65 2.602618 1_555
Na35 O35 2.643564 1_556
Na35 O2 2.729711 1_555
Na35 O74 2.736964 1_555
Na35 O26 2.884786 1_555
Na35 O137 2.951532 1_555
Ca0 O43 2.409949 1_555
Ca0 O121 2.417567 1_555
Ca0 O118 2.433351 1_455
Ca0 O91 2.477733 1_555
Ca0 O49 2.549593 1_555
Ca0 O1 2.553244 1_555
Ca1 O44 2.353472 1_555
Ca1 O122 2.417678 1_555
Ca1 O119 2.472035 1_455
Ca1 O92 2.485602 1_555
Ca1 O2 2.495157 1_555
Ca1 O50 2.534070 1_555
Ca2 O114 2.192217 1_656
Ca2 O45 2.217734 1_556
Ca2 O93 2.238275 1_556
Ca2 O51 2.260999 1_555
Ca2 O123 2.332107 1_555
Ca2 O3 2.414339 1_555
Ca3 O46 2.228369 1_556
Ca3 O94 2.248562 1_556
Ca3 O52 2.306853 1_555
Ca3 O115 2.332381 1_656
Ca3 O4 2.358600 1_555
Ca3 O124 2.376864 1_555
Ca4 O95 2.205969 1_556
Ca4 O116 2.221478 1_656
Ca4 O53 2.294113 1_555
Ca4 O47 2.296032 1_556
Ca4 O5 2.340634 1_555
Ca4 O125 2.404967 1_555
Ca5 O111 2.238353 1_655
Ca5 O84 2.242306 1_555
Ca5 O36 2.255564 1_555
Ca5 O126 2.320886 1_555
Ca5 O54 2.323732 1_555
Ca5 O6 2.355113 1_555
Ca6 O37 2.177288 1_555
Ca6 O112 2.229862 1_655
Ca6 O85 2.245456 1_555
Ca6 O55 2.280052 1_555
Ca6 O127 2.299501 1_555
Ca6 O7 2.336739 1_555
Ca7 O86 2.185897 1_555
Ca7 O38 2.211975 1_555
Ca7 O113 2.249555 1_655
Ca7 O56 2.257377 1_555
Ca7 O128 2.343329 1_555
Ca7 O8 2.469608 1_555
Ca8 O30 2.409949 1_555
Ca8 O132 2.417567 1_555
Ca8 O105 2.433351 1_555
Ca8 O78 2.477733 1_555
Ca8 O60 2.549593 1_555
Ca8 O12 2.553244 1_555
Ca9 O31 2.353472 1_555
Ca9 O133 2.417678 1_555
Ca9 O106 2.472035 1_555
Ca9 O79 2.485602 1_555
Ca9 O13 2.495157 1_555
Ca9 O61 2.534070 1_555
Ca10 O33 2.228369 1_556
Ca10 O81 2.248562 1_556
Ca10 O63 2.306853 1_555
Ca10 O102 2.332381 1_556
Ca10 O15 2.358600 1_555
Ca10 O135 2.376864 1_555
Ca11 O82 2.205969 1_556
Ca11 O103 2.221478 1_556
Ca11 O64 2.294113 1_555
Ca11 O34 2.296032 1_556
Ca11 O16 2.340634 1_555
Ca11 O136 2.404967 1_555
Ca12 O104 2.192217 1_556
Ca12 O35 2.217734 1_556
Ca12 O83 2.238275 1_556
Ca12 O65 2.260999 1_555
Ca12 O137 2.332107 1_555
Ca12 O17 2.414339 1_555
Ca13 O72 2.185897 1_555
Ca13 O24 2.211975 1_555
Ca13 O99 2.249555 1_555
Ca13 O66 2.257377 1_555
Ca13 O138 2.343329 1_555
Ca13 O18 2.469608 1_555
Ca14 O100 2.238353 1_555
Ca14 O73 2.242306 1_555
Ca14 O25 2.255564 1_555
Ca14 O139 2.320886 1_555
Ca14 O67 2.323732 1_555
Ca14 O19 2.355113 1_555
Ca15 O26 2.177288 1_555
Ca15 O101 2.229862 1_555
Ca15 O74 2.245456 1_555
Ca15 O68 2.280052 1_555
Ca15 O140 2.299501 1_555
Ca15 O20 2.336739 1_555
O0 P27 1.602441 1_555
O0 Ta0 2.065077 1_555
O1 P28 1.547141 1_555
O2 P29 1.532407 1_555
O3 P24 1.540558 1_555
O4 P25 1.524474 1_555
O5 P26 1.519736 1_555
O6 P33 1.529971 1_555
O7 P34 1.531635 1_555
O8 P35 1.533832 1_555
O9 P30 1.590136 1_555
O9 Ta1 2.200040 1_555
O10 P31 1.611051 1_555
O10 Ta2 2.039220 1_555
O11 P32 1.604429 1_555
O11 Ta3 1.981205 1_555
O12 P17 1.547141 1_545
O13 P15 1.532407 1_555
O14 P16 1.602441 1_555
O14 Ta4 2.065077 1_555
O15 P14 1.524474 1_545
O16 P12 1.519736 1_555
O17 P13 1.540558 1_555
O18 P22 1.533832 1_555
O19 P23 1.529971 1_555
O20 P21 1.531635 1_565
O21 P19 1.604429 1_555
O21 Ta5 1.981205 1_555
O22 P20 1.590136 1_555
O22 Ta6 2.200040 1_555
O23 P18 1.611051 1_565
O23 Ta7 2.039220 1_555
O24 P6 1.506891 1_555
O25 P7 1.526950 1_555
O26 P8 1.495926 1_555
O27 P6 1.630673 1_555
O27 Ta5 1.947218 1_556
O28 P7 1.653913 1_555
O28 Ta6 1.934671 1_556
O29 P8 1.584673 1_555
O29 Ta7 2.009513 1_556
O30 P9 1.543293 1_555
O31 P10 1.530736 1_555
O32 P11 1.627093 1_555
O32 Ta4 1.973461 1_555
O33 P9 1.514974 1_555
O34 P10 1.523617 1_555
O35 P11 1.510937 1_555
O36 P2 1.526950 1_645
O37 P0 1.495926 1_655
O38 P1 1.506891 1_655
O39 P2 1.653913 1_545
O39 Ta1 1.934671 1_556
O40 P0 1.584673 1_555
O40 Ta2 2.009513 1_556
O41 P1 1.630673 1_555
O41 Ta3 1.947218 1_556
O42 P4 1.627093 1_455
O42 Ta0 1.973461 1_555
O43 P5 1.543293 1_555
O44 P3 1.530736 1_465
O45 P4 1.510937 1_555
O46 P5 1.514974 1_655
O47 P3 1.523617 1_565
O48 P12 1.611761 1_555
O48 Ta0 2.018519 1_555
O49 P13 1.537628 1_555
O50 P14 1.532913 1_555
O51 P15 1.545348 1_555
O52 P16 1.504279 1_555
O53 P17 1.532499 1_555
O54 P18 1.549935 1_555
O55 P19 1.525937 1_555
O56 P20 1.500998 1_555
O57 P21 1.618184 1_555
O57 Ta1 1.930267 1_555
O58 P22 1.605530 1_555
O58 Ta2 1.968462 1_555
O59 P23 1.572886 1_555
O59 Ta3 2.112893 1_555
O60 P24 1.537628 1_555
O61 P25 1.532913 1_555
O62 P26 1.611761 1_555
O62 Ta4 2.018519 1_555
O63 P27 1.504279 1_555
O64 P28 1.532499 1_555
O65 P29 1.545348 1_555
O66 P30 1.500998 1_555
O67 P31 1.549935 1_555
O68 P32 1.525937 1_555
O69 P33 1.572886 1_555
O69 Ta5 2.112893 1_555
O70 P34 1.618184 1_555
O70 Ta6 1.930267 1_555
O71 P35 1.605530 1_555
O71 Ta7 1.968462 1_555
O72 P12 1.492308 1_555
O73 P13 1.522130 1_555
O74 P14 1.525346 1_555
O75 P15 1.634133 1_555
O75 Ta5 1.958846 1_556
O76 P16 1.600268 1_555
O76 Ta6 2.033392 1_556
O77 P17 1.625104 1_555
O77 Ta7 1.963572 1_556
O78 P18 1.550188 1_555
O79 P19 1.546962 1_555
O80 P20 1.627568 1_555
O80 Ta4 2.002784 1_555
O81 P21 1.529310 1_555
O82 P22 1.534898 1_555
O83 P23 1.519767 1_555
O84 P24 1.522130 1_555
O85 P25 1.525346 1_555
O86 P26 1.492308 1_555
O87 P27 1.600268 1_555
O87 Ta1 2.033392 1_556
O88 P28 1.625104 1_555
O88 Ta2 1.963572 1_556
O89 P29 1.634133 1_555
O89 Ta3 1.958846 1_556
O90 P30 1.627568 1_555
O90 Ta0 2.002784 1_555
O91 P31 1.550188 1_555
O92 P32 1.546962 1_555
O93 P33 1.519767 1_555
O94 P34 1.529310 1_555
O95 P35 1.534898 1_555
O96 P12 1.617637 1_555
O96 Ta5 2.039819 1_556
O97 P13 1.615056 1_555
O97 Ta6 1.988027 1_556
O98 P14 1.645126 1_555
O98 Ta7 1.956945 1_556
O99 P15 1.511460 1_555
O100 P16 1.515107 1_555
O101 P17 1.515839 1_555
O102 P18 1.520250 1_555
O103 P19 1.526211 1_555
O104 P20 1.513669 1_555
O105 P21 1.535584 1_555
O106 P22 1.535379 1_555
O107 P23 1.613694 1_555
O107 Ta4 2.063179 1_555
O108 P24 1.615056 1_555
O108 Ta1 1.988027 1_656
O109 P25 1.645126 1_555
O109 Ta2 1.956945 1_656
O110 P26 1.617637 1_555
O110 Ta3 2.039819 1_656
O111 P27 1.515107 1_555
O112 P28 1.515839 1_555
O113 P29 1.511460 1_555
O114 P30 1.513669 1_555
O115 P31 1.520250 1_555
O116 P32 1.526211 1_555
O117 P33 1.613694 1_555
O117 Ta0 2.063179 1_655
O118 P34 1.535584 1_555
O119 P35 1.535379 1_555
O120 P0 1.590822 1_555
O120 Ta0 2.016705 1_555
O121 P1 1.547048 1_555
O122 P2 1.524577 1_555
O123 P0 1.531156 1_655
O124 P1 1.531025 1_655
O125 P2 1.536033 1_655
O126 P3 1.541359 1_555
O127 P4 1.518771 1_555
O128 P5 1.531958 1_655
O129 P3 1.616686 1_455
O129 Ta1 1.982256 1_555
O130 P4 1.575616 1_455
O130 Ta2 2.069764 1_555
O131 P5 1.636660 1_555
O131 Ta3 2.011802 1_555
O132 P6 1.547048 1_555
O133 P7 1.524577 1_555
O134 P8 1.590822 1_555
O134 Ta4 2.016705 1_555
O135 P6 1.531025 1_555
O136 P7 1.536033 1_555
O137 P8 1.531156 1_555
O138 P9 1.531958 1_555
O139 P10 1.541359 1_555
O140 P11 1.518771 1_555
O141 P9 1.636660 1_555
O141 Ta5 2.011802 1_555
O142 P10 1.616686 1_555
O142 Ta6 1.982256 1_555
O143 P11 1.575616 1_555
O143 Ta7 2.069764 1_555
