# generated using pymatgen
data_Na7Y2Hf2Si3(PO8)3
_symmetry_space_group_name_H-M   'P 1'
_cell_length_a   9.30380930
_cell_length_b   9.30077380
_cell_length_c   22.80962897
_cell_angle_alpha   90.08542346
_cell_angle_beta   90.05878387
_cell_angle_gamma   120.02443240
_symmetry_Int_Tables_number   1
_chemical_formula_structural   Na7Y2Hf2Si3(PO8)3
_chemical_formula_sum   'Na21 Y6 Hf6 Si9 P9 O72'
_cell_volume   1708.91462966
_cell_formula_units_Z   3
loop_
 _symmetry_equiv_pos_site_id
 _symmetry_equiv_pos_as_xyz
  1  'x, y, z'
loop_
 _atom_site_type_symbol
 _atom_site_label
 _atom_site_symmetry_multiplicity
 _atom_site_fract_x
 _atom_site_fract_y
 _atom_site_fract_z
 _atom_site_occupancy
  Na  Na0  1  0.63234344  0.00530994  0.25644418  1
  Na  Na1  1  0.36662231  0.37295502  0.24557991  1
  Na  Na2  1  0.00043115  0.61796955  0.25060354  1
  Na  Na3  1  0.63456305  0.63684757  0.74783525  1
  Na  Na4  1  0.98912046  0.36251125  0.74546766  1
  Na  Na5  1  0.37633877  0.00097082  0.74259608  1
  Na  Na6  1  0.03267871  0.69008391  0.58198940  1
  Na  Na7  1  0.66088898  0.97570465  0.58118487  1
  Na  Na8  1  0.66867486  0.68378262  0.08148242  1
  Na  Na9  1  0.02755995  0.34161651  0.08863592  1
  Na  Na10  1  0.95708547  0.66264244  0.92403182  1
  Na  Na11  1  0.70093236  0.02966120  0.91710676  1
  Na  Na12  1  0.34273754  0.30637474  0.92151041  1
  Na  Na13  1  0.96802013  0.31038275  0.41605536  1
  Na  Na14  1  0.33644019  0.02371669  0.42038378  1
  Na  Na15  1  0.00106100  0.99854702  0.50040177  1
  Na  Na16  1  0.01526646  0.99273031  0.00341370  1
  Na  Na17  1  0.66676950  0.33369762  0.83315373  1
  Na  Na18  1  0.67981069  0.34791530  0.33708466  1
  Na  Na19  1  0.31969017  0.66668878  0.16437290  1
  Na  Na20  1  0.33358093  0.65790547  0.66202731  1
  Y  Y0  1  0.99557548  0.99928729  0.85174208  1
  Y  Y1  1  0.66619213  0.33083756  0.67760239  1
  Y  Y2  1  0.66825404  0.33340161  0.18243954  1
  Y  Y3  1  0.66214159  0.33392564  0.98811811  1
  Y  Y4  1  0.33029232  0.66351604  0.31922292  1
  Y  Y5  1  0.33798510  0.66780771  0.81374364  1
  Hf  Hf0  1  0.99224158  0.99750253  0.35594830  1
  Hf  Hf1  1  0.00168496  0.00548427  0.64510382  1
  Hf  Hf2  1  0.00740948  0.00504339  0.14766947  1
  Hf  Hf3  1  0.66555248  0.33167203  0.48437928  1
  Hf  Hf4  1  0.33597568  0.66923453  0.01904742  1
  Hf  Hf5  1  0.33408952  0.66746595  0.51488457  1
  Si  Si0  1  0.99889452  0.29239778  0.25156208  1
  Si  Si1  1  0.70235775  0.00213006  0.74835107  1
  Si  Si2  1  0.97218953  0.33544680  0.58302470  1
  Si  Si3  1  0.36152963  0.02626742  0.58220172  1
  Si  Si4  1  0.97621287  0.64238977  0.08404724  1
  Si  Si5  1  0.35786457  0.33494093  0.08330027  1
  Si  Si6  1  0.63266872  0.66323258  0.91659262  1
  Si  Si7  1  0.63406557  0.97115596  0.41631914  1
  Si  Si8  1  0.02895046  0.66502596  0.41630979  1
  P  P0  1  0.28767331  0.00172567  0.25316965  1
  P  P1  1  0.71290929  0.71298301  0.24984168  1
  P  P2  1  0.29233282  0.29192831  0.74946885  1
  P  P3  1  0.99741011  0.70557433  0.74778885  1
  P  P4  1  0.66515975  0.63475691  0.58456715  1
  P  P5  1  0.66773471  0.02526541  0.08481982  1
  P  P6  1  0.03821099  0.37236098  0.91729839  1
  P  P7  1  0.33692194  0.96306900  0.91556527  1
  P  P8  1  0.33600937  0.36654291  0.41465948  1
  O  O0  1  0.19889813  0.01144039  0.30940285  1
  O  O1  1  0.82278343  0.81039977  0.30360488  1
  O  O2  1  0.99264152  0.18279942  0.30957417  1
  O  O3  1  0.22296557  0.20153667  0.80746729  1
  O  O4  1  0.98865571  0.78904674  0.80474027  1
  O  O5  1  0.80289796  0.02090864  0.80933195  1
  O  O6  1  0.81055760  0.98978103  0.69248999  1
  O  O7  1  0.18032660  0.18365133  0.69760336  1
  O  O8  1  0.00901544  0.81372536  0.69386257  1
  O  O9  1  0.80173613  0.81189333  0.19350971  1
  O  O10  1  0.00440937  0.18945412  0.19353236  1
  O  O11  1  0.17755103  0.98887715  0.19937776  1
  O  O12  1  0.90581250  0.37913842  0.64293301  1
  O  O13  1  0.47064959  0.09887044  0.64193875  1
  O  O14  1  0.63785229  0.54633305  0.64395838  1
  O  O15  1  0.89597103  0.51902996  0.14068207  1
  O  O16  1  0.64097834  0.10324494  0.13984346  1
  O  O17  1  0.47727139  0.37151012  0.14049032  1
  O  O18  1  0.43470251  0.30524459  0.02383897  1
  O  O19  1  0.85874795  0.56167542  0.02632133  1
  O  O20  1  0.70183812  0.13453606  0.03051413  1
  O  O21  1  0.46184073  0.14888115  0.52687226  1
  O  O22  1  0.68946196  0.53159593  0.53590007  1
  O  O23  1  0.83842436  0.30674561  0.53007006  1
  O  O24  1  0.52370484  0.67387022  0.97252705  1
  O  O25  1  0.14769138  0.47684647  0.97079995  1
  O  O26  1  0.32362983  0.84553435  0.96720080  1
  O  O27  1  0.53509732  0.84995676  0.47180985  1
  O  O28  1  0.30991239  0.46649437  0.46423209  1
  O  O29  1  0.16039168  0.69146433  0.46981251  1
  O  O30  1  0.09640487  0.62084595  0.35662842  1
  O  O31  1  0.52661656  0.89831605  0.35631170  1
  O  O32  1  0.36238816  0.45679044  0.35620217  1
  O  O33  1  0.11240157  0.46894591  0.86025929  1
  O  O34  1  0.34610171  0.88468537  0.85715034  1
  O  O35  1  0.53161863  0.64696506  0.85590335  1
  O  O36  1  0.02828590  0.84144648  0.41223212  1
  O  O37  1  0.82416271  0.99968546  0.41311591  1
  O  O38  1  0.17491860  0.19131524  0.41314558  1
  O  O39  1  0.03818809  0.20513270  0.91905039  1
  O  O40  1  0.18040730  0.98138137  0.91882810  1
  O  O41  1  0.81581693  0.83277878  0.92034702  1
  O  O42  1  0.97488557  0.15974023  0.58732709  1
  O  O43  1  0.17160818  0.99508979  0.58716560  1
  O  O44  1  0.82804047  0.80780912  0.58649291  1
  O  O45  1  0.98451214  0.82153855  0.09255106  1
  O  O46  1  0.82138507  0.00093496  0.09164484  1
  O  O47  1  0.16729718  0.17717884  0.09061017  1
  O  O48  1  0.68371591  0.16884097  0.74624334  1
  O  O49  1  0.47137552  0.32210483  0.74378696  1
  O  O50  1  0.83668437  0.53294591  0.74597279  1
  O  O51  1  0.69625175  0.53925097  0.25009840  1
  O  O52  1  0.82989327  0.30628033  0.25303150  1
  O  O53  1  0.45885740  0.15952795  0.24991488  1
  O  O54  1  0.65170119  0.49745070  0.91819660  1
  O  O55  1  0.86045334  0.34124296  0.92235265  1
  O  O56  1  0.49631895  0.13191207  0.92017943  1
  O  O57  1  0.65287856  0.15714397  0.42477642  1
  O  O58  1  0.48470542  0.33930604  0.42630623  1
  O  O59  1  0.84594631  0.50230166  0.42860746  1
  O  O60  1  0.33839950  0.50224805  0.07734795  1
  O  O61  1  0.15984528  0.66068901  0.07544799  1
  O  O62  1  0.51397239  0.84736092  0.07672827  1
  O  O63  1  0.34626087  0.84167825  0.57394349  1
  O  O64  1  0.51821958  0.66361442  0.57265499  1
  O  O65  1  0.15495780  0.49685348  0.57053164  1
  O  O66  1  0.30411274  0.84337910  0.25189209  1
  O  O67  1  0.54066295  0.69943925  0.25216462  1
  O  O68  1  0.16842534  0.47553969  0.24898747  1
  O  O69  1  0.29350115  0.45993688  0.74659468  1
  O  O70  1  0.15344572  0.68556569  0.74635447  1
  O  O71  1  0.51948498  0.83190098  0.74519362  1
loop_
_geom_bond_atom_site_label_1
_geom_bond_atom_site_label_2
_geom_bond_distance
_geom_bond_site_symmetry_2
Na0 O52 2.464188 1_555
Na0 O31 2.485689 1_545
Na0 O67 2.529982 1_545
Na0 O66 2.645931 1_545
Na0 O53 2.646090 1_555
Na0 O16 2.800740 1_555
Na1 O68 2.465242 1_555
Na1 O53 2.528172 1_555
Na1 O17 2.612403 1_555
Na1 O67 2.634913 1_555
Na1 O32 2.646019 1_555
Na1 O51 2.657097 1_555
Na2 O68 2.504224 1_555
Na2 O52 2.514375 1_455
Na2 O66 2.539851 1_555
Na2 O51 2.543936 1_455
Na2 O30 2.572566 1_555
Na2 O15 2.677846 1_455
Na3 O50 2.508102 1_555
Na3 O14 2.518663 1_555
Na3 O71 2.526867 1_555
Na3 O49 2.536566 1_555
Na3 O35 2.663968 1_555
Na3 O69 2.748065 1_555
Na4 O48 2.489345 1_555
Na4 O12 2.492360 1_555
Na4 O69 2.504636 1_655
Na4 O70 2.601624 1_655
Na4 O50 2.602709 1_555
Na4 O33 2.828630 1_655
Na5 O13 2.466018 1_555
Na5 O48 2.480680 1_555
Na5 O71 2.519089 1_545
Na5 O70 2.612764 1_545
Na5 O49 2.657126 1_555
Na5 O34 2.789585 1_545
Na6 O43 2.461968 1_555
Na6 O63 2.533533 1_555
Na6 O65 2.576391 1_555
Na6 O44 2.630703 1_455
Na6 O29 2.819594 1_555
Na6 O8 2.851009 1_555
Na6 O12 2.879009 1_455
Na6 O22 2.958501 1_455
Na7 O64 2.523357 1_555
Na7 O42 2.545222 1_565
Na7 O63 2.548853 1_555
Na7 O44 2.702226 1_555
Na7 O27 2.752657 1_555
Na7 O6 2.865507 1_555
Na7 O13 2.897359 1_565
Na7 O23 2.914231 1_565
Na8 O45 2.563175 1_555
Na8 O46 2.564502 1_565
Na8 O62 2.567034 1_555
Na8 O60 2.666226 1_555
Na8 O24 2.805720 1_554
Na8 O9 2.826685 1_555
Na8 O19 2.830243 1_555
Na8 O17 2.873822 1_555
Na9 O47 2.453818 1_555
Na9 O60 2.518093 1_555
Na9 O61 2.600063 1_555
Na9 O10 2.734984 1_555
Na9 O46 2.764537 1_455
Na9 O15 2.765819 1_455
Na9 O25 2.943606 1_554
Na9 O20 2.965449 1_455
Na10 O54 2.465965 1_555
Na10 O19 2.512725 1_556
Na10 O41 2.513969 1_555
Na10 O40 2.637608 1_655
Na10 O55 2.656231 1_555
Na10 O4 2.921963 1_555
Na11 O55 2.511886 1_555
Na11 O56 2.518966 1_555
Na11 O41 2.541657 1_545
Na11 O5 2.651665 1_555
Na11 O39 2.717690 1_655
Na11 O20 2.761729 1_556
Na12 O18 2.486985 1_556
Na12 O39 2.499567 1_555
Na12 O54 2.513074 1_555
Na12 O40 2.617656 1_545
Na12 O56 2.644964 1_555
Na12 O3 2.803267 1_555
Na13 O37 2.505013 1_545
Na13 O57 2.547103 1_555
Na13 O59 2.566332 1_555
Na13 O38 2.658859 1_655
Na13 O2 2.761191 1_555
Na13 O30 2.857525 1_655
Na13 O23 2.860788 1_555
Na13 O28 2.966480 1_655
Na14 O36 2.502452 1_545
Na14 O58 2.546199 1_555
Na14 O57 2.561342 1_555
Na14 O38 2.657048 1_555
Na14 O21 2.691246 1_555
Na14 O0 2.811585 1_555
Na14 O29 2.907271 1_545
Na14 O31 2.948258 1_545
Na15 O43 2.545628 1_555
Na15 O42 2.568212 1_465
Na15 O36 2.570290 1_555
Na15 O37 2.585257 1_455
Na15 O44 2.598770 1_455
Na15 O38 2.628145 1_565
Na16 O40 2.502401 1_554
Na16 O45 2.511137 1_455
Na16 O47 2.540714 1_565
Na16 O41 2.543284 1_454
Na16 O39 2.691021 1_564
Na16 O46 2.730316 1_465
Na17 O54 2.511475 1_555
Na17 O48 2.557194 1_555
Na17 O50 2.640720 1_555
Na17 O56 2.648881 1_555
Na17 O55 2.693918 1_555
Na17 O49 2.695769 1_555
Na18 O52 2.513931 1_555
Na18 O59 2.563672 1_555
Na18 O57 2.603566 1_555
Na18 O51 2.620259 1_555
Na18 O58 2.702911 1_555
Na18 O53 2.761520 1_555
Na19 O61 2.497875 1_555
Na19 O68 2.525519 1_555
Na19 O60 2.562767 1_555
Na19 O66 2.633613 1_555
Na19 O62 2.658071 1_555
Na19 O67 2.773534 1_555
Na20 O71 2.528249 1_555
Na20 O69 2.564197 1_555
Na20 O63 2.604043 1_555
Na20 O65 2.617908 1_555
Na20 O70 2.647891 1_555
Na20 O64 2.650606 1_555
Hf0 O2 2.021894 1_565
Hf0 O37 2.044999 1_555
Hf0 O1 2.045426 1_555
Hf0 O36 2.087844 1_655
Hf0 O0 2.143805 1_665
Hf0 O38 2.182337 1_665
Hf1 O6 2.023893 1_445
Hf1 O7 2.043563 1_555
Hf1 O42 2.054325 1_455
Hf1 O43 2.100487 1_545
Hf1 O8 2.133062 1_545
Hf1 O44 2.189360 1_445
Hf2 O10 2.019787 1_555
Hf2 O47 2.024050 1_555
Hf2 O11 2.038226 1_545
Hf2 O45 2.041606 1_445
Hf2 O9 2.133480 1_445
Hf2 O46 2.135198 1_455
Hf3 O23 2.024150 1_555
Hf3 O21 2.050862 1_555
Hf3 O59 2.073313 1_555
Hf3 O57 2.073323 1_555
Hf3 O22 2.113542 1_555
Hf3 O58 2.169323 1_555
Hf4 O24 2.026572 1_554
Hf4 O61 2.054486 1_555
Hf4 O60 2.054797 1_555
Hf4 O26 2.072300 1_554
Hf4 O25 2.082046 1_554
Hf4 O62 2.112252 1_555
Hf5 O29 2.019068 1_555
Hf5 O27 2.043480 1_555
Hf5 O63 2.064581 1_555
Hf5 O65 2.066512 1_555
Hf5 O28 2.109882 1_555
Hf5 O64 2.174706 1_555
O0 P0 1.553086 1_555
O1 P1 1.561089 1_555
O2 Si0 1.654763 1_555
O3 P2 1.528243 1_555
O3 Y0 2.249796 1_445
O4 P3 1.535371 1_555
O4 Y0 2.201078 1_555
O5 Si1 1.635037 1_555
O5 Y0 2.132497 1_545
O6 Si1 1.663728 1_565
O7 P2 1.563130 1_555
O8 P3 1.559403 1_455
O9 P1 1.557289 1_555
O10 Si0 1.648299 1_455
O11 P0 1.563303 1_565
O12 Si2 1.632487 1_555
O12 Y1 2.190830 1_555
O13 Si3 1.628392 1_555
O13 Y1 2.165643 1_555
O14 P4 1.539814 1_555
O14 Y1 2.282231 1_555
O15 Si4 1.640654 1_555
O15 Y2 2.173735 1_555
O16 P5 1.530291 1_555
O16 Y2 2.245082 1_555
O17 Si5 1.633743 1_555
O17 Y2 2.196864 1_555
O18 Si5 1.620290 1_555
O18 Y3 2.156848 1_554
O19 Si4 1.632395 1_555
O19 Y3 2.169317 1_554
O20 P5 1.532893 1_555
O20 Y3 2.280501 1_554
O21 Si3 1.644959 1_555
O22 P4 1.555131 1_555
O23 Si2 1.656067 1_555
O24 Si6 1.663721 1_555
O25 P6 1.573049 1_555
O26 P7 1.570456 1_555
O27 Si7 1.639667 1_555
O28 P8 1.557249 1_555
O29 Si8 1.655413 1_555
O30 Si8 1.635245 1_555
O30 Y4 2.182021 1_555
O31 Si7 1.627414 1_555
O31 Y4 2.195582 1_555
O32 P8 1.529889 1_555
O32 Y4 2.253071 1_555
O33 P6 1.536532 1_555
O33 Y5 2.253274 1_555
O34 P7 1.540706 1_555
O34 Y5 2.212747 1_555
O35 Si6 1.636281 1_555
O35 Y5 2.134091 1_555
O36 Si8 1.646717 1_555
O37 Si7 1.653623 1_555
O38 P8 1.568081 1_555
O39 P6 1.555819 1_555
O39 Y0 2.325951 1_445
O40 P7 1.550290 1_555
O40 Y0 2.368204 1_455
O41 Si6 1.645543 1_555
O41 Y0 2.250513 1_555
O42 Si2 1.649966 1_555
O43 Si3 1.645270 1_565
O44 P4 1.564519 1_555
O45 Si4 1.640163 1_555
O46 P5 1.562814 1_555
O47 Si5 1.649911 1_555
O48 Si1 1.644961 1_555
O48 Y1 2.236154 1_555
O49 P2 1.550184 1_555
O49 Y1 2.330144 1_555
O50 P3 1.553282 1_555
O50 Y1 2.341779 1_555
O51 P1 1.544158 1_555
O51 Y2 2.367776 1_555
O52 Si0 1.641146 1_555
O52 Y2 2.300818 1_555
O53 P0 1.535415 1_555
O53 Y2 2.374899 1_555
O54 Si6 1.638150 1_555
O54 Y3 2.240762 1_555
O55 P6 1.534168 1_655
O55 Y3 2.353601 1_555
O56 P7 1.531351 1_545
O56 Y3 2.323225 1_555
O57 Si7 1.660152 1_545
O58 P8 1.548811 1_555
O59 Si8 1.640636 1_655
O60 Si5 1.659888 1_555
O61 Si4 1.641993 1_455
O62 P5 1.564664 1_565
O63 Si3 1.660739 1_565
O64 P4 1.543207 1_555
O65 Si2 1.635236 1_455
O66 P0 1.555161 1_565
O66 Y4 2.372997 1_555
O67 P1 1.544347 1_555
O67 Y4 2.373877 1_555
O68 Si0 1.644546 1_455
O68 Y4 2.289754 1_555
O69 P2 1.558677 1_555
O69 Y5 2.333284 1_555
O70 P3 1.553592 1_455
O70 Y5 2.370012 1_555
O71 Si1 1.646314 1_565
O71 Y5 2.249235 1_555
