# generated using pymatgen
data_ZrTa(PO4)3
_symmetry_space_group_name_H-M   'P 1'
_cell_length_a   8.88280929
_cell_length_b   8.88280900
_cell_length_c   22.80258270
_cell_angle_alpha   90.00000000
_cell_angle_beta   90.00000000
_cell_angle_gamma   120.00000110
_symmetry_Int_Tables_number   1
_chemical_formula_structural   ZrTa(PO4)3
_chemical_formula_sum   'Zr6 Ta6 P18 O72'
_cell_volume   1558.17175863
_cell_formula_units_Z   6
loop_
 _symmetry_equiv_pos_site_id
 _symmetry_equiv_pos_as_xyz
  1  'x, y, z'
loop_
 _atom_site_type_symbol
 _atom_site_label
 _atom_site_symmetry_multiplicity
 _atom_site_fract_x
 _atom_site_fract_y
 _atom_site_fract_z
 _atom_site_occupancy
  Zr  Zr0  1  0.00000000  -0.00000000  0.35976173  1
  Zr  Zr1  1  0.00000000  -0.00000000  0.85976173  1
  Zr  Zr2  1  0.66666700  0.33333300  0.69309473  1
  Zr  Zr3  1  0.66666700  0.33333300  0.19309473  1
  Zr  Zr4  1  0.33333300  0.66666700  0.02642873  1
  Zr  Zr5  1  0.33333300  0.66666700  0.52642873  1
  Ta  Ta0  1  0.00000000  -0.00000000  0.64290088  1
  Ta  Ta1  1  0.00000000  -0.00000000  0.14290088  1
  Ta  Ta2  1  0.66666700  0.33333300  0.97623388  1
  Ta  Ta3  1  0.66666700  0.33333300  0.47623388  1
  Ta  Ta4  1  0.33333300  0.66666700  0.30956788  1
  Ta  Ta5  1  0.33333300  0.66666700  0.80956788  1
  P  P0  1  0.27664185  0.98985294  0.25000546  1
  P  P1  1  0.71321109  0.72335815  0.25000546  1
  P  P2  1  0.01014706  0.28678891  0.25000546  1
  P  P3  1  0.27664185  0.28678891  0.75000546  1
  P  P4  1  0.01014706  0.72335815  0.75000546  1
  P  P5  1  0.71321109  0.98985294  0.75000546  1
  P  P6  1  0.94330885  0.32318594  0.58333846  1
  P  P7  1  0.37987809  0.05669115  0.58333846  1
  P  P8  1  0.67681406  0.62012191  0.58333846  1
  P  P9  1  0.94330885  0.62012191  0.08333846  1
  P  P10  1  0.67681406  0.05669115  0.08333846  1
  P  P11  1  0.37987809  0.32318594  0.08333846  1
  P  P12  1  0.60997485  0.65651994  0.91667246  1
  P  P13  1  0.04654409  0.39002515  0.91667246  1
  P  P14  1  0.34348006  0.95345591  0.91667246  1
  P  P15  1  0.60997485  0.95345591  0.41667246  1
  P  P16  1  0.34348006  0.39002515  0.41667246  1
  P  P17  1  0.04654409  0.65651994  0.41667246  1
  O  O0  1  0.19688737  0.02115044  0.30400444  1
  O  O1  1  0.82426307  0.80311263  0.30400444  1
  O  O2  1  0.97884956  0.17573693  0.30400444  1
  O  O3  1  0.19688737  0.17573693  0.80400444  1
  O  O4  1  0.97884956  0.80311263  0.80400444  1
  O  O5  1  0.82426307  0.02115044  0.80400444  1
  O  O6  1  0.80017171  0.96006735  0.69517295  1
  O  O7  1  0.15989565  0.19982829  0.69517295  1
  O  O8  1  0.03993265  0.84010435  0.69517295  1
  O  O9  1  0.80017171  0.84010435  0.19517295  1
  O  O10  1  0.03993265  0.19982829  0.19517295  1
  O  O11  1  0.15989565  0.96006735  0.19517295  1
  O  O12  1  0.86355437  0.35448344  0.63733744  1
  O  O13  1  0.49093007  0.13644563  0.63733744  1
  O  O14  1  0.64551656  0.50906993  0.63733744  1
  O  O15  1  0.86355437  0.50906993  0.13733744  1
  O  O16  1  0.64551656  0.13644563  0.13733744  1
  O  O17  1  0.49093007  0.35448344  0.13733744  1
  O  O18  1  0.46683871  0.29340035  0.02850595  1
  O  O19  1  0.82656265  0.53316129  0.02850595  1
  O  O20  1  0.70659965  0.17343735  0.02850595  1
  O  O21  1  0.46683871  0.17343735  0.52850595  1
  O  O22  1  0.70659965  0.53316129  0.52850595  1
  O  O23  1  0.82656265  0.29340035  0.52850595  1
  O  O24  1  0.53022037  0.68781744  0.97067144  1
  O  O25  1  0.15759607  0.46977963  0.97067144  1
  O  O26  1  0.31218256  0.84240393  0.97067144  1
  O  O27  1  0.53022037  0.84240393  0.47067144  1
  O  O28  1  0.31218256  0.46977963  0.47067144  1
  O  O29  1  0.15759607  0.68781744  0.47067144  1
  O  O30  1  0.13350471  0.62673435  0.36183995  1
  O  O31  1  0.49322865  0.86649529  0.36183995  1
  O  O32  1  0.37326565  0.50677135  0.36183995  1
  O  O33  1  0.13350471  0.50677135  0.86183995  1
  O  O34  1  0.37326565  0.86649529  0.86183995  1
  O  O35  1  0.49322865  0.62673435  0.86183995  1
  O  O36  1  0.01780841  0.81009766  0.40657567  1
  O  O37  1  0.79228925  0.98219159  0.40657567  1
  O  O38  1  0.18990234  0.20771075  0.40657567  1
  O  O39  1  0.01780841  0.20771075  0.90657567  1
  O  O40  1  0.18990234  0.98219159  0.90657567  1
  O  O41  1  0.79228925  0.81009766  0.90657567  1
  O  O42  1  0.95693691  0.15592546  0.59335394  1
  O  O43  1  0.19898855  0.04306309  0.59335394  1
  O  O44  1  0.84407454  0.80101145  0.59335394  1
  O  O45  1  0.95693691  0.80101145  0.09335394  1
  O  O46  1  0.84407454  0.04306309  0.09335394  1
  O  O47  1  0.19898855  0.15592546  0.09335394  1
  O  O48  1  0.68447541  0.14343066  0.73990867  1
  O  O49  1  0.45895625  0.31552459  0.73990867  1
  O  O50  1  0.85656934  0.54104375  0.73990867  1
  O  O51  1  0.68447541  0.54104375  0.23990867  1
  O  O52  1  0.85656934  0.31552459  0.23990867  1
  O  O53  1  0.45895625  0.14343066  0.23990867  1
  O  O54  1  0.62360391  0.48925846  0.92668694  1
  O  O55  1  0.86565555  0.37639609  0.92668694  1
  O  O56  1  0.51074154  0.13434445  0.92668694  1
  O  O57  1  0.62360391  0.13434445  0.42668694  1
  O  O58  1  0.51074154  0.37639609  0.42668694  1
  O  O59  1  0.86565555  0.48925846  0.42668694  1
  O  O60  1  0.35114141  0.47676466  0.07324267  1
  O  O61  1  0.12562225  0.64885859  0.07324267  1
  O  O62  1  0.52323534  0.87437775  0.07324267  1
  O  O63  1  0.35114141  0.87437775  0.57324267  1
  O  O64  1  0.52323534  0.64885859  0.57324267  1
  O  O65  1  0.12562225  0.47676466  0.57324267  1
  O  O66  1  0.29026991  0.82259246  0.26002094  1
  O  O67  1  0.53232155  0.70973009  0.26002094  1
  O  O68  1  0.17740754  0.46767845  0.26002094  1
  O  O69  1  0.29026991  0.46767845  0.76002094  1
  O  O70  1  0.17740754  0.70973009  0.76002094  1
  O  O71  1  0.53232155  0.82259246  0.76002094  1
loop_
_geom_bond_atom_site_label_1
_geom_bond_atom_site_label_2
_geom_bond_distance
_geom_bond_site_symmetry_2
O0 P0 1.514026 1_545
O0 Zr0 2.093299 1_555
O1 P1 1.514026 1_555
O1 Zr0 2.093299 1_665
O2 P2 1.514026 1_655
O2 Zr0 2.093299 1_655
O3 P3 1.514026 1_555
O3 Zr1 2.093299 1_555
O4 P4 1.514026 1_655
O4 Zr1 2.093299 1_665
O5 P5 1.514026 1_545
O5 Zr1 2.093299 1_655
O6 P5 1.560247 1_555
O6 Ta0 2.016845 1_665
O7 P3 1.560247 1_555
O7 Ta0 2.016845 1_555
O8 P4 1.560247 1_555
O8 Ta0 2.016845 1_565
O9 P1 1.560247 1_555
O9 Ta1 2.016845 1_665
O10 P2 1.560247 1_555
O10 Ta1 2.016845 1_555
O11 P0 1.560247 1_555
O11 Ta1 2.016845 1_565
O12 P6 1.514026 1_555
O12 Zr2 2.093299 1_555
O13 P7 1.514026 1_555
O13 Zr2 2.093299 1_555
O14 P8 1.514026 1_555
O14 Zr2 2.093299 1_555
O15 P9 1.514026 1_555
O15 Zr3 2.093299 1_555
O16 P10 1.514026 1_555
O16 Zr3 2.093299 1_555
O17 P11 1.514026 1_555
O17 Zr3 2.093299 1_555
O18 P11 1.560247 1_555
O18 Ta2 2.016845 1_554
O19 P9 1.560247 1_555
O19 Ta2 2.016845 1_554
O20 P10 1.560247 1_555
O20 Ta2 2.016845 1_554
O21 P7 1.560247 1_555
O21 Ta3 2.016845 1_555
O22 P8 1.560247 1_555
O22 Ta3 2.016845 1_555
O23 P6 1.560247 1_555
O23 Ta3 2.016845 1_555
O24 P12 1.514026 1_555
O24 Zr4 2.093299 1_556
O25 P13 1.514026 1_555
O25 Zr4 2.093299 1_556
O26 P14 1.514026 1_555
O26 Zr4 2.093299 1_556
O27 P15 1.514026 1_555
O27 Zr5 2.093299 1_555
O28 P16 1.514026 1_555
O28 Zr5 2.093299 1_555
O29 P17 1.514026 1_555
O29 Zr5 2.093299 1_555
O30 P17 1.560247 1_555
O30 Ta4 2.016845 1_555
O31 P15 1.560247 1_555
O31 Ta4 2.016845 1_555
O32 P16 1.560247 1_555
O32 Ta4 2.016845 1_555
O33 P13 1.560247 1_555
O33 Ta5 2.016845 1_555
O34 P14 1.560247 1_555
O34 Ta5 2.016845 1_555
O35 P12 1.560247 1_555
O35 Ta5 2.016845 1_555
O36 P17 1.525590 1_555
O36 Zr0 2.068066 1_565
O37 P15 1.525599 1_555
O37 Zr0 2.068066 1_665
O38 P16 1.525595 1_555
O38 Zr0 2.068066 1_555
O39 P13 1.525599 1_555
O39 Zr1 2.068066 1_555
O40 P14 1.525590 1_555
O40 Zr1 2.068066 1_565
O41 P12 1.525595 1_555
O41 Zr1 2.068066 1_665
O42 P6 1.566557 1_555
O42 Ta0 1.967476 1_655
O43 P7 1.566566 1_555
O43 Ta0 1.967476 1_555
O44 P8 1.566562 1_555
O44 Ta0 1.967476 1_665
O45 P9 1.566566 1_555
O45 Ta1 1.967476 1_665
O46 P10 1.566557 1_555
O46 Ta1 1.967476 1_655
O47 P11 1.566562 1_555
O47 Ta1 1.967476 1_555
O48 P5 1.525590 1_545
O48 Zr2 2.068066 1_555
O49 P3 1.525599 1_555
O49 Zr2 2.068066 1_555
O50 P4 1.525595 1_655
O50 Zr2 2.068066 1_555
O51 P1 1.525599 1_555
O51 Zr3 2.068066 1_555
O52 P2 1.525590 1_655
O52 Zr3 2.068066 1_555
O53 P0 1.525595 1_545
O53 Zr3 2.068066 1_555
O54 P12 1.566567 1_555
O54 Ta2 1.967476 1_555
O55 P13 1.566550 1_655
O55 Ta2 1.967476 1_555
O56 P14 1.566557 1_545
O56 Ta2 1.967476 1_555
O57 P15 1.566550 1_545
O57 Ta3 1.967476 1_555
O58 P16 1.566567 1_555
O58 Ta3 1.967476 1_555
O59 P17 1.566557 1_655
O59 Ta3 1.967476 1_555
O60 P11 1.525601 1_555
O60 Zr4 2.068066 1_555
O61 P9 1.525583 1_455
O61 Zr4 2.068066 1_555
O62 P10 1.525590 1_565
O62 Zr4 2.068066 1_555
O63 P7 1.525583 1_565
O63 Zr5 2.068066 1_555
O64 P8 1.525601 1_555
O64 Zr5 2.068066 1_555
O65 P6 1.525590 1_455
O65 Zr5 2.068066 1_555
O66 P0 1.566557 1_555
O66 Ta4 1.967476 1_555
O67 P1 1.566566 1_555
O67 Ta4 1.967476 1_555
O68 P2 1.566562 1_555
O68 Ta4 1.967476 1_555
O69 P3 1.566566 1_555
O69 Ta5 1.967476 1_555
O70 P4 1.566557 1_555
O70 Ta5 1.967476 1_555
O71 P5 1.566562 1_555
O71 Ta5 1.967476 1_555
