# generated using pymatgen
data_Nb3B3C
_symmetry_space_group_name_H-M   'P 1'
_cell_length_a   14.54130075
_cell_length_b   14.54130075
_cell_length_c   3.14221500
_cell_angle_alpha   90.00000000
_cell_angle_beta   90.00000000
_cell_angle_gamma   167.04405781
_symmetry_Int_Tables_number   1
_chemical_formula_structural   Nb3B3C
_chemical_formula_sum   'Nb6 B6 C2'
_cell_volume   148.96402366
_cell_formula_units_Z   2
loop_
 _symmetry_equiv_pos_site_id
 _symmetry_equiv_pos_as_xyz
  1  'x, y, z'
loop_
 _atom_site_type_symbol
 _atom_site_label
 _atom_site_symmetry_multiplicity
 _atom_site_fract_x
 _atom_site_fract_y
 _atom_site_fract_z
 _atom_site_occupancy
  Nb  Nb0  1  0.54676300  0.45323700  0.25000000  1
  Nb  Nb1  1  0.45323700  0.54676300  0.75000000  1
  Nb  Nb2  1  0.21258300  0.78741700  0.25000000  1
  Nb  Nb3  1  0.78741700  0.21258300  0.75000000  1
  Nb  Nb4  1  0.63789000  0.36211000  0.75000000  1
  Nb  Nb5  1  0.36211000  0.63789000  0.25000000  1
  B  B0  1  0.98455200  0.01544800  0.25000000  1
  B  B1  1  0.01544800  0.98455200  0.75000000  1
  B  B2  1  0.11211300  0.88788700  0.25000000  1
  B  B3  1  0.88788700  0.11211300  0.75000000  1
  B  B4  1  0.92096000  0.07904000  0.25000000  1
  B  B5  1  0.07904000  0.92096000  0.75000000  1
  C  C0  1  0.28778700  0.71221300  0.25000000  1
  C  C1  1  0.71221300  0.28778700  0.75000000  1
loop_
_geom_bond_atom_site_label_1
_geom_bond_atom_site_label_2
_geom_bond_distance
_geom_bond_site_symmetry_2
B0 B1 1.807061 1_644
B0 B1 1.807061 1_645
B0 B4 1.837613 1_555
B0 Nb0 2.433764 1_655
B0 Nb0 2.433764 1_545
B0 Nb1 2.445137 1_655
B0 Nb1 2.445137 1_654
B0 Nb1 2.445137 1_545
B0 Nb1 2.445137 1_544
B1 B5 1.837613 1_555
B1 Nb1 2.433764 1_565
B1 Nb1 2.433764 1_455
B1 Nb0 2.445137 1_566
B1 Nb0 2.445137 1_565
B1 Nb0 2.445137 1_456
B1 Nb0 2.445137 1_455
B2 B5 1.838955 1_555
B2 B5 1.838955 1_554
B2 Nb4 2.390539 1_455
B2 Nb4 2.390539 1_454
B2 Nb4 2.390539 1_565
B2 Nb4 2.390539 1_564
B2 Nb0 2.501513 1_455
B2 Nb0 2.501513 1_565
B2 Nb2 2.903273 1_555
B3 B4 1.838955 1_556
B3 B4 1.838955 1_555
B3 Nb5 2.390539 1_545
B3 Nb5 2.390539 1_546
B3 Nb5 2.390539 1_655
B3 Nb5 2.390539 1_656
B3 Nb1 2.501513 1_545
B3 Nb1 2.501513 1_655
B3 Nb3 2.903273 1_555
B4 Nb5 2.362931 1_655
B4 Nb5 2.362931 1_545
B4 Nb1 2.455561 1_544
B4 Nb1 2.455561 1_545
B4 Nb1 2.455561 1_655
B4 Nb1 2.455561 1_654
B5 Nb4 2.362931 1_565
B5 Nb4 2.362931 1_455
B5 Nb0 2.455561 1_455
B5 Nb0 2.455561 1_456
B5 Nb0 2.455561 1_566
B5 Nb0 2.455561 1_565
C0 Nb5 2.147706 1_555
C0 Nb2 2.173164 1_555
C0 Nb3 2.271553 1_455
C0 Nb3 2.271553 1_454
C0 Nb3 2.271553 1_565
C0 Nb3 2.271553 1_564
C1 Nb4 2.147706 1_555
C1 Nb3 2.173164 1_555
C1 Nb2 2.271553 1_656
C1 Nb2 2.271553 1_545
C1 Nb2 2.271553 1_655
C1 Nb2 2.271553 1_546
