# generated using pymatgen
data_MnNi(BiO3)2
_symmetry_space_group_name_H-M   'P 1'
_cell_length_a   5.51165607
_cell_length_b   5.51165607
_cell_length_c   9.72650102
_cell_angle_alpha   74.64526430
_cell_angle_beta   74.64526430
_cell_angle_gamma   59.67144527
_symmetry_Int_Tables_number   1
_chemical_formula_structural   MnNi(BiO3)2
_chemical_formula_sum   'Mn2 Ni2 Bi4 O12'
_cell_volume   242.86483140
_cell_formula_units_Z   2
loop_
 _symmetry_equiv_pos_site_id
 _symmetry_equiv_pos_as_xyz
  1  'x, y, z'
loop_
 _atom_site_type_symbol
 _atom_site_label
 _atom_site_symmetry_multiplicity
 _atom_site_fract_x
 _atom_site_fract_y
 _atom_site_fract_z
 _atom_site_occupancy
  Mn  Mn0  1  0.00000000  0.50000000  0.00000000  1
  Mn  Mn1  1  0.50000000  0.00000000  0.50000000  1
  Ni  Ni0  1  0.76348800  0.23651200  0.75000000  1
  Ni  Ni1  1  0.23651200  0.76348800  0.25000000  1
  Bi  Bi0  1  0.90585100  0.36461100  0.37752100  1
  Bi  Bi1  1  0.63538900  0.09414900  0.12247900  1
  Bi  Bi2  1  0.09414900  0.63538900  0.62247900  1
  Bi  Bi3  1  0.36461100  0.90585100  0.87752100  1
  O  O0  1  0.89659600  0.28030200  0.92022000  1
  O  O1  1  0.71969800  0.10340400  0.57978000  1
  O  O2  1  0.10340400  0.71969800  0.07978000  1
  O  O3  1  0.28030200  0.89659600  0.42022000  1
  O  O4  1  0.62088100  0.69656600  0.11243600  1
  O  O5  1  0.30343400  0.37911900  0.38756400  1
  O  O6  1  0.80831900  0.88165500  0.33995500  1
  O  O7  1  0.11834500  0.19168100  0.16004500  1
  O  O8  1  0.88165500  0.80831900  0.83995500  1
  O  O9  1  0.19168100  0.11834500  0.66004500  1
  O  O10  1  0.69656600  0.62088100  0.61243600  1
  O  O11  1  0.37911900  0.30343400  0.88756400  1
loop_
_geom_bond_atom_site_label_1
_geom_bond_atom_site_label_2
_geom_bond_distance
_geom_bond_site_symmetry_2
Mn0 O7 1.937487 1_555
Mn0 O8 1.937487 1_454
Mn0 O2 1.955004 1_555
Mn0 O0 1.955004 1_454
Mn0 O4 1.966476 1_455
Mn0 O11 1.966476 1_554
Mn1 O9 1.937487 1_555
Mn1 O6 1.937487 1_545
Mn1 O1 1.955004 1_555
Mn1 O3 1.955004 1_545
Mn1 O10 1.966476 1_545
Mn1 O5 1.966476 1_555
Ni0 O1 2.090781 1_555
Ni0 O0 2.090781 1_555
Ni0 O11 2.094148 1_555
Ni0 O10 2.094148 1_555
Ni0 O8 2.101300 1_545
Ni0 O9 2.101300 1_655
Ni1 O2 2.090781 1_555
Ni1 O3 2.090781 1_555
Ni1 O5 2.094148 1_555
Ni1 O4 2.094148 1_555
Ni1 O6 2.101300 1_455
Ni1 O7 2.101300 1_565
Bi0 O5 2.261056 1_655
Bi0 O7 2.320111 1_655
Bi0 O3 2.365582 1_645
Bi0 O1 2.432787 1_555
Bi0 O6 2.559125 1_555
Bi0 O10 2.685952 1_555
Bi1 O4 2.261056 1_545
Bi1 O6 2.320111 1_545
Bi1 O2 2.365582 1_645
Bi1 O0 2.432787 1_554
Bi1 O7 2.559125 1_555
Bi1 O11 2.685952 1_554
Bi2 O10 2.261056 1_455
Bi2 O8 2.320111 1_455
Bi2 O1 2.365582 1_465
Bi2 O3 2.432787 1_555
Bi2 O9 2.559125 1_555
Bi2 O5 2.685952 1_555
Bi3 O11 2.261056 1_565
Bi3 O9 2.320111 1_565
Bi3 O0 2.365582 1_465
Bi3 O2 2.432787 1_556
Bi3 O8 2.559125 1_555
Bi3 O4 2.685952 1_556
