# generated using pymatgen
data_Na8Mg(NiO4)2
_symmetry_space_group_name_H-M   'P 1'
_cell_length_a   9.07760622
_cell_length_b   5.59296095
_cell_length_c   5.90557557
_cell_angle_alpha   70.42992973
_cell_angle_beta   110.70598994
_cell_angle_gamma   99.76348036
_symmetry_Int_Tables_number   1
_chemical_formula_structural   Na8Mg(NiO4)2
_chemical_formula_sum   'Na8 Mg1 Ni2 O8'
_cell_volume   263.81625720
_cell_formula_units_Z   1
loop_
 _symmetry_equiv_pos_site_id
 _symmetry_equiv_pos_as_xyz
  1  'x, y, z'
loop_
 _atom_site_type_symbol
 _atom_site_label
 _atom_site_symmetry_multiplicity
 _atom_site_fract_x
 _atom_site_fract_y
 _atom_site_fract_z
 _atom_site_occupancy
  Na  Na0  1  0.16731540  0.02071863  0.63793804  1
  Na  Na1  1  0.16326484  0.51673283  0.14822341  1
  Na  Na2  1  0.33126334  0.54207502  0.72349648  1
  Na  Na3  1  0.34329747  0.03499592  0.24389561  1
  Na  Na4  1  0.52305787  0.02667659  0.83160195  1
  Na  Na5  1  0.73936364  0.53019304  0.91897461  1
  Na  Na6  1  0.80496231  0.85576747  0.28299233  1
  Na  Na7  1  0.95843762  0.50897552  0.60927910  1
  Mg  Mg0  1  0.72195924  0.08532621  0.57251128  1
  Ni  Ni0  1  0.50350758  0.56632719  0.34552289  1
  Ni  Ni1  1  0.99799461  0.00874047  0.97895095  1
  O  O0  1  0.14637815  0.25810630  0.89880622  1
  O  O1  1  0.07017494  0.78712686  0.30179472  1
  O  O2  1  0.37585325  0.75147110  0.03107616  1
  O  O3  1  0.37492825  0.30905203  0.49471858  1
  O  O4  1  0.56039420  0.79884422  0.54671796  1
  O  O5  1  0.68209353  0.43560649  0.32476050  1
  O  O6  1  0.91528545  0.87588399  0.69447120  1
  O  O7  1  0.79702433  0.14585613  0.91172501  1
loop_
_geom_bond_atom_site_label_1
_geom_bond_atom_site_label_2
_geom_bond_distance
_geom_bond_site_symmetry_2
Na0 O6 2.394202 1_445
Na0 O0 2.415615 1_555
Na0 O3 2.459766 1_555
Na0 O1 2.556168 1_545
Na0 O2 2.599670 1_546
Na1 O2 2.324370 1_555
Na1 O0 2.340487 1_554
Na1 O3 2.369076 1_555
Na1 O1 2.391205 1_555
Na2 O3 2.326921 1_555
Na2 O2 2.362050 1_556
Na2 O0 2.373641 1_555
Na2 O4 2.645100 1_555
Na2 O1 2.887724 1_555
Na3 O0 2.320027 1_554
Na3 O4 2.373735 1_545
Na3 O3 2.386833 1_555
Na3 O2 2.436854 1_545
Na3 O1 2.702204 1_545
Na4 O2 2.177921 1_546
Na4 O3 2.232494 1_555
Na4 O7 2.381194 1_555
Na4 O4 2.560266 1_545
Na5 O7 2.314218 1_555
Na5 O4 2.412346 1_555
Na5 O5 2.496254 1_556
Na5 O6 2.603647 1_555
Na6 O7 2.233749 1_564
Na6 O6 2.311847 1_555
Na6 O5 2.396742 1_555
Na6 O1 2.460005 1_655
Na7 O0 2.223674 1_655
Na7 O1 2.370903 1_655
Na7 O6 2.391932 1_555
Na7 O5 2.533097 1_555
Na7 O7 2.805898 1_555
Mg0 O4 1.987463 1_545
Mg0 O7 2.000690 1_555
Mg0 O5 2.013836 1_555
Mg0 O6 2.051572 1_545
Ni0 O2 1.860261 1_555
Ni0 O3 1.875482 1_555
Ni0 O4 1.934710 1_555
Ni0 O5 1.944284 1_555
Ni1 O0 1.831652 1_655
Ni1 O1 1.846508 1_646
Ni1 O6 1.921826 1_545
Ni1 O7 1.957620 1_555
