# generated using pymatgen
data_Hf2InC
_symmetry_space_group_name_H-M   'P 1'
_cell_length_a   3.31006908
_cell_length_b   3.31006908
_cell_length_c   14.77338843
_cell_angle_alpha   90.00000000
_cell_angle_beta   90.00000000
_cell_angle_gamma   120.00001006
_symmetry_Int_Tables_number   1
_chemical_formula_structural   Hf2InC
_chemical_formula_sum   'Hf4 In2 C2'
_cell_volume   140.17960121
_cell_formula_units_Z   2
loop_
 _symmetry_equiv_pos_site_id
 _symmetry_equiv_pos_as_xyz
  1  'x, y, z'
loop_
 _atom_site_type_symbol
 _atom_site_label
 _atom_site_symmetry_multiplicity
 _atom_site_fract_x
 _atom_site_fract_y
 _atom_site_fract_z
 _atom_site_occupancy
  Hf  Hf0  1  0.33333300  0.66666700  0.08226165  1
  Hf  Hf1  1  0.66666700  0.33333300  0.58226165  1
  Hf  Hf2  1  0.66666700  0.33333300  0.91773835  1
  Hf  Hf3  1  0.33333300  0.66666700  0.41773835  1
  In  In0  1  0.33333300  0.66666700  0.75000000  1
  In  In1  1  0.66666700  0.33333300  0.25000000  1
  C  C0  1  0.00000000  -0.00000000  0.00000000  1
  C  C1  1  0.00000000  -0.00000000  0.50000000  1
loop_
_geom_bond_atom_site_label_1
_geom_bond_atom_site_label_2
_geom_bond_distance
_geom_bond_site_symmetry_2
Hf0 In1 3.129373 1_455
Hf0 In1 3.129373 1_565
Hf0 In1 3.129377 1_555
Hf1 In0 3.129373 1_545
Hf1 In0 3.129373 1_655
Hf1 In0 3.129377 1_555
Hf2 In0 3.129373 1_545
Hf2 In0 3.129373 1_655
Hf2 In0 3.129377 1_555
Hf3 In1 3.129373 1_455
Hf3 In1 3.129373 1_565
Hf3 In1 3.129377 1_555
C0 Hf2 2.264750 1_454
C0 Hf0 2.264750 1_545
C0 Hf2 2.264752 1_554
C0 Hf2 2.264752 1_444
C0 Hf0 2.264752 1_445
C0 Hf0 2.264752 1_555
C1 Hf1 2.264750 1_455
C1 Hf3 2.264750 1_545
C1 Hf3 2.264752 1_555
C1 Hf3 2.264752 1_445
C1 Hf1 2.264752 1_555
C1 Hf1 2.264752 1_445
