# generated using pymatgen
data_Rb3Mn2Br7
_symmetry_space_group_name_H-M   'P 1'
_cell_length_a   5.40838400
_cell_length_b   5.40838400
_cell_length_c   14.42218786
_cell_angle_alpha   100.80705139
_cell_angle_beta   100.80705139
_cell_angle_gamma   90.00000000
_symmetry_Int_Tables_number   1
_chemical_formula_structural   Rb3Mn2Br7
_chemical_formula_sum   'Rb3 Mn2 Br7'
_cell_volume   406.75630803
_cell_formula_units_Z   1
loop_
 _symmetry_equiv_pos_site_id
 _symmetry_equiv_pos_as_xyz
  1  'x, y, z'
loop_
 _atom_site_type_symbol
 _atom_site_label
 _atom_site_symmetry_multiplicity
 _atom_site_fract_x
 _atom_site_fract_y
 _atom_site_fract_z
 _atom_site_occupancy
  Rb  Rb0  1  0.18082400  0.18082400  0.36164800  1
  Rb  Rb1  1  0.00000000  0.00000000  0.00000000  1
  Rb  Rb2  1  0.81917600  0.81917600  0.63835200  1
  Mn  Mn0  1  0.40008200  0.40008200  0.80016400  1
  Mn  Mn1  1  0.59991800  0.59991800  0.19983600  1
  Br  Br0  1  0.40408000  0.90408000  0.80816000  1
  Br  Br1  1  0.90408000  0.40408000  0.80816000  1
  Br  Br2  1  0.30555800  0.30555800  0.61111600  1
  Br  Br3  1  0.50000000  0.50000000  0.00000000  1
  Br  Br4  1  0.69444200  0.69444200  0.38888400  1
  Br  Br5  1  0.59592000  0.09592000  0.19184000  1
  Br  Br6  1  0.09592000  0.59592000  0.19184000  1
loop_
_geom_bond_atom_site_label_1
_geom_bond_atom_site_label_2
_geom_bond_distance
_geom_bond_site_symmetry_2
Br0 Mn0 2.706477 1_555
Br0 Mn0 2.706477 1_565
Br0 Rb2 3.590063 1_555
Br0 Rb2 3.590063 1_455
Br0 Rb1 3.798595 1_666
Br0 Rb1 3.798595 1_566
Br1 Mn0 2.706477 1_555
Br1 Mn0 2.706477 1_655
Br1 Rb2 3.590063 1_545
Br1 Rb2 3.590063 1_555
Br1 Rb1 3.798595 1_656
Br1 Rb1 3.798595 1_666
Br2 Mn0 2.628884 1_555
Br2 Rb0 3.469078 1_555
Br2 Rb2 3.843014 1_545
Br2 Rb2 3.843014 1_555
Br2 Rb2 3.843014 1_445
Br2 Rb2 3.843014 1_455
Br3 Mn1 2.778900 1_555
Br3 Mn0 2.778900 1_554
Br3 Rb1 3.824305 1_565
Br3 Rb1 3.824305 1_655
Br3 Rb1 3.824305 1_665
Br3 Rb1 3.824305 1_555
Br4 Mn1 2.628884 1_555
Br4 Rb2 3.469078 1_555
Br4 Rb0 3.843014 1_555
Br4 Rb0 3.843014 1_655
Br4 Rb0 3.843014 1_565
Br4 Rb0 3.843014 1_665
Br5 Mn1 2.706477 1_555
Br5 Mn1 2.706477 1_545
Br5 Rb0 3.590063 1_555
Br5 Rb0 3.590063 1_655
Br5 Rb1 3.798595 1_655
Br5 Rb1 3.798595 1_555
Br6 Mn1 2.706477 1_555
Br6 Mn1 2.706477 1_455
Br6 Rb0 3.590063 1_555
Br6 Rb0 3.590063 1_565
Br6 Rb1 3.798595 1_565
Br6 Rb1 3.798595 1_555
