# generated using pymatgen
data_Na6Nb3In(SiO4)6
_symmetry_space_group_name_H-M   'P 1'
_cell_length_a   9.14284529
_cell_length_b   9.14691013
_cell_length_c   22.43452566
_cell_angle_alpha   90.02844009
_cell_angle_beta   90.00158646
_cell_angle_gamma   119.94558155
_symmetry_Int_Tables_number   1
_chemical_formula_structural   Na6Nb3In(SiO4)6
_chemical_formula_sum   'Na18 Nb9 In3 Si18 O72'
_cell_volume   1625.70266594
_cell_formula_units_Z   3
loop_
 _symmetry_equiv_pos_site_id
 _symmetry_equiv_pos_as_xyz
  1  'x, y, z'
loop_
 _atom_site_type_symbol
 _atom_site_label
 _atom_site_symmetry_multiplicity
 _atom_site_fract_x
 _atom_site_fract_y
 _atom_site_fract_z
 _atom_site_occupancy
  Na  Na0  1  0.00842275  0.00078172  0.49992064  1
  Na  Na1  1  0.98872185  0.98968470  0.99663313  1
  Na  Na2  1  0.66671941  0.33248467  0.83386074  1
  Na  Na3  1  0.66659358  0.33268662  0.32571890  1
  Na  Na4  1  0.34730501  0.66714578  0.16216025  1
  Na  Na5  1  0.32044275  0.65372570  0.66483441  1
  Na  Na6  1  0.64009336  0.01661739  0.24489868  1
  Na  Na7  1  0.37495730  0.35910798  0.24410280  1
  Na  Na8  1  0.98506996  0.62384536  0.24450952  1
  Na  Na9  1  0.63103066  0.62102199  0.74558571  1
  Na  Na10  1  0.98756950  0.36748031  0.74612232  1
  Na  Na11  1  0.38109490  0.01082764  0.74678083  1
  Na  Na12  1  0.66338267  0.96894293  0.58657895  1
  Na  Na13  1  0.30877667  0.97345866  0.08284155  1
  Na  Na14  1  0.02825203  0.33925269  0.08298550  1
  Na  Na15  1  0.96280554  0.28578736  0.41169807  1
  Na  Na16  1  0.32375710  0.03578973  0.41177923  1
  Na  Na17  1  0.71322074  0.67814388  0.41237610  1
  Nb  Nb0  1  0.00050281  0.00082238  0.85742433  1
  Nb  Nb1  1  0.00374445  0.99970423  0.64346678  1
  Nb  Nb2  1  0.99696435  0.99694850  0.14575581  1
  Nb  Nb3  1  0.66720588  0.33449361  0.97797797  1
  Nb  Nb4  1  0.66650364  0.33478913  0.48233064  1
  Nb  Nb5  1  0.33660129  0.66674830  0.01703909  1
  Nb  Nb6  1  0.32994085  0.66294338  0.52195818  1
  Nb  Nb7  1  0.33304759  0.66669207  0.31086492  1
  Nb  Nb8  1  0.33392844  0.66712921  0.81365345  1
  In  In0  1  0.99968135  0.99992233  0.35282352  1
  In  In1  1  0.66709758  0.33518627  0.68512558  1
  In  In2  1  0.66586543  0.33464287  0.17981653  1
  Si  Si0  1  0.29326513  0.99967268  0.25203026  1
  Si  Si1  1  0.70675284  0.70748226  0.25296666  1
  Si  Si2  1  0.00126201  0.29365754  0.25165744  1
  Si  Si3  1  0.28432058  0.28870063  0.75077835  1
  Si  Si4  1  0.00321595  0.71439711  0.75132333  1
  Si  Si5  1  0.71091140  0.99625820  0.74995859  1
  Si  Si6  1  0.96249314  0.33448266  0.58625620  1
  Si  Si7  1  0.37174952  0.03946593  0.58488868  1
  Si  Si8  1  0.66694445  0.62825913  0.58603802  1
  Si  Si9  1  0.96083507  0.62847831  0.08306431  1
  Si  Si10  1  0.66574109  0.03748045  0.08345103  1
  Si  Si11  1  0.37264296  0.33559867  0.08436338  1
  Si  Si12  1  0.62633564  0.66456411  0.91510410  1
  Si  Si13  1  0.03845242  0.37461151  0.91615067  1
  Si  Si14  1  0.33499174  0.96084590  0.91662175  1
  Si  Si15  1  0.62104386  0.95945949  0.41773102  1
  Si  Si16  1  0.33911445  0.37928422  0.41628106  1
  Si  Si17  1  0.04120421  0.66217061  0.41673669  1
  O  O0  1  0.22112826  0.03304311  0.31319975  1
  O  O1  1  0.80959948  0.77595668  0.31477488  1
  O  O2  1  0.96671255  0.18819312  0.31286514  1
  O  O3  1  0.18601305  0.17000285  0.80838396  1
  O  O4  1  0.98508681  0.81472390  0.80872032  1
  O  O5  1  0.83235544  0.01482714  0.80663086  1
  O  O6  1  0.79824985  0.96903436  0.68923935  1
  O  O7  1  0.16179380  0.19349535  0.69220268  1
  O  O8  1  0.02784032  0.83584903  0.69260238  1
  O  O9  1  0.81363620  0.83793755  0.19700658  1
  O  O10  1  0.02686702  0.19449776  0.19367846  1
  O  O11  1  0.16918372  0.97568172  0.19399316  1
  O  O12  1  0.89373962  0.36704387  0.64788914  1
  O  O13  1  0.48701103  0.10541268  0.64432658  1
  O  O14  1  0.63148270  0.52576885  0.64727807  1
  O  O15  1  0.90109238  0.51846054  0.14389435  1
  O  O16  1  0.61836159  0.09851961  0.14474821  1
  O  O17  1  0.46749342  0.36771306  0.14742352  1
  O  O18  1  0.47660656  0.30416580  0.03055508  1
  O  O19  1  0.83306146  0.52315617  0.02806307  1
  O  O20  1  0.69664572  0.17147318  0.02937950  1
  O  O21  1  0.47410054  0.16375376  0.52673333  1
  O  O22  1  0.68760779  0.52456422  0.52794602  1
  O  O23  1  0.83304268  0.30967872  0.52892337  1
  O  O24  1  0.52072283  0.68387199  0.97110593  1
  O  O25  1  0.15536805  0.47208275  0.97448944  1
  O  O26  1  0.31264516  0.84223960  0.97471374  1
  O  O27  1  0.52299274  0.84308006  0.47525513  1
  O  O28  1  0.32383480  0.48590018  0.47189137  1
  O  O29  1  0.16504557  0.68085362  0.47208858  1
  O  O30  1  0.13291923  0.63632994  0.35633674  1
  O  O31  1  0.50072689  0.86297863  0.35818445  1
  O  O32  1  0.36297668  0.49619447  0.35603478  1
  O  O33  1  0.13875258  0.49500838  0.85747545  1
  O  O34  1  0.35688231  0.86161258  0.85779107  1
  O  O35  1  0.50840634  0.64262377  0.85554776  1
  O  O36  1  0.02267363  0.82872716  0.41785927  1
  O  O37  1  0.80722864  0.97930965  0.41772979  1
  O  O38  1  0.17237913  0.19460771  0.41770486  1
  O  O39  1  0.02271706  0.18905549  0.91150710  1
  O  O40  1  0.16560307  0.97720317  0.91170621  1
  O  O41  1  0.81079337  0.83473027  0.91188619  1
  O  O42  1  0.96462404  0.15520796  0.58636442  1
  O  O43  1  0.18698939  0.02659864  0.58760146  1
  O  O44  1  0.83743506  0.81718203  0.58641741  1
  O  O45  1  0.98283809  0.81878283  0.08827243  1
  O  O46  1  0.84269027  0.03095856  0.08871584  1
  O  O47  1  0.18416057  0.15948748  0.08755642  1
  O  O48  1  0.69044958  0.16264636  0.75069955  1
  O  O49  1  0.46963210  0.30612992  0.74955101  1
  O  O50  1  0.83647861  0.52878688  0.75078619  1
  O  O51  1  0.67709791  0.51886933  0.24525424  1
  O  O52  1  0.84224968  0.32468499  0.24514789  1
  O  O53  1  0.48369625  0.15752375  0.24629133  1
  O  O54  1  0.63863135  0.49363492  0.92288312  1
  O  O55  1  0.85323357  0.35971598  0.92187825  1
  O  O56  1  0.50587001  0.14501347  0.92307745  1
  O  O57  1  0.63187231  0.14505198  0.42113167  1
  O  O58  1  0.51410512  0.36959761  0.42103455  1
  O  O59  1  0.85707781  0.48725395  0.42210608  1
  O  O60  1  0.33375645  0.49179544  0.07441474  1
  O  O61  1  0.15369654  0.65867067  0.07350233  1
  O  O62  1  0.50110179  0.84911833  0.07265250  1
  O  O63  1  0.35041646  0.85198017  0.57383113  1
  O  O64  1  0.50791959  0.66287276  0.57566155  1
  O  O65  1  0.15220930  0.49438285  0.57478129  1
  O  O66  1  0.29663506  0.81881472  0.25382455  1
  O  O67  1  0.52339534  0.70528425  0.25341200  1
  O  O68  1  0.18157317  0.47796688  0.25363087  1
  O  O69  1  0.29602183  0.47518701  0.75406721  1
  O  O70  1  0.17871733  0.70340283  0.75418641  1
  O  O71  1  0.52346947  0.82175814  0.75447483  1
loop_
_geom_bond_atom_site_label_1
_geom_bond_atom_site_label_2
_geom_bond_distance
_geom_bond_site_symmetry_2
Na0 O36 2.466755 1_545
Na0 O38 2.478407 1_555
Na0 O43 2.490989 1_555
Na0 O44 2.532226 1_445
Na0 O37 2.541863 1_445
Na0 O42 2.545307 1_455
Na1 O41 2.442396 1_555
Na1 O40 2.538266 1_655
Na1 O39 2.550887 1_665
Na1 O45 2.567580 1_556
Na1 O46 2.587548 1_566
Na1 O47 2.644241 1_666
Na2 O48 2.504961 1_555
Na2 O50 2.515497 1_555
Na2 O55 2.538588 1_555
Na2 O49 2.539363 1_555
Na2 O56 2.568126 1_555
Na2 O54 2.569520 1_555
Na3 O53 2.420898 1_555
Na3 O52 2.443211 1_555
Na3 O51 2.451101 1_555
Na3 O57 2.662338 1_555
Na3 O58 2.664524 1_555
Na3 O59 2.691925 1_555
Na4 O60 2.502297 1_555
Na4 O67 2.518545 1_555
Na4 O62 2.539073 1_555
Na4 O68 2.624390 1_555
Na4 O61 2.637830 1_555
Na4 O66 2.647082 1_555
Na5 O65 2.516053 1_555
Na5 O69 2.522622 1_555
Na5 O70 2.547717 1_555
Na5 O64 2.608529 1_555
Na5 O71 2.645871 1_555
Na5 O63 2.653175 1_555
Na6 O53 2.355138 1_555
Na6 O16 2.408152 1_555
Na6 O52 2.481309 1_555
Na6 O67 2.500324 1_545
Na6 O66 2.739093 1_545
Na6 O31 2.876424 1_545
Na6 O9 2.988379 1_545
Na6 O2 3.004010 1_555
Na7 O17 2.315196 1_555
Na7 O51 2.395189 1_555
Na7 O53 2.494173 1_555
Na7 O68 2.504528 1_555
Na7 O67 2.760598 1_555
Na7 O32 2.832693 1_555
Na8 O52 2.371899 1_555
Na8 O15 2.423374 1_555
Na8 O51 2.480211 1_555
Na8 O66 2.503281 1_655
Na8 O68 2.728309 1_655
Na8 O30 2.824845 1_655
Na9 O14 2.371705 1_555
Na9 O50 2.415760 1_555
Na9 O71 2.486068 1_555
Na9 O49 2.497695 1_555
Na9 O69 2.668034 1_555
Na9 O35 2.757288 1_555
Na10 O12 2.364155 1_555
Na10 O48 2.412326 1_555
Na10 O50 2.476063 1_555
Na10 O69 2.486267 1_655
Na10 O70 2.677041 1_655
Na10 O33 2.810563 1_655
Na11 O49 2.402502 1_555
Na11 O48 2.452451 1_555
Na11 O13 2.476911 1_555
Na11 O70 2.482844 1_545
Na11 O71 2.638717 1_545
Na11 O34 2.795711 1_545
Na12 O42 2.409083 1_565
Na12 O64 2.438157 1_555
Na12 O63 2.521390 1_555
Na12 O44 2.581600 1_555
Na12 O6 2.612224 1_555
Na12 O27 2.780667 1_555
Na12 O13 2.800891 1_565
Na12 O23 2.995074 1_565
Na13 O47 2.477910 1_565
Na13 O61 2.503680 1_555
Na13 O62 2.536551 1_555
Na13 O45 2.586108 1_455
Na13 O26 2.714007 1_554
Na13 O11 2.805983 1_555
Na13 O16 2.831040 1_565
Na13 O18 2.872361 1_565
Na14 O60 2.427977 1_555
Na14 O46 2.463929 1_455
Na14 O61 2.559717 1_555
Na14 O47 2.662008 1_555
Na14 O25 2.710147 1_554
Na14 O15 2.793974 1_455
Na14 O10 2.811907 1_555
Na14 O20 2.888988 1_455
Na15 O2 2.396732 1_555
Na15 O37 2.433035 1_545
Na15 O38 2.445545 1_655
Na15 O59 2.482506 1_555
Na15 O57 2.639771 1_555
Na15 O23 2.937702 1_555
Na16 O0 2.397597 1_555
Na16 O36 2.445126 1_545
Na16 O38 2.459795 1_555
Na16 O57 2.483468 1_555
Na16 O58 2.662497 1_555
Na16 O21 2.881135 1_555
Na17 O1 2.363560 1_555
Na17 O37 2.444914 1_555
Na17 O36 2.454865 1_655
Na17 O58 2.487595 1_555
Na17 O59 2.668215 1_555
Na17 O22 2.902732 1_555
Nb0 O3 1.965527 1_555
Nb0 O4 1.967217 1_445
Nb0 O5 1.968507 1_455
Nb0 O39 2.031409 1_555
Nb0 O40 2.033216 1_545
Nb0 O41 2.044644 1_445
Nb1 O8 1.959911 1_555
Nb1 O7 1.966313 1_565
Nb1 O43 2.006779 1_565
Nb1 O6 2.034034 1_455
Nb1 O44 2.049582 1_455
Nb1 O42 2.074104 1_465
Nb2 O9 1.953154 1_555
Nb2 O11 1.998537 1_655
Nb2 O10 2.000152 1_665
Nb2 O45 2.030606 1_555
Nb2 O46 2.040147 1_565
Nb2 O47 2.075114 1_665
Nb3 O19 1.981275 1_556
Nb3 O18 2.005697 1_556
Nb3 O20 2.007016 1_556
Nb3 O54 2.023949 1_555
Nb3 O55 2.034375 1_555
Nb3 O56 2.035222 1_555
Nb4 O22 1.939466 1_555
Nb4 O21 1.946387 1_555
Nb4 O23 1.952719 1_555
Nb4 O58 2.092146 1_555
Nb4 O59 2.093412 1_555
Nb4 O57 2.108623 1_555
Nb5 O24 1.912401 1_554
Nb5 O26 1.969467 1_554
Nb5 O25 1.969770 1_554
Nb5 O62 2.023465 1_555
Nb5 O60 2.044243 1_555
Nb5 O61 2.069637 1_555
Nb6 O28 1.948111 1_555
Nb6 O29 1.948874 1_555
Nb6 O65 1.980587 1_555
Nb6 O27 2.006596 1_555
Nb6 O63 2.013447 1_555
Nb6 O64 2.024943 1_555
Nb7 O31 1.987672 1_555
Nb7 O30 1.989682 1_555
Nb7 O32 1.990352 1_555
Nb7 O66 2.036848 1_555
Nb7 O68 2.039008 1_555
Nb7 O67 2.049857 1_555
Nb8 O34 1.953110 1_555
Nb8 O33 1.956104 1_555
Nb8 O35 1.958434 1_555
Nb8 O71 2.078746 1_555
Nb8 O70 2.091436 1_555
Nb8 O69 2.092773 1_555
In0 O0 2.090269 1_665
In0 O2 2.092808 1_565
In0 O1 2.095100 1_555
In0 O37 2.218372 1_555
In0 O36 2.226198 1_655
In0 O38 2.230050 1_665
In1 O14 2.105714 1_555
In1 O12 2.115208 1_555
In1 O13 2.123486 1_555
In1 O49 2.222752 1_555
In1 O50 2.227886 1_555
In1 O48 2.244817 1_555
In2 O17 2.111147 1_555
In2 O15 2.119693 1_555
In2 O16 2.129347 1_555
In2 O51 2.197748 1_555
In2 O52 2.214454 1_555
In2 O53 2.220686 1_555
O0 Si0 1.616170 1_545
O1 Si1 1.615651 1_555
O2 Si2 1.616502 1_655
O3 Si3 1.638302 1_555
O4 Si4 1.636585 1_655
O5 Si5 1.640011 1_545
O6 Si5 1.659365 1_555
O7 Si3 1.662842 1_555
O8 Si4 1.664951 1_555
O9 Si1 1.671033 1_555
O10 Si2 1.667391 1_555
O11 Si0 1.667794 1_555
O12 Si6 1.606945 1_555
O13 Si7 1.617717 1_555
O14 Si8 1.602935 1_555
O15 Si9 1.620514 1_555
O16 Si10 1.622097 1_555
O17 Si11 1.607785 1_555
O18 Si11 1.648017 1_555
O19 Si9 1.640290 1_555
O20 Si10 1.645988 1_555
O21 Si7 1.676237 1_555
O22 Si8 1.676755 1_555
O23 Si6 1.684696 1_555
O24 Si12 1.646861 1_555
O25 Si13 1.642494 1_555
O26 Si14 1.642359 1_555
O27 Si15 1.628188 1_555
O28 Si16 1.631515 1_555
O29 Si17 1.630892 1_555
O30 Si17 1.671159 1_555
O31 Si15 1.674241 1_555
O32 Si16 1.669279 1_555
O33 Si13 1.667266 1_555
O34 Si14 1.669162 1_555
O35 Si12 1.664827 1_555
O36 Si17 1.614921 1_555
O37 Si15 1.619285 1_555
O38 Si16 1.614798 1_555
O39 Si13 1.633494 1_555
O40 Si14 1.632281 1_555
O41 Si12 1.628349 1_555
O42 Si6 1.649624 1_555
O43 Si7 1.634806 1_555
O44 Si8 1.651302 1_555
O45 Si9 1.653587 1_555
O46 Si10 1.652633 1_555
O47 Si11 1.672846 1_555
O48 Si5 1.623514 1_545
O49 Si3 1.620828 1_555
O50 Si4 1.619436 1_655
O51 Si1 1.616342 1_555
O52 Si2 1.620936 1_655
O53 Si0 1.619604 1_545
O54 Si12 1.631958 1_555
O55 Si13 1.634764 1_655
O56 Si14 1.634569 1_545
O57 Si15 1.652132 1_545
O58 Si16 1.649384 1_555
O59 Si17 1.649100 1_655
O60 Si11 1.650723 1_555
O61 Si9 1.656936 1_455
O62 Si10 1.644195 1_565
O63 Si7 1.645040 1_565
O64 Si8 1.651665 1_555
O65 Si6 1.637601 1_455
O66 Si0 1.670390 1_555
O67 Si1 1.666495 1_555
O68 Si2 1.669456 1_555
O69 Si3 1.656575 1_555
O70 Si4 1.658318 1_555
O71 Si5 1.662574 1_555
