# generated using pymatgen
data_Na14Ti4In4Si9(SO16)3
_symmetry_space_group_name_H-M   'P 1'
_cell_length_a   18.26182830
_cell_length_b   9.12691730
_cell_length_c   22.26926446
_cell_angle_alpha   90.04352293
_cell_angle_beta   89.81918438
_cell_angle_gamma   120.03365341
_symmetry_Int_Tables_number   1
_chemical_formula_structural   Na14Ti4In4Si9(SO16)3
_chemical_formula_sum   'Na42 Ti12 In12 Si27 S9 O144'
_cell_volume   3213.32862212
_cell_formula_units_Z   3
loop_
 _symmetry_equiv_pos_site_id
 _symmetry_equiv_pos_as_xyz
  1  'x, y, z'
loop_
 _atom_site_type_symbol
 _atom_site_label
 _atom_site_symmetry_multiplicity
 _atom_site_fract_x
 _atom_site_fract_y
 _atom_site_fract_z
 _atom_site_occupancy
  Na  Na0  1  0.82187317  0.01309443  0.25646979  1
  Na  Na1  1  0.17544487  0.35376237  0.25528525  1
  Na  Na2  1  0.69174105  0.37131473  0.25373677  1
  Na  Na3  1  0.99755774  0.62757302  0.24784251  1
  Na  Na4  1  0.49761553  0.63524395  0.24963425  1
  Na  Na5  1  0.32033012  0.62845430  0.75303723  1
  Na  Na6  1  0.99522458  0.35583350  0.74199894  1
  Na  Na7  1  0.49861598  0.36896404  0.74477389  1
  Na  Na8  1  0.19015166  0.01182054  0.74957979  1
  Na  Na9  1  0.68207771  0.00439829  0.75014148  1
  Na  Na10  1  0.14735862  0.32182910  0.58145376  1
  Na  Na11  1  0.65181230  0.32523683  0.58075348  1
  Na  Na12  1  0.33703013  0.98773146  0.58814249  1
  Na  Na13  1  0.83423794  0.97321444  0.58222611  1
  Na  Na14  1  0.14718770  0.97561940  0.08063863  1
  Na  Na15  1  0.65090773  0.97347766  0.07789400  1
  Na  Na16  1  0.33404202  0.69121598  0.08127254  1
  Na  Na17  1  0.83725783  0.68796727  0.08830370  1
  Na  Na18  1  0.47892447  0.67385788  0.91467663  1
  Na  Na19  1  0.97782463  0.67376913  0.92307696  1
  Na  Na20  1  0.34714058  0.02915661  0.90697812  1
  Na  Na21  1  0.84714023  0.02761980  0.90867636  1
  Na  Na22  1  0.17361888  0.29788345  0.91020109  1
  Na  Na23  1  0.66804524  0.28605047  0.91139897  1
  Na  Na24  1  0.48174652  0.28923513  0.42707182  1
  Na  Na25  1  0.97712315  0.28099732  0.41942154  1
  Na  Na26  1  0.16701875  0.05047005  0.41529817  1
  Na  Na27  1  0.67504363  0.05099211  0.41647314  1
  Na  Na28  1  0.34846850  0.66819190  0.41349744  1
  Na  Na29  1  0.84746970  0.66356929  0.41836671  1
  Na  Na30  1  0.99791706  0.99080457  0.50255559  1
  Na  Na31  1  0.50670082  0.01099918  0.50586376  1
  Na  Na32  1  0.00409517  -0.00033116  0.00436714  1
  Na  Na33  1  0.50386816  0.00391720  0.99856131  1
  Na  Na34  1  0.32963142  0.33663204  0.82686560  1
  Na  Na35  1  0.82334624  0.33335019  0.82656900  1
  Na  Na36  1  0.32390549  0.31015046  0.33342201  1
  Na  Na37  1  0.82923688  0.32411594  0.33205300  1
  Na  Na38  1  0.15619301  0.65256747  0.16743338  1
  Na  Na39  1  0.66352246  0.65413267  0.16619125  1
  Na  Na40  1  0.16230251  0.67088270  0.66543700  1
  Na  Na41  1  0.65997295  0.66118548  0.66455773  1
  Ti  Ti0  1  0.99701970  0.01083745  0.64499491  1
  Ti  Ti1  1  0.51058961  0.01717705  0.65584825  1
  Ti  Ti2  1  0.00958063  0.00463416  0.15576699  1
  Ti  Ti3  1  0.50343092  0.98587281  0.14876888  1
  Ti  Ti4  1  0.82624662  0.32022721  0.67814789  1
  Ti  Ti5  1  0.32795703  0.34923595  0.18358477  1
  Ti  Ti6  1  0.16696748  0.67187868  0.01957039  1
  Ti  Ti7  1  0.66614720  0.66473437  0.01918329  1
  Ti  Ti8  1  0.16481441  0.66593278  0.51971600  1
  Ti  Ti9  1  0.67584757  0.66059939  0.52515817  1
  Ti  Ti10  1  0.17743480  0.67233472  0.30730350  1
  Ti  Ti11  1  0.67852112  0.68524064  0.80549239  1
  In  In0  1  0.00215987  0.01136721  0.35088656  1
  In  In1  1  0.50027881  0.00445582  0.35197641  1
  In  In2  1  0.99966512  0.99598395  0.85000055  1
  In  In3  1  0.50224297  0.99265896  0.84959464  1
  In  In4  1  0.33522572  0.32469561  0.68133140  1
  In  In5  1  0.83578494  0.34637616  0.18183383  1
  In  In6  1  0.32800426  0.33604091  0.98649392  1
  In  In7  1  0.82408806  0.33813029  0.98469159  1
  In  In8  1  0.32578931  0.31263125  0.48462763  1
  In  In9  1  0.82841283  0.32894140  0.48884622  1
  In  In10  1  0.67589986  0.67962138  0.31498370  1
  In  In11  1  0.17431125  0.67144212  0.81215141  1
  Si  Si0  1  0.15409991  0.00306305  0.25163917  1
  Si  Si1  1  0.64716847  0.99609175  0.25123318  1
  Si  Si2  1  0.35547287  0.71001569  0.24938229  1
  Si  Si3  1  0.85588153  0.71145145  0.25010155  1
  Si  Si4  1  0.00082211  0.29729773  0.25201605  1
  Si  Si5  1  0.14467942  0.29269208  0.74974219  1
  Si  Si6  1  0.65408132  0.30548680  0.75307613  1
  Si  Si7  1  0.50114725  0.70500885  0.75229594  1
  Si  Si8  1  0.35547237  0.00044115  0.75018884  1
  Si  Si9  1  0.85608378  0.01083733  0.75031800  1
  Si  Si10  1  0.48581829  0.33264013  0.58198783  1
  Si  Si11  1  0.98277917  0.34220333  0.58413186  1
  Si  Si12  1  0.17704788  0.02300874  0.58349369  1
  Si  Si13  1  0.67795329  0.02324996  0.58246588  1
  Si  Si14  1  0.83985918  0.63155652  0.58225353  1
  Si  Si15  1  0.48337850  0.62581701  0.08467908  1
  Si  Si16  1  0.98615212  0.63861241  0.08183585  1
  Si  Si17  1  0.17847867  0.33375996  0.08313959  1
  Si  Si18  1  0.67569056  0.33011613  0.08404702  1
  Si  Si19  1  0.31463727  0.66811918  0.91881557  1
  Si  Si20  1  0.80831641  0.66707148  0.91494356  1
  Si  Si21  1  0.16773661  0.95988178  0.91611449  1
  Si  Si22  1  0.66850925  0.95380847  0.91674772  1
  Si  Si23  1  0.30831522  0.94968650  0.41550312  1
  Si  Si24  1  0.81481376  0.96413656  0.41947037  1
  Si  Si25  1  0.16843012  0.38296109  0.41661783  1
  Si  Si26  1  0.66716511  0.37412271  0.41555670  1
  S  S0  1  0.49401968  0.28891915  0.24734967  1
  S  S1  1  0.99516858  0.69853704  0.74860005  1
  S  S2  1  0.33335805  0.63621129  0.58104022  1
  S  S3  1  0.33534806  0.04185829  0.08368064  1
  S  S4  1  0.83389116  0.03115849  0.08107374  1
  S  S5  1  0.02168313  0.37925496  0.91949291  1
  S  S6  1  0.52487085  0.38408163  0.91721204  1
  S  S7  1  0.02698043  0.66592748  0.41509487  1
  S  S8  1  0.52084487  0.66323657  0.41865780  1
  O  O0  1  0.12276169  0.05959079  0.31156107  1
  O  O1  1  0.61058525  0.03898712  0.31136476  1
  O  O2  1  0.41249995  0.77455235  0.30952098  1
  O  O3  1  0.90979079  0.78831639  0.31176934  1
  O  O4  1  0.48192511  0.20270194  0.30658733  1
  O  O5  1  0.98082277  0.19556158  0.31525455  1
  O  O6  1  0.11199400  0.18506068  0.81302782  1
  O  O7  1  0.61951554  0.18935923  0.81384884  1
  O  O8  1  0.47996129  0.76305750  0.81636168  1
  O  O9  1  0.98421579  0.76060721  0.80916034  1
  O  O10  1  0.40718292  0.02727427  0.81307821  1
  O  O11  1  0.91059113  0.05118965  0.81235609  1
  O  O12  1  0.40961551  0.98537060  0.69308054  1
  O  O13  1  0.90484356  0.98690316  0.69324974  1
  O  O14  1  0.08125954  0.18142829  0.69453758  1
  O  O15  1  0.58841714  0.20829790  0.69604373  1
  O  O16  1  0.00524048  0.81471400  0.70042019  1
  O  O17  1  0.51884133  0.85045187  0.70089442  1
  O  O18  1  0.40300364  0.82783976  0.19087443  1
  O  O19  1  0.90924069  0.83325110  0.19183951  1
  O  O20  1  0.01888031  0.18845288  0.19967028  1
  O  O21  1  0.50328609  0.19135407  0.19809936  1
  O  O22  1  0.08894963  0.97020918  0.19438729  1
  O  O23  1  0.58292250  0.97713037  0.19374967  1
  O  O24  1  0.44757543  0.37034032  0.64150532  1
  O  O25  1  0.93178293  0.35910110  0.64221943  1
  O  O26  1  0.24288516  0.09832227  0.63967025  1
  O  O27  1  0.74648690  0.12792469  0.63838770  1
  O  O28  1  0.31814044  0.52837570  0.63425826  1
  O  O29  1  0.82031874  0.48693942  0.63392775  1
  O  O30  1  0.43030360  0.50336601  0.14198564  1
  O  O31  1  0.94886669  0.52486698  0.14151455  1
  O  O32  1  0.32388378  0.13434251  0.13341189  1
  O  O33  1  0.81803641  0.10781815  0.13441408  1
  O  O34  1  0.24854058  0.36664564  0.13858934  1
  O  O35  1  0.74065330  0.38135050  0.14032464  1
  O  O36  1  0.21170021  0.27636774  0.02446594  1
  O  O37  1  0.70707313  0.26651995  0.02501141  1
  O  O38  1  0.42626094  0.55566027  0.02468215  1
  O  O39  1  0.92500629  0.55730403  0.02232058  1
  O  O40  1  0.34895747  0.13278824  0.02571797  1
  O  O41  1  0.84441301  0.13098166  0.02611430  1
  O  O42  1  0.20989412  0.14792511  0.52405130  1
  O  O43  1  0.70950473  0.14277688  0.52274007  1
  O  O44  1  0.34398109  0.55822319  0.52584070  1
  O  O45  1  0.85801959  0.57068222  0.51849547  1
  O  O46  1  0.42382170  0.28755720  0.52262014  1
  O  O47  1  0.92667563  0.29637082  0.52379374  1
  O  O48  1  0.25793063  0.67798018  0.97665478  1
  O  O49  1  0.75817737  0.68040106  0.97540019  1
  O  O50  1  0.07666628  0.47492565  0.97102839  1
  O  O51  1  0.57634512  0.47432724  0.97113559  1
  O  O52  1  0.15986213  0.83592680  0.97404041  1
  O  O53  1  0.65806980  0.83488897  0.97664174  1
  O  O54  1  0.25827302  0.83606116  0.47512127  1
  O  O55  1  0.75872357  0.83682161  0.47577167  1
  O  O56  1  0.15841343  0.48176012  0.47578741  1
  O  O57  1  0.66075291  0.48149130  0.47332171  1
  O  O58  1  0.07700155  0.67891978  0.46933872  1
  O  O59  1  0.57515762  0.67762204  0.46876427  1
  O  O60  1  0.06773428  0.65279224  0.35951935  1
  O  O61  1  0.55347149  0.63956076  0.35949685  1
  O  O62  1  0.24929703  0.84793376  0.35692432  1
  O  O63  1  0.75993250  0.90083121  0.35686337  1
  O  O64  1  0.17585889  0.49626793  0.35622070  1
  O  O65  1  0.67320034  0.46990994  0.35190979  1
  O  O66  1  0.05560018  0.47225823  0.86212102  1
  O  O67  1  0.56223651  0.47869045  0.86165033  1
  O  O68  1  0.17669059  0.87766998  0.85364088  1
  O  O69  1  0.67619995  0.85560964  0.85712156  1
  O  O70  1  0.25797234  0.62334173  0.85793847  1
  O  O71  1  0.74839305  0.64885751  0.85758820  1
  O  O72  1  0.02165057  0.82484367  0.41572320  1
  O  O73  1  0.51372060  0.81970417  0.41815418  1
  O  O74  1  0.40113845  0.96246264  0.41499728  1
  O  O75  1  0.90458430  0.96228631  0.42099356  1
  O  O76  1  0.08524195  0.19289192  0.41847840  1
  O  O77  1  0.57930624  0.18690604  0.41931402  1
  O  O78  1  0.01700730  0.21253254  0.91997902  1
  O  O79  1  0.51998792  0.21554196  0.91806552  1
  O  O80  1  0.08123259  0.97429993  0.91960157  1
  O  O81  1  0.58507382  0.97657758  0.91888039  1
  O  O82  1  0.40419163  0.84857918  0.92195871  1
  O  O83  1  0.90154775  0.83992522  0.91530623  1
  O  O84  1  0.49489154  0.16099020  0.58982634  1
  O  O85  1  0.99373088  0.17115143  0.59247423  1
  O  O86  1  0.08490139  0.00644561  0.59598545  1
  O  O87  1  0.58656674  0.00952976  0.59603184  1
  O  O88  1  0.40682920  0.80892166  0.58690014  1
  O  O89  1  0.91472190  0.82465055  0.59502515  1
  O  O90  1  0.49147962  0.81803478  0.09256710  1
  O  O91  1  0.99539653  0.82842499  0.08852285  1
  O  O92  1  0.40677260  0.00969810  0.09109865  1
  O  O93  1  0.90714357  0.00554792  0.08685117  1
  O  O94  1  0.08714596  0.16571622  0.09553109  1
  O  O95  1  0.58115136  0.16272512  0.09621837  1
  O  O96  1  0.34294761  0.16521635  0.74918220  1
  O  O97  1  0.84200004  0.17436575  0.74195328  1
  O  O98  1  0.24067177  0.32666259  0.74117148  1
  O  O99  1  0.74501713  0.31690269  0.73942246  1
  O  O100  1  0.41786842  0.52166252  0.74197792  1
  O  O101  1  0.92186673  0.52533965  0.74251436  1
  O  O102  1  0.34236900  0.51490180  0.24055690  1
  O  O103  1  0.84269000  0.52105676  0.24819814  1
  O  O104  1  0.42012114  0.31427739  0.24028510  1
  O  O105  1  0.91748783  0.31339668  0.24169738  1
  O  O106  1  0.24668655  0.17156884  0.23499660  1
  O  O107  1  0.74154061  0.15441700  0.24102878  1
  O  O108  1  0.32944710  0.50534601  0.92138248  1
  O  O109  1  0.81773854  0.49728578  0.91493607  1
  O  O110  1  0.43836495  0.35936147  0.92303363  1
  O  O111  1  0.93541024  0.35581167  0.92572623  1
  O  O112  1  0.25575386  0.14272657  0.92115659  1
  O  O113  1  0.75737899  0.13783612  0.91881928  1
  O  O114  1  0.31716708  0.13752593  0.41434668  1
  O  O115  1  0.82936731  0.15588070  0.42351072  1
  O  O116  1  0.25732274  0.37716995  0.41775445  1
  O  O117  1  0.75312714  0.36071821  0.41778756  1
  O  O118  1  0.43358991  0.51303456  0.42311637  1
  O  O119  1  0.94167708  0.51546528  0.41783481  1
  O  O120  1  0.17970634  0.51420101  0.07883107  1
  O  O121  1  0.67168709  0.50441599  0.07260316  1
  O  O122  1  0.08373122  0.66935813  0.07359871  1
  O  O123  1  0.58054244  0.66168865  0.08039931  1
  O  O124  1  0.25490767  0.87110677  0.08115574  1
  O  O125  1  0.75502932  0.85744735  0.07718826  1
  O  O126  1  0.17221431  0.83958504  0.57179106  1
  O  O127  1  0.67800182  0.84461731  0.57847156  1
  O  O128  1  0.25450147  0.65167070  0.57740978  1
  O  O129  1  0.75056219  0.64153159  0.57981422  1
  O  O130  1  0.08031883  0.50311750  0.57885620  1
  O  O131  1  0.58206823  0.49533777  0.57328478  1
  O  O132  1  0.15437747  0.82459298  0.25600627  1
  O  O133  1  0.64279704  0.81246795  0.24969010  1
  O  O134  1  0.25935345  0.68105746  0.25259396  1
  O  O135  1  0.76308479  0.70042031  0.24544360  1
  O  O136  1  0.08745195  0.48556988  0.25426605  1
  O  O137  1  0.57255441  0.45867797  0.24770280  1
  O  O138  1  0.14189770  0.47055204  0.74918836  1
  O  O139  1  0.65403273  0.48522227  0.75717771  1
  O  O140  1  0.07428344  0.68621487  0.74936849  1
  O  O141  1  0.58803745  0.69056914  0.75491761  1
  O  O142  1  0.26251947  0.82605525  0.74461597  1
  O  O143  1  0.76029345  0.84018643  0.75346734  1
loop_
_geom_bond_atom_site_label_1
_geom_bond_atom_site_label_2
_geom_bond_distance
_geom_bond_site_symmetry_2
Na0 O107 2.414969 1_555
Na0 O105 2.424121 1_555
Na0 O63 2.480927 1_545
Na0 O135 2.508089 1_545
Na0 O133 2.842313 1_545
Na0 O5 2.845097 1_555
Na0 O33 2.864569 1_555
Na1 O136 2.442381 1_555
Na1 O134 2.587012 1_555
Na1 O64 2.594215 1_555
Na1 O106 2.612012 1_555
Na1 O102 2.658868 1_555
Na1 O0 2.667684 1_555
Na1 O20 2.772429 1_555
Na1 O34 2.893189 1_555
Na2 O103 2.389304 1_555
Na2 O65 2.449774 1_555
Na2 O107 2.574038 1_555
Na2 O135 2.614536 1_555
Na2 O35 2.662543 1_555
Na2 O137 2.670309 1_555
Na2 O1 2.921877 1_555
Na3 O105 2.486502 1_555
Na3 O103 2.488238 1_555
Na3 O132 2.513133 1_655
Na3 O31 2.540000 1_555
Na3 O136 2.554748 1_655
Na3 O60 2.757589 1_655
Na4 O133 2.313614 1_555
Na4 O102 2.484178 1_555
Na4 O104 2.545331 1_555
Na4 O137 2.584334 1_555
Na4 O61 2.646327 1_555
Na4 O30 2.690680 1_555
Na4 O2 2.788170 1_555
Na4 O23 2.973223 1_555
Na5 O98 2.400673 1_555
Na5 O100 2.432732 1_555
Na5 O142 2.511970 1_555
Na5 O70 2.585806 1_555
Na5 O28 2.791597 1_555
Na5 O138 2.828940 1_555
Na5 O8 2.904201 1_555
Na6 O138 2.343391 1_655
Na6 O97 2.435921 1_555
Na6 O101 2.502543 1_555
Na6 O25 2.516236 1_555
Na6 O140 2.616610 1_655
Na6 O11 2.874748 1_555
Na6 O66 2.888266 1_655
Na6 O14 2.934254 1_655
Na7 O100 2.485663 1_555
Na7 O24 2.486552 1_555
Na7 O139 2.499485 1_555
Na7 O96 2.501175 1_555
Na7 O141 2.556687 1_555
Na7 O67 2.824448 1_555
Na7 O15 2.900150 1_555
Na8 O96 2.415670 1_555
Na8 O98 2.547427 1_555
Na8 O68 2.574712 1_545
Na8 O26 2.601625 1_555
Na8 O142 2.622043 1_545
Na8 O140 2.648444 1_545
Na9 O99 2.496159 1_555
Na9 O141 2.498017 1_545
Na9 O97 2.535917 1_555
Na9 O143 2.536872 1_545
Na9 O69 2.718216 1_545
Na9 O27 2.739785 1_555
Na9 O17 2.808705 1_545
Na9 O7 2.843342 1_555
Na10 O85 2.440584 1_455
Na10 O130 2.503643 1_555
Na10 O86 2.530592 1_555
Na10 O128 2.646173 1_555
Na10 O42 2.694375 1_555
Na10 O56 2.723194 1_555
Na10 O14 2.806825 1_555
Na10 O28 2.966112 1_555
Na11 O131 2.457883 1_555
Na11 O84 2.489307 1_555
Na11 O129 2.524828 1_555
Na11 O87 2.529881 1_555
Na11 O43 2.701240 1_555
Na11 O57 2.748422 1_555
Na11 O15 2.796360 1_555
Na11 O29 2.919574 1_555
Na12 O84 2.500000 1_565
Na12 O88 2.524070 1_555
Na12 O126 2.636724 1_555
Na12 O26 2.648445 1_565
Na12 O128 2.666471 1_555
Na12 O12 2.695703 1_555
Na12 O46 2.789151 1_565
Na12 O54 2.888627 1_555
Na13 O89 2.465408 1_555
Na13 O127 2.484808 1_555
Na13 O85 2.556470 1_565
Na13 O129 2.621413 1_555
Na13 O55 2.714614 1_555
Na13 O13 2.765748 1_555
Na13 O47 2.872279 1_565
Na13 O27 2.894087 1_565
Na14 O91 2.406046 1_455
Na14 O122 2.436950 1_555
Na14 O94 2.494714 1_565
Na14 O124 2.580359 1_555
Na14 O36 2.691855 1_565
Na14 O22 2.735096 1_555
Na14 O52 2.757112 1_554
Na15 O123 2.468111 1_555
Na15 O90 2.540874 1_555
Na15 O125 2.598598 1_555
Na15 O37 2.615979 1_565
Na15 O53 2.619283 1_554
Na15 O95 2.640238 1_565
Na15 O23 2.867073 1_555
Na15 O33 2.945955 1_565
Na16 O120 2.449388 1_555
Na16 O90 2.518351 1_555
Na16 O92 2.529315 1_565
Na16 O124 2.675675 1_555
Na16 O48 2.688164 1_554
Na16 O18 2.746085 1_555
Na16 O38 2.832827 1_555
Na16 O34 2.864549 1_555
Na17 O91 2.505507 1_555
Na17 O93 2.515595 1_565
Na17 O121 2.646946 1_555
Na17 O125 2.652728 1_555
Na17 O19 2.659325 1_555
Na17 O35 2.708467 1_555
Na17 O39 2.836294 1_555
Na17 O49 2.887000 1_554
Na18 O8 2.333161 1_555
Na18 O108 2.373679 1_555
Na18 O81 2.457551 1_555
Na18 O82 2.570717 1_555
Na18 O110 2.587290 1_555
Na18 O38 2.653398 1_556
Na19 O39 2.430744 1_556
Na19 O80 2.431064 1_655
Na19 O83 2.527152 1_555
Na19 O109 2.542276 1_555
Na19 O111 2.602843 1_555
Na19 O9 2.643089 1_555
Na20 O10 2.362102 1_555
Na20 O82 2.373798 1_545
Na20 O112 2.384768 1_555
Na20 O110 2.638594 1_555
Na20 O79 2.747278 1_555
Na20 O40 2.802339 1_556
Na20 O68 2.953691 1_545
Na21 O113 2.323326 1_555
Na21 O83 2.376707 1_545
Na21 O11 2.392775 1_555
Na21 O111 2.623676 1_555
Na21 O78 2.701513 1_655
Na21 O41 2.788273 1_556
Na21 O69 2.939687 1_545
Na22 O6 2.421072 1_555
Na22 O108 2.520976 1_555
Na22 O112 2.538452 1_555
Na22 O78 2.569057 1_555
Na22 O80 2.573586 1_545
Na22 O36 2.673160 1_556
Na22 O70 2.822140 1_555
Na23 O7 2.347285 1_555
Na23 O109 2.433418 1_555
Na23 O79 2.450013 1_555
Na23 O81 2.452879 1_545
Na23 O113 2.594188 1_555
Na23 O37 2.660868 1_556
Na24 O46 2.369878 1_555
Na24 O77 2.395771 1_555
Na24 O74 2.596272 1_545
Na24 O118 2.598513 1_555
Na24 O114 2.621006 1_555
Na24 O4 2.796802 1_555
Na25 O115 2.346761 1_555
Na25 O5 2.458192 1_555
Na25 O76 2.476802 1_655
Na25 O75 2.521914 1_545
Na25 O47 2.527080 1_555
Na25 O119 2.527177 1_555
Na26 O72 2.411566 1_545
Na26 O76 2.422251 1_555
Na26 O114 2.443159 1_555
Na26 O0 2.465026 1_555
Na26 O42 2.565371 1_555
Na26 O116 2.586800 1_555
Na27 O117 2.447517 1_555
Na27 O43 2.485302 1_555
Na27 O115 2.487033 1_555
Na27 O1 2.600835 1_555
Na27 O77 2.601852 1_555
Na27 O73 2.628852 1_545
Na27 O63 2.855636 1_545
Na28 O116 2.325584 1_555
Na28 O74 2.356656 1_555
Na28 O2 2.553659 1_555
Na28 O118 2.583357 1_555
Na28 O73 2.618114 1_555
Na28 O44 2.682029 1_555
Na29 O75 2.382851 1_555
Na29 O117 2.416969 1_555
Na29 O45 2.428353 1_555
Na29 O3 2.629955 1_555
Na29 O119 2.667363 1_555
Na29 O72 2.756828 1_655
Na30 O75 2.417973 1_555
Na30 O76 2.548089 1_665
Na30 O89 2.554811 1_555
Na30 O86 2.581871 1_665
Na30 O85 2.616272 1_565
Na30 O72 2.620840 1_655
Na31 O84 2.388669 1_555
Na31 O77 2.430672 1_555
Na31 O87 2.489472 1_555
Na31 O88 2.569382 1_545
Na31 O73 2.664039 1_545
Na31 O74 2.678729 1_545
Na32 O91 2.394623 1_445
Na32 O80 2.431110 1_544
Na32 O94 2.536227 1_555
Na32 O93 2.566334 1_455
Na32 O83 2.617667 1_444
Na32 O78 2.627895 1_554
Na33 O82 2.380350 1_545
Na33 O81 2.400667 1_545
Na33 O79 2.542321 1_555
Na33 O95 2.605594 1_556
Na33 O90 2.632508 1_546
Na33 O92 2.732011 1_556
Na34 O96 2.423549 1_555
Na34 O98 2.482057 1_555
Na34 O100 2.506714 1_555
Na34 O108 2.607989 1_555
Na34 O112 2.637998 1_555
Na34 O110 2.861148 1_555
Na35 O99 2.374253 1_555
Na35 O97 2.501770 1_555
Na35 O109 2.503862 1_555
Na35 O101 2.576647 1_555
Na35 O113 2.587258 1_555
Na35 O111 2.951948 1_555
Na36 O114 2.356684 1_555
Na36 O116 2.471425 1_555
Na36 O106 2.573415 1_555
Na36 O102 2.693217 1_555
Na36 O104 2.702119 1_555
Na36 O118 2.781639 1_555
Na37 O117 2.477039 1_555
Na37 O103 2.517641 1_555
Na37 O115 2.552302 1_555
Na37 O107 2.570080 1_555
Na37 O105 2.606286 1_555
Na37 O119 2.710266 1_555
Na38 O136 2.389985 1_555
Na38 O120 2.491192 1_555
Na38 O122 2.522311 1_555
Na38 O132 2.530565 1_555
Na38 O134 2.597056 1_555
Na38 O124 2.702653 1_555
Na39 O135 2.418544 1_555
Na39 O123 2.464605 1_555
Na39 O133 2.495630 1_555
Na39 O137 2.501273 1_555
Na39 O121 2.535885 1_555
Na39 O125 2.654234 1_555
Na40 O142 2.426162 1_555
Na40 O130 2.454085 1_555
Na40 O138 2.505837 1_555
Na40 O140 2.510496 1_555
Na40 O126 2.544809 1_555
Na40 O128 2.642466 1_555
Na41 O127 2.456734 1_555
Na41 O141 2.486355 1_555
Na41 O131 2.510884 1_555
Na41 O129 2.570454 1_555
Na41 O139 2.583499 1_555
Na41 O143 2.639605 1_555
In0 O5 2.065759 1_455
In0 O3 2.077900 1_445
In0 O76 2.192468 1_555
In0 O0 2.197575 1_555
In0 O75 2.235571 1_445
In0 O72 2.392297 1_545
In1 O1 2.080498 1_555
In1 O2 2.122719 1_545
In1 O74 2.164378 1_545
In1 O77 2.169930 1_555
In1 O4 2.240501 1_555
In1 O73 2.344323 1_545
In2 O6 2.076490 1_665
In2 O11 2.105310 1_565
In2 O83 2.187757 1_555
In2 O9 2.216694 1_555
In2 O80 2.229465 1_655
In2 O78 2.409755 1_665
In3 O8 2.061701 1_555
In3 O10 2.081585 1_565
In3 O7 2.141469 1_565
In3 O81 2.219824 1_555
In3 O82 2.271642 1_555
In3 O79 2.430362 1_565
In4 O24 2.074399 1_555
In4 O26 2.119543 1_555
In4 O100 2.150986 1_555
In4 O96 2.152152 1_555
In4 O98 2.184992 1_555
In4 O28 2.288592 1_555
In5 O31 2.085078 1_555
In5 O103 2.130299 1_555
In5 O35 2.130776 1_555
In5 O105 2.134649 1_555
In5 O107 2.177181 1_555
In5 O33 2.291958 1_555
In6 O36 2.086663 1_556
In6 O38 2.089837 1_556
In6 O108 2.110285 1_555
In6 O112 2.156115 1_555
In6 O40 2.250736 1_556
In6 O110 2.378517 1_555
In7 O37 2.095344 1_556
In7 O39 2.101674 1_556
In7 O109 2.170190 1_555
In7 O113 2.180763 1_555
In7 O41 2.295743 1_556
In7 O111 2.353350 1_555
In8 O42 2.077357 1_555
In8 O46 2.095987 1_555
In8 O114 2.185030 1_555
In8 O116 2.208703 1_555
In8 O44 2.287004 1_555
In8 O118 2.340886 1_555
In9 O45 2.098134 1_555
In9 O47 2.111226 1_555
In9 O43 2.114302 1_555
In9 O115 2.153141 1_555
In9 O117 2.211782 1_555
In9 O119 2.477058 1_555
In10 O63 2.050785 1_555
In10 O65 2.061501 1_555
In10 O135 2.156738 1_555
In10 O133 2.166038 1_555
In10 O61 2.298527 1_555
In10 O137 2.465104 1_555
In11 O70 2.061190 1_555
In11 O68 2.077033 1_555
In11 O142 2.135542 1_555
In11 O138 2.143140 1_555
In11 O66 2.299057 1_555
In11 O140 2.360655 1_555
O0 Si0 1.632195 1_555
O1 Si1 1.627307 1_545
O2 Si2 1.618220 1_555
O3 Si3 1.631876 1_555
O4 S0 1.494652 1_555
O5 Si4 1.624217 1_655
O6 Si5 1.648429 1_555
O7 Si6 1.637217 1_555
O8 Si7 1.632911 1_555
O9 S1 1.513379 1_555
O10 Si8 1.639956 1_555
O11 Si9 1.635867 1_555
O12 Si8 1.655857 1_565
O12 Ti1 1.904428 1_565
O13 Si9 1.625687 1_565
O13 Ti0 1.912290 1_565
O14 Si5 1.647330 1_555
O14 Ti0 1.902219 1_455
O15 Si6 1.667632 1_555
O15 Ti1 1.840638 1_555
O16 S1 1.454160 1_455
O16 Ti0 2.241344 1_465
O17 Si7 1.657531 1_555
O17 Ti1 1.891389 1_565
O18 Si2 1.633427 1_555
O18 Ti3 1.914771 1_555
O19 Si3 1.666901 1_555
O19 Ti2 1.890280 1_665
O20 Si4 1.666807 1_555
O20 Ti2 1.874231 1_555
O21 S0 1.473993 1_555
O21 Ti3 2.173892 1_545
O22 Si0 1.668185 1_565
O22 Ti2 1.844821 1_565
O23 Si1 1.688506 1_555
O23 Ti3 1.800643 1_555
O24 Si10 1.611479 1_555
O25 Si11 1.643247 1_555
O25 Ti4 1.945939 1_555
O26 Si12 1.632167 1_555
O27 Si13 1.685552 1_555
O27 Ti4 1.852770 1_555
O28 S2 1.475235 1_555
O29 Si14 1.649833 1_555
O29 Ti4 1.861305 1_555
O30 Si15 1.651399 1_555
O30 Ti5 1.920812 1_555
O31 Si16 1.611337 1_555
O32 S3 1.468623 1_555
O32 Ti5 2.225271 1_555
O33 S4 1.477736 1_555
O34 Si17 1.696140 1_555
O34 Ti5 1.836496 1_555
O35 Si18 1.627853 1_555
O36 Si17 1.631494 1_555
O37 Si18 1.649488 1_555
O38 Si15 1.619276 1_555
O39 Si16 1.653032 1_555
O40 S3 1.486533 1_555
O41 S4 1.479831 1_555
O42 Si12 1.650645 1_555
O43 Si13 1.630728 1_555
O44 S2 1.480113 1_555
O45 Si14 1.617068 1_555
O46 Si10 1.655685 1_555
O47 Si11 1.615240 1_555
O48 Si19 1.680547 1_555
O48 Ti6 1.890331 1_556
O49 Si20 1.664106 1_555
O49 Ti7 1.882808 1_556
O50 S5 1.488579 1_555
O50 Ti6 2.039658 1_556
O51 S6 1.494871 1_555
O51 Ti7 2.002438 1_556
O52 Si21 1.674153 1_555
O52 Ti6 1.866615 1_556
O53 Si22 1.669385 1_555
O53 Ti7 1.887714 1_556
O54 Si23 1.648947 1_555
O54 Ti8 1.910236 1_555
O55 Si24 1.665557 1_555
O55 Ti9 1.908529 1_555
O56 Si25 1.656684 1_555
O56 Ti8 1.896762 1_555
O57 Si26 1.655533 1_555
O57 Ti9 1.904957 1_555
O58 S7 1.485265 1_555
O58 Ti8 2.011484 1_555
O59 S8 1.456879 1_555
O59 Ti9 2.298535 1_555
O60 S7 1.477585 1_555
O60 Ti10 2.241697 1_555
O61 S8 1.503636 1_555
O62 Si23 1.652545 1_555
O62 Ti10 1.847415 1_555
O63 Si24 1.646227 1_555
O64 Si25 1.660543 1_555
O64 Ti10 1.930274 1_555
O65 Si26 1.640070 1_555
O66 S5 1.485550 1_555
O67 S6 1.465834 1_555
O67 Ti11 2.367880 1_555
O68 Si21 1.626375 1_555
O69 Si22 1.645949 1_555
O69 Ti11 1.950516 1_555
O70 Si19 1.631076 1_555
O71 Si20 1.637970 1_555
O71 Ti11 1.875740 1_555
O72 S7 1.501549 1_555
O73 S8 1.497479 1_555
O74 Si23 1.639872 1_555
O75 Si24 1.648347 1_555
O76 Si25 1.637251 1_555
O77 Si26 1.660125 1_555
O78 S5 1.480816 1_555
O79 S6 1.495742 1_555
O80 Si21 1.651112 1_555
O81 Si22 1.638152 1_555
O82 Si19 1.642090 1_555
O83 Si20 1.642873 1_555
O84 Si10 1.665147 1_555
O84 Ti1 2.085412 1_555
O85 Si11 1.680777 1_555
O85 Ti0 1.898275 1_555
O86 Si12 1.635358 1_555
O86 Ti0 1.954913 1_455
O87 Si13 1.637011 1_555
O87 Ti1 1.946667 1_555
O88 S2 1.478402 1_555
O88 Ti1 2.443242 1_565
O89 Si14 1.626561 1_555
O89 Ti0 1.958538 1_565
O90 Si15 1.694225 1_555
O90 Ti3 1.903879 1_555
O91 Si16 1.660995 1_555
O91 Ti2 2.116076 1_665
O92 S3 1.483049 1_555
O92 Ti3 2.282846 1_545
O93 S4 1.474730 1_555
O93 Ti2 2.426648 1_655
O94 Si17 1.627079 1_555
O94 Ti2 1.968156 1_555
O95 Si18 1.656973 1_555
O95 Ti3 1.920536 1_545
O96 Si8 1.630617 1_555
O97 Si9 1.647245 1_555
O97 Ti4 2.064659 1_555
O98 Si5 1.630787 1_555
O99 Si6 1.638517 1_555
O99 Ti4 2.001398 1_555
O100 Si7 1.618651 1_555
O101 S1 1.480441 1_555
O101 Ti4 2.312534 1_555
O102 Si2 1.685315 1_555
O102 Ti5 1.888380 1_555
O103 Si3 1.631072 1_555
O104 S0 1.487809 1_555
O104 Ti5 2.253998 1_555
O105 Si4 1.617552 1_655
O106 Si0 1.659921 1_555
O106 Ti5 1.930274 1_555
O107 Si1 1.617094 1_545
O108 Si19 1.638871 1_555
O109 Si20 1.642509 1_555
O110 S6 1.485027 1_555
O111 S5 1.486093 1_655
O112 Si21 1.642218 1_545
O113 Si22 1.651906 1_545
O114 Si23 1.639686 1_545
O115 Si24 1.635748 1_545
O116 Si25 1.650704 1_555
O117 Si26 1.635400 1_555
O118 S8 1.496925 1_555
O119 S7 1.474578 1_655
O120 Si17 1.638645 1_555
O120 Ti6 2.051023 1_555
O121 Si18 1.648684 1_555
O121 Ti7 1.928214 1_555
O122 Si16 1.668916 1_455
O122 Ti6 1.926703 1_555
O123 Si15 1.637741 1_555
O123 Ti7 2.060630 1_555
O124 S3 1.516095 1_565
O124 Ti6 2.203024 1_555
O125 S4 1.519918 1_565
O125 Ti7 2.132787 1_555
O126 Si12 1.652228 1_565
O126 Ti8 1.912810 1_555
O127 Si13 1.633166 1_565
O127 Ti9 2.040346 1_555
O128 S2 1.518018 1_555
O128 Ti8 2.139428 1_555
O129 Si14 1.679193 1_555
O129 Ti9 1.903128 1_555
O130 Si11 1.650406 1_455
O130 Ti8 2.004631 1_555
O131 Si10 1.648532 1_555
O131 Ti9 1.939520 1_555
O132 Si0 1.634395 1_565
O132 Ti10 2.001142 1_555
O133 Si1 1.637762 1_555
O134 Si2 1.640409 1_555
O134 Ti10 1.896862 1_555
O135 Si3 1.650151 1_555
O136 Si4 1.654434 1_555
O136 Ti10 2.050897 1_555
O137 S0 1.494395 1_555
O138 Si5 1.649382 1_555
O139 Si6 1.643346 1_555
O139 Ti11 1.968016 1_555
O140 S1 1.504375 1_455
O141 Si7 1.657878 1_555
O141 Ti11 2.023245 1_555
O142 Si8 1.651251 1_565
O143 Si9 1.662196 1_565
O143 Ti11 1.857351 1_555
