# generated using pymatgen
data_MgMn6(O5F)2
_symmetry_space_group_name_H-M   'P 1'
_cell_length_a   5.03630162
_cell_length_b   5.12222830
_cell_length_c   8.83286285
_cell_angle_alpha   88.47047671
_cell_angle_beta   91.99278242
_cell_angle_gamma   101.27306938
_symmetry_Int_Tables_number   1
_chemical_formula_structural   MgMn6(O5F)2
_chemical_formula_sum   'Mg1 Mn6 O10 F2'
_cell_volume   223.28474459
_cell_formula_units_Z   1
loop_
 _symmetry_equiv_pos_site_id
 _symmetry_equiv_pos_as_xyz
  1  'x, y, z'
loop_
 _atom_site_type_symbol
 _atom_site_label
 _atom_site_symmetry_multiplicity
 _atom_site_fract_x
 _atom_site_fract_y
 _atom_site_fract_z
 _atom_site_occupancy
  Mg  Mg0  1  0.52904627  0.02914744  0.00993652  1
  Mn  Mn0  1  0.01863576  0.97320595  0.00618927  1
  Mn  Mn1  1  0.00615718  0.98633359  0.33403795  1
  Mn  Mn2  1  0.01771336  0.98426306  0.66771732  1
  Mn  Mn3  1  0.45882101  0.53423179  0.82862386  1
  Mn  Mn4  1  0.45944007  0.52766863  0.17770583  1
  Mn  Mn5  1  0.48314504  0.51490455  0.50457403  1
  O  O0  1  0.22821820  0.82529447  0.14883154  1
  O  O1  1  0.17222943  0.84416891  0.51100338  1
  O  O2  1  0.20453315  0.84978711  0.84005370  1
  O  O3  1  0.30747569  0.30266966  0.00161138  1
  O  O4  1  0.29106525  0.31524898  0.33927375  1
  O  O5  1  0.27450461  0.32274512  0.66870752  1
  O  O6  1  0.68414767  0.69587008  0.00137254  1
  O  O7  1  0.69465561  0.68278475  0.33852488  1
  O  O8  1  0.70253289  0.68627032  0.67368930  1
  O  O9  1  0.84695697  0.12659599  0.15466796  1
  F  F0  1  0.81156863  0.15052484  0.51903529  1
  F  F1  1  0.80915123  0.14828474  0.84587400  1
loop_
_geom_bond_atom_site_label_1
_geom_bond_atom_site_label_2
_geom_bond_distance
_geom_bond_site_symmetry_2
Mg0 O3 1.952844 1_555
Mg0 O9 2.006539 1_555
Mg0 O6 2.015571 1_545
Mg0 O0 2.081641 1_545
Mg0 O2 2.254503 1_544
Mn0 O0 1.856016 1_555
Mn0 O9 1.866651 1_465
Mn0 O2 1.950918 1_554
Mn0 O6 1.979972 1_455
Mn0 O3 2.001587 1_565
Mn1 O9 1.935278 1_465
Mn1 O1 1.938963 1_555
Mn1 O7 1.981831 1_455
Mn1 O4 1.988441 1_565
Mn1 O0 2.273170 1_555
Mn2 O1 1.839264 1_555
Mn2 O2 1.942857 1_555
Mn2 O5 1.949875 1_565
Mn2 O8 1.976498 1_455
Mn3 O5 1.904664 1_555
Mn3 O8 1.916262 1_555
Mn3 O6 1.970086 1_556
Mn3 O3 1.988299 1_556
Mn3 O2 2.256081 1_555
Mn4 O4 1.892124 1_555
Mn4 O7 1.904636 1_555
Mn4 O3 2.000342 1_555
Mn4 O6 2.029450 1_555
Mn4 O0 2.097120 1_555
Mn5 O4 1.925667 1_555
Mn5 O7 1.925760 1_555
Mn5 O8 1.949020 1_555
Mn5 O5 1.949405 1_555
Mn5 O1 2.518629 1_555
F0 Mn2 1.928478 1_645
F0 Mn1 2.201103 1_645
F0 Mn5 2.723108 1_555
F1 Mn0 2.029955 1_646
F1 Mg0 2.054473 1_556
F1 Mn2 2.194550 1_645
