# generated using pymatgen
data_MgCu4(AsS)4
_symmetry_space_group_name_H-M   'P 1'
_cell_length_a   3.69705458
_cell_length_b   5.59277283
_cell_length_c   12.41890221
_cell_angle_alpha   79.89747821
_cell_angle_beta   89.91729105
_cell_angle_gamma   89.99299426
_symmetry_Int_Tables_number   1
_chemical_formula_structural   MgCu4(AsS)4
_chemical_formula_sum   'Mg1 Cu4 As4 S4'
_cell_volume   252.80142131
_cell_formula_units_Z   1
loop_
 _symmetry_equiv_pos_site_id
 _symmetry_equiv_pos_as_xyz
  1  'x, y, z'
loop_
 _atom_site_type_symbol
 _atom_site_label
 _atom_site_symmetry_multiplicity
 _atom_site_fract_x
 _atom_site_fract_y
 _atom_site_fract_z
 _atom_site_occupancy
  Mg  Mg0  1  0.27784872  0.51051763  0.47844765  1
  Cu  Cu0  1  0.28018030  0.34052345  0.28888902  1
  Cu  Cu1  1  0.77851117  0.87424434  0.17717393  1
  Cu  Cu2  1  0.78146860  0.66345284  0.71089944  1
  Cu  Cu3  1  0.28112806  0.13852810  0.82698754  1
  As  As0  1  0.77960098  0.65232307  0.01895286  1
  As  As1  1  0.28060096  0.00824185  0.44506077  1
  As  As2  1  0.77989305  0.03631296  0.57248290  1
  As  As3  1  0.27984505  0.36312387  0.98347591  1
  S  S0  1  0.78095406  0.89084354  0.84920253  1
  S  S1  1  0.77958891  0.56810459  0.32369077  1
  S  S2  1  0.27874907  0.12071510  0.15247981  1
  S  S3  1  0.28166506  0.45211669  0.68336785  1
loop_
_geom_bond_atom_site_label_1
_geom_bond_atom_site_label_2
_geom_bond_distance
_geom_bond_site_symmetry_2
Mg0 S3 2.508348 1_555
Mg0 S1 2.642669 1_455
Mg0 S1 2.647838 1_555
Cu0 S2 2.260917 1_555
Cu0 S1 2.326302 1_555
Cu0 S1 2.328537 1_455
Cu0 Mg0 2.689040 1_555
Cu1 S1 2.269245 1_555
Cu1 S2 2.293621 1_565
Cu1 S2 2.294597 1_665
Cu2 S3 2.252204 1_555
Cu2 S3 2.252349 1_655
Cu2 S0 2.309477 1_555
Cu3 S3 2.271503 1_555
Cu3 S0 2.297055 1_545
Cu3 S0 2.297722 1_445
As0 S0 2.288469 1_554
As0 Cu1 2.501398 1_555
As0 As3 2.544991 1_554
As0 As3 2.545090 1_654
As1 Cu0 2.439406 1_555
As1 As2 2.455976 1_555
As1 As2 2.456448 1_455
As1 Mg0 2.741507 1_545
As1 Mg0 2.910625 1_555
As2 Cu2 2.458854 1_545
As2 Mg0 3.270340 1_655
As2 Mg0 3.280408 1_555
As3 S2 2.290176 1_556
As3 Cu3 2.492203 1_555
