# generated using pymatgen
data_InNi3
_symmetry_space_group_name_H-M   'P 1'
_cell_length_a   5.29173348
_cell_length_b   5.29173379
_cell_length_c   4.18116765
_cell_angle_alpha   90.00000000
_cell_angle_beta   90.00000000
_cell_angle_gamma   119.99718539
_symmetry_Int_Tables_number   1
_chemical_formula_structural   InNi3
_chemical_formula_sum   'In2 Ni6'
_cell_volume   101.39965585
_cell_formula_units_Z   2
loop_
 _symmetry_equiv_pos_site_id
 _symmetry_equiv_pos_as_xyz
  1  'x, y, z'
loop_
 _atom_site_type_symbol
 _atom_site_label
 _atom_site_symmetry_multiplicity
 _atom_site_fract_x
 _atom_site_fract_y
 _atom_site_fract_z
 _atom_site_occupancy
  In  In0  1  0.33327284  0.66662593  0.25000000  1
  In  In1  1  0.66672716  0.33337407  0.75000000  1
  Ni  Ni0  1  0.84436325  0.15576972  0.25000000  1
  Ni  Ni1  1  0.84431523  0.68853535  0.25000000  1
  Ni  Ni2  1  0.31133291  0.15568616  0.25000000  1
  Ni  Ni3  1  0.15563675  0.84423028  0.75000000  1
  Ni  Ni4  1  0.15568477  0.31146465  0.75000000  1
  Ni  Ni5  1  0.68866709  0.84431384  0.75000000  1
loop_
_geom_bond_atom_site_label_1
_geom_bond_atom_site_label_2
_geom_bond_distance
_geom_bond_site_symmetry_2
In0 Ni0 2.647271 1_455
In0 Ni1 2.647303 1_455
In0 Ni2 2.647622 1_555
In0 Ni2 2.647931 1_565
In0 Ni1 2.648240 1_555
In0 Ni0 2.648509 1_565
In0 Ni4 2.649500 1_554
In0 Ni4 2.649500 1_555
In0 Ni3 2.649681 1_555
In0 Ni3 2.649681 1_554
In0 Ni5 2.650156 1_554
In0 Ni5 2.650156 1_555
In1 Ni3 2.647271 1_655
In1 Ni4 2.647303 1_655
In1 Ni5 2.647622 1_555
In1 Ni5 2.647931 1_545
In1 Ni4 2.648240 1_555
In1 Ni3 2.648509 1_545
In1 Ni1 2.649500 1_556
In1 Ni1 2.649500 1_555
In1 Ni0 2.649681 1_556
In1 Ni0 2.649681 1_555
In1 Ni2 2.650156 1_555
In1 Ni2 2.650156 1_556
Ni0 Ni2 2.471300 1_655
Ni0 Ni1 2.472353 1_545
Ni0 Ni4 2.531043 1_655
Ni0 Ni4 2.531043 1_654
Ni0 Ni5 2.531390 1_544
Ni0 Ni5 2.531390 1_545
Ni0 Ni1 2.819381 1_555
Ni0 Ni2 2.820433 1_555
Ni1 Ni2 2.471791 1_665
Ni1 Ni3 2.531043 1_655
Ni1 Ni3 2.531043 1_654
Ni1 Ni5 2.531280 1_554
Ni1 Ni5 2.531280 1_555
Ni1 Ni2 2.820168 1_555
Ni2 Ni4 2.531280 1_554
Ni2 Ni4 2.531280 1_555
Ni2 Ni3 2.531390 1_544
Ni2 Ni3 2.531390 1_545
Ni3 Ni5 2.471300 1_455
Ni3 Ni4 2.472353 1_565
Ni3 Ni4 2.819381 1_555
Ni3 Ni5 2.820433 1_555
Ni4 Ni5 2.471791 1_445
Ni4 Ni5 2.820168 1_555
