# generated using pymatgen
data_Na9Mg5Nb7Si9(SO8)9
_symmetry_space_group_name_H-M   'P 1'
_cell_length_a   8.90878977
_cell_length_b   8.88541013
_cell_length_c   22.76015615
_cell_angle_alpha   89.73749519
_cell_angle_beta   90.25935386
_cell_angle_gamma   119.95837777
_symmetry_Int_Tables_number   1
_chemical_formula_structural   Na9Mg5Nb7Si9(SO8)9
_chemical_formula_sum   'Na9 Mg5 Nb7 Si9 S9 O72'
_cell_volume   1560.91065927
_cell_formula_units_Z   1
loop_
 _symmetry_equiv_pos_site_id
 _symmetry_equiv_pos_as_xyz
  1  'x, y, z'
loop_
 _atom_site_type_symbol
 _atom_site_label
 _atom_site_symmetry_multiplicity
 _atom_site_fract_x
 _atom_site_fract_y
 _atom_site_fract_z
 _atom_site_occupancy
  Na  Na0  1  0.98016588  0.35301080  0.74724531  1
  Na  Na1  1  0.64920054  0.97071352  0.58150616  1
  Na  Na2  1  0.32672125  0.02721018  0.40790257  1
  Na  Na3  1  0.99061547  0.00316350  0.49335238  1
  Na  Na4  1  0.98440283  0.00014644  0.98966172  1
  Na  Na5  1  0.65890949  0.32215774  0.82880195  1
  Na  Na6  1  0.66527474  0.32918151  0.32254429  1
  Na  Na7  1  0.32921297  0.67845738  0.16314174  1
  Na  Na8  1  0.31778630  0.67075173  0.65596469  1
  Mg  Mg0  1  0.99589510  0.00309059  0.35056517  1
  Mg  Mg1  1  0.98427141  0.99865055  0.85723761  1
  Mg  Mg2  1  0.66735470  0.32180887  0.68446089  1
  Mg  Mg3  1  0.66626205  0.31854685  0.18577152  1
  Mg  Mg4  1  0.33177516  0.66787717  0.51979796  1
  Nb  Nb0  1  0.99298325  0.00025379  0.64431512  1
  Nb  Nb1  1  0.00081501  0.99221535  0.14341892  1
  Nb  Nb2  1  0.69440580  0.34543169  0.97770114  1
  Nb  Nb3  1  0.66130413  0.31404651  0.48237525  1
  Nb  Nb4  1  0.33573227  0.66463332  0.02126001  1
  Nb  Nb5  1  0.33854868  0.68201814  0.31083056  1
  Nb  Nb6  1  0.34580333  0.66845406  0.81404351  1
  Si  Si0  1  0.29550593  0.01946688  0.25535977  1
  Si  Si1  1  0.70703669  0.00537179  0.75235679  1
  Si  Si2  1  0.97047214  0.34830355  0.58875271  1
  Si  Si3  1  0.36842987  0.03367591  0.58708754  1
  Si  Si4  1  0.95666278  0.61509229  0.08782205  1
  Si  Si5  1  0.66509673  0.04623440  0.08623787  1
  Si  Si6  1  0.63026265  0.66278467  0.91948262  1
  Si  Si7  1  0.05252431  0.37312134  0.91447693  1
  Si  Si8  1  0.63633642  0.95376925  0.42069519  1
  S  S0  1  0.71062418  0.70900652  0.25076910  1
  S  S1  1  0.00221608  0.29139076  0.25146158  1
  S  S2  1  0.29055524  0.28701097  0.75111838  1
  S  S3  1  0.99939962  0.71314792  0.75179248  1
  S  S4  1  0.66693656  0.61735426  0.58468159  1
  S  S5  1  0.37935285  0.33205856  0.08466353  1
  S  S6  1  0.33418458  0.95613062  0.91644001  1
  S  S7  1  0.33598075  0.38086691  0.41759872  1
  S  S8  1  0.04033495  0.66322082  0.41658410  1
  O  O0  1  0.20307013  0.01685970  0.31535965  1
  O  O1  1  0.81132373  0.79423735  0.30304029  1
  O  O2  1  0.98148981  0.18767819  0.30383530  1
  O  O3  1  0.21428917  0.18429092  0.80361093  1
  O  O4  1  0.99170174  0.80180439  0.80410290  1
  O  O5  1  0.83728089  0.03348879  0.80413161  1
  O  O6  1  0.79868510  0.97162501  0.69095887  1
  O  O7  1  0.17515625  0.20229865  0.69754855  1
  O  O8  1  0.02517148  0.82135503  0.69714458  1
  O  O9  1  0.78620102  0.82026039  0.19650532  1
  O  O10  1  0.02652661  0.21058610  0.19759374  1
  O  O11  1  0.16313171  0.98385489  0.19727174  1
  O  O12  1  0.88824119  0.36883816  0.64766027  1
  O  O13  1  0.49702020  0.13652141  0.63847020  1
  O  O14  1  0.65191490  0.51952866  0.63763907  1
  O  O15  1  0.86906295  0.50611808  0.14425771  1
  O  O16  1  0.61884623  0.11285326  0.14303217  1
  O  O17  1  0.47932886  0.35991414  0.13766498  1
  O  O18  1  0.45415205  0.30543485  0.03084459  1
  O  O19  1  0.83897274  0.53396471  0.02614978  1
  O  O20  1  0.69256813  0.16710347  0.02629562  1
  O  O21  1  0.46053914  0.16045677  0.52346281  1
  O  O22  1  0.69333566  0.53726114  0.53048135  1
  O  O23  1  0.82647625  0.30261075  0.53052166  1
  O  O24  1  0.52059575  0.68206238  0.97367367  1
  O  O25  1  0.16454334  0.49036674  0.97095307  1
  O  O26  1  0.31344854  0.85184151  0.97012909  1
  O  O27  1  0.54057558  0.85127416  0.47839041  1
  O  O28  1  0.31653238  0.46331688  0.46967788  1
  O  O29  1  0.14882369  0.68624792  0.46773792  1
  O  O30  1  0.12290000  0.63573560  0.36188926  1
  O  O31  1  0.49701903  0.85551070  0.36178872  1
  O  O32  1  0.35225942  0.48383710  0.36308377  1
  O  O33  1  0.13501794  0.49602956  0.85480321  1
  O  O34  1  0.36368115  0.87005426  0.86354936  1
  O  O35  1  0.50271850  0.64279726  0.86055760  1
  O  O36  1  0.02521418  0.82007113  0.40960501  1
  O  O37  1  0.82598682  0.98744395  0.40947417  1
  O  O38  1  0.19014196  0.20071350  0.41265305  1
  O  O39  1  0.04289279  0.19146039  0.91488049  1
  O  O40  1  0.17993654  0.96920113  0.90828034  1
  O  O41  1  0.81903630  0.82282728  0.91504004  1
  O  O42  1  0.96175239  0.15088641  0.59071852  1
  O  O43  1  0.17660485  0.01983058  0.59236885  1
  O  O44  1  0.83164904  0.79739519  0.58746014  1
  O  O45  1  0.97858614  0.81485530  0.09251284  1
  O  O46  1  0.84338043  0.02999819  0.09341824  1
  O  O47  1  0.19794083  0.17589197  0.08984361  1
  O  O48  1  0.68278433  0.17264903  0.74758406  1
  O  O49  1  0.46748949  0.32572841  0.74149191  1
  O  O50  1  0.84429137  0.54031366  0.74582704  1
  O  O51  1  0.68615164  0.53625405  0.24336324  1
  O  O52  1  0.85698023  0.32327160  0.24632442  1
  O  O53  1  0.48665550  0.17662098  0.24755477  1
  O  O54  1  0.61815066  0.47249561  0.92482720  1
  O  O55  1  0.85879563  0.36148949  0.92136053  1
  O  O56  1  0.49347349  0.12784178  0.92122026  1
  O  O57  1  0.63521858  0.14810295  0.42202318  1
  O  O58  1  0.50168356  0.37008967  0.42035411  1
  O  O59  1  0.86464123  0.50594470  0.42082929  1
  O  O60  1  0.35081327  0.48571999  0.07774319  1
  O  O61  1  0.15234087  0.65023423  0.07471928  1
  O  O62  1  0.50585921  0.84840870  0.07093822  1
  O  O63  1  0.35499625  0.85035482  0.57642805  1
  O  O64  1  0.52195713  0.64915304  0.57789583  1
  O  O65  1  0.16092852  0.49309378  0.57399391  1
  O  O66  1  0.30413789  0.82537722  0.25876354  1
  O  O67  1  0.52976506  0.69275238  0.25605168  1
  O  O68  1  0.16954879  0.46788677  0.25708551  1
  O  O69  1  0.29027247  0.46073034  0.75403625  1
  O  O70  1  0.15728388  0.68905048  0.75344995  1
  O  O71  1  0.51070471  0.82331527  0.75678222  1
loop_
_geom_bond_atom_site_label_1
_geom_bond_atom_site_label_2
_geom_bond_distance
_geom_bond_site_symmetry_2
Na0 O48 2.312326 1_555
Na0 O12 2.433738 1_555
Na0 O69 2.434940 1_655
Na0 O50 2.499448 1_555
Na0 O70 2.592570 1_655
Na0 O5 2.780096 1_555
Na0 O33 2.785308 1_655
Na0 O7 2.906081 1_655
Na1 O63 2.285965 1_555
Na1 O42 2.430189 1_565
Na1 O64 2.494364 1_555
Na1 O27 2.558788 1_555
Na1 O44 2.743710 1_555
Na1 O13 2.778090 1_565
Na1 O23 2.805580 1_565
Na1 O6 2.817591 1_555
Na2 O0 2.353293 1_555
Na2 O36 2.380484 1_545
Na2 O38 2.396880 1_555
Na2 O57 2.420162 1_555
Na2 O58 2.655729 1_555
Na2 O31 2.841055 1_545
Na2 O21 2.886388 1_555
Na2 O29 2.954854 1_545
Na3 O37 2.363819 1_545
Na3 O38 2.549147 1_655
Na3 O36 2.628580 1_645
Na3 O42 2.658729 1_555
Na3 O44 2.709566 1_545
Na3 O43 2.751438 1_655
Na4 O39 2.270454 1_655
Na4 O41 2.284942 1_545
Na4 O40 2.655777 1_645
Na4 O46 2.755161 1_556
Na4 O45 2.841426 1_546
Na4 O47 2.878024 1_656
Na5 O48 2.352730 1_555
Na5 O50 2.617034 1_555
Na5 O49 2.623133 1_555
Na5 O56 2.651619 1_555
Na5 O55 2.661275 1_555
Na5 O54 2.685377 1_555
Na6 O53 2.263857 1_555
Na6 O52 2.458909 1_555
Na6 O51 2.509705 1_555
Na6 O57 2.707151 1_555
Na6 O58 2.788874 1_555
Na6 O59 2.799222 1_555
Na7 O61 2.485403 1_555
Na7 O62 2.605439 1_555
Na7 O66 2.610047 1_555
Na7 O60 2.666607 1_555
Na7 O67 2.724275 1_555
Na7 O68 2.725546 1_555
Na8 O63 2.320408 1_555
Na8 O65 2.392822 1_555
Na8 O64 2.623648 1_555
Na8 O70 2.694106 1_555
Na8 O71 2.778968 1_555
Na8 O69 2.834578 1_555
Mg0 O0 1.962274 1_655
Mg0 O37 1.978565 1_545
Mg0 O2 2.007665 1_555
Mg0 O1 2.066948 1_545
Mg0 O36 2.217987 1_645
Mg0 O38 2.245151 1_655
Mg1 O5 1.912769 1_565
Mg1 O41 2.010034 1_555
Mg1 O39 2.012418 1_665
Mg1 O4 2.159136 1_555
Mg1 O40 2.211579 1_655
Mg1 O3 2.244560 1_665
Mg2 O13 1.901358 1_555
Mg2 O12 1.984685 1_555
Mg2 O48 2.000560 1_555
Mg2 O14 2.112785 1_555
Mg2 O49 2.222558 1_555
Mg2 O50 2.270089 1_555
Mg3 O16 1.925246 1_555
Mg3 O15 1.982005 1_555
Mg3 O53 2.028986 1_555
Mg3 O52 2.167050 1_555
Mg3 O17 2.167598 1_555
Mg3 O51 2.273842 1_555
Mg4 O65 1.971973 1_555
Mg4 O27 1.994549 1_555
Mg4 O63 2.003678 1_555
Mg4 O29 2.081724 1_555
Mg4 O28 2.096305 1_555
Mg4 O64 2.214961 1_555
Nb0 O42 1.926338 1_555
Nb0 O6 1.939682 1_545
Nb0 O43 1.958450 1_655
Nb0 O44 2.099133 1_545
Nb0 O7 2.101678 1_655
Nb0 O8 2.118826 1_645
Nb1 O45 1.888946 1_455
Nb1 O11 1.920757 1_555
Nb1 O46 1.956341 1_465
Nb1 O47 2.091213 1_565
Nb1 O9 2.129861 1_455
Nb1 O10 2.216556 1_565
Nb2 O19 1.878888 1_556
Nb2 O55 1.901615 1_555
Nb2 O20 1.921573 1_556
Nb2 O54 1.982566 1_555
Nb2 O56 2.267211 1_555
Nb2 O18 2.330300 1_556
Nb3 O21 1.871252 1_555
Nb3 O23 1.873532 1_555
Nb3 O57 1.946374 1_555
Nb3 O22 2.160033 1_555
Nb3 O58 2.223823 1_555
Nb3 O59 2.251062 1_555
Nb4 O24 1.915522 1_554
Nb4 O25 1.917408 1_554
Nb4 O62 1.942065 1_555
Nb4 O61 1.993469 1_555
Nb4 O60 2.095462 1_555
Nb4 O26 2.114396 1_554
Nb5 O66 1.869168 1_555
Nb5 O31 1.882191 1_555
Nb5 O67 2.078785 1_555
Nb5 O30 2.106480 1_555
Nb5 O68 2.127637 1_555
Nb5 O32 2.173588 1_555
Nb6 O35 1.851922 1_555
Nb6 O71 1.931860 1_555
Nb6 O33 1.965586 1_555
Nb6 O34 2.058068 1_555
Nb6 O69 2.149828 1_555
Nb6 O70 2.244951 1_555
O0 Si0 1.591978 1_555
O1 S0 1.453882 1_555
O2 S1 1.458163 1_655
O3 S2 1.449166 1_555
O4 S3 1.451224 1_555
O5 Si1 1.580566 1_555
O6 Si1 1.722797 1_565
O7 S2 1.527834 1_555
O8 S3 1.515028 1_455
O9 S0 1.512444 1_555
O10 S1 1.493771 1_555
O11 Si0 1.689916 1_565
O12 Si2 1.584989 1_555
O13 Si3 1.570743 1_555
O14 S4 1.449805 1_555
O15 Si4 1.561883 1_555
O16 Si5 1.564137 1_555
O17 S5 1.443120 1_555
O18 S5 1.472394 1_555
O19 Si4 1.682356 1_555
O20 Si5 1.673827 1_555
O21 Si3 1.764076 1_555
O22 S4 1.503791 1_555
O23 Si2 1.742527 1_555
O24 Si6 1.638634 1_555
O25 Si7 1.641888 1_555
O26 S6 1.485505 1_555
O27 Si8 1.582652 1_555
O28 S7 1.452005 1_555
O29 S8 1.458083 1_555
O30 S8 1.529984 1_555
O31 Si8 1.735986 1_555
O32 S7 1.502114 1_555
O33 Si7 1.664718 1_555
O34 S6 1.521568 1_555
O35 Si6 1.705328 1_555
O36 S8 1.473432 1_555
O37 Si8 1.583558 1_555
O38 S7 1.478602 1_555
O39 Si7 1.573027 1_555
O40 S6 1.446784 1_555
O41 Si6 1.572392 1_555
O42 Si2 1.717043 1_555
O43 Si3 1.655830 1_555
O44 S4 1.540128 1_555
O45 Si4 1.689792 1_555
O46 Si5 1.672266 1_555
O47 S5 1.520454 1_555
O48 Si1 1.608318 1_555
O49 S2 1.453214 1_555
O50 S3 1.472098 1_555
O51 S0 1.449103 1_555
O52 S1 1.460280 1_655
O53 Si0 1.583315 1_555
O54 Si6 1.643549 1_555
O55 Si7 1.684656 1_655
O56 S6 1.480261 1_545
O57 Si8 1.732132 1_545
O58 S7 1.527283 1_555
O59 S8 1.492547 1_655
O60 S5 1.515913 1_555
O61 Si4 1.638774 1_455
O62 Si5 1.653524 1_565
O63 Si3 1.592202 1_565
O64 S4 1.460877 1_555
O65 Si2 1.570970 1_455
O66 Si0 1.765565 1_565
O67 S0 1.549381 1_555
O68 S1 1.537293 1_555
O69 S2 1.546558 1_555
O70 S3 1.525092 1_455
O71 Si1 1.691294 1_565
