# generated using pymatgen
data_U3Bi4
_symmetry_space_group_name_H-M   'P 1'
_cell_length_a   8.10653645
_cell_length_b   8.10653645
_cell_length_c   8.10653645
_cell_angle_alpha   109.47122063
_cell_angle_beta   109.47122063
_cell_angle_gamma   109.47122063
_symmetry_Int_Tables_number   1
_chemical_formula_structural   U3Bi4
_chemical_formula_sum   'U6 Bi8'
_cell_volume   410.09467319
_cell_formula_units_Z   2
loop_
 _symmetry_equiv_pos_site_id
 _symmetry_equiv_pos_as_xyz
  1  'x, y, z'
loop_
 _atom_site_type_symbol
 _atom_site_label
 _atom_site_symmetry_multiplicity
 _atom_site_fract_x
 _atom_site_fract_y
 _atom_site_fract_z
 _atom_site_occupancy
  U  U0  1  0.87500000  0.12500000  0.75000000  1
  U  U1  1  0.12500000  0.75000000  0.87500000  1
  U  U2  1  0.37500000  0.25000000  0.62500000  1
  U  U3  1  0.62500000  0.37500000  0.25000000  1
  U  U4  1  0.75000000  0.87500000  0.12500000  1
  U  U5  1  0.25000000  0.62500000  0.37500000  1
  Bi  Bi0  1  0.65800400  0.65800400  0.65800400  1
  Bi  Bi1  1  0.50000000  0.00000000  0.34199600  1
  Bi  Bi2  1  0.50000000  0.00000000  0.84199600  1
  Bi  Bi3  1  0.34199600  0.50000000  0.00000000  1
  Bi  Bi4  1  0.84199600  0.50000000  0.00000000  1
  Bi  Bi5  1  0.00000000  0.84199600  0.50000000  1
  Bi  Bi6  1  0.00000000  0.34199600  0.50000000  1
  Bi  Bi7  1  0.15800400  0.15800400  0.15800400  1
loop_
_geom_bond_atom_site_label_1
_geom_bond_atom_site_label_2
_geom_bond_distance
_geom_bond_site_symmetry_2
Bi0 U2 3.196340 1_555
Bi0 U3 3.196340 1_555
Bi0 U5 3.196340 1_555
Bi0 U4 3.284184 1_556
Bi0 U0 3.284184 1_565
Bi0 U1 3.284184 1_655
Bi1 U5 3.196340 1_545
Bi1 U2 3.196340 1_555
Bi1 U0 3.196340 1_555
Bi1 U3 3.284184 1_555
Bi1 U1 3.284184 1_544
Bi1 U4 3.284184 1_545
Bi2 U4 3.196340 1_546
Bi2 U3 3.196340 1_556
Bi2 U1 3.196340 1_545
Bi2 U2 3.284184 1_555
Bi2 U0 3.284184 1_555
Bi2 U5 3.284184 1_545
Bi3 U4 3.196340 1_555
Bi3 U3 3.196340 1_555
Bi3 U2 3.196340 1_554
Bi3 U5 3.284184 1_555
Bi3 U0 3.284184 1_454
Bi3 U1 3.284184 1_554
Bi4 U1 3.196340 1_654
Bi4 U5 3.196340 1_655
Bi4 U0 3.196340 1_554
Bi4 U3 3.284184 1_555
Bi4 U2 3.284184 1_554
Bi4 U4 3.284184 1_555
Bi5 U4 3.196340 1_455
Bi5 U2 3.196340 1_565
Bi5 U0 3.196340 1_465
Bi5 U3 3.284184 1_455
Bi5 U1 3.284184 1_555
Bi5 U5 3.284184 1_555
Bi6 U5 3.196340 1_555
Bi6 U3 3.196340 1_455
Bi6 U1 3.196340 1_555
Bi6 U0 3.284184 1_455
Bi6 U4 3.284184 1_445
Bi6 U2 3.284184 1_555
Bi7 U4 3.196340 1_445
Bi7 U1 3.196340 1_544
Bi7 U0 3.196340 1_454
Bi7 U2 3.284184 1_555
Bi7 U3 3.284184 1_555
Bi7 U5 3.284184 1_555
