# generated using pymatgen
data_Na4Mg(Mo2O5)2
_symmetry_space_group_name_H-M   'P 1'
_cell_length_a   6.08877628
_cell_length_b   5.98270533
_cell_length_c   8.46664074
_cell_angle_alpha   112.41363583
_cell_angle_beta   111.06898758
_cell_angle_gamma   89.99691296
_symmetry_Int_Tables_number   1
_chemical_formula_structural   Na4Mg(Mo2O5)2
_chemical_formula_sum   'Na4 Mg1 Mo4 O10'
_cell_volume   262.67996978
_cell_formula_units_Z   1
loop_
 _symmetry_equiv_pos_site_id
 _symmetry_equiv_pos_as_xyz
  1  'x, y, z'
loop_
 _atom_site_type_symbol
 _atom_site_label
 _atom_site_symmetry_multiplicity
 _atom_site_fract_x
 _atom_site_fract_y
 _atom_site_fract_z
 _atom_site_occupancy
  Na  Na0  1  0.55953337  0.24532921  0.34247947  1
  Na  Na1  1  0.21723279  0.75470039  0.65760598  1
  Na  Na2  1  0.08992296  0.57267322  0.19779932  1
  Na  Na3  1  0.89175716  0.42735677  0.80213700  1
  Mg  Mg0  1  0.57452049  0.99997851  0.00000666  1
  Mo  Mo0  1  0.05328720  0.99999149  0.00000488  1
  Mo  Mo1  1  0.54073609  0.49996362  0.99999996  1
  Mo  Mo2  1  0.16761905  0.17262094  0.49235417  1
  Mo  Mo3  1  0.67527124  0.82742179  0.50766583  1
  O  O0  1  0.29743263  0.18641710  0.93917294  1
  O  O1  1  0.35829779  0.81360145  0.06087349  1
  O  O2  1  0.76518760  0.21201263  0.94572404  1
  O  O3  1  0.81943145  0.78792219  0.05426131  1
  O  O4  1  0.17556916  0.25111608  0.29479152  1
  O  O5  1  0.88081681  0.74891621  0.70516865  1
  O  O6  1  0.68820837  0.56249857  0.29464560  1
  O  O7  1  0.39369744  0.43745735  0.70532504  1
  O  O8  1  0.86141687  0.11867782  0.51952014  1
  O  O9  1  0.34187253  0.88134466  0.48046400  1
loop_
_geom_bond_atom_site_label_1
_geom_bond_atom_site_label_2
_geom_bond_distance
_geom_bond_site_symmetry_2
Na0 O4 2.227520 1_555
Na0 O8 2.254905 1_555
Na0 O6 2.278771 1_555
Na0 O1 2.657269 1_545
Na1 O5 2.227745 1_455
Na1 O9 2.254856 1_555
Na1 O7 2.278686 1_555
Na1 O0 2.657126 1_565
Na2 O9 2.341267 1_555
Na2 O4 2.354563 1_555
Na2 O3 2.366835 1_455
Na2 O2 2.564154 1_454
Na2 O6 2.852855 1_455
Na2 O1 2.954386 1_555
Na3 O8 2.341490 1_555
Na3 O5 2.354691 1_555
Na3 O2 2.366378 1_555
Na3 O3 2.562857 1_556
Na3 O7 2.850015 1_555
Na3 O0 2.956298 1_655
Mg0 O3 1.998985 1_555
Mg0 O2 1.999134 1_564
Mg0 O1 2.041640 1_555
Mg0 O0 2.041798 1_564
Mo0 O0 2.169739 1_564
Mo0 O1 2.169778 1_555
Mo0 O2 2.182203 1_464
Mo0 O3 2.182464 1_455
Mo0 O4 2.201224 1_565
Mo0 O5 2.201470 1_454
Mo1 O0 2.166501 1_555
Mo1 O1 2.166650 1_556
Mo1 O6 2.201666 1_556
Mo1 O7 2.201939 1_555
Mo1 O2 2.212290 1_555
Mo1 O3 2.212413 1_556
Mo2 O4 1.917816 1_555
Mo2 O7 1.921879 1_555
Mo2 O8 1.999503 1_455
Mo2 O9 2.028639 1_545
Mo3 O5 1.917626 1_555
Mo3 O6 1.921817 1_555
Mo3 O9 1.999605 1_555
Mo3 O8 2.028800 1_565
