# generated using pymatgen
data_LiMo2P3O13
_symmetry_space_group_name_H-M   'P 1'
_cell_length_a   22.54342500
_cell_length_b   6.46198100
_cell_length_c   7.14715806
_cell_angle_alpha   81.20946629
_cell_angle_beta   90.00000000
_cell_angle_gamma   90.00000000
_symmetry_Int_Tables_number   1
_chemical_formula_structural   LiMo2P3O13
_chemical_formula_sum   'Li4 Mo8 P12 O52'
_cell_volume   1028.93368818
_cell_formula_units_Z   4
loop_
 _symmetry_equiv_pos_site_id
 _symmetry_equiv_pos_as_xyz
  1  'x, y, z'
loop_
 _atom_site_type_symbol
 _atom_site_label
 _atom_site_symmetry_multiplicity
 _atom_site_fract_x
 _atom_site_fract_y
 _atom_site_fract_z
 _atom_site_occupancy
  Li  Li0  1  0.64947400  0.26910600  0.78725200  1
  Li  Li1  1  0.14947400  0.23089400  0.71274800  1
  Li  Li2  1  0.85052600  0.76910600  0.28725200  1
  Li  Li3  1  0.35052600  0.73089400  0.21274800  1
  Mo  Mo0  1  0.79279300  0.22250000  0.04177200  1
  Mo  Mo1  1  0.06397700  0.22278100  0.22348300  1
  Mo  Mo2  1  0.56397700  0.27721900  0.27651700  1
  Mo  Mo3  1  0.29279300  0.27750000  0.45822800  1
  Mo  Mo4  1  0.70720700  0.72250000  0.54177200  1
  Mo  Mo5  1  0.43602300  0.72278100  0.72348300  1
  Mo  Mo6  1  0.93602300  0.77721900  0.77651700  1
  Mo  Mo7  1  0.20720700  0.77750000  0.95822800  1
  P  P0  1  0.08363200  0.87976600  0.65105300  1
  P  P1  1  0.79645500  0.72984400  0.91719100  1
  P  P2  1  0.29645500  0.77015600  0.58280900  1
  P  P3  1  0.59930100  0.78083500  0.20113000  1
  P  P4  1  0.09930100  0.71916500  0.29887000  1
  P  P5  1  0.58363200  0.62023400  0.84894700  1
  P  P6  1  0.41636800  0.37976600  0.15105300  1
  P  P7  1  0.90069900  0.28083500  0.70113000  1
  P  P8  1  0.91636800  0.12023400  0.34894700  1
  P  P9  1  0.20354500  0.27015600  0.08280900  1
  P  P10  1  0.40069900  0.21916500  0.79887000  1
  P  P11  1  0.70354500  0.22984400  0.41719100  1
  O  O0  1  0.33968000  0.23093400  0.70476800  1
  O  O1  1  0.12349900  0.85639500  0.82492600  1
  O  O2  1  0.56578500  0.98469000  0.20739700  1
  O  O3  1  0.91464200  0.89564100  0.45476200  1
  O  O4  1  0.61321400  0.77645100  0.98128700  1
  O  O5  1  0.05893500  0.90577400  0.22936800  1
  O  O6  1  0.02178200  0.78983000  0.69769400  1
  O  O7  1  0.84598400  0.77864300  0.76811500  1
  O  O8  1  0.69078400  0.02593200  0.56001800  1
  O  O9  1  0.87650100  0.14360500  0.17507400  1
  O  O10  1  0.43421500  0.01531000  0.79260300  1
  O  O11  1  0.08535800  0.10435900  0.54523800  1
  O  O12  1  0.38678600  0.22354900  0.01871300  1
  O  O13  1  0.94106500  0.09422600  0.77063200  1
  O  O14  1  0.76246400  0.20538700  0.31441800  1
  O  O15  1  0.15401600  0.22135700  0.23188500  1
  O  O16  1  0.97821800  0.21017000  0.30230600  1
  O  O17  1  0.20453800  0.10267500  0.94862200  1
  O  O18  1  0.56001700  0.21688500  0.51513500  1
  O  O19  1  0.47821800  0.28983000  0.19769400  1
  O  O20  1  0.65401600  0.27864300  0.26811500  1
  O  O21  1  0.26246400  0.29461300  0.18558200  1
  O  O22  1  0.88678600  0.27645100  0.48128700  1
  O  O23  1  0.30921600  0.97406800  0.43998200  1
  O  O24  1  0.22376100  0.26364600  0.55711700  1
  O  O25  1  0.72376100  0.23635400  0.94288300  1
  O  O26  1  0.83968000  0.26906600  0.79523200  1
  O  O27  1  0.37650100  0.35639500  0.32492600  1
  O  O28  1  0.06001700  0.28311500  0.98486500  1
  O  O29  1  0.70453800  0.39732500  0.55137800  1
  O  O30  1  0.80921600  0.52593200  0.06001800  1
  O  O31  1  0.44106500  0.40577400  0.72936800  1
  O  O32  1  0.06578500  0.51531000  0.29260300  1
  O  O33  1  0.58535800  0.39564100  0.95476200  1
  O  O34  1  0.41464200  0.60435900  0.04523800  1
  O  O35  1  0.93421500  0.48469000  0.70739700  1
  O  O36  1  0.55893500  0.59422600  0.27063200  1
  O  O37  1  0.19078400  0.47406800  0.93998200  1
  O  O38  1  0.29546200  0.60267500  0.44862200  1
  O  O39  1  0.93998300  0.71688500  0.01513500  1
  O  O40  1  0.62349900  0.64360500  0.67507400  1
  O  O41  1  0.16032000  0.73093400  0.20476800  1
  O  O42  1  0.27623900  0.76364600  0.05711700  1
  O  O43  1  0.77623900  0.73635400  0.44288300  1
  O  O44  1  0.66032000  0.76906600  0.29523200  1
  O  O45  1  0.11321400  0.72354900  0.51871300  1
  O  O46  1  0.73753600  0.70538700  0.81441800  1
  O  O47  1  0.34598400  0.72135700  0.73188500  1
  O  O48  1  0.52178200  0.71017000  0.80230600  1
  O  O49  1  0.43998300  0.78311500  0.48486500  1
  O  O50  1  0.79546200  0.89732500  0.05137800  1
  O  O51  1  0.23753600  0.79461300  0.68558200  1
loop_
_geom_bond_atom_site_label_1
_geom_bond_atom_site_label_2
_geom_bond_distance
_geom_bond_site_symmetry_2
Li0 O25 2.003661 1_555
Li0 O33 2.119029 1_555
Li0 O29 2.154644 1_555
Li0 O40 2.499819 1_555
Li0 O8 2.598878 1_555
Li1 O24 2.003661 1_555
Li1 O11 2.119029 1_555
Li1 O17 2.154644 1_555
Li1 O1 2.499819 1_545
Li1 O37 2.598878 1_555
Li2 O43 2.003661 1_555
Li2 O3 2.119029 1_555
Li2 O50 2.154644 1_555
Li2 O9 2.499819 1_565
Li2 O30 2.598878 1_555
Li3 O42 2.003661 1_555
Li3 O34 2.119029 1_555
Li3 O38 2.154644 1_555
Li3 O27 2.499819 1_555
Li3 O23 2.598878 1_555
Mo0 O25 1.705878 1_554
Mo0 O30 2.019123 1_555
Mo0 O26 2.037297 1_554
Mo0 O14 2.052085 1_555
Mo0 O50 2.092748 1_545
Mo0 O9 2.140132 1_555
Mo1 O28 1.692712 1_554
Mo1 O16 2.011874 1_455
Mo1 O32 2.025939 1_555
Mo1 O15 2.030655 1_555
Mo1 O5 2.045649 1_545
Mo1 O11 2.359739 1_555
Mo2 O18 1.692712 1_555
Mo2 O19 2.011874 1_555
Mo2 O2 2.025939 1_545
Mo2 O20 2.030655 1_555
Mo2 O36 2.045649 1_555
Mo2 O33 2.359739 1_554
Mo3 O24 1.705878 1_555
Mo3 O23 2.019123 1_545
Mo3 O0 2.037297 1_555
Mo3 O21 2.052085 1_555
Mo3 O38 2.092748 1_555
Mo3 O27 2.140132 1_555
Mo4 O43 1.705878 1_555
Mo4 O8 2.019123 1_565
Mo4 O44 2.037297 1_555
Mo4 O46 2.052085 1_555
Mo4 O29 2.092748 1_555
Mo4 O40 2.140132 1_555
Mo5 O49 1.692712 1_555
Mo5 O48 2.011874 1_555
Mo5 O10 2.025939 1_565
Mo5 O47 2.030655 1_555
Mo5 O31 2.045649 1_555
Mo5 O34 2.359739 1_556
Mo6 O39 1.692712 1_556
Mo6 O6 2.011874 1_655
Mo6 O35 2.025939 1_555
Mo6 O7 2.030655 1_555
Mo6 O13 2.045649 1_565
Mo6 O3 2.359739 1_555
Mo7 O42 1.705878 1_556
Mo7 O37 2.019123 1_555
Mo7 O41 2.037297 1_556
Mo7 O51 2.052085 1_555
Mo7 O17 2.092748 1_565
Mo7 O1 2.140132 1_555
O0 P10 1.527973 1_555
O1 P0 1.522325 1_555
O2 P3 1.525194 1_555
O3 P8 1.531114 1_565
O4 P3 1.606741 1_556
O4 P5 1.627955 1_555
O5 P4 1.531619 1_555
O6 P0 1.527666 1_555
O7 P1 1.542292 1_555
O8 P11 1.565232 1_555
O9 P8 1.522325 1_555
O10 P10 1.525194 1_555
O11 P0 1.531114 1_545
O12 P10 1.606741 1_554
O12 P6 1.627955 1_555
O13 P7 1.531619 1_555
O14 P11 1.537599 1_555
O15 P9 1.542292 1_555
O16 P8 1.527666 1_555
O17 P9 1.552036 1_556
O19 P6 1.527666 1_555
O20 P11 1.542292 1_555
O21 P9 1.537599 1_555
O22 P7 1.606741 1_555
O22 P8 1.627955 1_555
O23 P2 1.565232 1_555
O26 P7 1.527973 1_555
O27 P6 1.522325 1_555
O29 P11 1.552036 1_555
O30 P1 1.565232 1_554
O31 P10 1.531619 1_555
O32 P4 1.525194 1_555
O33 P5 1.531114 1_555
O34 P6 1.531114 1_555
O35 P7 1.525194 1_555
O36 P3 1.531619 1_555
O37 P9 1.565232 1_556
O38 P2 1.552036 1_555
O40 P5 1.522325 1_555
O41 P4 1.527973 1_555
O44 P3 1.527973 1_555
O45 P4 1.606741 1_555
O45 P0 1.627955 1_555
O46 P1 1.537599 1_555
O47 P2 1.542292 1_555
O48 P5 1.527666 1_555
O50 P1 1.552036 1_554
O51 P2 1.537599 1_555
