# generated using pymatgen
data_MgTi6(H2O7)2
_symmetry_space_group_name_H-M   'P 1'
_cell_length_a   8.35782949
_cell_length_b   7.46798529
_cell_length_c   9.32928833
_cell_angle_alpha   79.59761265
_cell_angle_beta   99.15026660
_cell_angle_gamma   152.03448972
_symmetry_Int_Tables_number   1
_chemical_formula_structural   MgTi6(H2O7)2
_chemical_formula_sum   'Mg1 Ti6 H4 O14'
_cell_volume   268.57471839
_cell_formula_units_Z   1
loop_
 _symmetry_equiv_pos_site_id
 _symmetry_equiv_pos_as_xyz
  1  'x, y, z'
loop_
 _atom_site_type_symbol
 _atom_site_label
 _atom_site_symmetry_multiplicity
 _atom_site_fract_x
 _atom_site_fract_y
 _atom_site_fract_z
 _atom_site_occupancy
  Mg  Mg0  1  0.30327000  0.55788100  0.92967900  1
  Ti  Ti0  1  0.78655400  0.28805700  0.77102600  1
  Ti  Ti1  1  0.28612900  0.81044200  0.20568300  1
  Ti  Ti2  1  0.78595000  0.12197600  0.47191100  1
  Ti  Ti3  1  0.28104500  0.95148900  0.49986600  1
  Ti  Ti4  1  0.79760500  0.04088700  0.18093700  1
  Ti  Ti5  1  0.27135500  0.03757100  0.81838200  1
  H  H0  1  0.60382500  0.49851700  0.19364400  1
  H  H1  1  0.00140000  0.89107000  0.21578500  1
  H  H2  1  0.02156000  0.99415100  0.95870700  1
  H  H3  1  0.90996700  0.05001500  0.72889300  1
  O  O0  1  0.79510500  0.12132100  0.95247700  1
  O  O1  1  0.27835600  0.91852300  0.02659000  1
  O  O2  1  0.78895000  0.04035700  0.67874500  1
  O  O3  1  0.28221000  0.03723000  0.30603900  1
  O  O4  1  0.80087500  0.94504500  0.38356600  1
  O  O5  1  0.27121800  0.11401300  0.61275700  1
  O  O6  1  0.81168100  0.77292300  0.15442000  1
  O  O7  1  0.20018000  0.21010600  0.88483100  1
  O  O8  1  0.77253700  0.51792000  0.82780000  1
  O  O9  1  0.29714200  0.55475500  0.15271700  1
  O  O10  1  0.78169500  0.37820400  0.54701700  1
  O  O11  1  0.28870600  0.69436200  0.45271500  1
  O  O12  1  0.78728900  0.27267700  0.25304900  1
  O  O13  1  0.28768800  0.78545800  0.76585600  1
loop_
_geom_bond_atom_site_label_1
_geom_bond_atom_site_label_2
_geom_bond_distance
_geom_bond_site_symmetry_2
Mg0 O7 1.996904 1_555
Mg0 O0 2.034516 1_565
Mg0 O0 2.071212 1_455
Mg0 O9 2.084965 1_556
Mg0 O13 2.151959 1_555
H0 O6 0.997028 1_555
H1 O6 1.021192 1_455
H1 O3 1.608341 1_565
H2 O7 0.988690 1_565
H3 O2 0.989905 1_555
O0 Ti0 1.943893 1_555
O0 Ti4 2.109422 1_556
O1 Ti1 1.737359 1_555
O1 Ti5 1.999749 1_564
O2 Ti2 1.918969 1_555
O2 Ti0 2.193041 1_555
O3 Ti3 1.804547 1_545
O3 Ti1 2.103914 1_545
O4 Ti2 1.777037 1_565
O4 Ti4 1.901606 1_565
O5 Ti3 1.803971 1_545
O5 Ti5 1.900234 1_555
O6 Ti4 2.164150 1_565
O7 Ti5 2.039135 1_555
O8 Ti5 1.965359 1_665
O8 Ti5 1.968647 1_555
O8 Ti0 1.986037 1_555
O9 Ti4 1.977302 1_455
O9 Ti4 1.978813 1_565
O9 Ti1 2.136438 1_555
O10 Ti3 2.055160 1_545
O10 Ti3 2.069247 1_655
O10 Ti0 2.082200 1_555
O10 Ti2 2.183127 1_555
O11 Ti2 2.006898 1_565
O11 Ti2 2.048163 1_455
O11 Ti3 2.101433 1_555
O11 Ti1 2.314955 1_555
O12 Ti1 2.018452 1_655
O12 Ti1 2.019114 1_545
O12 Ti4 2.039370 1_555
O12 Ti2 2.142654 1_555
O13 Ti0 1.957454 1_565
O13 Ti0 1.964642 1_455
O13 Ti5 2.147573 1_565
O13 Ti3 2.581662 1_555
