# generated using pymatgen
data_Na3Mg3Ga(SO4)6
_symmetry_space_group_name_H-M   'P 1'
_cell_length_a   8.64977752
_cell_length_b   8.65449222
_cell_length_c   22.35546649
_cell_angle_alpha   90.02321202
_cell_angle_beta   89.98267435
_cell_angle_gamma   120.11417940
_symmetry_Int_Tables_number   1
_chemical_formula_structural   Na3Mg3Ga(SO4)6
_chemical_formula_sum   'Na9 Mg9 Ga3 S18 O72'
_cell_volume   1447.63819142
_cell_formula_units_Z   3
loop_
 _symmetry_equiv_pos_site_id
 _symmetry_equiv_pos_as_xyz
  1  'x, y, z'
loop_
 _atom_site_type_symbol
 _atom_site_label
 _atom_site_symmetry_multiplicity
 _atom_site_fract_x
 _atom_site_fract_y
 _atom_site_fract_z
 _atom_site_occupancy
  Na  Na0  1  0.63548910  0.99932520  0.24941693  1
  Na  Na1  1  0.36451297  0.36354310  0.24931175  1
  Na  Na2  1  0.03159180  0.69863073  0.58488874  1
  Na  Na3  1  0.99932898  0.00607721  0.49930832  1
  Na  Na4  1  0.99995740  0.99941883  0.99888955  1
  Na  Na5  1  0.66607770  0.33267010  0.83229828  1
  Na  Na6  1  0.67367382  0.33969214  0.33629877  1
  Na  Na7  1  0.32579369  0.66590384  0.16165714  1
  Na  Na8  1  0.34008566  0.66592865  0.66949452  1
  Mg  Mg0  1  0.00001746  0.99829752  0.35384790  1
  Mg  Mg1  1  0.00010104  0.00073151  0.85112560  1
  Mg  Mg2  1  0.99928499  0.00657493  0.65261596  1
  Mg  Mg3  1  0.99988309  0.99757405  0.14439065  1
  Mg  Mg4  1  0.66440302  0.33094457  0.68817277  1
  Mg  Mg5  1  0.67268306  0.33874147  0.18018834  1
  Mg  Mg6  1  0.33278979  0.66677129  0.01773190  1
  Mg  Mg7  1  0.33843851  0.66596467  0.51715094  1
  Mg  Mg8  1  0.32719990  0.66595815  0.31984400  1
  Ga  Ga0  1  0.66787543  0.33460379  0.98182222  1
  Ga  Ga1  1  0.66486400  0.33149474  0.48352113  1
  Ga  Ga2  1  0.33454719  0.66665362  0.81644296  1
  S  S0  1  0.28870605  0.99679378  0.24965194  1
  S  S1  1  0.71086882  0.70821787  0.24997147  1
  S  S2  1  0.00022501  0.29227557  0.24987053  1
  S  S3  1  0.29269748  0.29476126  0.75127069  1
  S  S4  1  0.00213763  0.70700055  0.75054780  1
  S  S5  1  0.70542890  0.99799141  0.75122975  1
  S  S6  1  0.95526036  0.33108614  0.58296895  1
  S  S7  1  0.37787434  0.04441745  0.58314136  1
  S  S8  1  0.66412079  0.62188175  0.58344291  1
  S  S9  1  0.95838598  0.62403296  0.08247946  1
  S  S10  1  0.66578273  0.04169120  0.08319388  1
  S  S11  1  0.37589825  0.33422796  0.08316337  1
  S  S12  1  0.62392454  0.66554107  0.91750932  1
  S  S13  1  0.04184820  0.37628420  0.91738612  1
  S  S14  1  0.33451906  0.95833189  0.91742353  1
  S  S15  1  0.62710521  0.96269978  0.41710808  1
  S  S16  1  0.33553262  0.37296815  0.41709318  1
  S  S17  1  0.03738054  0.66441098  0.41834959  1
  O  O0  1  0.21151896  0.03222520  0.30335788  1
  O  O1  1  0.81823417  0.78905234  0.30408309  1
  O  O2  1  0.96702389  0.17932816  0.30350744  1
  O  O3  1  0.21115330  0.18514671  0.80434686  1
  O  O4  1  0.97446746  0.79069804  0.80311055  1
  O  O5  1  0.81486134  0.02613045  0.80433393  1
  O  O6  1  0.78125996  0.96534775  0.69658197  1
  O  O7  1  0.18440803  0.21860624  0.69659357  1
  O  O8  1  0.03351866  0.81291395  0.69468371  1
  O  O9  1  0.78839581  0.82088587  0.19708817  1
  O  O10  1  0.03299975  0.21231556  0.19682171  1
  O  O11  1  0.18189054  0.97071956  0.19640547  1
  O  O12  1  0.87568138  0.36615530  0.63533723  1
  O  O13  1  0.48772850  0.12521511  0.63579172  1
  O  O14  1  0.63738375  0.51231157  0.63611460  1
  O  O15  1  0.87865837  0.51537807  0.13667411  1
  O  O16  1  0.63739327  0.11926437  0.13871355  1
  O  O17  1  0.48160284  0.36217031  0.13869269  1
  O  O18  1  0.46004455  0.30321656  0.02970467  1
  O  O19  1  0.84413376  0.54175143  0.02843944  1
  O  O20  1  0.69678761  0.15674084  0.02973439  1
  O  O21  1  0.45644616  0.15430403  0.52791188  1
  O  O22  1  0.70224605  0.54390551  0.52840663  1
  O  O23  1  0.84513786  0.30163556  0.52769981  1
  O  O24  1  0.54274144  0.69321586  0.97061970  1
  O  O25  1  0.15059122  0.45723234  0.97052795  1
  O  O26  1  0.30672539  0.84959529  0.97053061  1
  O  O27  1  0.54305451  0.85109322  0.46979364  1
  O  O28  1  0.30748721  0.45664096  0.46977731  1
  O  O29  1  0.14498492  0.69245850  0.47254042  1
  O  O30  1  0.11622521  0.63337142  0.36450770  1
  O  O31  1  0.52108641  0.88736665  0.36165372  1
  O  O32  1  0.36675486  0.47919240  0.36167461  1
  O  O33  1  0.11960170  0.48816260  0.86249776  1
  O  O34  1  0.36844772  0.88056576  0.86250883  1
  O  O35  1  0.51214156  0.63127767  0.86260014  1
  O  O36  1  0.01886893  0.82377430  0.41087976  1
  O  O37  1  0.80561935  0.98196398  0.41040703  1
  O  O38  1  0.17586836  0.19440057  0.41034634  1
  O  O39  1  0.02100194  0.19768136  0.90968619  1
  O  O40  1  0.17644203  0.97863512  0.90965119  1
  O  O41  1  0.80271211  0.82359099  0.90968257  1
  O  O42  1  0.97483678  0.17224481  0.58860495  1
  O  O43  1  0.19538633  0.02107720  0.58820205  1
  O  O44  1  0.82925070  0.80063938  0.58844034  1
  O  O45  1  0.97373152  0.80067565  0.08861112  1
  O  O46  1  0.82739609  0.02644819  0.08907893  1
  O  O47  1  0.19859526  0.17274679  0.08896129  1
  O  O48  1  0.68533425  0.15622937  0.74381029  1
  O  O49  1  0.47132095  0.31534353  0.74390772  1
  O  O50  1  0.84319580  0.52834582  0.74353608  1
  O  O51  1  0.68403367  0.52546777  0.24380052  1
  O  O52  1  0.83763622  0.30846614  0.24341426  1
  O  O53  1  0.47274816  0.16047497  0.24394170  1
  O  O54  1  0.64071949  0.50058401  0.92346438  1
  O  O55  1  0.85957990  0.35879508  0.92341663  1
  O  O56  1  0.49971166  0.14068349  0.92356967  1
  O  O57  1  0.64359866  0.14362825  0.42382862  1
  O  O58  1  0.50003055  0.35657770  0.42386592  1
  O  O59  1  0.85556944  0.49960602  0.42428785  1
  O  O60  1  0.35949662  0.49481589  0.07644710  1
  O  O61  1  0.13589122  0.64130046  0.07596248  1
  O  O62  1  0.50514107  0.86430329  0.07648494  1
  O  O63  1  0.35422981  0.86238789  0.57568472  1
  O  O64  1  0.50606798  0.64152496  0.57538905  1
  O  O65  1  0.13358615  0.49549815  0.57526544  1
  O  O66  1  0.31548148  0.84110756  0.25665984  1
  O  O67  1  0.52747946  0.68794709  0.25657503  1
  O  O68  1  0.16278838  0.47098893  0.25709197  1
  O  O69  1  0.31009517  0.47725838  0.75772854  1
  O  O70  1  0.16695473  0.69023271  0.75736961  1
  O  O71  1  0.52245359  0.83278199  0.75769113  1
loop_
_geom_bond_atom_site_label_1
_geom_bond_atom_site_label_2
_geom_bond_distance
_geom_bond_site_symmetry_2
Na0 O52 2.353578 1_565
Na0 O67 2.373692 1_555
Na0 O66 2.399920 1_555
Na0 O53 2.431436 1_565
Na0 O16 2.680934 1_565
Na0 O31 2.692958 1_555
Na0 O9 2.747695 1_555
Na0 O2 2.762341 1_565
Na1 O68 2.359523 1_555
Na1 O53 2.372829 1_555
Na1 O51 2.393952 1_555
Na1 O67 2.433984 1_555
Na1 O17 2.674300 1_555
Na1 O32 2.700079 1_555
Na1 O10 2.747254 1_555
Na1 O0 2.761733 1_555
Na2 O44 2.323628 1_455
Na2 O65 2.339038 1_555
Na2 O43 2.415126 1_565
Na2 O63 2.422862 1_555
Na2 O8 2.642858 1_555
Na2 O29 2.706285 1_555
Na2 O12 2.734589 1_455
Na2 O22 2.770542 1_455
Na3 O42 2.530063 1_555
Na3 O38 2.539067 1_655
Na3 O37 2.540017 1_545
Na3 O43 2.573498 1_655
Na3 O44 2.583069 1_545
Na3 O36 2.586632 1_645
Na4 O41 2.568649 1_555
Na4 O40 2.572159 1_655
Na4 O39 2.577444 1_665
Na4 O45 2.577601 1_556
Na4 O47 2.582686 1_666
Na4 O46 2.587654 1_566
Na5 O49 2.552114 1_555
Na5 O48 2.554467 1_555
Na5 O50 2.559293 1_555
Na5 O56 2.568374 1_555
Na5 O55 2.573685 1_555
Na5 O54 2.575034 1_555
Na6 O59 2.464698 1_555
Na6 O58 2.515500 1_555
Na6 O57 2.517004 1_555
Na6 O51 2.593648 1_555
Na6 O52 2.603564 1_555
Na6 O53 2.642685 1_555
Na7 O61 2.462560 1_555
Na7 O62 2.511629 1_555
Na7 O60 2.517260 1_555
Na7 O66 2.636431 1_555
Na7 O68 2.645715 1_555
Na7 O67 2.692649 1_555
Na8 O71 2.484934 1_555
Na8 O69 2.490290 1_555
Na8 O70 2.541665 1_555
Na8 O64 2.614155 1_555
Na8 O63 2.664193 1_555
Na8 O65 2.675740 1_555
Mg0 O1 2.032643 1_455
Mg0 O0 2.041345 1_565
Mg0 O36 2.045070 1_555
Mg0 O38 2.048986 1_565
Mg0 O37 2.050974 1_455
Mg0 O2 2.062247 1_465
Mg1 O3 2.012479 1_555
Mg1 O5 2.016052 1_455
Mg1 O4 2.024756 1_445
Mg1 O39 2.083506 1_555
Mg1 O41 2.086335 1_445
Mg1 O40 2.090232 1_545
Mg2 O7 1.987192 1_655
Mg2 O6 1.993445 1_545
Mg2 O8 2.068979 1_645
Mg2 O42 2.110525 1_555
Mg2 O43 2.179818 1_655
Mg2 O44 2.183296 1_545
Mg3 O45 2.030167 1_555
Mg3 O47 2.042948 1_665
Mg3 O46 2.047656 1_565
Mg3 O11 2.062312 1_655
Mg3 O9 2.065374 1_555
Mg3 O10 2.091435 1_665
Mg4 O49 2.032878 1_555
Mg4 O48 2.035325 1_555
Mg4 O13 2.036131 1_555
Mg4 O50 2.047060 1_555
Mg4 O14 2.059741 1_555
Mg4 O12 2.065906 1_555
Mg5 O15 1.929932 1_555
Mg5 O17 1.992680 1_555
Mg5 O16 1.994430 1_555
Mg5 O52 2.116346 1_555
Mg5 O51 2.117189 1_555
Mg5 O53 2.173779 1_555
Mg6 O25 2.004380 1_554
Mg6 O26 2.006801 1_554
Mg6 O24 2.010374 1_554
Mg6 O61 2.065433 1_555
Mg6 O62 2.076573 1_555
Mg6 O60 2.082723 1_555
Mg7 O27 1.993767 1_555
Mg7 O28 1.996768 1_555
Mg7 O64 2.037467 1_555
Mg7 O29 2.057521 1_555
Mg7 O65 2.093112 1_555
Mg7 O63 2.094296 1_555
Mg8 O30 1.972154 1_555
Mg8 O31 2.032923 1_555
Mg8 O32 2.039738 1_555
Mg8 O68 2.104515 1_555
Mg8 O66 2.111682 1_555
Mg8 O67 2.169287 1_555
Ga0 O19 1.970085 1_556
Ga0 O18 1.990069 1_556
Ga0 O20 1.991749 1_556
Ga0 O55 2.036866 1_555
Ga0 O54 2.039839 1_555
Ga0 O56 2.044035 1_555
Ga1 O21 1.952554 1_555
Ga1 O23 1.969566 1_555
Ga1 O22 1.973082 1_555
Ga1 O57 2.038727 1_555
Ga1 O58 2.042169 1_555
Ga1 O59 2.045310 1_555
Ga2 O35 1.997846 1_555
Ga2 O33 2.005292 1_555
Ga2 O34 2.006924 1_555
Ga2 O71 2.022204 1_555
Ga2 O69 2.026051 1_555
Ga2 O70 2.045807 1_555
O0 S0 1.478489 1_545
O1 S1 1.470811 1_555
O2 S2 1.481494 1_655
O3 S3 1.460928 1_555
O4 S4 1.461460 1_655
O5 S5 1.460752 1_545
O6 S5 1.479096 1_555
O7 S3 1.478654 1_555
O8 S4 1.491513 1_555
O9 S1 1.463717 1_555
O10 S2 1.470263 1_555
O11 S0 1.453526 1_555
O12 S6 1.464708 1_555
O13 S7 1.452765 1_555
O14 S8 1.455985 1_555
O15 S9 1.475595 1_555
O16 S10 1.488653 1_555
O17 S11 1.487975 1_555
O18 S11 1.491736 1_555
O19 S9 1.495687 1_555
O20 S10 1.491457 1_555
O21 S7 1.497543 1_555
O22 S8 1.516692 1_555
O23 S6 1.501916 1_555
O24 S12 1.458837 1_555
O25 S13 1.457967 1_555
O26 S14 1.458296 1_555
O27 S15 1.464414 1_555
O28 S16 1.464857 1_555
O29 S17 1.471937 1_555
O30 S17 1.472803 1_555
O31 S15 1.484247 1_555
O32 S16 1.484776 1_555
O33 S13 1.497504 1_555
O34 S14 1.497836 1_555
O35 S12 1.497447 1_555
O36 S17 1.475651 1_555
O37 S15 1.475148 1_555
O38 S16 1.475345 1_555
O39 S13 1.473604 1_555
O40 S14 1.473743 1_555
O41 S12 1.473291 1_555
O42 S6 1.472433 1_555
O43 S7 1.491699 1_555
O44 S8 1.492859 1_555
O45 S9 1.472995 1_555
O46 S10 1.474472 1_555
O47 S11 1.473520 1_555
O48 S5 1.473847 1_545
O49 S3 1.472995 1_555
O50 S4 1.473846 1_655
O51 S1 1.485212 1_555
O52 S2 1.488686 1_655
O53 S0 1.514718 1_545
O54 S12 1.511688 1_555
O55 S13 1.512324 1_655
O56 S14 1.512722 1_545
O57 S15 1.506803 1_545
O58 S16 1.506747 1_555
O59 S17 1.508099 1_655
O60 S11 1.473862 1_555
O61 S9 1.473294 1_455
O62 S10 1.472918 1_565
O63 S7 1.492621 1_565
O64 S8 1.470962 1_555
O65 S6 1.493727 1_455
O66 S0 1.485583 1_555
O67 S1 1.513102 1_555
O68 S2 1.487642 1_555
O69 S3 1.516372 1_555
O70 S4 1.511452 1_555
O71 S5 1.516380 1_555
