# generated using pymatgen
data_In9(CuSe4)4
_symmetry_space_group_name_H-M   'P 1'
_cell_length_a   11.85099400
_cell_length_b   11.85099400
_cell_length_c   11.85099400
_cell_angle_alpha   90.00000000
_cell_angle_beta   90.00000000
_cell_angle_gamma   90.00000000
_symmetry_Int_Tables_number   1
_chemical_formula_structural   In9(CuSe4)4
_chemical_formula_sum   'In18 Cu8 Se32'
_cell_volume   1664.42540002
_cell_formula_units_Z   2
loop_
 _symmetry_equiv_pos_site_id
 _symmetry_equiv_pos_as_xyz
  1  'x, y, z'
loop_
 _atom_site_type_symbol
 _atom_site_label
 _atom_site_symmetry_multiplicity
 _atom_site_fract_x
 _atom_site_fract_y
 _atom_site_fract_z
 _atom_site_occupancy
  In  In0  1  0.23950700  0.50000000  0.50000000  1
  In  In1  1  0.23080600  0.00000000  0.50000000  1
  In  In2  1  0.76919400  0.50000000  0.00000000  1
  In  In3  1  0.50000000  0.00000000  0.76919400  1
  In  In4  1  0.00000000  0.76919400  0.50000000  1
  In  In5  1  0.50000000  0.00000000  0.23080600  1
  In  In6  1  0.00000000  0.23080600  0.50000000  1
  In  In7  1  0.50000000  0.23080600  0.00000000  1
  In  In8  1  0.50000000  0.76919400  0.00000000  1
  In  In9  1  0.00000000  0.50000000  0.76919400  1
  In  In10  1  0.00000000  0.50000000  0.23080600  1
  In  In11  1  0.76919400  0.00000000  0.50000000  1
  In  In12  1  0.23080600  0.50000000  0.00000000  1
  In  In13  1  0.50000000  0.23950700  0.50000000  1
  In  In14  1  0.50000000  0.76049300  0.50000000  1
  In  In15  1  0.50000000  0.50000000  0.76049300  1
  In  In16  1  0.50000000  0.50000000  0.23950700  1
  In  In17  1  0.76049300  0.50000000  0.50000000  1
  Cu  Cu0  1  0.22948600  0.22948600  0.22948600  1
  Cu  Cu1  1  0.77051400  0.22948600  0.77051400  1
  Cu  Cu2  1  0.77051400  0.77051400  0.22948600  1
  Cu  Cu3  1  0.22948600  0.77051400  0.77051400  1
  Cu  Cu4  1  0.75749300  0.75749300  0.75749300  1
  Cu  Cu5  1  0.24250700  0.75749300  0.24250700  1
  Cu  Cu6  1  0.24250700  0.24250700  0.75749300  1
  Cu  Cu7  1  0.75749300  0.24250700  0.24250700  1
  Se  Se0  1  0.88150300  0.64916800  0.88150300  1
  Se  Se1  1  0.88150300  0.88150300  0.64916800  1
  Se  Se2  1  0.11849700  0.35083200  0.88150300  1
  Se  Se3  1  0.35083200  0.11849700  0.88150300  1
  Se  Se4  1  0.11849700  0.64916800  0.11849700  1
  Se  Se5  1  0.64916800  0.11849700  0.11849700  1
  Se  Se6  1  0.88150300  0.11849700  0.35083200  1
  Se  Se7  1  0.11849700  0.88150300  0.35083200  1
  Se  Se8  1  0.64916800  0.88150300  0.88150300  1
  Se  Se9  1  0.35083200  0.88150300  0.11849700  1
  Se  Se10  1  0.88150300  0.35083200  0.11849700  1
  Se  Se11  1  0.12014000  0.87986000  0.87986000  1
  Se  Se12  1  0.11849700  0.11849700  0.64916800  1
  Se  Se13  1  0.63863900  0.63863900  0.13095500  1
  Se  Se14  1  0.36136100  0.86904500  0.63863900  1
  Se  Se15  1  0.86904500  0.36136100  0.63863900  1
  Se  Se16  1  0.36136100  0.13095500  0.36136100  1
  Se  Se17  1  0.13095500  0.36136100  0.36136100  1
  Se  Se18  1  0.12014000  0.12014000  0.12014000  1
  Se  Se19  1  0.87986000  0.12014000  0.87986000  1
  Se  Se20  1  0.87986000  0.87986000  0.12014000  1
  Se  Se21  1  0.63521700  0.36478300  0.36478300  1
  Se  Se22  1  0.63521700  0.63521700  0.63521700  1
  Se  Se23  1  0.36478300  0.63521700  0.36478300  1
  Se  Se24  1  0.36478300  0.36478300  0.63521700  1
  Se  Se25  1  0.36136100  0.63863900  0.86904500  1
  Se  Se26  1  0.36136100  0.36136100  0.13095500  1
  Se  Se27  1  0.63863900  0.13095500  0.63863900  1
  Se  Se28  1  0.63863900  0.86904500  0.36136100  1
  Se  Se29  1  0.86904500  0.63863900  0.36136100  1
  Se  Se30  1  0.13095500  0.63863900  0.63863900  1
  Se  Se31  1  0.63863900  0.36136100  0.86904500  1
loop_
_geom_bond_atom_site_label_1
_geom_bond_atom_site_label_2
_geom_bond_distance
_geom_bond_site_symmetry_2
In0 Se30 2.655921 1_555
In0 Se17 2.655921 1_555
In0 Se23 2.709225 1_555
In0 Se24 2.709225 1_555
In1 Se12 2.620810 1_555
In1 Se7 2.620810 1_545
In1 Se14 2.738954 1_545
In1 Se16 2.738954 1_555
In2 Se10 2.620810 1_555
In2 Se0 2.620810 1_554
In2 Se13 2.738954 1_555
In2 Se31 2.738954 1_554
In3 Se3 2.620810 1_555
In3 Se8 2.620810 1_545
In3 Se27 2.738954 1_555
In3 Se14 2.738954 1_545
In4 Se7 2.620810 1_555
In4 Se1 2.620810 1_455
In4 Se30 2.738954 1_555
In4 Se29 2.738954 1_455
In5 Se5 2.620810 1_555
In5 Se9 2.620810 1_545
In5 Se28 2.738954 1_545
In5 Se16 2.738954 1_555
In6 Se12 2.620810 1_555
In6 Se6 2.620810 1_455
In6 Se15 2.738954 1_455
In6 Se17 2.738954 1_555
In7 Se5 2.620810 1_555
In7 Se3 2.620810 1_554
In7 Se26 2.738954 1_555
In7 Se31 2.738954 1_554
In8 Se9 2.620810 1_555
In8 Se8 2.620810 1_554
In8 Se13 2.738954 1_555
In8 Se25 2.738954 1_554
In9 Se2 2.620810 1_555
In9 Se0 2.620810 1_455
In9 Se30 2.738954 1_555
In9 Se15 2.738954 1_455
In10 Se4 2.620810 1_555
In10 Se10 2.620810 1_455
In10 Se17 2.738954 1_555
In10 Se29 2.738954 1_455
In11 Se6 2.620810 1_555
In11 Se1 2.620810 1_545
In11 Se27 2.738954 1_555
In11 Se28 2.738954 1_545
In12 Se4 2.620810 1_555
In12 Se2 2.620810 1_554
In12 Se26 2.738954 1_555
In12 Se25 2.738954 1_554
In13 Se27 2.655921 1_555
In13 Se16 2.655921 1_555
In13 Se21 2.709225 1_555
In13 Se24 2.709225 1_555
In14 Se14 2.655921 1_555
In14 Se28 2.655921 1_555
In14 Se22 2.709225 1_555
In14 Se23 2.709225 1_555
In15 Se31 2.655921 1_555
In15 Se25 2.655921 1_555
In15 Se22 2.709225 1_555
In15 Se24 2.709225 1_555
In16 Se13 2.655921 1_555
In16 Se26 2.655921 1_555
In16 Se23 2.709225 1_555
In16 Se21 2.709225 1_555
In17 Se29 2.655921 1_555
In17 Se15 2.655921 1_555
In17 Se22 2.709225 1_555
In17 Se21 2.709225 1_555
Cu0 Se18 2.244493 1_555
Cu0 Se17 2.499700 1_555
Cu0 Se16 2.499700 1_555
Cu0 Se26 2.499700 1_555
Cu1 Se19 2.244493 1_555
Cu1 Se27 2.499700 1_555
Cu1 Se31 2.499700 1_555
Cu1 Se15 2.499700 1_555
Cu2 Se20 2.244493 1_555
Cu2 Se13 2.499700 1_555
Cu2 Se28 2.499700 1_555
Cu2 Se29 2.499700 1_555
Cu3 Se11 2.244493 1_555
Cu3 Se30 2.499700 1_555
Cu3 Se14 2.499700 1_555
Cu3 Se25 2.499700 1_555
Cu4 Se0 2.442894 1_555
Cu4 Se8 2.442894 1_555
Cu4 Se1 2.442894 1_555
Cu4 Se22 2.509901 1_555
Cu5 Se9 2.442894 1_555
Cu5 Se7 2.442894 1_555
Cu5 Se4 2.442894 1_555
Cu5 Se23 2.509901 1_555
Cu6 Se3 2.442894 1_555
Cu6 Se2 2.442894 1_555
Cu6 Se12 2.442894 1_555
Cu6 Se24 2.509901 1_555
Cu7 Se10 2.442894 1_555
Cu7 Se6 2.442894 1_555
Cu7 Se5 2.442894 1_555
Cu7 Se21 2.509901 1_555
