# generated using pymatgen
data_Li2Nb2Fe3O10
_symmetry_space_group_name_H-M   'P 1'
_cell_length_a   5.11335296
_cell_length_b   5.19131115
_cell_length_c   8.04446581
_cell_angle_alpha   72.89377984
_cell_angle_beta   70.58980875
_cell_angle_gamma   79.38213943
_symmetry_Int_Tables_number   1
_chemical_formula_structural   Li2Nb2Fe3O10
_chemical_formula_sum   'Li2 Nb2 Fe3 O10'
_cell_volume   191.60526198
_cell_formula_units_Z   1
loop_
 _symmetry_equiv_pos_site_id
 _symmetry_equiv_pos_as_xyz
  1  'x, y, z'
loop_
 _atom_site_type_symbol
 _atom_site_label
 _atom_site_symmetry_multiplicity
 _atom_site_fract_x
 _atom_site_fract_y
 _atom_site_fract_z
 _atom_site_occupancy
  Li  Li0  1  0.63652226  0.48186906  0.58479572  1
  Li  Li1  1  0.41793636  0.40812508  0.25612259  1
  Nb  Nb0  1  0.93910367  0.05627074  0.31496261  1
  Nb  Nb1  1  0.06248546  0.89543158  0.68288297  1
  Fe  Fe0  1  0.49196897  0.99765576  0.98778776  1
  Fe  Fe1  1  0.98153494  0.65397474  0.10612250  1
  Fe  Fe2  1  0.99776350  0.31146168  0.89337239  1
  O  O0  1  0.75156808  0.41778639  0.32638381  1
  O  O1  1  0.76297701  0.19307549  0.77138991  1
  O  O2  1  0.21395775  0.11081361  0.44231390  1
  O  O3  1  0.21991221  0.30817111  0.07307647  1
  O  O4  1  0.23579247  0.94935778  0.85200883  1
  O  O5  1  0.75303146  0.03712180  0.13727132  1
  O  O6  1  0.77296105  0.66550981  0.93311862  1
  O  O7  1  0.78429596  0.83658321  0.54851662  1
  O  O8  1  0.22988683  0.77375988  0.20995086  1
  O  O9  1  0.23535901  0.53936228  0.68077912  1
loop_
_geom_bond_atom_site_label_1
_geom_bond_atom_site_label_2
_geom_bond_distance
_geom_bond_site_symmetry_2
Li0 O9 1.936565 1_555
Li0 O1 1.970506 1_555
Li0 O7 2.024114 1_555
Li0 O0 2.073643 1_555
Li1 O8 1.953322 1_555
Li1 O2 1.976971 1_555
Li1 O0 1.980262 1_555
Li1 O3 2.257644 1_555
Li1 O5 2.517499 1_555
Nb0 O7 1.881718 1_545
Nb0 O0 1.956994 1_555
Nb0 O5 1.995201 1_555
Nb0 O8 2.041015 1_645
Nb0 O2 2.092660 1_655
Nb0 O3 2.212708 1_655
Nb1 O9 1.898637 1_555
Nb1 O2 1.909238 1_565
Nb1 O4 1.957439 1_555
Nb1 O1 2.071309 1_465
Nb1 O7 2.159052 1_455
Nb1 O6 2.219348 1_455
Fe0 O1 1.963587 1_565
Fe0 O8 2.025096 1_556
Fe0 O3 2.048002 1_566
Fe0 O4 2.050594 1_555
Fe0 O6 2.084248 1_555
Fe0 O5 2.140713 1_566
Fe1 O0 1.973345 1_555
Fe1 O6 1.997977 1_554
Fe1 O8 1.999637 1_655
Fe1 O3 2.009493 1_655
Fe1 O5 2.150912 1_565
Fe1 O4 2.311842 1_654
Fe2 O9 1.938793 1_655
Fe2 O6 2.030904 1_555
Fe2 O1 2.047350 1_555
Fe2 O4 2.093176 1_645
Fe2 O3 2.109553 1_656
Fe2 O5 2.196562 1_556
