# generated using pymatgen
data_Ba2HoMgNbO6
_symmetry_space_group_name_H-M   'P 1'
_cell_length_a   6.80704641
_cell_length_b   6.80704650
_cell_length_c   6.80718177
_cell_angle_alpha   51.86328738
_cell_angle_beta   51.86328702
_cell_angle_gamma   51.86720641
_symmetry_Int_Tables_number   1
_chemical_formula_structural   Ba2HoMgNbO6
_chemical_formula_sum   'Ba2 Ho1 Mg1 Nb1 O6'
_cell_volume   180.35750803
_cell_formula_units_Z   1
loop_
 _symmetry_equiv_pos_site_id
 _symmetry_equiv_pos_as_xyz
  1  'x, y, z'
loop_
 _atom_site_type_symbol
 _atom_site_label
 _atom_site_symmetry_multiplicity
 _atom_site_fract_x
 _atom_site_fract_y
 _atom_site_fract_z
 _atom_site_occupancy
  Ba  Ba0  1  0.72708379  0.72708379  0.72800926  1
  Ba  Ba1  1  0.30215559  0.30215559  0.30301599  1
  Ho  Ho0  1  0.50605668  0.50605668  0.50721017  1
  Mg  Mg0  1  0.13245696  0.13245696  0.13418136  1
  Nb  Nb0  1  0.97992550  0.97992550  0.98132156  1
  O  O0  1  0.25029270  0.75792372  0.75855337  1
  O  O1  1  0.22891542  0.75316724  0.22990822  1
  O  O2  1  0.75792372  0.25029270  0.75855337  1
  O  O3  1  0.22914840  0.22914840  0.75423789  1
  O  O4  1  0.75316724  0.22891542  0.22990822  1
  O  O5  1  0.75787401  0.75787401  0.25051758  1
loop_
_geom_bond_atom_site_label_1
_geom_bond_atom_site_label_2
_geom_bond_distance
_geom_bond_site_symmetry_2
Ba0 O1 2.982838 1_655
Ba0 O4 2.982838 1_565
Ba0 O1 2.983266 1_556
Ba0 O4 2.983266 1_556
Ba0 O3 2.983416 1_655
Ba0 O3 2.983416 1_565
Ba0 O0 2.999977 1_555
Ba0 O2 2.999977 1_555
Ba0 O5 3.004037 1_555
Ba1 O4 2.539819 1_555
Ba1 O1 2.539819 1_555
Ba1 O3 2.542203 1_555
Ba1 Mg0 2.986112 1_555
Ba1 O2 3.088582 1_455
Ba1 O0 3.088582 1_545
Ba1 O2 3.089984 1_554
Ba1 O0 3.089984 1_554
Ba1 O5 3.090271 1_455
Ba1 O5 3.090271 1_545
Ho0 O2 2.270569 1_555
Ho0 O0 2.270569 1_555
Ho0 O5 2.271517 1_555
Ho0 O3 2.547916 1_555
Ho0 O1 2.551319 1_555
Ho0 O4 2.551319 1_555
Mg0 O4 1.969422 1_455
Mg0 O1 1.969422 1_545
Mg0 O3 1.971207 1_554
Nb0 O5 1.976601 1_556
Nb0 O2 1.979645 1_565
Nb0 O0 1.979645 1_655
Nb0 O1 2.281241 1_656
Nb0 O4 2.281241 1_566
Nb0 O3 2.285178 1_665
