# generated using pymatgen
data_Na7MgSbO6
_symmetry_space_group_name_H-M   'P 1'
_cell_length_a   6.64938315
_cell_length_b   6.64935304
_cell_length_c   8.20790078
_cell_angle_alpha   66.12181011
_cell_angle_beta   113.89123436
_cell_angle_gamma   119.99740243
_symmetry_Int_Tables_number   1
_chemical_formula_structural   Na7MgSbO6
_chemical_formula_sum   'Na7 Mg1 Sb1 O6'
_cell_volume   277.82599653
_cell_formula_units_Z   1
loop_
 _symmetry_equiv_pos_site_id
 _symmetry_equiv_pos_as_xyz
  1  'x, y, z'
loop_
 _atom_site_type_symbol
 _atom_site_label
 _atom_site_symmetry_multiplicity
 _atom_site_fract_x
 _atom_site_fract_y
 _atom_site_fract_z
 _atom_site_occupancy
  Na  Na0  1  0.88957670  0.70952000  0.65474594  1
  Na  Na1  1  0.54930814  0.93082675  0.38907170  1
  Na  Na2  1  0.77060308  0.45057080  0.38925782  1
  Na  Na3  1  0.39528323  0.60438636  0.18594278  1
  Na  Na4  1  0.47460887  0.11055376  0.65467567  1
  Na  Na5  1  0.29067897  0.52549363  0.65463816  1
  Na  Na6  1  0.06908957  0.22931642  0.38913838  1
  Mg  Mg0  1  0.08879991  0.91101511  0.26656418  1
  Sb  Sb0  1  0.95148974  0.04878548  0.85428030  1
  O  O0  1  0.80077002  0.84015524  0.32899520  1
  O  O1  1  0.65037162  0.83629044  0.71944380  1
  O  O2  1  0.90536143  0.34981075  0.71957315  1
  O  O3  1  0.15966775  0.63141048  0.32895157  1
  O  O4  1  0.36842813  0.19905263  0.32899705  1
  O  O5  1  0.16387983  0.09489217  0.71947328  1
loop_
_geom_bond_atom_site_label_1
_geom_bond_atom_site_label_2
_geom_bond_distance
_geom_bond_site_symmetry_2
Na0 O2 2.278256 1_555
Na0 O0 2.367659 1_555
Na0 O5 2.412284 1_665
Na0 O1 2.430979 1_555
Na1 O0 2.306297 1_555
Na1 O3 2.349863 1_555
Na1 O1 2.401294 1_555
Na1 O4 2.413150 1_565
Na2 O4 2.306363 1_555
Na2 O0 2.349242 1_555
Na2 O2 2.400892 1_555
Na2 O3 2.414231 1_655
Na3 O4 2.408578 1_555
Na3 O0 2.409439 1_555
Na3 O3 2.409667 1_555
Na4 O5 2.278778 1_555
Na4 O4 2.367198 1_555
Na4 O1 2.411915 1_545
Na4 O2 2.431554 1_555
Na5 O1 2.278431 1_555
Na5 O3 2.367258 1_555
Na5 O2 2.412976 1_455
Na5 O5 2.430656 1_555
Na6 O3 2.305815 1_555
Na6 O4 2.350046 1_555
Na6 O5 2.400980 1_555
Na6 O0 2.413971 1_445
Mg0 O0 1.962093 1_455
Mg0 O4 1.962130 1_565
Mg0 O3 1.962315 1_555
O1 Sb0 1.967865 1_565
O2 Sb0 1.967372 1_555
O5 Sb0 1.967476 1_455
