# generated using pymatgen
data_MgFe6(O5F)2
_symmetry_space_group_name_H-M   'P 1'
_cell_length_a   5.12239114
_cell_length_b   7.58946885
_cell_length_c   5.69674051
_cell_angle_alpha   98.56420205
_cell_angle_beta   94.66199504
_cell_angle_gamma   87.37460179
_symmetry_Int_Tables_number   1
_chemical_formula_structural   MgFe6(O5F)2
_chemical_formula_sum   'Mg1 Fe6 O10 F2'
_cell_volume   218.14612679
_cell_formula_units_Z   1
loop_
 _symmetry_equiv_pos_site_id
 _symmetry_equiv_pos_as_xyz
  1  'x, y, z'
loop_
 _atom_site_type_symbol
 _atom_site_label
 _atom_site_symmetry_multiplicity
 _atom_site_fract_x
 _atom_site_fract_y
 _atom_site_fract_z
 _atom_site_occupancy
  Mg  Mg0  1  0.00053400  0.16697500  0.67039600  1
  Fe  Fe0  1  0.53646500  0.68640800  0.14583600  1
  Fe  Fe1  1  0.46688800  0.97283400  0.55777400  1
  Fe  Fe2  1  0.53013900  0.35836100  0.79637400  1
  Fe  Fe3  1  0.99006000  0.67184700  0.68076900  1
  Fe  Fe4  1  0.96342100  0.35362900  0.30257800  1
  Fe  Fe5  1  0.00846200  0.97596500  0.05630500  1
  O  O0  1  0.84269200  0.42482000  0.63033200  1
  O  O1  1  0.81096000  0.76692000  0.96593400  1
  O  O2  1  0.86833300  0.11450000  0.32261900  1
  O  O3  1  0.67999500  0.11705000  0.81526900  1
  O  O4  1  0.68684300  0.75916800  0.46781100  1
  O  O5  1  0.67330500  0.44348300  0.11497000  1
  O  O6  1  0.32457700  0.57608900  0.85877000  1
  O  O7  1  0.32565600  0.23563900  0.54230300  1
  O  O8  1  0.32455000  0.89575100  0.22292100  1
  O  O9  1  0.15789900  0.91772100  0.72573800  1
  F  F0  1  0.15671300  0.24060600  0.01544500  1
  F  F1  1  0.16639800  0.57223300  0.36976500  1
loop_
_geom_bond_atom_site_label_1
_geom_bond_atom_site_label_2
_geom_bond_distance
_geom_bond_site_symmetry_2
Mg0 O3 1.972568 1_455
Mg0 O7 1.991966 1_555
Mg0 O2 2.028285 1_455
Mg0 O9 2.079504 1_545
Mg0 O0 2.119757 1_455
Fe0 O8 1.899251 1_555
Fe0 O5 1.930405 1_555
Fe0 O4 1.941710 1_555
Fe0 O1 1.974894 1_554
Fe0 O6 1.985021 1_554
Fe1 O4 1.959765 1_555
Fe1 O3 1.977961 1_565
Fe1 O8 1.998322 1_555
Fe1 O9 2.005414 1_555
Fe1 O7 2.102183 1_565
Fe2 O7 1.871085 1_555
Fe2 O6 1.921497 1_555
Fe2 O5 1.930560 1_556
Fe2 O3 1.967594 1_555
Fe2 O0 2.043194 1_555
Fe3 O1 1.958020 1_555
Fe3 O0 2.025152 1_555
Fe3 O4 2.040158 1_555
Fe3 O9 2.062940 1_655
Fe3 O6 2.077389 1_655
Fe4 O5 1.918799 1_555
Fe4 O2 1.922430 1_555
Fe4 O0 2.004288 1_555
Fe4 O7 2.431029 1_655
Fe5 O2 1.885509 1_465
Fe5 O1 1.903882 1_454
Fe5 O8 1.930048 1_555
Fe5 O9 2.069546 1_554
Fe5 O3 2.400045 1_464
F0 Fe4 2.039432 1_455
F0 Mg0 2.067431 1_554
F0 Fe5 2.229929 1_545
F0 Fe2 2.625253 1_554
F1 Fe4 1.970867 1_455
F1 Fe3 2.079679 1_455
