# generated using pymatgen
data_MgMo2(WS4)2
_symmetry_space_group_name_H-M   'P 1'
_cell_length_a   6.37583400
_cell_length_b   6.37580069
_cell_length_c   72.28412018
_cell_angle_alpha   90.00691806
_cell_angle_beta   90.00009672
_cell_angle_gamma   120.00023992
_symmetry_Int_Tables_number   1
_chemical_formula_structural   MgMo2(WS4)2
_chemical_formula_sum   'Mg8 Mo16 W16 S64'
_cell_volume   2544.74465072
_cell_formula_units_Z   8
loop_
 _symmetry_equiv_pos_site_id
 _symmetry_equiv_pos_as_xyz
  1  'x, y, z'
loop_
 _atom_site_type_symbol
 _atom_site_label
 _atom_site_symmetry_multiplicity
 _atom_site_fract_x
 _atom_site_fract_y
 _atom_site_fract_z
 _atom_site_occupancy
  Mg  Mg0_0  1  0.19002500  0.34779950  0.43824400  1
  Mg  Mg0_1  1  0.19002500  0.34779950  0.93824400  1
  Mg  Mg0_2  1  0.19002500  0.84779950  0.43824400  1
  Mg  Mg0_3  1  0.19002500  0.84779950  0.93824400  1
  Mg  Mg0_4  1  0.69002500  0.34779950  0.43824400  1
  Mg  Mg0_5  1  0.69002500  0.34779950  0.93824400  1
  Mg  Mg0_6  1  0.69002500  0.84779950  0.43824400  1
  Mg  Mg0_7  1  0.69002500  0.84779950  0.93824400  1
  Mo  Mo0_0  1  0.16661850  0.33322500  0.04689200  1
  Mo  Mo0_1  1  0.16661850  0.33322500  0.54689200  1
  Mo  Mo0_2  1  0.16661850  0.83322500  0.04689200  1
  Mo  Mo0_3  1  0.16661850  0.83322500  0.54689200  1
  Mo  Mo0_4  1  0.66661850  0.33322500  0.04689200  1
  Mo  Mo0_5  1  0.66661850  0.33322500  0.54689200  1
  Mo  Mo0_6  1  0.66661850  0.83322500  0.04689200  1
  Mo  Mo0_7  1  0.66661850  0.83322500  0.54689200  1
  Mo  Mo1_0  1  0.16661000  0.33323750  0.23483900  1
  Mo  Mo1_1  1  0.16661000  0.33323750  0.73483900  1
  Mo  Mo1_2  1  0.16661000  0.83323750  0.23483900  1
  Mo  Mo1_3  1  0.16661000  0.83323750  0.73483900  1
  Mo  Mo1_4  1  0.66661000  0.33323750  0.23483900  1
  Mo  Mo1_5  1  0.66661000  0.33323750  0.73483900  1
  Mo  Mo1_6  1  0.66661000  0.83323750  0.23483900  1
  Mo  Mo1_7  1  0.66661000  0.83323750  0.73483900  1
  W  W0_0  1  0.33330650  0.16661500  0.14096650  1
  W  W0_1  1  0.33330650  0.16661500  0.64096650  1
  W  W0_2  1  0.33330650  0.66661500  0.14096650  1
  W  W0_3  1  0.33330650  0.66661500  0.64096650  1
  W  W0_4  1  0.83330650  0.16661500  0.14096650  1
  W  W0_5  1  0.83330650  0.16661500  0.64096650  1
  W  W0_6  1  0.83330650  0.66661500  0.14096650  1
  W  W0_7  1  0.83330650  0.66661500  0.64096650  1
  W  W1_0  1  0.33330050  0.16661550  0.32885350  1
  W  W1_1  1  0.33330050  0.16661550  0.82885350  1
  W  W1_2  1  0.33330050  0.66661550  0.32885350  1
  W  W1_3  1  0.33330050  0.66661550  0.82885350  1
  W  W1_4  1  0.83330050  0.16661550  0.32885350  1
  W  W1_5  1  0.83330050  0.16661550  0.82885350  1
  W  W1_6  1  0.83330050  0.66661550  0.32885350  1
  W  W1_7  1  0.83330050  0.66661550  0.82885350  1
  S  S0_0  1  0.16666100  0.33332100  0.16271250  1
  S  S0_1  1  0.16666100  0.33332100  0.66271250  1
  S  S0_2  1  0.16666100  0.83332100  0.16271250  1
  S  S0_3  1  0.16666100  0.83332100  0.66271250  1
  S  S0_4  1  0.66666100  0.33332100  0.16271250  1
  S  S0_5  1  0.66666100  0.33332100  0.66271250  1
  S  S0_6  1  0.66666100  0.83332100  0.16271250  1
  S  S0_7  1  0.66666100  0.83332100  0.66271250  1
  S  S1_0  1  0.16665300  0.33331800  0.35061100  1
  S  S1_1  1  0.16665300  0.33331800  0.85061100  1
  S  S1_2  1  0.16665300  0.83331800  0.35061100  1
  S  S1_3  1  0.16665300  0.83331800  0.85061100  1
  S  S1_4  1  0.66665300  0.33331800  0.35061100  1
  S  S1_5  1  0.66665300  0.33331800  0.85061100  1
  S  S1_6  1  0.66665300  0.83331800  0.35061100  1
  S  S1_7  1  0.66665300  0.83331800  0.85061100  1
  S  S2_0  1  0.33326700  0.16652050  0.02525300  1
  S  S2_1  1  0.33326700  0.16652050  0.52525300  1
  S  S2_2  1  0.33326700  0.66652050  0.02525300  1
  S  S2_3  1  0.33326700  0.66652050  0.52525300  1
  S  S2_4  1  0.83326700  0.16652050  0.02525300  1
  S  S2_5  1  0.83326700  0.16652050  0.52525300  1
  S  S2_6  1  0.83326700  0.66652050  0.02525300  1
  S  S2_7  1  0.83326700  0.66652050  0.52525300  1
  S  S3_0  1  0.33325600  0.16653200  0.21320850  1
  S  S3_1  1  0.33325600  0.16653200  0.71320850  1
  S  S3_2  1  0.33325600  0.66653200  0.21320850  1
  S  S3_3  1  0.33325600  0.66653200  0.71320850  1
  S  S3_4  1  0.83325600  0.16653200  0.21320850  1
  S  S3_5  1  0.83325600  0.16653200  0.71320850  1
  S  S3_6  1  0.83325600  0.66653200  0.21320850  1
  S  S3_7  1  0.83325600  0.66653200  0.71320850  1
  S  S4_0  1  0.33330500  0.16659750  0.06854100  1
  S  S4_1  1  0.33330500  0.16659750  0.56854100  1
  S  S4_2  1  0.33330500  0.66659750  0.06854100  1
  S  S4_3  1  0.33330500  0.66659750  0.56854100  1
  S  S4_4  1  0.83330500  0.16659750  0.06854100  1
  S  S4_5  1  0.83330500  0.16659750  0.56854100  1
  S  S4_6  1  0.83330500  0.66659750  0.06854100  1
  S  S4_7  1  0.83330500  0.66659750  0.56854100  1
  S  S5_0  1  0.33329200  0.16660250  0.25646250  1
  S  S5_1  1  0.33329200  0.16660250  0.75646250  1
  S  S5_2  1  0.33329200  0.66660250  0.25646250  1
  S  S5_3  1  0.33329200  0.66660250  0.75646250  1
  S  S5_4  1  0.83329200  0.16660250  0.25646250  1
  S  S5_5  1  0.83329200  0.16660250  0.75646250  1
  S  S5_6  1  0.83329200  0.66660250  0.25646250  1
  S  S5_7  1  0.83329200  0.66660250  0.75646250  1
  S  S6_0  1  0.16662050  0.33324400  0.11920600  1
  S  S6_1  1  0.16662050  0.33324400  0.61920600  1
  S  S6_2  1  0.16662050  0.83324400  0.11920600  1
  S  S6_3  1  0.16662050  0.83324400  0.61920600  1
  S  S6_4  1  0.66662050  0.33324400  0.11920600  1
  S  S6_5  1  0.66662050  0.33324400  0.61920600  1
  S  S6_6  1  0.66662050  0.83324400  0.11920600  1
  S  S6_7  1  0.66662050  0.83324400  0.61920600  1
  S  S7_0  1  0.16661700  0.33324900  0.30710350  1
  S  S7_1  1  0.16661700  0.33324900  0.80710350  1
  S  S7_2  1  0.16661700  0.83324900  0.30710350  1
  S  S7_3  1  0.16661700  0.83324900  0.80710350  1
  S  S7_4  1  0.66661700  0.33324900  0.30710350  1
  S  S7_5  1  0.66661700  0.33324900  0.80710350  1
  S  S7_6  1  0.66661700  0.83324900  0.30710350  1
  S  S7_7  1  0.66661700  0.83324900  0.80710350  1
loop_
_geom_bond_atom_site_label_1
_geom_bond_atom_site_label_2
_geom_bond_distance
_geom_bond_site_symmetry_2
Mg0_0 Mg0_6 3.187897 1_445
Mg0_0 Mg0_6 3.187897 1_555
Mg0_0 Mg0_2 3.187900 1_545
Mg0_0 Mg0_2 3.187900 1_555
Mg0_0 Mg0_4 3.187917 1_555
Mg0_0 Mg0_4 3.187917 1_455
Mg0_1 Mg0_7 3.187897 1_445
Mg0_1 Mg0_7 3.187897 1_555
Mg0_1 Mg0_3 3.187900 1_545
Mg0_1 Mg0_3 3.187900 1_555
Mg0_1 Mg0_5 3.187917 1_555
Mg0_1 Mg0_5 3.187917 1_455
Mg0_2 Mg0_4 3.187897 1_565
Mg0_2 Mg0_4 3.187897 1_455
Mg0_2 Mg0_6 3.187917 1_555
Mg0_2 Mg0_6 3.187917 1_455
Mg0_3 Mg0_5 3.187897 1_565
Mg0_3 Mg0_5 3.187897 1_455
Mg0_3 Mg0_7 3.187917 1_455
Mg0_3 Mg0_7 3.187917 1_555
Mg0_4 Mg0_6 3.187900 1_545
Mg0_4 Mg0_6 3.187900 1_555
Mg0_5 Mg0_7 3.187900 1_545
Mg0_5 Mg0_7 3.187900 1_555
Mo0_0 S2_4 2.415394 1_455
Mo0_0 S2_2 2.415404 1_555
Mo0_0 S2_0 2.415405 1_555
Mo0_0 S4_2 2.415861 1_555
Mo0_0 S4_4 2.415873 1_455
Mo0_0 S4_0 2.415873 1_555
Mo0_1 S2_5 2.415394 1_455
Mo0_1 S2_3 2.415404 1_555
Mo0_1 S2_1 2.415405 1_555
Mo0_1 S4_3 2.415861 1_555
Mo0_1 S4_5 2.415873 1_455
Mo0_1 S4_1 2.415873 1_555
Mo0_2 S2_6 2.415394 1_455
Mo0_2 S2_0 2.415404 1_565
Mo0_2 S2_2 2.415405 1_555
Mo0_2 S4_0 2.415861 1_565
Mo0_2 S4_6 2.415873 1_455
Mo0_2 S4_2 2.415873 1_555
Mo0_3 S2_7 2.415394 1_455
Mo0_3 S2_1 2.415404 1_565
Mo0_3 S2_3 2.415405 1_555
Mo0_3 S4_1 2.415861 1_565
Mo0_3 S4_7 2.415873 1_455
Mo0_3 S4_3 2.415873 1_555
Mo0_4 S2_0 2.415394 1_555
Mo0_4 S2_6 2.415404 1_555
Mo0_4 S2_4 2.415405 1_555
Mo0_4 S4_6 2.415861 1_555
Mo0_4 S4_0 2.415873 1_555
Mo0_4 S4_4 2.415873 1_555
Mo0_5 S2_1 2.415394 1_555
Mo0_5 S2_7 2.415404 1_555
Mo0_5 S2_5 2.415405 1_555
Mo0_5 S4_7 2.415861 1_555
Mo0_5 S4_1 2.415873 1_555
Mo0_5 S4_5 2.415873 1_555
Mo0_6 S2_2 2.415394 1_555
Mo0_6 S2_4 2.415404 1_565
Mo0_6 S2_6 2.415405 1_555
Mo0_6 S4_4 2.415861 1_565
Mo0_6 S4_2 2.415873 1_555
Mo0_6 S4_6 2.415873 1_555
Mo0_7 S2_3 2.415394 1_555
Mo0_7 S2_5 2.415404 1_565
Mo0_7 S2_7 2.415405 1_555
Mo0_7 S4_5 2.415861 1_565
Mo0_7 S4_3 2.415873 1_555
Mo0_7 S4_7 2.415873 1_555
Mo1_0 S5_2 2.414637 1_555
Mo1_0 S5_0 2.414692 1_555
Mo1_0 S5_4 2.414699 1_455
Mo1_0 S3_0 2.415001 1_555
Mo1_0 S3_2 2.415002 1_555
Mo1_0 S3_4 2.415007 1_455
Mo1_1 S5_3 2.414637 1_555
Mo1_1 S5_1 2.414692 1_555
Mo1_1 S5_5 2.414699 1_455
Mo1_1 S3_1 2.415001 1_555
Mo1_1 S3_3 2.415002 1_555
Mo1_1 S3_5 2.415007 1_455
Mo1_2 S5_0 2.414637 1_565
Mo1_2 S5_2 2.414692 1_555
Mo1_2 S5_6 2.414699 1_455
Mo1_2 S3_2 2.415001 1_555
Mo1_2 S3_0 2.415002 1_565
Mo1_2 S3_6 2.415007 1_455
Mo1_3 S5_1 2.414637 1_565
Mo1_3 S5_3 2.414692 1_555
Mo1_3 S5_7 2.414699 1_455
Mo1_3 S3_3 2.415001 1_555
Mo1_3 S3_1 2.415002 1_565
Mo1_3 S3_7 2.415007 1_455
Mo1_4 S5_6 2.414637 1_555
Mo1_4 S5_4 2.414692 1_555
Mo1_4 S5_0 2.414699 1_555
Mo1_4 S3_4 2.415001 1_555
Mo1_4 S3_6 2.415002 1_555
Mo1_4 S3_0 2.415007 1_555
Mo1_5 S5_7 2.414637 1_555
Mo1_5 S5_5 2.414692 1_555
Mo1_5 S5_1 2.414699 1_555
Mo1_5 S3_5 2.415001 1_555
Mo1_5 S3_7 2.415002 1_555
Mo1_5 S3_1 2.415007 1_555
Mo1_6 S5_4 2.414637 1_565
Mo1_6 S5_6 2.414692 1_555
Mo1_6 S5_2 2.414699 1_555
Mo1_6 S3_6 2.415001 1_555
Mo1_6 S3_4 2.415002 1_565
Mo1_6 S3_2 2.415007 1_555
Mo1_7 S5_5 2.414637 1_565
Mo1_7 S5_7 2.414692 1_555
Mo1_7 S5_3 2.414699 1_555
Mo1_7 S3_7 2.415001 1_555
Mo1_7 S3_5 2.415002 1_565
Mo1_7 S3_3 2.415007 1_555
S0_0 W0_2 2.420414 1_555
S0_0 W0_0 2.420415 1_555
S0_0 W0_4 2.420422 1_455
S0_1 W0_3 2.420414 1_555
S0_1 W0_1 2.420415 1_555
S0_1 W0_5 2.420422 1_455
S0_2 W0_0 2.420414 1_565
S0_2 W0_2 2.420415 1_555
S0_2 W0_6 2.420422 1_455
S0_3 W0_1 2.420414 1_565
S0_3 W0_3 2.420415 1_555
S0_3 W0_7 2.420422 1_455
S0_4 W0_6 2.420414 1_555
S0_4 W0_4 2.420415 1_555
S0_4 W0_0 2.420422 1_555
S0_5 W0_7 2.420414 1_555
S0_5 W0_5 2.420415 1_555
S0_5 W0_1 2.420422 1_555
S0_6 W0_4 2.420414 1_565
S0_6 W0_6 2.420415 1_555
S0_6 W0_2 2.420422 1_555
S0_7 W0_5 2.420414 1_565
S0_7 W0_7 2.420415 1_555
S0_7 W0_3 2.420422 1_555
S1_0 W1_0 2.420948 1_555
S1_0 W1_4 2.420954 1_455
S1_0 W1_2 2.420969 1_555
S1_1 W1_1 2.420948 1_555
S1_1 W1_5 2.420954 1_455
S1_1 W1_3 2.420969 1_555
S1_2 W1_2 2.420948 1_555
S1_2 W1_6 2.420954 1_455
S1_2 W1_0 2.420969 1_565
S1_3 W1_3 2.420948 1_555
S1_3 W1_7 2.420954 1_455
S1_3 W1_1 2.420969 1_565
S1_4 W1_4 2.420948 1_555
S1_4 W1_0 2.420954 1_555
S1_4 W1_6 2.420969 1_555
S1_5 W1_5 2.420948 1_555
S1_5 W1_1 2.420954 1_555
S1_5 W1_7 2.420969 1_555
S1_6 W1_6 2.420948 1_555
S1_6 W1_2 2.420954 1_555
S1_6 W1_4 2.420969 1_565
S1_7 W1_7 2.420948 1_555
S1_7 W1_3 2.420954 1_555
S1_7 W1_5 2.420969 1_565
S6_0 W0_2 2.421083 1_555
S6_0 W0_4 2.421104 1_455
S6_0 W0_0 2.421106 1_555
S6_1 W0_3 2.421083 1_555
S6_1 W0_5 2.421104 1_455
S6_1 W0_1 2.421106 1_555
S6_2 W0_0 2.421083 1_565
S6_2 W0_6 2.421104 1_455
S6_2 W0_2 2.421106 1_555
S6_3 W0_1 2.421083 1_565
S6_3 W0_7 2.421104 1_455
S6_3 W0_3 2.421106 1_555
S6_4 W0_6 2.421083 1_555
S6_4 W0_0 2.421104 1_555
S6_4 W0_4 2.421106 1_555
S6_5 W0_7 2.421083 1_555
S6_5 W0_1 2.421104 1_555
S6_5 W0_5 2.421106 1_555
S6_6 W0_4 2.421083 1_565
S6_6 W0_2 2.421104 1_555
S6_6 W0_6 2.421106 1_555
S6_7 W0_5 2.421083 1_565
S6_7 W0_3 2.421104 1_555
S6_7 W0_7 2.421106 1_555
S7_0 W1_2 2.420571 1_555
S7_0 W1_4 2.420622 1_455
S7_0 W1_0 2.420622 1_555
S7_1 W1_3 2.420571 1_555
S7_1 W1_5 2.420622 1_455
S7_1 W1_1 2.420622 1_555
S7_2 W1_0 2.420571 1_565
S7_2 W1_6 2.420622 1_455
S7_2 W1_2 2.420622 1_555
S7_3 W1_1 2.420571 1_565
S7_3 W1_7 2.420622 1_455
S7_3 W1_3 2.420622 1_555
S7_4 W1_6 2.420571 1_555
S7_4 W1_0 2.420622 1_555
S7_4 W1_4 2.420622 1_555
S7_5 W1_7 2.420571 1_555
S7_5 W1_1 2.420622 1_555
S7_5 W1_5 2.420622 1_555
S7_6 W1_4 2.420571 1_565
S7_6 W1_2 2.420622 1_555
S7_6 W1_6 2.420622 1_555
S7_7 W1_5 2.420571 1_565
S7_7 W1_3 2.420622 1_555
S7_7 W1_7 2.420622 1_555
