# generated using pymatgen
data_MgNb4(CoO6)2
_symmetry_space_group_name_H-M   'P 1'
_cell_length_a   9.13215821
_cell_length_b   5.77570078
_cell_length_c   5.91134860
_cell_angle_alpha   76.10108342
_cell_angle_beta   59.40128150
_cell_angle_gamma   58.41384296
_symmetry_Int_Tables_number   1
_chemical_formula_structural   MgNb4(CoO6)2
_chemical_formula_sum   'Mg1 Nb4 Co2 O12'
_cell_volume   228.46861211
_cell_formula_units_Z   1
loop_
 _symmetry_equiv_pos_site_id
 _symmetry_equiv_pos_as_xyz
  1  'x, y, z'
loop_
 _atom_site_type_symbol
 _atom_site_label
 _atom_site_symmetry_multiplicity
 _atom_site_fract_x
 _atom_site_fract_y
 _atom_site_fract_z
 _atom_site_occupancy
  Mg  Mg0  1  0.99029900  0.98122200  0.50615400  1
  Nb  Nb0  1  0.03852300  0.99434000  0.95691100  1
  Nb  Nb1  1  0.34771700  0.00963100  0.01422100  1
  Nb  Nb2  1  0.62490600  0.03443900  0.04121400  1
  Nb  Nb3  1  0.81538400  0.57038900  0.47103600  1
  Co  Co0  1  0.18361300  0.45087400  0.50817300  1
  Co  Co1  1  0.50705600  0.49469000  0.49851600  1
  O  O0  1  0.46915100  0.28173700  0.32085100  1
  O  O1  1  0.17828700  0.77860600  0.16834400  1
  O  O2  1  0.16522600  0.20892600  0.81457400  1
  O  O3  1  0.82647300  0.27346100  0.33082300  1
  O  O4  1  0.87733000  0.71514300  0.66097600  1
  O  O5  1  0.51979600  0.76850800  0.19049100  1
  O  O6  1  0.49639500  0.21937700  0.80502200  1
  O  O7  1  0.12221300  0.25600400  0.32768200  1
  O  O8  1  0.18628900  0.73880200  0.67164900  1
  O  O9  1  0.82848100  0.19618100  0.83919700  1
  O  O10  1  0.84489000  0.79718100  0.18133000  1
  O  O11  1  0.54225500  0.72007200  0.69284000  1
loop_
_geom_bond_atom_site_label_1
_geom_bond_atom_site_label_2
_geom_bond_distance
_geom_bond_site_symmetry_2
Mg0 O1 1.957657 1_655
Mg0 O9 1.972717 1_565
Mg0 O3 2.062586 1_565
Mg0 O4 2.070643 1_555
Mg0 O8 2.149471 1_655
Mg0 O7 2.233281 1_665
Nb0 O2 1.895517 1_565
Nb0 O8 1.906714 1_555
Nb0 O1 1.988372 1_556
Nb0 O9 2.036939 1_465
Nb0 O10 2.275723 1_456
Nb0 O3 2.306188 1_466
Nb1 O7 2.002868 1_555
Nb1 O6 2.033302 1_554
Nb1 O5 2.042538 1_545
Nb1 O11 2.130797 1_544
Nb1 O2 2.198926 1_554
Nb1 O1 2.268948 1_545
Nb2 O0 1.846123 1_555
Nb2 O5 2.022411 1_545
Nb2 O6 2.026358 1_554
Nb2 O9 2.185897 1_554
Nb2 O10 2.205562 1_545
Nb2 O4 2.455653 1_544
Nb3 O10 1.882418 1_555
Nb3 O11 1.908965 1_555
Nb3 O4 1.967931 1_555
Nb3 O3 2.013422 1_555
Nb3 O7 2.204213 1_655
Nb3 O9 2.675149 1_555
Co0 O0 1.972721 1_555
Co0 O2 1.995442 1_555
Co0 O8 2.130411 1_555
Co0 O7 2.136964 1_555
Co0 O4 2.141728 1_455
Co0 O1 2.407709 1_555
Co1 O0 2.042620 1_555
Co1 O6 2.102210 1_555
Co1 O5 2.103274 1_555
Co1 O11 2.156393 1_555
Co1 O3 2.210056 1_555
Co1 O8 2.220529 1_555
