# generated using pymatgen
data_MgCo6O7F5
_symmetry_space_group_name_H-M   'P 1'
_cell_length_a   4.97132123
_cell_length_b   5.04641082
_cell_length_c   8.76490664
_cell_angle_alpha   89.62510125
_cell_angle_beta   90.10516664
_cell_angle_gamma   102.20438507
_symmetry_Int_Tables_number   1
_chemical_formula_structural   MgCo6O7F5
_chemical_formula_sum   'Mg1 Co6 O7 F5'
_cell_volume   214.91394183
_cell_formula_units_Z   1
loop_
 _symmetry_equiv_pos_site_id
 _symmetry_equiv_pos_as_xyz
  1  'x, y, z'
loop_
 _atom_site_type_symbol
 _atom_site_label
 _atom_site_symmetry_multiplicity
 _atom_site_fract_x
 _atom_site_fract_y
 _atom_site_fract_z
 _atom_site_occupancy
  Mg  Mg0  1  0.53588022  0.04956700  0.66613848  1
  Co  Co0  1  0.01452398  0.97093573  0.99773758  1
  Co  Co1  1  0.00629634  0.96682396  0.33528787  1
  Co  Co2  1  0.04153376  0.00400706  0.67053568  1
  Co  Co3  1  0.52221820  0.46782658  0.16843538  1
  Co  Co4  1  0.41718648  0.54116963  0.85367615  1
  Co  Co5  1  0.38992910  0.54808003  0.47891950  1
  O  O0  1  0.22368302  0.84885119  0.82167019  1
  O  O1  1  0.22463313  0.86767749  0.51495929  1
  O  O2  1  0.28536912  0.29552006  0.31507783  1
  O  O3  1  0.29937789  0.28968410  0.00532358  1
  O  O4  1  0.31012262  0.32745633  0.67490499  1
  O  O5  1  0.69393683  0.67813635  0.99822498  1
  O  O6  1  0.70706653  0.67883198  0.33142365  1
  F  F0  1  0.18605514  0.80490255  0.16431760  1
  F  F1  1  0.70221175  0.71963014  0.66959322  1
  F  F2  1  0.81420182  0.14720745  0.15977795  1
  F  F3  1  0.83088704  0.15735032  0.82167928  1
  F  F4  1  0.83655503  0.16411804  0.51660380  1
loop_
_geom_bond_atom_site_label_1
_geom_bond_atom_site_label_2
_geom_bond_distance
_geom_bond_site_symmetry_2
Mg0 O4 1.974644 1_555
Mg0 O1 2.097715 1_545
Mg0 O0 2.148993 1_545
Co0 O3 1.906601 1_566
Co0 O5 1.930696 1_455
Co0 F0 1.960220 1_556
Co0 O0 2.032593 1_555
Co0 F2 2.048526 1_466
Co0 F3 2.106794 1_465
Co1 O6 1.847312 1_455
Co1 O2 1.931744 1_565
Co1 F0 2.010365 1_555
Co1 O1 2.030149 1_555
Co1 F2 2.109705 1_465
Co1 F4 2.147042 1_465
Co2 O1 1.855505 1_545
Co2 O0 1.862685 1_545
Co2 O4 1.878233 1_555
Co2 F3 1.952317 1_455
Co2 F4 1.959686 1_455
Co2 F1 1.970197 1_445
Co3 O2 1.830996 1_555
Co3 O6 1.902761 1_555
Co3 O3 1.915535 1_555
Co3 O5 1.918782 1_554
Co3 F2 2.392816 1_555
Co3 F0 2.624591 1_555
Co4 O3 1.840341 1_556
Co4 O5 1.891769 1_555
Co4 O4 1.917809 1_555
Co4 O0 2.009909 1_555
Co4 F1 2.207247 1_555
Co5 O2 1.923009 1_555
Co5 O1 1.985999 1_555
Co5 O4 2.034332 1_555
Co5 O6 2.036861 1_555
Co5 F1 2.322454 1_555
F1 Mg0 2.009532 1_565
F3 Mg0 1.992579 1_555
F4 Mg0 1.979449 1_555
