# generated using pymatgen
data_Sr6Li23
_symmetry_space_group_name_H-M   'P 1'
_cell_length_a   10.49750215
_cell_length_b   10.49750215
_cell_length_c   10.49750650
_cell_angle_alpha   59.99998175
_cell_angle_beta   59.99998175
_cell_angle_gamma   59.99996350
_symmetry_Int_Tables_number   1
_chemical_formula_structural   Sr6Li23
_chemical_formula_sum   'Sr6 Li23'
_cell_volume   817.98032778
_cell_formula_units_Z   1
loop_
 _symmetry_equiv_pos_site_id
 _symmetry_equiv_pos_as_xyz
  1  'x, y, z'
loop_
 _atom_site_type_symbol
 _atom_site_label
 _atom_site_symmetry_multiplicity
 _atom_site_fract_x
 _atom_site_fract_y
 _atom_site_fract_z
 _atom_site_occupancy
  Sr  Sr0  1  0.20601735  0.20601735  0.79398265  1
  Sr  Sr1  1  0.20601735  0.79398265  0.79398265  1
  Sr  Sr2  1  0.79398265  0.20601735  0.20601735  1
  Sr  Sr3  1  0.20601735  0.79398265  0.20601735  1
  Sr  Sr4  1  0.79398265  0.20601735  0.79398265  1
  Sr  Sr5  1  0.79398265  0.79398265  0.20601735  1
  Li  Li0  1  0.50000000  0.50000000  0.50000000  1
  Li  Li1  1  0.50000000  0.50000000  0.00000000  1
  Li  Li2  1  0.00000000  0.50000000  0.50000000  1
  Li  Li3  1  0.50000000  -0.00000000  0.00000000  1
  Li  Li4  1  0.00000000  -0.00000000  0.50000000  1
  Li  Li5  1  0.00000000  0.50000000  0.00000000  1
  Li  Li6  1  0.50000000  -0.00000000  0.50000000  1
  Li  Li7  1  0.62169258  0.13492126  0.62169258  1
  Li  Li8  1  0.37830742  0.37830742  0.86507874  1
  Li  Li9  1  0.86507874  0.37830742  0.37830742  1
  Li  Li10  1  0.37830742  0.37830742  0.37830742  1
  Li  Li11  1  0.13492126  0.62169258  0.62169258  1
  Li  Li12  1  0.62169258  0.62169258  0.62169258  1
  Li  Li13  1  0.62169258  0.62169258  0.13492126  1
  Li  Li14  1  0.37830742  0.86507874  0.37830742  1
  Li  Li15  1  0.82224083  0.53327750  0.82224083  1
  Li  Li16  1  0.17775917  0.17775917  0.46672250  1
  Li  Li17  1  0.46672250  0.17775917  0.17775917  1
  Li  Li18  1  0.17775917  0.17775917  0.17775917  1
  Li  Li19  1  0.53327750  0.82224083  0.82224083  1
  Li  Li20  1  0.82224083  0.82224083  0.82224083  1
  Li  Li21  1  0.82224083  0.82224083  0.53327750  1
  Li  Li22  1  0.17775917  0.46672250  0.17775917  1
loop_
_geom_bond_atom_site_label_1
_geom_bond_atom_site_label_2
_geom_bond_distance
_geom_bond_site_symmetry_2
Sr0 Sr2 4.325335 1_456
Sr0 Sr3 4.325335 1_546
Sr0 Sr4 4.325335 1_455
Sr0 Sr1 4.325335 1_545
Sr1 Sr4 4.325333 1_465
Sr1 Sr5 4.325335 1_456
Sr1 Sr3 4.325337 1_556
Sr2 Sr3 4.325333 1_645
Sr2 Sr5 4.325335 1_545
Sr2 Sr4 4.325337 1_554
Sr3 Sr5 4.325335 1_455
Sr4 Sr5 4.325335 1_546
Li0 Li10 3.129146 1_555
Li0 Li12 3.129146 1_555
Li0 Li14 3.129152 1_555
Li0 Li9 3.129152 1_555
Li0 Li7 3.129152 1_555
Li0 Li11 3.129152 1_555
Li0 Li8 3.129154 1_555
Li0 Li13 3.129154 1_555
Li1 Li15 3.043761 1_554
Li1 Li22 3.043761 1_555
Li1 Li19 3.043761 1_554
Li1 Li17 3.043761 1_555
Li1 Li8 3.243523 1_554
Li1 Li13 3.243523 1_555
Li1 Li12 3.243531 1_554
Li1 Li10 3.243531 1_555
Li1 Sr3 3.768426 1_555
Li1 Sr1 3.768426 1_554
Li1 Sr4 3.768426 1_554
Li1 Sr2 3.768426 1_555
Li2 Li21 3.043760 1_455
Li2 Li22 3.043762 1_555
Li2 Li9 3.243522 1_455
Li2 Sr0 3.768427 1_555
Li2 Sr5 3.768427 1_455
Li2 Sr4 3.768427 1_455
Li2 Sr3 3.768427 1_555
Li3 Li8 3.243529 1_554
Li3 Li7 3.243531 1_554
Li3 Sr0 3.768427 1_554
Li3 Sr5 3.768427 1_545
Li3 Sr4 3.768427 1_554
Li3 Sr3 3.768427 1_545
Li4 Li7 3.243529 1_455
Li4 Li9 3.243529 1_455
Li4 Sr1 3.768427 1_545
Li4 Sr3 3.768427 1_545
Li4 Sr2 3.768427 1_455
Li4 Sr4 3.768427 1_455
Li5 Li8 3.243529 1_554
Li5 Li9 3.243531 1_455
Li5 Sr0 3.768427 1_554
Li5 Sr5 3.768427 1_455
Li5 Sr1 3.768427 1_554
Li5 Sr2 3.768427 1_455
Li6 Li7 3.243522 1_555
Li6 Sr0 3.768427 1_555
Li6 Sr5 3.768427 1_545
Li6 Sr2 3.768427 1_555
Li6 Sr1 3.768427 1_545
Li7 Sr0 3.615226 1_555
Li7 Sr2 3.615228 1_555
Li7 Sr4 3.615237 1_555
Li8 Sr4 3.615226 1_555
Li8 Sr1 3.615226 1_555
Li8 Sr0 3.615237 1_555
Li9 Sr5 3.615226 1_555
Li9 Sr4 3.615228 1_555
Li9 Sr2 3.615237 1_555
Li10 Li16 3.201533 1_555
Li10 Li22 3.201533 1_555
Li10 Li17 3.201533 1_555
Li10 Li2 3.243529 1_555
Li10 Li6 3.243529 1_555
Li10 Sr2 3.615227 1_555
Li10 Sr3 3.615227 1_555
Li10 Sr0 3.615229 1_555
Li11 Li21 3.201523 1_455
Li11 Li15 3.201524 1_455
Li11 Li20 3.201528 1_455
Li11 Li2 3.243522 1_555
Li11 Li4 3.243529 1_565
Li11 Li5 3.243531 1_556
Li11 Sr0 3.615226 1_555
Li11 Sr3 3.615228 1_555
Li11 Sr1 3.615237 1_555
Li12 Li21 3.201533 1_555
Li12 Li15 3.201533 1_555
Li12 Li19 3.201533 1_555
Li12 Li6 3.243529 1_565
Li12 Li2 3.243529 1_655
Li12 Sr4 3.615227 1_555
Li12 Sr1 3.615227 1_555
Li12 Sr5 3.615229 1_555
Li13 Li15 3.201524 1_554
Li13 Li19 3.201524 1_554
Li13 Li20 3.201529 1_554
Li13 Li3 3.243529 1_565
Li13 Li5 3.243529 1_655
Li13 Sr2 3.615226 1_555
Li13 Sr3 3.615226 1_555
Li13 Sr5 3.615237 1_555
Li14 Li16 3.201523 1_565
Li14 Li17 3.201524 1_565
Li14 Li18 3.201528 1_565
Li14 Li6 3.243522 1_565
Li14 Li4 3.243529 1_565
Li14 Li3 3.243531 1_565
Li14 Sr5 3.615226 1_555
Li14 Sr1 3.615228 1_555
Li14 Sr3 3.615237 1_555
Li15 Li19 3.033392 1_555
Li15 Li21 3.033393 1_555
Li15 Li20 3.033393 1_555
Li15 Li2 3.043762 1_655
Li15 Li5 3.043762 1_656
Li15 Sr0 3.755557 1_655
Li15 Sr2 3.755559 1_556
Li15 Sr4 3.755559 1_555
Li16 Li22 3.033393 1_555
Li16 Li17 3.033393 1_555
Li16 Li18 3.033394 1_555
Li16 Li2 3.043760 1_555
Li16 Li6 3.043760 1_555
Li16 Li4 3.043762 1_555
Li16 Li9 3.201523 1_455
Li16 Sr4 3.755558 1_455
Li16 Sr1 3.755558 1_545
Li16 Sr0 3.755560 1_555
Li17 Li22 3.033392 1_555
Li17 Li18 3.033393 1_555
Li17 Li6 3.043762 1_555
Li17 Li3 3.043762 1_555
Li17 Li8 3.201524 1_554
Li17 Sr5 3.755557 1_545
Li17 Sr4 3.755559 1_554
Li17 Sr2 3.755559 1_555
Li18 Li22 3.033393 1_555
Li18 Li3 3.043760 1_555
Li18 Li5 3.043760 1_555
Li18 Li4 3.043762 1_555
Li18 Li9 3.201528 1_455
Li18 Li8 3.201529 1_554
Li18 Sr2 3.755559 1_455
Li18 Sr3 3.755559 1_545
Li18 Sr0 3.755560 1_554
Li19 Li21 3.033393 1_555
Li19 Li20 3.033393 1_555
Li19 Li6 3.043762 1_565
Li19 Li3 3.043762 1_566
Li19 Li7 3.201524 1_565
Li19 Sr0 3.755557 1_565
Li19 Sr3 3.755559 1_556
Li19 Sr1 3.755559 1_555
Li20 Li21 3.033394 1_555
Li20 Li5 3.043760 1_656
Li20 Li3 3.043760 1_566
Li20 Li4 3.043762 1_665
Li20 Li7 3.201528 1_565
Li20 Sr1 3.755559 1_655
Li20 Sr4 3.755559 1_565
Li20 Sr5 3.755560 1_556
Li21 Li6 3.043760 1_565
Li21 Li4 3.043762 1_665
Li21 Li7 3.201523 1_565
Li21 Sr3 3.755558 1_655
Li21 Sr2 3.755558 1_565
Li21 Sr5 3.755560 1_555
Li22 Li5 3.043762 1_555
Li22 Li9 3.201524 1_455
Li22 Li8 3.201524 1_554
Li22 Sr5 3.755557 1_455
Li22 Sr1 3.755559 1_554
Li22 Sr3 3.755559 1_555
