# generated using pymatgen
data_CeMg2
_symmetry_space_group_name_H-M   'P 1'
_cell_length_a   6.09889781
_cell_length_b   6.09889781
_cell_length_c   6.09889781
_cell_angle_alpha   60.00000000
_cell_angle_beta   60.00000000
_cell_angle_gamma   60.00000000
_symmetry_Int_Tables_number   1
_chemical_formula_structural   CeMg2
_chemical_formula_sum   'Ce2 Mg4'
_cell_volume   160.41281948
_cell_formula_units_Z   2
loop_
 _symmetry_equiv_pos_site_id
 _symmetry_equiv_pos_as_xyz
  1  'x, y, z'
loop_
 _atom_site_type_symbol
 _atom_site_label
 _atom_site_symmetry_multiplicity
 _atom_site_fract_x
 _atom_site_fract_y
 _atom_site_fract_z
 _atom_site_occupancy
  Ce  Ce0  1  0.00000000  0.00000000  0.00000000  1
  Ce  Ce1  1  0.75000000  0.75000000  0.75000000  1
  Mg  Mg0  1  0.37500000  0.37500000  0.37500000  1
  Mg  Mg1  1  0.37500000  0.37500000  0.87500000  1
  Mg  Mg2  1  0.37500000  0.87500000  0.37500000  1
  Mg  Mg3  1  0.87500000  0.37500000  0.37500000  1
loop_
_geom_bond_atom_site_label_1
_geom_bond_atom_site_label_2
_geom_bond_distance
_geom_bond_site_symmetry_2
Ce0 Mg1 3.575796 1_454
Ce0 Mg1 3.575796 1_544
Ce0 Mg2 3.575796 1_445
Ce0 Mg0 3.575796 1_554
Ce0 Mg2 3.575796 1_544
Ce0 Mg0 3.575796 1_455
Ce0 Mg1 3.575796 1_554
Ce0 Mg3 3.575796 1_455
Ce0 Mg3 3.575796 1_454
Ce0 Mg2 3.575796 1_545
Ce0 Mg3 3.575796 1_445
Ce0 Mg0 3.575796 1_545
Ce0 Ce1 3.734797 1_445
Ce0 Ce1 3.734797 1_444
Ce0 Ce1 3.734797 1_454
Ce0 Ce1 3.734797 1_544
Ce1 Mg2 3.575796 1_655
Ce1 Mg1 3.575796 1_565
Ce1 Mg1 3.575796 1_655
Ce1 Mg0 3.575796 1_556
Ce1 Mg1 3.575796 1_555
Ce1 Mg2 3.575796 1_555
Ce1 Mg3 3.575796 1_565
Ce1 Mg2 3.575796 1_556
Ce1 Mg0 3.575796 1_565
Ce1 Mg3 3.575796 1_556
Ce1 Mg3 3.575796 1_555
Ce1 Mg0 3.575796 1_655
Mg0 Mg2 3.049449 1_555
Mg0 Mg1 3.049449 1_554
Mg0 Mg3 3.049449 1_455
Mg0 Mg2 3.049449 1_545
Mg0 Mg3 3.049449 1_555
Mg0 Mg1 3.049449 1_555
Mg1 Mg2 3.049449 1_555
Mg1 Mg2 3.049449 1_546
Mg1 Mg3 3.049449 1_555
Mg1 Mg3 3.049449 1_456
Mg2 Mg3 3.049449 1_555
Mg2 Mg3 3.049449 1_465
