# generated using pymatgen
data_Na6Al2In2Si3(SO8)3
_symmetry_space_group_name_H-M   'P 1'
_cell_length_a   9.02326916
_cell_length_b   8.91405544
_cell_length_c   22.20858928
_cell_angle_alpha   90.92311796
_cell_angle_beta   89.73006263
_cell_angle_gamma   120.06467968
_symmetry_Int_Tables_number   1
_chemical_formula_structural   Na6Al2In2Si3(SO8)3
_chemical_formula_sum   'Na18 Al6 In6 Si9 S9 O72'
_cell_volume   1545.78034833
_cell_formula_units_Z   3
loop_
 _symmetry_equiv_pos_site_id
 _symmetry_equiv_pos_as_xyz
  1  'x, y, z'
loop_
 _atom_site_type_symbol
 _atom_site_label
 _atom_site_symmetry_multiplicity
 _atom_site_fract_x
 _atom_site_fract_y
 _atom_site_fract_z
 _atom_site_occupancy
  Na  Na0  1  0.63491627  0.00051082  0.26011873  1
  Na  Na1  1  0.35006394  0.35684193  0.25443218  1
  Na  Na2  1  0.64384704  0.64297625  0.73601114  1
  Na  Na3  1  0.98744324  0.36490100  0.74400717  1
  Na  Na4  1  0.02592308  0.69006137  0.59133443  1
  Na  Na5  1  0.67246884  0.96203436  0.58297063  1
  Na  Na6  1  0.30787956  0.96943212  0.09499485  1
  Na  Na7  1  0.02489902  0.32370578  0.08368073  1
  Na  Na8  1  0.97159003  0.65679584  0.90091318  1
  Na  Na9  1  0.71029781  0.04290048  0.91064087  1
  Na  Na10  1  0.95793711  0.29275226  0.42166056  1
  Na  Na11  1  0.34292804  0.03039263  0.41531547  1
  Na  Na12  1  0.97728994  0.99174571  0.50486603  1
  Na  Na13  1  0.99117663  0.01152147  0.99951337  1
  Na  Na14  1  0.66708031  0.32363266  0.82135470  1
  Na  Na15  1  0.67608680  0.34062569  0.33711887  1
  Na  Na16  1  0.32517160  0.67047883  0.17516004  1
  Na  Na17  1  0.33316290  0.66438390  0.66388165  1
  Al  Al0  1  0.99334533  0.01326320  0.34587864  1
  Al  Al1  1  0.96684778  0.98004931  0.64634665  1
  Al  Al2  1  0.69100054  0.34772638  0.68291004  1
  Al  Al3  1  0.66101056  0.30302588  0.19513330  1
  Al  Al4  1  0.67600898  0.31305732  0.49291137  1
  Al  Al5  1  0.31932576  0.68832820  0.31552736  1
  In  In0  1  0.99522693  0.01469281  0.83913426  1
  In  In1  1  0.99767314  0.00883232  0.15934182  1
  In  In2  1  0.67896988  0.32971620  0.98493928  1
  In  In3  1  0.33807730  0.66315188  0.01886750  1
  In  In4  1  0.35068162  0.65757098  0.52108271  1
  In  In5  1  0.32139249  0.67207251  0.80678216  1
  Si  Si0  1  0.28794842  0.99756632  0.25181513  1
  Si  Si1  1  0.00831080  0.31572279  0.25246689  1
  Si  Si2  1  0.99395291  0.71008588  0.74420539  1
  Si  Si3  1  0.69722443  0.00985659  0.74527615  1
  Si  Si4  1  0.96233395  0.32477057  0.58492501  1
  Si  Si5  1  0.67112920  0.60931684  0.58422587  1
  Si  Si6  1  0.66637166  0.03181228  0.08658197  1
  Si  Si7  1  0.04125132  0.36783782  0.91776854  1
  Si  Si8  1  0.63264806  0.96060549  0.41497508  1
  S  S0  1  0.70206250  0.69812279  0.25228199  1
  S  S1  1  0.29905842  0.28506445  0.74500019  1
  S  S2  1  0.38009878  0.05673843  0.58335162  1
  S  S3  1  0.95274119  0.62777166  0.08723073  1
  S  S4  1  0.38326765  0.33569249  0.08747019  1
  S  S5  1  0.63237923  0.66359361  0.91625723  1
  S  S6  1  0.33009255  0.96897369  0.91930189  1
  S  S7  1  0.32933797  0.36464524  0.41114004  1
  S  S8  1  0.03876185  0.67312198  0.41456514  1
  O  O0  1  0.18133636  0.02700611  0.30560152  1
  O  O1  1  0.81970382  0.78892629  0.30319411  1
  O  O2  1  0.96327457  0.16846306  0.30357902  1
  O  O3  1  0.23838786  0.19985987  0.80474842  1
  O  O4  1  0.96993416  0.78352494  0.81055634  1
  O  O5  1  0.80484856  0.06205056  0.81009556  1
  O  O6  1  0.80104140  0.97503260  0.69214214  1
  O  O7  1  0.17732578  0.19089517  0.69607520  1
  O  O8  1  0.01546644  0.83813325  0.68978923  1
  O  O9  1  0.76379768  0.80272239  0.19627919  1
  O  O10  1  0.06451450  0.25760673  0.18898071  1
  O  O11  1  0.18760913  0.96170745  0.18727777  1
  O  O12  1  0.87137319  0.36200272  0.64184990  1
  O  O13  1  0.49446395  0.14632804  0.63462340  1
  O  O14  1  0.64977662  0.50084202  0.64468027  1
  O  O15  1  0.85035382  0.51386443  0.13633444  1
  O  O16  1  0.63980420  0.13860324  0.14299400  1
  O  O17  1  0.48439084  0.34796351  0.14145834  1
  O  O18  1  0.46481503  0.32471075  0.03060867  1
  O  O19  1  0.86890570  0.56360967  0.02690087  1
  O  O20  1  0.69900534  0.13303610  0.02266047  1
  O  O21  1  0.46079997  0.14799233  0.52477882  1
  O  O22  1  0.69157909  0.50525191  0.52531983  1
  O  O23  1  0.84185251  0.28332169  0.52347430  1
  O  O24  1  0.55695579  0.69675140  0.97113993  1
  O  O25  1  0.13664030  0.44619852  0.98368799  1
  O  O26  1  0.31030748  0.87269223  0.97629186  1
  O  O27  1  0.55672426  0.85718549  0.47734149  1
  O  O28  1  0.28595760  0.43296419  0.46626115  1
  O  O29  1  0.14213388  0.70800765  0.47046313  1
  O  O30  1  0.12962766  0.64195259  0.36330192  1
  O  O31  1  0.49650555  0.86122533  0.35877649  1
  O  O32  1  0.35392651  0.47597036  0.35891035  1
  O  O33  1  0.13375363  0.49573764  0.86157102  1
  O  O34  1  0.36658598  0.88590724  0.86784467  1
  O  O35  1  0.53488724  0.64790655  0.86156365  1
  O  O36  1  0.02404488  0.83000502  0.40402549  1
  O  O37  1  0.82764370  0.99092802  0.40261238  1
  O  O38  1  0.17202726  0.18610649  0.40457412  1
  O  O39  1  0.01205974  0.17114027  0.91460904  1
  O  O40  1  0.17048618  0.97378184  0.91285784  1
  O  O41  1  0.80930822  0.81668282  0.91487644  1
  O  O42  1  0.97786389  0.15028206  0.59354711  1
  O  O43  1  0.20912622  0.03909696  0.58645172  1
  O  O44  1  0.84778156  0.80671876  0.58679768  1
  O  O45  1  0.98599813  0.80797534  0.09043138  1
  O  O46  1  0.84096408  0.01912152  0.09160793  1
  O  O47  1  0.21031465  0.17428071  0.08637219  1
  O  O48  1  0.67376677  0.17667575  0.73422210  1
  O  O49  1  0.47235318  0.31018791  0.73827710  1
  O  O50  1  0.81812301  0.51559062  0.74268704  1
  O  O51  1  0.68349705  0.52305172  0.24389885  1
  O  O52  1  0.82865819  0.32061705  0.24424028  1
  O  O53  1  0.48088477  0.17934400  0.24693475  1
  O  O54  1  0.64513284  0.50453056  0.92163234  1
  O  O55  1  0.84943516  0.35488171  0.91655938  1
  O  O56  1  0.48210579  0.14642613  0.92220163  1
  O  O57  1  0.64721108  0.15916414  0.42342993  1
  O  O58  1  0.48108915  0.34427187  0.41838077  1
  O  O59  1  0.86984925  0.51250482  0.41787580  1
  O  O60  1  0.35757768  0.48870346  0.08804884  1
  O  O61  1  0.12320139  0.63381456  0.08736087  1
  O  O62  1  0.48142493  0.84614506  0.08466959  1
  O  O63  1  0.35953839  0.87821554  0.58046388  1
  O  O64  1  0.51368368  0.65308762  0.58600191  1
  O  O65  1  0.14284762  0.51037326  0.57719930  1
  O  O66  1  0.32878715  0.83913221  0.25955791  1
  O  O67  1  0.52767568  0.67465691  0.26166616  1
  O  O68  1  0.18286015  0.50007181  0.26759602  1
  O  O69  1  0.31426481  0.46143629  0.74824083  1
  O  O70  1  0.15486824  0.67214255  0.74233609  1
  O  O71  1  0.52118575  0.81972160  0.75093042  1
loop_
_geom_bond_atom_site_label_1
_geom_bond_atom_site_label_2
_geom_bond_distance
_geom_bond_site_symmetry_2
Na0 O66 2.391254 1_545
Na0 O52 2.520152 1_555
Na0 O31 2.531846 1_545
Na0 O67 2.561519 1_545
Na0 O53 2.607210 1_555
Na0 O2 2.736327 1_555
Na0 O16 2.886351 1_555
Na0 O9 2.903330 1_545
Na1 O53 2.405328 1_555
Na1 O68 2.430163 1_555
Na1 O67 2.461472 1_555
Na1 O32 2.529233 1_555
Na1 O51 2.615354 1_555
Na1 O10 2.691543 1_555
Na1 O17 2.798475 1_555
Na1 O0 2.803609 1_555
Na2 O71 2.354567 1_555
Na2 O50 2.362422 1_555
Na2 O14 2.388796 1_555
Na2 O49 2.569401 1_555
Na2 O69 2.592538 1_555
Na2 O6 2.756038 1_555
Na2 O35 2.959213 1_555
Na3 O70 2.375216 1_655
Na3 O48 2.471699 1_555
Na3 O50 2.489456 1_555
Na3 O12 2.497653 1_555
Na3 O69 2.627414 1_655
Na3 O5 2.793758 1_555
Na3 O33 2.883004 1_655
Na4 O44 2.314093 1_455
Na4 O65 2.334771 1_555
Na4 O8 2.561622 1_555
Na4 O63 2.623100 1_555
Na4 O43 2.698264 1_565
Na4 O12 2.785673 1_455
Na4 O29 2.854872 1_555
Na5 O64 2.386054 1_555
Na5 O42 2.413487 1_565
Na5 O63 2.533903 1_555
Na5 O27 2.538075 1_555
Na5 O44 2.574080 1_555
Na5 O6 2.668435 1_555
Na5 O23 2.828659 1_565
Na6 O11 2.300332 1_555
Na6 O62 2.329241 1_555
Na6 O47 2.402007 1_565
Na6 O45 2.515372 1_455
Na6 O61 2.597531 1_555
Na6 O26 2.763863 1_554
Na6 O16 2.798863 1_565
Na7 O46 2.377999 1_455
Na7 O61 2.443685 1_555
Na7 O25 2.468666 1_554
Na7 O10 2.491412 1_555
Na7 O60 2.599646 1_555
Na7 O47 2.610213 1_555
Na7 O20 2.885847 1_455
Na8 O4 2.322381 1_555
Na8 O55 2.373384 1_555
Na8 O40 2.484907 1_655
Na8 O41 2.518779 1_555
Na8 O54 2.594712 1_555
Na8 O33 2.649165 1_655
Na8 O19 2.942220 1_556
Na9 O5 2.364652 1_555
Na9 O39 2.368313 1_655
Na9 O55 2.412262 1_555
Na9 O41 2.585599 1_545
Na9 O20 2.619222 1_556
Na9 O56 2.654887 1_555
Na9 O34 2.848980 1_545
Na10 O37 2.366124 1_545
Na10 O57 2.436362 1_555
Na10 O59 2.458059 1_555
Na10 O23 2.472363 1_555
Na10 O38 2.569252 1_655
Na10 O28 2.754077 1_655
Na10 O2 2.839995 1_555
Na11 O57 2.393483 1_555
Na11 O58 2.426317 1_555
Na11 O36 2.524963 1_545
Na11 O38 2.553504 1_555
Na11 O21 2.639156 1_555
Na11 O31 2.790584 1_545
Na11 O29 2.813678 1_545
Na11 O0 2.837412 1_555
Na12 O44 2.354212 1_555
Na12 O42 2.403977 1_565
Na12 O43 2.638873 1_665
Na12 O37 2.645541 1_555
Na12 O36 2.787230 1_655
Na12 O38 2.843860 1_665
Na13 O39 2.330232 1_655
Na13 O46 2.467053 1_556
Na13 O41 2.512130 1_545
Na13 O47 2.609072 1_656
Na13 O40 2.632455 1_645
Na13 O45 2.720943 1_546
Na14 O48 2.336811 1_555
Na14 O50 2.361151 1_555
Na14 O49 2.513616 1_555
Na14 O55 2.609625 1_555
Na14 O56 2.781052 1_555
Na14 O54 2.792709 1_555
Na15 O59 2.424440 1_555
Na15 O57 2.455932 1_555
Na15 O58 2.525753 1_555
Na15 O52 2.527696 1_555
Na15 O53 2.565931 1_555
Na15 O51 2.633090 1_555
Na16 O66 2.373834 1_555
Na16 O68 2.508363 1_555
Na16 O62 2.518185 1_555
Na16 O61 2.578048 1_555
Na16 O60 2.611933 1_555
Na16 O67 2.644568 1_555
Na17 O70 2.389569 1_555
Na17 O64 2.405642 1_555
Na17 O65 2.474580 1_555
Na17 O71 2.474662 1_555
Na17 O69 2.570792 1_555
Na17 O63 2.603282 1_555
Al0 O2 1.813968 1_555
Al0 O0 1.863751 1_655
Al0 O37 1.885413 1_545
Al0 O38 2.034380 1_655
Al0 O1 2.041102 1_545
Al0 O36 2.222083 1_645
Al1 O6 1.787415 1_555
Al1 O8 1.822914 1_655
Al1 O44 1.890729 1_555
Al1 O42 1.895437 1_565
Al1 O7 2.176126 1_665
Al1 O43 2.380731 1_665
Al2 O14 1.808625 1_555
Al2 O12 1.810769 1_555
Al2 O48 1.861296 1_555
Al2 O50 1.883565 1_555
Al2 O13 2.069754 1_555
Al2 O49 2.201197 1_555
Al3 O16 1.786626 1_555
Al3 O52 1.809614 1_555
Al3 O53 1.846218 1_555
Al3 O51 2.143774 1_555
Al3 O17 2.189566 1_555
Al3 O15 2.235443 1_555
Al4 O23 1.784135 1_555
Al4 O22 1.786895 1_555
Al4 O21 1.895931 1_555
Al4 O57 1.977096 1_555
Al4 O59 2.439141 1_555
Al5 O66 1.815839 1_555
Al5 O68 1.830266 1_555
Al5 O31 1.830801 1_555
Al5 O30 1.874717 1_555
Al5 O67 2.276788 1_555
Al5 O32 2.294092 1_555
In0 O4 2.046745 1_545
In0 O5 2.071446 1_555
In0 O39 2.119524 1_655
In0 O3 2.125537 1_655
In0 O41 2.421068 1_545
In0 O40 2.436406 1_645
In1 O11 2.058739 1_645
In1 O10 2.081188 1_655
In1 O46 2.103607 1_555
In1 O9 2.156248 1_545
In1 O45 2.298518 1_545
In1 O47 2.386459 1_655
In2 O20 2.043179 1_556
In2 O55 2.089424 1_555
In2 O19 2.127177 1_556
In2 O18 2.159023 1_556
In2 O56 2.192771 1_555
In2 O54 2.247132 1_555
In3 O25 2.024085 1_554
In3 O62 2.072793 1_555
In3 O24 2.124069 1_554
In3 O26 2.230205 1_554
In3 O60 2.272310 1_555
In3 O61 2.370341 1_555
In4 O27 2.071336 1_555
In4 O64 2.079495 1_555
In4 O65 2.087330 1_555
In4 O28 2.142104 1_555
In4 O63 2.318172 1_555
In4 O29 2.427129 1_555
In5 O71 2.043286 1_555
In5 O33 2.047832 1_555
In5 O70 2.080268 1_555
In5 O34 2.186728 1_555
In5 O69 2.240771 1_555
In5 O35 2.384111 1_555
O0 Si0 1.628861 1_545
O1 S0 1.476940 1_555
O2 Si1 1.638893 1_655
O3 S1 1.498771 1_555
O4 Si2 1.659810 1_555
O5 Si3 1.664550 1_555
O6 Si3 1.623427 1_565
O7 S1 1.466215 1_555
O8 Si2 1.619025 1_455
O9 S0 1.495664 1_555
O10 Si1 1.657245 1_555
O11 Si0 1.638200 1_555
O12 Si4 1.622251 1_555
O13 S2 1.468096 1_555
O14 Si5 1.620937 1_555
O15 S3 1.469708 1_555
O16 Si6 1.649436 1_555
O17 S4 1.479268 1_555
O18 S4 1.484976 1_555
O19 S3 1.498631 1_555
O20 Si6 1.639292 1_555
O21 S2 1.521759 1_555
O22 Si5 1.654127 1_555
O23 Si4 1.666179 1_555
O24 S5 1.489394 1_555
O25 Si7 1.657864 1_555
O26 S6 1.499914 1_555
O27 Si8 1.623895 1_555
O28 S7 1.494317 1_555
O29 S8 1.488519 1_555
O30 S8 1.501618 1_555
O31 Si8 1.655307 1_555
O32 S7 1.481061 1_555
O33 Si7 1.623808 1_555
O34 S6 1.475187 1_555
O35 S5 1.466349 1_555
O36 S8 1.491656 1_555
O37 Si8 1.663009 1_555
O38 S7 1.516573 1_555
O39 Si7 1.637707 1_555
O40 S6 1.469829 1_555
O41 S5 1.493299 1_555
O42 Si4 1.644326 1_555
O43 S2 1.471652 1_555
O44 Si5 1.681576 1_555
O45 S3 1.479523 1_555
O46 Si6 1.639437 1_555
O47 S4 1.501901 1_555
O48 Si3 1.626027 1_555
O49 S1 1.471585 1_555
O50 Si2 1.663349 1_555
O51 S0 1.492369 1_555
O52 Si1 1.654390 1_655
O53 Si0 1.686886 1_545
O54 S5 1.485597 1_555
O55 Si7 1.676249 1_655
O56 S6 1.487058 1_545
O57 Si8 1.715161 1_545
O58 S7 1.478506 1_555
O59 S8 1.481285 1_655
O60 S4 1.493470 1_555
O61 S3 1.511856 1_455
O62 Si6 1.660416 1_565
O63 S2 1.507309 1_565
O64 Si5 1.651204 1_555
O65 Si4 1.651117 1_455
O66 Si0 1.640058 1_555
O67 S0 1.493901 1_555
O68 Si1 1.639481 1_555
O69 S1 1.508670 1_555
O70 Si2 1.647852 1_455
O71 Si3 1.648947 1_565
