# generated using pymatgen
data_MgCo2(BiO4)2
_symmetry_space_group_name_H-M   'P 1'
_cell_length_a   6.50985539
_cell_length_b   6.10509719
_cell_length_c   6.95555685
_cell_angle_alpha   59.47835416
_cell_angle_beta   53.81307668
_cell_angle_gamma   86.59378334
_symmetry_Int_Tables_number   1
_chemical_formula_structural   MgCo2(BiO4)2
_chemical_formula_sum   'Mg1 Co2 Bi2 O8'
_cell_volume   180.33726214
_cell_formula_units_Z   1
loop_
 _symmetry_equiv_pos_site_id
 _symmetry_equiv_pos_as_xyz
  1  'x, y, z'
loop_
 _atom_site_type_symbol
 _atom_site_label
 _atom_site_symmetry_multiplicity
 _atom_site_fract_x
 _atom_site_fract_y
 _atom_site_fract_z
 _atom_site_occupancy
  Mg  Mg0  1  0.50000000  0.50000000  0.00000000  1
  Co  Co0  1  0.00000000  0.50000000  0.50000000  1
  Co  Co1  1  0.50000000  0.00000000  0.00000000  1
  Bi  Bi0  1  0.00000000  0.00000000  0.50000000  1
  Bi  Bi1  1  0.00000000  0.00000000  0.00000000  1
  O  O0  1  0.72582800  0.77289600  0.97274800  1
  O  O1  1  0.24742800  0.75362900  0.42885200  1
  O  O2  1  0.73922700  0.26176100  0.93402800  1
  O  O3  1  0.77242800  0.72534900  0.52862400  1
  O  O4  1  0.22757200  0.27465100  0.47137600  1
  O  O5  1  0.26077300  0.73823900  0.06597200  1
  O  O6  1  0.75257200  0.24637100  0.57114800  1
  O  O7  1  0.27417200  0.22710400  0.02725200  1
loop_
_geom_bond_atom_site_label_1
_geom_bond_atom_site_label_2
_geom_bond_distance
_geom_bond_site_symmetry_2
Mg0 O5 2.077557 1_555
Mg0 O2 2.077557 1_554
Mg0 O0 2.148047 1_554
Mg0 O7 2.148047 1_555
Mg0 O4 2.151694 1_555
Mg0 O3 2.151694 1_554
Co0 O1 1.952881 1_555
Co0 O6 1.952881 1_455
Co0 O3 1.953167 1_455
Co0 O4 1.953167 1_555
Co0 O2 1.973034 1_455
Co0 O5 1.973034 1_555
Co1 O1 1.951594 1_545
Co1 O6 1.951594 1_554
Co1 O0 1.953250 1_544
Co1 O7 1.953250 1_555
Co1 O2 1.974016 1_554
Co1 O5 1.974016 1_545
Bi0 O6 2.151420 1_455
Bi0 O1 2.151420 1_545
Bi0 O0 2.157171 1_445
Bi0 O7 2.157171 1_555
Bi0 O4 2.157250 1_555
Bi0 O3 2.157250 1_445
Bi1 O2 2.344968 1_454
Bi1 O5 2.344968 1_545
Bi1 O7 2.470704 1_555
Bi1 O0 2.470704 1_444
Bi1 O3 2.475158 1_445
Bi1 O4 2.475158 1_554
