# generated using pymatgen
data_K2PtI6
_symmetry_space_group_name_H-M   'P 1'
_cell_length_a   7.64451697
_cell_length_b   7.64451697
_cell_length_c   11.97759515
_cell_angle_alpha   90.00000000
_cell_angle_beta   90.00000000
_cell_angle_gamma   90.00000000
_symmetry_Int_Tables_number   1
_chemical_formula_structural   K2PtI6
_chemical_formula_sum   'K4 Pt2 I12'
_cell_volume   699.95436750
_cell_formula_units_Z   2
loop_
 _symmetry_equiv_pos_site_id
 _symmetry_equiv_pos_as_xyz
  1  'x, y, z'
loop_
 _atom_site_type_symbol
 _atom_site_label
 _atom_site_symmetry_multiplicity
 _atom_site_fract_x
 _atom_site_fract_y
 _atom_site_fract_z
 _atom_site_occupancy
  K  K0  1  0.50000000  0.00000000  0.75000000  1
  K  K1  1  -0.00000000  0.50000000  0.75000000  1
  K  K2  1  0.50000000  0.00000000  0.25000000  1
  K  K3  1  -0.00000000  0.50000000  0.25000000  1
  Pt  Pt0  1  0.50000000  0.50000000  0.50000000  1
  Pt  Pt1  1  -0.00000000  0.00000000  0.00000000  1
  I  I0  1  0.70426048  0.19394350  0.00000000  1
  I  I1  1  0.69394350  0.20426048  0.50000000  1
  I  I2  1  0.30605650  0.79573952  0.50000000  1
  I  I3  1  0.29573952  0.80605650  0.00000000  1
  I  I4  1  0.79573952  0.69394350  0.50000000  1
  I  I5  1  0.20426048  0.30605650  0.50000000  1
  I  I6  1  -0.00000000  0.00000000  0.22497861  1
  I  I7  1  0.50000000  0.50000000  0.27502139  1
  I  I8  1  -0.00000000  0.00000000  0.77502139  1
  I  I9  1  0.50000000  0.50000000  0.72497861  1
  I  I10  1  0.80605650  0.70426048  0.00000000  1
  I  I11  1  0.19394350  0.29573952  0.00000000  1
loop_
_geom_bond_atom_site_label_1
_geom_bond_atom_site_label_2
_geom_bond_distance
_geom_bond_site_symmetry_2
I0 Pt1 2.703566 1_655
I0 K0 3.688189 1_554
I0 K2 3.688189 1_555
I1 Pt0 2.703566 1_555
I1 K2 3.688189 1_555
I1 K0 3.688189 1_555
I2 Pt0 2.703566 1_555
I2 K2 3.688189 1_565
I2 K0 3.688189 1_565
I3 Pt1 2.703566 1_565
I3 K0 3.688189 1_564
I3 K2 3.688189 1_565
I4 Pt0 2.703566 1_555
I4 K3 3.688189 1_655
I4 K1 3.688189 1_655
I5 Pt0 2.703566 1_555
I5 K1 3.688189 1_555
I5 K3 3.688189 1_555
I6 Pt1 2.694703 1_555
I6 K3 3.833990 1_555
I6 K2 3.833990 1_455
I6 K3 3.833990 1_545
I6 K2 3.833990 1_555
I7 Pt0 2.694703 1_555
I7 K3 3.833990 1_555
I7 K3 3.833990 1_655
I7 K2 3.833990 1_555
I7 K2 3.833990 1_565
I8 Pt1 2.694703 1_556
I8 K0 3.833990 1_555
I8 K0 3.833990 1_455
I8 K1 3.833990 1_555
I8 K1 3.833990 1_545
I9 Pt0 2.694703 1_555
I9 K0 3.833990 1_555
I9 K1 3.833990 1_555
I9 K0 3.833990 1_565
I9 K1 3.833990 1_655
I10 Pt1 2.703566 1_665
I10 K3 3.688189 1_655
I10 K1 3.688189 1_654
I11 Pt1 2.703566 1_555
I11 K1 3.688189 1_554
I11 K3 3.688189 1_555
