# generated using pymatgen
data_Na6CaSi2Sn3(PO6)4
_symmetry_space_group_name_H-M   'P 1'
_cell_length_a   15.81157713
_cell_length_b   9.08853523
_cell_length_c   9.16338780
_cell_angle_alpha   89.66124170
_cell_angle_beta   125.11512530
_cell_angle_gamma   90.27544403
_symmetry_Int_Tables_number   1
_chemical_formula_structural   Na6CaSi2Sn3(PO6)4
_chemical_formula_sum   'Na12 Ca2 Si4 Sn6 P8 O48'
_cell_volume   1077.13244009
_cell_formula_units_Z   2
loop_
 _symmetry_equiv_pos_site_id
 _symmetry_equiv_pos_as_xyz
  1  'x, y, z'
loop_
 _atom_site_type_symbol
 _atom_site_label
 _atom_site_symmetry_multiplicity
 _atom_site_fract_x
 _atom_site_fract_y
 _atom_site_fract_z
 _atom_site_occupancy
  Na  Na0  1  0.25151320  0.74779942  0.00070949  1
  Na  Na1  1  0.74794965  0.74464943  0.48799077  1
  Na  Na2  1  0.75151320  0.24779942  0.00070949  1
  Na  Na3  1  0.24794965  0.24464943  0.48799077  1
  Na  Na4  1  0.50742924  0.08938234  0.75753578  1
  Na  Na5  1  0.50057804  0.89303805  0.24246172  1
  Na  Na6  1  0.00742924  0.58938234  0.75753578  1
  Na  Na7  1  0.00057804  0.39303805  0.24246172  1
  Na  Na8  1  0.80161645  0.92021850  0.20927458  1
  Na  Na9  1  0.18324455  0.08280440  0.80188566  1
  Na  Na10  1  0.30161645  0.42021850  0.20927458  1
  Na  Na11  1  0.68324455  0.58280440  0.80188566  1
  Ca  Ca0  1  0.10068226  0.24318197  0.05968033  1
  Ca  Ca1  1  0.60068226  0.74318197  0.05968033  1
  Si  Si0  1  0.65414782  0.90151238  0.74765819  1
  Si  Si1  1  0.35719275  0.09594407  0.25719646  1
  Si  Si2  1  0.15414782  0.40151238  0.74765819  1
  Si  Si3  1  0.85719275  0.59594407  0.25719646  1
  Sn  Sn0  1  0.10468692  0.74951206  0.55774670  1
  Sn  Sn1  1  0.89754053  0.75347015  0.93965847  1
  Sn  Sn2  1  0.89827171  0.25090547  0.44632122  1
  Sn  Sn3  1  0.60468692  0.24951206  0.55774670  1
  Sn  Sn4  1  0.39754053  0.25347015  0.93965847  1
  Sn  Sn5  1  0.39827171  0.75090547  0.44632122  1
  P  P0  1  0.99496717  0.94698626  0.73884968  1
  P  P1  1  0.99719067  0.04286555  0.26092519  1
  P  P2  1  0.49496717  0.44698626  0.73884968  1
  P  P3  1  0.49719067  0.54286555  0.26092519  1
  P  P4  1  0.35001360  0.90363902  0.75467973  1
  P  P5  1  0.64886306  0.11646211  0.24858246  1
  P  P6  1  0.85001360  0.40363902  0.75467973  1
  P  P7  1  0.14886306  0.61646211  0.24858246  1
  O  O0  1  0.16165285  0.58251203  0.73766536  1
  O  O1  1  0.84889961  0.57694118  0.74949337  1
  O  O2  1  0.85372682  0.41262215  0.25614836  1
  O  O3  1  0.15417049  0.44864807  0.25378142  1
  O  O4  1  0.66165285  0.08251203  0.73766536  1
  O  O5  1  0.34889961  0.07694118  0.74949337  1
  O  O6  1  0.35372682  0.91262215  0.25614836  1
  O  O7  1  0.65417049  0.94864807  0.25378142  1
  O  O8  1  0.42320419  0.53791176  0.56271045  1
  O  O9  1  0.56119691  0.54287561  0.89903633  1
  O  O10  1  0.56034180  0.45079723  0.43435965  1
  O  O11  1  0.43747773  0.44142684  0.09383733  1
  O  O12  1  0.92320419  0.03791176  0.56271045  1
  O  O13  1  0.06119691  0.04287561  0.89903633  1
  O  O14  1  0.06034180  0.95079723  0.43435965  1
  O  O15  1  0.93747773  0.94142684  0.09383733  1
  O  O16  1  0.24817539  0.85370980  0.73094502  1
  O  O17  1  0.74808389  0.81721395  0.75146703  1
  O  O18  1  0.74215656  0.18165834  0.25435752  1
  O  O19  1  0.26901321  0.17892957  0.25891441  1
  O  O20  1  0.74817539  0.35370980  0.73094502  1
  O  O21  1  0.24808389  0.31721395  0.75146703  1
  O  O22  1  0.24215656  0.68165834  0.25435752  1
  O  O23  1  0.76901321  0.67892957  0.25891441  1
  O  O24  1  0.35562978  0.86096376  0.59509728  1
  O  O25  1  0.65608366  0.87422136  0.92263502  1
  O  O26  1  0.65083488  0.16988534  0.40909802  1
  O  O27  1  0.35485617  0.13002896  0.07407508  1
  O  O28  1  0.85562978  0.36096376  0.59509728  1
  O  O29  1  0.15608366  0.37422136  0.92263502  1
  O  O30  1  0.15083488  0.66988534  0.40909802  1
  O  O31  1  0.85485617  0.63002896  0.07407508  1
  O  O32  1  0.43997988  0.84673052  0.93220393  1
  O  O33  1  0.54744446  0.82368386  0.57138617  1
  O  O34  1  0.54933807  0.17189813  0.06820709  1
  O  O35  1  0.46850628  0.14857811  0.43452315  1
  O  O36  1  0.93997988  0.34673052  0.93220393  1
  O  O37  1  0.04744446  0.32368386  0.57138617  1
  O  O38  1  0.04933807  0.67189813  0.06820709  1
  O  O39  1  0.96850628  0.64857811  0.43452315  1
  O  O40  1  0.07427926  0.84866239  0.73136616  1
  O  O41  1  0.92286951  0.83770647  0.75103056  1
  O  O42  1  0.90802441  0.12538243  0.25614552  1
  O  O43  1  0.06816659  0.15464092  0.26035933  1
  O  O44  1  0.57427926  0.34866239  0.73136616  1
  O  O45  1  0.42286951  0.33770647  0.75103056  1
  O  O46  1  0.40802441  0.62538243  0.25614552  1
  O  O47  1  0.56816659  0.65464092  0.26035933  1
loop_
_geom_bond_atom_site_label_1
_geom_bond_atom_site_label_2
_geom_bond_distance
_geom_bond_site_symmetry_2
Na0 O6 2.449679 1_555
Na0 O22 2.482682 1_555
Na0 O0 2.483479 1_554
Na0 O46 2.484448 1_555
Na0 O40 2.612650 1_554
Na0 O16 2.619573 1_554
Na1 O23 2.386418 1_555
Na1 O1 2.488573 1_555
Na1 O17 2.505371 1_555
Na1 O47 2.505417 1_555
Na1 O41 2.550830 1_555
Na1 O7 2.561341 1_555
Na2 O2 2.449679 1_555
Na2 O18 2.482682 1_555
Na2 O4 2.483479 1_554
Na2 O42 2.484448 1_555
Na2 O44 2.612650 1_554
Na2 O20 2.619573 1_554
Na3 O19 2.386418 1_555
Na3 O5 2.488573 1_555
Na3 O21 2.505371 1_555
Na3 O43 2.505417 1_555
Na3 O45 2.550830 1_555
Na3 O3 2.561341 1_555
Na4 O5 2.467009 1_555
Na4 O4 2.548691 1_555
Na4 O45 2.611613 1_555
Na4 O34 2.637433 1_556
Na4 O44 2.643618 1_555
Na4 O35 2.705151 1_555
Na4 O25 2.748767 1_545
Na4 O24 2.857401 1_545
Na5 O47 2.383256 1_555
Na5 O6 2.403771 1_555
Na5 O7 2.421367 1_555
Na5 O32 2.460554 1_554
Na5 O33 2.728279 1_555
Na5 O27 2.871815 1_565
Na5 O46 2.871954 1_555
Na6 O1 2.467009 1_455
Na6 O0 2.548691 1_555
Na6 O41 2.611613 1_455
Na6 O38 2.637433 1_556
Na6 O40 2.643618 1_555
Na6 O39 2.705151 1_455
Na6 O29 2.748767 1_555
Na6 O28 2.857401 1_455
Na7 O43 2.383256 1_555
Na7 O2 2.403771 1_455
Na7 O3 2.421367 1_555
Na7 O36 2.460554 1_454
Na7 O37 2.728279 1_555
Na7 O31 2.871815 1_455
Na7 O42 2.871954 1_455
Na8 O25 2.327920 1_554
Na8 O23 2.351349 1_555
Na8 O42 2.374880 1_565
Na8 O7 2.601765 1_555
Na8 O18 2.679615 1_565
Na8 O12 2.861346 1_565
Na8 O15 2.894576 1_555
Na9 O27 2.446102 1_556
Na9 O21 2.513077 1_555
Na9 O13 2.571775 1_555
Na9 O40 2.571885 1_545
Na9 O16 2.572204 1_545
Na10 O29 2.327920 1_554
Na10 O19 2.351349 1_555
Na10 O46 2.374880 1_555
Na10 O3 2.601765 1_555
Na10 O22 2.679615 1_555
Na10 O8 2.861346 1_555
Na10 O11 2.894576 1_555
Na11 O31 2.446102 1_556
Na11 O17 2.513077 1_555
Na11 O9 2.571775 1_555
Na11 O44 2.571885 1_555
Na11 O20 2.572204 1_555
Ca0 O13 2.198715 1_554
Ca0 O29 2.236201 1_554
Ca0 O19 2.273812 1_555
Ca0 O36 2.302600 1_454
Ca0 O43 2.315083 1_555
Ca0 O3 2.378959 1_555
Ca1 O9 2.198715 1_554
Ca1 O25 2.236201 1_554
Ca1 O23 2.273812 1_555
Ca1 O32 2.302600 1_554
Ca1 O47 2.315083 1_555
Ca1 O7 2.378959 1_555
O0 Si2 1.654511 1_555
O0 Sn0 2.026877 1_555
O1 P6 1.575376 1_555
O1 Sn1 2.163669 1_555
O2 Si3 1.666668 1_555
O2 Sn2 2.064142 1_555
O3 P7 1.526850 1_555
O4 Si0 1.654511 1_545
O4 Sn3 2.026877 1_555
O5 P4 1.575376 1_545
O5 Sn4 2.163669 1_555
O6 Si1 1.666668 1_565
O6 Sn5 2.064142 1_555
O7 P5 1.526850 1_565
O8 P2 1.569017 1_555
O8 Sn5 2.130593 1_555
O9 P2 1.499562 1_555
O10 P3 1.545834 1_555
O10 Sn3 2.047556 1_555
O11 P3 1.559128 1_555
O11 Sn4 2.074775 1_554
O12 P0 1.569017 1_545
O12 Sn2 2.130593 1_555
O13 P0 1.499562 1_445
O14 P1 1.545834 1_465
O14 Sn0 2.047556 1_555
O15 P1 1.559128 1_565
O15 Sn1 2.074775 1_554
O16 P4 1.561181 1_555
O16 Sn0 2.101828 1_555
O17 Si0 1.656876 1_555
O17 Sn1 2.051093 1_555
O18 P5 1.559498 1_555
O18 Sn2 2.141565 1_555
O19 Si1 1.596417 1_555
O20 P6 1.561181 1_555
O20 Sn3 2.101828 1_555
O21 Si2 1.656876 1_555
O21 Sn4 2.051093 1_555
O22 P7 1.559498 1_555
O22 Sn5 2.141565 1_555
O23 Si3 1.596417 1_555
O24 P4 1.566242 1_555
O24 Sn5 2.096133 1_555
O25 Si0 1.603807 1_555
O26 P5 1.534832 1_555
O26 Sn3 2.017845 1_555
O27 Si1 1.683953 1_555
O27 Sn4 2.040589 1_554
O28 P6 1.566242 1_555
O28 Sn2 2.096133 1_555
O29 Si2 1.603807 1_555
O30 P7 1.534832 1_555
O30 Sn0 2.017845 1_555
O31 Si3 1.683953 1_555
O31 Sn1 2.040589 1_554
O32 P4 1.507395 1_555
O33 Si0 1.680098 1_555
O33 Sn5 2.048994 1_555
O34 P5 1.570859 1_555
O34 Sn4 2.110008 1_554
O35 Si1 1.636415 1_555
O35 Sn3 1.987225 1_555
O36 P6 1.507395 1_555
O37 Si2 1.680098 1_555
O37 Sn2 2.048994 1_455
O38 P7 1.570859 1_555
O38 Sn1 2.110008 1_454
O39 Si3 1.636415 1_555
O39 Sn0 1.987225 1_655
O40 P0 1.576810 1_455
O40 Sn0 2.115515 1_555
O41 P0 1.559689 1_555
O41 Sn1 2.124125 1_555
O42 P1 1.578226 1_555
O42 Sn2 2.167129 1_555
O43 P1 1.512324 1_455
O44 P2 1.576810 1_555
O44 Sn3 2.115515 1_555
O45 P2 1.559689 1_555
O45 Sn4 2.124125 1_555
O46 P3 1.578226 1_555
O46 Sn5 2.167129 1_555
O47 P3 1.512324 1_555
