# generated using pymatgen
data_Mo2P3O13
_symmetry_space_group_name_H-M   'P 1'
_cell_length_a   22.68688200
_cell_length_b   6.46686700
_cell_length_c   8.76865493
_cell_angle_alpha   53.40033523
_cell_angle_beta   90.00000000
_cell_angle_gamma   90.00000000
_symmetry_Int_Tables_number   1
_chemical_formula_structural   Mo2P3O13
_chemical_formula_sum   'Mo8 P12 O52'
_cell_volume   1032.80997928
_cell_formula_units_Z   4
loop_
 _symmetry_equiv_pos_site_id
 _symmetry_equiv_pos_as_xyz
  1  'x, y, z'
loop_
 _atom_site_type_symbol
 _atom_site_label
 _atom_site_symmetry_multiplicity
 _atom_site_fract_x
 _atom_site_fract_y
 _atom_site_fract_z
 _atom_site_occupancy
  Mo  Mo0  1  0.70630700  0.25925700  0.45474100  1
  Mo  Mo1  1  0.43924900  0.45253600  0.27411300  1
  Mo  Mo2  1  0.93924900  0.54746400  0.22588700  1
  Mo  Mo3  1  0.20630700  0.74074300  0.04525900  1
  Mo  Mo4  1  0.79369300  0.25925700  0.95474100  1
  Mo  Mo5  1  0.06075100  0.45253600  0.77411300  1
  Mo  Mo6  1  0.56075100  0.54746400  0.72588700  1
  Mo  Mo7  1  0.29369300  0.74074300  0.54525900  1
  P  P0  1  0.40204600  0.01875200  0.20631000  1
  P  P1  1  0.91581400  0.47276200  0.64415200  1
  P  P2  1  0.90204600  0.98124800  0.29369000  1
  P  P3  1  0.08418600  0.52723800  0.35584800  1
  P  P4  1  0.59795400  0.98124800  0.79369000  1
  P  P5  1  0.09795400  0.01875200  0.70631000  1
  P  P6  1  0.79744500  0.64160400  0.08714700  1
  P  P7  1  0.29744500  0.35839600  0.41285300  1
  P  P8  1  0.41581400  0.52723800  0.85584800  1
  P  P9  1  0.70255500  0.64160400  0.58714700  1
  P  P10  1  0.20255500  0.35839600  0.91285300  1
  P  P11  1  0.58418600  0.47276200  0.14415200  1
  O  O0  1  0.55831400  0.87707300  0.71427200  1
  O  O1  1  0.80800300  0.57224800  0.94721300  1
  O  O2  1  0.06686400  0.81235100  0.70664500  1
  O  O3  1  0.62756400  0.32352100  0.30976700  1
  O  O4  1  0.42329200  0.62742100  0.97289800  1
  O  O5  1  0.11533100  0.24320100  0.49224300  1
  O  O6  1  0.73896200  0.50118700  0.19581400  1
  O  O7  1  0.34708200  0.44750100  0.27032300  1
  O  O8  1  0.19199700  0.42775200  0.05278700  1
  O  O9  1  0.93313600  0.18764900  0.29335500  1
  O  O10  1  0.37243600  0.67647900  0.69023300  1
  O  O11  1  0.57670800  0.37257900  0.02710200  1
  O  O12  1  0.88466900  0.75679900  0.50775700  1
  O  O13  1  0.44168600  0.12292700  0.28572800  1
  O  O14  1  0.26103800  0.49881300  0.80418600  1
  O  O15  1  0.65291800  0.55249900  0.72967700  1
  O  O16  1  0.47354300  0.48249100  0.78984600  1
  O  O17  1  0.71092800  0.93685400  0.46820600  1
  O  O18  1  0.05631700  0.28066000  0.01399900  1
  O  O19  1  0.97354300  0.51750900  0.71015400  1
  O  O20  1  0.15291800  0.44750100  0.77032300  1
  O  O21  1  0.76103800  0.50118700  0.69581400  1
  O  O22  1  0.38466900  0.24320100  0.99224300  1
  O  O23  1  0.72679400  0.19413100  0.06141800  1
  O  O24  1  0.84079400  0.07027500  0.19170700  1
  O  O25  1  0.34079400  0.92972500  0.30829300  1
  O  O26  1  0.22679400  0.80586900  0.43858200  1
  O  O27  1  0.87243600  0.32352100  0.80976700  1
  O  O28  1  0.55631700  0.71934000  0.48600100  1
  O  O29  1  0.21092800  0.06314600  0.03179400  1
  O  O30  1  0.30800300  0.42775200  0.55278700  1
  O  O31  1  0.94168600  0.87707300  0.21427200  1
  O  O32  1  0.56686400  0.18764900  0.79335500  1
  O  O33  1  0.07670800  0.62742100  0.47289800  1
  O  O34  1  0.92329200  0.37257900  0.52710200  1
  O  O35  1  0.43313600  0.81235100  0.20664500  1
  O  O36  1  0.05831400  0.12292700  0.78572800  1
  O  O37  1  0.69199700  0.57224800  0.44721300  1
  O  O38  1  0.78907200  0.93685400  0.96820600  1
  O  O39  1  0.44368300  0.28066000  0.51399900  1
  O  O40  1  0.12756400  0.67647900  0.19023300  1
  O  O41  1  0.77320600  0.19413100  0.56141800  1
  O  O42  1  0.65920600  0.07027500  0.69170700  1
  O  O43  1  0.15920600  0.92972500  0.80829300  1
  O  O44  1  0.27320600  0.80586900  0.93858200  1
  O  O45  1  0.61533100  0.75679900  0.00775700  1
  O  O46  1  0.52645700  0.51750900  0.21015400  1
  O  O47  1  0.84708200  0.55249900  0.22967700  1
  O  O48  1  0.02645700  0.48249100  0.28984600  1
  O  O49  1  0.94368300  0.71934000  0.98600100  1
  O  O50  1  0.28907200  0.06314600  0.53179400  1
  O  O51  1  0.23896200  0.49881300  0.30418600  1
loop_
_geom_bond_atom_site_label_1
_geom_bond_atom_site_label_2
_geom_bond_distance
_geom_bond_site_symmetry_2
Mo0 O41 1.698854 1_555
Mo0 O6 1.978825 1_555
Mo0 O42 1.981134 1_555
Mo0 O37 2.011789 1_555
Mo0 O17 2.019493 1_545
Mo0 O3 2.085690 1_555
Mo1 O39 1.697712 1_555
Mo1 O46 2.030876 1_555
Mo1 O35 2.035210 1_555
Mo1 O13 2.073165 1_555
Mo1 O7 2.091808 1_555
Mo1 O4 2.196437 1_554
Mo2 O49 1.697712 1_554
Mo2 O48 2.030876 1_655
Mo2 O9 2.035210 1_555
Mo2 O31 2.073165 1_555
Mo2 O47 2.091808 1_555
Mo2 O34 2.196437 1_555
Mo3 O44 1.698854 1_554
Mo3 O51 1.978825 1_555
Mo3 O43 1.981134 1_554
Mo3 O8 2.011789 1_555
Mo3 O29 2.019493 1_565
Mo3 O40 2.085690 1_555
Mo4 O23 1.698854 1_556
Mo4 O21 1.978825 1_555
Mo4 O24 1.981134 1_556
Mo4 O1 2.011789 1_555
Mo4 O38 2.019493 1_545
Mo4 O27 2.085690 1_555
Mo5 O18 1.697712 1_556
Mo5 O19 2.030876 1_455
Mo5 O2 2.035210 1_555
Mo5 O36 2.073165 1_555
Mo5 O20 2.091808 1_555
Mo5 O33 2.196437 1_555
Mo6 O28 1.697712 1_555
Mo6 O16 2.030876 1_555
Mo6 O32 2.035210 1_555
Mo6 O0 2.073165 1_555
Mo6 O15 2.091808 1_555
Mo6 O11 2.196437 1_556
Mo7 O26 1.698854 1_555
Mo7 O14 1.978825 1_555
Mo7 O25 1.981134 1_555
Mo7 O30 2.011789 1_555
Mo7 O50 2.019493 1_565
Mo7 O10 2.085690 1_555
O0 P4 1.518880 1_555
O1 P6 1.555764 1_556
O2 P5 1.508123 1_565
O3 P11 1.528919 1_555
O4 P8 1.514884 1_555
O5 P5 1.592729 1_555
O5 P3 1.638294 1_555
O6 P6 1.568803 1_555
O7 P7 1.517693 1_555
O8 P10 1.555764 1_554
O9 P2 1.508123 1_545
O10 P8 1.528919 1_555
O11 P11 1.514884 1_555
O12 P2 1.592729 1_555
O12 P1 1.638294 1_555
O13 P0 1.518880 1_555
O14 P10 1.568803 1_555
O15 P9 1.517693 1_555
O16 P8 1.527639 1_555
O17 P9 1.547531 1_555
O19 P1 1.527639 1_555
O20 P10 1.517693 1_555
O21 P9 1.568803 1_555
O22 P0 1.592729 1_556
O22 P8 1.638294 1_555
O24 P2 1.564693 1_545
O25 P0 1.564693 1_565
O27 P1 1.528919 1_555
O29 P10 1.547531 1_554
O30 P7 1.555764 1_555
O31 P2 1.518880 1_555
O32 P4 1.508123 1_545
O33 P3 1.514884 1_555
O34 P1 1.514884 1_555
O35 P0 1.508123 1_565
O36 P5 1.518880 1_555
O37 P9 1.555764 1_555
O38 P6 1.547531 1_556
O40 P3 1.528919 1_555
O42 P4 1.564693 1_545
O43 P5 1.564693 1_565
O45 P4 1.592729 1_554
O45 P11 1.638294 1_555
O46 P11 1.527639 1_555
O47 P6 1.517693 1_555
O48 P3 1.527639 1_555
O50 P7 1.547531 1_555
O51 P7 1.568803 1_555
