# generated using pymatgen
data_SmGePt
_symmetry_space_group_name_H-M   'P 1'
_cell_length_a   4.40849265
_cell_length_b   7.19846966
_cell_length_c   7.62910695
_cell_angle_alpha   90.00034107
_cell_angle_beta   89.99999875
_cell_angle_gamma   89.99999756
_symmetry_Int_Tables_number   1
_chemical_formula_structural   SmGePt
_chemical_formula_sum   'Sm4 Ge4 Pt4'
_cell_volume   242.10513607
_cell_formula_units_Z   4
loop_
 _symmetry_equiv_pos_site_id
 _symmetry_equiv_pos_as_xyz
  1  'x, y, z'
loop_
 _atom_site_type_symbol
 _atom_site_label
 _atom_site_symmetry_multiplicity
 _atom_site_fract_x
 _atom_site_fract_y
 _atom_site_fract_z
 _atom_site_occupancy
  Sm  Sm0  1  0.74999995  0.99612323  0.29569376  1
  Sm  Sm1  1  0.25000006  0.00387424  0.70431129  1
  Sm  Sm2  1  0.25000000  0.50387098  0.79567976  1
  Sm  Sm3  1  0.74999996  0.49612600  0.20432246  1
  Ge  Ge0  1  0.75000005  0.81177741  0.91295004  1
  Ge  Ge1  1  0.24999995  0.68822075  0.41294945  1
  Ge  Ge2  1  0.24999996  0.18821707  0.08705152  1
  Ge  Ge3  1  0.75000006  0.31177903  0.58705631  1
  Pt  Pt0  1  0.75000003  0.20345181  0.91595085  1
  Pt  Pt1  1  0.25000000  0.29655817  0.41595356  1
  Pt  Pt2  1  0.24999997  0.79655288  0.08403842  1
  Pt  Pt3  1  0.75000000  0.70344644  0.58404257  1
loop_
_geom_bond_atom_site_label_1
_geom_bond_atom_site_label_2
_geom_bond_distance
_geom_bond_site_symmetry_2
Ge0 Pt2 2.564058 1_656
Ge0 Pt2 2.564059 1_556
Ge0 Pt3 2.627647 1_555
Ge0 Pt0 2.819549 1_565
Ge0 Sm1 3.050323 1_565
Ge0 Sm1 3.050323 1_665
Ge0 Sm3 3.178729 1_556
Ge0 Sm0 3.207376 1_556
Ge0 Sm2 3.251427 1_655
Ge0 Sm2 3.251428 1_555
Ge1 Pt3 2.564076 1_455
Ge1 Pt3 2.564077 1_555
Ge1 Pt2 2.627684 1_555
Ge1 Pt1 2.819464 1_555
Ge1 Sm3 3.050260 1_555
Ge1 Sm3 3.050261 1_455
Ge1 Sm1 3.178665 1_565
Ge1 Sm2 3.207309 1_555
Ge1 Sm0 3.251385 1_455
Ge1 Sm0 3.251385 1_555
Ge2 Pt0 2.564109 1_454
Ge2 Pt0 2.564110 1_554
Ge2 Pt1 2.627629 1_555
Ge2 Pt2 2.819476 1_545
Ge2 Sm0 3.050327 1_545
Ge2 Sm0 3.050327 1_445
Ge2 Sm2 3.178739 1_554
Ge2 Sm1 3.207343 1_554
Ge2 Sm3 3.251441 1_455
Ge2 Sm3 3.251441 1_555
Ge3 Pt1 2.564112 1_655
Ge3 Pt1 2.564113 1_555
Ge3 Pt0 2.627554 1_555
Ge3 Pt3 2.819500 1_555
Ge3 Sm2 3.050237 1_655
Ge3 Sm2 3.050237 1_555
Ge3 Sm0 3.178680 1_545
Ge3 Sm3 3.207325 1_555
Ge3 Sm1 3.251395 1_655
Ge3 Sm1 3.251395 1_555
Pt0 Sm3 3.046089 1_556
Pt0 Sm1 3.087013 1_555
Pt0 Sm1 3.087013 1_655
Pt0 Sm2 3.221382 1_655
Pt0 Sm2 3.221382 1_555
Pt0 Sm0 3.258932 1_546
Pt1 Sm1 3.046079 1_555
Pt1 Sm3 3.086955 1_555
Pt1 Sm3 3.086955 1_455
Pt1 Sm0 3.221426 1_545
Pt1 Sm0 3.221427 1_445
Pt1 Sm2 3.258751 1_555
Pt2 Sm2 3.046056 1_554
Pt2 Sm0 3.087051 1_455
Pt2 Sm0 3.087051 1_555
Pt2 Sm3 3.221447 1_555
Pt2 Sm3 3.221447 1_455
Pt2 Sm1 3.258801 1_564
Pt3 Sm0 3.045994 1_555
Pt3 Sm2 3.087005 1_655
Pt3 Sm2 3.087005 1_555
Pt3 Sm1 3.221411 1_565
Pt3 Sm1 3.221411 1_665
Pt3 Sm3 3.258735 1_555
