# generated using pymatgen
data_MgCr2(SbO3)4
_symmetry_space_group_name_H-M   'P 1'
_cell_length_a   5.01887247
_cell_length_b   5.01493213
_cell_length_c   9.59847449
_cell_angle_alpha   90.00794909
_cell_angle_beta   90.00200843
_cell_angle_gamma   90.95536294
_symmetry_Int_Tables_number   1
_chemical_formula_structural   MgCr2(SbO3)4
_chemical_formula_sum   'Mg1 Cr2 Sb4 O12'
_cell_volume   241.55334438
_cell_formula_units_Z   1
loop_
 _symmetry_equiv_pos_site_id
 _symmetry_equiv_pos_as_xyz
  1  'x, y, z'
loop_
 _atom_site_type_symbol
 _atom_site_label
 _atom_site_symmetry_multiplicity
 _atom_site_fract_x
 _atom_site_fract_y
 _atom_site_fract_z
 _atom_site_occupancy
  Mg  Mg0  1  0.00000800  0.50001700  0.98905800  1
  Cr  Cr0  1  0.00008600  0.00002500  0.00535600  1
  Cr  Cr1  1  0.49994600  0.49991400  0.49257300  1
  Sb  Sb0  1  0.99993200  0.99997500  0.33964300  1
  Sb  Sb1  1  0.49996900  0.50008900  0.80953200  1
  Sb  Sb2  1  0.50003200  0.49999900  0.16685700  1
  Sb  Sb3  1  0.99996000  0.99999300  0.66714700  1
  O  O0  1  0.14050500  0.78816600  0.83632100  1
  O  O1  1  0.18562200  0.80002000  0.51137500  1
  O  O2  1  0.18316500  0.74324300  0.13742700  1
  O  O3  1  0.33533100  0.30920000  0.33152800  1
  O  O4  1  0.30995600  0.27172800  0.01519300  1
  O  O5  1  0.30909600  0.28246700  0.65174500  1
  O  O6  1  0.66464400  0.69063600  0.33160200  1
  O  O7  1  0.69013500  0.72839700  0.01525900  1
  O  O8  1  0.69077500  0.71759000  0.65172900  1
  O  O9  1  0.85962200  0.21172000  0.83635500  1
  O  O10  1  0.81422900  0.19994600  0.51140300  1
  O  O11  1  0.81698700  0.25687500  0.13739600  1
loop_
_geom_bond_atom_site_label_1
_geom_bond_atom_site_label_2
_geom_bond_distance
_geom_bond_site_symmetry_2
Mg0 O4 1.962885 1_556
Mg0 O7 1.962910 1_456
Mg0 O11 2.078708 1_456
Mg0 O2 2.079174 1_556
Mg0 O9 2.168048 1_455
Mg0 O0 2.168258 1_555
Cr0 O11 2.036908 1_455
Cr0 O2 2.037011 1_545
Cr0 O4 2.052669 1_555
Cr0 O7 2.052779 1_445
Cr0 O9 2.069006 1_454
Cr0 O0 2.069418 1_544
Cr1 O6 1.989842 1_555
Cr1 O3 1.989954 1_555
Cr1 O5 2.099181 1_555
Cr1 O8 2.099341 1_555
Cr1 O10 2.205186 1_555
Cr1 O1 2.205769 1_555
O0 Sb3 2.070794 1_455
O0 Sb1 2.344114 1_555
O1 Sb3 2.034791 1_455
O1 Sb0 2.150044 1_455
O2 Sb2 2.040023 1_555
O2 Sb0 2.511893 1_455
O3 Sb2 2.017732 1_555
O3 Sb0 2.271001 1_445
O4 Sb2 2.074307 1_555
O4 Sb1 2.466193 1_554
O5 Sb3 2.088673 1_445
O5 Sb1 2.089760 1_555
O6 Sb2 2.017476 1_555
O6 Sb0 2.270935 1_555
O7 Sb2 2.074540 1_555
O7 Sb1 2.466562 1_554
O8 Sb3 2.088591 1_555
O8 Sb1 2.089676 1_555
O9 Sb3 2.070235 1_545
O9 Sb1 2.345841 1_555
O10 Sb3 2.034861 1_545
O10 Sb0 2.150154 1_545
O11 Sb2 2.040014 1_555
O11 Sb0 2.512245 1_545
