# generated using pymatgen
data_Sc2InC
_symmetry_space_group_name_H-M   'P 1'
_cell_length_a   6.70095345
_cell_length_b   6.70095345
_cell_length_c   30.65695736
_cell_angle_alpha   90.00000000
_cell_angle_beta   90.00000000
_cell_angle_gamma   120.00000960
_symmetry_Int_Tables_number   1
_chemical_formula_structural   Sc2InC
_chemical_formula_sum   'Sc32 In16 C16'
_cell_volume   1192.15532178
_cell_formula_units_Z   16
loop_
 _symmetry_equiv_pos_site_id
 _symmetry_equiv_pos_as_xyz
  1  'x, y, z'
loop_
 _atom_site_type_symbol
 _atom_site_label
 _atom_site_symmetry_multiplicity
 _atom_site_fract_x
 _atom_site_fract_y
 _atom_site_fract_z
 _atom_site_occupancy
  Sc  Sc0_0  1  0.16666650  0.33333350  0.04003523  1
  Sc  Sc0_1  1  0.16666650  0.33333350  0.54003522  1
  Sc  Sc0_2  1  0.16666650  0.83333350  0.04003523  1
  Sc  Sc0_3  1  0.16666650  0.83333350  0.54003522  1
  Sc  Sc0_4  1  0.66666650  0.33333350  0.04003523  1
  Sc  Sc0_5  1  0.66666650  0.33333350  0.54003522  1
  Sc  Sc0_6  1  0.66666650  0.83333350  0.04003523  1
  Sc  Sc0_7  1  0.66666650  0.83333350  0.54003522  1
  Sc  Sc1_0  1  0.16666650  0.33333350  0.20996477  1
  Sc  Sc1_1  1  0.16666650  0.33333350  0.70996477  1
  Sc  Sc1_2  1  0.16666650  0.83333350  0.20996477  1
  Sc  Sc1_3  1  0.16666650  0.83333350  0.70996477  1
  Sc  Sc1_4  1  0.66666650  0.33333350  0.20996477  1
  Sc  Sc1_5  1  0.66666650  0.33333350  0.70996477  1
  Sc  Sc1_6  1  0.66666650  0.83333350  0.20996477  1
  Sc  Sc1_7  1  0.66666650  0.83333350  0.70996477  1
  Sc  Sc2_0  1  0.33333350  0.16666650  0.29003522  1
  Sc  Sc2_1  1  0.33333350  0.16666650  0.79003522  1
  Sc  Sc2_2  1  0.33333350  0.66666650  0.29003522  1
  Sc  Sc2_3  1  0.33333350  0.66666650  0.79003522  1
  Sc  Sc2_4  1  0.83333350  0.16666650  0.29003522  1
  Sc  Sc2_5  1  0.83333350  0.16666650  0.79003522  1
  Sc  Sc2_6  1  0.83333350  0.66666650  0.29003522  1
  Sc  Sc2_7  1  0.83333350  0.66666650  0.79003522  1
  Sc  Sc3_0  1  0.33333350  0.16666650  0.45996477  1
  Sc  Sc3_1  1  0.33333350  0.16666650  0.95996477  1
  Sc  Sc3_2  1  0.33333350  0.66666650  0.45996477  1
  Sc  Sc3_3  1  0.33333350  0.66666650  0.95996477  1
  Sc  Sc3_4  1  0.83333350  0.16666650  0.45996477  1
  Sc  Sc3_5  1  0.83333350  0.16666650  0.95996477  1
  Sc  Sc3_6  1  0.83333350  0.66666650  0.45996477  1
  Sc  Sc3_7  1  0.83333350  0.66666650  0.95996477  1
  In  In0_0  1  0.16666650  0.33333350  0.37500000  1
  In  In0_1  1  0.16666650  0.33333350  0.87500000  1
  In  In0_2  1  0.16666650  0.83333350  0.37500000  1
  In  In0_3  1  0.16666650  0.83333350  0.87500000  1
  In  In0_4  1  0.66666650  0.33333350  0.37500000  1
  In  In0_5  1  0.66666650  0.33333350  0.87500000  1
  In  In0_6  1  0.66666650  0.83333350  0.37500000  1
  In  In0_7  1  0.66666650  0.83333350  0.87500000  1
  In  In1_0  1  0.33333350  0.16666650  0.12500000  1
  In  In1_1  1  0.33333350  0.16666650  0.62500000  1
  In  In1_2  1  0.33333350  0.66666650  0.12500000  1
  In  In1_3  1  0.33333350  0.66666650  0.62500000  1
  In  In1_4  1  0.83333350  0.16666650  0.12500000  1
  In  In1_5  1  0.83333350  0.16666650  0.62500000  1
  In  In1_6  1  0.83333350  0.66666650  0.12500000  1
  In  In1_7  1  0.83333350  0.66666650  0.62500000  1
  C  C0_0  1  0.00000000  0.00000000  0.00000000  1
  C  C0_1  1  0.00000000  0.00000000  0.50000000  1
  C  C0_2  1  0.00000000  0.50000000  0.00000000  1
  C  C0_3  1  0.00000000  0.50000000  0.50000000  1
  C  C0_4  1  0.50000000  0.00000000  0.00000000  1
  C  C0_5  1  0.50000000  0.00000000  0.50000000  1
  C  C0_6  1  0.50000000  0.50000000  0.00000000  1
  C  C0_7  1  0.50000000  0.50000000  0.50000000  1
  C  C1_0  1  0.00000000  0.00000000  0.25000000  1
  C  C1_1  1  0.00000000  0.00000000  0.75000000  1
  C  C1_2  1  0.00000000  0.50000000  0.25000000  1
  C  C1_3  1  0.00000000  0.50000000  0.75000000  1
  C  C1_4  1  0.50000000  0.00000000  0.25000000  1
  C  C1_5  1  0.50000000  0.00000000  0.75000000  1
  C  C1_6  1  0.50000000  0.50000000  0.25000000  1
  C  C1_7  1  0.50000000  0.50000000  0.75000000  1
loop_
_geom_bond_atom_site_label_1
_geom_bond_atom_site_label_2
_geom_bond_distance
_geom_bond_site_symmetry_2
In0_0 Sc2_4 3.244483 1_455
In0_0 Sc2_2 3.244483 1_555
In0_0 Sc3_2 3.244483 1_555
In0_0 Sc3_4 3.244483 1_455
In0_0 Sc2_0 3.244487 1_555
In0_0 Sc3_0 3.244487 1_555
In0_0 In0_6 3.350476 1_445
In0_0 In0_6 3.350476 1_555
In0_0 In0_4 3.350477 1_455
In0_0 In0_2 3.350477 1_545
In0_0 In0_2 3.350477 1_555
In0_0 In0_4 3.350477 1_555
In0_1 Sc2_3 3.244483 1_555
In0_1 Sc2_5 3.244483 1_455
In0_1 Sc3_3 3.244483 1_555
In0_1 Sc3_5 3.244483 1_455
In0_1 Sc2_1 3.244487 1_555
In0_1 Sc3_1 3.244487 1_555
In0_1 In0_7 3.350476 1_445
In0_1 In0_7 3.350476 1_555
In0_1 In0_3 3.350477 1_545
In0_1 In0_5 3.350477 1_455
In0_1 In0_5 3.350477 1_555
In0_1 In0_3 3.350477 1_555
In0_2 Sc2_6 3.244483 1_455
In0_2 Sc2_0 3.244483 1_565
In0_2 Sc3_6 3.244483 1_455
In0_2 Sc3_0 3.244483 1_565
In0_2 Sc2_2 3.244487 1_555
In0_2 Sc3_2 3.244487 1_555
In0_2 In0_4 3.350476 1_455
In0_2 In0_4 3.350476 1_565
In0_2 In0_6 3.350477 1_455
In0_2 In0_6 3.350477 1_555
In0_3 Sc2_7 3.244483 1_455
In0_3 Sc2_1 3.244483 1_565
In0_3 Sc3_7 3.244483 1_455
In0_3 Sc3_1 3.244483 1_565
In0_3 Sc2_3 3.244487 1_555
In0_3 Sc3_3 3.244487 1_555
In0_3 In0_5 3.350476 1_455
In0_3 In0_5 3.350476 1_565
In0_3 In0_7 3.350477 1_455
In0_3 In0_7 3.350477 1_555
In0_4 Sc2_0 3.244483 1_555
In0_4 Sc2_6 3.244483 1_555
In0_4 Sc3_0 3.244483 1_555
In0_4 Sc3_6 3.244483 1_555
In0_4 Sc2_4 3.244487 1_555
In0_4 Sc3_4 3.244487 1_555
In0_4 In0_6 3.350477 1_545
In0_4 In0_6 3.350477 1_555
In0_5 Sc2_1 3.244483 1_555
In0_5 Sc2_7 3.244483 1_555
In0_5 Sc3_1 3.244483 1_555
In0_5 Sc3_7 3.244483 1_555
In0_5 Sc2_5 3.244487 1_555
In0_5 Sc3_5 3.244487 1_555
In0_5 In0_7 3.350477 1_545
In0_5 In0_7 3.350477 1_555
In0_6 Sc2_4 3.244483 1_565
In0_6 Sc2_2 3.244483 1_555
In0_6 Sc3_4 3.244483 1_565
In0_6 Sc3_2 3.244483 1_555
In0_6 Sc2_6 3.244487 1_555
In0_6 Sc3_6 3.244487 1_555
In0_7 Sc2_5 3.244483 1_565
In0_7 Sc2_3 3.244483 1_555
In0_7 Sc3_5 3.244483 1_565
In0_7 Sc3_3 3.244483 1_555
In0_7 Sc2_7 3.244487 1_555
In0_7 Sc3_7 3.244487 1_555
In1_0 Sc1_2 3.244483 1_545
In1_0 Sc0_2 3.244483 1_545
In1_0 Sc1_4 3.244483 1_555
In1_0 Sc0_4 3.244483 1_555
In1_0 Sc1_0 3.244487 1_555
In1_0 Sc0_0 3.244487 1_555
In1_0 In1_6 3.350476 1_445
In1_0 In1_6 3.350476 1_555
In1_0 In1_4 3.350477 1_555
In1_0 In1_2 3.350477 1_545
In1_0 In1_2 3.350477 1_555
In1_0 In1_4 3.350477 1_455
In1_1 Sc1_3 3.244483 1_545
In1_1 Sc1_5 3.244483 1_555
In1_1 Sc0_5 3.244483 1_555
In1_1 Sc0_3 3.244483 1_545
In1_1 Sc1_1 3.244487 1_555
In1_1 Sc0_1 3.244487 1_555
In1_1 In1_7 3.350476 1_445
In1_1 In1_7 3.350476 1_555
In1_1 In1_5 3.350477 1_555
In1_1 In1_3 3.350477 1_545
In1_1 In1_3 3.350477 1_555
In1_1 In1_5 3.350477 1_455
In1_2 Sc1_0 3.244483 1_555
In1_2 Sc1_6 3.244483 1_555
In1_2 Sc0_0 3.244483 1_555
In1_2 Sc0_6 3.244483 1_555
In1_2 Sc1_2 3.244487 1_555
In1_2 Sc0_2 3.244487 1_555
In1_2 In1_4 3.350476 1_455
In1_2 In1_4 3.350476 1_565
In1_2 In1_6 3.350477 1_455
In1_2 In1_6 3.350477 1_555
In1_3 Sc1_1 3.244483 1_555
In1_3 Sc1_7 3.244483 1_555
In1_3 Sc0_7 3.244483 1_555
In1_3 Sc0_1 3.244483 1_555
In1_3 Sc1_3 3.244487 1_555
In1_3 Sc0_3 3.244487 1_555
In1_3 In1_5 3.350476 1_455
In1_3 In1_5 3.350476 1_565
In1_3 In1_7 3.350477 1_455
In1_3 In1_7 3.350477 1_555
In1_4 Sc1_6 3.244483 1_545
In1_4 Sc0_6 3.244483 1_545
In1_4 Sc1_0 3.244483 1_655
In1_4 Sc0_0 3.244483 1_655
In1_4 Sc1_4 3.244487 1_555
In1_4 Sc0_4 3.244487 1_555
In1_4 In1_6 3.350477 1_545
In1_4 In1_6 3.350477 1_555
In1_5 Sc1_7 3.244483 1_545
In1_5 Sc1_1 3.244483 1_655
In1_5 Sc0_7 3.244483 1_545
In1_5 Sc0_1 3.244483 1_655
In1_5 Sc1_5 3.244487 1_555
In1_5 Sc0_5 3.244487 1_555
In1_5 In1_7 3.350477 1_545
In1_5 In1_7 3.350477 1_555
In1_6 Sc1_2 3.244483 1_655
In1_6 Sc1_4 3.244483 1_555
In1_6 Sc0_2 3.244483 1_655
In1_6 Sc0_4 3.244483 1_555
In1_6 Sc1_6 3.244487 1_555
In1_6 Sc0_6 3.244487 1_555
In1_7 Sc1_3 3.244483 1_655
In1_7 Sc1_5 3.244483 1_555
In1_7 Sc0_3 3.244483 1_655
In1_7 Sc0_5 3.244483 1_555
In1_7 Sc1_7 3.244487 1_555
In1_7 Sc0_7 3.244487 1_555
C0_0 Sc0_2 2.290917 1_545
C0_0 Sc3_5 2.290917 1_454
C0_0 Sc3_7 2.290919 1_444
C0_0 Sc0_0 2.290919 1_555
C0_0 Sc3_1 2.290919 1_554
C0_0 Sc0_6 2.290919 1_445
C0_1 Sc0_3 2.290917 1_545
C0_1 Sc3_4 2.290917 1_455
C0_1 Sc3_6 2.290919 1_445
C0_1 Sc3_0 2.290919 1_555
C0_1 Sc0_7 2.290919 1_445
C0_1 Sc0_1 2.290919 1_555
C0_2 Sc0_0 2.290917 1_555
C0_2 Sc3_7 2.290917 1_454
C0_2 Sc0_4 2.290919 1_455
C0_2 Sc3_3 2.290919 1_554
C0_2 Sc0_2 2.290919 1_555
C0_2 Sc3_5 2.290919 1_454
C0_3 Sc0_1 2.290917 1_555
C0_3 Sc3_6 2.290917 1_455
C0_3 Sc0_5 2.290919 1_455
C0_3 Sc3_2 2.290919 1_555
C0_3 Sc0_3 2.290919 1_555
C0_3 Sc3_4 2.290919 1_455
C0_4 Sc0_6 2.290917 1_545
C0_4 Sc3_1 2.290917 1_554
C0_4 Sc3_3 2.290919 1_544
C0_4 Sc0_4 2.290919 1_555
C0_4 Sc3_5 2.290919 1_554
C0_4 Sc0_2 2.290919 1_545
C0_5 Sc0_7 2.290917 1_545
C0_5 Sc3_0 2.290917 1_555
C0_5 Sc3_4 2.290919 1_555
C0_5 Sc3_2 2.290919 1_545
C0_5 Sc0_3 2.290919 1_545
C0_5 Sc0_5 2.290919 1_555
C0_6 Sc0_4 2.290917 1_555
C0_6 Sc3_3 2.290917 1_554
C0_6 Sc0_0 2.290919 1_555
C0_6 Sc3_7 2.290919 1_554
C0_6 Sc3_1 2.290919 1_554
C0_6 Sc0_6 2.290919 1_555
C0_7 Sc3_2 2.290917 1_555
C0_7 Sc0_5 2.290917 1_555
C0_7 Sc0_1 2.290919 1_555
C0_7 Sc3_6 2.290919 1_555
C0_7 Sc3_0 2.290919 1_555
C0_7 Sc0_7 2.290919 1_555
C1_0 Sc1_2 2.290917 1_545
C1_0 Sc2_4 2.290917 1_455
C1_0 Sc2_6 2.290919 1_445
C1_0 Sc1_6 2.290919 1_445
C1_0 Sc2_0 2.290919 1_555
C1_0 Sc1_0 2.290919 1_555
C1_1 Sc1_3 2.290917 1_545
C1_1 Sc2_5 2.290917 1_455
C1_1 Sc2_7 2.290919 1_445
C1_1 Sc1_7 2.290919 1_445
C1_1 Sc2_1 2.290919 1_555
C1_1 Sc1_1 2.290919 1_555
C1_2 Sc1_0 2.290917 1_555
C1_2 Sc2_6 2.290917 1_455
C1_2 Sc2_4 2.290919 1_455
C1_2 Sc2_2 2.290919 1_555
C1_2 Sc1_4 2.290919 1_455
C1_2 Sc1_2 2.290919 1_555
C1_3 Sc1_1 2.290917 1_555
C1_3 Sc2_7 2.290917 1_455
C1_3 Sc1_5 2.290919 1_455
C1_3 Sc2_3 2.290919 1_555
C1_3 Sc2_5 2.290919 1_455
C1_3 Sc1_3 2.290919 1_555
C1_4 Sc1_6 2.290917 1_545
C1_4 Sc2_0 2.290917 1_555
C1_4 Sc2_4 2.290919 1_555
C1_4 Sc2_2 2.290919 1_545
C1_4 Sc1_2 2.290919 1_545
C1_4 Sc1_4 2.290919 1_555
C1_5 Sc1_7 2.290917 1_545
C1_5 Sc2_1 2.290917 1_555
C1_5 Sc2_3 2.290919 1_545
C1_5 Sc2_5 2.290919 1_555
C1_5 Sc1_3 2.290919 1_545
C1_5 Sc1_5 2.290919 1_555
C1_6 Sc2_2 2.290917 1_555
C1_6 Sc1_4 2.290917 1_555
C1_6 Sc2_6 2.290919 1_555
C1_6 Sc2_0 2.290919 1_555
C1_6 Sc1_0 2.290919 1_555
C1_6 Sc1_6 2.290919 1_555
C1_7 Sc1_5 2.290917 1_555
C1_7 Sc2_3 2.290917 1_555
C1_7 Sc1_1 2.290919 1_555
C1_7 Sc2_1 2.290919 1_555
C1_7 Sc2_7 2.290919 1_555
C1_7 Sc1_7 2.290919 1_555
