# generated using pymatgen
data_Na7Y2Si3Ge2(PO8)3
_symmetry_space_group_name_H-M   'P 1'
_cell_length_a   9.05636511
_cell_length_b   9.06165914
_cell_length_c   22.28139548
_cell_angle_alpha   89.86469420
_cell_angle_beta   89.41873210
_cell_angle_gamma   119.75861089
_symmetry_Int_Tables_number   1
_chemical_formula_structural   Na7Y2Si3Ge2(PO8)3
_chemical_formula_sum   'Na21 Y6 Si9 Ge6 P9 O72'
_cell_volume   1587.25898096
_cell_formula_units_Z   3
loop_
 _symmetry_equiv_pos_site_id
 _symmetry_equiv_pos_as_xyz
  1  'x, y, z'
loop_
 _atom_site_type_symbol
 _atom_site_label
 _atom_site_symmetry_multiplicity
 _atom_site_fract_x
 _atom_site_fract_y
 _atom_site_fract_z
 _atom_site_occupancy
  Na  Na0  1  0.62361583  0.00215049  0.25480343  1
  Na  Na1  1  0.37438509  0.37717713  0.24776176  1
  Na  Na2  1  0.00063554  0.61333647  0.25076940  1
  Na  Na3  1  0.63432996  0.63476415  0.74519967  1
  Na  Na4  1  0.99233002  0.36618293  0.74530719  1
  Na  Na5  1  0.37799413  0.00335636  0.74215258  1
  Na  Na6  1  0.02776157  0.69297587  0.58248331  1
  Na  Na7  1  0.66363337  0.96815211  0.58085523  1
  Na  Na8  1  0.66848167  0.68565936  0.08231649  1
  Na  Na9  1  0.02230380  0.33797885  0.08765291  1
  Na  Na10  1  0.95853839  0.66350058  0.92366121  1
  Na  Na11  1  0.70050174  0.03212110  0.91969563  1
  Na  Na12  1  0.34143171  0.30255422  0.92138209  1
  Na  Na13  1  0.97065093  0.30509198  0.41671309  1
  Na  Na14  1  0.33408679  0.03074001  0.41960657  1
  Na  Na15  1  0.99947710  0.00003024  0.49959253  1
  Na  Na16  1  0.01182733  0.99581110  0.00666852  1
  Na  Na17  1  0.66669092  0.33336016  0.83285127  1
  Na  Na18  1  0.67640131  0.34752041  0.34153806  1
  Na  Na19  1  0.32315488  0.66842411  0.16272513  1
  Na  Na20  1  0.33425341  0.65600721  0.65718519  1
  Y  Y0  1  0.99542753  0.99785063  0.85440179  1
  Y  Y1  1  0.67018279  0.33370116  0.67158964  1
  Y  Y2  1  0.67145778  0.33417432  0.18265242  1
  Y  Y3  1  0.66396592  0.33763237  0.99274089  1
  Y  Y4  1  0.32743898  0.66057121  0.32104256  1
  Y  Y5  1  0.33964205  0.67050379  0.81076320  1
  Si  Si0  1  0.99821268  0.27264903  0.25297649  1
  Si  Si1  1  0.71411796  0.00384495  0.74360905  1
  Si  Si2  1  0.98018213  0.33919743  0.57909420  1
  Si  Si3  1  0.36266256  0.02936974  0.58060760  1
  Si  Si4  1  0.98969195  0.65704099  0.08477145  1
  Si  Si5  1  0.34937074  0.33310544  0.08411857  1
  Si  Si6  1  0.62274094  0.66281189  0.91997082  1
  Si  Si7  1  0.63068265  0.96770895  0.41816108  1
  Si  Si8  1  0.02094411  0.66319287  0.41833636  1
  Ge  Ge0  1  0.98140909  0.98666496  0.35661821  1
  Ge  Ge1  1  0.01032553  0.01586110  0.64268764  1
  Ge  Ge2  1  0.01006785  0.00561757  0.14831485  1
  Ge  Ge3  1  0.66732006  0.32749657  0.48568575  1
  Ge  Ge4  1  0.33338656  0.66554657  0.02076315  1
  Ge  Ge5  1  0.32929372  0.67382692  0.51265410  1
  P  P0  1  0.27236937  0.99951839  0.25301326  1
  P  P1  1  0.72567760  0.72450582  0.25073246  1
  P  P2  1  0.28889244  0.28787110  0.74501667  1
  P  P3  1  0.99843120  0.71231402  0.74342663  1
  P  P4  1  0.65964930  0.63193102  0.57967102  1
  P  P5  1  0.66538816  0.01501704  0.08507285  1
  P  P6  1  0.04466629  0.37891576  0.92089275  1
  P  P7  1  0.33757769  0.95571036  0.92033514  1
  P  P8  1  0.34103337  0.37073425  0.41941311  1
  O  O0  1  0.18789511  0.01729968  0.31162493  1
  O  O1  1  0.83216562  0.80612220  0.30776776  1
  O  O2  1  0.98137981  0.16161455  0.31467670  1
  O  O3  1  0.21907880  0.19554422  0.80540036  1
  O  O4  1  0.98648833  0.78981730  0.80342908  1
  O  O5  1  0.80935028  0.02386307  0.80708939  1
  O  O6  1  0.82137811  0.98327147  0.68516068  1
  O  O7  1  0.17447562  0.18599857  0.69170737  1
  O  O8  1  0.01742913  0.82654406  0.68805665  1
  O  O9  1  0.81240057  0.82714427  0.19306748  1
  O  O10  1  0.00930138  0.17578499  0.19237948  1
  O  O11  1  0.16573477  0.97852594  0.19660492  1
  O  O12  1  0.92451678  0.39362910  0.64089441  1
  O  O13  1  0.47112438  0.08823360  0.64143718  1
  O  O14  1  0.63049790  0.54718043  0.64176712  1
  O  O15  1  0.91145335  0.52363301  0.14156763  1
  O  O16  1  0.63547851  0.09685798  0.14072784  1
  O  O17  1  0.47969375  0.38035065  0.14006146  1
  O  O18  1  0.42053884  0.29662949  0.02286150  1
  O  O19  1  0.86275846  0.58096765  0.02774561  1
  O  O20  1  0.70529109  0.12910918  0.02928637  1
  O  O21  1  0.46701097  0.16320296  0.52505153  1
  O  O22  1  0.69442801  0.52436490  0.53268959  1
  O  O23  1  0.83042030  0.29272207  0.52788563  1
  O  O24  1  0.51333969  0.67913355  0.97761833  1
  O  O25  1  0.15289293  0.47796327  0.97570195  1
  O  O26  1  0.31861753  0.83421011  0.97241450  1
  O  O27  1  0.52775976  0.83775176  0.47423889  1
  O  O28  1  0.30519062  0.47497136  0.46702419  1
  O  O29  1  0.16609307  0.71020665  0.47096791  1
  O  O30  1  0.08146329  0.60901447  0.35722439  1
  O  O31  1  0.52163782  0.90484155  0.35717136  1
  O  O32  1  0.37176261  0.45913161  0.35757172  1
  O  O33  1  0.11645399  0.47337674  0.86124241  1
  O  O34  1  0.35054310  0.88462508  0.85913655  1
  O  O35  1  0.52693805  0.64315806  0.85692279  1
  O  O36  1  0.01801921  0.84597987  0.41027687  1
  O  O37  1  0.82541347  0.99120314  0.41326695  1
  O  O38  1  0.17627357  0.19084438  0.41831843  1
  O  O39  1  0.03963706  0.20594461  0.92257585  1
  O  O40  1  0.17723702  0.97462104  0.92316002  1
  O  O41  1  0.80856766  0.83520557  0.92487799  1
  O  O42  1  0.98559769  0.15873910  0.58598819  1
  O  O43  1  0.16618252  0.00190469  0.58808301  1
  O  O44  1  0.82647675  0.81043788  0.58001535  1
  O  O45  1  0.99499206  0.83848997  0.09658738  1
  O  O46  1  0.82502568  0.99426335  0.09245591  1
  O  O47  1  0.15674550  0.16910404  0.09388167  1
  O  O48  1  0.69388976  0.17339597  0.74242486  1
  O  O49  1  0.46969643  0.31423182  0.74022296  1
  O  O50  1  0.83540416  0.53697525  0.74216965  1
  O  O51  1  0.70526338  0.54463532  0.24921891  1
  O  O52  1  0.82741345  0.29175149  0.25337456  1
  O  O53  1  0.44998552  0.16061357  0.24949989  1
  O  O54  1  0.64611111  0.49527385  0.92084676  1
  O  O55  1  0.86263845  0.34975652  0.92515277  1
  O  O56  1  0.49977780  0.13011992  0.92419211  1
  O  O57  1  0.65224057  0.16020881  0.42841172  1
  O  O58  1  0.49773399  0.34725752  0.42992044  1
  O  O59  1  0.83624574  0.49124154  0.43319062  1
  O  O60  1  0.33018037  0.50572648  0.07682588  1
  O  O61  1  0.17546606  0.67097862  0.07300223  1
  O  O62  1  0.50765760  0.83603206  0.07786886  1
  O  O63  1  0.34236245  0.83784365  0.56985031  1
  O  O64  1  0.50448434  0.65627827  0.56848647  1
  O  O65  1  0.16387012  0.51039429  0.56404980  1
  O  O66  1  0.29365350  0.83994954  0.25326407  1
  O  O67  1  0.54803284  0.70947368  0.25302152  1
  O  O68  1  0.16982394  0.46112429  0.25057269  1
  O  O69  1  0.29304493  0.45980822  0.74324194  1
  O  O70  1  0.15760558  0.69197601  0.74213112  1
  O  O71  1  0.52820592  0.83160607  0.74000860  1
loop_
_geom_bond_atom_site_label_1
_geom_bond_atom_site_label_2
_geom_bond_distance
_geom_bond_site_symmetry_2
Na0 O52 2.341911 1_555
Na0 O67 2.388067 1_545
Na0 O31 2.443835 1_545
Na0 O66 2.594888 1_545
Na0 O53 2.606327 1_555
Na0 O16 2.664818 1_555
Na1 O68 2.326258 1_555
Na1 O53 2.378097 1_555
Na1 O32 2.561919 1_555
Na1 O17 2.568079 1_555
Na1 O51 2.602183 1_555
Na1 O67 2.618881 1_555
Na2 O66 2.419909 1_555
Na2 O51 2.427593 1_455
Na2 O30 2.495363 1_555
Na2 O68 2.519536 1_555
Na2 O52 2.532895 1_455
Na2 O15 2.575047 1_455
Na3 O50 2.388613 1_555
Na3 O71 2.412842 1_555
Na3 O14 2.434192 1_555
Na3 O49 2.525399 1_555
Na3 O35 2.678387 1_555
Na3 O69 2.684615 1_555
Na4 O48 2.382842 1_555
Na4 O69 2.417096 1_655
Na4 O12 2.455471 1_555
Na4 O70 2.563457 1_655
Na4 O50 2.569986 1_555
Na4 O33 2.804801 1_655
Na5 O13 2.376615 1_555
Na5 O48 2.486613 1_555
Na5 O49 2.510694 1_555
Na5 O70 2.520851 1_545
Na5 O71 2.525048 1_545
Na5 O34 2.778784 1_545
Na6 O43 2.438215 1_565
Na6 O63 2.487820 1_555
Na6 O44 2.527223 1_455
Na6 O65 2.538288 1_555
Na6 O8 2.669930 1_555
Na6 O12 2.714230 1_455
Na6 O29 2.740164 1_555
Na6 O22 2.859328 1_455
Na7 O64 2.471509 1_555
Na7 O44 2.511894 1_555
Na7 O42 2.550790 1_565
Na7 O63 2.554451 1_555
Na7 O27 2.680095 1_555
Na7 O6 2.708418 1_555
Na7 O23 2.803958 1_565
Na7 O13 2.808579 1_565
Na8 O46 2.440292 1_555
Na8 O62 2.441381 1_555
Na8 O45 2.592069 1_555
Na8 O19 2.663283 1_555
Na8 O60 2.666420 1_555
Na8 O24 2.721087 1_554
Na8 O17 2.734169 1_555
Na8 O9 2.802390 1_555
Na9 O47 2.386522 1_555
Na9 O60 2.433181 1_555
Na9 O15 2.634922 1_455
Na9 O61 2.639550 1_555
Na9 O46 2.715684 1_445
Na9 O10 2.724968 1_555
Na9 O25 2.768731 1_554
Na9 O20 2.865188 1_455
Na10 O19 2.448915 1_556
Na10 O54 2.460872 1_555
Na10 O40 2.515461 1_655
Na10 O41 2.522618 1_555
Na10 O55 2.527074 1_555
Na10 O4 2.869691 1_555
Na11 O56 2.387962 1_555
Na11 O41 2.426949 1_545
Na11 O55 2.503052 1_555
Na11 O20 2.590617 1_556
Na11 O39 2.668392 1_655
Na11 O5 2.701200 1_555
Na12 O18 2.387301 1_556
Na12 O39 2.420837 1_555
Na12 O54 2.424730 1_555
Na12 O40 2.579727 1_545
Na12 O56 2.593773 1_555
Na12 O3 2.801730 1_555
Na13 O37 2.472951 1_545
Na13 O57 2.516327 1_555
Na13 O38 2.540828 1_655
Na13 O59 2.548312 1_555
Na13 O2 2.646424 1_555
Na13 O23 2.748614 1_555
Na13 O30 2.749714 1_655
Na13 O28 2.872761 1_655
Na14 O38 2.491453 1_555
Na14 O58 2.503199 1_555
Na14 O36 2.509204 1_545
Na14 O57 2.524632 1_555
Na14 O21 2.654471 1_555
Na14 O0 2.731741 1_555
Na14 O29 2.760990 1_545
Na14 O31 2.829308 1_545
Na15 O44 2.423589 1_545
Na15 O42 2.444877 1_555
Na15 O38 2.451703 1_655
Na15 O37 2.475507 1_545
Na15 O36 2.485222 1_645
Na15 O43 2.490439 1_655
Na16 O45 2.415405 1_455
Na16 O40 2.444122 1_554
Na16 O47 2.446387 1_565
Na16 O41 2.499780 1_454
Na16 O46 2.535073 1_455
Na16 O39 2.587956 1_564
Na17 O54 2.511824 1_555
Na17 O48 2.565061 1_555
Na17 O50 2.634878 1_555
Na17 O56 2.641052 1_555
Na17 O55 2.685995 1_555
Na17 O49 2.691087 1_555
Na18 O59 2.482555 1_555
Na18 O57 2.506571 1_555
Na18 O58 2.535301 1_555
Na18 O52 2.573118 1_555
Na18 O51 2.645430 1_555
Na18 O53 2.816533 1_555
Na19 O61 2.422990 1_555
Na19 O60 2.438204 1_555
Na19 O62 2.465083 1_555
Na19 O68 2.574157 1_555
Na19 O66 2.640643 1_555
Na19 O67 2.769209 1_555
Na20 O64 2.493401 1_555
Na20 O69 2.507500 1_555
Na20 O71 2.515539 1_555
Na20 O63 2.523681 1_555
Na20 O65 2.546607 1_555
Na20 O70 2.589791 1_555
Ge0 O2 1.838485 1_565
Ge0 O1 1.879173 1_555
Ge0 O36 1.893414 1_655
Ge0 O37 1.900653 1_555
Ge0 O0 2.006082 1_665
Ge0 O38 2.290754 1_665
Ge1 O6 1.837147 1_445
Ge1 O7 1.882971 1_555
Ge1 O42 1.899554 1_455
Ge1 O43 1.905699 1_555
Ge1 O8 2.017857 1_545
Ge1 O44 2.273777 1_445
Ge2 O10 1.832872 1_555
Ge2 O47 1.853526 1_555
Ge2 O45 1.856551 1_445
Ge2 O11 1.891704 1_545
Ge2 O9 1.973995 1_445
Ge2 O46 2.059066 1_445
Ge3 O21 1.886051 1_555
Ge3 O59 1.900609 1_555
Ge3 O23 1.911558 1_555
Ge3 O57 1.937093 1_555
Ge3 O22 1.979622 1_555
Ge3 O58 2.060438 1_555
Ge4 O24 1.834057 1_554
Ge4 O61 1.854464 1_555
Ge4 O60 1.899367 1_555
Ge4 O26 1.926762 1_554
Ge4 O25 1.962786 1_554
Ge4 O62 2.031299 1_555
Ge5 O27 1.866045 1_555
Ge5 O65 1.871842 1_555
Ge5 O29 1.914675 1_555
Ge5 O63 1.919504 1_555
Ge5 O28 1.987731 1_555
Ge5 O64 2.092778 1_555
O0 P0 1.555579 1_545
O1 P1 1.553481 1_555
O2 Si0 1.662085 1_555
O3 P2 1.536951 1_555
O3 Y0 2.201757 1_445
O4 P3 1.539236 1_555
O4 Y0 2.170403 1_555
O5 Si1 1.627271 1_555
O5 Y0 2.106159 1_545
O6 Si1 1.682146 1_565
O7 P2 1.554786 1_555
O8 P3 1.560768 1_455
O9 P1 1.543205 1_555
O10 Si0 1.641304 1_455
O11 P0 1.546572 1_555
O12 Si2 1.621575 1_555
O12 Y1 2.189211 1_555
O13 Si3 1.611429 1_555
O13 Y1 2.167941 1_555
O14 P4 1.536265 1_555
O14 Y1 2.236484 1_555
O15 Si4 1.639890 1_555
O15 Y2 2.181168 1_555
O16 P5 1.535605 1_555
O16 Y2 2.218878 1_555
O17 Si5 1.631190 1_555
O17 Y2 2.201063 1_555
O18 Si5 1.607283 1_555
O18 Y3 2.145750 1_554
O19 Si4 1.630418 1_555
O19 Y3 2.192601 1_554
O20 P5 1.535725 1_555
O20 Y3 2.252669 1_554
O21 Si3 1.651549 1_555
O22 P4 1.564611 1_555
O23 Si2 1.668960 1_555
O24 Si6 1.665507 1_555
O25 P6 1.553646 1_555
O26 P7 1.546109 1_555
O27 Si7 1.642140 1_555
O28 P8 1.557262 1_555
O29 Si8 1.662050 1_555
O30 Si8 1.628088 1_555
O30 Y4 2.181571 1_555
O31 Si7 1.618303 1_555
O31 Y4 2.193939 1_555
O32 P8 1.543842 1_555
O32 Y4 2.209657 1_555
O33 P6 1.531834 1_555
O33 Y5 2.213962 1_555
O34 P7 1.537556 1_555
O34 Y5 2.181302 1_555
O35 Si6 1.621872 1_555
O35 Y5 2.108986 1_555
O36 Si8 1.678899 1_555
O37 Si7 1.670513 1_555
O38 P8 1.571828 1_555
O39 P6 1.545659 1_555
O39 Y0 2.302147 1_445
O40 P7 1.545039 1_555
O40 Y0 2.344401 1_455
O41 Si6 1.636852 1_555
O41 Y0 2.227349 1_555
O42 Si2 1.666923 1_555
O43 Si3 1.676336 1_555
O44 P4 1.572737 1_555
O45 Si4 1.642882 1_555
O46 P5 1.557936 1_565
O47 Si5 1.648122 1_555
O48 Si1 1.635278 1_555
O48 Y1 2.225519 1_555
O49 P2 1.535477 1_555
O49 Y1 2.300175 1_555
O50 P3 1.541900 1_555
O50 Y1 2.330322 1_555
O51 P1 1.547004 1_555
O51 Y2 2.318121 1_555
O52 Si0 1.639580 1_555
O52 Y2 2.281890 1_555
O53 P0 1.546116 1_545
O53 Y2 2.347730 1_555
O54 Si6 1.633689 1_555
O54 Y3 2.203764 1_555
O55 P6 1.536462 1_655
O55 Y3 2.294623 1_555
O56 P7 1.536736 1_545
O56 Y3 2.315985 1_555
O57 Si7 1.672667 1_545
O58 P8 1.555708 1_555
O59 Si8 1.653593 1_655
O60 Si5 1.665135 1_555
O61 Si4 1.641728 1_455
O62 P5 1.550103 1_565
O63 Si3 1.670174 1_565
O64 P4 1.549214 1_555
O65 Si2 1.646435 1_455
O66 P0 1.550693 1_555
O66 Y4 2.346904 1_555
O67 P1 1.546028 1_555
O67 Y4 2.353957 1_555
O68 Si0 1.642603 1_455
O68 Y4 2.295055 1_555
O69 P2 1.540119 1_555
O69 Y5 2.305077 1_555
O70 P3 1.541347 1_455
O70 Y5 2.337175 1_555
O71 Si1 1.634602 1_565
O71 Y5 2.234398 1_555
