# generated using pymatgen
data_La2MgTi3(AgO5)2
_symmetry_space_group_name_H-M   'P 1'
_cell_length_a   3.89481740
_cell_length_b   3.89481705
_cell_length_c   18.99945370
_cell_angle_alpha   95.88303790
_cell_angle_beta   95.88303570
_cell_angle_gamma   90.00000547
_symmetry_Int_Tables_number   1
_chemical_formula_structural   La2MgTi3(AgO5)2
_chemical_formula_sum   'La2 Mg1 Ti3 Ag2 O10'
_cell_volume   285.17012715
_cell_formula_units_Z   1
loop_
 _symmetry_equiv_pos_site_id
 _symmetry_equiv_pos_as_xyz
  1  'x, y, z'
loop_
 _atom_site_type_symbol
 _atom_site_label
 _atom_site_symmetry_multiplicity
 _atom_site_fract_x
 _atom_site_fract_y
 _atom_site_fract_z
 _atom_site_occupancy
  La  La0  1  0.41443212  0.41443212  0.82886324  1
  La  La1  1  0.58556788  0.58556788  0.17113676  1
  Mg  Mg0  1  0.50000000  0.50000000  -0.00000000  1
  Ti  Ti0  1  0.85972136  0.85972136  0.71944372  1
  Ti  Ti1  1  0.14027864  0.14027864  0.28055628  1
  Ti  Ti2  1  -0.00000000  -0.00000000  -0.00000000  1
  Ag  Ag0  1  0.25599629  0.25599629  0.51199259  1
  Ag  Ag1  1  0.74400371  0.74400371  0.48800741  1
  O  O0  1  0.81588597  0.81588597  0.63177194  1
  O  O1  1  0.18411403  0.18411403  0.36822806  1
  O  O2  1  0.87815232  0.37815232  0.75630464  1
  O  O3  1  0.37815232  0.87815232  0.75630464  1
  O  O4  1  0.12184768  0.62184768  0.24369536  1
  O  O5  1  0.62184768  0.12184768  0.24369536  1
  O  O6  1  0.94584959  0.94584959  0.89170019  1
  O  O7  1  0.50000000  -0.00000000  -0.00000000  1
  O  O8  1  -0.00000000  0.50000000  -0.00000000  1
  O  O9  1  0.05415041  0.05415041  0.10829981  1
loop_
_geom_bond_atom_site_label_1
_geom_bond_atom_site_label_2
_geom_bond_distance
_geom_bond_site_symmetry_2
La0 O3 2.377588 1_555
La0 O2 2.377588 1_555
La0 O3 2.377592 1_545
La0 O2 2.377592 1_455
La1 O5 2.377588 1_555
La1 O4 2.377588 1_555
La1 O5 2.377592 1_565
La1 O4 2.377592 1_655
Mg0 O7 1.947409 1_555
Mg0 O7 1.947409 1_565
Mg0 O8 1.947409 1_655
Mg0 O8 1.947409 1_555
Ag0 O1 2.702599 1_555
Ag1 O0 2.702599 1_555
O0 Ti0 1.648123 1_555
O1 Ti1 1.648123 1_555
O2 Ti0 2.067017 1_555
O2 Ti0 2.067021 1_545
O3 Ti0 2.067017 1_555
O3 Ti0 2.067021 1_455
O4 Ti1 2.067017 1_555
O4 Ti1 2.067021 1_565
O5 Ti1 2.067017 1_555
O5 Ti1 2.067021 1_655
O6 Ti2 2.035905 1_666
O7 Ti2 1.947409 1_555
O7 Ti2 1.947409 1_655
O8 Ti2 1.947409 1_565
O8 Ti2 1.947409 1_555
O9 Ti2 2.035905 1_555
