# generated using pymatgen
data_Na14La4Zn4Si5S7O48
_symmetry_space_group_name_H-M   'P 1'
_cell_length_a   19.07770936
_cell_length_b   9.43992347
_cell_length_c   22.93926429
_cell_angle_alpha   90.08486607
_cell_angle_beta   90.57596428
_cell_angle_gamma   119.92192924
_symmetry_Int_Tables_number   1
_chemical_formula_structural   Na14La4Zn4Si5S7O48
_chemical_formula_sum   'Na42 La12 Zn12 Si15 S21 O144'
_cell_volume   3580.23716021
_cell_formula_units_Z   3
loop_
 _symmetry_equiv_pos_site_id
 _symmetry_equiv_pos_as_xyz
  1  'x, y, z'
loop_
 _atom_site_type_symbol
 _atom_site_label
 _atom_site_symmetry_multiplicity
 _atom_site_fract_x
 _atom_site_fract_y
 _atom_site_fract_z
 _atom_site_occupancy
  Na  Na0  1  0.80981511  0.98521661  0.25660437  1
  Na  Na1  1  0.18372699  0.34969688  0.25722808  1
  Na  Na2  1  0.69040379  0.36926648  0.25525047  1
  Na  Na3  1  0.99716439  0.64195035  0.24277793  1
  Na  Na4  1  0.51376630  0.65357136  0.24398868  1
  Na  Na5  1  0.31876486  0.62821099  0.75966973  1
  Na  Na6  1  0.01313940  0.37108442  0.74567845  1
  Na  Na7  1  0.49500675  0.36265000  0.74289737  1
  Na  Na8  1  0.19289980  0.02445592  0.75286905  1
  Na  Na9  1  0.67007450  0.99455077  0.75200835  1
  Na  Na10  1  0.14921722  0.33210147  0.58167859  1
  Na  Na11  1  0.65085813  0.32323231  0.57917922  1
  Na  Na12  1  0.33078881  0.98768931  0.59392455  1
  Na  Na13  1  0.83241908  0.99273293  0.58340951  1
  Na  Na14  1  0.15741405  0.99218385  0.06824712  1
  Na  Na15  1  0.64517447  0.96412510  0.07340087  1
  Na  Na16  1  0.33442062  0.67216146  0.07476493  1
  Na  Na17  1  0.82830744  0.67139053  0.08567695  1
  Na  Na18  1  0.47972036  0.67674634  0.91698216  1
  Na  Na19  1  0.99178589  0.68353400  0.91305527  1
  Na  Na20  1  0.34198579  0.03347091  0.90695642  1
  Na  Na21  1  0.84377124  0.03860217  0.90934026  1
  Na  Na22  1  0.17587722  0.28842942  0.91227746  1
  Na  Na23  1  0.65993782  0.28305553  0.91197790  1
  Na  Na24  1  0.49225433  0.29970853  0.41774304  1
  Na  Na25  1  0.98182470  0.28952880  0.43343712  1
  Na  Na26  1  0.16864994  0.04790765  0.42491708  1
  Na  Na27  1  0.67528580  0.06648489  0.42042203  1
  Na  Na28  1  0.34699885  0.64988138  0.41690071  1
  Na  Na29  1  0.83938595  0.64467536  0.41406651  1
  Na  Na30  1  0.01260986  0.01574143  0.50180125  1
  Na  Na31  1  0.51477583  0.00866845  0.49401209  1
  Na  Na32  1  0.01608686  0.02849762  0.98856741  1
  Na  Na33  1  0.50998677  0.00520849  0.99534037  1
  Na  Na34  1  0.32910080  0.33578032  0.82950606  1
  Na  Na35  1  0.81921494  0.32769344  0.83827406  1
  Na  Na36  1  0.32192388  0.30910332  0.33942260  1
  Na  Na37  1  0.81939251  0.31955193  0.33649898  1
  Na  Na38  1  0.16819678  0.66893310  0.16348259  1
  Na  Na39  1  0.65012401  0.64384252  0.16463171  1
  Na  Na40  1  0.15504584  0.65791148  0.67021026  1
  Na  Na41  1  0.65356013  0.66282668  0.67161572  1
  La  La0  1  0.01004667  0.01650408  0.65022730  1
  La  La1  1  0.50659436  0.99433731  0.65034204  1
  La  La2  1  0.00836282  0.01245815  0.14759203  1
  La  La3  1  0.50992507  0.00268504  0.14868006  1
  La  La4  1  0.83122009  0.33623297  0.68432293  1
  La  La5  1  0.33164730  0.32725173  0.18234705  1
  La  La6  1  0.15610583  0.64920189  0.01015770  1
  La  La7  1  0.65609914  0.65070146  0.01739333  1
  La  La8  1  0.15629977  0.66785823  0.52048870  1
  La  La9  1  0.65735133  0.66538177  0.51073136  1
  La  La10  1  0.17093184  0.67641803  0.32285805  1
  La  La11  1  0.66611687  0.66148489  0.82056792  1
  Zn  Zn0  1  0.01896821  0.02844432  0.34882955  1
  Zn  Zn1  1  0.52814581  0.03809884  0.34426343  1
  Zn  Zn2  1  0.02561627  0.01480218  0.84421465  1
  Zn  Zn3  1  0.52839834  0.97942508  0.83710073  1
  Zn  Zn4  1  0.32294059  0.34237677  0.68878546  1
  Zn  Zn5  1  0.80388314  0.28039435  0.18005384  1
  Zn  Zn6  1  0.32766755  0.33394281  0.98998060  1
  Zn  Zn7  1  0.81478652  0.30888009  0.98839726  1
  Zn  Zn8  1  0.31420599  0.32663641  0.49093017  1
  Zn  Zn9  1  0.83068612  0.32246751  0.49671603  1
  Zn  Zn10  1  0.66787076  0.66441035  0.32029341  1
  Zn  Zn11  1  0.17279849  0.67855601  0.81986913  1
  Si  Si0  1  0.15034590  0.99576607  0.25264472  1
  Si  Si1  1  0.65671716  0.98749757  0.25435459  1
  Si  Si2  1  0.15481094  0.32636211  0.75538906  1
  Si  Si3  1  0.65170336  0.30140925  0.75270177  1
  Si  Si4  1  0.49191290  0.67617924  0.75351417  1
  Si  Si5  1  0.98039069  0.32827771  0.58107629  1
  Si  Si6  1  0.19460676  0.05019568  0.58699946  1
  Si  Si7  1  0.68292445  0.03349023  0.57785679  1
  Si  Si8  1  0.47922692  0.62950241  0.08089997  1
  Si  Si9  1  0.18300015  0.33496051  0.08051528  1
  Si  Si10  1  0.69072216  0.34288623  0.08569638  1
  Si  Si11  1  0.16857854  0.97132780  0.91575314  1
  Si  Si12  1  0.67016910  0.98592110  0.91699332  1
  Si  Si13  1  0.16737881  0.35484053  0.41468906  1
  Si  Si14  1  0.66731021  0.36659920  0.41342771  1
  S  S0  1  0.35201305  0.70462518  0.25410534  1
  S  S1  1  0.85006544  0.69952398  0.25344607  1
  S  S2  1  0.99403257  0.30010967  0.25506644  1
  S  S3  1  0.50408830  0.30828134  0.25844727  1
  S  S4  1  0.00493805  0.70062352  0.75891178  1
  S  S5  1  0.34576654  0.99556859  0.75271253  1
  S  S6  1  0.85359684  0.00160409  0.75440790  1
  S  S7  1  0.47596822  0.33235257  0.58177805  1
  S  S8  1  0.33393637  0.62648125  0.57989469  1
  S  S9  1  0.83325027  0.63724473  0.57523217  1
  S  S10  1  0.97559565  0.61495585  0.08480755  1
  S  S11  1  0.33176166  0.02488638  0.07661783  1
  S  S12  1  0.83355866  0.04515362  0.08286302  1
  S  S13  1  0.32050231  0.66995100  0.91457167  1
  S  S14  1  0.82943589  0.67187647  0.92268353  1
  S  S15  1  0.00663353  0.34638266  0.90897073  1
  S  S16  1  0.50235965  0.33926350  0.91373502  1
  S  S17  1  0.32945701  0.98805203  0.42181490  1
  S  S18  1  0.82320446  0.97185785  0.41082378  1
  S  S19  1  0.00440309  0.66834781  0.41096571  1
  S  S20  1  0.50840747  0.66874331  0.40722125  1
  O  O0  1  0.09795780  0.00266117  0.30751851  1
  O  O1  1  0.61640754  0.03213269  0.30896591  1
  O  O2  1  0.39580157  0.80677382  0.30508715  1
  O  O3  1  0.89912267  0.79603057  0.30434570  1
  O  O4  1  0.49765977  0.21275419  0.31171435  1
  O  O5  1  0.98632319  0.20248806  0.30797918  1
  O  O6  1  0.11066303  0.20507501  0.81060091  1
  O  O7  1  0.59864797  0.19446866  0.80907395  1
  O  O8  1  0.47699142  0.75290824  0.81417179  1
  O  O9  1  0.99738093  0.78172555  0.81231445  1
  O  O10  1  0.39450882  0.99932717  0.80338838  1
  O  O11  1  0.89764727  0.98673324  0.80507449  1
  O  O12  1  0.38277764  0.98135223  0.69692644  1
  O  O13  1  0.88950816  0.99188460  0.69839155  1
  O  O14  1  0.09702042  0.25049420  0.69629682  1
  O  O15  1  0.60450495  0.22362973  0.69016393  1
  O  O16  1  0.00408948  0.79026229  0.70619938  1
  O  O17  1  0.51095475  0.80741188  0.70151980  1
  O  O18  1  0.38861582  0.78551917  0.19846705  1
  O  O19  1  0.88767149  0.79059370  0.19816382  1
  O  O20  1  0.00294078  0.21780509  0.20279408  1
  O  O21  1  0.50346422  0.21782664  0.20548577  1
  O  O22  1  0.10229661  0.98067907  0.19055699  1
  O  O23  1  0.60070356  0.95207956  0.19519376  1
  O  O24  1  0.43789392  0.33764291  0.63629687  1
  O  O25  1  0.93774759  0.33373993  0.64181092  1
  O  O26  1  0.24956683  0.15215036  0.64338468  1
  O  O27  1  0.73198650  0.12218971  0.63837270  1
  O  O28  1  0.33729181  0.54234731  0.63244129  1
  O  O29  1  0.82968957  0.54587557  0.62838212  1
  O  O30  1  0.44085585  0.54569486  0.14418103  1
  O  O31  1  0.93762786  0.53040051  0.13939593  1
  O  O32  1  0.32915381  0.10919588  0.13035801  1
  O  O33  1  0.83861974  0.13520020  0.13760086  1
  O  O34  1  0.22715331  0.34167886  0.14340545  1
  O  O35  1  0.74178854  0.36200518  0.14639112  1
  O  O36  1  0.23104855  0.31862151  0.02462388  1
  O  O37  1  0.73626759  0.33983156  0.02647350  1
  O  O38  1  0.42525047  0.52340604  0.02436716  1
  O  O39  1  0.93501173  0.52110831  0.03137870  1
  O  O40  1  0.33534938  0.11696427  0.02389765  1
  O  O41  1  0.84135787  0.14049032  0.02976099  1
  O  O42  1  0.23209826  0.12893701  0.52293258  1
  O  O43  1  0.73010478  0.13752881  0.51947888  1
  O  O44  1  0.34194308  0.55054981  0.52479894  1
  O  O45  1  0.83785655  0.55310380  0.52209368  1
  O  O46  1  0.43574126  0.34854311  0.52848500  1
  O  O47  1  0.93146178  0.33357455  0.52204099  1
  O  O48  1  0.27996393  0.67999113  0.96920265  1
  O  O49  1  0.79182317  0.69167398  0.97663730  1
  O  O50  1  0.05867443  0.41293922  0.96272363  1
  O  O51  1  0.56106189  0.42205316  0.96318581  1
  O  O52  1  0.14988891  0.86782973  0.97762163  1
  O  O53  1  0.66104115  0.87422123  0.97416318  1
  O  O54  1  0.28906131  0.88861358  0.47419265  1
  O  O55  1  0.78439920  0.87524128  0.46471426  1
  O  O56  1  0.15620020  0.45872839  0.46774313  1
  O  O57  1  0.65090991  0.43876639  0.47458330  1
  O  O58  1  0.06444024  0.70635400  0.45962748  1
  O  O59  1  0.56118771  0.70642128  0.46039982  1
  O  O60  1  0.04151346  0.64831252  0.35670856  1
  O  O61  1  0.55050327  0.64950181  0.35651209  1
  O  O62  1  0.27263023  0.91104022  0.37080624  1
  O  O63  1  0.77092254  0.88596974  0.35933968  1
  O  O64  1  0.17933657  0.45406907  0.35301236  1
  O  O65  1  0.67658322  0.49085404  0.35929401  1
  O  O66  1  0.04957800  0.45113713  0.85883858  1
  O  O67  1  0.54070778  0.43685349  0.86029052  1
  O  O68  1  0.17878283  0.86260338  0.86330897  1
  O  O69  1  0.68450803  0.90442534  0.85810522  1
  O  O70  1  0.26789002  0.65167019  0.86340373  1
  O  O71  1  0.77107206  0.63485356  0.87324552  1
  O  O72  1  0.98997454  0.80928895  0.40827710  1
  O  O73  1  0.49286130  0.80873218  0.40188927  1
  O  O74  1  0.40632912  0.98786418  0.41329965  1
  O  O75  1  0.90451788  0.98604652  0.40712242  1
  O  O76  1  0.08366799  0.17203597  0.41544866  1
  O  O77  1  0.58402948  0.18136353  0.41094874  1
  O  O78  1  0.99044790  0.17467277  0.90360834  1
  O  O79  1  0.48858950  0.17133844  0.91025574  1
  O  O80  1  0.08566383  0.98926188  0.91031557  1
  O  O81  1  0.58559106  0.99497014  0.91376932  1
  O  O82  1  0.40016972  0.82086031  0.91267009  1
  O  O83  1  0.90667172  0.82661029  0.91358367  1
  O  O84  1  0.47531574  0.17102685  0.57704001  1
  O  O85  1  0.98167085  0.15344333  0.57640466  1
  O  O86  1  0.10472382  0.03747765  0.58599703  1
  O  O87  1  0.59449220  0.02509159  0.57481577  1
  O  O88  1  0.39873516  0.80189164  0.57899012  1
  O  O89  1  0.90310130  0.80622800  0.57759195  1
  O  O90  1  0.48250450  0.80945069  0.07664012  1
  O  O91  1  0.97400405  0.77496296  0.08155320  1
  O  O92  1  0.40075534  0.99426688  0.07869142  1
  O  O93  1  0.89911266  0.00245471  0.08255606  1
  O  O94  1  0.09289136  0.16566541  0.07584626  1
  O  O95  1  0.60251642  0.17257643  0.08393451  1
  O  O96  1  0.34027955  0.14835376  0.75252098  1
  O  O97  1  0.85654645  0.16373251  0.75868739  1
  O  O98  1  0.24326034  0.33703732  0.75030630  1
  O  O99  1  0.73752271  0.29812937  0.75704737  1
  O  O100  1  0.41176305  0.49528564  0.74369437  1
  O  O101  1  0.93641694  0.52915083  0.75851683  1
  O  O102  1  0.35154852  0.54478375  0.25856132  1
  O  O103  1  0.84630745  0.53731229  0.25324377  1
  O  O104  1  0.43535026  0.34132098  0.25847554  1
  O  O105  1  0.92272163  0.32218753  0.24983442  1
  O  O106  1  0.23863161  0.16559341  0.25641295  1
  O  O107  1  0.74925390  0.15015803  0.24899291  1
  O  O108  1  0.32958685  0.52156765  0.91578867  1
  O  O109  1  0.84567775  0.53301545  0.92593370  1
  O  O110  1  0.42526597  0.33925865  0.92152675  1
  O  O111  1  0.92866242  0.34436264  0.91689374  1
  O  O112  1  0.25171447  0.15287276  0.91799932  1
  O  O113  1  0.75238536  0.17049034  0.92067558  1
  O  O114  1  0.34483865  0.15850104  0.42553681  1
  O  O115  1  0.83216727  0.13782009  0.41420315  1
  O  O116  1  0.25077356  0.34058435  0.42121117  1
  O  O117  1  0.75002948  0.35268157  0.41480829  1
  O  O118  1  0.43022021  0.51451472  0.41527753  1
  O  O119  1  0.92760993  0.51506692  0.41987176  1
  O  O120  1  0.18001949  0.50708640  0.08079853  1
  O  O121  1  0.68479676  0.51205262  0.08740180  1
  O  O122  1  0.06373715  0.66126310  0.08592337  1
  O  O123  1  0.57434873  0.67068280  0.08270628  1
  O  O124  1  0.25458477  0.86189830  0.07760670  1
  O  O125  1  0.75450874  0.88841532  0.08343862  1
  O  O126  1  0.18853310  0.86812989  0.59049014  1
  O  O127  1  0.68048466  0.85568200  0.57980368  1
  O  O128  1  0.25429515  0.62329807  0.57980681  1
  O  O129  1  0.75699980  0.64709380  0.57527690  1
  O  O130  1  0.07578154  0.47742825  0.58442952  1
  O  O131  1  0.56421830  0.46541027  0.58365151  1
  O  O132  1  0.15427032  0.82391780  0.25229184  1
  O  O133  1  0.66411998  0.82020012  0.26290091  1
  O  O134  1  0.26497937  0.66462178  0.25192377  1
  O  O135  1  0.76637514  0.67539894  0.25439163  1
  O  O136  1  0.06936470  0.46513829  0.25697225  1
  O  O137  1  0.58144018  0.46921997  0.25695885  1
  O  O138  1  0.16441975  0.51076079  0.76312433  1
  O  O139  1  0.66261048  0.48508614  0.75276488  1
  O  O140  1  0.08241444  0.69712758  0.75784210  1
  O  O141  1  0.57438772  0.66012433  0.75512951  1
  O  O142  1  0.26167156  0.85019561  0.75342162  1
  O  O143  1  0.76662805  0.87014635  0.75250982  1
loop_
_geom_bond_atom_site_label_1
_geom_bond_atom_site_label_2
_geom_bond_distance
_geom_bond_site_symmetry_2
Na0 O107 2.362450 1_565
Na0 O133 2.421235 1_555
Na0 O63 2.516024 1_555
Na0 O135 2.612213 1_555
Na0 O105 2.820461 1_565
Na0 O33 3.004009 1_565
Na1 O64 2.425935 1_555
Na1 O106 2.436038 1_555
Na1 O134 2.581290 1_555
Na1 O34 2.759515 1_555
Na1 O102 2.785430 1_555
Na1 O136 2.884351 1_555
Na2 O135 2.504903 1_555
Na2 O103 2.580861 1_555
Na2 O137 2.677960 1_555
Na2 O35 2.705035 1_555
Na2 O65 2.718385 1_555
Na2 O107 2.806839 1_555
Na3 O103 2.548477 1_555
Na3 O31 2.601580 1_555
Na3 O132 2.613628 1_655
Na3 O105 2.623738 1_555
Na3 O136 2.659956 1_655
Na3 O60 2.730228 1_655
Na4 O133 2.522277 1_555
Na4 O104 2.578872 1_555
Na4 O30 2.594150 1_555
Na4 O137 2.649373 1_555
Na4 O61 2.673215 1_555
Na4 O23 2.707080 1_555
Na4 O102 2.755900 1_555
Na5 O98 2.391281 1_555
Na5 O138 2.579515 1_555
Na5 O70 2.629214 1_555
Na5 O100 2.662576 1_555
Na5 O142 2.805875 1_555
Na5 O8 2.904401 1_555
Na6 O138 2.531198 1_555
Na6 O101 2.577171 1_455
Na6 O14 2.643838 1_555
Na6 O97 2.651617 1_455
Na6 O66 2.688192 1_555
Na6 O140 2.688766 1_555
Na6 O25 2.700510 1_455
Na7 O141 2.450365 1_555
Na7 O100 2.464611 1_555
Na7 O24 2.628822 1_555
Na7 O96 2.628975 1_555
Na7 O67 2.800094 1_555
Na7 O139 2.812264 1_555
Na8 O96 2.448107 1_555
Na8 O142 2.565239 1_545
Na8 O98 2.608983 1_555
Na8 O140 2.740787 1_545
Na8 O26 2.773597 1_555
Na8 O68 2.905129 1_545
Na9 O99 2.489755 1_565
Na9 O143 2.632495 1_555
Na9 O69 2.636157 1_555
Na9 O141 2.749152 1_555
Na9 O17 2.872366 1_555
Na9 O27 2.879803 1_565
Na10 O130 2.401611 1_555
Na10 O128 2.466035 1_555
Na10 O86 2.472415 1_555
Na10 O85 2.772998 1_455
Na10 O14 2.791306 1_555
Na10 O56 2.852170 1_555
Na11 O87 2.462733 1_555
Na11 O131 2.600023 1_555
Na11 O57 2.636874 1_555
Na11 O129 2.698778 1_555
Na11 O15 2.714877 1_555
Na11 O84 2.911756 1_555
Na12 O126 2.363261 1_555
Na12 O84 2.451629 1_565
Na12 O12 2.565651 1_555
Na12 O88 2.673797 1_555
Na12 O54 2.873622 1_555
Na13 O85 2.476964 1_565
Na13 O127 2.517139 1_555
Na13 O89 2.703187 1_555
Na13 O129 2.839050 1_555
Na13 O13 2.845036 1_555
Na13 O55 2.900028 1_555
Na14 O52 2.353514 1_554
Na14 O94 2.498417 1_565
Na14 O124 2.694925 1_555
Na14 O122 2.750553 1_555
Na14 O36 2.861718 1_565
Na14 O22 2.989265 1_555
Na15 O123 2.412069 1_555
Na15 O95 2.488564 1_565
Na15 O53 2.501698 1_554
Na15 O125 2.528364 1_555
Na15 O90 2.693092 1_555
Na15 O23 2.913865 1_555
Na16 O90 2.450993 1_555
Na16 O120 2.560009 1_555
Na16 O48 2.641045 1_554
Na16 O92 2.648243 1_555
Na16 O124 2.873202 1_555
Na16 O38 2.962117 1_555
Na16 O18 3.015709 1_555
Na17 O121 2.377775 1_555
Na17 O91 2.446462 1_555
Na17 O49 2.622394 1_554
Na17 O93 2.718054 1_565
Na17 O19 2.805066 1_555
Na18 O8 2.474174 1_555
Na18 O108 2.482495 1_555
Na18 O82 2.494179 1_555
Na18 O81 2.656979 1_555
Na18 O38 2.793663 1_556
Na18 O110 2.817995 1_555
Na19 O109 2.437703 1_555
Na19 O9 2.474576 1_555
Na19 O80 2.527247 1_655
Na19 O83 2.578627 1_555
Na19 O111 2.804558 1_555
Na20 O79 2.426110 1_555
Na20 O112 2.498994 1_555
Na20 O110 2.525782 1_555
Na20 O10 2.668338 1_545
Na20 O82 2.738230 1_545
Na20 O40 2.816631 1_556
Na20 O68 2.867165 1_545
Na21 O78 2.432999 1_555
Na21 O111 2.512632 1_555
Na21 O113 2.613592 1_555
Na21 O11 2.750423 1_545
Na21 O83 2.801463 1_545
Na21 O69 2.881283 1_545
Na21 O41 2.932017 1_556
Na22 O112 2.364667 1_555
Na22 O80 2.467547 1_545
Na22 O6 2.562542 1_555
Na22 O108 2.646777 1_555
Na22 O36 2.734001 1_556
Na23 O81 2.358498 1_545
Na23 O113 2.478461 1_555
Na23 O7 2.569402 1_555
Na24 O114 2.447240 1_555
Na24 O77 2.508829 1_555
Na24 O74 2.558311 1_545
Na24 O4 2.585283 1_555
Na24 O118 2.812240 1_555
Na24 O46 2.894074 1_555
Na24 O57 2.921712 1_555
Na25 O47 2.379586 1_555
Na25 O115 2.508173 1_555
Na25 O75 2.551207 1_545
Na25 O76 2.709255 1_655
Na25 O119 2.809248 1_555
Na25 O56 2.979930 1_655
Na25 O5 3.005525 1_555
Na26 O116 2.404193 1_555
Na26 O76 2.436721 1_555
Na26 O42 2.474284 1_555
Na26 O58 2.937123 1_545
Na27 O117 2.347408 1_555
Na27 O43 2.440247 1_555
Na27 O77 2.476046 1_555
Na27 O115 2.725745 1_555
Na27 O1 2.734980 1_555
Na28 O73 2.443068 1_555
Na28 O118 2.485973 1_555
Na28 O116 2.561619 1_555
Na28 O44 2.633657 1_555
Na28 O74 2.804880 1_555
Na28 O2 2.884922 1_555
Na29 O117 2.411850 1_555
Na29 O72 2.498073 1_555
Na29 O119 2.529412 1_555
Na29 O45 2.621359 1_555
Na29 O75 2.822185 1_555
Na29 O3 2.849373 1_555
Na29 O65 2.958139 1_555
Na30 O85 2.397080 1_455
Na30 O76 2.450641 1_555
Na30 O86 2.536023 1_555
Na30 O89 2.694437 1_445
Na30 O72 2.777893 1_445
Na30 O75 2.894733 1_445
Na31 O87 2.340916 1_555
Na31 O77 2.438207 1_555
Na31 O74 2.695093 1_545
Na31 O73 2.717711 1_545
Na31 O84 2.777496 1_555
Na31 O88 2.880610 1_545
Na32 O80 2.378585 1_545
Na32 O94 2.423345 1_556
Na32 O78 2.569764 1_455
Na32 O83 2.626265 1_445
Na33 O81 2.404963 1_545
Na33 O90 2.496220 1_546
Na33 O95 2.622683 1_556
Na33 O79 2.658423 1_555
Na33 O82 2.699455 1_545
Na33 O92 2.806242 1_546
Na34 O98 2.437692 1_555
Na34 O100 2.516193 1_555
Na34 O96 2.582503 1_555
Na34 O112 2.609443 1_555
Na34 O108 2.639423 1_555
Na34 O110 2.772104 1_555
Na35 O99 2.341961 1_555
Na35 O113 2.360065 1_555
Na35 O109 2.654607 1_555
Na35 O111 2.689374 1_555
Na35 O97 2.711711 1_555
Na35 O101 2.795319 1_555
Na36 O106 2.402103 1_555
Na36 O116 2.429569 1_555
Na36 O114 2.593347 1_555
Na36 O118 2.641460 1_555
Na36 O102 2.736549 1_555
Na36 O104 2.765659 1_555
Na37 O117 2.352615 1_555
Na37 O107 2.485697 1_555
Na37 O115 2.568485 1_555
Na37 O103 2.667400 1_555
Na37 O119 2.726753 1_555
Na37 O105 2.805140 1_555
Na38 O120 2.515239 1_555
Na38 O132 2.598305 1_555
Na38 O122 2.631817 1_555
Na38 O124 2.644962 1_555
Na38 O134 2.743473 1_555
Na38 O136 2.886193 1_555
Na39 O121 2.441697 1_555
Na39 O123 2.449085 1_555
Na39 O137 2.613636 1_555
Na39 O133 2.730878 1_555
Na39 O125 2.874977 1_555
Na39 O135 2.914492 1_555
Na40 O130 2.534054 1_555
Na40 O126 2.541621 1_555
Na40 O140 2.581382 1_555
Na40 O138 2.598706 1_555
Na40 O142 2.702635 1_555
Na40 O128 2.947316 1_555
Na41 O141 2.443768 1_555
Na41 O139 2.569438 1_555
Na41 O127 2.667218 1_555
Na41 O131 2.683390 1_555
Na41 O143 2.761114 1_555
La0 O14 2.247313 1_555
La0 O86 2.273793 1_555
La0 O85 2.349052 1_455
La0 O16 2.447777 1_545
La0 O13 2.466075 1_445
La0 O89 2.600120 1_445
La1 O17 2.156256 1_555
La1 O15 2.221464 1_565
La1 O87 2.339247 1_565
La1 O88 2.531317 1_555
La1 O12 2.549300 1_555
La1 O84 2.635640 1_565
La2 O22 2.185059 1_545
La2 O94 2.265942 1_555
La2 O20 2.359498 1_555
La2 O91 2.500939 1_445
La2 O19 2.506738 1_445
La2 O93 2.513841 1_455
La3 O95 2.265337 1_555
La3 O23 2.270616 1_545
La3 O90 2.313799 1_545
La3 O21 2.466369 1_555
La3 O18 2.487940 1_545
La3 O92 2.586283 1_545
La4 O27 2.217001 1_555
La4 O25 2.273609 1_555
La4 O99 2.351164 1_555
La4 O29 2.372437 1_555
La4 O101 2.552801 1_555
La4 O97 2.563528 1_555
La5 O34 2.241874 1_555
La5 O30 2.261719 1_555
La5 O32 2.357026 1_555
La5 O106 2.393971 1_555
La5 O102 2.572104 1_555
La5 O104 2.578595 1_555
La6 O52 2.253329 1_554
La6 O120 2.288219 1_555
La6 O50 2.330140 1_554
La6 O48 2.431216 1_554
La6 O124 2.474687 1_555
La6 O122 2.529837 1_555
La7 O123 2.247728 1_555
La7 O53 2.292171 1_554
La7 O121 2.301144 1_555
La7 O51 2.352632 1_554
La7 O125 2.566191 1_555
La7 O49 2.603608 1_554
La8 O130 2.245166 1_555
La8 O126 2.311317 1_555
La8 O56 2.313104 1_555
La8 O58 2.395827 1_555
La8 O128 2.501743 1_555
La8 O54 2.584672 1_555
La9 O57 2.238177 1_555
La9 O127 2.262521 1_555
La9 O59 2.348745 1_555
La9 O129 2.471375 1_555
La9 O55 2.486145 1_555
La9 O131 2.498280 1_555
La10 O132 2.257867 1_555
La10 O64 2.290772 1_555
La10 O62 2.354220 1_555
La10 O136 2.468481 1_555
La10 O134 2.477255 1_555
La10 O60 2.480924 1_555
La11 O139 2.252901 1_555
La11 O141 2.289244 1_555
La11 O69 2.304191 1_555
La11 O71 2.446847 1_555
La11 O67 2.457471 1_555
La11 O143 2.509050 1_555
O0 Si0 1.636326 1_545
O0 Zn0 1.903175 1_555
O1 Si1 1.636873 1_545
O1 Zn1 1.901567 1_555
O2 S0 1.472674 1_555
O2 Zn1 2.529627 1_565
O3 S1 1.481020 1_555
O3 Zn0 2.454457 1_665
O4 S3 1.489037 1_555
O4 Zn1 2.136735 1_555
O5 S2 1.488561 1_555
O5 Zn0 2.231353 1_655
O6 Si2 1.639522 1_555
O6 Zn2 1.890798 1_555
O7 Si3 1.651243 1_555
O7 Zn3 1.907189 1_545
O8 Si4 1.659053 1_555
O8 Zn3 1.924829 1_555
O9 S4 1.489457 1_655
O9 Zn2 2.114605 1_665
O10 S5 1.470549 1_555
O11 S6 1.474897 1_565
O11 Zn2 2.479198 1_665
O12 S5 1.505447 1_555
O13 S6 1.486273 1_565
O14 Si2 1.656883 1_555
O15 Si3 1.649006 1_555
O16 S4 1.481458 1_555
O17 Si4 1.628907 1_555
O18 S0 1.479365 1_555
O19 S1 1.506039 1_555
O20 S2 1.484390 1_455
O21 S3 1.480450 1_555
O22 Si0 1.652862 1_555
O23 Si1 1.645756 1_555
O24 S7 1.465752 1_555
O24 Zn4 2.532169 1_555
O25 Si5 1.633997 1_555
O26 Si6 1.631241 1_555
O26 Zn4 1.930320 1_555
O27 Si7 1.640980 1_555
O28 S8 1.462815 1_555
O28 Zn4 2.192639 1_555
O29 S9 1.476949 1_555
O30 Si8 1.648019 1_555
O31 S10 1.474527 1_555
O32 S11 1.481020 1_555
O33 S12 1.490317 1_555
O33 Zn5 2.044826 1_555
O34 Si9 1.648276 1_555
O35 Si10 1.648255 1_555
O35 Zn5 1.867348 1_555
O36 Si9 1.634605 1_555
O36 Zn6 1.952926 1_554
O37 Si10 1.627894 1_555
O37 Zn7 1.885297 1_554
O38 Si8 1.638785 1_555
O38 Zn6 1.982758 1_554
O39 S10 1.476432 1_555
O39 Zn7 2.368746 1_554
O40 S11 1.472477 1_555
O40 Zn6 2.263643 1_554
O41 S12 1.479597 1_555
O41 Zn7 2.117254 1_554
O42 Si6 1.648615 1_555
O42 Zn8 1.893746 1_555
O43 Si7 1.647499 1_555
O43 Zn9 1.919197 1_555
O44 S8 1.498291 1_555
O44 Zn8 2.054865 1_555
O45 S9 1.481009 1_555
O45 Zn9 2.189812 1_555
O46 S7 1.485107 1_555
O46 Zn8 2.375258 1_555
O47 Si5 1.652002 1_555
O47 Zn9 1.954741 1_555
O48 S13 1.506604 1_555
O49 S14 1.494183 1_555
O50 S15 1.500548 1_555
O51 S16 1.500139 1_555
O52 Si11 1.662110 1_555
O53 Si12 1.639368 1_555
O54 S17 1.489607 1_555
O55 S18 1.502080 1_555
O56 Si13 1.642777 1_555
O57 Si14 1.657911 1_555
O58 S19 1.499930 1_555
O59 S20 1.498410 1_555
O60 S19 1.495556 1_555
O61 S20 1.481465 1_555
O61 Zn10 2.333889 1_555
O62 S17 1.502886 1_555
O63 S18 1.487847 1_555
O63 Zn10 2.213290 1_555
O64 Si13 1.651789 1_555
O65 Si14 1.658576 1_555
O65 Zn10 1.945575 1_555
O66 S15 1.478391 1_555
O66 Zn11 2.438692 1_555
O67 S16 1.495303 1_555
O68 Si11 1.654980 1_555
O68 Zn11 1.954287 1_555
O69 Si12 1.644923 1_555
O70 S13 1.489245 1_555
O70 Zn11 2.185509 1_555
O71 S14 1.494405 1_555
O72 S19 1.488288 1_655
O72 Zn0 2.308129 1_665
O73 S20 1.496663 1_555
O73 Zn1 2.336867 1_565
O74 S17 1.482316 1_555
O75 S18 1.492312 1_555
O75 Zn0 2.429855 1_665
O76 Si13 1.667306 1_555
O76 Zn0 1.995762 1_555
O77 Si14 1.676730 1_555
O77 Zn1 1.956606 1_555
O78 S15 1.495726 1_655
O78 Zn2 2.367792 1_655
O79 S16 1.473768 1_555
O80 Si11 1.676199 1_555
O80 Zn2 1.977713 1_565
O81 Si12 1.658751 1_555
O81 Zn3 2.026343 1_555
O82 S13 1.477424 1_555
O83 S14 1.485997 1_555
O84 S7 1.520451 1_555
O85 Si5 1.666049 1_555
O86 Si6 1.658060 1_555
O87 Si7 1.649722 1_555
O88 S8 1.492977 1_555
O89 S9 1.483557 1_555
O90 Si8 1.671431 1_555
O91 S10 1.527748 1_555
O92 S11 1.482106 1_565
O93 S12 1.493198 1_555
O94 Si9 1.666036 1_555
O95 Si10 1.648482 1_555
O96 S5 1.497257 1_545
O96 Zn4 2.490835 1_555
O97 S6 1.506219 1_555
O98 Si2 1.644827 1_555
O98 Zn4 2.066834 1_555
O99 Si3 1.654914 1_555
O100 Si4 1.640672 1_555
O100 Zn4 2.013207 1_555
O101 S4 1.489227 1_655
O102 S0 1.508116 1_555
O103 S1 1.496792 1_555
O104 S3 1.491646 1_555
O105 S2 1.479297 1_555
O106 Si0 1.648415 1_545
O107 Si1 1.670347 1_545
O107 Zn5 1.964469 1_555
O108 S13 1.495013 1_555
O108 Zn6 2.445473 1_555
O109 S14 1.491611 1_555
O109 Zn7 2.378886 1_555
O110 S16 1.483351 1_555
O110 Zn6 2.429192 1_555
O111 S15 1.491050 1_655
O112 Si11 1.655777 1_545
O112 Zn6 2.284810 1_555
O113 Si12 1.665391 1_545
O113 Zn7 1.985561 1_555
O114 S17 1.486743 1_545
O114 Zn8 2.459033 1_555
O115 S18 1.490579 1_545
O115 Zn9 2.581108 1_555
O116 Si13 1.667511 1_555
O116 Zn8 2.039664 1_555
O117 Si14 1.647573 1_555
O117 Zn9 2.522036 1_555
O118 S20 1.489488 1_555
O119 S19 1.474386 1_655
O119 Zn9 2.559898 1_555
O120 Si9 1.653960 1_555
O121 Si10 1.656639 1_555
O122 S10 1.511651 1_455
O123 Si8 1.655491 1_555
O124 S11 1.508770 1_565
O125 S12 1.496022 1_565
O126 Si6 1.666025 1_565
O127 Si7 1.656452 1_565
O128 S8 1.504589 1_555
O129 S9 1.503233 1_555
O130 Si5 1.655520 1_455
O131 S7 1.517476 1_555
O132 Si0 1.660860 1_555
O133 Si1 1.665942 1_555
O133 Zn10 2.002504 1_555
O134 S0 1.508239 1_555
O135 S1 1.496491 1_555
O135 Zn10 2.385530 1_555
O136 S2 1.503062 1_455
O137 S3 1.500491 1_555
O137 Zn10 2.266626 1_555
O138 Si2 1.665907 1_555
O138 Zn11 1.991487 1_555
O139 Si3 1.640043 1_555
O140 S4 1.495252 1_555
O140 Zn11 2.298158 1_555
O141 Si4 1.654319 1_555
O142 S5 1.503842 1_555
O142 Zn11 2.267582 1_555
O143 S6 1.496326 1_565
