# generated using pymatgen
data_BaV2CdO7
_symmetry_space_group_name_H-M   'P 1'
_cell_length_a   5.79913200
_cell_length_b   7.64168100
_cell_length_c   15.66156900
_cell_angle_alpha   90.00000000
_cell_angle_beta   90.00000000
_cell_angle_gamma   90.00000000
_symmetry_Int_Tables_number   1
_chemical_formula_structural   BaV2CdO7
_chemical_formula_sum   'Ba4 V8 Cd4 O28'
_cell_volume   694.04425983
_cell_formula_units_Z   4
loop_
 _symmetry_equiv_pos_site_id
 _symmetry_equiv_pos_as_xyz
  1  'x, y, z'
loop_
 _atom_site_type_symbol
 _atom_site_label
 _atom_site_symmetry_multiplicity
 _atom_site_fract_x
 _atom_site_fract_y
 _atom_site_fract_z
 _atom_site_occupancy
  Ba  Ba0  1  0.25000000  0.35970800  0.78532100  1
  Ba  Ba1  1  0.75000000  0.64029200  0.21467900  1
  Ba  Ba2  1  0.75000000  0.85970800  0.71467900  1
  Ba  Ba3  1  0.25000000  0.14029200  0.28532100  1
  V  V0  1  0.25000000  0.79744200  0.06127400  1
  V  V1  1  0.75000000  0.20255800  0.93872600  1
  V  V2  1  0.75000000  0.29744200  0.43872600  1
  V  V3  1  0.25000000  0.70255800  0.56127400  1
  V  V4  1  0.25000000  0.83384000  0.85972100  1
  V  V5  1  0.75000000  0.16616000  0.14027900  1
  V  V6  1  0.75000000  0.33384000  0.64027900  1
  V  V7  1  0.25000000  0.66616000  0.35972100  1
  Cd  Cd0  1  0.25000000  0.11750100  0.55092100  1
  Cd  Cd1  1  0.75000000  0.88249900  0.44907900  1
  Cd  Cd2  1  0.75000000  0.61750100  0.94907900  1
  Cd  Cd3  1  0.25000000  0.38249900  0.05092100  1
  O  O0  1  0.25000000  0.91315900  0.15213100  1
  O  O1  1  0.75000000  0.08684100  0.84786900  1
  O  O2  1  0.75000000  0.41315900  0.34786900  1
  O  O3  1  0.25000000  0.58684100  0.65213100  1
  O  O4  1  0.99095200  0.34151300  0.94091500  1
  O  O5  1  0.49095200  0.65848700  0.05908500  1
  O  O6  1  0.00904800  0.84151300  0.55908500  1
  O  O7  1  0.50904800  0.15848700  0.44091500  1
  O  O8  1  0.00904800  0.65848700  0.05908500  1
  O  O9  1  0.50904800  0.34151300  0.94091500  1
  O  O10  1  0.99095200  0.15848700  0.44091500  1
  O  O11  1  0.49095200  0.84151300  0.55908500  1
  O  O12  1  0.25000000  0.93336100  0.96615800  1
  O  O13  1  0.75000000  0.06663900  0.03384200  1
  O  O14  1  0.75000000  0.43336100  0.53384200  1
  O  O15  1  0.25000000  0.56663900  0.46615800  1
  O  O16  1  0.49061600  0.79920700  0.34881100  1
  O  O17  1  0.99061600  0.20079300  0.65118900  1
  O  O18  1  0.50938400  0.29920700  0.15118900  1
  O  O19  1  0.00938400  0.70079300  0.84881100  1
  O  O20  1  0.50938400  0.20079300  0.65118900  1
  O  O21  1  0.00938400  0.79920700  0.34881100  1
  O  O22  1  0.49061600  0.70079300  0.84881100  1
  O  O23  1  0.99061600  0.29920700  0.15118900  1
  O  O24  1  0.25000000  0.51803000  0.27960000  1
  O  O25  1  0.75000000  0.48197000  0.72040000  1
  O  O26  1  0.75000000  0.01803000  0.22040000  1
  O  O27  1  0.25000000  0.98197000  0.77960000  1
loop_
_geom_bond_atom_site_label_1
_geom_bond_atom_site_label_2
_geom_bond_distance
_geom_bond_site_symmetry_2
Ba0 O3 2.713637 1_555
Ba0 O20 2.854882 1_555
Ba0 O17 2.854882 1_455
Ba0 O4 2.866063 1_455
Ba0 O9 2.866063 1_555
Ba0 O27 2.887944 1_545
Ba0 O22 3.119203 1_555
Ba0 O19 3.119203 1_555
Ba0 O25 3.211571 1_555
Ba0 O25 3.211571 1_455
Ba1 O2 2.713637 1_555
Ba1 O21 2.854882 1_655
Ba1 O16 2.854882 1_555
Ba1 O8 2.866063 1_655
Ba1 O5 2.866063 1_555
Ba1 O26 2.887944 1_565
Ba1 O23 3.119203 1_555
Ba1 O18 3.119203 1_555
Ba1 O24 3.211571 1_655
Ba1 O24 3.211571 1_555
Ba2 O1 2.713637 1_565
Ba2 O22 2.854882 1_555
Ba2 O19 2.854882 1_655
Ba2 O6 2.866063 1_655
Ba2 O11 2.866063 1_555
Ba2 O25 2.887944 1_555
Ba2 O20 3.119203 1_565
Ba2 O17 3.119203 1_565
Ba2 O27 3.211571 1_655
Ba2 O27 3.211571 1_555
Ba3 O0 2.713637 1_545
Ba3 O18 2.854882 1_555
Ba3 O23 2.854882 1_455
Ba3 O7 2.866063 1_555
Ba3 O10 2.866063 1_455
Ba3 O24 2.887944 1_555
Ba3 O21 3.119203 1_545
Ba3 O16 3.119203 1_545
Ba3 O26 3.211571 1_555
Ba3 O26 3.211571 1_455
Cd0 O17 2.265780 1_455
Cd0 O20 2.265780 1_555
Cd0 O7 2.307191 1_555
Cd0 O10 2.307191 1_455
Cd0 O11 2.533133 1_545
Cd0 O6 2.533133 1_545
Cd1 O21 2.265780 1_655
Cd1 O16 2.265780 1_555
Cd1 O6 2.307191 1_655
Cd1 O11 2.307191 1_555
Cd1 O7 2.533133 1_565
Cd1 O10 2.533133 1_565
Cd2 O22 2.265780 1_555
Cd2 O19 2.265780 1_655
Cd2 O8 2.307191 1_656
Cd2 O5 2.307191 1_556
Cd2 O4 2.533133 1_555
Cd2 O9 2.533133 1_555
Cd3 O18 2.265780 1_555
Cd3 O23 2.265780 1_455
Cd3 O4 2.307191 1_454
Cd3 O9 2.307191 1_554
Cd3 O8 2.533133 1_555
Cd3 O5 2.533133 1_555
O0 V0 1.675339 1_555
O1 V1 1.675339 1_555
O2 V2 1.675339 1_555
O3 V3 1.675339 1_555
O4 V1 1.755330 1_555
O5 V0 1.755330 1_555
O6 V3 1.755330 1_555
O7 V2 1.755330 1_555
O8 V0 1.755330 1_555
O9 V1 1.755330 1_555
O10 V2 1.755330 1_555
O11 V3 1.755330 1_555
O12 V0 1.816011 1_556
O12 V4 1.832256 1_555
O13 V1 1.816011 1_554
O13 V5 1.832256 1_555
O14 V2 1.816011 1_555
O14 V6 1.832256 1_555
O15 V3 1.816011 1_555
O15 V7 1.832256 1_555
O16 V7 1.734912 1_555
O17 V6 1.734912 1_555
O18 V5 1.734912 1_555
O19 V4 1.734912 1_555
O20 V6 1.734912 1_555
O21 V7 1.734912 1_555
O22 V4 1.734912 1_555
O23 V5 1.734912 1_555
O24 V7 1.689945 1_555
O25 V6 1.689945 1_555
O26 V5 1.689945 1_555
O27 V4 1.689945 1_555
