# generated using pymatgen
data_Na6Mg4Ta20Si21(S5O48)3
_symmetry_space_group_name_H-M   'P 1'
_cell_length_a   17.68265725
_cell_length_b   8.83961402
_cell_length_c   22.89254248
_cell_angle_alpha   90.03365013
_cell_angle_beta   89.98213797
_cell_angle_gamma   119.95075885
_symmetry_Int_Tables_number   1
_chemical_formula_structural   Na6Mg4Ta20Si21(S5O48)3
_chemical_formula_sum   'Na6 Mg4 Ta20 Si21 S15 O144'
_cell_volume   3100.42116902
_cell_formula_units_Z   1
loop_
 _symmetry_equiv_pos_site_id
 _symmetry_equiv_pos_as_xyz
  1  'x, y, z'
loop_
 _atom_site_type_symbol
 _atom_site_label
 _atom_site_symmetry_multiplicity
 _atom_site_fract_x
 _atom_site_fract_y
 _atom_site_fract_z
 _atom_site_occupancy
  Na  Na0  1  0.99873317  0.99778264  0.49921857  1
  Na  Na1  1  0.49996007  0.00087232  0.00133646  1
  Na  Na2  1  0.33515517  0.32302121  0.83594979  1
  Na  Na3  1  0.83345740  0.33271175  0.83420808  1
  Na  Na4  1  0.33538425  0.33550022  0.33305501  1
  Na  Na5  1  0.83166294  0.34338479  0.33356811  1
  Mg  Mg0  1  0.99731684  0.98231130  0.35431913  1
  Mg  Mg1  1  0.49741669  0.01391435  0.85437514  1
  Mg  Mg2  1  0.99394514  0.00467690  0.64608779  1
  Mg  Mg3  1  0.49675083  0.97652033  0.14915739  1
  Ta  Ta0  1  0.50247017  0.99072859  0.35897405  1
  Ta  Ta1  1  0.99461218  0.00194594  0.86088141  1
  Ta  Ta2  1  0.49309813  0.99282017  0.63919028  1
  Ta  Ta3  1  0.99277682  0.99315637  0.13941779  1
  Ta  Ta4  1  0.33583785  0.33606533  0.68663182  1
  Ta  Ta5  1  0.83705261  0.32116831  0.68484740  1
  Ta  Ta6  1  0.33852242  0.35583732  0.18629838  1
  Ta  Ta7  1  0.83179039  0.32668505  0.19071544  1
  Ta  Ta8  1  0.33455081  0.33484219  0.97946126  1
  Ta  Ta9  1  0.84068774  0.34219602  0.97901827  1
  Ta  Ta10  1  0.34061713  0.33973130  0.47683555  1
  Ta  Ta11  1  0.83353288  0.33097069  0.47752875  1
  Ta  Ta12  1  0.16011085  0.66071538  0.02480776  1
  Ta  Ta13  1  0.66478655  0.65745093  0.02503781  1
  Ta  Ta14  1  0.16535221  0.67211475  0.52323980  1
  Ta  Ta15  1  0.66054346  0.66035922  0.52296114  1
  Ta  Ta16  1  0.16756872  0.67822566  0.31205061  1
  Ta  Ta17  1  0.66608599  0.65912609  0.30683338  1
  Ta  Ta18  1  0.16767883  0.67876618  0.81085357  1
  Ta  Ta19  1  0.66728374  0.65867988  0.81271508  1
  Si  Si0  1  0.64120306  0.99848455  0.24916887  1
  Si  Si1  1  0.35688550  0.72026705  0.24958334  1
  Si  Si2  1  0.85923680  0.71603586  0.25154287  1
  Si  Si3  1  0.35803297  0.00111332  0.75125086  1
  Si  Si4  1  0.85603850  0.99629031  0.74906565  1
  Si  Si5  1  0.47740179  0.33433751  0.58307145  1
  Si  Si6  1  0.97982132  0.32509216  0.58104727  1
  Si  Si7  1  0.68982805  0.04460373  0.58217845  1
  Si  Si8  1  0.32868533  0.61348778  0.58263587  1
  Si  Si9  1  0.47934250  0.63688462  0.08177200  1
  Si  Si10  1  0.97529954  0.61767467  0.08587404  1
  Si  Si11  1  0.82933551  0.04489123  0.08310605  1
  Si  Si12  1  0.19011929  0.33349843  0.08297022  1
  Si  Si13  1  0.80672618  0.65892026  0.91834070  1
  Si  Si14  1  0.02553135  0.38614806  0.91592867  1
  Si  Si15  1  0.52240067  0.37124680  0.91708156  1
  Si  Si16  1  0.16784745  0.95726626  0.91750814  1
  Si  Si17  1  0.31036104  0.95458710  0.41745977  1
  Si  Si18  1  0.66700282  0.38145151  0.41603785  1
  Si  Si19  1  0.02242768  0.67447509  0.41652230  1
  Si  Si20  1  0.52628204  0.66666215  0.41519740  1
  S  S0  1  0.14477452  0.00360908  0.24987977  1
  S  S1  1  0.00138023  0.28686315  0.25135946  1
  S  S2  1  0.49829780  0.28220331  0.24853162  1
  S  S3  1  0.14383456  0.28780334  0.75048078  1
  S  S4  1  0.64465068  0.28657716  0.75018075  1
  S  S5  1  0.99945946  0.71465610  0.74934180  1
  S  S6  1  0.50010001  0.71402430  0.75125871  1
  S  S7  1  0.18865698  0.04830468  0.58316548  1
  S  S8  1  0.83492849  0.62145136  0.58305135  1
  S  S9  1  0.33505723  0.04718772  0.08324755  1
  S  S10  1  0.68846733  0.32813739  0.08309360  1
  S  S11  1  0.31082674  0.66849120  0.91662470  1
  S  S12  1  0.66453629  0.95085860  0.91698798  1
  S  S13  1  0.81104010  0.95223569  0.41685094  1
  S  S14  1  0.16465557  0.37873272  0.41699875  1
  O  O0  1  0.11007358  0.03798201  0.30268646  1
  O  O1  1  0.59840017  0.03415557  0.30820496  1
  O  O2  1  0.41697361  0.80422038  0.30818293  1
  O  O3  1  0.91622227  0.79191403  0.30783928  1
  O  O4  1  0.48354650  0.17973465  0.30234155  1
  O  O5  1  0.98613145  0.18175821  0.30348344  1
  O  O6  1  0.10519592  0.17770345  0.80306336  1
  O  O7  1  0.60970234  0.18214713  0.80251408  1
  O  O8  1  0.48440350  0.78725730  0.80320984  1
  O  O9  1  0.98699399  0.79409015  0.80248212  1
  O  O10  1  0.41421398  0.03903548  0.80787642  1
  O  O11  1  0.91820197  0.02993861  0.80751424  1
  O  O12  1  0.40457301  0.97400672  0.69265508  1
  O  O13  1  0.89550906  0.96134177  0.69302344  1
  O  O14  1  0.09387802  0.21308713  0.69754949  1
  O  O15  1  0.59108721  0.20792175  0.69750029  1
  O  O16  1  0.01656025  0.81771558  0.69671129  1
  O  O17  1  0.51320443  0.81772954  0.69768174  1
  O  O18  1  0.38997217  0.82558954  0.19154230  1
  O  O19  1  0.90571628  0.83873878  0.19280835  1
  O  O20  1  0.01456520  0.20924674  0.19774423  1
  O  O21  1  0.51334261  0.21316705  0.19597842  1
  O  O22  1  0.09128202  0.97497382  0.19739516  1
  O  O23  1  0.58946199  0.97062351  0.19109334  1
  O  O24  1  0.42872337  0.36152836  0.63985055  1
  O  O25  1  0.93230990  0.36314481  0.63945380  1
  O  O26  1  0.24494969  0.13061688  0.63632539  1
  O  O27  1  0.75193099  0.14197104  0.64032625  1
  O  O28  1  0.31649392  0.49448971  0.64075668  1
  O  O29  1  0.81887712  0.51004497  0.63615444  1
  O  O30  1  0.43243939  0.50219335  0.13915015  1
  O  O31  1  0.92834057  0.49291335  0.14042050  1
  O  O32  1  0.31754309  0.12474327  0.13543368  1
  O  O33  1  0.81695391  0.13911011  0.13990140  1
  O  O34  1  0.25259489  0.36107435  0.14012929  1
  O  O35  1  0.74426888  0.36062685  0.13556525  1
  O  O36  1  0.23528384  0.30023826  0.02603275  1
  O  O37  1  0.73206745  0.30692611  0.02986258  1
  O  O38  1  0.41453247  0.51766188  0.02736431  1
  O  O39  1  0.91632656  0.53151259  0.02619069  1
  O  O40  1  0.34494169  0.15596039  0.02944178  1
  O  O41  1  0.84485154  0.16974055  0.02594328  1
  O  O42  1  0.23003918  0.15640617  0.53087980  1
  O  O43  1  0.73535408  0.17103908  0.52666469  1
  O  O44  1  0.34431985  0.51759420  0.52692899  1
  O  O45  1  0.84610134  0.53466396  0.53012927  1
  O  O46  1  0.41498358  0.29995078  0.52641279  1
  O  O47  1  0.91399240  0.30810286  0.52743544  1
  O  O48  1  0.26943342  0.69305479  0.96900093  1
  O  O49  1  0.76391280  0.69584238  0.97412548  1
  O  O50  1  0.08394057  0.47422815  0.97398257  1
  O  O51  1  0.58543248  0.48296873  0.97230078  1
  O  O52  1  0.15555644  0.83306357  0.97311542  1
  O  O53  1  0.65385856  0.84597870  0.96991860  1
  O  O54  1  0.26343703  0.83294595  0.47396652  1
  O  O55  1  0.76972443  0.84709652  0.47006657  1
  O  O56  1  0.15403236  0.46203051  0.47043018  1
  O  O57  1  0.65733364  0.48064767  0.47415071  1
  O  O58  1  0.08474978  0.68758535  0.47260960  1
  O  O59  1  0.58313823  0.69276721  0.47463890  1
  O  O60  1  0.06785499  0.63361530  0.35950214  1
  O  O61  1  0.56983238  0.63148909  0.35953253  1
  O  O62  1  0.24646677  0.86064305  0.36016535  1
  O  O63  1  0.75644698  0.87498963  0.36434591  1
  O  O64  1  0.18200596  0.49044032  0.36423799  1
  O  O65  1  0.68380389  0.50628684  0.35963797  1
  O  O66  1  0.07114361  0.50355575  0.85845455  1
  O  O67  1  0.56856244  0.50225997  0.85937744  1
  O  O68  1  0.18266533  0.86121922  0.85935779  1
  O  O69  1  0.68155361  0.87178260  0.86373831  1
  O  O70  1  0.25485815  0.63778125  0.86339808  1
  O  O71  1  0.74770278  0.63385783  0.85943624  1
  O  O72  1  0.01600413  0.84694861  0.41555131  1
  O  O73  1  0.51287022  0.83356610  0.41019821  1
  O  O74  1  0.40529783  0.98342620  0.40397276  1
  O  O75  1  0.89922035  0.98106089  0.41148394  1
  O  O76  1  0.08780353  0.20733972  0.40953216  1
  O  O77  1  0.58054390  0.19463777  0.40581945  1
  O  O78  1  0.01500608  0.19383354  0.90733388  1
  O  O79  1  0.51551038  0.18567944  0.91499442  1
  O  O80  1  0.08273437  0.97243917  0.90113539  1
  O  O81  1  0.58754683  0.96749424  0.90860007  1
  O  O82  1  0.39826182  0.81658275  0.90966564  1
  O  O83  1  0.90360965  0.82588432  0.90505021  1
  O  O84  1  0.48852184  0.16601074  0.59404085  1
  O  O85  1  0.99066202  0.15878988  0.58551086  1
  O  O86  1  0.10186745  0.02421593  0.59173173  1
  O  O87  1  0.59583883  0.02258356  0.59960815  1
  O  O88  1  0.41764006  0.80100290  0.59356225  1
  O  O89  1  0.91383134  0.79059445  0.58884986  1
  O  O90  1  0.48650246  0.82127692  0.08204032  1
  O  O91  1  0.98933784  0.81211077  0.09348274  1
  O  O92  1  0.41345017  0.03573088  0.08780817  1
  O  O93  1  0.91788696  0.03318523  0.09239304  1
  O  O94  1  0.09590235  0.16913503  0.09884779  1
  O  O95  1  0.60159045  0.18169332  0.08824575  1
  O  O96  1  0.33845252  0.16530331  0.73787082  1
  O  O97  1  0.84496224  0.17672909  0.74392654  1
  O  O98  1  0.23458183  0.31063625  0.74439008  1
  O  O99  1  0.73626634  0.32095715  0.74120896  1
  O  O100  1  0.41974001  0.53139412  0.74246618  1
  O  O101  1  0.92002485  0.53603257  0.74395936  1
  O  O102  1  0.34461242  0.51472709  0.24370186  1
  O  O103  1  0.84351290  0.51853918  0.23700553  1
  O  O104  1  0.41819746  0.30442612  0.24306742  1
  O  O105  1  0.92228382  0.30945775  0.24315680  1
  O  O106  1  0.23629136  0.15204253  0.24101415  1
  O  O107  1  0.74266550  0.17172681  0.24346201  1
  O  O108  1  0.31578039  0.50346034  0.92215959  1
  O  O109  1  0.81526646  0.48403322  0.92395499  1
  O  O110  1  0.42658052  0.36164982  0.92514264  1
  O  O111  1  0.92668943  0.35785036  0.92329145  1
  O  O112  1  0.25341234  0.14909532  0.92392516  1
  O  O113  1  0.74466149  0.12812197  0.92328839  1
  O  O114  1  0.31387641  0.14357760  0.42543646  1
  O  O115  1  0.81656669  0.12899719  0.42347208  1
  O  O116  1  0.24475745  0.36102997  0.42425953  1
  O  O117  1  0.75256765  0.35792143  0.42586796  1
  O  O118  1  0.42685179  0.49493218  0.42395674  1
  O  O119  1  0.92692710  0.49276061  0.42596185  1
  O  O120  1  0.18479729  0.50969440  0.07134584  1
  O  O121  1  0.68496661  0.49400029  0.07568596  1
  O  O122  1  0.07155908  0.64098406  0.07443105  1
  O  O123  1  0.57128009  0.63755645  0.07173475  1
  O  O124  1  0.25598368  0.87289013  0.07313698  1
  O  O125  1  0.74742673  0.85473831  0.07096171  1
  O  O126  1  0.18428271  0.87603232  0.57700983  1
  O  O127  1  0.68478612  0.85890380  0.57211687  1
  O  O128  1  0.24680243  0.64019010  0.57222919  1
  O  O129  1  0.75662330  0.63934701  0.57468581  1
  O  O130  1  0.07205628  0.50722167  0.57195201  1
  O  O131  1  0.57235189  0.50458164  0.57539493  1
  O  O132  1  0.15256895  0.84085737  0.25683465  1
  O  O133  1  0.65759277  0.83565081  0.26591551  1
  O  O134  1  0.25588603  0.67544090  0.26578678  1
  O  O135  1  0.76047959  0.68888649  0.25867845  1
  O  O136  1  0.07844354  0.46482010  0.25794598  1
  O  O137  1  0.57487662  0.46403387  0.25753632  1
  O  O138  1  0.15589285  0.46517914  0.76094947  1
  O  O139  1  0.65252731  0.46482642  0.75722948  1
  O  O140  1  0.07653369  0.68657085  0.75906834  1
  O  O141  1  0.57659024  0.68836882  0.75751012  1
  O  O142  1  0.25929161  0.82555083  0.75914069  1
  O  O143  1  0.75666754  0.83708332  0.76534802  1
loop_
_geom_bond_atom_site_label_1
_geom_bond_atom_site_label_2
_geom_bond_distance
_geom_bond_site_symmetry_2
Na0 O72 2.437787 1_655
Na0 O85 2.479462 1_565
Na0 O75 2.625702 1_555
Na0 O89 2.659963 1_555
Na0 O76 2.686393 1_665
Na0 O86 2.728023 1_665
Na1 O90 2.369857 1_545
Na1 O79 2.491217 1_554
Na1 O92 2.611840 1_555
Na1 O95 2.621663 1_555
Na1 O82 2.713832 1_544
Na1 O81 2.728780 1_544
Na2 O112 2.508380 1_555
Na2 O110 2.519787 1_555
Na2 O96 2.658152 1_555
Na2 O108 2.664188 1_555
Na2 O98 2.715827 1_555
Na2 O100 2.731577 1_555
Na3 O97 2.547662 1_555
Na3 O109 2.557304 1_555
Na3 O111 2.561625 1_555
Na3 O113 2.657371 1_555
Na3 O101 2.664047 1_555
Na3 O99 2.705673 1_555
Na4 O102 2.542880 1_555
Na4 O118 2.579767 1_555
Na4 O114 2.618179 1_555
Na4 O104 2.619669 1_555
Na4 O106 2.701997 1_555
Na4 O116 2.708656 1_555
Na5 O117 2.571887 1_555
Na5 O107 2.578367 1_555
Na5 O119 2.613976 1_555
Na5 O103 2.647169 1_555
Na5 O115 2.719869 1_555
Na5 O105 2.723708 1_555
Mg0 O3 1.900022 1_555
Mg0 O72 1.975582 1_655
Mg0 O0 2.152716 1_665
Mg0 O75 2.168179 1_555
Mg0 O5 2.202835 1_565
Mg0 O76 2.221447 1_665
Mg1 O10 1.916886 1_555
Mg1 O79 1.961185 1_555
Mg1 O7 2.148393 1_555
Mg1 O82 2.160167 1_545
Mg1 O81 2.214532 1_545
Mg1 O8 2.230745 1_545
Mg2 O13 1.914291 1_545
Mg2 O85 1.965597 1_555
Mg2 O89 2.150901 1_545
Mg2 O14 2.156982 1_655
Mg2 O86 2.211267 1_655
Mg2 O16 2.212853 1_645
Mg3 O23 1.923094 1_555
Mg3 O18 1.942052 1_555
Mg3 O90 2.006534 1_555
Mg3 O21 2.235083 1_565
Mg3 O92 2.277722 1_565
Mg3 O95 2.305345 1_565
O0 S0 1.454472 1_555
O1 Si0 1.654071 1_545
O1 Ta0 1.929940 1_545
O2 Si1 1.640630 1_555
O2 Ta0 1.966138 1_555
O3 Si2 1.565601 1_555
O4 S2 1.473473 1_555
O4 Ta0 2.268305 1_545
O5 S1 1.452829 1_655
O6 S3 1.483213 1_555
O6 Ta1 2.226357 1_455
O7 S4 1.449336 1_555
O8 S6 1.445275 1_555
O9 S5 1.474758 1_555
O9 Ta1 2.220690 1_565
O10 Si3 1.564432 1_555
O11 Si4 1.661648 1_545
O11 Ta1 1.927327 1_555
O12 Si3 1.652230 1_565
O12 Ta2 1.927474 1_555
O13 Si4 1.562944 1_555
O14 S3 1.449829 1_555
O15 S4 1.475495 1_555
O15 Ta2 2.260152 1_545
O16 S5 1.448799 1_455
O17 S6 1.478997 1_555
O17 Ta2 2.206136 1_555
O18 Si1 1.559365 1_555
O19 Si2 1.664557 1_555
O19 Ta3 1.905149 1_555
O20 S1 1.479908 1_555
O20 Ta3 2.200564 1_445
O21 S2 1.432347 1_555
O22 S0 1.470944 1_565
O22 Ta3 2.258903 1_455
O23 Si0 1.562266 1_555
O24 Si5 1.641259 1_555
O24 Ta4 1.877581 1_555
O25 Si6 1.699315 1_555
O25 Ta5 1.852043 1_555
O26 S7 1.509231 1_555
O26 Ta4 2.071639 1_555
O27 Si7 1.665678 1_555
O27 Ta5 1.852526 1_555
O28 Si8 1.642656 1_555
O28 Ta4 1.913457 1_555
O29 S8 1.500102 1_555
O29 Ta5 2.161393 1_555
O30 Si9 1.686997 1_555
O30 Ta6 1.857921 1_555
O31 Si10 1.597375 1_555
O31 Ta7 1.973676 1_555
O32 S9 1.484573 1_555
O32 Ta6 2.215231 1_555
O33 Si11 1.616387 1_555
O33 Ta7 1.932575 1_555
O34 Si12 1.650367 1_555
O34 Ta6 1.870613 1_555
O35 S10 1.488750 1_555
O35 Ta7 2.131762 1_555
O36 Si12 1.629898 1_555
O36 Ta8 1.942783 1_554
O37 S10 1.502665 1_555
O37 Ta9 2.131237 1_554
O38 Si9 1.663954 1_555
O38 Ta8 1.879135 1_554
O39 Si10 1.655573 1_555
O39 Ta9 1.876021 1_554
O40 S9 1.518456 1_555
O40 Ta8 2.033620 1_554
O41 Si11 1.644633 1_555
O41 Ta9 1.896671 1_554
O42 S7 1.477793 1_555
O42 Ta10 2.194759 1_555
O43 Si7 1.617061 1_555
O43 Ta11 1.956479 1_555
O44 Si8 1.629045 1_555
O44 Ta10 1.920010 1_555
O45 S8 1.498486 1_555
O45 Ta11 2.083145 1_555
O46 Si5 1.630459 1_555
O46 Ta10 1.898447 1_555
O47 Si6 1.646188 1_555
O47 Ta11 1.912795 1_555
O48 S11 1.475937 1_555
O48 Ta12 2.213121 1_556
O49 Si13 1.598796 1_555
O49 Ta13 1.987758 1_556
O50 Si14 1.623537 1_555
O50 Ta12 1.914961 1_556
O51 Si15 1.647991 1_555
O51 Ta13 1.908720 1_556
O52 Si16 1.623683 1_555
O52 Ta12 1.962794 1_556
O53 S12 1.479800 1_555
O53 Ta13 2.175078 1_556
O54 Si17 1.621147 1_555
O54 Ta14 1.959658 1_555
O55 S13 1.484726 1_555
O55 Ta15 2.176483 1_555
O56 S14 1.486787 1_555
O56 Ta14 2.139311 1_555
O57 Si18 1.648069 1_555
O57 Ta15 1.919194 1_555
O58 Si19 1.658213 1_555
O58 Ta14 1.894552 1_555
O59 Si20 1.638455 1_555
O59 Ta15 1.889986 1_555
O60 Si19 1.663761 1_555
O60 Ta16 1.936350 1_555
O61 Si20 1.597362 1_555
O61 Ta17 1.998969 1_555
O62 Si17 1.658085 1_555
O62 Ta16 1.874126 1_555
O63 S13 1.477995 1_555
O63 Ta17 2.209422 1_555
O64 S14 1.492215 1_555
O64 Ta16 2.161845 1_555
O65 Si18 1.626987 1_555
O65 Ta17 1.951805 1_555
O66 Si14 1.619843 1_555
O66 Ta18 1.964953 1_555
O67 Si15 1.676226 1_555
O67 Ta19 1.921121 1_555
O68 Si16 1.667989 1_555
O68 Ta18 1.864315 1_555
O69 S12 1.507964 1_555
O69 Ta19 2.121201 1_555
O70 S11 1.506643 1_555
O70 Ta18 2.124597 1_555
O71 Si13 1.651181 1_555
O71 Ta19 1.878041 1_555
O72 Si19 1.584536 1_555
O73 Si20 1.611097 1_555
O73 Ta0 1.896342 1_555
O74 Si17 1.597159 1_555
O74 Ta0 1.976362 1_555
O75 S13 1.454139 1_555
O76 S14 1.454428 1_555
O77 Si18 1.611802 1_555
O77 Ta0 1.954190 1_545
O78 Si14 1.626964 1_555
O78 Ta1 1.877599 1_455
O79 Si15 1.583732 1_555
O80 Si16 1.620353 1_555
O80 Ta1 1.937091 1_465
O81 S12 1.453251 1_555
O82 S11 1.452100 1_555
O83 Si13 1.637460 1_555
O83 Ta1 1.879927 1_565
O84 Si5 1.615027 1_555
O84 Ta2 1.882612 1_545
O85 Si6 1.577908 1_555
O86 S7 1.453469 1_555
O87 Si7 1.623554 1_555
O87 Ta2 1.926861 1_545
O88 Si8 1.637265 1_555
O88 Ta2 1.867132 1_555
O89 S8 1.454876 1_555
O90 Si9 1.570592 1_555
O91 Si10 1.618545 1_555
O91 Ta3 1.889863 1_555
O92 S9 1.443251 1_555
O93 Si11 1.633932 1_555
O93 Ta3 1.872683 1_545
O94 Si12 1.613049 1_555
O94 Ta3 1.943167 1_445
O95 S10 1.436664 1_555
O96 Si3 1.680044 1_555
O96 Ta4 1.930892 1_555
O97 Si4 1.705409 1_545
O97 Ta5 1.912951 1_555
O98 S3 1.520392 1_555
O98 Ta4 2.145142 1_555
O99 S4 1.505735 1_555
O99 Ta5 2.199124 1_555
O100 S6 1.541146 1_555
O100 Ta4 2.063222 1_555
O101 S5 1.505522 1_555
O101 Ta5 2.192476 1_555
O102 Si1 1.724049 1_555
O102 Ta6 1.886285 1_555
O103 Si2 1.658480 1_555
O103 Ta7 1.920695 1_555
O104 S2 1.529166 1_555
O104 Ta6 2.126384 1_555
O105 S1 1.520023 1_655
O105 Ta7 2.066321 1_555
O106 S0 1.503832 1_555
O106 Ta6 2.198098 1_555
O107 Si0 1.684574 1_545
O107 Ta7 1.913965 1_555
O108 S11 1.509857 1_555
O108 Ta8 2.132870 1_555
O109 Si13 1.631745 1_555
O109 Ta9 1.981910 1_555
O110 Si15 1.663848 1_555
O110 Ta8 1.965874 1_555
O111 Si14 1.645924 1_655
O111 Ta9 1.936014 1_555
O112 Si16 1.619947 1_545
O112 Ta8 2.004303 1_555
O113 S12 1.505519 1_545
O113 Ta9 2.209503 1_555
O114 Si17 1.650479 1_545
O114 Ta10 1.947789 1_555
O115 S13 1.523550 1_545
O115 Ta11 2.066820 1_555
O116 S14 1.509914 1_555
O116 Ta10 2.162752 1_555
O117 Si18 1.642442 1_555
O117 Ta11 1.961395 1_555
O118 Si20 1.664626 1_555
O118 Ta10 1.893322 1_555
O119 Si19 1.664407 1_655
O119 Ta11 1.951584 1_555
O120 Si12 1.628603 1_555
O120 Ta12 1.921340 1_555
O121 S10 1.507696 1_555
O121 Ta13 2.018982 1_555
O122 Si10 1.630306 1_455
O122 Ta12 1.870608 1_555
O123 Si9 1.638861 1_555
O123 Ta13 1.901674 1_555
O124 S9 1.493705 1_565
O124 Ta12 2.107039 1_555
O125 Si11 1.602875 1_565
O125 Ta13 1.932918 1_555
O126 S7 1.492303 1_565
O126 Ta14 2.066786 1_555
O127 Si7 1.615244 1_565
O127 Ta15 1.943461 1_555
O128 Si8 1.597009 1_555
O128 Ta14 1.954210 1_555
O129 S8 1.482515 1_555
O129 Ta15 2.153982 1_555
O130 Si6 1.635132 1_455
O130 Ta14 1.920787 1_555
O131 Si5 1.609889 1_555
O131 Ta15 1.904070 1_555
O132 S0 1.520647 1_565
O132 Ta16 2.029263 1_555
O133 Si0 1.649258 1_555
O133 Ta17 1.889622 1_555
O134 Si1 1.666531 1_555
O134 Ta16 1.896965 1_555
O135 Si2 1.647789 1_555
O135 Ta17 1.905573 1_555
O136 S1 1.487830 1_555
O136 Ta16 2.146238 1_555
O137 S2 1.511991 1_555
O137 Ta17 2.017533 1_555
O138 S3 1.492342 1_555
O138 Ta18 2.125547 1_555
O139 S4 1.519444 1_555
O139 Ta19 2.041834 1_555
O140 S5 1.518799 1_455
O140 Ta18 2.029781 1_555
O141 S6 1.485848 1_555
O141 Ta19 2.158652 1_555
O142 Si3 1.668564 1_565
O142 Ta18 1.900291 1_555
O143 Si4 1.654713 1_555
O143 Ta19 1.916515 1_555
