# generated using pymatgen
data_MgFe6(O5F)2
_symmetry_space_group_name_H-M   'P 1'
_cell_length_a   5.07109026
_cell_length_b   5.11606958
_cell_length_c   8.85226297
_cell_angle_alpha   89.62409864
_cell_angle_beta   90.37415582
_cell_angle_gamma   100.12919923
_symmetry_Int_Tables_number   1
_chemical_formula_structural   MgFe6(O5F)2
_chemical_formula_sum   'Mg1 Fe6 O10 F2'
_cell_volume   226.07571181
_cell_formula_units_Z   1
loop_
 _symmetry_equiv_pos_site_id
 _symmetry_equiv_pos_as_xyz
  1  'x, y, z'
loop_
 _atom_site_type_symbol
 _atom_site_label
 _atom_site_symmetry_multiplicity
 _atom_site_fract_x
 _atom_site_fract_y
 _atom_site_fract_z
 _atom_site_occupancy
  Mg  Mg0  1  0.53502141  0.03742268  0.00034069  1
  Fe  Fe0  1  0.01897038  0.95281970  0.00087644  1
  Fe  Fe1  1  0.01294762  0.98294025  0.32511207  1
  Fe  Fe2  1  0.02623456  0.97180293  0.65989689  1
  Fe  Fe3  1  0.44707366  0.54012102  0.17184347  1
  Fe  Fe4  1  0.44655645  0.54105900  0.82074724  1
  Fe  Fe5  1  0.44173644  0.56048292  0.49529095  1
  O  O0  1  0.24225222  0.83258235  0.15571055  1
  O  O1  1  0.19190042  0.81825784  0.49265160  1
  O  O2  1  0.22319771  0.83419252  0.83774697  1
  O  O3  1  0.30931618  0.31154101  0.99147374  1
  O  O4  1  0.28861575  0.31793615  0.33186516  1
  O  O5  1  0.28130427  0.32557663  0.66594534  1
  O  O6  1  0.67805924  0.68803883  0.98854843  1
  O  O7  1  0.69353697  0.68508033  0.33055400  1
  O  O8  1  0.68559786  0.69197410  0.66738389  1
  O  O9  1  0.84039894  0.11995306  0.14887154  1
  F  F0  1  0.81388424  0.14553302  0.83844559  1
  F  F1  1  0.83728368  0.14268265  0.49812544  1
loop_
_geom_bond_atom_site_label_1
_geom_bond_atom_site_label_2
_geom_bond_distance
_geom_bond_site_symmetry_2
Mg0 O3 1.960849 1_554
Mg0 O9 2.013932 1_555
Mg0 O6 2.047335 1_544
Mg0 O0 2.157456 1_545
Mg0 O2 2.250508 1_544
Fe0 O9 1.889457 1_465
Fe0 O0 1.937203 1_555
Fe0 O2 1.943799 1_554
Fe0 O6 2.002853 1_454
Fe0 O3 2.142911 1_564
Fe1 O9 1.968389 1_465
Fe1 O1 1.991968 1_555
Fe1 O4 2.013123 1_565
Fe1 O7 2.019899 1_455
Fe1 O0 2.131945 1_555
Fe2 O1 1.943804 1_555
Fe2 O5 2.031926 1_565
Fe2 O8 2.041631 1_455
Fe2 O2 2.045533 1_555
Fe3 O4 1.901815 1_555
Fe3 O7 1.936669 1_555
Fe3 O0 1.969745 1_555
Fe3 O3 2.031639 1_554
Fe3 O6 2.067466 1_554
Fe4 O5 1.864221 1_555
Fe4 O8 1.893992 1_555
Fe4 O6 1.957422 1_555
Fe4 O3 1.962207 1_555
Fe4 O2 2.038955 1_555
Fe5 O7 1.972123 1_555
Fe5 O4 1.976262 1_555
Fe5 O1 1.982879 1_555
Fe5 O8 1.999712 1_555
Fe5 O5 2.009148 1_555
F0 Mg0 2.024980 1_556
F0 Fe0 2.108014 1_646
F0 Fe2 2.196606 1_645
F1 Fe2 1.998361 1_645
F1 Fe1 2.024211 1_645
