# generated using pymatgen
data_MgMn6O7F5
_symmetry_space_group_name_H-M   'P 1'
_cell_length_a   7.74967972
_cell_length_b   5.79883832
_cell_length_c   5.62911459
_cell_angle_alpha   71.26879696
_cell_angle_beta   71.95227312
_cell_angle_gamma   71.11321341
_symmetry_Int_Tables_number   1
_chemical_formula_structural   MgMn6O7F5
_chemical_formula_sum   'Mg1 Mn6 O7 F5'
_cell_volume   220.60776491
_cell_formula_units_Z   1
loop_
 _symmetry_equiv_pos_site_id
 _symmetry_equiv_pos_as_xyz
  1  'x, y, z'
loop_
 _atom_site_type_symbol
 _atom_site_label
 _atom_site_symmetry_multiplicity
 _atom_site_fract_x
 _atom_site_fract_y
 _atom_site_fract_z
 _atom_site_occupancy
  Mg  Mg0  1  0.84058600  0.16750000  0.68154600  1
  Mn  Mn0  1  0.83508500  0.68328400  0.71150300  1
  Mn  Mn1  1  0.64202600  0.35395500  0.31487200  1
  Mn  Mn2  1  0.27356700  0.69354900  0.60453100  1
  Mn  Mn3  1  0.17687900  0.34121700  0.31567300  1
  Mn  Mn4  1  0.48294900  0.99407000  0.97437200  1
  Mn  Mn5  1  0.01787900  0.96903000  0.09319400  1
  O  O0  1  0.64642200  0.04990200  0.62729400  1
  O  O1  1  0.94465000  0.22508900  0.29301900  1
  O  O2  1  0.00090300  0.81728500  0.80851500  1
  O  O3  1  0.37335100  0.44934800  0.39240700  1
  O  O4  1  0.32078900  0.98450300  0.31572700  1
  O  O5  1  0.66070700  0.66341600  0.04152800  1
  O  O6  1  0.01420500  0.68036500  0.37350300  1
  F  F0  1  0.32529200  0.36685200  0.91366800  1
  F  F1  1  0.29775300  0.87445000  0.86823400  1
  F  F2  1  0.68418800  0.52107100  0.60493000  1
  F  F3  1  0.70507300  0.12999400  0.05658100  1
  F  F4  1  0.01662400  0.28511900  0.77080800  1
loop_
_geom_bond_atom_site_label_1
_geom_bond_atom_site_label_2
_geom_bond_distance
_geom_bond_site_symmetry_2
Mg0 O0 1.976165 1_555
Mg0 O1 2.039006 1_555
Mg0 O2 2.040397 1_645
Mn0 O5 1.923145 1_556
Mn0 O2 1.976650 1_655
Mn0 O6 1.978942 1_655
Mn0 O0 2.156836 1_565
Mn1 O3 1.917846 1_555
Mn1 O5 1.966103 1_555
Mn1 O0 2.051704 1_555
Mn1 O1 2.195311 1_555
Mn2 O3 1.958061 1_555
Mn2 O4 1.973053 1_555
Mn2 O2 2.083874 1_555
Mn3 O4 2.007212 1_545
Mn3 O3 2.024250 1_555
Mn3 O6 2.028503 1_555
Mn3 O1 2.165784 1_455
Mn4 O4 1.937794 1_556
Mn4 O0 1.962784 1_565
Mn4 O5 1.965753 1_556
Mn5 O6 1.897159 1_555
Mn5 O1 1.980839 1_465
Mn5 O2 2.114429 1_554
F0 Mn4 2.087317 1_545
F0 Mn2 2.145021 1_555
F0 Mn3 2.178935 1_556
F1 Mn4 2.083254 1_555
F1 Mn5 2.140740 1_556
F1 Mn2 2.153798 1_555
F2 Mg0 2.001482 1_555
F2 Mn0 2.030139 1_555
F2 Mn1 2.294253 1_555
F3 Mg0 2.021445 1_554
F3 Mn1 2.097887 1_555
F3 Mn4 2.324830 1_544
F3 Mn5 2.347626 1_645
F4 Mg0 1.956030 1_455
F4 Mn5 2.125120 1_546
F4 Mn0 2.261578 1_455
F4 Mn3 2.442712 1_555
