# generated using pymatgen
data_Na4ScTa(SiO4)3
_symmetry_space_group_name_H-M   'P 1'
_cell_length_a   9.18299880
_cell_length_b   9.18299848
_cell_length_c   22.27607260
_cell_angle_alpha   90.00000000
_cell_angle_beta   90.00000000
_cell_angle_gamma   120.00000117
_symmetry_Int_Tables_number   1
_chemical_formula_structural   Na4ScTa(SiO4)3
_chemical_formula_sum   'Na24 Sc6 Ta6 Si18 O72'
_cell_volume   1626.81546036
_cell_formula_units_Z   6
loop_
 _symmetry_equiv_pos_site_id
 _symmetry_equiv_pos_as_xyz
  1  'x, y, z'
loop_
 _atom_site_type_symbol
 _atom_site_label
 _atom_site_symmetry_multiplicity
 _atom_site_fract_x
 _atom_site_fract_y
 _atom_site_fract_z
 _atom_site_occupancy
  Na  Na0  1  0.64068797  0.01734006  0.24680000  1
  Na  Na1  1  0.37665209  0.35931203  0.24680000  1
  Na  Na2  1  0.98265994  0.62334791  0.24680000  1
  Na  Na3  1  0.64068797  0.62334791  0.74680000  1
  Na  Na4  1  0.98265994  0.35931203  0.74680000  1
  Na  Na5  1  0.37665209  0.01734006  0.74680000  1
  Na  Na6  1  0.30735497  0.35067306  0.58013300  1
  Na  Na7  1  0.04331909  0.69264503  0.58013300  1
  Na  Na8  1  0.64932694  0.95668091  0.58013300  1
  Na  Na9  1  0.30735497  0.95668091  0.08013300  1
  Na  Na10  1  0.64932694  0.69264503  0.08013300  1
  Na  Na11  1  0.04331909  0.35067306  0.08013300  1
  Na  Na12  1  0.97402097  0.68400706  0.91346700  1
  Na  Na13  1  0.70998509  0.02597903  0.91346700  1
  Na  Na14  1  0.31599294  0.29001491  0.91346700  1
  Na  Na15  1  0.97402097  0.29001491  0.41346700  1
  Na  Na16  1  0.31599294  0.02597903  0.41346700  1
  Na  Na17  1  0.70998509  0.68400706  0.41346700  1
  Na  Na18  1  -0.00000000  -0.00000000  0.49328616  1
  Na  Na19  1  -0.00000000  -0.00000000  0.99328616  1
  Na  Na20  1  0.66666700  0.33333300  0.82661916  1
  Na  Na21  1  0.66666700  0.33333300  0.32661916  1
  Na  Na22  1  0.33333300  0.66666700  0.15995316  1
  Na  Na23  1  0.33333300  0.66666700  0.65995316  1
  Sc  Sc0  1  -0.00000000  -0.00000000  0.35135670  1
  Sc  Sc1  1  -0.00000000  -0.00000000  0.85135670  1
  Sc  Sc2  1  0.66666700  0.33333300  0.68468970  1
  Sc  Sc3  1  0.66666700  0.33333300  0.18468970  1
  Sc  Sc4  1  0.33333300  0.66666700  0.01802370  1
  Sc  Sc5  1  0.33333300  0.66666700  0.51802370  1
  Ta  Ta0  1  -0.00000000  -0.00000000  0.64626436  1
  Ta  Ta1  1  -0.00000000  -0.00000000  0.14626436  1
  Ta  Ta2  1  0.66666700  0.33333300  0.97959736  1
  Ta  Ta3  1  0.66666700  0.33333300  0.47959736  1
  Ta  Ta4  1  0.33333300  0.66666700  0.31293136  1
  Ta  Ta5  1  0.33333300  0.66666700  0.81293136  1
  Si  Si0  1  0.29165645  0.99655273  0.25180560  1
  Si  Si1  1  0.70489628  0.70834355  0.25180560  1
  Si  Si2  1  0.00344727  0.29510372  0.25180560  1
  Si  Si3  1  0.29165645  0.29510372  0.75180560  1
  Si  Si4  1  0.00344727  0.70834355  0.75180560  1
  Si  Si5  1  0.70489628  0.99655273  0.75180560  1
  Si  Si6  1  0.95832345  0.32988573  0.58513860  1
  Si  Si7  1  0.37156328  0.04167655  0.58513860  1
  Si  Si8  1  0.67011427  0.62843672  0.58513860  1
  Si  Si9  1  0.95832345  0.62843672  0.08513860  1
  Si  Si10  1  0.67011427  0.04167655  0.08513860  1
  Si  Si11  1  0.37156328  0.32988573  0.08513860  1
  Si  Si12  1  0.62498945  0.66321973  0.91847260  1
  Si  Si13  1  0.03822928  0.37501055  0.91847260  1
  Si  Si14  1  0.33678027  0.96177072  0.91847260  1
  Si  Si15  1  0.62498945  0.96177072  0.41847260  1
  Si  Si16  1  0.33678027  0.37501055  0.41847260  1
  Si  Si17  1  0.03822928  0.66321973  0.41847260  1
  O  O0  1  0.20921091  0.02632408  0.31064704  1
  O  O1  1  0.81711317  0.79078909  0.31064704  1
  O  O2  1  0.97367592  0.18288683  0.31064704  1
  O  O3  1  0.20921091  0.18288683  0.81064704  1
  O  O4  1  0.97367592  0.79078909  0.81064704  1
  O  O5  1  0.81711317  0.02632408  0.81064704  1
  O  O6  1  0.80369458  0.96865229  0.69288932  1
  O  O7  1  0.16495771  0.19630542  0.69288932  1
  O  O8  1  0.03134771  0.83504229  0.69288932  1
  O  O9  1  0.80369458  0.83504229  0.19288932  1
  O  O10  1  0.03134771  0.19630542  0.19288932  1
  O  O11  1  0.16495771  0.96865229  0.19288932  1
  O  O12  1  0.87587791  0.35965708  0.64398004  1
  O  O13  1  0.48378017  0.12412209  0.64398004  1
  O  O14  1  0.64034292  0.51621983  0.64398004  1
  O  O15  1  0.87587791  0.51621983  0.14398004  1
  O  O16  1  0.64034292  0.12412209  0.14398004  1
  O  O17  1  0.48378017  0.35965708  0.14398004  1
  O  O18  1  0.47036158  0.30198529  0.02622232  1
  O  O19  1  0.83162471  0.52963842  0.02622232  1
  O  O20  1  0.69801471  0.16837529  0.02622232  1
  O  O21  1  0.47036158  0.16837529  0.52622232  1
  O  O22  1  0.69801471  0.52963842  0.52622232  1
  O  O23  1  0.83162471  0.30198529  0.52622232  1
  O  O24  1  0.54254391  0.69299108  0.97731404  1
  O  O25  1  0.15044617  0.45745609  0.97731404  1
  O  O26  1  0.30700892  0.84955383  0.97731404  1
  O  O27  1  0.54254391  0.84955383  0.47731404  1
  O  O28  1  0.30700892  0.45745609  0.47731404  1
  O  O29  1  0.15044617  0.69299108  0.47731404  1
  O  O30  1  0.13702758  0.63531929  0.35955632  1
  O  O31  1  0.49829071  0.86297242  0.35955632  1
  O  O32  1  0.36468071  0.50170929  0.35955632  1
  O  O33  1  0.13702758  0.50170929  0.85955632  1
  O  O34  1  0.36468071  0.86297242  0.85955632  1
  O  O35  1  0.49829071  0.63531929  0.85955632  1
  O  O36  1  0.00941821  0.82293594  0.41288302  1
  O  O37  1  0.81351773  0.99058179  0.41288302  1
  O  O38  1  0.17706406  0.18648227  0.41288302  1
  O  O39  1  0.00941821  0.18648227  0.91288302  1
  O  O40  1  0.17706406  0.99058179  0.91288302  1
  O  O41  1  0.81351773  0.82293594  0.91288302  1
  O  O42  1  0.96428267  0.15190690  0.58800595  1
  O  O43  1  0.18762423  0.03571733  0.58800595  1
  O  O44  1  0.84809310  0.81237577  0.58800595  1
  O  O45  1  0.96428267  0.81237577  0.08800595  1
  O  O46  1  0.84809310  0.03571733  0.08800595  1
  O  O47  1  0.18762423  0.15190690  0.08800595  1
  O  O48  1  0.67608521  0.15626894  0.74621602  1
  O  O49  1  0.48018473  0.32391479  0.74621602  1
  O  O50  1  0.84373106  0.51981527  0.74621602  1
  O  O51  1  0.67608521  0.51981527  0.24621602  1
  O  O52  1  0.84373106  0.32391479  0.24621602  1
  O  O53  1  0.48018473  0.15626894  0.24621602  1
  O  O54  1  0.63094967  0.48523990  0.92133895  1
  O  O55  1  0.85429123  0.36905033  0.92133895  1
  O  O56  1  0.51476010  0.14570877  0.92133895  1
  O  O57  1  0.63094967  0.14570877  0.42133895  1
  O  O58  1  0.51476010  0.36905033  0.42133895  1
  O  O59  1  0.85429123  0.48523990  0.42133895  1
  O  O60  1  0.34275121  0.48960294  0.07955002  1
  O  O61  1  0.14685073  0.65724879  0.07955002  1
  O  O62  1  0.51039706  0.85314927  0.07955002  1
  O  O63  1  0.34275121  0.85314927  0.57955002  1
  O  O64  1  0.51039706  0.65724879  0.57955002  1
  O  O65  1  0.14685073  0.48960294  0.57955002  1
  O  O66  1  0.29761567  0.81857390  0.25467295  1
  O  O67  1  0.52095723  0.70238433  0.25467295  1
  O  O68  1  0.18142610  0.47904277  0.25467295  1
  O  O69  1  0.29761567  0.47904277  0.75467295  1
  O  O70  1  0.18142610  0.70238433  0.75467295  1
  O  O71  1  0.52095723  0.81857390  0.75467295  1
loop_
_geom_bond_atom_site_label_1
_geom_bond_atom_site_label_2
_geom_bond_distance
_geom_bond_site_symmetry_2
Na0 O53 2.383392 1_555
Na0 O52 2.480577 1_555
Na0 O16 2.492127 1_555
Na0 O67 2.534698 1_545
Na0 O66 2.745397 1_545
Na0 O31 2.859145 1_545
Na1 O51 2.383400 1_555
Na1 O53 2.480584 1_555
Na1 O17 2.492131 1_555
Na1 O68 2.534706 1_555
Na1 O67 2.745397 1_555
Na1 O32 2.859147 1_555
Na2 O52 2.383400 1_555
Na2 O51 2.480576 1_555
Na2 O15 2.492129 1_555
Na2 O66 2.534699 1_655
Na2 O68 2.745389 1_655
Na2 O30 2.859143 1_655
Na3 O49 2.383399 1_555
Na3 O50 2.480584 1_555
Na3 O14 2.492131 1_555
Na3 O71 2.534706 1_555
Na3 O69 2.745397 1_555
Na3 O35 2.859147 1_555
Na4 O50 2.383392 1_555
Na4 O48 2.480577 1_555
Na4 O12 2.492127 1_555
Na4 O69 2.534698 1_655
Na4 O70 2.745397 1_655
Na4 O33 2.859145 1_655
Na5 O48 2.383400 1_555
Na5 O49 2.480576 1_555
Na5 O13 2.492129 1_555
Na5 O70 2.534699 1_545
Na5 O71 2.745389 1_545
Na5 O34 2.859143 1_545
Na6 O65 2.383408 1_555
Na6 O64 2.480583 1_555
Na6 O28 2.492112 1_555
Na6 O43 2.534698 1_555
Na6 O42 2.745397 1_455
Na6 O7 2.859145 1_555
Na7 O63 2.383392 1_555
Na7 O65 2.480569 1_555
Na7 O29 2.492105 1_555
Na7 O44 2.534706 1_455
Na7 O43 2.745397 1_565
Na7 O8 2.859147 1_555
Na8 O64 2.383391 1_555
Na8 O63 2.480586 1_555
Na8 O27 2.492109 1_555
Na8 O42 2.534699 1_565
Na8 O44 2.745389 1_555
Na8 O6 2.859143 1_555
Na9 O61 2.383392 1_555
Na9 O62 2.480569 1_555
Na9 O26 2.492105 1_554
Na9 O47 2.534706 1_565
Na9 O45 2.745397 1_455
Na9 O11 2.859147 1_555
Na10 O62 2.383408 1_555
Na10 O60 2.480583 1_555
Na10 O24 2.492112 1_554
Na10 O45 2.534698 1_555
Na10 O46 2.745397 1_565
Na10 O9 2.859145 1_555
Na11 O60 2.383391 1_555
Na11 O61 2.480586 1_555
Na11 O25 2.492109 1_554
Na11 O46 2.534699 1_455
Na11 O47 2.745389 1_555
Na11 O10 2.859143 1_555
Na12 O41 2.383392 1_555
Na12 O40 2.480577 1_655
Na12 O4 2.492127 1_555
Na12 O55 2.534706 1_555
Na12 O54 2.745389 1_555
Na12 O19 2.859126 1_556
Na13 O39 2.383400 1_655
Na13 O41 2.480584 1_545
Na13 O5 2.492131 1_555
Na13 O56 2.534689 1_555
Na13 O55 2.745387 1_555
Na13 O20 2.859121 1_556
Na14 O40 2.383400 1_545
Na14 O39 2.480576 1_555
Na14 O3 2.492129 1_555
Na14 O54 2.534703 1_555
Na14 O56 2.745404 1_555
Na14 O18 2.859129 1_556
Na15 O37 2.383399 1_545
Na15 O38 2.480584 1_655
Na15 O2 2.492131 1_555
Na15 O59 2.534689 1_555
Na15 O57 2.745387 1_555
Na15 O23 2.859121 1_555
Na16 O38 2.383392 1_555
Na16 O36 2.480577 1_545
Na16 O0 2.492127 1_555
Na16 O57 2.534706 1_555
Na16 O58 2.745388 1_555
Na16 O21 2.859126 1_555
Na17 O36 2.383400 1_655
Na17 O37 2.480576 1_555
Na17 O1 2.492129 1_555
Na17 O58 2.534703 1_555
Na17 O59 2.745404 1_555
Na17 O22 2.859129 1_555
Na18 O38 2.449456 1_555
Na18 O36 2.449456 1_545
Na18 O37 2.449456 1_445
Na18 O44 2.638762 1_445
Na18 O42 2.638762 1_455
Na18 O43 2.638762 1_555
Na19 O39 2.449456 1_555
Na19 O41 2.449456 1_445
Na19 O40 2.449456 1_545
Na19 O45 2.638762 1_446
Na19 O47 2.638762 1_556
Na19 O46 2.638762 1_456
Na20 O50 2.449456 1_555
Na20 O48 2.449456 1_555
Na20 O49 2.449456 1_555
Na20 O56 2.638762 1_555
Na20 O54 2.638762 1_555
Na20 O55 2.638762 1_555
Na21 O51 2.449456 1_555
Na21 O53 2.449456 1_555
Na21 O52 2.449456 1_555
Na21 O57 2.638762 1_555
Na21 O59 2.638762 1_555
Na21 O58 2.638762 1_555
Na22 O62 2.449456 1_555
Na22 O60 2.449456 1_555
Na22 O61 2.449456 1_555
Na22 O68 2.638762 1_555
Na22 O66 2.638762 1_555
Na22 O67 2.638762 1_555
Na23 O63 2.449456 1_555
Na23 O65 2.449456 1_555
Na23 O64 2.449456 1_555
Na23 O69 2.638762 1_555
Na23 O71 2.638762 1_555
Na23 O70 2.638762 1_555
O0 Si0 1.604058 1_545
O0 Sc0 2.026659 1_555
O1 Si1 1.604058 1_555
O1 Sc0 2.026659 1_665
O2 Si2 1.604058 1_655
O2 Sc0 2.026659 1_655
O3 Si3 1.604058 1_555
O3 Sc1 2.026659 1_555
O4 Si4 1.604058 1_655
O4 Sc1 2.026659 1_665
O5 Si5 1.604058 1_545
O5 Sc1 2.026659 1_655
O6 Si5 1.686321 1_555
O6 Ta0 1.972891 1_665
O7 Si3 1.686321 1_555
O7 Ta0 1.972891 1_555
O8 Si4 1.686321 1_555
O8 Ta0 1.972891 1_565
O9 Si1 1.686321 1_555
O9 Ta1 1.972891 1_665
O10 Si2 1.686321 1_555
O10 Ta1 1.972891 1_555
O11 Si0 1.686321 1_555
O11 Ta1 1.972891 1_565
O12 Si6 1.604058 1_555
O12 Sc2 2.026659 1_555
O13 Si7 1.604058 1_555
O13 Sc2 2.026659 1_555
O14 Si8 1.604058 1_555
O14 Sc2 2.026659 1_555
O15 Si9 1.604058 1_555
O15 Sc3 2.026659 1_555
O16 Si10 1.604058 1_555
O16 Sc3 2.026659 1_555
O17 Si11 1.604058 1_555
O17 Sc3 2.026659 1_555
O18 Si11 1.686321 1_555
O18 Ta2 1.972891 1_554
O19 Si9 1.686321 1_555
O19 Ta2 1.972891 1_554
O20 Si10 1.686321 1_555
O20 Ta2 1.972891 1_554
O21 Si7 1.686321 1_555
O21 Ta3 1.972891 1_555
O22 Si8 1.686321 1_555
O22 Ta3 1.972891 1_555
O23 Si6 1.686321 1_555
O23 Ta3 1.972891 1_555
O24 Si12 1.604058 1_555
O24 Sc4 2.026659 1_556
O25 Si13 1.604058 1_555
O25 Sc4 2.026659 1_556
O26 Si14 1.604058 1_555
O26 Sc4 2.026659 1_556
O27 Si15 1.604058 1_555
O27 Sc5 2.026659 1_555
O28 Si16 1.604058 1_555
O28 Sc5 2.026659 1_555
O29 Si17 1.604058 1_555
O29 Sc5 2.026659 1_555
O30 Si17 1.686321 1_555
O30 Ta4 1.972891 1_555
O31 Si15 1.686321 1_555
O31 Ta4 1.972891 1_555
O32 Si16 1.686321 1_555
O32 Ta4 1.972891 1_555
O33 Si13 1.686321 1_555
O33 Ta5 1.972891 1_555
O34 Si14 1.686321 1_555
O34 Ta5 1.972891 1_555
O35 Si12 1.686321 1_555
O35 Ta5 1.972891 1_555
O36 Si17 1.620085 1_555
O36 Sc0 2.161102 1_565
O37 Si15 1.620094 1_555
O37 Sc0 2.161102 1_665
O38 Si16 1.620090 1_555
O38 Sc0 2.161102 1_555
O39 Si13 1.620094 1_555
O39 Sc1 2.161102 1_555
O40 Si14 1.620085 1_555
O40 Sc1 2.161102 1_565
O41 Si12 1.620090 1_555
O41 Sc1 2.161102 1_665
O42 Si6 1.663643 1_555
O42 Ta0 2.048227 1_655
O43 Si7 1.663653 1_555
O43 Ta0 2.048227 1_555
O44 Si8 1.663648 1_555
O44 Ta0 2.048227 1_665
O45 Si9 1.663653 1_555
O45 Ta1 2.048227 1_665
O46 Si10 1.663643 1_555
O46 Ta1 2.048227 1_655
O47 Si11 1.663648 1_555
O47 Ta1 2.048227 1_555
O48 Si5 1.620085 1_545
O48 Sc2 2.161102 1_555
O49 Si3 1.620094 1_555
O49 Sc2 2.161102 1_555
O50 Si4 1.620090 1_655
O50 Sc2 2.161102 1_555
O51 Si1 1.620094 1_555
O51 Sc3 2.161102 1_555
O52 Si2 1.620085 1_655
O52 Sc3 2.161102 1_555
O53 Si0 1.620090 1_545
O53 Sc3 2.161102 1_555
O54 Si12 1.663656 1_555
O54 Ta2 2.048227 1_555
O55 Si13 1.663638 1_655
O55 Ta2 2.048227 1_555
O56 Si14 1.663647 1_545
O56 Ta2 2.048227 1_555
O57 Si15 1.663638 1_545
O57 Ta3 2.048227 1_555
O58 Si16 1.663657 1_555
O58 Ta3 2.048227 1_555
O59 Si17 1.663647 1_655
O59 Ta3 2.048227 1_555
O60 Si11 1.620098 1_555
O60 Sc4 2.161102 1_555
O61 Si9 1.620080 1_455
O61 Sc4 2.161102 1_555
O62 Si10 1.620086 1_565
O62 Sc4 2.161102 1_555
O63 Si7 1.620080 1_565
O63 Sc5 2.161102 1_555
O64 Si8 1.620098 1_555
O64 Sc5 2.161102 1_555
O65 Si6 1.620086 1_455
O65 Sc5 2.161102 1_555
O66 Si0 1.663643 1_555
O66 Ta4 2.048227 1_555
O67 Si1 1.663653 1_555
O67 Ta4 2.048227 1_555
O68 Si2 1.663648 1_555
O68 Ta4 2.048227 1_555
O69 Si3 1.663653 1_555
O69 Ta5 2.048227 1_555
O70 Si4 1.663643 1_555
O70 Ta5 2.048227 1_555
O71 Si5 1.663648 1_555
O71 Ta5 2.048227 1_555
