# generated using pymatgen
data_MgMn6O11F
_symmetry_space_group_name_H-M   'P 1'
_cell_length_a   11.85642692
_cell_length_b   6.39937187
_cell_length_c   2.95665700
_cell_angle_alpha   90.00000000
_cell_angle_beta   90.00000000
_cell_angle_gamma   108.53575410
_symmetry_Int_Tables_number   1
_chemical_formula_structural   MgMn6O11F
_chemical_formula_sum   'Mg1 Mn6 O11 F1'
_cell_volume   212.69531947
_cell_formula_units_Z   1
loop_
 _symmetry_equiv_pos_site_id
 _symmetry_equiv_pos_as_xyz
  1  'x, y, z'
loop_
 _atom_site_type_symbol
 _atom_site_label
 _atom_site_symmetry_multiplicity
 _atom_site_fract_x
 _atom_site_fract_y
 _atom_site_fract_z
 _atom_site_occupancy
  Mg  Mg0  1  0.82950500  0.66468600  0.00000000  1
  Mn  Mn0  1  0.05936600  0.02081200  0.00000000  1
  Mn  Mn1  1  0.33988800  0.17393000  0.50000000  1
  Mn  Mn2  1  0.04331600  0.50187500  0.50000000  1
  Mn  Mn3  1  0.62708800  0.33466700  0.00000000  1
  Mn  Mn4  1  0.33237300  0.67013000  0.00000000  1
  Mn  Mn5  1  0.61678000  0.84102600  0.50000000  1
  O  O0  1  0.16549000  0.07512800  0.50000000  1
  O  O1  1  0.02180500  0.29687900  0.00000000  1
  O  O2  1  0.34319800  0.37009300  0.00000000  1
  O  O3  1  0.00673100  0.67892000  0.00000000  1
  O  O4  1  0.64411000  0.04632000  0.00000000  1
  O  O5  1  0.52031900  0.27539900  0.50000000  1
  O  O6  1  0.22147900  0.60624500  0.50000000  1
  O  O7  1  0.44270300  0.73556400  0.50000000  1
  O  O8  1  0.75018700  0.43004000  0.50000000  1
  O  O9  1  0.65234800  0.66668100  0.00000000  1
  O  O10  1  0.33718600  0.97873600  0.00000000  1
  F  F0  1  0.88987600  0.89328500  0.50000000  1
loop_
_geom_bond_atom_site_label_1
_geom_bond_atom_site_label_2
_geom_bond_distance
_geom_bond_site_symmetry_2
Mg0 O3 2.074109 1_655
Mg0 O8 2.103996 1_555
Mg0 O8 2.103996 1_554
Mg0 O9 2.104542 1_555
Mn0 O0 1.900369 1_555
Mn0 O0 1.900369 1_554
Mn0 O1 1.954384 1_555
Mn0 O3 2.075629 1_545
Mn1 O10 1.929077 1_546
Mn1 O10 1.929077 1_545
Mn1 O2 1.931709 1_555
Mn1 O2 1.931709 1_556
Mn1 O0 1.960634 1_555
Mn1 O5 2.028526 1_555
Mn2 O1 1.938742 1_556
Mn2 O1 1.938742 1_555
Mn2 O3 1.992412 1_556
Mn2 O3 1.992412 1_555
Mn2 O6 2.002801 1_555
Mn3 O5 1.904349 1_555
Mn3 O5 1.904349 1_554
Mn3 O4 1.918962 1_555
Mn3 O8 2.030218 1_555
Mn3 O8 2.030218 1_554
Mn3 O9 2.049242 1_555
Mn4 O7 1.929692 1_554
Mn4 O7 1.929692 1_555
Mn4 O6 1.933793 1_554
Mn4 O6 1.933793 1_555
Mn4 O10 1.957492 1_555
Mn4 O2 1.964621 1_555
Mn5 O4 1.935392 1_565
Mn5 O4 1.935392 1_566
Mn5 O7 1.956956 1_555
Mn5 O9 1.976668 1_555
Mn5 O9 1.976668 1_556
F0 Mg0 2.042572 1_555
F0 Mg0 2.042572 1_556
F0 Mn0 2.418068 1_665
F0 Mn0 2.418068 1_666
