# generated using pymatgen
data_Ti3Cu4
_symmetry_space_group_name_H-M   'P 1'
_cell_length_a   3.11489273
_cell_length_b   3.11489340
_cell_length_c   10.13893406
_cell_angle_alpha   98.83621219
_cell_angle_beta   98.83621800
_cell_angle_gamma   90.00000133
_symmetry_Int_Tables_number   1
_chemical_formula_structural   Ti3Cu4
_chemical_formula_sum   'Ti3 Cu4'
_cell_volume   96.02431174
_cell_formula_units_Z   1
loop_
 _symmetry_equiv_pos_site_id
 _symmetry_equiv_pos_as_xyz
  1  'x, y, z'
loop_
 _atom_site_type_symbol
 _atom_site_label
 _atom_site_symmetry_multiplicity
 _atom_site_fract_x
 _atom_site_fract_y
 _atom_site_fract_z
 _atom_site_occupancy
  Ti  Ti0  1  0.70718086  0.70718086  0.41436172  1
  Ti  Ti1  1  0.29281914  0.29281914  0.58563828  1
  Ti  Ti2  1  -0.00000000  0.00000000  -0.00000000  1
  Cu  Cu0  1  0.57066175  0.57066175  0.14132149  1
  Cu  Cu1  1  0.42933825  0.42933825  0.85867851  1
  Cu  Cu2  1  0.86570579  0.86570579  0.73141258  1
  Cu  Cu3  1  0.13429421  0.13429421  0.26858742  1
loop_
_geom_bond_atom_site_label_1
_geom_bond_atom_site_label_2
_geom_bond_distance
_geom_bond_site_symmetry_2
Cu0 Cu3 2.537257 1_665
Cu0 Cu3 2.537259 1_655
Cu0 Cu3 2.537259 1_565
Cu0 Cu3 2.537261 1_555
Cu0 Ti2 2.609105 1_665
Cu0 Ti2 2.609109 1_565
Cu0 Ti2 2.609109 1_655
Cu0 Ti2 2.609112 1_555
Cu0 Ti0 2.702225 1_555
Cu1 Cu2 2.537257 1_445
Cu1 Cu2 2.537259 1_455
Cu1 Cu2 2.537259 1_545
Cu1 Cu2 2.537261 1_555
Cu1 Ti2 2.609105 1_556
Cu1 Ti2 2.609109 1_656
Cu1 Ti2 2.609109 1_566
Cu1 Ti2 2.609112 1_666
Cu1 Ti1 2.702225 1_555
Cu2 Ti1 2.632993 1_555
Cu2 Ti1 2.632995 1_565
Cu2 Ti1 2.632995 1_655
Cu2 Ti1 2.632996 1_665
Cu2 Ti2 2.658157 1_666
Cu3 Ti0 2.632993 1_555
Cu3 Ti0 2.632995 1_545
Cu3 Ti0 2.632995 1_455
Cu3 Ti0 2.632996 1_445
Cu3 Ti2 2.658157 1_555
