# generated using pymatgen
data_MgMn5NiO12
_symmetry_space_group_name_H-M   'P 1'
_cell_length_a   5.05636841
_cell_length_b   5.05624075
_cell_length_c   9.89214569
_cell_angle_alpha   94.19472842
_cell_angle_beta   94.15163527
_cell_angle_gamma   118.69141190
_symmetry_Int_Tables_number   1
_chemical_formula_structural   MgMn5NiO12
_chemical_formula_sum   'Mg1 Mn5 Ni1 O12'
_cell_volume   219.58122591
_cell_formula_units_Z   1
loop_
 _symmetry_equiv_pos_site_id
 _symmetry_equiv_pos_as_xyz
  1  'x, y, z'
loop_
 _atom_site_type_symbol
 _atom_site_label
 _atom_site_symmetry_multiplicity
 _atom_site_fract_x
 _atom_site_fract_y
 _atom_site_fract_z
 _atom_site_occupancy
  Mg  Mg0  1  0.89878300  0.90369700  0.75238800  1
  Mn  Mn0  1  0.17776900  0.85531500  0.49769900  1
  Mn  Mn1  1  0.31804600  0.65372900  0.99714000  1
  Mn  Mn2  1  0.50829000  0.51749800  0.48826000  1
  Mn  Mn3  1  0.64647300  0.32492100  0.99714600  1
  Mn  Mn4  1  0.84611000  0.18664400  0.49807900  1
  Ni  Ni0  1  0.98899300  0.99612700  0.01937000  1
  O  O0  1  0.00600800  0.66506700  0.09778200  1
  O  O1  1  0.26890500  0.96132300  0.90041300  1
  O  O2  1  0.13983900  0.49011500  0.40137700  1
  O  O3  1  0.55250300  0.88137900  0.60118200  1
  O  O4  1  0.37919700  0.38645100  0.10216700  1
  O  O5  1  0.16702500  0.17600200  0.61220900  1
  O  O6  1  0.61692200  0.62360500  0.89072400  1
  O  O7  1  0.85663200  0.86589700  0.39295700  1
  O  O8  1  0.48160700  0.14937400  0.40144600  1
  O  O9  1  0.87255200  0.56181000  0.60112600  1
  O  O10  1  0.95461300  0.27526700  0.90066100  1
  O  O11  1  0.65723300  0.01327900  0.09787500  1
loop_
_geom_bond_atom_site_label_1
_geom_bond_atom_site_label_2
_geom_bond_distance
_geom_bond_site_symmetry_2
Mg0 O5 2.101597 1_665
Mg0 O6 2.130106 1_555
Mg0 O9 2.148839 1_555
Mg0 O3 2.173043 1_555
Mg0 O1 2.179141 1_655
Mg0 O10 2.188236 1_565
Mn0 O7 1.887068 1_455
Mn0 O8 1.924354 1_565
Mn0 O2 1.931445 1_555
Mn0 O5 1.933916 1_565
Mn0 O9 1.970406 1_455
Mn0 O3 2.028586 1_555
Mn1 O4 1.887184 1_556
Mn1 O11 1.932139 1_566
Mn1 O0 1.946731 1_556
Mn1 O6 1.960370 1_555
Mn1 O1 1.987581 1_555
Mn1 O10 2.012967 1_455
Mn2 O8 1.930926 1_555
Mn2 O2 1.931780 1_555
Mn2 O3 1.987742 1_555
Mn2 O9 1.989609 1_555
Mn2 O7 2.144405 1_555
Mn2 O5 2.284201 1_555
Mn3 O4 1.887376 1_556
Mn3 O0 1.933709 1_656
Mn3 O11 1.944977 1_556
Mn3 O6 1.959039 1_555
Mn3 O10 1.989331 1_555
Mn3 O1 2.012046 1_545
Mn4 O7 1.886393 1_545
Mn4 O2 1.925511 1_655
Mn4 O8 1.931634 1_555
Mn4 O5 1.933397 1_655
Mn4 O3 1.968732 1_545
Mn4 O9 2.027109 1_555
Ni0 O0 1.931223 1_655
Ni0 O11 1.934702 1_565
Ni0 O10 1.962067 1_564
Ni0 O1 1.966945 1_654
Ni0 O4 2.061383 1_665
Ni0 O6 2.146357 1_554
