# generated using pymatgen
data_MgVBiO4
_symmetry_space_group_name_H-M   'P 1'
_cell_length_a   6.60643777
_cell_length_b   5.33501781
_cell_length_c   5.42228437
_cell_angle_alpha   63.58436372
_cell_angle_beta   55.05591487
_cell_angle_gamma   54.54282130
_symmetry_Int_Tables_number   1
_chemical_formula_structural   MgVBiO4
_chemical_formula_sum   'Mg1 V1 Bi1 O4'
_cell_volume   125.77580767
_cell_formula_units_Z   1
loop_
 _symmetry_equiv_pos_site_id
 _symmetry_equiv_pos_as_xyz
  1  'x, y, z'
loop_
 _atom_site_type_symbol
 _atom_site_label
 _atom_site_symmetry_multiplicity
 _atom_site_fract_x
 _atom_site_fract_y
 _atom_site_fract_z
 _atom_site_occupancy
  Mg  Mg0  1  0.49808477  0.85855979  0.14588896  1
  V  V0  1  0.50160282  0.35205077  0.64412453  1
  Bi  Bi0  1  0.00349975  0.96887200  0.02473679  1
  O  O0  1  0.75829306  0.04647038  0.82080589  1
  O  O1  1  0.36209983  0.79887806  0.59255225  1
  O  O2  1  0.63697373  0.40115597  0.20838862  1
  O  O3  1  0.23944404  0.18512403  0.95239196  1
loop_
_geom_bond_atom_site_label_1
_geom_bond_atom_site_label_2
_geom_bond_distance
_geom_bond_site_symmetry_2
Mg0 O1 1.981780 1_555
Mg0 O2 1.983497 1_555
Mg0 O0 2.005779 1_564
Mg0 O3 2.007304 1_564
Bi0 O0 2.210196 1_464
Bi0 O3 2.213122 1_564
Bi0 O1 2.228251 1_554
Bi0 O2 2.230674 1_465
O0 V0 1.927508 1_555
O1 V0 1.939955 1_555
O2 V0 1.936816 1_555
O3 V0 1.932695 1_555
