# generated using pymatgen
data_KBi2
_symmetry_space_group_name_H-M   'P 1'
_cell_length_a   6.71619609
_cell_length_b   6.71619549
_cell_length_c   6.71619579
_cell_angle_alpha   60.00000362
_cell_angle_beta   60.00000662
_cell_angle_gamma   60.00000727
_symmetry_Int_Tables_number   1
_chemical_formula_structural   KBi2
_chemical_formula_sum   'K2 Bi4'
_cell_volume   214.21757752
_cell_formula_units_Z   2
loop_
 _symmetry_equiv_pos_site_id
 _symmetry_equiv_pos_as_xyz
  1  'x, y, z'
loop_
 _atom_site_type_symbol
 _atom_site_label
 _atom_site_symmetry_multiplicity
 _atom_site_fract_x
 _atom_site_fract_y
 _atom_site_fract_z
 _atom_site_occupancy
  K  K0  1  0.62500000  0.62500000  0.62500000  1
  K  K1  1  0.37500000  0.37500000  0.37500000  1
  Bi  Bi0  1  0.50000000  0.00000000  -0.00000000  1
  Bi  Bi1  1  0.00000000  0.50000000  -0.00000000  1
  Bi  Bi2  1  0.00000000  0.00000000  0.50000000  1
  Bi  Bi3  1  0.00000000  0.00000000  -0.00000000  1
loop_
_geom_bond_atom_site_label_1
_geom_bond_atom_site_label_2
_geom_bond_distance
_geom_bond_site_symmetry_2
Bi0 Bi3 3.358098 1_655
Bi0 Bi3 3.358098 1_555
Bi0 Bi1 3.358098 1_555
Bi0 Bi1 3.358098 1_645
Bi0 Bi2 3.358098 1_555
Bi0 Bi2 3.358098 1_654
Bi0 K0 3.937719 1_544
Bi0 K1 3.937719 1_555
Bi0 K1 3.937719 1_545
Bi0 K0 3.937719 1_554
Bi0 K1 3.937719 1_554
Bi0 K0 3.937719 1_545
Bi1 Bi3 3.358098 1_565
Bi1 Bi3 3.358098 1_555
Bi1 Bi2 3.358098 1_564
Bi1 Bi2 3.358098 1_555
Bi1 K0 3.937719 1_454
Bi1 K1 3.937719 1_555
Bi1 K1 3.937719 1_554
Bi1 K0 3.937719 1_455
Bi1 K0 3.937719 1_554
Bi1 K1 3.937719 1_455
Bi2 Bi3 3.358098 1_555
Bi2 Bi3 3.358098 1_556
Bi2 K0 3.937719 1_445
Bi2 K1 3.937719 1_555
Bi2 K1 3.937719 1_545
Bi2 K0 3.937719 1_455
Bi2 K1 3.937719 1_455
Bi2 K0 3.937719 1_545
Bi3 K0 3.937719 1_445
Bi3 K1 3.937719 1_554
Bi3 K0 3.937719 1_454
Bi3 K1 3.937719 1_545
Bi3 K0 3.937719 1_544
Bi3 K1 3.937719 1_455
