# generated using pymatgen
data_Na8Fe2O7
_symmetry_space_group_name_H-M   'P 1'
_cell_length_a   10.87840015
_cell_length_b   8.63622169
_cell_length_c   9.98775579
_cell_angle_alpha   72.32867803
_cell_angle_beta   90.00000000
_cell_angle_gamma   90.00000000
_symmetry_Int_Tables_number   1
_chemical_formula_structural   Na8Fe2O7
_chemical_formula_sum   'Na32 Fe8 O28'
_cell_volume   894.05584380
_cell_formula_units_Z   4
loop_
 _symmetry_equiv_pos_site_id
 _symmetry_equiv_pos_as_xyz
  1  'x, y, z'
loop_
 _atom_site_type_symbol
 _atom_site_label
 _atom_site_symmetry_multiplicity
 _atom_site_fract_x
 _atom_site_fract_y
 _atom_site_fract_z
 _atom_site_occupancy
  Na  Na0  1  0.74992166  0.28665675  0.42992180  1
  Na  Na1  1  0.02502756  0.88351574  0.41933961  1
  Na  Na2  1  0.47497244  0.88351574  0.91933961  1
  Na  Na3  1  0.97497244  0.11648426  0.58066039  1
  Na  Na4  1  0.75879114  0.89530810  0.03261499  1
  Na  Na5  1  0.25879114  0.10469190  0.46738501  1
  Na  Na6  1  0.24120886  0.10469190  0.96738501  1
  Na  Na7  1  0.74120886  0.89530810  0.53261499  1
  Na  Na8  1  0.55164558  0.74218340  0.21033982  1
  Na  Na9  1  0.05164558  0.25781660  0.28966018  1
  Na  Na10  1  0.44835442  0.25781660  0.78966018  1
  Na  Na11  1  0.94835442  0.74218340  0.71033982  1
  Na  Na12  1  0.50458710  0.66121355  0.51445805  1
  Na  Na13  1  0.00458710  0.33878645  0.98554195  1
  Na  Na14  1  0.49541290  0.33878645  0.48554195  1
  Na  Na15  1  0.99541290  0.66121355  0.01445805  1
  Na  Na16  1  0.73247750  0.50169443  0.62758118  1
  Na  Na17  1  0.23247750  0.49830557  0.87241882  1
  Na  Na18  1  0.26752250  0.49830557  0.37241882  1
  Na  Na19  1  0.76752250  0.50169443  0.12758118  1
  Na  Na20  1  0.03661004  0.91248605  0.14415832  1
  Na  Na21  1  0.75007834  0.28665675  0.92992180  1
  Na  Na22  1  0.52502756  0.11648426  0.08066039  1
  Na  Na23  1  0.24992166  0.71334325  0.07007820  1
  Na  Na24  1  0.97459498  0.43415913  0.64411969  1
  Na  Na25  1  0.47459498  0.56584087  0.85588031  1
  Na  Na26  1  0.02540502  0.56584087  0.35588031  1
  Na  Na27  1  0.52540502  0.43415913  0.14411969  1
  Na  Na28  1  0.46338996  0.91248605  0.64415832  1
  Na  Na29  1  0.96338996  0.08751395  0.85584168  1
  Na  Na30  1  0.53661004  0.08751395  0.35584168  1
  Na  Na31  1  0.25007834  0.71334325  0.57007820  1
  Fe  Fe0  1  0.71797662  0.69333445  0.84620047  1
  Fe  Fe1  1  0.21797662  0.30666555  0.65379953  1
  Fe  Fe2  1  0.28202338  0.30666555  0.15379953  1
  Fe  Fe3  1  0.78202338  0.69333445  0.34620047  1
  Fe  Fe4  1  0.70450720  0.09285825  0.72648344  1
  Fe  Fe5  1  0.20450720  0.90714175  0.77351656  1
  Fe  Fe6  1  0.29549280  0.90714175  0.27351656  1
  Fe  Fe7  1  0.79549280  0.09285825  0.22648344  1
  O  O0  1  0.11228395  0.89771374  0.61813018  1
  O  O1  1  0.61228395  0.10228626  0.88186982  1
  O  O2  1  0.88771605  0.10228626  0.38186982  1
  O  O3  1  0.38771605  0.89771374  0.11813018  1
  O  O4  1  0.11507661  0.32668044  0.49625895  1
  O  O5  1  0.61507661  0.67331956  0.00374105  1
  O  O6  1  0.88492339  0.67331956  0.50374105  1
  O  O7  1  0.38492339  0.32668044  0.99625895  1
  O  O8  1  0.61062244  0.10594074  0.56612330  1
  O  O9  1  0.11062244  0.89405926  0.93387670  1
  O  O10  1  0.38937756  0.89405926  0.43387670  1
  O  O11  1  0.88937756  0.10594074  0.06612330  1
  O  O12  1  0.82556787  0.25386508  0.68266070  1
  O  O13  1  0.32556787  0.74613492  0.81733930  1
  O  O14  1  0.17443213  0.74613492  0.31733930  1
  O  O15  1  0.67443213  0.25386508  0.18266070  1
  O  O16  1  0.61889501  0.68093529  0.69670084  1
  O  O17  1  0.11889501  0.31906471  0.80329916  1
  O  O18  1  0.38110499  0.31906471  0.30329916  1
  O  O19  1  0.88110499  0.68093529  0.19670084  1
  O  O20  1  0.34989026  0.45896602  0.60659721  1
  O  O21  1  0.84989026  0.54103398  0.89340279  1
  O  O22  1  0.65010974  0.54103398  0.39340279  1
  O  O23  1  0.15010974  0.45896602  0.10659721  1
  O  O24  1  0.30226339  0.10243806  0.71697981  1
  O  O25  1  0.80226339  0.89756194  0.78302019  1
  O  O26  1  0.69773661  0.89756194  0.28302019  1
  O  O27  1  0.19773661  0.10243806  0.21697981  1
loop_
_geom_bond_atom_site_label_1
_geom_bond_atom_site_label_2
_geom_bond_distance
_geom_bond_site_symmetry_2
Na0 O8 2.300799 1_555
Na0 O2 2.340199 1_555
Na0 O22 2.377330 1_555
Na0 O12 2.587554 1_555
Na0 O15 2.697781 1_555
Na1 O0 2.237395 1_555
Na1 O6 2.323747 1_455
Na1 O2 2.347692 1_465
Na1 O14 2.412652 1_555
Na2 O3 2.237395 1_556
Na2 O5 2.323747 1_556
Na2 O1 2.347692 1_565
Na2 O13 2.412652 1_555
Na3 O2 2.237395 1_555
Na3 O4 2.323747 1_655
Na3 O0 2.347692 1_645
Na3 O12 2.412652 1_555
Na4 O11 2.410114 1_565
Na4 O19 2.458006 1_555
Na4 O1 2.523531 1_564
Na4 O25 2.531615 1_554
Na4 O5 2.557035 1_555
Na4 O26 2.593452 1_555
Na5 O10 2.410114 1_545
Na5 O18 2.458006 1_555
Na5 O0 2.523531 1_545
Na5 O24 2.531615 1_555
Na5 O4 2.557035 1_555
Na5 O27 2.593452 1_555
Na6 O9 2.410114 1_545
Na6 O17 2.458006 1_555
Na6 O3 2.523531 1_546
Na6 O27 2.531615 1_556
Na6 O7 2.557035 1_555
Na6 O24 2.593452 1_555
Na7 O8 2.410114 1_565
Na7 O16 2.458006 1_555
Na7 O2 2.523531 1_565
Na7 O26 2.531615 1_555
Na7 O6 2.557035 1_555
Na7 O25 2.593452 1_555
Na8 O3 2.254209 1_555
Na8 O26 2.333379 1_555
Na8 O22 2.362153 1_555
Na8 O5 2.415105 1_555
Na9 O2 2.254209 1_455
Na9 O27 2.333379 1_555
Na9 O23 2.362153 1_555
Na9 O4 2.415105 1_555
Na10 O1 2.254209 1_555
Na10 O24 2.333379 1_555
Na10 O20 2.362153 1_555
Na10 O7 2.415105 1_555
Na11 O0 2.254209 1_655
Na11 O25 2.333379 1_555
Na11 O21 2.362153 1_555
Na11 O6 2.415105 1_555
Na12 O16 2.253131 1_555
Na12 O10 2.297754 1_555
Na12 O20 2.398713 1_555
Na12 O22 2.409772 1_555
Na13 O17 2.253131 1_555
Na13 O11 2.297754 1_456
Na13 O21 2.398713 1_455
Na13 O23 2.409772 1_556
Na14 O18 2.253131 1_555
Na14 O8 2.297754 1_555
Na14 O22 2.398713 1_555
Na14 O20 2.409772 1_555
Na15 O19 2.253131 1_555
Na15 O9 2.297754 1_654
Na15 O23 2.398713 1_655
Na15 O21 2.409772 1_554
Na16 O16 2.246832 1_555
Na16 O12 2.279086 1_555
Na16 O6 2.316019 1_555
Na16 O22 2.430307 1_555
Na17 O17 2.246832 1_555
Na17 O13 2.279086 1_555
Na17 O7 2.316019 1_555
Na17 O23 2.430307 1_556
Na18 O18 2.246832 1_555
Na18 O14 2.279086 1_555
Na18 O4 2.316019 1_555
Na18 O20 2.430307 1_555
Na19 O19 2.246832 1_555
Na19 O15 2.279086 1_555
Na19 O5 2.316019 1_555
Na19 O21 2.430307 1_554
Na20 O11 2.274532 1_465
Na20 O9 2.299456 1_554
Na20 O14 2.407277 1_555
Na20 O19 2.549283 1_455
Na20 O27 2.648927 1_565
Na21 O11 2.300799 1_556
Na21 O1 2.340199 1_555
Na21 O21 2.377330 1_555
Na21 O15 2.587554 1_556
Na21 O12 2.697781 1_555
Na22 O1 2.237395 1_554
Na22 O7 2.323747 1_554
Na22 O3 2.347692 1_545
Na22 O15 2.412652 1_555
Na23 O9 2.300799 1_554
Na23 O3 2.340199 1_555
Na23 O23 2.377330 1_555
Na23 O13 2.587554 1_554
Na23 O14 2.697781 1_555
Na24 O12 2.199304 1_555
Na24 O17 2.240609 1_655
Na24 O6 2.329224 1_555
Na24 O4 2.492019 1_655
Na25 O13 2.199304 1_555
Na25 O16 2.240609 1_555
Na25 O7 2.329224 1_555
Na25 O5 2.492019 1_556
Na26 O14 2.199304 1_555
Na26 O19 2.240609 1_455
Na26 O4 2.329224 1_555
Na26 O6 2.492019 1_455
Na27 O15 2.199304 1_555
Na27 O18 2.240609 1_555
Na27 O5 2.329224 1_555
Na27 O7 2.492019 1_554
Na28 O8 2.274532 1_565
Na28 O10 2.299456 1_555
Na28 O13 2.407277 1_555
Na28 O16 2.549283 1_555
Na28 O24 2.648927 1_565
Na29 O9 2.274532 1_645
Na29 O11 2.299456 1_556
Na29 O12 2.407277 1_555
Na29 O17 2.549283 1_655
Na29 O25 2.648927 1_545
Na30 O10 2.274532 1_545
Na30 O8 2.299456 1_555
Na30 O15 2.407277 1_555
Na30 O18 2.549283 1_555
Na30 O26 2.648927 1_545
Na31 O10 2.300799 1_555
Na31 O0 2.340199 1_555
Na31 O20 2.377330 1_555
Na31 O14 2.587554 1_555
Na31 O13 2.697781 1_555
Fe0 O16 1.870786 1_555
Fe0 O5 1.895683 1_556
Fe0 O21 1.906584 1_555
Fe0 O25 1.916778 1_555
Fe1 O17 1.870786 1_555
Fe1 O4 1.895683 1_555
Fe1 O20 1.906584 1_555
Fe1 O24 1.916778 1_555
Fe2 O18 1.870786 1_555
Fe2 O7 1.895683 1_554
Fe2 O23 1.906584 1_555
Fe2 O27 1.916778 1_555
Fe3 O19 1.870786 1_555
Fe3 O6 1.895683 1_555
Fe3 O22 1.906584 1_555
Fe3 O26 1.916778 1_555
Fe4 O12 1.868126 1_555
Fe4 O1 1.870407 1_555
Fe4 O8 1.873829 1_555
Fe4 O25 1.927752 1_545
Fe5 O13 1.868126 1_555
Fe5 O0 1.870407 1_555
Fe5 O9 1.873829 1_555
Fe5 O24 1.927752 1_565
Fe6 O14 1.868126 1_555
Fe6 O3 1.870407 1_555
Fe6 O10 1.873829 1_555
Fe6 O27 1.927752 1_565
Fe7 O15 1.868126 1_555
Fe7 O2 1.870407 1_555
Fe7 O11 1.873829 1_555
Fe7 O26 1.927752 1_545
