# generated using pymatgen
data_Na2MgW4O13
_symmetry_space_group_name_H-M   'P 1'
_cell_length_a   3.94943503
_cell_length_b   8.50690661
_cell_length_c   9.03815149
_cell_angle_alpha   97.65305109
_cell_angle_beta   102.30571445
_cell_angle_gamma   90.60907991
_symmetry_Int_Tables_number   1
_chemical_formula_structural   Na2MgW4O13
_chemical_formula_sum   'Na2 Mg1 W4 O13'
_cell_volume   293.80089679
_cell_formula_units_Z   1
loop_
 _symmetry_equiv_pos_site_id
 _symmetry_equiv_pos_as_xyz
  1  'x, y, z'
loop_
 _atom_site_type_symbol
 _atom_site_label
 _atom_site_symmetry_multiplicity
 _atom_site_fract_x
 _atom_site_fract_y
 _atom_site_fract_z
 _atom_site_occupancy
  Na  Na0  1  0.71462300  0.69483200  0.42212300  1
  Na  Na1  1  0.27129500  0.32228700  0.55036500  1
  Mg  Mg0  1  0.46914300  0.42494800  0.94405000  1
  W  W0  1  0.90696600  0.63519600  0.81017600  1
  W  W1  1  0.08654600  0.35475300  0.18222200  1
  W  W2  1  0.87430000  0.02240800  0.81149900  1
  W  W3  1  0.12947300  0.96661700  0.18280700  1
  O  O0  1  0.98871000  0.83746900  0.97862400  1
  O  O1  1  0.59472900  0.97105300  0.17195000  1
  O  O2  1  0.42301400  0.61760600  0.84455400  1
  O  O3  1  0.56747600  0.35300200  0.14239000  1
  O  O4  1  0.98464200  0.46542900  0.97384700  1
  O  O5  1  0.81708400  0.49595800  0.63624500  1
  O  O6  1  0.16883100  0.50563400  0.34471400  1
  O  O7  1  0.84943200  0.17187300  0.68830000  1
  O  O8  1  0.15690700  0.17139800  0.30800600  1
  O  O9  1  0.40538900  0.02044800  0.82268300  1
  O  O10  1  0.00912900  0.14281700  0.01667900  1
  O  O11  1  0.15809500  0.83245300  0.31993000  1
  O  O12  1  0.84088700  0.82194600  0.68455100  1
loop_
_geom_bond_atom_site_label_1
_geom_bond_atom_site_label_2
_geom_bond_distance
_geom_bond_site_symmetry_2
Na0 O12 2.417635 1_555
Na0 O11 2.495057 1_655
Na0 O11 2.555808 1_555
Na0 O6 2.567943 1_655
Na0 O6 2.590348 1_555
Na0 O5 2.706288 1_555
Na1 O8 2.338135 1_555
Na1 O5 2.518989 1_555
Na1 O5 2.519449 1_455
Na1 O6 2.552688 1_555
Na1 O7 2.689306 1_455
Na1 O7 2.771034 1_555
Mg0 O3 1.933766 1_556
Mg0 O2 1.963923 1_555
Mg0 O4 2.015338 1_455
Mg0 O4 2.015640 1_555
O0 W3 1.982780 1_656
O0 W0 2.112794 1_555
O0 W2 2.306093 1_565
O1 W3 1.861135 1_555
O1 W3 2.094200 1_655
O2 W0 2.005421 1_455
O2 W0 2.007882 1_555
O3 W1 2.003946 1_655
O3 W1 2.007038 1_555
O4 W1 2.180041 1_656
O4 W0 2.180156 1_555
O5 W0 1.804853 1_555
O6 W1 1.787609 1_555
O7 W2 1.788663 1_555
O8 W3 1.935360 1_545
O8 W1 2.037018 1_555
O9 W2 1.876097 1_555
O9 W2 2.078660 1_455
O10 W2 1.957877 1_454
O10 W1 2.158107 1_555
O10 W3 2.244443 1_545
O11 W3 1.780764 1_555
O12 W2 1.910890 1_565
O12 W0 2.060118 1_555
