# generated using pymatgen
data_MgTi2Nb2(CuO4)3
_symmetry_space_group_name_H-M   'P 1'
_cell_length_a   6.55374666
_cell_length_b   6.55385295
_cell_length_c   6.55902290
_cell_angle_alpha   109.53735359
_cell_angle_beta   109.51893705
_cell_angle_gamma   109.32536775
_symmetry_Int_Tables_number   1
_chemical_formula_structural   MgTi2Nb2(CuO4)3
_chemical_formula_sum   'Mg1 Ti2 Nb2 Cu3 O12'
_cell_volume   216.95698864
_cell_formula_units_Z   1
loop_
 _symmetry_equiv_pos_site_id
 _symmetry_equiv_pos_as_xyz
  1  'x, y, z'
loop_
 _atom_site_type_symbol
 _atom_site_label
 _atom_site_symmetry_multiplicity
 _atom_site_fract_x
 _atom_site_fract_y
 _atom_site_fract_z
 _atom_site_occupancy
  Mg  Mg0  1  0.00000000  0.00000000  0.00000000  1
  Ti  Ti0  1  0.50000000  0.00000000  0.00000000  1
  Ti  Ti1  1  0.00000000  0.50000000  0.00000000  1
  Nb  Nb0  1  0.00000000  0.00000000  0.50000000  1
  Nb  Nb1  1  0.50000000  0.50000000  0.50000000  1
  Cu  Cu0  1  0.50000000  0.50000000  0.00000000  1
  Cu  Cu1  1  0.50000000  0.00000000  0.50000000  1
  Cu  Cu2  1  0.00000000  0.50000000  0.50000000  1
  O  O0  1  0.82074000  0.29612100  0.11682500  1
  O  O1  1  0.47521200  0.17573900  0.29592100  1
  O  O2  1  0.87978800  0.17923400  0.70405800  1
  O  O3  1  0.29570200  0.47506500  0.17568700  1
  O  O4  1  0.70060300  0.87996300  0.17566900  1
  O  O5  1  0.82509000  0.70061500  0.52569900  1
  O  O6  1  0.17491000  0.29938500  0.47430100  1
  O  O7  1  0.29939700  0.12003700  0.82433000  1
  O  O8  1  0.70429800  0.52493500  0.82431300  1
  O  O9  1  0.12021200  0.82076600  0.29594200  1
  O  O10  1  0.52478800  0.82426100  0.70407900  1
  O  O11  1  0.17926000  0.70387900  0.88317500  1
loop_
_geom_bond_atom_site_label_1
_geom_bond_atom_site_label_2
_geom_bond_distance
_geom_bond_site_symmetry_2
Mg0 O0 2.617212 1_455
Mg0 O11 2.617212 1_544
Mg0 O9 2.623748 1_545
Mg0 O2 2.623748 1_454
Mg0 O1 2.623860 1_555
Mg0 O10 2.623860 1_444
Mg0 O6 2.624429 1_555
Mg0 O5 2.624429 1_444
Mg0 O3 2.625247 1_555
Mg0 O8 2.625247 1_444
Mg0 O4 2.625262 1_445
Mg0 O7 2.625267 1_554
Nb0 O5 2.013465 1_445
Nb0 O6 2.013465 1_555
Nb0 O2 2.014327 1_455
Nb0 O9 2.014327 1_545
Nb0 O7 2.015951 1_555
Nb0 O4 2.015955 1_445
Nb1 O6 2.013485 1_555
Nb1 O5 2.013485 1_555
Nb1 O10 2.014446 1_555
Nb1 O1 2.014446 1_555
Nb1 O8 2.015873 1_555
Nb1 O3 2.015873 1_555
Cu0 O7 2.039367 1_554
Cu0 O4 2.039367 1_555
Cu0 O8 2.039467 1_554
Cu0 O3 2.039467 1_555
Cu1 O2 2.038051 1_555
Cu1 O9 2.038051 1_545
Cu1 O1 2.038232 1_555
Cu1 O10 2.038232 1_545
Cu2 O5 2.012359 1_455
Cu2 O6 2.012359 1_555
Cu2 O11 2.055217 1_555
Cu2 O0 2.055217 1_455
O0 Ti1 2.000038 1_655
O0 Ti0 2.000286 1_555
O1 Ti0 1.989871 1_555
O2 Ti1 1.990114 1_656
O3 Ti1 1.988349 1_555
O4 Ti0 1.988346 1_565
O7 Ti0 1.988349 1_556
O8 Ti1 1.988349 1_656
O9 Ti1 1.990114 1_555
O10 Ti0 1.989871 1_566
O11 Ti1 2.000038 1_556
O11 Ti0 2.000286 1_566
