# generated using pymatgen
data_Na2CuH6C2O9
_symmetry_space_group_name_H-M   'P 1'
_cell_length_a   6.05383861
_cell_length_b   9.66807994
_cell_length_c   16.29965248
_cell_angle_alpha   55.79396645
_cell_angle_beta   90.00000471
_cell_angle_gamma   90.00006529
_symmetry_Int_Tables_number   1
_chemical_formula_structural   Na2CuH6C2O9
_chemical_formula_sum   'Na8 Cu4 H24 C8 O36'
_cell_volume   788.98028866
_cell_formula_units_Z   4
loop_
 _symmetry_equiv_pos_site_id
 _symmetry_equiv_pos_as_xyz
  1  'x, y, z'
loop_
 _atom_site_type_symbol
 _atom_site_label
 _atom_site_symmetry_multiplicity
 _atom_site_fract_x
 _atom_site_fract_y
 _atom_site_fract_z
 _atom_site_occupancy
  Na  Na0  1  0.23863365  0.96419087  0.69991400  1
  Na  Na1  1  0.73863407  0.03580945  0.80008588  1
  Na  Na2  1  0.76136635  0.03580913  0.30008600  1
  Na  Na3  1  0.26136593  0.96419055  0.19991412  1
  Na  Na4  1  0.51814919  0.29639387  0.09713503  1
  Na  Na5  1  0.01814866  0.70360582  0.40286489  1
  Na  Na6  1  0.48185081  0.70360613  0.90286497  1
  Na  Na7  1  0.98185134  0.29639418  0.59713511  1
  Cu  Cu0  1  0.50698255  0.70147264  0.67724852  1
  Cu  Cu1  1  0.00698132  0.29852752  0.82275148  1
  Cu  Cu2  1  0.49301745  0.29852736  0.32275148  1
  Cu  Cu3  1  0.99301868  0.70147248  0.17724852  1
  H  H0  1  0.45411832  0.27824368  0.61011702  1
  H  H1  1  0.95411803  0.72175580  0.88988362  1
  H  H2  1  0.54588168  0.72175632  0.38988298  1
  H  H3  1  0.04588197  0.27824420  0.11011638  1
  H  H4  1  0.39423969  0.29489356  0.51180547  1
  H  H5  1  0.89424204  0.70510605  0.98819510  1
  H  H6  1  0.60576031  0.70510644  0.48819453  1
  H  H7  1  0.10575796  0.29489395  0.01180490  1
  H  H8  1  0.52238800  0.43554041  0.88006371  1
  H  H9  1  0.02238765  0.56445924  0.61993625  1
  H  H10  1  0.47761200  0.56445959  0.11993629  1
  H  H11  1  0.97761235  0.43554076  0.38006375  1
  H  H12  1  0.75861530  0.44649552  0.91168581  1
  H  H13  1  0.25861528  0.55350486  0.58831369  1
  H  H14  1  0.24138470  0.55350448  0.08831419  1
  H  H15  1  0.74138472  0.44649514  0.41168631  1
  H  H16  1  0.06946256  0.85368313  0.59361100  1
  H  H17  1  0.56946372  0.14631780  0.90638813  1
  H  H18  1  0.93053744  0.14631687  0.40638900  1
  H  H19  1  0.43053628  0.85368220  0.09361187  1
  H  H20  1  0.23978107  0.97615284  0.51420919  1
  H  H21  1  0.73978201  0.02384776  0.98579038  1
  H  H22  1  0.76021893  0.02384716  0.48579081  1
  H  H23  1  0.26021799  0.97615224  0.01420962  1
  C  C0  1  0.74164618  0.90984195  0.66925489  1
  C  C1  1  0.24164726  0.09015786  0.83074502  1
  C  C2  1  0.25835382  0.09015805  0.33074511  1
  C  C3  1  0.75835274  0.90984214  0.16925498  1
  C  C4  1  0.15526787  0.55555867  0.82659184  1
  C  C5  1  0.65526764  0.44444149  0.67340770  1
  C  C6  1  0.84473213  0.44444133  0.17340816  1
  C  C7  1  0.34473236  0.55555851  0.32659230  1
  O  O0  1  0.34919286  0.23881392  0.58101611  1
  O  O1  1  0.84919384  0.76118569  0.91898477  1
  O  O2  1  0.65080714  0.76118608  0.41898389  1
  O  O3  1  0.15080616  0.23881431  0.08101523  1
  O  O4  1  0.60172492  0.44402377  0.92883604  1
  O  O5  1  0.10172465  0.55597687  0.57116362  1
  O  O6  1  0.39827508  0.55597623  0.07116396  1
  O  O7  1  0.89827535  0.44402313  0.42883638  1
  O  O8  1  0.22564821  0.88482703  0.58485774  1
  O  O9  1  0.72564959  0.11517381  0.91514211  1
  O  O10  1  0.77435179  0.11517297  0.41514226  1
  O  O11  1  0.27435041  0.88482619  0.08485789  1
  O  O12  1  0.86201469  0.01765482  0.66649613  1
  O  O13  1  0.36201579  0.98234497  0.83350411  1
  O  O14  1  0.13798531  0.98234518  0.33350387  1
  O  O15  1  0.63798421  0.01765503  0.16649589  1
  O  O16  1  0.58172845  0.83310375  0.73330128  1
  O  O17  1  0.08173018  0.16689843  0.76669859  1
  O  O18  1  0.41827155  0.16689625  0.26669872  1
  O  O19  1  0.91826982  0.83310157  0.23330141  1
  O  O20  1  0.76231668  0.86068629  0.60889885  1
  O  O21  1  0.26231459  0.13931432  0.89110072  1
  O  O22  1  0.23768332  0.13931371  0.39110115  1
  O  O23  1  0.73768541  0.86068568  0.10889928  1
  O  O24  1  0.15253516  0.68167437  0.83136026  1
  O  O25  1  0.65253634  0.31832650  0.66863893  1
  O  O26  1  0.84746484  0.31832563  0.16863974  1
  O  O27  1  0.34746366  0.68167350  0.33136107  1
  O  O28  1  0.02327732  0.42770716  0.88188161  1
  O  O29  1  0.52327749  0.57229255  0.61811800  1
  O  O30  1  0.97672268  0.57229284  0.11811839  1
  O  O31  1  0.47672251  0.42770745  0.38188200  1
  O  O32  1  0.28885971  0.54051408  0.76974001  1
  O  O33  1  0.78885977  0.45948374  0.73026059  1
  O  O34  1  0.71114029  0.45948592  0.23025999  1
  O  O35  1  0.21114023  0.54051626  0.26973941  1
loop_
_geom_bond_atom_site_label_1
_geom_bond_atom_site_label_2
_geom_bond_distance
_geom_bond_site_symmetry_2
Na0 O16 2.332596 1_555
Na0 O12 2.333597 1_465
Na0 O0 2.338355 1_565
Na0 O8 2.393711 1_555
Na0 O24 2.396428 1_555
Na0 O13 2.399959 1_555
Na1 O17 2.332608 1_655
Na1 O13 2.333593 1_545
Na1 O1 2.338365 1_545
Na1 O9 2.393715 1_555
Na1 O25 2.396434 1_555
Na1 O12 2.399954 1_555
Na2 O18 2.332596 1_555
Na2 O14 2.333597 1_645
Na2 O2 2.338355 1_545
Na2 O10 2.393711 1_555
Na2 O26 2.396428 1_555
Na2 O15 2.399959 1_555
Na3 O19 2.332608 1_455
Na3 O15 2.333593 1_565
Na3 O3 2.338365 1_565
Na3 O11 2.393715 1_555
Na3 O27 2.396434 1_555
Na3 O14 2.399954 1_555
Na4 O4 2.327266 1_554
Na4 O3 2.342825 1_555
Na4 O15 2.375131 1_555
Na4 O26 2.378182 1_555
Na4 O18 2.383543 1_555
Na4 O6 2.410345 1_555
Na5 O5 2.327264 1_555
Na5 O2 2.342816 1_455
Na5 O14 2.375136 1_555
Na5 O27 2.378173 1_555
Na5 O19 2.383545 1_455
Na5 O7 2.410342 1_455
Na6 O6 2.327266 1_556
Na6 O1 2.342825 1_555
Na6 O13 2.375131 1_555
Na6 O24 2.378182 1_555
Na6 O16 2.383543 1_555
Na6 O4 2.410345 1_555
Na7 O7 2.327264 1_555
Na7 O0 2.342816 1_655
Na7 O12 2.375136 1_555
Na7 O25 2.378173 1_555
Na7 O17 2.383545 1_655
Na7 O5 2.410342 1_655
Cu0 O32 1.949449 1_555
Cu0 O29 1.962615 1_555
Cu0 O16 1.991569 1_555
Cu0 O20 2.017872 1_555
Cu0 O8 2.304237 1_555
Cu1 O33 1.949434 1_455
Cu1 O28 1.962606 1_555
Cu1 O17 1.991558 1_555
Cu1 O21 2.017867 1_555
Cu1 O9 2.304219 1_455
Cu2 O34 1.949449 1_555
Cu2 O31 1.962615 1_555
Cu2 O18 1.991569 1_555
Cu2 O22 2.017872 1_555
Cu2 O10 2.304237 1_555
Cu3 O35 1.949434 1_655
Cu3 O30 1.962606 1_555
Cu3 O19 1.991558 1_555
Cu3 O23 2.017867 1_555
Cu3 O11 2.304219 1_655
H0 O0 0.988484 1_555
H0 O25 1.708376 1_555
H1 O1 0.988483 1_555
H1 O24 1.708382 1_655
H2 O2 0.988484 1_555
H2 O27 1.708376 1_555
H3 O3 0.988483 1_555
H3 O26 1.708382 1_455
H4 O0 0.976354 1_555
H5 O1 0.976353 1_555
H6 O2 0.976354 1_555
H7 O3 0.976353 1_555
H8 O4 0.970926 1_555
H9 O5 0.970926 1_555
H10 O6 0.970926 1_555
H11 O7 0.970926 1_555
H12 O4 0.986561 1_555
H12 O28 1.713279 1_655
H13 O5 0.986562 1_555
H13 O29 1.713279 1_555
H14 O6 0.986561 1_555
H14 O30 1.713279 1_455
H15 O7 0.986562 1_555
H15 O31 1.713279 1_555
H16 O8 0.978126 1_555
H17 O9 0.978127 1_555
H18 O10 0.978126 1_555
H19 O11 0.978127 1_555
H20 O8 0.984782 1_555
H20 O22 1.719333 1_565
H21 O9 0.984779 1_555
H21 O23 1.719346 1_546
H22 O10 0.984782 1_555
H22 O20 1.719333 1_545
H23 O11 0.984779 1_555
H23 O21 1.719346 1_564
C0 O12 1.251716 1_565
C0 O16 1.306395 1_555
C0 O20 1.317197 1_555
C1 O13 1.251715 1_545
C1 O17 1.306396 1_555
C1 O21 1.317196 1_555
C2 O14 1.251716 1_545
C2 O18 1.306395 1_555
C2 O22 1.317197 1_555
C3 O15 1.251715 1_565
C3 O19 1.306396 1_555
C3 O23 1.317196 1_555
C4 O24 1.264733 1_555
C4 O32 1.298259 1_555
C4 O28 1.313799 1_555
C5 O25 1.264730 1_555
C5 O33 1.298261 1_555
C5 O29 1.313796 1_555
C6 O26 1.264733 1_555
C6 O34 1.298259 1_555
C6 O30 1.313799 1_555
C7 O27 1.264730 1_555
C7 O35 1.298261 1_555
C7 O31 1.313796 1_555
