# generated using pymatgen
data_MgV4O7F5
_symmetry_space_group_name_H-M   'P 1'
_cell_length_a   5.11985318
_cell_length_b   5.52060685
_cell_length_c   8.99326590
_cell_angle_alpha   71.45292804
_cell_angle_beta   90.90049119
_cell_angle_gamma   60.89896502
_symmetry_Int_Tables_number   1
_chemical_formula_structural   MgV4O7F5
_chemical_formula_sum   'Mg1 V4 O7 F5'
_cell_volume   206.06420354
_cell_formula_units_Z   1
loop_
 _symmetry_equiv_pos_site_id
 _symmetry_equiv_pos_as_xyz
  1  'x, y, z'
loop_
 _atom_site_type_symbol
 _atom_site_label
 _atom_site_symmetry_multiplicity
 _atom_site_fract_x
 _atom_site_fract_y
 _atom_site_fract_z
 _atom_site_occupancy
  Mg  Mg0  1  0.69163500  0.61551300  0.89397700  1
  V  V0  1  0.74272300  0.49201900  0.26309300  1
  V  V1  1  0.51429100  0.00697300  0.48952000  1
  V  V2  1  0.27771700  0.51828400  0.73766500  1
  V  V3  1  0.01350600  0.95672600  0.02559600  1
  O  O0  1  0.90264300  0.77095900  0.57993100  1
  O  O1  1  0.92828000  0.75061300  0.17355500  1
  O  O2  1  0.45104400  0.73862400  0.06194100  1
  O  O3  1  0.41659300  0.78866400  0.67731300  1
  O  O4  1  0.55203700  0.25649700  0.33137700  1
  O  O5  1  0.58036900  0.27458300  0.90702100  1
  O  O6  1  0.06808600  0.24546000  0.41196000  1
  F  F0  1  0.97578400  0.26122600  0.11506500  1
  F  F1  1  0.51174000  0.75650700  0.37870500  1
  F  F2  1  0.46227100  0.27462200  0.61065300  1
  F  F3  1  0.99518800  0.75625700  0.87448200  1
  F  F4  1  0.05359600  0.28647500  0.83243400  1
loop_
_geom_bond_atom_site_label_1
_geom_bond_atom_site_label_2
_geom_bond_distance
_geom_bond_site_symmetry_2
Mg0 O3 2.028036 1_555
Mg0 O2 2.039177 1_556
Mg0 O5 2.187532 1_555
O0 V1 1.751407 1_565
O0 V2 1.922419 1_655
O1 V3 1.671442 1_655
O1 V0 2.049622 1_555
O2 V3 1.917753 1_555
O2 V0 1.930500 1_555
O3 V2 1.886072 1_555
O3 V1 1.968008 1_565
O4 V1 1.725942 1_555
O4 V0 1.940736 1_555
O5 V2 1.767843 1_555
O5 V3 2.020943 1_646
O6 V0 1.727752 1_455
O6 V1 1.969503 1_555
F0 V3 2.014972 1_645
F0 V0 2.114140 1_555
F0 Mg0 2.136029 1_554
F1 V1 1.949125 1_565
F1 V0 1.984035 1_555
F2 V2 1.944760 1_555
F2 V1 2.022692 1_555
F3 V3 2.033292 1_656
F3 Mg0 2.036253 1_555
F3 V2 2.137315 1_655
F4 Mg0 2.106583 1_455
F4 V2 2.108554 1_555
F4 V3 2.176380 1_546
