# generated using pymatgen
data_LiMn4(PO4)3
_symmetry_space_group_name_H-M   'P 1'
_cell_length_a   6.49710000
_cell_length_b   10.00928300
_cell_length_c   14.66404000
_cell_angle_alpha   90.00000000
_cell_angle_beta   90.00000000
_cell_angle_gamma   90.00000000
_symmetry_Int_Tables_number   1
_chemical_formula_structural   LiMn4(PO4)3
_chemical_formula_sum   'Li4 Mn16 P12 O48'
_cell_volume   953.62176892
_cell_formula_units_Z   4
loop_
 _symmetry_equiv_pos_site_id
 _symmetry_equiv_pos_as_xyz
  1  'x, y, z'
loop_
 _atom_site_type_symbol
 _atom_site_label
 _atom_site_symmetry_multiplicity
 _atom_site_fract_x
 _atom_site_fract_y
 _atom_site_fract_z
 _atom_site_occupancy
  Li  Li0  1  0.56768800  0.73792700  0.25000000  1
  Li  Li1  1  0.93231200  0.23792700  0.75000000  1
  Li  Li2  1  0.06768800  0.76207300  0.25000000  1
  Li  Li3  1  0.43231200  0.26207300  0.75000000  1
  Mn  Mn0  1  0.64644800  0.44110400  0.90215500  1
  Mn  Mn1  1  0.65643100  0.83936100  0.60675400  1
  Mn  Mn2  1  0.65643100  0.83936100  0.89324600  1
  Mn  Mn3  1  0.64644800  0.44110400  0.59784500  1
  Mn  Mn4  1  0.84356900  0.33936100  0.10675400  1
  Mn  Mn5  1  0.84356900  0.33936100  0.39324600  1
  Mn  Mn6  1  0.85355200  0.94110400  0.09784500  1
  Mn  Mn7  1  0.85355200  0.94110400  0.40215500  1
  Mn  Mn8  1  0.14644800  0.05889600  0.59784500  1
  Mn  Mn9  1  0.14644800  0.05889600  0.90215500  1
  Mn  Mn10  1  0.15643100  0.66063900  0.60675400  1
  Mn  Mn11  1  0.15643100  0.66063900  0.89324600  1
  Mn  Mn12  1  0.34356900  0.16063900  0.10675400  1
  Mn  Mn13  1  0.34356900  0.16063900  0.39324600  1
  Mn  Mn14  1  0.35355200  0.55889600  0.09784500  1
  Mn  Mn15  1  0.35355200  0.55889600  0.40215500  1
  P  P0  1  0.49188100  0.59281600  0.75000000  1
  P  P1  1  0.35045000  0.86666100  0.42802500  1
  P  P2  1  0.35045000  0.86666100  0.07197500  1
  P  P3  1  0.14955000  0.36666100  0.92802500  1
  P  P4  1  0.14955000  0.36666100  0.57197500  1
  P  P5  1  0.00811900  0.09281600  0.25000000  1
  P  P6  1  0.99188100  0.90718400  0.75000000  1
  P  P7  1  0.85045000  0.63333900  0.42802500  1
  P  P8  1  0.85045000  0.63333900  0.07197500  1
  P  P9  1  0.64955000  0.13333900  0.92802500  1
  P  P10  1  0.64955000  0.13333900  0.57197500  1
  P  P11  1  0.50811900  0.40718400  0.25000000  1
  O  O0  1  0.59943500  0.21872000  0.01451100  1
  O  O1  1  0.47016000  0.03943000  0.60071000  1
  O  O2  1  0.45211400  0.55792700  0.25000000  1
  O  O3  1  0.41418600  0.35088400  0.33930300  1
  O  O4  1  0.41418600  0.35088400  0.16069700  1
  O  O5  1  0.40056500  0.78128000  0.98548900  1
  O  O6  1  0.40056500  0.78128000  0.51451100  1
  O  O7  1  0.17078700  0.96874800  0.05149600  1
  O  O8  1  0.32921300  0.46874800  0.55149600  1
  O  O9  1  0.29386000  0.76745500  0.35156500  1
  O  O10  1  0.29386000  0.76745500  0.14843500  1
  O  O11  1  0.25553700  0.61624000  0.75000000  1
  O  O12  1  0.24446300  0.11624000  0.25000000  1
  O  O13  1  0.20614000  0.26745500  0.85156500  1
  O  O14  1  0.20614000  0.26745500  0.64843500  1
  O  O15  1  0.17078700  0.96874800  0.44850400  1
  O  O16  1  0.52984000  0.96057000  0.10071000  1
  O  O17  1  0.52984000  0.96057000  0.39929000  1
  O  O18  1  0.54788600  0.44207300  0.75000000  1
  O  O19  1  0.58581400  0.64911600  0.66069700  1
  O  O20  1  0.58581400  0.64911600  0.83930300  1
  O  O21  1  0.47016000  0.03943000  0.89929000  1
  O  O22  1  0.59943500  0.21872000  0.48548900  1
  O  O23  1  0.67078700  0.53125200  0.05149600  1
  O  O24  1  0.67078700  0.53125200  0.44850400  1
  O  O25  1  0.70614000  0.23254500  0.64843500  1
  O  O26  1  0.70614000  0.23254500  0.85156500  1
  O  O27  1  0.74446300  0.38376000  0.25000000  1
  O  O28  1  0.75553700  0.88376000  0.75000000  1
  O  O29  1  0.79386000  0.73254500  0.14843500  1
  O  O30  1  0.79386000  0.73254500  0.35156500  1
  O  O31  1  0.82921300  0.03125200  0.55149600  1
  O  O32  1  0.82921300  0.03125200  0.94850400  1
  O  O33  1  0.90056500  0.71872000  0.51451100  1
  O  O34  1  0.90056500  0.71872000  0.98548900  1
  O  O35  1  0.91418600  0.14911600  0.16069700  1
  O  O36  1  0.91418600  0.14911600  0.33930300  1
  O  O37  1  0.95211400  0.94207300  0.25000000  1
  O  O38  1  0.97016000  0.46057000  0.60071000  1
  O  O39  1  0.97016000  0.46057000  0.89929000  1
  O  O40  1  0.02984000  0.53943000  0.10071000  1
  O  O41  1  0.02984000  0.53943000  0.39929000  1
  O  O42  1  0.04788600  0.05792700  0.75000000  1
  O  O43  1  0.08581400  0.85088400  0.66069700  1
  O  O44  1  0.08581400  0.85088400  0.83930300  1
  O  O45  1  0.09943500  0.28128000  0.01451100  1
  O  O46  1  0.09943500  0.28128000  0.48548900  1
  O  O47  1  0.32921300  0.46874800  0.94850400  1
loop_
_geom_bond_atom_site_label_1
_geom_bond_atom_site_label_2
_geom_bond_distance
_geom_bond_site_symmetry_2
Li0 O2 1.951887 1_555
Li0 O30 2.092939 1_555
Li0 O29 2.092939 1_555
Li0 O9 2.338948 1_555
Li0 O10 2.338948 1_555
Li1 O42 1.951887 1_655
Li1 O25 2.092939 1_555
Li1 O26 2.092939 1_555
Li1 O13 2.338948 1_655
Li1 O14 2.338948 1_655
Li2 O37 1.951887 1_455
Li2 O9 2.092939 1_555
Li2 O10 2.092939 1_555
Li2 O30 2.338948 1_455
Li2 O29 2.338948 1_455
Li3 O18 1.951887 1_555
Li3 O13 2.092939 1_555
Li3 O14 2.092939 1_555
Li3 O26 2.338948 1_555
Li3 O25 2.338948 1_555
Mn0 O39 2.112613 1_555
Mn0 O47 2.187845 1_555
Mn0 O26 2.249115 1_555
Mn0 O20 2.310756 1_555
Mn0 O18 2.321303 1_555
Mn0 O23 2.373822 1_556
Mn1 O19 2.112406 1_555
Mn1 O6 2.220624 1_555
Mn1 O28 2.241534 1_555
Mn1 O1 2.341514 1_565
Mn1 O31 2.367666 1_565
Mn1 O33 2.409091 1_555
Mn2 O20 2.112406 1_555
Mn2 O5 2.220624 1_555
Mn2 O28 2.241534 1_555
Mn2 O21 2.341514 1_565
Mn2 O32 2.367666 1_565
Mn2 O34 2.409091 1_555
Mn3 O38 2.112613 1_555
Mn3 O8 2.187845 1_555
Mn3 O25 2.249115 1_555
Mn3 O19 2.310756 1_555
Mn3 O18 2.321303 1_555
Mn3 O24 2.373822 1_555
Mn4 O35 2.112406 1_555
Mn4 O45 2.220624 1_655
Mn4 O27 2.241534 1_555
Mn4 O40 2.341514 1_655
Mn4 O23 2.367666 1_555
Mn4 O0 2.409091 1_555
Mn5 O36 2.112406 1_555
Mn5 O46 2.220624 1_655
Mn5 O27 2.241534 1_555
Mn5 O41 2.341514 1_655
Mn5 O24 2.367666 1_555
Mn5 O22 2.409091 1_555
Mn6 O16 2.112613 1_555
Mn6 O7 2.187845 1_655
Mn6 O29 2.249115 1_555
Mn6 O35 2.310756 1_565
Mn6 O37 2.321303 1_555
Mn6 O32 2.373822 1_564
Mn7 O17 2.112613 1_555
Mn7 O15 2.187845 1_655
Mn7 O30 2.249115 1_555
Mn7 O36 2.310756 1_565
Mn7 O37 2.321303 1_555
Mn7 O31 2.373822 1_565
Mn8 O1 2.112613 1_555
Mn8 O31 2.187845 1_455
Mn8 O14 2.249115 1_555
Mn8 O43 2.310756 1_545
Mn8 O42 2.321303 1_555
Mn8 O15 2.373822 1_545
Mn9 O21 2.112613 1_555
Mn9 O32 2.187845 1_455
Mn9 O13 2.249115 1_555
Mn9 O44 2.310756 1_545
Mn9 O42 2.321303 1_555
Mn9 O7 2.373822 1_546
Mn10 O43 2.112406 1_555
Mn10 O33 2.220624 1_455
Mn10 O11 2.241534 1_555
Mn10 O38 2.341514 1_455
Mn10 O8 2.367666 1_555
Mn10 O6 2.409091 1_555
Mn11 O44 2.112406 1_555
Mn11 O34 2.220624 1_455
Mn11 O11 2.241534 1_555
Mn11 O39 2.341514 1_455
Mn11 O47 2.367666 1_555
Mn11 O5 2.409091 1_555
Mn12 O4 2.112406 1_555
Mn12 O0 2.220624 1_555
Mn12 O12 2.241534 1_555
Mn12 O16 2.341514 1_545
Mn12 O7 2.367666 1_545
Mn12 O45 2.409091 1_555
Mn13 O3 2.112406 1_555
Mn13 O22 2.220624 1_555
Mn13 O12 2.241534 1_555
Mn13 O17 2.341514 1_545
Mn13 O15 2.367666 1_545
Mn13 O46 2.409091 1_555
Mn14 O40 2.112613 1_555
Mn14 O23 2.187845 1_555
Mn14 O10 2.249115 1_555
Mn14 O4 2.310756 1_555
Mn14 O2 2.321303 1_555
Mn14 O47 2.373822 1_554
Mn15 O41 2.112613 1_555
Mn15 O24 2.187845 1_555
Mn15 O9 2.249115 1_555
Mn15 O3 2.310756 1_555
Mn15 O2 2.321303 1_555
Mn15 O8 2.373822 1_555
O0 P9 1.563579 1_554
O1 P10 1.555476 1_555
O2 P11 1.552085 1_555
O3 P11 1.550779 1_555
O4 P11 1.550779 1_555
O5 P2 1.563579 1_556
O6 P1 1.563579 1_555
O7 P2 1.580145 1_555
O8 P4 1.580145 1_555
O9 P1 1.542177 1_555
O10 P2 1.542177 1_555
O11 P0 1.553347 1_555
O12 P5 1.553347 1_555
O13 P3 1.542177 1_555
O14 P4 1.542177 1_555
O15 P1 1.580145 1_555
O16 P2 1.555476 1_555
O17 P1 1.555476 1_555
O18 P0 1.552085 1_555
O19 P0 1.550779 1_555
O20 P0 1.550779 1_555
O21 P9 1.555476 1_555
O22 P10 1.563579 1_555
O23 P8 1.580145 1_555
O24 P7 1.580145 1_555
O25 P10 1.542177 1_555
O26 P9 1.542177 1_555
O27 P11 1.553347 1_555
O28 P6 1.553347 1_555
O29 P8 1.542177 1_555
O30 P7 1.542177 1_555
O31 P10 1.580145 1_555
O32 P9 1.580145 1_555
O33 P7 1.563579 1_555
O34 P8 1.563579 1_556
O35 P5 1.550779 1_655
O36 P5 1.550779 1_655
O37 P5 1.552085 1_665
O38 P4 1.555476 1_655
O39 P3 1.555476 1_655
O40 P8 1.555476 1_455
O41 P7 1.555476 1_455
O42 P6 1.552085 1_445
O43 P6 1.550779 1_455
O44 P6 1.550779 1_455
O45 P3 1.563579 1_554
O46 P4 1.563579 1_555
O47 P3 1.580145 1_555
