# generated using pymatgen
data_MgAg2(BiO3)2
_symmetry_space_group_name_H-M   'P 1'
_cell_length_a   6.70874037
_cell_length_b   6.70874019
_cell_length_c   6.70873935
_cell_angle_alpha   50.86346845
_cell_angle_beta   50.86347121
_cell_angle_gamma   50.86347399
_symmetry_Int_Tables_number   1
_chemical_formula_structural   MgAg2(BiO3)2
_chemical_formula_sum   'Mg1 Ag2 Bi2 O6'
_cell_volume   167.50493765
_cell_formula_units_Z   1
loop_
 _symmetry_equiv_pos_site_id
 _symmetry_equiv_pos_as_xyz
  1  'x, y, z'
loop_
 _atom_site_type_symbol
 _atom_site_label
 _atom_site_symmetry_multiplicity
 _atom_site_fract_x
 _atom_site_fract_y
 _atom_site_fract_z
 _atom_site_occupancy
  Mg  Mg0  1  0.00000000  0.00000000  0.00000000  1
  Ag  Ag0  1  0.16612200  0.16612200  0.16612200  1
  Ag  Ag1  1  0.83387800  0.83387800  0.83387800  1
  Bi  Bi0  1  0.35138500  0.35138500  0.35138500  1
  Bi  Bi1  1  0.64861500  0.64861500  0.64861500  1
  O  O0  1  0.76550400  0.39901000  0.03217800  1
  O  O1  1  0.23449600  0.60099000  0.96782200  1
  O  O2  1  0.96782200  0.23449600  0.60099000  1
  O  O3  1  0.60099000  0.96782200  0.23449600  1
  O  O4  1  0.39901000  0.03217800  0.76550400  1
  O  O5  1  0.03217800  0.76550400  0.39901000  1
loop_
_geom_bond_atom_site_label_1
_geom_bond_atom_site_label_2
_geom_bond_distance
_geom_bond_site_symmetry_2
Mg0 O5 2.161451 1_545
Mg0 O2 2.161451 1_454
Mg0 O4 2.161451 1_554
Mg0 O3 2.161451 1_445
Mg0 O0 2.161451 1_455
Mg0 O1 2.161451 1_544
Ag0 O4 2.539217 1_554
Ag0 O5 2.539217 1_545
Ag0 O0 2.539217 1_455
Ag0 O2 2.551698 1_455
Ag0 O1 2.551699 1_554
Ag0 O3 2.551699 1_545
Ag1 O3 2.539217 1_556
Ag1 O2 2.539217 1_565
Ag1 O1 2.539217 1_655
Ag1 O5 2.551698 1_655
Ag1 O0 2.551699 1_556
Ag1 O4 2.551699 1_565
Bi0 O4 2.270027 1_555
Bi0 O0 2.270028 1_555
Bi0 O5 2.270028 1_555
Bi0 O1 2.343230 1_554
Bi0 O3 2.343231 1_545
Bi0 O2 2.343231 1_455
Bi1 O3 2.270027 1_555
Bi1 O1 2.270028 1_555
Bi1 O2 2.270028 1_555
Bi1 O0 2.343230 1_556
Bi1 O4 2.343231 1_565
Bi1 O5 2.343231 1_655
