# generated using pymatgen
data_MgV2CoO6
_symmetry_space_group_name_H-M   'P 1'
_cell_length_a   5.44912992
_cell_length_b   5.40107155
_cell_length_c   5.45712043
_cell_angle_alpha   55.86481265
_cell_angle_beta   56.17953348
_cell_angle_gamma   55.97247471
_symmetry_Int_Tables_number   1
_chemical_formula_structural   MgV2CoO6
_chemical_formula_sum   'Mg1 V2 Co1 O6'
_cell_volume   103.05696416
_cell_formula_units_Z   1
loop_
 _symmetry_equiv_pos_site_id
 _symmetry_equiv_pos_as_xyz
  1  'x, y, z'
loop_
 _atom_site_type_symbol
 _atom_site_label
 _atom_site_symmetry_multiplicity
 _atom_site_fract_x
 _atom_site_fract_y
 _atom_site_fract_z
 _atom_site_occupancy
  Mg  Mg0  1  0.19981100  0.20545000  0.21214900  1
  V  V0  1  0.99570000  0.99084600  0.00053400  1
  V  V1  1  0.49991200  0.49081200  0.49540000  1
  Co  Co0  1  0.70984100  0.70585300  0.70203500  1
  O  O0  1  0.12436300  0.77971800  0.37725900  1
  O  O1  1  0.38696800  0.13831800  0.76420500  1
  O  O2  1  0.78008200  0.37923900  0.11913200  1
  O  O3  1  0.25752700  0.63863200  0.88802500  1
  O  O4  1  0.61683200  0.88108100  0.28091000  1
  O  O5  1  0.87976400  0.27894800  0.62285100  1
loop_
_geom_bond_atom_site_label_1
_geom_bond_atom_site_label_2
_geom_bond_distance
_geom_bond_site_symmetry_2
Mg0 O5 2.023573 1_455
Mg0 O4 2.032173 1_545
Mg0 O3 2.064292 1_554
Mg0 O0 2.142103 1_545
Mg0 O2 2.173651 1_455
Mg0 O1 2.225482 1_554
Co0 O2 2.036441 1_556
Co0 O0 2.039854 1_655
Co0 O1 2.071707 1_565
Co0 O5 2.154976 1_555
Co0 O4 2.180074 1_555
Co0 O3 2.244993 1_555
O0 V1 1.950423 1_555
O0 V0 2.024116 1_455
O1 V1 1.824086 1_555
O1 V0 2.128439 1_446
O2 V1 1.944105 1_555
O2 V0 2.029435 1_545
O3 V0 1.824693 1_456
O3 V1 2.135899 1_555
O4 V0 1.946833 1_555
O4 V1 2.030509 1_555
O5 V0 1.954048 1_546
O5 V1 2.033722 1_555
