# generated using pymatgen
data_MgFe2Cu6SnS8
_symmetry_space_group_name_H-M   'P 1'
_cell_length_a   5.49491000
_cell_length_b   7.73278202
_cell_length_c   7.74588502
_cell_angle_alpha   90.00751439
_cell_angle_beta   89.99853206
_cell_angle_gamma   90.00148296
_symmetry_Int_Tables_number   1
_chemical_formula_structural   MgFe2Cu6SnS8
_chemical_formula_sum   'Mg1 Fe2 Cu6 Sn1 S8'
_cell_volume   329.12994209
_cell_formula_units_Z   1
loop_
 _symmetry_equiv_pos_site_id
 _symmetry_equiv_pos_as_xyz
  1  'x, y, z'
loop_
 _atom_site_type_symbol
 _atom_site_label
 _atom_site_symmetry_multiplicity
 _atom_site_fract_x
 _atom_site_fract_y
 _atom_site_fract_z
 _atom_site_occupancy
  Mg  Mg0  1  0.52391000  0.49999600  0.00000300  1
  Fe  Fe0  1  0.49554100  0.49999800  0.49999800  1
  Fe  Fe1  1  0.01561600  0.49998200  0.49997100  1
  Cu  Cu0  1  0.49538200  0.75984900  0.74081500  1
  Cu  Cu1  1  0.00704900  0.00005000  0.50004500  1
  Cu  Cu2  1  0.49386900  0.75973000  0.25910300  1
  Cu  Cu3  1  0.49534800  0.24002700  0.25918500  1
  Cu  Cu4  1  0.49385900  0.24030400  0.74091000  1
  Cu  Cu5  1  0.02379400  0.50007900  0.00000000  1
  Sn  Sn0  1  0.96097300  0.99997700  0.99999800  1
  S  S0  1  0.73714800  0.00032000  0.72632500  1
  S  S1  1  0.73719800  0.99966400  0.27367500  1
  S  S2  1  0.25780800  0.25015800  0.00018000  1
  S  S3  1  0.76079900  0.50025600  0.26047700  1
  S  S4  1  0.24774100  0.74801300  0.50036600  1
  S  S5  1  0.24776200  0.25198300  0.49962900  1
  S  S6  1  0.25788200  0.74987100  0.99981200  1
  S  S7  1  0.76081900  0.49974200  0.73950800  1
loop_
_geom_bond_atom_site_label_1
_geom_bond_atom_site_label_2
_geom_bond_distance
_geom_bond_site_symmetry_2
Mg0 S3 2.401090 1_555
Mg0 S7 2.401230 1_554
Mg0 S2 2.422872 1_555
Mg0 S6 2.422915 1_554
Fe0 S5 2.351967 1_555
Fe0 S4 2.352092 1_555
Fe0 S3 2.359347 1_555
Fe0 S7 2.359407 1_555
Fe1 S5 2.303259 1_555
Fe1 S4 2.303346 1_555
Fe1 S3 2.324233 1_455
Fe1 S7 2.324375 1_455
Cu0 S0 2.288047 1_565
Cu0 S4 2.308464 1_555
Cu0 S6 2.394508 1_555
Cu0 S7 2.484584 1_555
Cu1 S0 2.295974 1_455
Cu1 S1 2.296387 1_445
Cu1 S5 2.354711 1_555
Cu1 S4 2.355368 1_545
Cu2 S1 2.289689 1_555
Cu2 S4 2.308601 1_555
Cu2 S6 2.391909 1_554
Cu2 S3 2.485460 1_555
Cu3 S1 2.287696 1_545
Cu3 S5 2.308238 1_555
Cu3 S2 2.394777 1_555
Cu3 S3 2.485331 1_555
Cu4 S0 2.289931 1_555
Cu4 S5 2.308661 1_555
Cu4 S2 2.391908 1_556
Cu4 S7 2.485272 1_555
Cu5 S6 2.320657 1_554
Cu5 S2 2.321318 1_555
Cu5 S3 2.481748 1_455
Cu5 S7 2.481840 1_454
Cu5 Mg0 2.746818 1_455
Cu5 Mg0 2.748093 1_555
S0 Sn0 2.450819 1_545
S1 Sn0 2.450653 1_554
S2 Sn0 2.530400 1_444
S6 Sn0 2.530283 1_455
