# generated using pymatgen
data_NaClO3
_symmetry_space_group_name_H-M   'P 1'
_cell_length_a   6.68960600
_cell_length_b   6.68960600
_cell_length_c   6.68960600
_cell_angle_alpha   90.00000000
_cell_angle_beta   90.00000000
_cell_angle_gamma   90.00000000
_symmetry_Int_Tables_number   1
_chemical_formula_structural   NaClO3
_chemical_formula_sum   'Na4 Cl4 O12'
_cell_volume   299.36541041
_cell_formula_units_Z   4
loop_
 _symmetry_equiv_pos_site_id
 _symmetry_equiv_pos_as_xyz
  1  'x, y, z'
loop_
 _atom_site_type_symbol
 _atom_site_label
 _atom_site_symmetry_multiplicity
 _atom_site_fract_x
 _atom_site_fract_y
 _atom_site_fract_z
 _atom_site_occupancy
  Na  Na0  1  0.06422900  0.06422900  0.06422900  1
  Na  Na1  1  0.43577100  0.93577100  0.56422900  1
  Na  Na2  1  0.56422900  0.43577100  0.93577100  1
  Na  Na3  1  0.93577100  0.56422900  0.43577100  1
  Cl  Cl0  1  0.42174500  0.42174500  0.42174500  1
  Cl  Cl1  1  0.07825500  0.57825500  0.92174500  1
  Cl  Cl2  1  0.92174500  0.07825500  0.57825500  1
  Cl  Cl3  1  0.57825500  0.92174500  0.07825500  1
  O  O0  1  0.19285800  0.40387300  0.00798400  1
  O  O1  1  0.69285800  0.09612700  0.99201600  1
  O  O2  1  0.80714200  0.90387300  0.49201600  1
  O  O3  1  0.09612700  0.99201600  0.69285800  1
  O  O4  1  0.49201600  0.80714200  0.90387300  1
  O  O5  1  0.99201600  0.69285800  0.09612700  1
  O  O6  1  0.40387300  0.00798400  0.19285800  1
  O  O7  1  0.00798400  0.19285800  0.40387300  1
  O  O8  1  0.30714200  0.59612700  0.50798400  1
  O  O9  1  0.50798400  0.30714200  0.59612700  1
  O  O10  1  0.59612700  0.50798400  0.30714200  1
  O  O11  1  0.90387300  0.49201600  0.80714200  1
loop_
_geom_bond_atom_site_label_1
_geom_bond_atom_site_label_2
_geom_bond_distance
_geom_bond_site_symmetry_2
Na0 O0 2.458528 1_555
Na0 O6 2.458528 1_555
Na0 O7 2.458528 1_555
Na0 O3 2.539837 1_544
Na0 O1 2.539837 1_454
Na0 O5 2.539837 1_445
Na1 O3 2.458528 1_555
Na1 O8 2.458528 1_555
Na1 O4 2.458528 1_555
Na1 O6 2.539837 1_565
Na1 O2 2.539837 1_555
Na1 O9 2.539837 1_565
Na2 O1 2.458528 1_555
Na2 O11 2.458528 1_555
Na2 O9 2.458528 1_555
Na2 O0 2.539837 1_556
Na2 O4 2.539837 1_555
Na2 O10 2.539837 1_556
Na3 O2 2.458528 1_555
Na3 O5 2.458528 1_555
Na3 O10 2.458528 1_555
Na3 O7 2.539837 1_655
Na3 O11 2.539837 1_555
Na3 O8 2.539837 1_655
Cl0 O8 1.510431 1_555
Cl0 O9 1.510431 1_555
Cl0 O10 1.510431 1_555
Cl1 O0 1.510431 1_556
Cl1 O11 1.510431 1_455
Cl1 O5 1.510431 1_456
Cl2 O7 1.510431 1_655
Cl2 O2 1.510431 1_545
Cl2 O3 1.510431 1_645
Cl3 O6 1.510431 1_565
Cl3 O4 1.510431 1_554
Cl3 O1 1.510431 1_564
