# generated using pymatgen
data_MgCo2(NiS2)4
_symmetry_space_group_name_H-M   'P 1'
_cell_length_a   6.91547191
_cell_length_b   6.91547309
_cell_length_c   6.87795814
_cell_angle_alpha   57.69637739
_cell_angle_beta   57.69637528
_cell_angle_gamma   57.61504915
_symmetry_Int_Tables_number   1
_chemical_formula_structural   MgCo2(NiS2)4
_chemical_formula_sum   'Mg1 Co2 Ni4 S8'
_cell_volume   220.13111662
_cell_formula_units_Z   1
loop_
 _symmetry_equiv_pos_site_id
 _symmetry_equiv_pos_as_xyz
  1  'x, y, z'
loop_
 _atom_site_type_symbol
 _atom_site_label
 _atom_site_symmetry_multiplicity
 _atom_site_fract_x
 _atom_site_fract_y
 _atom_site_fract_z
 _atom_site_occupancy
  Mg  Mg0  1  0.00000000  0.00000000  0.00000000  1
  Co  Co0  1  0.50000000  0.50000000  0.00000000  1
  Co  Co1  1  0.50000000  0.50000000  0.50000000  1
  Ni  Ni0  1  0.14013300  0.14013300  0.13947500  1
  Ni  Ni1  1  0.00000000  0.50000000  0.50000000  1
  Ni  Ni2  1  0.50000000  0.00000000  0.50000000  1
  Ni  Ni3  1  0.85986700  0.85986700  0.86052500  1
  S  S0  1  0.26723100  0.26723100  0.26256500  1
  S  S1  1  0.26437900  0.26437900  0.72759000  1
  S  S2  1  0.26742300  0.72199600  0.26133400  1
  S  S3  1  0.72199600  0.26742300  0.26133400  1
  S  S4  1  0.27800400  0.73257700  0.73866600  1
  S  S5  1  0.73257700  0.27800400  0.73866600  1
  S  S6  1  0.73562100  0.73562100  0.27241100  1
  S  S7  1  0.73276900  0.73276900  0.73743500  1
loop_
_geom_bond_atom_site_label_1
_geom_bond_atom_site_label_2
_geom_bond_distance
_geom_bond_site_symmetry_2
Mg0 Ni0 2.406607 1_555
Mg0 Ni3 2.406607 1_444
Mg0 S2 2.529396 1_545
Mg0 S5 2.529396 1_454
Mg0 S3 2.529396 1_455
Mg0 S4 2.529396 1_544
Mg0 S6 2.540483 1_445
Mg0 S1 2.540483 1_554
Co0 S0 2.237244 1_555
Co0 S7 2.237244 1_554
Co0 S3 2.321411 1_555
Co0 S4 2.321411 1_554
Co0 S2 2.321412 1_555
Co0 S5 2.321412 1_554
Co1 S5 2.263125 1_555
Co1 S2 2.263125 1_555
Co1 S4 2.263125 1_555
Co1 S3 2.263125 1_555
Co1 S1 2.269853 1_555
Co1 S6 2.269853 1_555
Ni0 S0 2.163337 1_555
Ni0 S1 2.256019 1_554
Ni0 S3 2.304417 1_455
Ni0 S2 2.304418 1_545
Ni1 S0 2.251818 1_555
Ni1 S7 2.251818 1_455
Ni1 S2 2.361091 1_555
Ni1 S5 2.361091 1_455
Ni1 S6 2.364223 1_455
Ni1 S1 2.364228 1_555
Ni2 S0 2.251818 1_555
Ni2 S7 2.251818 1_545
Ni2 S3 2.361091 1_555
Ni2 S4 2.361091 1_545
Ni2 S6 2.364223 1_545
Ni2 S1 2.364228 1_555
Ni3 S7 2.163337 1_555
Ni3 S6 2.256025 1_556
Ni3 S4 2.304417 1_655
Ni3 S5 2.304418 1_565
