# generated using pymatgen
data_MgFe3PO7
_symmetry_space_group_name_H-M   'P 1'
_cell_length_a   5.60757731
_cell_length_b   5.32236709
_cell_length_c   5.42945687
_cell_angle_alpha   100.20541298
_cell_angle_beta   107.20007390
_cell_angle_gamma   101.76565711
_symmetry_Int_Tables_number   1
_chemical_formula_structural   MgFe3PO7
_chemical_formula_sum   'Mg1 Fe3 P1 O7'
_cell_volume   146.57876221
_cell_formula_units_Z   1
loop_
 _symmetry_equiv_pos_site_id
 _symmetry_equiv_pos_as_xyz
  1  'x, y, z'
loop_
 _atom_site_type_symbol
 _atom_site_label
 _atom_site_symmetry_multiplicity
 _atom_site_fract_x
 _atom_site_fract_y
 _atom_site_fract_z
 _atom_site_occupancy
  Mg  Mg0  1  0.99196542  0.08801489  0.54926216  1
  Fe  Fe0  1  0.53685852  0.51965781  0.14402975  1
  Fe  Fe1  1  0.16931686  0.58661907  0.50087952  1
  Fe  Fe2  1  0.53315467  0.17179118  0.53963959  1
  P  P0  1  0.00337494  0.99427914  0.01180568  1
  O  O0  1  0.08710864  0.84139867  0.79808736  1
  O  O1  1  0.89267610  0.82409566  0.17946685  1
  O  O2  1  0.81969146  0.14165907  0.86208374  1
  O  O3  1  0.79434500  0.34457510  0.41392166  1
  O  O4  1  0.23886210  0.21974647  0.22260390  1
  O  O5  1  0.35539220  0.34983290  0.74146469  1
  O  O6  1  0.45275408  0.79382804  0.39975109  1
loop_
_geom_bond_atom_site_label_1
_geom_bond_atom_site_label_2
_geom_bond_distance
_geom_bond_site_symmetry_2
Mg0 O3 2.030691 1_555
Mg0 O5 2.062237 1_655
Mg0 O0 2.078548 1_645
Mg0 O1 2.082030 1_545
Mg0 O2 2.193289 1_555
Mg0 O4 2.655366 1_655
Fe0 O6 2.056579 1_555
Fe0 O5 2.058938 1_554
Fe0 O3 2.209454 1_555
Fe0 O1 2.233296 1_555
Fe0 O4 2.257757 1_555
Fe1 O6 2.014889 1_555
Fe1 O3 2.096765 1_455
Fe1 O0 2.138870 1_555
Fe1 O5 2.167217 1_555
Fe1 O4 2.420997 1_555
Fe1 O1 2.651330 1_455
Fe2 O6 1.926939 1_545
Fe2 O3 1.929041 1_555
Fe2 O5 1.937950 1_555
Fe2 O2 2.052638 1_555
Fe2 O4 2.097369 1_555
O0 P0 1.540290 1_556
O1 P0 1.559329 1_655
O2 P0 1.548326 1_646
O4 P0 1.570653 1_545
