# generated using pymatgen
data_MgCr4(WO6)2
_symmetry_space_group_name_H-M   'P 1'
_cell_length_a   4.75549542
_cell_length_b   4.78100330
_cell_length_c   9.20462000
_cell_angle_alpha   89.99998802
_cell_angle_beta   89.99998795
_cell_angle_gamma   89.22590908
_symmetry_Int_Tables_number   1
_chemical_formula_structural   MgCr4(WO6)2
_chemical_formula_sum   'Mg1 Cr4 W2 O12'
_cell_volume   209.25750225
_cell_formula_units_Z   1
loop_
 _symmetry_equiv_pos_site_id
 _symmetry_equiv_pos_as_xyz
  1  'x, y, z'
loop_
 _atom_site_type_symbol
 _atom_site_label
 _atom_site_symmetry_multiplicity
 _atom_site_fract_x
 _atom_site_fract_y
 _atom_site_fract_z
 _atom_site_occupancy
  Mg  Mg0  1  0.50000000  0.00000100  0.81514300  1
  Cr  Cr0  1  0.00000000  0.00000000  0.34188400  1
  Cr  Cr1  1  0.50000000  0.49999800  0.17153000  1
  Cr  Cr2  1  0.50000100  0.50000100  0.83904200  1
  Cr  Cr3  1  0.00000000  0.00000200  0.66443300  1
  W  W0  1  0.00000000  0.99999800  0.01493800  1
  W  W1  1  0.50000000  0.50000100  0.49944600  1
  O  O0  1  0.32240500  0.26445600  0.99439400  1
  O  O1  1  0.19046300  0.78379700  0.50751500  1
  O  O2  1  0.80953800  0.21620600  0.50751500  1
  O  O3  1  0.67759400  0.73554200  0.99439400  1
  O  O4  1  0.67025400  0.72275300  0.67609900  1
  O  O5  1  0.32974600  0.27725100  0.67609800  1
  O  O6  1  0.68419800  0.69949800  0.33723300  1
  O  O7  1  0.18253600  0.79375400  0.17320000  1
  O  O8  1  0.81746300  0.20624200  0.17320000  1
  O  O9  1  0.82739400  0.21821300  0.83835100  1
  O  O10  1  0.31580300  0.30050000  0.33723400  1
  O  O11  1  0.17260700  0.78178800  0.83835000  1
loop_
_geom_bond_atom_site_label_1
_geom_bond_atom_site_label_2
_geom_bond_distance
_geom_bond_site_symmetry_2
Mg0 O11 1.897876 1_545
Mg0 O9 1.897878 1_555
Mg0 O4 2.005379 1_545
Mg0 O5 2.005391 1_555
Mg0 O0 2.237256 1_555
Mg0 O3 2.237265 1_545
Cr0 O8 2.028167 1_455
Cr0 O7 2.028175 1_545
Cr0 O1 2.046426 1_545
Cr0 O2 2.046432 1_455
Cr0 O10 2.092753 1_555
Cr0 O6 2.092757 1_445
Cr1 O10 2.006479 1_555
Cr1 O6 2.006479 1_555
Cr1 O8 2.048071 1_555
Cr1 O7 2.048075 1_555
Cr1 O0 2.159991 1_554
Cr1 O3 2.159993 1_554
Cr2 O3 2.012928 1_555
Cr2 O0 2.012944 1_555
Cr2 O4 2.015558 1_555
Cr2 O5 2.015564 1_555
Cr2 O9 2.045087 1_555
Cr2 O11 2.045087 1_555
Cr3 O2 1.987399 1_455
Cr3 O1 1.987403 1_545
Cr3 O5 2.069703 1_555
Cr3 O4 2.069704 1_445
Cr3 O9 2.074065 1_455
Cr3 O11 2.074066 1_545
O0 W0 2.009345 1_546
O1 W1 1.989806 1_555
O2 W1 1.989806 1_555
O3 W0 2.009343 1_656
O4 W1 2.111149 1_555
O5 W1 2.111137 1_555
O6 W1 1.982162 1_555
O7 W0 1.955704 1_555
O8 W0 1.955706 1_645
O9 W0 2.093094 1_646
O10 W1 1.982163 1_555
O11 W0 2.093091 1_556
