# generated using pymatgen
data_MgTe4Mo2W2(SeS)2
_symmetry_space_group_name_H-M   'P 1'
_cell_length_a   3.39825000
_cell_length_b   3.39649488
_cell_length_c   46.00661632
_cell_angle_alpha   90.01178859
_cell_angle_beta   89.99999502
_cell_angle_gamma   120.01709520
_symmetry_Int_Tables_number   1
_chemical_formula_structural   MgTe4Mo2W2(SeS)2
_chemical_formula_sum   'Mg1 Te4 Mo2 W2 Se2 S2'
_cell_volume   459.79300984
_cell_formula_units_Z   1
loop_
 _symmetry_equiv_pos_site_id
 _symmetry_equiv_pos_as_xyz
  1  'x, y, z'
loop_
 _atom_site_type_symbol
 _atom_site_label
 _atom_site_symmetry_multiplicity
 _atom_site_fract_x
 _atom_site_fract_y
 _atom_site_fract_z
 _atom_site_occupancy
  Mg  Mg0  1  0.00007000  0.00014000  0.18166800  1
  Te  Te0  1  0.33335100  0.66670300  0.33124000  1
  Te  Te1  1  0.33337700  0.66675500  0.69855000  1
  Te  Te2  1  0.33319400  0.66638800  0.24892900  1
  Te  Te3  1  0.33324700  0.66649400  0.61646000  1
  Mo  Mo0  1  0.33341100  0.66682200  0.08498100  1
  Mo  Mo1  1  0.33326500  0.66652900  0.46970600  1
  W  W0  1  0.66660700  0.33321400  0.29023500  1
  W  W1  1  0.66665600  0.33331100  0.65751400  1
  Se  Se0  1  0.66666200  0.33332500  0.04926500  1
  Se  Se1  1  0.66680800  0.33361500  0.12131900  1
  S  S0  1  0.66661400  0.33322700  0.43707900  1
  S  S1  1  0.66673800  0.33347600  0.50235900  1
loop_
_geom_bond_atom_site_label_1
_geom_bond_atom_site_label_2
_geom_bond_distance
_geom_bond_site_symmetry_2
Te0 W0 2.720830 1_565
Te0 W0 2.721570 1_455
Te0 W0 2.721572 1_555
Te1 W1 2.721915 1_565
Te1 W1 2.722510 1_455
Te1 W1 2.722514 1_555
Te2 W0 2.730469 1_565
Te2 W0 2.731178 1_455
Te2 W0 2.731179 1_555
Te3 W1 2.722396 1_565
Te3 W1 2.723132 1_455
Te3 W1 2.723134 1_555
Mo0 Se0 2.558071 1_565
Mo0 Se0 2.558951 1_555
Mo0 Se0 2.558953 1_455
Mo0 Se1 2.576595 1_565
Mo0 Se1 2.577395 1_455
Mo0 Se1 2.577397 1_555
Mo1 S0 2.469616 1_565
Mo1 S0 2.469886 1_555
Mo1 S0 2.469886 1_455
Mo1 S1 2.470358 1_565
Mo1 S1 2.470605 1_555
Mo1 S1 2.470607 1_455
