# generated using pymatgen
data_MgMn6(O2F)4
_symmetry_space_group_name_H-M   'P 1'
_cell_length_a   7.06583479
_cell_length_b   5.96069511
_cell_length_c   5.75928408
_cell_angle_alpha   82.61158935
_cell_angle_beta   74.66623902
_cell_angle_gamma   73.36592720
_symmetry_Int_Tables_number   1
_chemical_formula_structural   MgMn6(O2F)4
_chemical_formula_sum   'Mg1 Mn6 O8 F4'
_cell_volume   223.77356480
_cell_formula_units_Z   1
loop_
 _symmetry_equiv_pos_site_id
 _symmetry_equiv_pos_as_xyz
  1  'x, y, z'
loop_
 _atom_site_type_symbol
 _atom_site_label
 _atom_site_symmetry_multiplicity
 _atom_site_fract_x
 _atom_site_fract_y
 _atom_site_fract_z
 _atom_site_occupancy
  Mg  Mg0  1  0.33599580  0.16337348  0.66346657  1
  Mn  Mn0  1  0.83595880  0.66384836  0.66451558  1
  Mn  Mn1  1  0.67348768  0.37084916  0.28352244  1
  Mn  Mn2  1  0.33581300  0.66314593  0.66520762  1
  Mn  Mn3  1  0.14991671  0.38212613  0.28916007  1
  Mn  Mn4  1  0.52173062  0.94670303  0.03873200  1
  Mn  Mn5  1  0.99788910  0.95802811  0.04511658  1
  O  O0  1  0.30219921  0.89100519  0.90640015  1
  O  O1  1  0.62806310  0.57436190  0.54725036  1
  O  O2  1  0.96167859  0.23766172  0.22624143  1
  O  O3  1  0.70968578  0.09149912  0.10182261  1
  O  O4  1  0.04344047  0.75371619  0.78194534  1
  O  O5  1  0.36945204  0.43706882  0.42204804  1
  O  O6  1  0.68129476  0.64156548  0.99836655  1
  O  O7  1  0.99030150  0.68703300  0.33046621  1
  F  F0  1  0.63093527  0.02999869  0.64242096  1
  F  F1  1  0.34968183  0.31602545  0.94947558  1
  F  F2  1  0.32125377  0.01309082  0.37727120  1
  F  F3  1  0.04085298  0.29794942  0.68561971  1
loop_
_geom_bond_atom_site_label_1
_geom_bond_atom_site_label_2
_geom_bond_distance
_geom_bond_site_symmetry_2
Mg0 O0 2.027657 1_545
Mg0 O5 2.028343 1_555
Mn0 O6 1.953196 1_555
Mn0 O7 1.953971 1_555
Mn0 O4 1.990165 1_655
Mn0 O1 1.991081 1_555
Mn1 O2 1.916295 1_555
Mn1 O1 1.968430 1_555
Mn1 O3 1.998972 1_555
Mn1 O5 2.023960 1_555
Mn1 O6 2.150705 1_554
Mn2 O1 1.931485 1_555
Mn2 O4 1.931706 1_555
Mn2 O0 1.989161 1_555
Mn2 O5 1.989871 1_555
Mn3 O7 1.851348 1_455
Mn3 O2 1.905977 1_455
Mn3 O5 2.020499 1_555
Mn4 O6 1.851875 1_554
Mn4 O3 1.905990 1_565
Mn4 O0 2.020489 1_554
Mn5 O3 1.916784 1_565
Mn5 O4 1.968839 1_654
Mn5 O2 1.998437 1_565
Mn5 O0 2.025587 1_654
Mn5 O7 2.152478 1_555
F0 Mg0 1.983030 1_555
F0 Mn4 2.246771 1_546
F0 Mn0 2.257011 1_545
F1 Mg0 2.017594 1_555
F1 Mn3 2.096247 1_556
F1 Mn4 2.257352 1_546
F1 Mn2 2.463453 1_555
F2 Mg0 2.013476 1_555
F2 Mn4 2.093195 1_545
F2 Mn3 2.252789 1_555
F2 Mn2 2.487838 1_545
F3 Mg0 1.984094 1_555
F3 Mn3 2.248397 1_555
F3 Mn0 2.254927 1_455
