# generated using pymatgen
data_Na5Ca2Ta2SiP5O24
_symmetry_space_group_name_H-M   'P 1'
_cell_length_a   9.15917107
_cell_length_b   9.16071564
_cell_length_c   22.64897358
_cell_angle_alpha   89.97310006
_cell_angle_beta   90.04468966
_cell_angle_gamma   119.92645180
_symmetry_Int_Tables_number   1
_chemical_formula_structural   Na5Ca2Ta2SiP5O24
_chemical_formula_sum   'Na15 Ca6 Ta6 Si3 P15 O72'
_cell_volume   1646.97111945
_cell_formula_units_Z   3
loop_
 _symmetry_equiv_pos_site_id
 _symmetry_equiv_pos_as_xyz
  1  'x, y, z'
loop_
 _atom_site_type_symbol
 _atom_site_label
 _atom_site_symmetry_multiplicity
 _atom_site_fract_x
 _atom_site_fract_y
 _atom_site_fract_z
 _atom_site_occupancy
  Na  Na0  1  0.61455858  0.00249775  0.25173970  1
  Na  Na1  1  0.99789260  0.60987312  0.24752649  1
  Na  Na2  1  0.34145521  0.99900607  0.75248673  1
  Na  Na3  1  0.30153877  0.30950803  0.58502666  1
  Na  Na4  1  0.01655411  0.70227354  0.58782039  1
  Na  Na5  1  0.68029712  0.98184957  0.59042395  1
  Na  Na6  1  0.65198523  0.68003600  0.07731566  1
  Na  Na7  1  0.03964530  0.35631769  0.07852589  1
  Na  Na8  1  0.98870025  0.68366214  0.91027670  1
  Na  Na9  1  0.00964009  0.99974736  0.50609980  1
  Na  Na10  1  0.01358528  0.01667384  0.98651577  1
  Na  Na11  1  0.67259106  0.32647760  0.83205482  1
  Na  Na12  1  0.65047934  0.33550936  0.34178209  1
  Na  Na13  1  0.32255073  0.66784804  0.16179876  1
  Na  Na14  1  0.34200807  0.65755865  0.67068623  1
  Ca  Ca0  1  0.99452488  0.00820945  0.84413803  1
  Ca  Ca1  1  0.99151205  0.99967207  0.66198356  1
  Ca  Ca2  1  0.65773689  0.33324202  0.19182896  1
  Ca  Ca3  1  0.66482782  0.33126752  0.47823264  1
  Ca  Ca4  1  0.33661737  0.67586650  0.01660092  1
  Ca  Ca5  1  0.33492125  0.65834347  0.30916601  1
  Ta  Ta0  1  0.00337702  0.00385779  0.35930946  1
  Ta  Ta1  1  0.00693191  0.00030487  0.14261192  1
  Ta  Ta2  1  0.66581871  0.32949092  0.68305160  1
  Ta  Ta3  1  0.66353644  0.33087914  0.98166812  1
  Ta  Ta4  1  0.33496622  0.67063562  0.51421306  1
  Ta  Ta5  1  0.33883163  0.66639584  0.81932038  1
  Si  Si0  1  0.68505061  0.99899139  0.74767910  1
  Si  Si1  1  0.36482771  0.03141896  0.58074211  1
  Si  Si2  1  0.95901265  0.62862557  0.08799752  1
  P  P0  1  0.27845411  0.99913219  0.25171480  1
  P  P1  1  0.72543010  0.72747588  0.25046850  1
  P  P2  1  0.00011671  0.27798702  0.24983694  1
  P  P3  1  0.31773584  0.31598974  0.74743289  1
  P  P4  1  0.00127134  0.68132954  0.75200072  1
  P  P5  1  0.96812750  0.34147844  0.58124769  1
  P  P6  1  0.66063397  0.62597111  0.58085346  1
  P  P7  1  0.67679980  0.04537613  0.08696414  1
  P  P8  1  0.37096106  0.32398243  0.08312914  1
  P  P9  1  0.63059609  0.65650989  0.92113505  1
  P  P10  1  0.03042436  0.37124077  0.92173445  1
  P  P11  1  0.33971898  0.97042809  0.91733667  1
  P  P12  1  0.63297362  0.95497041  0.41166032  1
  P  P13  1  0.32281730  0.36836828  0.41512955  1
  P  P14  1  0.04564889  0.67758460  0.41165124  1
  O  O0  1  0.17667829  0.00200241  0.30677151  1
  O  O1  1  0.83173068  0.83231627  0.30525161  1
  O  O2  1  0.00381372  0.17538730  0.30520100  1
  O  O3  1  0.24416071  0.18314852  0.79558862  1
  O  O4  1  0.96642464  0.75353218  0.80692970  1
  O  O5  1  0.80664732  0.04420601  0.80208923  1
  O  O6  1  0.73313993  0.95456297  0.68506237  1
  O  O7  1  0.22082548  0.26394690  0.68927486  1
  O  O8  1  0.05494445  0.79839263  0.69793626  1
  O  O9  1  0.82749666  0.82964235  0.19313471  1
  O  O10  1  0.00329978  0.17939409  0.19282246  1
  O  O11  1  0.17719138  0.00302803  0.19487753  1
  O  O12  1  0.86996425  0.36616063  0.63559588  1
  O  O13  1  0.49522169  0.13526181  0.63924672  1
  O  O14  1  0.63536281  0.50602312  0.63518809  1
  O  O15  1  0.87622086  0.52926209  0.14742491  1
  O  O16  1  0.65269635  0.11453467  0.14427231  1
  O  O17  1  0.47461803  0.35290565  0.13754903  1
  O  O18  1  0.46380527  0.29895430  0.02761356  1
  O  O19  1  0.82259762  0.52106081  0.02937652  1
  O  O20  1  0.69307497  0.16582707  0.03274707  1
  O  O21  1  0.44582710  0.15176862  0.52654676  1
  O  O22  1  0.69808350  0.55646845  0.52665006  1
  O  O23  1  0.86371915  0.30961969  0.52684077  1
  O  O24  1  0.56465482  0.67652208  0.97969367  1
  O  O25  1  0.11447317  0.44439003  0.98030970  1
  O  O26  1  0.31045764  0.86689237  0.97204351  1
  O  O27  1  0.52906605  0.83113421  0.46705446  1
  O  O28  1  0.30315226  0.46356734  0.47259543  1
  O  O29  1  0.16779282  0.69496710  0.46762316  1
  O  O30  1  0.12413354  0.66504017  0.35532583  1
  O  O31  1  0.54073968  0.87906386  0.35509124  1
  O  O32  1  0.33332763  0.46484395  0.36118972  1
  O  O33  1  0.13566363  0.50079909  0.87032043  1
  O  O34  1  0.35876883  0.87041970  0.86232707  1
  O  O35  1  0.50640026  0.64499986  0.86954117  1
  O  O36  1  0.04180521  0.85056512  0.41309435  1
  O  O37  1  0.80937756  0.95884743  0.41254436  1
  O  O38  1  0.15039543  0.18972995  0.41421930  1
  O  O39  1  0.00232949  0.19624261  0.91204327  1
  O  O40  1  0.18855085  0.99356822  0.90669484  1
  O  O41  1  0.81117457  0.79527373  0.91010219  1
  O  O42  1  0.00223241  0.19641807  0.59244706  1
  O  O43  1  0.17427455  0.98985747  0.59199656  1
  O  O44  1  0.80469315  0.80638132  0.59143700  1
  O  O45  1  0.96138157  0.81553053  0.08793560  1
  O  O46  1  0.85582798  0.05172648  0.08691243  1
  O  O47  1  0.19161533  0.15835465  0.08674213  1
  O  O48  1  0.65043206  0.16464307  0.73986607  1
  O  O49  1  0.50264457  0.34855086  0.73737505  1
  O  O50  1  0.84523147  0.50574023  0.73752476  1
  O  O51  1  0.71872308  0.55871842  0.25496757  1
  O  O52  1  0.83411177  0.27990806  0.25478074  1
  O  O53  1  0.45444015  0.15070054  0.25596442  1
  O  O54  1  0.63087019  0.48126387  0.92200827  1
  O  O55  1  0.85283250  0.36942730  0.92280182  1
  O  O56  1  0.51011600  0.14423600  0.92255971  1
  O  O57  1  0.66583178  0.13164894  0.42090970  1
  O  O58  1  0.46801641  0.33519827  0.42027585  1
  O  O59  1  0.86922319  0.53351353  0.42073846  1
  O  O60  1  0.33967180  0.47124627  0.07503240  1
  O  O61  1  0.14181776  0.65028058  0.08121697  1
  O  O62  1  0.54363000  0.86193050  0.07860940  1
  O  O63  1  0.36780209  0.84678999  0.57321681  1
  O  O64  1  0.48690318  0.62763714  0.57496494  1
  O  O65  1  0.14327094  0.51428386  0.57662542  1
  O  O66  1  0.28110793  0.83408669  0.24536275  1
  O  O67  1  0.55861738  0.72424032  0.24472779  1
  O  O68  1  0.15070529  0.45482231  0.24443199  1
  O  O69  1  0.33716499  0.48999871  0.76693277  1
  O  O70  1  0.15714281  0.65423230  0.76460969  1
  O  O71  1  0.48884298  0.83382790  0.76363403  1
loop_
_geom_bond_atom_site_label_1
_geom_bond_atom_site_label_2
_geom_bond_distance
_geom_bond_site_symmetry_2
Na0 O52 2.325435 1_555
Na0 O67 2.341460 1_545
Na0 O53 2.447467 1_555
Na0 O31 2.540129 1_545
Na0 O16 2.596370 1_555
Na0 O66 2.650830 1_545
Na1 O51 2.364549 1_555
Na1 O66 2.373609 1_655
Na1 O68 2.442377 1_655
Na1 O15 2.470614 1_555
Na1 O52 2.624830 1_555
Na1 O30 2.639544 1_655
Na2 O3 2.468900 1_565
Na2 O48 2.471669 1_565
Na2 O71 2.492584 1_555
Na2 O8 2.641105 1_555
Na2 O70 2.753276 1_555
Na2 O34 2.790110 1_555
Na2 O49 2.798741 1_565
Na2 O13 2.892779 1_565
Na3 O42 2.404911 1_555
Na3 O7 2.447348 1_555
Na3 O64 2.547674 1_555
Na3 O43 2.559755 1_545
Na3 O21 2.738400 1_555
Na3 O65 2.892925 1_555
Na3 O14 2.895622 1_555
Na3 O28 2.907277 1_555
Na4 O43 2.288885 1_555
Na4 O65 2.524318 1_555
Na4 O44 2.555097 1_455
Na4 O8 2.609754 1_555
Na4 O63 2.821997 1_555
Na4 O22 2.884438 1_455
Na4 O12 2.885880 1_455
Na5 O6 2.238249 1_555
Na5 O44 2.389507 1_555
Na5 O63 2.517971 1_555
Na5 O42 2.603298 1_665
Na5 O64 2.838025 1_555
Na6 O62 2.326459 1_555
Na6 O24 2.345451 1_554
Na6 O45 2.473588 1_555
Na6 O60 2.526736 1_555
Na6 O19 2.831350 1_555
Na6 O17 2.936468 1_555
Na6 O46 2.963746 1_565
Na6 O9 3.023592 1_555
Na7 O25 2.349044 1_554
Na7 O61 2.369986 1_555
Na7 O60 2.404103 1_555
Na7 O46 2.443147 1_455
Na7 O47 2.789028 1_555
Na8 O41 2.312576 1_555
Na8 O4 2.461370 1_555
Na8 O40 2.496365 1_655
Na8 O55 2.518139 1_555
Na8 O33 2.773117 1_655
Na8 O54 2.861390 1_555
Na8 O26 2.918839 1_655
Na9 O43 2.489669 1_555
Na9 O38 2.604532 1_565
Na9 O36 2.607119 1_555
Na9 O44 2.661177 1_455
Na9 O42 2.683408 1_565
Na9 O37 2.702530 1_455
Na10 O39 2.393315 1_555
Na10 O40 2.494920 1_545
Na10 O41 2.606221 1_445
Na10 O47 2.716941 1_556
Na10 O46 2.798252 1_456
Na10 O45 2.831781 1_446
Na11 O48 2.510129 1_555
Na11 O55 2.540058 1_555
Na11 O56 2.593491 1_555
Na11 O54 2.617629 1_555
Na11 O50 2.681802 1_555
Na11 O49 2.714899 1_555
Na12 O58 2.439961 1_555
Na12 O53 2.613938 1_555
Na12 O59 2.621745 1_555
Na12 O57 2.641528 1_555
Na12 O51 2.675966 1_555
Na12 O52 2.798574 1_555
Na13 O61 2.413888 1_555
Na13 O66 2.574077 1_555
Na13 O68 2.593217 1_555
Na13 O62 2.687375 1_555
Na13 O67 2.711054 1_555
Na13 O60 2.723184 1_555
Na14 O71 2.584539 1_555
Na14 O64 2.627652 1_555
Na14 O69 2.653124 1_555
Na14 O65 2.680922 1_555
Na14 O70 2.710582 1_555
Na14 O63 2.742777 1_555
Ca0 O5 2.130780 1_555
Ca0 O39 2.284082 1_655
Ca0 O3 2.313316 1_655
Ca0 O40 2.327511 1_645
Ca0 O41 2.364309 1_545
Ca0 O4 2.371039 1_545
Ca1 O6 2.251708 1_555
Ca1 O8 2.338201 1_655
Ca1 O43 2.340362 1_655
Ca1 O42 2.357849 1_665
Ca1 O7 2.362272 1_665
Ca1 O44 2.364634 1_555
Ca2 O17 2.157526 1_555
Ca2 O15 2.157890 1_555
Ca2 O16 2.255223 1_555
Ca2 O53 2.295355 1_555
Ca2 O51 2.339595 1_555
Ca2 O52 2.380028 1_555
Ca3 O21 2.153023 1_555
Ca3 O22 2.219441 1_555
Ca3 O23 2.219684 1_555
Ca3 O58 2.243854 1_555
Ca3 O57 2.246924 1_555
Ca3 O59 2.274592 1_555
Ca4 O26 2.134113 1_554
Ca4 O61 2.228587 1_555
Ca4 O25 2.237426 1_554
Ca4 O24 2.247527 1_554
Ca4 O62 2.290460 1_555
Ca4 O60 2.305595 1_555
Ca5 O32 2.122005 1_555
Ca5 O31 2.218038 1_555
Ca5 O30 2.223856 1_555
Ca5 O68 2.309208 1_555
Ca5 O67 2.337106 1_555
Ca5 O66 2.389880 1_555
O0 P0 1.565538 1_545
O0 Ta0 1.991386 1_555
O1 P1 1.573566 1_555
O1 Ta0 1.993457 1_665
O2 P2 1.577175 1_555
O2 Ta0 1.990700 1_555
O3 P3 1.518636 1_555
O4 P4 1.516288 1_655
O5 Si0 1.571194 1_545
O6 Si0 1.597290 1_555
O7 P3 1.525372 1_555
O8 P4 1.537784 1_555
O9 P1 1.601210 1_555
O9 Ta1 1.972861 1_665
O10 P2 1.584778 1_555
O10 Ta1 2.010512 1_555
O11 P0 1.596802 1_545
O11 Ta1 1.947328 1_555
O12 P5 1.606086 1_555
O12 Ta2 2.034783 1_555
O13 Si1 1.718203 1_555
O13 Ta2 1.953690 1_555
O14 P6 1.587702 1_555
O14 Ta2 2.077546 1_555
O15 Si2 1.589633 1_555
O16 P7 1.508515 1_555
O17 P8 1.496083 1_555
O18 P8 1.597862 1_555
O18 Ta3 1.995966 1_554
O19 Si2 1.750739 1_555
O19 Ta3 1.947334 1_554
O20 P7 1.607026 1_555
O20 Ta3 2.025768 1_554
O21 Si1 1.567356 1_555
O22 P6 1.499819 1_555
O23 P5 1.496051 1_555
O24 P9 1.506450 1_555
O25 P10 1.512031 1_555
O26 P11 1.500815 1_555
O27 P12 1.640131 1_555
O27 Ta4 1.963809 1_555
O28 P13 1.626395 1_555
O28 Ta4 2.005330 1_555
O29 P14 1.644457 1_555
O29 Ta4 1.960976 1_555
O30 P14 1.497128 1_555
O31 P12 1.500589 1_555
O32 P13 1.482273 1_555
O33 P10 1.597720 1_555
O33 Ta5 2.069629 1_555
O34 P11 1.607163 1_555
O34 Ta5 2.033767 1_555
O35 P9 1.596548 1_555
O35 Ta5 1.996249 1_555
O36 P14 1.602828 1_555
O36 Ta0 2.017595 1_565
O37 P12 1.598401 1_555
O37 Ta0 2.013181 1_665
O38 P13 1.610523 1_555
O38 Ta0 1.992692 1_555
O39 P10 1.507644 1_555
O40 P11 1.520644 1_555
O41 P9 1.521986 1_555
O42 P5 1.530200 1_455
O43 Si1 1.610472 1_565
O44 P6 1.534237 1_555
O45 Si2 1.701462 1_555
O45 Ta1 1.967044 1_665
O46 P7 1.611518 1_555
O46 Ta1 2.091888 1_655
O47 P8 1.587580 1_555
O47 Ta1 2.028985 1_555
O48 Si0 1.707153 1_545
O48 Ta2 1.934496 1_555
O49 P3 1.582930 1_555
O49 Ta2 2.010320 1_555
O50 P4 1.563147 1_655
O50 Ta2 2.044695 1_555
O51 P1 1.519602 1_555
O52 P2 1.533504 1_655
O53 P0 1.517268 1_545
O54 P9 1.606745 1_555
O54 Ta3 2.054777 1_555
O55 P10 1.618570 1_655
O55 Ta3 2.073790 1_555
O56 P11 1.582830 1_545
O56 Ta3 2.071753 1_555
O57 P12 1.506060 1_545
O58 P13 1.509136 1_555
O59 P14 1.505897 1_655
O60 P8 1.523520 1_555
O61 Si2 1.592271 1_455
O62 P7 1.517350 1_565
O63 Si1 1.713667 1_565
O63 Ta4 1.999383 1_555
O64 P6 1.604348 1_555
O64 Ta4 2.128022 1_555
O65 P5 1.598936 1_455
O65 Ta4 2.150622 1_555
O66 P0 1.531050 1_555
O67 P1 1.518772 1_555
O68 P2 1.520619 1_555
O69 P3 1.576455 1_555
O69 Ta5 1.999111 1_555
O70 P4 1.591937 1_555
O70 Ta5 2.032013 1_555
O71 Si0 1.713731 1_555
O71 Ta5 1.931125 1_555
