# generated using pymatgen
data_MgCr4(CuS4)2
_symmetry_space_group_name_H-M   'P 1'
_cell_length_a   7.82339830
_cell_length_b   6.77927031
_cell_length_c   7.81548020
_cell_angle_alpha   64.30322313
_cell_angle_beta   51.38683560
_cell_angle_gamma   64.29417693
_symmetry_Int_Tables_number   1
_chemical_formula_structural   MgCr4(CuS4)2
_chemical_formula_sum   'Mg1 Cr4 Cu2 S8'
_cell_volume   283.91234563
_cell_formula_units_Z   1
loop_
 _symmetry_equiv_pos_site_id
 _symmetry_equiv_pos_as_xyz
  1  'x, y, z'
loop_
 _atom_site_type_symbol
 _atom_site_label
 _atom_site_symmetry_multiplicity
 _atom_site_fract_x
 _atom_site_fract_y
 _atom_site_fract_z
 _atom_site_occupancy
  Mg  Mg0  1  0.37520800  0.37427000  0.37566600  1
  Cr  Cr0  1  0.56312700  0.44739400  0.56281100  1
  Cr  Cr1  1  0.44792100  0.56251600  0.92734700  1
  Cr  Cr2  1  0.56307100  0.92654600  0.56272200  1
  Cr  Cr3  1  0.92727700  0.56242900  0.44803900  1
  Cu  Cu0  1  0.87455600  0.87529100  0.87514500  1
  Cu  Cu1  1  0.12535900  0.12438800  0.12583900  1
  S  S0  1  0.74777700  0.73552300  0.74813900  1
  S  S1  1  0.30775000  0.22153600  0.74915300  1
  S  S2  1  0.22244000  0.74813300  0.22288800  1
  S  S3  1  0.74905700  0.22175900  0.30706600  1
  S  S4  1  0.74808400  0.26876700  0.74803000  1
  S  S5  1  0.26943700  0.74760700  0.73545800  1
  S  S6  1  0.22246700  0.30685900  0.22242000  1
  S  S7  1  0.73609600  0.74735300  0.26890700  1
loop_
_geom_bond_atom_site_label_1
_geom_bond_atom_site_label_2
_geom_bond_distance
_geom_bond_site_symmetry_2
Mg0 S1 2.408596 1_555
Mg0 S6 2.409546 1_555
Mg0 S2 2.409731 1_555
Mg0 S3 2.410595 1_555
Cr0 S4 2.286867 1_555
Cr0 S3 2.354394 1_555
Cr0 S1 2.354873 1_555
Cr0 S5 2.386921 1_555
Cr0 S7 2.387337 1_555
Cr1 S5 2.288056 1_555
Cr1 S2 2.353682 1_556
Cr1 S6 2.354163 1_556
Cr1 S4 2.387498 1_555
Cr1 S0 2.387860 1_555
Cr2 S0 2.286456 1_555
Cr2 S1 2.353983 1_565
Cr2 S3 2.354673 1_565
Cr2 S7 2.386231 1_555
Cr2 S5 2.387003 1_555
Cr3 S7 2.287695 1_555
Cr3 S6 2.353765 1_655
Cr3 S2 2.354323 1_655
Cr3 S0 2.386717 1_555
Cr3 S4 2.386755 1_555
Cu0 S4 2.391759 1_565
Cu0 S0 2.393019 1_555
Cu0 S7 2.394971 1_556
Cu0 S5 2.403164 1_655
Cu1 S6 2.240067 1_555
Cu1 S2 2.240311 1_545
Cu1 S1 2.242221 1_554
Cu1 S3 2.242630 1_455
