# generated using pymatgen
data_MgV2S4(Br2N3)2
_symmetry_space_group_name_H-M   'P 1'
_cell_length_a   6.08363342
_cell_length_b   7.70955132
_cell_length_c   8.62006373
_cell_angle_alpha   91.33671981
_cell_angle_beta   79.69777608
_cell_angle_gamma   68.36311657
_symmetry_Int_Tables_number   1
_chemical_formula_structural   MgV2S4(Br2N3)2
_chemical_formula_sum   'Mg1 V2 S4 Br4 N6'
_cell_volume   367.98726460
_cell_formula_units_Z   1
loop_
 _symmetry_equiv_pos_site_id
 _symmetry_equiv_pos_as_xyz
  1  'x, y, z'
loop_
 _atom_site_type_symbol
 _atom_site_label
 _atom_site_symmetry_multiplicity
 _atom_site_fract_x
 _atom_site_fract_y
 _atom_site_fract_z
 _atom_site_occupancy
  Mg  Mg0  1  0.32979600  0.49212700  0.47347800  1
  V  V0  1  0.25713400  0.00145900  0.88249500  1
  V  V1  1  0.75989000  0.01415800  0.11674700  1
  S  S0  1  0.76579000  0.28408200  0.81226400  1
  S  S1  1  0.80107700  0.76827000  0.40210300  1
  S  S2  1  0.20303900  0.21376900  0.58249600  1
  S  S3  1  0.25410100  0.72740900  0.18209800  1
  Br  Br0  1  0.28632900  0.68425600  0.71989600  1
  Br  Br1  1  0.68738500  0.78484700  0.92850100  1
  Br  Br2  1  0.32464100  0.23159800  0.07230200  1
  Br  Br3  1  0.73077300  0.31033400  0.29730400  1
  N  N0  1  0.34052100  0.09364800  0.70759400  1
  N  N1  1  0.67965800  0.91050000  0.28769300  1
  N  N2  1  0.09399600  0.88365800  0.09101200  1
  N  N3  1  0.91426200  0.32446500  0.65557900  1
  N  N4  1  0.10010700  0.67451800  0.33776500  1
  N  N5  1  0.91941800  0.13423400  0.91161000  1
loop_
_geom_bond_atom_site_label_1
_geom_bond_atom_site_label_2
_geom_bond_distance
_geom_bond_site_symmetry_2
Mg0 N4 2.123876 1_555
Mg0 S2 2.671785 1_555
Br0 Mg0 2.477776 1_555
Br0 V0 2.721623 1_565
Br1 V1 2.578826 1_566
Br1 V0 2.641221 1_565
Br2 V0 2.576030 1_554
Br2 V1 2.662281 1_555
Br3 Mg0 2.505115 1_555
Br3 V1 2.665510 1_555
N0 S2 1.586824 1_555
N0 V0 1.754379 1_555
N1 S1 1.560241 1_555
N1 V1 1.770205 1_565
N2 S3 1.571211 1_555
N2 V1 1.874319 1_465
N2 V0 2.267899 1_564
N3 S0 1.589857 1_555
N3 S2 1.638594 1_655
N4 S3 1.643816 1_555
N4 S1 1.670394 1_455
N5 S0 1.574072 1_555
N5 V0 1.893307 1_655
N5 V1 2.247403 1_556
