# generated using pymatgen
data_Na10TaIn7Si6(SO8)6
_symmetry_space_group_name_H-M   'P 1'
_cell_length_a   18.19831810
_cell_length_b   9.15455816
_cell_length_c   22.96128837
_cell_angle_alpha   89.84680329
_cell_angle_beta   89.55275760
_cell_angle_gamma   119.93001012
_symmetry_Int_Tables_number   1
_chemical_formula_structural   Na10TaIn7Si6(SO8)6
_chemical_formula_sum   'Na30 Ta3 In21 Si18 S18 O144'
_cell_volume   3314.94005616
_cell_formula_units_Z   3
loop_
 _symmetry_equiv_pos_site_id
 _symmetry_equiv_pos_as_xyz
  1  'x, y, z'
loop_
 _atom_site_type_symbol
 _atom_site_label
 _atom_site_symmetry_multiplicity
 _atom_site_fract_x
 _atom_site_fract_y
 _atom_site_fract_z
 _atom_site_occupancy
  Na  Na0  1  0.31915261  0.00573572  0.24930264  1
  Na  Na1  1  0.82160099  0.00420884  0.25154767  1
  Na  Na2  1  0.18611299  0.36503347  0.25034065  1
  Na  Na3  1  0.68673271  0.37570243  0.23966414  1
  Na  Na4  1  0.99615948  0.62712548  0.24479538  1
  Na  Na5  1  0.49458483  0.61508196  0.25213587  1
  Na  Na6  1  0.31111860  0.62103384  0.74978594  1
  Na  Na7  1  0.80696054  0.61867400  0.74948603  1
  Na  Na8  1  0.99488208  0.35046970  0.74832682  1
  Na  Na9  1  0.68694902  0.01163544  0.75494900  1
  Na  Na10  1  0.16278420  0.34907623  0.58273197  1
  Na  Na11  1  0.01220139  0.69117043  0.58294258  1
  Na  Na12  1  0.32949032  0.96380616  0.58663962  1
  Na  Na13  1  0.83121556  0.96815640  0.57971789  1
  Na  Na14  1  0.83088184  0.68077547  0.07527691  1
  Na  Na15  1  0.16971532  0.30825112  0.90879265  1
  Na  Na16  1  0.67190725  0.31002638  0.91654368  1
  Na  Na17  1  0.35723384  0.66606074  0.41709112  1
  Na  Na18  1  0.99879925  0.99519809  0.49424003  1
  Na  Na19  1  0.50881974  0.98359793  0.49896569  1
  Na  Na20  1  0.98993977  0.97277628  0.99623687  1
  Na  Na21  1  0.49232049  0.96779306  0.99861407  1
  Na  Na22  1  0.33193303  0.33180328  0.83458083  1
  Na  Na23  1  0.82964057  0.33296173  0.83696942  1
  Na  Na24  1  0.34336902  0.33815818  0.33233143  1
  Na  Na25  1  0.83989031  0.34480459  0.33197198  1
  Na  Na26  1  0.15877347  0.66274912  0.16450246  1
  Na  Na27  1  0.65155428  0.63863922  0.15920900  1
  Na  Na28  1  0.16808027  0.66950193  0.66282843  1
  Na  Na29  1  0.66200054  0.63108842  0.66843304  1
  Ta  Ta0  1  0.00015273  0.00910848  0.64652206  1
  Ta  Ta1  1  0.99937744  0.99176415  0.15185977  1
  Ta  Ta2  1  0.49662881  0.00150658  0.14483127  1
  In  In0  1  0.99912840  0.00130244  0.34544986  1
  In  In1  1  0.49995649  0.99152845  0.35129971  1
  In  In2  1  0.99217158  0.99778967  0.85078867  1
  In  In3  1  0.49685700  0.99293740  0.85177283  1
  In  In4  1  0.50255020  0.00151685  0.64973375  1
  In  In5  1  0.32288264  0.32528901  0.68080789  1
  In  In6  1  0.82759876  0.33647770  0.68148509  1
  In  In7  1  0.34042142  0.34319352  0.18435500  1
  In  In8  1  0.84261193  0.35540278  0.17781314  1
  In  In9  1  0.34197772  0.36188887  0.98532478  1
  In  In10  1  0.83491018  0.35590303  0.98820973  1
  In  In11  1  0.33701144  0.34832329  0.48540665  1
  In  In12  1  0.83882060  0.34444983  0.48631642  1
  In  In13  1  0.17017417  0.67378675  0.01700232  1
  In  In14  1  0.66510601  0.65930484  0.01936193  1
  In  In15  1  0.16580848  0.66420081  0.51910540  1
  In  In16  1  0.66302245  0.65984407  0.51422570  1
  In  In17  1  0.16384616  0.66496236  0.30938001  1
  In  In18  1  0.66135221  0.65091490  0.31646342  1
  In  In19  1  0.16824694  0.66235106  0.81810518  1
  In  In20  1  0.67139862  0.66055978  0.81551102  1
  Si  Si0  1  0.14791485  0.00534341  0.25094814  1
  Si  Si1  1  0.35393486  0.70798670  0.25159813  1
  Si  Si2  1  0.85109776  0.70282629  0.25332735  1
  Si  Si3  1  0.99540131  0.28765380  0.24889337  1
  Si  Si4  1  0.50096921  0.28591776  0.25179632  1
  Si  Si5  1  0.14608573  0.29153842  0.75374587  1
  Si  Si6  1  0.64376168  0.28970099  0.75144639  1
  Si  Si7  1  0.85093500  0.00433315  0.74808080  1
  Si  Si8  1  0.97771938  0.33137991  0.58495629  1
  Si  Si9  1  0.18699896  0.03966370  0.58203057  1
  Si  Si10  1  0.33883198  0.64476677  0.58392673  1
  Si  Si11  1  0.83073111  0.63270936  0.58488189  1
  Si  Si12  1  0.48644590  0.63732240  0.08640492  1
  Si  Si13  1  0.99161235  0.64533500  0.08495330  1
  Si  Si14  1  0.68287892  0.32822874  0.08450169  1
  Si  Si15  1  0.31636537  0.66730241  0.91550132  1
  Si  Si16  1  0.81855397  0.66883188  0.91780271  1
  Si  Si17  1  0.51775422  0.66664653  0.41556083  1
  S  S0  1  0.64600707  0.00123841  0.24665434  1
  S  S1  1  0.00327703  0.71135964  0.74905427  1
  S  S2  1  0.49898790  0.69788402  0.75000745  1
  S  S3  1  0.34959719  0.00263457  0.74956549  1
  S  S4  1  0.48110356  0.33368097  0.58515231  1
  S  S5  1  0.68359872  0.03341060  0.58165330  1
  S  S6  1  0.33450241  0.03914228  0.08415365  1
  S  S7  1  0.83778731  0.04135837  0.08508809  1
  S  S8  1  0.18079620  0.32546291  0.08402111  1
  S  S9  1  0.01626960  0.37065079  0.91713625  1
  S  S10  1  0.51667484  0.36955559  0.91565603  1
  S  S11  1  0.16824695  0.96725271  0.91660328  1
  S  S12  1  0.66824519  0.96293215  0.91532852  1
  S  S13  1  0.31264611  0.96330810  0.41671020  1
  S  S14  1  0.81822405  0.97205260  0.41666880  1
  S  S15  1  0.16353802  0.36727065  0.41604274  1
  S  S16  1  0.67035303  0.36318266  0.41690545  1
  S  S17  1  0.01737696  0.66785187  0.41647460  1
  O  O0  1  0.11334419  0.05575969  0.30797354  1
  O  O1  1  0.61246743  0.03374766  0.30120597  1
  O  O2  1  0.40750251  0.77310165  0.31139455  1
  O  O3  1  0.91483919  0.77781480  0.30753931  1
  O  O4  1  0.48791345  0.17407169  0.30962320  1
  O  O5  1  0.97343308  0.17339765  0.30721357  1
  O  O6  1  0.10489535  0.18753550  0.81357347  1
  O  O7  1  0.60405989  0.17161670  0.81043711  1
  O  O8  1  0.47944779  0.77254456  0.80108989  1
  O  O9  1  0.99151812  0.79096046  0.80115138  1
  O  O10  1  0.40081606  0.01797142  0.80117421  1
  O  O11  1  0.91261470  0.04652344  0.80296633  1
  O  O12  1  0.38596829  0.97140975  0.69542813  1
  O  O13  1  0.90252822  0.97608772  0.69166642  1
  O  O14  1  0.08510220  0.18317987  0.69674528  1
  O  O15  1  0.58913067  0.19775563  0.69386967  1
  O  O16  1  0.01171552  0.81123981  0.69473031  1
  O  O17  1  0.51334011  0.80191575  0.69678754  1
  O  O18  1  0.40744176  0.83935863  0.19720607  1
  O  O19  1  0.90121266  0.82669633  0.19399514  1
  O  O20  1  0.00925842  0.18498224  0.19349154  1
  O  O21  1  0.51105080  0.18503049  0.19502654  1
  O  O22  1  0.08128065  0.97440541  0.19552390  1
  O  O23  1  0.58965486  0.97918876  0.19644083  1
  O  O24  1  0.44113876  0.35596361  0.63828103  1
  O  O25  1  0.94109859  0.37412888  0.64309164  1
  O  O26  1  0.25085943  0.10477003  0.63739082  1
  O  O27  1  0.73312131  0.10689115  0.63583074  1
  O  O28  1  0.32014985  0.52886139  0.64298298  1
  O  O29  1  0.81400141  0.53056822  0.64609313  1
  O  O30  1  0.44941130  0.52702491  0.14636520  1
  O  O31  1  0.95756293  0.54711971  0.14731294  1
  O  O32  1  0.32317871  0.11366698  0.13835726  1
  O  O33  1  0.82647170  0.11541231  0.13954174  1
  O  O34  1  0.23205463  0.34465139  0.13644045  1
  O  O35  1  0.74008508  0.35593577  0.14255699  1
  O  O36  1  0.21753221  0.29517712  0.03046093  1
  O  O37  1  0.71715701  0.28541180  0.02469954  1
  O  O38  1  0.42681494  0.56400931  0.02964491  1
  O  O39  1  0.92400446  0.56380013  0.03226523  1
  O  O40  1  0.34572158  0.14380292  0.03204402  1
  O  O41  1  0.85050161  0.14785939  0.03341006  1
  O  O42  1  0.22494308  0.17046316  0.52715877  1
  O  O43  1  0.72554986  0.13979927  0.52993736  1
  O  O44  1  0.35125805  0.56684222  0.52366274  1
  O  O45  1  0.85936223  0.55777165  0.53038944  1
  O  O46  1  0.42858170  0.30575760  0.53258138  1
  O  O47  1  0.91315963  0.26905542  0.53042936  1
  O  O48  1  0.26857002  0.69030798  0.97162643  1
  O  O49  1  0.77336734  0.68969455  0.97687842  1
  O  O50  1  0.07175696  0.46249801  0.96640931  1
  O  O51  1  0.56740900  0.44986292  0.96777519  1
  O  O52  1  0.15434878  0.86199285  0.96886590  1
  O  O53  1  0.65717909  0.85486066  0.96602457  1
  O  O54  1  0.27031634  0.85621928  0.46948532  1
  O  O55  1  0.77706059  0.87242649  0.47073740  1
  O  O56  1  0.15557395  0.44930749  0.47001748  1
  O  O57  1  0.66106123  0.44913681  0.46877030  1
  O  O58  1  0.06529762  0.67901532  0.47016626  1
  O  O59  1  0.57582386  0.69075206  0.47213862  1
  O  O60  1  0.06043143  0.65354886  0.36314490  1
  O  O61  1  0.55854037  0.64870096  0.35329479  1
  O  O62  1  0.26326033  0.88082046  0.36316062  1
  O  O63  1  0.76892652  0.88660250  0.36353836  1
  O  O64  1  0.17294641  0.47264199  0.36330581  1
  O  O65  1  0.68438259  0.46407857  0.36225439  1
  O  O66  1  0.05067835  0.46788383  0.86086592  1
  O  O67  1  0.55427801  0.47458955  0.86241821  1
  O  O68  1  0.17635352  0.88469726  0.86262660  1
  O  O69  1  0.67158312  0.88271649  0.85913403  1
  O  O70  1  0.26202324  0.63135363  0.85407181  1
  O  O71  1  0.76256008  0.63627551  0.85822238  1
  O  O72  1  0.00971275  0.82182851  0.41503612  1
  O  O73  1  0.50448182  0.83384650  0.41575446  1
  O  O74  1  0.39670540  0.97391537  0.41498733  1
  O  O75  1  0.90433443  0.98910480  0.41500734  1
  O  O76  1  0.08680876  0.19849082  0.41416810  1
  O  O77  1  0.59326682  0.19648523  0.41368964  1
  O  O78  1  0.01745743  0.20877540  0.91466256  1
  O  O79  1  0.51551149  0.20519508  0.91102293  1
  O  O80  1  0.09448566  0.99571164  0.91324483  1
  O  O81  1  0.59350387  0.99110875  0.91515593  1
  O  O82  1  0.41119642  0.83519145  0.91256587  1
  O  O83  1  0.91364199  0.83535886  0.91478700  1
  O  O84  1  0.48710816  0.17715348  0.58894463  1
  O  O85  1  0.99165870  0.16452511  0.59435976  1
  O  O86  1  0.09250743  0.02244127  0.59540417  1
  O  O87  1  0.59753343  0.01200307  0.58533135  1
  O  O88  1  0.41807866  0.83950916  0.58941906  1
  O  O89  1  0.92034863  0.82195601  0.59428700  1
  O  O90  1  0.49086113  0.82307704  0.09709460  1
  O  O91  1  0.99266360  0.83149158  0.09217743  1
  O  O92  1  0.41432733  0.02609982  0.08875818  1
  O  O93  1  0.91595986  0.02179314  0.08953564  1
  O  O94  1  0.09406359  0.17112170  0.09117594  1
  O  O95  1  0.58737681  0.16338693  0.09551472  1
  O  O96  1  0.34409757  0.15795692  0.74573083  1
  O  O97  1  0.84259300  0.17242002  0.74048334  1
  O  O98  1  0.24393419  0.32902349  0.74865928  1
  O  O99  1  0.74016153  0.31147766  0.74893857  1
  O  O100  1  0.42448123  0.52591430  0.74420195  1
  O  O101  1  0.92708749  0.54121269  0.74583771  1
  O  O102  1  0.33767783  0.51696259  0.24471320  1
  O  O103  1  0.83424073  0.51149117  0.24631045  1
  O  O104  1  0.41570316  0.30186745  0.24748485  1
  O  O105  1  0.91032335  0.30413277  0.24186827  1
  O  O106  1  0.24089448  0.16444147  0.23820017  1
  O  O107  1  0.73208348  0.14809489  0.23919253  1
  O  O108  1  0.31643614  0.48552420  0.91917231  1
  O  O109  1  0.82053476  0.48894437  0.91897180  1
  O  O110  1  0.42826512  0.33711453  0.92068658  1
  O  O111  1  0.92920730  0.34005577  0.92372928  1
  O  O112  1  0.24665847  0.13548507  0.92131990  1
  O  O113  1  0.74658144  0.13028353  0.91822768  1
  O  O114  1  0.32031729  0.13075780  0.42182710  1
  O  O115  1  0.82429584  0.14068548  0.41919924  1
  O  O116  1  0.24278003  0.35863808  0.41754219  1
  O  O117  1  0.74717860  0.34386027  0.42197670  1
  O  O118  1  0.42087917  0.49750062  0.41846220  1
  O  O119  1  0.93246411  0.51155650  0.41801825  1
  O  O120  1  0.17097619  0.47534529  0.07938206  1
  O  O121  1  0.68063248  0.50446954  0.08163026  1
  O  O122  1  0.08586290  0.67081795  0.07677883  1
  O  O123  1  0.58268200  0.67243288  0.07851146  1
  O  O124  1  0.26205327  0.86703185  0.08033524  1
  O  O125  1  0.76486397  0.86886957  0.08080300  1
  O  O126  1  0.16592027  0.84572025  0.57456679  1
  O  O127  1  0.67876970  0.86654797  0.57725362  1
  O  O128  1  0.25109613  0.65851555  0.58037297  1
  O  O129  1  0.75346358  0.67355488  0.57461185  1
  O  O130  1  0.07279563  0.49034365  0.57645572  1
  O  O131  1  0.56726966  0.48312397  0.58006905  1
  O  O132  1  0.14868389  0.82787577  0.25201141  1
  O  O133  1  0.65159502  0.84518154  0.24983758  1
  O  O134  1  0.26254059  0.70399094  0.25178978  1
  O  O135  1  0.76210986  0.70780851  0.25624846  1
  O  O136  1  0.08280965  0.47132461  0.25051617  1
  O  O137  1  0.58761349  0.47275107  0.25009575  1
  O  O138  1  0.14711240  0.47567371  0.75055926  1
  O  O139  1  0.65549208  0.47909812  0.75294019  1
  O  O140  1  0.08033584  0.69412912  0.75218353  1
  O  O141  1  0.57898547  0.69420141  0.75781340  1
  O  O142  1  0.26341704  0.84797097  0.75416458  1
  O  O143  1  0.75708832  0.83487219  0.74946261  1
loop_
_geom_bond_atom_site_label_1
_geom_bond_atom_site_label_2
_geom_bond_distance
_geom_bond_site_symmetry_2
Na0 O104 2.383967 1_555
Na0 O134 2.419414 1_545
Na0 O106 2.504507 1_555
Na0 O132 2.689775 1_545
Na0 O32 2.717079 1_555
Na0 O62 2.821132 1_545
Na1 O135 2.368872 1_545
Na1 O105 2.400499 1_555
Na1 O107 2.572139 1_555
Na1 O133 2.683352 1_545
Na1 O5 2.731750 1_555
Na1 O33 2.747867 1_555
Na1 O63 2.758122 1_545
Na1 O19 2.969358 1_545
Na2 O102 2.392547 1_555
Na2 O106 2.503779 1_555
Na2 O136 2.511245 1_555
Na2 O134 2.694218 1_555
Na2 O34 2.774478 1_555
Na2 O0 2.780670 1_555
Na2 O64 2.827594 1_555
Na3 O103 2.334969 1_555
Na3 O137 2.386203 1_555
Na3 O35 2.467935 1_555
Na3 O107 2.595924 1_555
Na3 O135 2.668839 1_555
Na3 O65 2.936746 1_555
Na3 O21 2.968297 1_555
Na3 O1 3.057404 1_555
Na4 O31 2.357930 1_555
Na4 O132 2.455164 1_655
Na4 O105 2.565392 1_555
Na4 O103 2.586519 1_555
Na4 O136 2.604744 1_655
Na4 O3 2.860625 1_555
Na4 O60 2.929497 1_655
Na4 O22 2.970834 1_655
Na5 O104 2.488048 1_555
Na5 O102 2.537403 1_555
Na5 O61 2.555982 1_555
Na5 O133 2.568112 1_555
Na5 O30 2.569872 1_555
Na5 O137 2.601228 1_555
Na5 O2 2.952963 1_555
Na6 O98 2.319707 1_555
Na6 O70 2.567690 1_555
Na6 O138 2.591318 1_555
Na6 O100 2.611472 1_555
Na6 O142 2.622809 1_555
Na6 O28 2.626044 1_555
Na7 O139 2.391336 1_555
Na7 O99 2.444516 1_555
Na7 O29 2.532120 1_555
Na7 O143 2.556062 1_555
Na7 O101 2.614067 1_555
Na7 O71 2.648221 1_555
Na8 O138 2.413516 1_655
Na8 O97 2.423125 1_555
Na8 O101 2.593229 1_555
Na8 O25 2.662563 1_555
Na8 O11 2.711595 1_555
Na8 O140 2.728623 1_655
Na8 O66 2.798279 1_655
Na8 O14 2.988693 1_655
Na9 O99 2.415532 1_555
Na9 O97 2.474280 1_555
Na9 O143 2.514625 1_545
Na9 O141 2.570753 1_545
Na9 O69 2.615133 1_545
Na9 O27 2.857879 1_555
Na9 O7 2.868467 1_555
Na10 O128 2.462774 1_555
Na10 O130 2.547779 1_555
Na10 O86 2.614382 1_555
Na10 O85 2.712603 1_455
Na10 O42 2.723199 1_555
Na10 O56 2.769478 1_555
Na10 O28 2.862632 1_555
Na10 O14 2.989460 1_555
Na11 O126 2.430012 1_555
Na11 O89 2.507478 1_455
Na11 O130 2.576839 1_555
Na11 O86 2.646338 1_565
Na11 O45 2.711918 1_455
Na11 O58 2.778718 1_555
Na11 O16 2.796627 1_555
Na11 O25 2.865067 1_455
Na12 O88 2.393678 1_555
Na12 O128 2.427661 1_555
Na12 O84 2.541171 1_565
Na12 O26 2.625938 1_565
Na12 O126 2.628614 1_555
Na12 O12 2.696381 1_555
Na12 O54 2.892556 1_555
Na12 O46 2.983827 1_565
Na13 O129 2.342149 1_555
Na13 O127 2.447975 1_555
Na13 O85 2.578893 1_565
Na13 O89 2.589749 1_555
Na13 O47 2.636347 1_565
Na13 O55 2.681291 1_555
Na13 O13 2.873310 1_555
Na13 O27 2.948749 1_565
Na14 O121 2.385648 1_555
Na14 O49 2.515568 1_554
Na14 O125 2.547086 1_555
Na14 O91 2.586398 1_555
Na14 O39 2.604700 1_555
Na14 O93 2.727727 1_565
Na15 O108 2.346866 1_555
Na15 O78 2.449607 1_555
Na15 O6 2.478958 1_555
Na15 O80 2.481624 1_545
Na15 O112 2.599735 1_555
Na15 O70 2.852799 1_555
Na15 O36 2.952318 1_556
Na16 O109 2.362984 1_555
Na16 O79 2.513612 1_555
Na16 O81 2.530801 1_545
Na16 O113 2.605308 1_555
Na16 O37 2.666503 1_556
Na16 O7 2.751013 1_555
Na16 O71 2.909024 1_555
Na16 O51 3.006890 1_555
Na17 O73 2.330677 1_555
Na17 O118 2.346793 1_555
Na17 O116 2.531579 1_555
Na17 O74 2.537633 1_555
Na17 O44 2.590395 1_555
Na17 O2 2.597147 1_555
Na18 O72 2.487999 1_655
Na18 O75 2.494372 1_555
Na18 O76 2.523953 1_665
Na18 O89 2.738712 1_555
Na18 O85 2.814245 1_565
Na18 O86 2.829586 1_665
Na19 O73 2.333350 1_555
Na19 O87 2.498080 1_565
Na19 O88 2.557081 1_555
Na19 O77 2.633965 1_565
Na19 O74 2.787592 1_555
Na19 O84 2.875717 1_565
Na20 O83 2.306120 1_555
Na20 O91 2.564885 1_556
Na20 O80 2.614915 1_655
Na20 O93 2.676966 1_566
Na20 O78 2.703852 1_665
Na20 O94 2.879568 1_666
Na21 O82 2.413883 1_555
Na21 O81 2.580494 1_555
Na21 O90 2.610933 1_556
Na21 O92 2.701791 1_566
Na21 O79 2.827444 1_565
Na21 O95 2.852990 1_566
Na22 O108 2.496921 1_555
Na22 O98 2.542905 1_555
Na22 O112 2.598912 1_555
Na22 O110 2.637072 1_555
Na22 O96 2.665664 1_555
Na22 O100 2.690732 1_555
Na23 O109 2.420202 1_555
Na23 O113 2.519404 1_555
Na23 O99 2.551441 1_555
Na23 O111 2.682447 1_555
Na23 O97 2.734719 1_555
Na23 O101 2.775788 1_555
Na24 O118 2.456508 1_555
Na24 O104 2.457323 1_555
Na24 O102 2.625329 1_555
Na24 O114 2.678530 1_555
Na24 O116 2.739100 1_555
Na24 O106 2.792884 1_555
Na25 O103 2.520203 1_555
Na25 O105 2.549674 1_555
Na25 O119 2.563944 1_555
Na25 O115 2.650589 1_555
Na25 O117 2.654913 1_555
Na25 O107 2.861906 1_555
Na26 O122 2.441702 1_555
Na26 O136 2.530615 1_555
Na26 O132 2.577528 1_555
Na26 O134 2.660294 1_555
Na26 O124 2.679797 1_555
Na26 O120 2.684007 1_555
Na27 O123 2.349478 1_555
Na27 O121 2.367972 1_555
Na27 O137 2.489393 1_555
Na27 O125 2.742300 1_555
Na27 O133 2.815165 1_555
Na27 O135 2.867003 1_555
Na28 O128 2.446424 1_555
Na28 O138 2.577836 1_555
Na28 O126 2.599637 1_555
Na28 O130 2.619753 1_555
Na28 O140 2.668459 1_555
Na28 O142 2.706324 1_555
Na29 O139 2.352165 1_555
Na29 O131 2.581183 1_555
Na29 O143 2.604564 1_555
Na29 O129 2.618445 1_555
Na29 O141 2.767124 1_555
Na29 O127 2.903801 1_555
In0 O3 2.048216 1_545
In0 O5 2.050775 1_555
In0 O0 2.060357 1_655
In0 O75 2.302833 1_545
In0 O76 2.339781 1_655
In0 O72 2.365601 1_645
In1 O4 2.028929 1_565
In1 O2 2.084571 1_555
In1 O73 2.095208 1_555
In1 O1 2.199056 1_565
In1 O77 2.308499 1_565
In1 O74 2.312705 1_555
In2 O11 2.041484 1_565
In2 O83 2.061023 1_555
In2 O6 2.089155 1_665
In2 O9 2.207601 1_555
In2 O78 2.287386 1_665
In2 O80 2.366569 1_655
In3 O7 2.039824 1_565
In3 O82 2.042757 1_555
In3 O10 2.210667 1_565
In3 O8 2.214912 1_555
In3 O79 2.259407 1_565
In3 O81 2.298037 1_555
In4 O15 1.986710 1_555
In4 O88 2.061511 1_545
In4 O17 2.212584 1_545
In4 O87 2.231040 1_555
In4 O84 2.248887 1_555
In4 O12 2.249032 1_545
In5 O26 2.043995 1_555
In5 O28 2.077101 1_555
In5 O98 2.122955 1_555
In5 O24 2.241965 1_555
In5 O96 2.303212 1_555
In5 O100 2.361831 1_555
In6 O29 2.076739 1_555
In6 O25 2.102805 1_555
In6 O97 2.137539 1_555
In6 O99 2.139953 1_555
In6 O27 2.215027 1_555
In6 O101 2.375831 1_555
In7 O30 2.039935 1_555
In7 O106 2.117430 1_555
In7 O102 2.131610 1_555
In7 O104 2.160203 1_555
In7 O32 2.233417 1_555
In7 O34 2.271516 1_555
In8 O35 2.041879 1_555
In8 O31 2.062455 1_555
In8 O105 2.122179 1_555
In8 O103 2.182700 1_555
In8 O33 2.248497 1_555
In8 O107 2.401253 1_555
In9 O38 2.006702 1_556
In9 O108 2.081126 1_555
In9 O110 2.245176 1_555
In9 O36 2.270625 1_556
In9 O40 2.294942 1_556
In9 O112 2.435782 1_555
In10 O39 2.056924 1_556
In10 O37 2.073558 1_556
In10 O109 2.096027 1_555
In10 O41 2.306129 1_556
In10 O111 2.316857 1_555
In10 O113 2.485357 1_555
In11 O44 2.082307 1_555
In11 O42 2.092138 1_555
In11 O118 2.104627 1_555
In11 O46 2.185412 1_555
In11 O116 2.362269 1_555
In11 O114 2.368355 1_555
In12 O45 2.065312 1_555
In12 O47 2.069283 1_555
In12 O43 2.205962 1_555
In12 O117 2.234583 1_555
In12 O119 2.246700 1_555
In12 O115 2.335417 1_555
In13 O48 2.003641 1_554
In13 O122 2.040608 1_555
In13 O52 2.182440 1_554
In13 O50 2.210464 1_554
In13 O124 2.267174 1_555
In13 O120 2.316207 1_555
In14 O123 2.063469 1_555
In14 O49 2.081377 1_554
In14 O121 2.127991 1_555
In14 O51 2.209888 1_554
In14 O53 2.230323 1_554
In14 O125 2.354900 1_555
In15 O126 2.095483 1_555
In15 O130 2.097145 1_555
In15 O128 2.122508 1_555
In15 O54 2.150480 1_555
In15 O56 2.196517 1_555
In15 O58 2.214867 1_555
In16 O59 2.000654 1_555
In16 O129 2.116029 1_555
In16 O57 2.180376 1_555
In16 O55 2.240165 1_555
In16 O131 2.252127 1_555
In16 O127 2.288502 1_555
In17 O134 2.102895 1_555
In17 O132 2.107461 1_555
In17 O136 2.139913 1_555
In17 O60 2.200813 1_555
In17 O64 2.223245 1_555
In17 O62 2.276695 1_555
In18 O61 2.038045 1_555
In18 O135 2.132751 1_555
In18 O137 2.155073 1_555
In18 O65 2.217932 1_555
In18 O63 2.342365 1_555
In18 O133 2.416499 1_555
In19 O70 2.044239 1_555
In19 O138 2.200328 1_555
In19 O66 2.206350 1_555
In19 O68 2.218967 1_555
In19 O142 2.247837 1_555
In19 O140 2.331331 1_555
In20 O71 2.038555 1_555
In20 O139 2.108770 1_555
In20 O143 2.178325 1_555
In20 O67 2.221418 1_555
In20 O69 2.267940 1_555
In20 O141 2.286427 1_555
O0 Si0 1.613509 1_555
O1 S0 1.483706 1_555
O2 Si1 1.623634 1_555
O3 Si2 1.612074 1_555
O4 Si4 1.616438 1_555
O5 Si3 1.616773 1_555
O6 Si5 1.618716 1_555
O7 Si6 1.650086 1_555
O8 S2 1.486487 1_555
O9 S1 1.471061 1_655
O10 S3 1.476581 1_555
O11 Si7 1.609158 1_555
O12 S3 1.497623 1_565
O13 Si7 1.688610 1_565
O13 Ta0 1.937998 1_665
O14 Si5 1.691064 1_555
O14 Ta0 1.959212 1_555
O15 Si6 1.623607 1_555
O16 S1 1.505425 1_555
O16 Ta0 2.219008 1_565
O17 S2 1.486294 1_555
O18 Si1 1.660936 1_555
O18 Ta2 1.959538 1_565
O19 Si2 1.707037 1_555
O19 Ta1 1.918920 1_555
O20 Si3 1.674266 1_455
O20 Ta1 1.941441 1_445
O21 Si4 1.660597 1_555
O21 Ta2 1.948072 1_555
O22 Si0 1.689239 1_565
O22 Ta1 1.873728 1_455
O23 S0 1.494957 1_565
O23 Ta2 2.164985 1_565
O24 S4 1.481302 1_555
O25 Si8 1.621207 1_555
O26 Si9 1.630201 1_555
O27 S5 1.493060 1_555
O28 Si10 1.644788 1_555
O29 Si11 1.626234 1_555
O30 Si12 1.633480 1_555
O31 Si13 1.632758 1_555
O32 S6 1.482477 1_555
O33 S7 1.484969 1_555
O34 S8 1.484870 1_555
O35 Si14 1.638615 1_555
O36 S8 1.486671 1_555
O37 Si14 1.631493 1_555
O38 Si12 1.620675 1_555
O39 Si13 1.626695 1_555
O40 S6 1.478565 1_555
O41 S7 1.475305 1_555
O42 Si9 1.628279 1_555
O43 S5 1.476200 1_555
O44 Si10 1.623615 1_555
O45 Si11 1.630567 1_555
O46 S4 1.487228 1_555
O47 Si8 1.622119 1_555
O48 Si15 1.621236 1_555
O49 Si16 1.641143 1_555
O50 S9 1.477265 1_555
O51 S10 1.472987 1_555
O52 S11 1.475949 1_555
O53 S12 1.471643 1_555
O54 S13 1.499466 1_555
O55 S14 1.493958 1_555
O56 S15 1.493904 1_555
O57 S16 1.483444 1_555
O58 S17 1.489749 1_555
O59 Si17 1.625846 1_555
O60 S17 1.489546 1_555
O61 Si17 1.651770 1_555
O62 S13 1.494919 1_555
O63 S14 1.492287 1_555
O64 S15 1.500609 1_555
O65 S16 1.498825 1_555
O66 S9 1.509573 1_555
O67 S10 1.487004 1_555
O68 S11 1.497463 1_555
O69 S12 1.502055 1_555
O70 Si15 1.665924 1_555
O71 Si16 1.649121 1_555
O72 S17 1.484417 1_555
O73 Si17 1.664381 1_555
O74 S13 1.483879 1_555
O75 S14 1.495473 1_555
O76 S15 1.478966 1_555
O77 S16 1.472472 1_555
O78 S9 1.494025 1_555
O79 S10 1.498277 1_555
O80 S11 1.492032 1_555
O81 S12 1.505585 1_555
O82 Si15 1.641906 1_555
O83 Si16 1.639631 1_555
O84 S4 1.492840 1_555
O85 Si8 1.682237 1_555
O85 Ta0 1.922480 1_655
O86 Si9 1.672449 1_555
O86 Ta0 1.995252 1_555
O87 S5 1.479935 1_555
O88 Si10 1.646955 1_555
O89 Si11 1.701734 1_555
O89 Ta0 2.009556 1_665
O90 Si12 1.680655 1_555
O90 Ta2 1.928954 1_565
O91 Si13 1.703274 1_555
O91 Ta1 1.969798 1_555
O92 S6 1.520237 1_555
O92 Ta2 2.077659 1_555
O93 S7 1.524061 1_555
O93 Ta1 2.208213 1_545
O94 S8 1.511272 1_555
O94 Ta1 2.175693 1_445
O95 Si14 1.653996 1_555
O95 Ta2 1.930125 1_555
O96 S3 1.476844 1_555
O97 Si7 1.628910 1_555
O98 Si5 1.639813 1_555
O99 Si6 1.664346 1_555
O100 S2 1.486113 1_555
O101 S1 1.483640 1_655
O102 Si1 1.629893 1_555
O103 Si2 1.629175 1_555
O104 Si4 1.633186 1_555
O105 Si3 1.637919 1_555
O106 Si0 1.612715 1_555
O107 S0 1.477712 1_555
O108 Si15 1.666650 1_555
O109 Si16 1.665219 1_555
O110 S10 1.486686 1_555
O111 S9 1.471344 1_655
O112 S11 1.493363 1_545
O113 S12 1.485413 1_545
O114 S13 1.473375 1_545
O115 S14 1.493030 1_545
O116 S15 1.483739 1_555
O117 S16 1.499578 1_555
O118 Si17 1.668447 1_555
O119 S17 1.492952 1_655
O120 S8 1.473147 1_555
O121 Si14 1.635357 1_555
O122 Si13 1.620810 1_455
O123 Si12 1.623682 1_555
O124 S6 1.469046 1_565
O125 S7 1.475133 1_565
O126 Si9 1.628444 1_565
O127 S5 1.489414 1_565
O128 Si10 1.665620 1_555
O129 Si11 1.643786 1_555
O130 Si8 1.621775 1_455
O131 S4 1.483143 1_555
O132 Si0 1.631785 1_565
O133 S0 1.483645 1_565
O134 Si1 1.645247 1_555
O135 Si2 1.643520 1_555
O136 Si3 1.640476 1_455
O137 Si4 1.649439 1_555
O138 Si5 1.677826 1_555
O139 Si6 1.638310 1_555
O140 S1 1.489580 1_555
O141 S2 1.485158 1_555
O142 S3 1.502091 1_565
O143 Si7 1.636906 1_565
