# generated using pymatgen
data_MgV2(FeO2)4
_symmetry_space_group_name_H-M   'P 1'
_cell_length_a   5.94997156
_cell_length_b   6.22177847
_cell_length_c   6.03068152
_cell_angle_alpha   62.29513651
_cell_angle_beta   59.90333976
_cell_angle_gamma   66.13049102
_symmetry_Int_Tables_number   1
_chemical_formula_structural   MgV2(FeO2)4
_chemical_formula_sum   'Mg1 V2 Fe4 O8'
_cell_volume   166.66709412
_cell_formula_units_Z   1
loop_
 _symmetry_equiv_pos_site_id
 _symmetry_equiv_pos_as_xyz
  1  'x, y, z'
loop_
 _atom_site_type_symbol
 _atom_site_label
 _atom_site_symmetry_multiplicity
 _atom_site_fract_x
 _atom_site_fract_y
 _atom_site_fract_z
 _atom_site_occupancy
  Mg  Mg0  1  0.12500000  0.62500000  0.12500000  1
  V  V0  1  0.12500000  0.62500000  0.62500000  1
  V  V1  1  0.62500000  0.62500000  0.12500000  1
  Fe  Fe0  1  0.02299500  0.09391993  0.95155679  1
  Fe  Fe1  1  0.22700500  0.15608007  0.29844321  1
  Fe  Fe2  1  0.62500000  0.12500000  0.62500000  1
  Fe  Fe3  1  0.62500000  0.62500000  0.62500000  1
  O  O0  1  0.35007485  0.40315110  0.36873301  1
  O  O1  1  0.41960397  0.81454730  0.38396179  1
  O  O2  1  0.33285509  0.39656862  0.87293340  1
  O  O3  1  0.85506499  0.38887759  0.37263050  1
  O  O4  1  0.39493501  0.86112241  0.87736950  1
  O  O5  1  0.83039603  0.43545270  0.86603821  1
  O  O6  1  0.91714491  0.85343138  0.37706660  1
  O  O7  1  0.89992515  0.84684890  0.88126699  1
loop_
_geom_bond_atom_site_label_1
_geom_bond_atom_site_label_2
_geom_bond_distance
_geom_bond_site_symmetry_2
Mg0 O3 2.105253 1_455
Mg0 O4 2.105253 1_554
Mg0 O7 2.109709 1_454
Mg0 O0 2.109709 1_555
Mg0 O6 2.135683 1_455
Mg0 O2 2.135683 1_554
Fe0 O5 1.922903 1_455
Fe0 O4 2.052067 1_545
Fe0 O6 2.189067 1_446
Fe0 O7 2.215209 1_445
Fe1 O1 1.922903 1_545
Fe1 O3 2.052067 1_455
Fe1 O2 2.189067 1_554
Fe1 O0 2.215209 1_555
Fe2 O4 2.071627 1_545
Fe2 O3 2.071627 1_555
Fe2 O2 2.340417 1_555
Fe2 O6 2.340417 1_545
Fe2 O7 2.411786 1_545
Fe2 O0 2.411786 1_555
Fe3 O5 2.004643 1_555
Fe3 O1 2.004643 1_555
Fe3 O6 2.166545 1_555
Fe3 O2 2.166545 1_555
Fe3 O3 2.170363 1_555
Fe3 O4 2.170363 1_555
O0 V1 2.066630 1_555
O0 V0 2.121065 1_555
O1 V1 1.988783 1_555
O1 V0 2.024836 1_555
O2 V0 2.059414 1_555
O3 V1 2.155221 1_555
O4 V1 2.155221 1_556
O5 V1 1.988783 1_556
O5 V0 2.024836 1_655
O6 V0 2.059414 1_655
O7 V1 2.066630 1_556
O7 V0 2.121065 1_655
