# generated using pymatgen
data_LiFe(PO3)4
_symmetry_space_group_name_H-M   'P 1'
_cell_length_a   8.56421716
_cell_length_b   8.56421716
_cell_length_c   13.17252928
_cell_angle_alpha   45.17208930
_cell_angle_beta   45.17208930
_cell_angle_gamma   50.97526647
_symmetry_Int_Tables_number   1
_chemical_formula_structural   LiFe(PO3)4
_chemical_formula_sum   'Li2 Fe2 P8 O24'
_cell_volume   468.77094746
_cell_formula_units_Z   2
loop_
 _symmetry_equiv_pos_site_id
 _symmetry_equiv_pos_as_xyz
  1  'x, y, z'
loop_
 _atom_site_type_symbol
 _atom_site_label
 _atom_site_symmetry_multiplicity
 _atom_site_fract_x
 _atom_site_fract_y
 _atom_site_fract_z
 _atom_site_occupancy
  Li  Li0  1  0.94663000  0.05337000  0.25000000  1
  Li  Li1  1  0.05337000  0.94663000  0.75000000  1
  Fe  Fe0  1  0.60799500  0.39200500  0.75000000  1
  Fe  Fe1  1  0.39200500  0.60799500  0.25000000  1
  P  P0  1  0.42919600  0.08726000  0.35995200  1
  P  P1  1  0.91274000  0.57080400  0.14004800  1
  P  P2  1  0.69509500  0.85683800  0.83870300  1
  P  P3  1  0.08726000  0.42919600  0.85995200  1
  P  P4  1  0.57080400  0.91274000  0.64004800  1
  P  P5  1  0.30490500  0.14316200  0.16129700  1
  P  P6  1  0.85683800  0.69509500  0.33870300  1
  P  P7  1  0.14316200  0.30490500  0.66129700  1
  O  O0  1  0.47425600  0.26511100  0.99035400  1
  O  O1  1  0.04926000  0.30502500  0.20994200  1
  O  O2  1  0.95074000  0.69497500  0.79005800  1
  O  O3  1  0.66963500  0.57114800  0.22663300  1
  O  O4  1  0.64950800  0.93124200  0.71101400  1
  O  O5  1  0.27685400  0.93863700  0.20954300  1
  O  O6  1  0.06875800  0.35049200  0.78898600  1
  O  O7  1  0.26511100  0.47425600  0.49035400  1
  O  O8  1  0.70171400  0.03326400  0.46088500  1
  O  O9  1  0.96673600  0.29828600  0.03911500  1
  O  O10  1  0.30502500  0.04926000  0.70994200  1
  O  O11  1  0.52574400  0.73488900  0.00964600  1
  O  O12  1  0.57114800  0.66963500  0.72663300  1
  O  O13  1  0.06136300  0.72314600  0.29045700  1
  O  O14  1  0.35049200  0.06875800  0.28898600  1
  O  O15  1  0.42885200  0.33036500  0.27336700  1
  O  O16  1  0.93863700  0.27685400  0.70954300  1
  O  O17  1  0.69497500  0.95074000  0.29005800  1
  O  O18  1  0.03326400  0.70171400  0.96088500  1
  O  O19  1  0.29828600  0.96673600  0.53911500  1
  O  O20  1  0.73488900  0.52574400  0.50964600  1
  O  O21  1  0.93124200  0.64950800  0.21101400  1
  O  O22  1  0.72314600  0.06136300  0.79045700  1
  O  O23  1  0.33036500  0.42885200  0.77336700  1
loop_
_geom_bond_atom_site_label_1
_geom_bond_atom_site_label_2
_geom_bond_distance
_geom_bond_site_symmetry_2
Li0 O9 1.926378 1_555
Li0 O8 1.926378 1_555
Li0 O5 2.088421 1_645
Li0 O13 2.088421 1_645
Li0 O17 2.413327 1_545
Li0 O1 2.413327 1_655
Li1 O19 1.926378 1_555
Li1 O18 1.926378 1_555
Li1 O16 2.088421 1_465
Li1 O22 2.088421 1_465
Li1 O2 2.413327 1_455
Li1 O10 2.413327 1_565
Fe0 O23 2.001971 1_555
Fe0 O12 2.001971 1_555
Fe0 O0 2.029816 1_555
Fe0 O20 2.029816 1_555
Fe0 O22 2.090841 1_555
Fe0 O16 2.090841 1_555
Fe1 O15 2.001971 1_555
Fe1 O3 2.001971 1_555
Fe1 O11 2.029816 1_555
Fe1 O7 2.029816 1_555
Fe1 O13 2.090841 1_555
Fe1 O5 2.090841 1_555
O0 P5 1.500562 1_556
O1 P5 1.605626 1_555
O1 P1 1.614704 1_455
O2 P2 1.605626 1_555
O2 P3 1.614704 1_655
O3 P1 1.511453 1_555
O4 P2 1.577648 1_555
O4 P4 1.607807 1_555
O5 P5 1.508245 1_565
O6 P7 1.577648 1_555
O6 P3 1.607807 1_555
O7 P7 1.500562 1_555
O8 P4 1.477877 1_545
O9 P3 1.477877 1_654
O10 P7 1.605626 1_555
O10 P4 1.614704 1_545
O11 P2 1.500562 1_554
O12 P4 1.511453 1_555
O13 P6 1.508245 1_455
O14 P5 1.577648 1_555
O14 P0 1.607807 1_555
O15 P0 1.511453 1_555
O16 P7 1.508245 1_655
O17 P6 1.605626 1_555
O17 P0 1.614704 1_565
O18 P1 1.477877 1_456
O19 P0 1.477877 1_565
O20 P6 1.500562 1_555
O21 P6 1.577648 1_555
O21 P1 1.607807 1_555
O22 P2 1.508245 1_545
O23 P3 1.511453 1_555
