# generated using pymatgen
data_Na3MgTi(PO4)3
_symmetry_space_group_name_H-M   'P 1'
_cell_length_a   8.86864914
_cell_length_b   8.87350222
_cell_length_c   21.90504800
_cell_angle_alpha   90.00000000
_cell_angle_beta   90.14930976
_cell_angle_gamma   120.01810569
_symmetry_Int_Tables_number   1
_chemical_formula_structural   Na3MgTi(PO4)3
_chemical_formula_sum   'Na18 Mg6 Ti6 P18 O72'
_cell_volume   1492.60931071
_cell_formula_units_Z   6
loop_
 _symmetry_equiv_pos_site_id
 _symmetry_equiv_pos_as_xyz
  1  'x, y, z'
loop_
 _atom_site_type_symbol
 _atom_site_label
 _atom_site_symmetry_multiplicity
 _atom_site_fract_x
 _atom_site_fract_y
 _atom_site_fract_z
 _atom_site_occupancy
  Na  Na0  1  0.98731420  0.97210200  0.49609013  1
  Na  Na1  1  0.98731420  0.01521221  0.99609013  1
  Na  Na2  1  0.66682398  0.33633199  0.82933242  1
  Na  Na3  1  0.66682398  0.33049099  0.32933242  1
  Na  Na4  1  0.32934402  0.66293377  0.16266134  1
  Na  Na5  1  0.32934402  0.66641125  0.66266134  1
  Na  Na6  1  0.36933713  0.36208444  0.24747859  1
  Na  Na7  1  0.98996213  0.63287866  0.24714157  1
  Na  Na8  1  0.98996213  0.35708348  0.74714157  1
  Na  Na9  1  0.36933713  0.00725269  0.74747859  1
  Na  Na10  1  0.30725334  0.34189224  0.58072082  1
  Na  Na11  1  0.65985908  0.96630473  0.58031732  1
  Na  Na12  1  0.30725334  0.96536010  0.08072082  1
  Na  Na13  1  0.65985908  0.69355335  0.08031732  1
  Na  Na14  1  0.97524340  0.67736259  0.91364825  1
  Na  Na15  1  0.32590602  0.29809637  0.91497672  1
  Na  Na16  1  0.97524340  0.29788181  0.41364825  1
  Na  Na17  1  0.32590602  0.02781065  0.41497672  1
  Mg  Mg0  1  0.99402853  0.99525827  0.35169708  1
  Mg  Mg1  1  0.99402853  0.99877026  0.85169708  1
  Mg  Mg2  1  0.66776982  0.33919545  0.68506433  1
  Mg  Mg3  1  0.66776982  0.32857337  0.18506433  1
  Mg  Mg4  1  0.32961483  0.66146604  0.01855562  1
  Mg  Mg5  1  0.32961483  0.66814979  0.51855562  1
  Ti  Ti0  1  0.99742742  0.99302397  0.64879827  1
  Ti  Ti1  1  0.99742742  0.00440345  0.14879827  1
  Ti  Ti2  1  0.67067343  0.32626331  0.98187651  1
  Ti  Ti3  1  0.67067343  0.34440912  0.48187651  1
  Ti  Ti4  1  0.34126734  0.67282277  0.31534991  1
  Ti  Ti5  1  0.34126734  0.66844557  0.81534991  1
  P  P0  1  0.29288513  0.99855625  0.25188644  1
  P  P1  1  0.70644336  0.71140154  0.25026882  1
  P  P2  1  0.00010804  0.29403468  0.25361861  1
  P  P3  1  0.29288513  0.29432888  0.75188644  1
  P  P4  1  0.00010804  0.70607336  0.75361861  1
  P  P5  1  0.70644336  0.99504181  0.75026882  1
  P  P6  1  0.95995412  0.33285635  0.58549851  1
  P  P7  1  0.37214708  0.04131072  0.58513973  1
  P  P8  1  0.67015425  0.62725794  0.58532928  1
  P  P9  1  0.95995412  0.62709677  0.08549851  1
  P  P10  1  0.67015425  0.04289531  0.08532928  1
  P  P11  1  0.37214708  0.33083536  0.08513973  1
  P  P12  1  0.62779881  0.66718125  0.92055160  1
  P  P13  1  0.04051328  0.37539378  0.91657553  1
  P  P14  1  0.33904361  0.96165059  0.91843843  1
  P  P15  1  0.62779881  0.96061856  0.42055160  1
  P  P16  1  0.33904361  0.37739402  0.41843843  1
  P  P17  1  0.04051328  0.66512050  0.41657553  1
  O  O0  1  0.20962591  0.02323453  0.30870501  1
  O  O1  1  0.82332274  0.79698303  0.30388507  1
  O  O2  1  0.98488708  0.19663164  0.31196714  1
  O  O3  1  0.20962591  0.18639138  0.80870501  1
  O  O4  1  0.98488708  0.78825544  0.81196714  1
  O  O5  1  0.82332274  0.02633971  0.80388507  1
  O  O6  1  0.79297514  0.97157902  0.69018619  1
  O  O7  1  0.16932985  0.20067944  0.69440047  1
  O  O8  1  0.02300486  0.83223635  0.69788369  1
  O  O9  1  0.79297514  0.82139612  0.19018619  1
  O  O10  1  0.02300486  0.19076850  0.19788369  1
  O  O11  1  0.16932985  0.96865040  0.19440047  1
  O  O12  1  0.87528036  0.34847745  0.64315965  1
  O  O13  1  0.47952321  0.12484402  0.64221618  1
  O  O14  1  0.63867838  0.51260729  0.63951165  1
  O  O15  1  0.87528036  0.52680191  0.14315965  1
  O  O16  1  0.63867838  0.12607009  0.13951165  1
  O  O17  1  0.47952321  0.35467819  0.14221618  1
  O  O18  1  0.46577104  0.30131663  0.02789049  1
  O  O19  1  0.83960941  0.53123814  0.02783550  1
  O  O20  1  0.69401592  0.15974162  0.02670942  1
  O  O21  1  0.46577104  0.16445341  0.52789049  1
  O  O22  1  0.69401592  0.53427330  0.52670942  1
  O  O23  1  0.83960941  0.30837027  0.52783550  1
  O  O24  1  0.54653549  0.68455484  0.97860461  1
  O  O25  1  0.15520743  0.46376405  0.97092198  1
  O  O26  1  0.31308448  0.85358305  0.97507317  1
  O  O27  1  0.54653549  0.86198165  0.47860461  1
  O  O28  1  0.31308448  0.45950243  0.47507317  1
  O  O29  1  0.15520743  0.69144437  0.47092198  1
  O  O30  1  0.12770317  0.63429683  0.35757076  1
  O  O31  1  0.50047587  0.85862741  0.36455068  1
  O  O32  1  0.35906532  0.49143991  0.36004320  1
  O  O33  1  0.12770317  0.49340735  0.85757076  1
  O  O34  1  0.35906532  0.86762641  0.86004320  1
  O  O35  1  0.50047587  0.64184946  0.86455068  1
  O  O36  1  0.01754958  0.82310759  0.40928389  1
  O  O37  1  0.81186984  0.99252293  0.41194872  1
  O  O38  1  0.18102944  0.19271727  0.41159225  1
  O  O39  1  0.01754958  0.19444199  0.90928389  1
  O  O40  1  0.18102944  0.98831218  0.91159225  1
  O  O41  1  0.81186984  0.81934691  0.91194872  1
  O  O42  1  0.96841587  0.15819905  0.58628398  1
  O  O43  1  0.19082639  0.03319040  0.58870554  1
  O  O44  1  0.83922219  0.81060034  0.58845832  1
  O  O45  1  0.96841587  0.81021682  0.08628398  1
  O  O46  1  0.83922219  0.02862185  0.08845832  1
  O  O47  1  0.19082639  0.15763598  0.08870554  1
  O  O48  1  0.67692036  0.15136683  0.74363487  1
  O  O49  1  0.47208550  0.31367965  0.74383716  1
  O  O50  1  0.84862692  0.52137757  0.74540050  1
  O  O51  1  0.67692036  0.52555253  0.24363487  1
  O  O52  1  0.84862692  0.32724836  0.24540050  1
  O  O53  1  0.47208550  0.15840485  0.24383716  1
  O  O54  1  0.63450284  0.49249739  0.92030278  1
  O  O55  1  0.85976033  0.36902569  0.92135274  1
  O  O56  1  0.50645385  0.14716931  0.92113024  1
  O  O57  1  0.63450284  0.14200445  0.42030278  1
  O  O58  1  0.50645385  0.35928354  0.42113024  1
  O  O59  1  0.85976033  0.49073364  0.42135274  1
  O  O60  1  0.35192374  0.49023765  0.07729436  1
  O  O61  1  0.14563138  0.66117785  0.07857279  1
  O  O62  1  0.51373643  0.85871738  0.07704427  1
  O  O63  1  0.35192374  0.86168709  0.57729436  1
  O  O64  1  0.51373643  0.65502005  0.57704427  1
  O  O65  1  0.14563138  0.48445453  0.57857279  1
  O  O66  1  0.30027768  0.82517306  0.25515874  1
  O  O67  1  0.52118648  0.69420422  0.25520940  1
  O  O68  1  0.17571316  0.47510707  0.25265873  1
  O  O69  1  0.30027768  0.47510562  0.75515874  1
  O  O70  1  0.17571316  0.70060709  0.75265873  1
  O  O71  1  0.52118648  0.82698325  0.75520940  1
loop_
_geom_bond_atom_site_label_1
_geom_bond_atom_site_label_2
_geom_bond_distance
_geom_bond_site_symmetry_2
Na0 O36 2.406846 1_655
Na0 O44 2.450141 1_555
Na0 O37 2.473476 1_555
Na0 O43 2.582488 1_665
Na0 O38 2.619407 1_665
Na0 O42 2.633824 1_565
Na1 O39 2.406846 1_655
Na1 O46 2.450141 1_556
Na1 O41 2.473476 1_545
Na1 O47 2.582488 1_656
Na1 O40 2.619407 1_645
Na1 O45 2.633824 1_546
Na2 O50 2.458162 1_555
Na2 O49 2.483196 1_555
Na2 O48 2.524615 1_555
Na2 O54 2.524624 1_555
Na2 O56 2.551481 1_555
Na2 O55 2.561330 1_555
Na3 O52 2.458162 1_555
Na3 O53 2.483196 1_555
Na3 O51 2.524615 1_555
Na3 O57 2.524624 1_555
Na3 O58 2.551481 1_555
Na3 O59 2.561330 1_555
Na4 O61 2.450836 1_555
Na4 O60 2.488811 1_555
Na4 O68 2.502507 1_555
Na4 O62 2.526486 1_555
Na4 O67 2.567331 1_555
Na4 O66 2.572614 1_555
Na5 O65 2.450835 1_555
Na5 O63 2.488811 1_555
Na5 O70 2.502507 1_555
Na5 O64 2.526486 1_555
Na5 O71 2.567331 1_555
Na5 O69 2.572614 1_555
Na6 O51 2.365267 1_555
Na6 O68 2.385696 1_555
Na6 O53 2.398218 1_555
Na6 O17 2.520289 1_555
Na6 O67 2.560332 1_555
Na6 O32 2.740704 1_555
Na6 O10 2.869860 1_555
Na6 O0 2.931626 1_555
Na7 O52 2.350769 1_555
Na7 O66 2.411493 1_655
Na7 O51 2.444165 1_555
Na7 O15 2.477608 1_555
Na7 O68 2.644782 1_655
Na7 O30 2.704252 1_655
Na7 O11 2.830165 1_655
Na7 O1 2.830603 1_555
Na8 O50 2.350761 1_555
Na8 O69 2.411492 1_655
Na8 O48 2.444167 1_555
Na8 O12 2.477606 1_555
Na8 O70 2.644789 1_655
Na8 O33 2.704254 1_655
Na8 O7 2.830165 1_655
Na8 O5 2.830603 1_555
Na9 O48 2.365267 1_555
Na9 O70 2.385689 1_545
Na9 O49 2.398209 1_555
Na9 O13 2.520287 1_555
Na9 O71 2.560324 1_545
Na9 O34 2.740700 1_545
Na9 O8 2.869860 1_545
Na9 O3 2.931626 1_555
Na10 O65 2.339005 1_555
Na10 O43 2.402352 1_555
Na10 O64 2.447450 1_555
Na10 O28 2.528642 1_555
Na10 O42 2.608254 1_455
Na10 O7 2.783800 1_555
Na10 O21 2.831583 1_555
Na10 O14 2.849198 1_555
Na11 O64 2.394202 1_555
Na11 O42 2.396003 1_565
Na11 O63 2.405580 1_555
Na11 O27 2.426635 1_555
Na11 O44 2.582365 1_555
Na11 O6 2.667947 1_555
Na11 O23 2.871279 1_565
Na11 O13 2.939029 1_565
Na12 O61 2.338989 1_555
Na12 O47 2.402360 1_565
Na12 O62 2.447436 1_555
Na12 O26 2.528635 1_554
Na12 O45 2.608254 1_455
Na12 O11 2.783802 1_555
Na12 O18 2.831583 1_565
Na12 O16 2.849198 1_565
Na13 O62 2.394218 1_555
Na13 O45 2.396002 1_555
Na13 O60 2.405576 1_555
Na13 O24 2.426638 1_554
Na13 O46 2.582372 1_565
Na13 O9 2.667949 1_555
Na13 O19 2.871279 1_555
Na13 O17 2.939029 1_555
Na14 O41 2.348241 1_555
Na14 O55 2.400096 1_555
Na14 O4 2.419374 1_555
Na14 O40 2.430649 1_655
Na14 O54 2.624221 1_555
Na14 O19 2.799949 1_556
Na14 O33 2.866805 1_655
Na14 O26 2.919593 1_655
Na15 O40 2.382920 1_545
Na15 O54 2.398798 1_555
Na15 O39 2.412816 1_555
Na15 O3 2.535700 1_555
Na15 O56 2.553455 1_555
Na15 O18 2.757826 1_556
Na15 O25 2.861993 1_555
Na15 O35 2.864470 1_555
Na16 O37 2.348249 1_545
Na16 O59 2.400079 1_555
Na16 O2 2.419378 1_555
Na16 O38 2.430656 1_655
Na16 O57 2.624220 1_555
Na16 O23 2.799945 1_555
Na16 O30 2.866805 1_655
Na16 O28 2.919593 1_655
Na17 O38 2.382912 1_555
Na17 O57 2.398801 1_555
Na17 O36 2.412817 1_545
Na17 O0 2.535699 1_555
Na17 O58 2.553440 1_555
Na17 O21 2.757822 1_555
Na17 O29 2.861993 1_545
Na17 O31 2.864470 1_545
Mg0 O1 1.952184 1_555
Mg0 O2 2.025220 1_565
Mg0 O0 2.034437 1_665
Mg0 O36 2.070194 1_655
Mg0 O37 2.079477 1_555
Mg0 O38 2.150131 1_665
Mg1 O5 1.952184 1_565
Mg1 O4 2.025220 1_555
Mg1 O3 2.034437 1_665
Mg1 O39 2.070194 1_665
Mg1 O41 2.079477 1_555
Mg1 O40 2.150131 1_655
Mg2 O14 1.955999 1_555
Mg2 O12 2.023205 1_555
Mg2 O13 2.024990 1_555
Mg2 O50 2.080251 1_555
Mg2 O49 2.083032 1_555
Mg2 O48 2.136661 1_555
Mg3 O16 1.955999 1_555
Mg3 O15 2.023205 1_555
Mg3 O17 2.024990 1_555
Mg3 O52 2.080251 1_555
Mg3 O53 2.083032 1_555
Mg3 O51 2.136661 1_555
Mg4 O25 1.958416 1_554
Mg4 O26 2.020946 1_554
Mg4 O24 2.030572 1_554
Mg4 O60 2.074293 1_555
Mg4 O61 2.097090 1_555
Mg4 O62 2.121527 1_555
Mg5 O29 1.958416 1_555
Mg5 O28 2.020946 1_555
Mg5 O27 2.030572 1_555
Mg5 O63 2.074293 1_555
Mg5 O65 2.097090 1_555
Mg5 O64 2.121527 1_555
O0 P0 1.519480 1_545
O1 P1 1.495521 1_555
O2 P2 1.510967 1_655
O3 P3 1.519480 1_555
O4 P4 1.510967 1_655
O5 P5 1.495521 1_545
O6 P5 1.590459 1_555
O6 Ti0 1.951725 1_555
O7 P3 1.599582 1_555
O7 Ti0 1.974516 1_445
O8 P4 1.599658 1_555
O8 Ti0 1.888309 1_455
O9 P1 1.590459 1_555
O9 Ti1 1.951725 1_565
O10 P2 1.599658 1_555
O10 Ti1 1.888309 1_455
O11 P0 1.599582 1_555
O11 Ti1 1.974516 1_465
O12 P6 1.512470 1_555
O13 P7 1.518871 1_555
O14 P8 1.496384 1_555
O15 P9 1.512470 1_555
O16 P10 1.496384 1_555
O17 P11 1.518871 1_555
O18 P11 1.598032 1_555
O18 Ti2 1.993551 1_554
O19 P9 1.594593 1_555
O19 Ti2 1.957551 1_554
O20 P10 1.597038 1_555
O20 Ti2 1.869680 1_554
O21 P7 1.598032 1_555
O21 Ti3 1.993551 1_555
O22 P8 1.597038 1_555
O22 Ti3 1.869680 1_555
O23 P6 1.594593 1_555
O23 Ti3 1.957551 1_555
O24 P12 1.508713 1_555
O25 P13 1.504121 1_555
O26 P14 1.514007 1_555
O27 P15 1.508713 1_555
O28 P16 1.514007 1_555
O29 P17 1.504121 1_555
O30 P17 1.600037 1_555
O30 Ti4 1.980109 1_555
O31 P15 1.602873 1_555
O31 Ti4 1.880519 1_555
O32 P16 1.585327 1_555
O32 Ti4 1.956336 1_555
O33 P13 1.600037 1_555
O33 Ti5 1.980109 1_555
O34 P14 1.585327 1_555
O34 Ti5 1.956336 1_555
O35 P12 1.602873 1_555
O35 Ti5 1.880519 1_555
O36 P17 1.522433 1_555
O37 P15 1.523084 1_555
O38 P16 1.540437 1_555
O39 P13 1.522441 1_555
O40 P14 1.540432 1_555
O41 P12 1.523081 1_555
O42 P6 1.588785 1_555
O42 Ti0 2.113078 1_545
O43 P7 1.575405 1_555
O43 Ti0 2.049817 1_445
O44 P8 1.567943 1_555
O44 Ti0 2.013411 1_555
O45 P9 1.588794 1_555
O45 Ti1 2.113078 1_565
O46 P10 1.567938 1_555
O46 Ti1 2.013411 1_555
O47 P11 1.575401 1_555
O47 Ti1 2.049816 1_455
O48 P5 1.541770 1_545
O49 P3 1.521432 1_555
O50 P4 1.522823 1_655
O51 P1 1.541779 1_555
O52 P2 1.522818 1_655
O53 P0 1.521429 1_545
O54 P12 1.580650 1_555
O54 Ti2 2.137555 1_555
O55 P13 1.579274 1_655
O55 Ti2 2.022061 1_555
O56 P14 1.572222 1_545
O56 Ti2 2.022721 1_555
O57 P15 1.580632 1_545
O57 Ti3 2.137555 1_555
O58 P16 1.572233 1_555
O58 Ti3 2.022721 1_555
O59 P17 1.579282 1_655
O59 Ti3 2.022061 1_555
O60 P11 1.521859 1_555
O61 P9 1.526155 1_455
O62 P10 1.535762 1_565
O63 P7 1.521841 1_565
O64 P8 1.535773 1_555
O65 P6 1.526161 1_455
O66 P0 1.573965 1_555
O66 Ti4 2.046303 1_555
O67 P1 1.576213 1_555
O67 Ti4 2.006392 1_555
O68 P2 1.582402 1_555
O68 Ti4 2.128788 1_555
O69 P3 1.573974 1_555
O69 Ti5 2.046303 1_555
O70 P4 1.582397 1_555
O70 Ti5 2.128788 1_555
O71 P5 1.576209 1_555
O71 Ti5 2.006391 1_555
