# generated using pymatgen
data_MgTi4O8
_symmetry_space_group_name_H-M   'P 1'
_cell_length_a   6.05871060
_cell_length_b   5.97368263
_cell_length_c   5.97368281
_cell_angle_alpha   60.02701152
_cell_angle_beta   60.50013792
_cell_angle_gamma   60.50013515
_symmetry_Int_Tables_number   1
_chemical_formula_structural   MgTi4O8
_chemical_formula_sum   'Mg1 Ti4 O8'
_cell_volume   154.05700416
_cell_formula_units_Z   1
loop_
 _symmetry_equiv_pos_site_id
 _symmetry_equiv_pos_as_xyz
  1  'x, y, z'
loop_
 _atom_site_type_symbol
 _atom_site_label
 _atom_site_symmetry_multiplicity
 _atom_site_fract_x
 _atom_site_fract_y
 _atom_site_fract_z
 _atom_site_occupancy
  Mg  Mg0  1  0.12611500  0.62403700  0.62403700  1
  Ti  Ti0  1  0.25655400  0.24750500  0.24750500  1
  Ti  Ti1  1  0.63768900  0.10397000  0.62883300  1
  Ti  Ti2  1  0.63768900  0.62883300  0.10396900  1
  Ti  Ti3  1  0.63624000  0.62957000  0.62957000  1
  O  O0  1  0.38568300  0.37790600  0.37790600  1
  O  O1  1  0.38526900  0.37822400  0.85720400  1
  O  O2  1  0.38526900  0.85720400  0.37822400  1
  O  O3  1  0.86773900  0.37737000  0.37737000  1
  O  O4  1  0.41976900  0.86020700  0.86020700  1
  O  O5  1  0.84627800  0.41820000  0.86727600  1
  O  O6  1  0.84627800  0.86727600  0.41820000  1
  O  O7  1  0.84761300  0.86682900  0.86682900  1
loop_
_geom_bond_atom_site_label_1
_geom_bond_atom_site_label_2
_geom_bond_distance
_geom_bond_site_symmetry_2
Mg0 O7 2.082244 1_455
Mg0 O6 2.083152 1_455
Mg0 O5 2.083152 1_455
Mg0 O1 2.097902 1_555
Mg0 O2 2.097902 1_555
Mg0 O0 2.098194 1_555
O0 Ti0 1.905881 1_555
O0 Ti1 2.144373 1_555
O0 Ti2 2.144373 1_555
O1 Ti0 1.908895 1_556
O1 Ti3 2.141883 1_555
O1 Ti1 2.143575 1_555
O2 Ti0 1.908895 1_565
O2 Ti3 2.141883 1_555
O2 Ti2 2.143579 1_555
O3 Ti0 1.937725 1_655
O3 Ti1 2.143616 1_555
O3 Ti2 2.143621 1_555
O3 Ti3 2.147668 1_555
O4 Ti3 1.963164 1_555
O4 Ti2 1.964487 1_556
O4 Ti1 1.964491 1_565
O5 Ti2 1.905598 1_556
O5 Ti3 1.906761 1_555
O6 Ti1 1.905602 1_565
O6 Ti3 1.906761 1_555
O7 Ti2 1.907806 1_556
O7 Ti1 1.907806 1_565
