# generated using pymatgen
data_Cd4P2Br3
_symmetry_space_group_name_H-M   'P 1'
_cell_length_a   12.49622421
_cell_length_b   12.49622421
_cell_length_c   12.49622421
_cell_angle_alpha   90.00000000
_cell_angle_beta   90.00000000
_cell_angle_gamma   90.00000000
_symmetry_Int_Tables_number   1
_chemical_formula_structural   Cd4P2Br3
_chemical_formula_sum   'Cd32 P16 Br24'
_cell_volume   1951.35563301
_cell_formula_units_Z   8
loop_
 _symmetry_equiv_pos_site_id
 _symmetry_equiv_pos_as_xyz
  1  'x, y, z'
loop_
 _atom_site_type_symbol
 _atom_site_label
 _atom_site_symmetry_multiplicity
 _atom_site_fract_x
 _atom_site_fract_y
 _atom_site_fract_z
 _atom_site_occupancy
  Cd  Cd0  1  0.03448201  0.99592792  0.25457754  1
  Cd  Cd1  1  0.25457754  0.03448201  0.99592792  1
  Cd  Cd2  1  0.99592792  0.25457754  0.03448201  1
  Cd  Cd3  1  0.50407208  0.74542246  0.53448201  1
  Cd  Cd4  1  0.75457754  0.46551799  0.00407208  1
  Cd  Cd5  1  0.00407208  0.75457754  0.46551799  1
  Cd  Cd6  1  0.24542246  0.96551799  0.49592792  1
  Cd  Cd7  1  0.74542246  0.53448201  0.50407208  1
  Cd  Cd8  1  0.49592792  0.24542246  0.96551799  1
  Cd  Cd9  1  0.53448201  0.50407208  0.74542246  1
  Cd  Cd10  1  0.96551799  0.49592792  0.24542246  1
  Cd  Cd11  1  0.46551799  0.00407208  0.75457754  1
  Cd  Cd12  1  0.96551799  0.00407208  0.74542246  1
  Cd  Cd13  1  0.74542246  0.96551799  0.00407208  1
  Cd  Cd14  1  0.00407208  0.74542246  0.96551799  1
  Cd  Cd15  1  0.49592792  0.25457754  0.46551799  1
  Cd  Cd16  1  0.24542246  0.53448201  0.99592792  1
  Cd  Cd17  1  0.99592792  0.24542246  0.53448201  1
  Cd  Cd18  1  0.75457754  0.03448201  0.50407208  1
  Cd  Cd19  1  0.25457754  0.46551799  0.49592792  1
  Cd  Cd20  1  0.50407208  0.75457754  0.03448201  1
  Cd  Cd21  1  0.46551799  0.49592792  0.25457754  1
  Cd  Cd22  1  0.03448201  0.50407208  0.75457754  1
  Cd  Cd23  1  0.53448201  0.99592792  0.24542246  1
  Cd  Cd24  1  0.22236155  0.22236155  0.22236155  1
  Cd  Cd25  1  0.27763845  0.77763845  0.72236155  1
  Cd  Cd26  1  0.72236155  0.27763845  0.77763845  1
  Cd  Cd27  1  0.77763845  0.72236155  0.27763845  1
  Cd  Cd28  1  0.77763845  0.77763845  0.77763845  1
  Cd  Cd29  1  0.72236155  0.22236155  0.27763845  1
  Cd  Cd30  1  0.27763845  0.72236155  0.22236155  1
  Cd  Cd31  1  0.22236155  0.27763845  0.72236155  1
  P  P0  1  0.10745510  0.10745510  0.10745510  1
  P  P1  1  0.39254490  0.89254490  0.60745510  1
  P  P2  1  0.60745510  0.39254490  0.89254490  1
  P  P3  1  0.89254490  0.60745510  0.39254490  1
  P  P4  1  0.89254490  0.89254490  0.89254490  1
  P  P5  1  0.60745510  0.10745510  0.39254490  1
  P  P6  1  0.39254490  0.60745510  0.10745510  1
  P  P7  1  0.10745510  0.39254490  0.60745510  1
  P  P8  1  0.44964178  0.44964178  0.44964178  1
  P  P9  1  0.05035822  0.55035822  0.94964178  1
  P  P10  1  0.94964178  0.05035822  0.55035822  1
  P  P11  1  0.55035822  0.94964178  0.05035822  1
  P  P12  1  0.55035822  0.55035822  0.55035822  1
  P  P13  1  0.94964178  0.44964178  0.05035822  1
  P  P14  1  0.05035822  0.94964178  0.44964178  1
  P  P15  1  0.44964178  0.05035822  0.94964178  1
  Br  Br0  1  0.18578555  0.43571448  0.26613017  1
  Br  Br1  1  0.26613017  0.18578555  0.43571448  1
  Br  Br2  1  0.43571448  0.26613017  0.18578555  1
  Br  Br3  1  0.06428552  0.73386983  0.68578555  1
  Br  Br4  1  0.76613017  0.31421445  0.56428552  1
  Br  Br5  1  0.56428552  0.76613017  0.31421445  1
  Br  Br6  1  0.23386983  0.81421445  0.93571448  1
  Br  Br7  1  0.73386983  0.68578555  0.06428552  1
  Br  Br8  1  0.93571448  0.23386983  0.81421445  1
  Br  Br9  1  0.68578555  0.06428552  0.73386983  1
  Br  Br10  1  0.81421445  0.93571448  0.23386983  1
  Br  Br11  1  0.31421445  0.56428552  0.76613017  1
  Br  Br12  1  0.81421445  0.56428552  0.73386983  1
  Br  Br13  1  0.73386983  0.81421445  0.56428552  1
  Br  Br14  1  0.56428552  0.73386983  0.81421445  1
  Br  Br15  1  0.93571448  0.26613017  0.31421445  1
  Br  Br16  1  0.23386983  0.68578555  0.43571448  1
  Br  Br17  1  0.43571448  0.23386983  0.68578555  1
  Br  Br18  1  0.76613017  0.18578555  0.06428552  1
  Br  Br19  1  0.26613017  0.31421445  0.93571448  1
  Br  Br20  1  0.06428552  0.76613017  0.18578555  1
  Br  Br21  1  0.31421445  0.93571448  0.26613017  1
  Br  Br22  1  0.18578555  0.06428552  0.76613017  1
  Br  Br23  1  0.68578555  0.43571448  0.23386983  1
loop_
_geom_bond_atom_site_label_1
_geom_bond_atom_site_label_2
_geom_bond_distance
_geom_bond_site_symmetry_2
Cd0 P0 2.480694 1_565
Cd0 P14 2.513093 1_555
Cd1 P0 2.480694 1_556
Cd1 P15 2.513093 1_555
Cd2 P0 2.480694 1_655
Cd2 P13 2.513093 1_555
Cd3 P1 2.480694 1_555
Cd3 P12 2.513093 1_555
Cd4 P2 2.480694 1_554
Cd4 P13 2.513093 1_555
Cd5 P3 2.480694 1_455
Cd5 P14 2.513093 1_555
Cd6 P1 2.480694 1_555
Cd6 P14 2.513093 1_555
Cd7 P3 2.480694 1_555
Cd7 P12 2.513093 1_555
Cd8 P2 2.480694 1_555
Cd8 P15 2.513093 1_555
Cd9 P2 2.480694 1_555
Cd9 P12 2.513093 1_555
Cd10 P3 2.480694 1_555
Cd10 P13 2.513093 1_555
Cd11 P1 2.480694 1_545
Cd11 P15 2.513093 1_555
Cd12 P4 2.480694 1_545
Cd12 P10 2.513093 1_555
Cd13 P4 2.480694 1_554
Cd13 P11 2.513093 1_555
Cd14 P4 2.480694 1_455
Cd14 P9 2.513093 1_555
Cd15 P5 2.480694 1_555
Cd15 P8 2.513093 1_555
Cd16 P6 2.480694 1_556
Cd16 P9 2.513093 1_555
Cd17 P7 2.480694 1_655
Cd17 P10 2.513093 1_555
Cd18 P5 2.480694 1_555
Cd18 P10 2.513093 1_555
Cd19 P7 2.480694 1_555
Cd19 P8 2.513093 1_555
Cd20 P6 2.480694 1_555
Cd20 P11 2.513093 1_555
Cd21 P6 2.480694 1_555
Cd21 P8 2.513093 1_555
Cd22 P7 2.480694 1_555
Cd22 P9 2.513093 1_555
Cd23 P5 2.480694 1_565
Cd23 P11 2.513093 1_555
Cd24 P0 2.487046 1_555
Cd25 P1 2.487046 1_555
Cd26 P2 2.487046 1_555
Cd27 P3 2.487046 1_555
Cd28 P4 2.487046 1_555
Cd29 P5 2.487046 1_555
Cd30 P6 2.487046 1_555
Cd31 P7 2.487046 1_555
P10 P14 2.179916 1_645
P11 P15 2.179916 1_564
P12 P8 2.179916 1_555
P13 P9 2.179916 1_654
Br0 Cd24 2.759741 1_555
Br0 Cd10 2.865215 1_455
Br0 Cd19 3.020562 1_555
Br1 Cd24 2.759741 1_555
Br1 Cd6 2.865215 1_545
Br1 Cd15 3.020562 1_555
Br2 Cd24 2.759741 1_555
Br2 Cd8 2.865215 1_554
Br2 Cd21 3.020562 1_555
Br3 Cd25 2.759741 1_555
Br3 Cd5 2.865215 1_555
Br3 Cd22 3.020562 1_555
Br4 Cd26 2.759741 1_555
Br4 Cd7 2.865215 1_555
Br4 Cd17 3.020562 1_555
Br5 Cd27 2.759741 1_555
Br5 Cd3 2.865215 1_555
Br5 Cd23 3.020562 1_555
Br6 Cd25 2.759741 1_555
Br6 Cd1 2.865215 1_565
Br6 Cd14 3.020562 1_555
Br7 Cd27 2.759741 1_555
Br7 Cd4 2.865215 1_555
Br7 Cd20 3.020562 1_555
Br8 Cd26 2.759741 1_555
Br8 Cd2 2.865215 1_556
Br8 Cd12 3.020562 1_555
Br9 Cd26 2.759741 1_555
Br9 Cd11 2.865215 1_555
Br9 Cd18 3.020562 1_555
Br10 Cd27 2.759741 1_555
Br10 Cd0 2.865215 1_655
Br10 Cd13 3.020562 1_555
Br11 Cd25 2.759741 1_555
Br11 Cd9 2.865215 1_555
Br11 Cd16 3.020562 1_555
Br12 Cd28 2.759741 1_555
Br12 Cd22 2.865215 1_655
Br12 Cd7 3.020562 1_555
Br13 Cd28 2.759741 1_555
Br13 Cd18 2.865215 1_565
Br13 Cd3 3.020562 1_555
Br14 Cd28 2.759741 1_555
Br14 Cd20 2.865215 1_556
Br14 Cd9 3.020562 1_555
Br15 Cd29 2.759741 1_555
Br15 Cd17 2.865215 1_555
Br15 Cd10 3.020562 1_555
Br16 Cd30 2.759741 1_555
Br16 Cd19 2.865215 1_555
Br16 Cd5 3.020562 1_555
Br17 Cd31 2.759741 1_555
Br17 Cd15 2.865215 1_555
Br17 Cd11 3.020562 1_555
Br18 Cd29 2.759741 1_555
Br18 Cd13 2.865215 1_545
Br18 Cd2 3.020562 1_555
Br19 Cd31 2.759741 1_555
Br19 Cd16 2.865215 1_555
Br19 Cd8 3.020562 1_555
Br20 Cd30 2.759741 1_555
Br20 Cd14 2.865215 1_554
Br20 Cd0 3.020562 1_555
Br21 Cd30 2.759741 1_555
Br21 Cd23 2.865215 1_555
Br21 Cd6 3.020562 1_555
Br22 Cd31 2.759741 1_555
Br22 Cd12 2.865215 1_455
Br22 Cd1 3.020562 1_555
Br23 Cd29 2.759741 1_555
Br23 Cd21 2.865215 1_555
Br23 Cd4 3.020562 1_555
