# generated using pymatgen
data_Ca2GeN2
_symmetry_space_group_name_H-M   'P 1'
_cell_length_a   11.17964155
_cell_length_b   11.17964155
_cell_length_c   5.02958515
_cell_angle_alpha   90.00000000
_cell_angle_beta   90.00000000
_cell_angle_gamma   90.00000000
_symmetry_Int_Tables_number   1
_chemical_formula_structural   Ca2GeN2
_chemical_formula_sum   'Ca16 Ge8 N16'
_cell_volume   628.61960772
_cell_formula_units_Z   8
loop_
 _symmetry_equiv_pos_site_id
 _symmetry_equiv_pos_as_xyz
  1  'x, y, z'
loop_
 _atom_site_type_symbol
 _atom_site_label
 _atom_site_symmetry_multiplicity
 _atom_site_fract_x
 _atom_site_fract_y
 _atom_site_fract_z
 _atom_site_occupancy
  Ca  Ca0  1  0.52086625  0.84989126  0.50000000  1
  Ca  Ca1  1  0.84989126  0.47913375  -0.00000000  1
  Ca  Ca2  1  0.15010874  0.52086625  -0.00000000  1
  Ca  Ca3  1  0.65010874  0.97913375  -0.00000000  1
  Ca  Ca4  1  0.42466940  0.36726470  0.00000000  1
  Ca  Ca5  1  0.02086625  0.65010874  0.50000000  1
  Ca  Ca6  1  0.34989126  0.02086625  0.00000000  1
  Ca  Ca7  1  0.13273530  0.07533060  0.50000000  1
  Ca  Ca8  1  0.86726470  0.92466940  0.50000000  1
  Ca  Ca9  1  0.92466940  0.13273530  0.00000000  1
  Ca  Ca10  1  0.07533060  0.86726470  -0.00000000  1
  Ca  Ca11  1  0.57533060  0.63273530  -0.00000000  1
  Ca  Ca12  1  0.63273530  0.42466940  0.50000000  1
  Ca  Ca13  1  0.36726470  0.57533060  0.50000000  1
  Ca  Ca14  1  0.47913375  0.15010874  0.50000000  1
  Ca  Ca15  1  0.97913375  0.34989126  0.50000000  1
  Ge  Ge0  1  0.24543835  0.34396728  0.50000000  1
  Ge  Ge1  1  0.75456165  0.65603272  0.50000000  1
  Ge  Ge2  1  0.65603272  0.24543835  -0.00000000  1
  Ge  Ge3  1  0.84396728  0.74543835  -0.00000000  1
  Ge  Ge4  1  0.74543835  0.15603272  0.50000000  1
  Ge  Ge5  1  0.25456165  0.84396728  0.50000000  1
  Ge  Ge6  1  0.15603272  0.25456165  0.00000000  1
  Ge  Ge7  1  0.34396728  0.75456165  0.00000000  1
  N  N0  1  0.16353984  0.49054912  0.50000000  1
  N  N1  1  0.63597330  0.41028493  0.00000000  1
  N  N2  1  0.36402670  0.58971507  -0.00000000  1
  N  N3  1  0.86402670  0.91028493  0.00000000  1
  N  N4  1  0.91028493  0.13597330  0.50000000  1
  N  N5  1  0.08971507  0.86402670  0.50000000  1
  N  N6  1  0.13597330  0.08971507  -0.00000000  1
  N  N7  1  0.00945088  0.33646016  -0.00000000  1
  N  N8  1  0.33646016  0.99054912  0.50000000  1
  N  N9  1  0.66353984  0.00945088  0.50000000  1
  N  N10  1  0.41028493  0.36402670  0.50000000  1
  N  N11  1  0.99054912  0.66353984  -0.00000000  1
  N  N12  1  0.49054912  0.83646016  0.00000000  1
  N  N13  1  0.50945088  0.16353984  -0.00000000  1
  N  N14  1  0.83646016  0.50945088  0.50000000  1
  N  N15  1  0.58971507  0.63597330  0.50000000  1
loop_
_geom_bond_atom_site_label_1
_geom_bond_atom_site_label_2
_geom_bond_distance
_geom_bond_site_symmetry_2
Ca0 N9 2.392940 1_565
Ca0 N15 2.512338 1_555
Ca0 N12 2.541969 1_556
Ca0 N12 2.541969 1_555
Ca0 N8 2.592863 1_555
Ca1 N7 2.392940 1_655
Ca1 N1 2.512338 1_555
Ca1 N14 2.541969 1_555
Ca1 N14 2.541969 1_554
Ca1 N11 2.592863 1_555
Ca2 N11 2.392940 1_455
Ca2 N2 2.512338 1_555
Ca2 N0 2.541969 1_554
Ca2 N0 2.541969 1_555
Ca2 N7 2.592863 1_555
Ca3 N12 2.392940 1_555
Ca3 N3 2.512338 1_555
Ca3 N9 2.541969 1_565
Ca3 N9 2.541969 1_564
Ca3 N13 2.592863 1_565
Ca4 N1 2.410764 1_555
Ca4 N13 2.466922 1_555
Ca4 N10 2.520189 1_554
Ca4 N10 2.520189 1_555
Ca4 N2 2.577670 1_555
Ca5 N0 2.392940 1_555
Ca5 N5 2.512338 1_555
Ca5 N11 2.541969 1_455
Ca5 N11 2.541969 1_456
Ca5 N14 2.592863 1_455
Ca6 N13 2.392940 1_555
Ca6 N6 2.512338 1_555
Ca6 N8 2.541969 1_544
Ca6 N8 2.541969 1_545
Ca6 N12 2.592863 1_545
Ca7 N5 2.410764 1_545
Ca7 N8 2.466922 1_545
Ca7 N6 2.520189 1_555
Ca7 N6 2.520189 1_556
Ca7 N4 2.577670 1_455
Ca8 N4 2.410764 1_565
Ca8 N9 2.466922 1_565
Ca8 N3 2.520189 1_556
Ca8 N3 2.520189 1_555
Ca8 N5 2.577670 1_655
Ca9 N6 2.410764 1_655
Ca9 N7 2.466922 1_655
Ca9 N4 2.520189 1_554
Ca9 N4 2.520189 1_555
Ca9 N3 2.577670 1_545
Ca10 N3 2.410764 1_455
Ca10 N11 2.466922 1_455
Ca10 N5 2.520189 1_555
Ca10 N5 2.520189 1_554
Ca10 N6 2.577670 1_565
Ca11 N2 2.410764 1_555
Ca11 N12 2.466922 1_555
Ca11 N15 2.520189 1_555
Ca11 N15 2.520189 1_554
Ca11 N1 2.577670 1_555
Ca12 N15 2.410764 1_555
Ca12 N14 2.466922 1_555
Ca12 N1 2.520189 1_556
Ca12 N1 2.520189 1_555
Ca12 N10 2.577670 1_555
Ca13 N10 2.410764 1_555
Ca13 N0 2.466922 1_555
Ca13 N2 2.520189 1_556
Ca13 N2 2.520189 1_555
Ca13 N15 2.577670 1_555
Ca14 N8 2.392940 1_545
Ca14 N10 2.512338 1_555
Ca14 N13 2.541969 1_556
Ca14 N13 2.541969 1_555
Ca14 N9 2.592863 1_555
Ca15 N14 2.392940 1_555
Ca15 N4 2.512338 1_555
Ca15 N7 2.541969 1_655
Ca15 N7 2.541969 1_656
Ca15 N0 2.592863 1_655
Ge0 N10 1.856520 1_555
Ge0 N0 1.877168 1_555
Ge1 N15 1.856520 1_555
Ge1 N14 1.877168 1_555
Ge2 N1 1.856520 1_555
Ge2 N13 1.877168 1_555
Ge3 N3 1.856520 1_555
Ge3 N11 1.877168 1_555
Ge4 N4 1.856520 1_555
Ge4 N9 1.877168 1_555
Ge5 N5 1.856520 1_555
Ge5 N8 1.877168 1_555
Ge6 N6 1.856520 1_555
Ge6 N7 1.877168 1_555
Ge7 N2 1.856520 1_555
Ge7 N12 1.877168 1_555
