# generated using pymatgen
data_Na4Ga2Si2SO12
_symmetry_space_group_name_H-M   'P 1'
_cell_length_a   8.90639420
_cell_length_b   8.90639390
_cell_length_c   21.92351083
_cell_angle_alpha   90.20134465
_cell_angle_beta   89.79865535
_cell_angle_gamma   119.66434144
_symmetry_Int_Tables_number   1
_chemical_formula_structural   Na4Ga2Si2SO12
_chemical_formula_sum   'Na24 Ga12 Si12 S6 O72'
_cell_volume   1511.12352499
_cell_formula_units_Z   6
loop_
 _symmetry_equiv_pos_site_id
 _symmetry_equiv_pos_as_xyz
  1  'x, y, z'
loop_
 _atom_site_type_symbol
 _atom_site_label
 _atom_site_symmetry_multiplicity
 _atom_site_fract_x
 _atom_site_fract_y
 _atom_site_fract_z
 _atom_site_occupancy
  Na  Na0  1  0.64092435  0.99930455  0.25246748  1
  Na  Na1  1  0.36672285  0.37329080  0.24581771  1
  Na  Na2  1  0.99442041  0.62521179  0.25212151  1
  Na  Na3  1  0.62670920  0.63327715  0.74581771  1
  Na  Na4  1  0.00069545  0.35907565  0.75246748  1
  Na  Na5  1  0.37478821  0.00557959  0.75212151  1
  Na  Na6  1  0.30759135  0.33263755  0.58580048  1
  Na  Na7  1  0.03338985  0.70662380  0.57915071  1
  Na  Na8  1  0.66108741  0.95854479  0.58545451  1
  Na  Na9  1  0.29337620  0.96661015  0.07915071  1
  Na  Na10  1  0.66736245  0.69240865  0.08580048  1
  Na  Na11  1  0.04145521  0.33891259  0.08545451  1
  Na  Na12  1  0.97425735  0.66597155  0.91913448  1
  Na  Na13  1  0.70005585  0.03995780  0.91248471  1
  Na  Na14  1  0.32775341  0.29187879  0.91878851  1
  Na  Na15  1  0.96004220  0.29994415  0.41248471  1
  Na  Na16  1  0.33402845  0.02574265  0.41913448  1
  Na  Na17  1  0.70812121  0.67224659  0.41878851  1
  Na  Na18  1  0.99511905  0.98763837  0.50007352  1
  Na  Na19  1  0.01236163  0.00488095  0.00007352  1
  Na  Na20  1  0.66178605  0.32097137  0.83340652  1
  Na  Na21  1  0.67902863  0.33821395  0.33340652  1
  Na  Na22  1  0.32845205  0.65430537  0.16674052  1
  Na  Na23  1  0.34569463  0.67154795  0.66674052  1
  Ga  Ga0  1  0.96971743  0.98199398  0.35105110  1
  Ga  Ga1  1  0.01800602  0.03028257  0.85105110  1
  Ga  Ga2  1  0.99712169  0.99816092  0.64949371  1
  Ga  Ga3  1  0.00183908  0.00287831  0.14949371  1
  Ga  Ga4  1  0.63638443  0.31532698  0.68438410  1
  Ga  Ga5  1  0.68467302  0.36361557  0.18438410  1
  Ga  Ga6  1  0.66378869  0.33149392  0.98282671  1
  Ga  Ga7  1  0.66850608  0.33621131  0.48282671  1
  Ga  Ga8  1  0.30305043  0.64866098  0.01771810  1
  Ga  Ga9  1  0.35133902  0.69694957  0.51771810  1
  Ga  Ga10  1  0.33045469  0.66482792  0.31616071  1
  Ga  Ga11  1  0.33517208  0.66954531  0.81616071  1
  Si  Si0  1  0.70447099  0.70809015  0.24910199  1
  Si  Si1  1  0.99908939  0.29032028  0.24995103  1
  Si  Si2  1  0.29190985  0.29552901  0.74910199  1
  Si  Si3  1  0.70967972  0.00091061  0.74995103  1
  Si  Si4  1  0.37113799  0.04142315  0.58243499  1
  Si  Si5  1  0.66575639  0.62365328  0.58328403  1
  Si  Si6  1  0.95857685  0.62886201  0.08243499  1
  Si  Si7  1  0.37634672  0.33424361  0.08328403  1
  Si  Si8  1  0.03780399  0.37475715  0.91576899  1
  Si  Si9  1  0.33242239  0.95698728  0.91661803  1
  Si  Si10  1  0.62524285  0.96219601  0.41576899  1
  Si  Si11  1  0.04301272  0.66757761  0.41661803  1
  S  S0  1  0.29173922  0.00145105  0.25045576  1
  S  S1  1  0.99854895  0.70826078  0.75045576  1
  S  S2  1  0.95840622  0.33478405  0.58378876  1
  S  S3  1  0.66521595  0.04159378  0.08378876  1
  S  S4  1  0.62507222  0.66811805  0.91712276  1
  S  S5  1  0.33188195  0.37492778  0.41712276  1
  O  O0  1  0.21506039  0.03409773  0.30510454  1
  O  O1  1  0.82999855  0.78207414  0.30869134  1
  O  O2  1  0.96890003  0.17107689  0.31082180  1
  O  O3  1  0.21792586  0.17000145  0.80869134  1
  O  O4  1  0.96590227  0.78493961  0.80510454  1
  O  O5  1  0.82892311  0.03109997  0.81082180  1
  O  O6  1  0.79262306  0.95955214  0.68975094  1
  O  O7  1  0.16810761  0.20945242  0.68940306  1
  O  O8  1  0.03204873  0.81720564  0.69509512  1
  O  O9  1  0.79054758  0.83189239  0.18940306  1
  O  O10  1  0.04044786  0.20737694  0.18975094  1
  O  O11  1  0.18279436  0.96795127  0.19509512  1
  O  O12  1  0.88172739  0.36743073  0.63843754  1
  O  O13  1  0.49666555  0.11540714  0.64202434  1
  O  O14  1  0.63556703  0.50440989  0.64415480  1
  O  O15  1  0.88459286  0.50333445  0.14202434  1
  O  O16  1  0.63256927  0.11827261  0.13843754  1
  O  O17  1  0.49559011  0.36443297  0.14415480  1
  O  O18  1  0.45929006  0.29288514  0.02308394  1
  O  O19  1  0.83477461  0.54278542  0.02273606  1
  O  O20  1  0.69871573  0.15053864  0.02842812  1
  O  O21  1  0.45721458  0.16522539  0.52273606  1
  O  O22  1  0.70711486  0.54070994  0.52308394  1
  O  O23  1  0.84946136  0.30128427  0.52842812  1
  O  O24  1  0.54839339  0.70076473  0.97177154  1
  O  O25  1  0.16333155  0.44874114  0.97535834  1
  O  O26  1  0.30223303  0.83774389  0.97748880  1
  O  O27  1  0.55125886  0.83666845  0.47535834  1
  O  O28  1  0.29923527  0.45160661  0.47177154  1
  O  O29  1  0.16225611  0.69776697  0.47748880  1
  O  O30  1  0.12595606  0.62621914  0.35641794  1
  O  O31  1  0.50144061  0.87611942  0.35607006  1
  O  O32  1  0.36538173  0.48387264  0.36176212  1
  O  O33  1  0.12388058  0.49855939  0.85607006  1
  O  O34  1  0.37378086  0.87404394  0.85641794  1
  O  O35  1  0.51612736  0.63461827  0.86176212  1
  O  O36  1  0.03305596  0.84849876  0.41029288  1
  O  O37  1  0.82080218  0.98513137  0.41319849  1
  O  O38  1  0.17918893  0.20018621  0.41068611  1
  O  O39  1  0.01486863  0.17919782  0.91319849  1
  O  O40  1  0.15150124  0.96694404  0.91029288  1
  O  O41  1  0.79981379  0.82081107  0.91068611  1
  O  O42  1  0.97477765  0.17585800  0.58748020  1
  O  O43  1  0.17881628  0.02413247  0.59004624  1
  O  O44  1  0.83821201  0.81818911  0.58889547  1
  O  O45  1  0.97586753  0.82118372  0.09004624  1
  O  O46  1  0.82414200  0.02522235  0.08748020  1
  O  O47  1  0.18181089  0.16178799  0.08889547  1
  O  O48  1  0.69972296  0.18183176  0.74362588  1
  O  O49  1  0.48746918  0.31846437  0.74653149  1
  O  O50  1  0.84585593  0.53351921  0.74401911  1
  O  O51  1  0.68153563  0.51253082  0.24653149  1
  O  O52  1  0.81816824  0.30027704  0.24362588  1
  O  O53  1  0.46648079  0.15414407  0.24401911  1
  O  O54  1  0.64144465  0.50919100  0.92081320  1
  O  O55  1  0.84548328  0.35746547  0.92337924  1
  O  O56  1  0.50487901  0.15152211  0.92222847  1
  O  O57  1  0.64253453  0.15451672  0.42337924  1
  O  O58  1  0.49080900  0.35855535  0.42081320  1
  O  O59  1  0.84847789  0.49512099  0.42222847  1
  O  O60  1  0.36638896  0.51516576  0.07695988  1
  O  O61  1  0.15413518  0.65179837  0.07986549  1
  O  O62  1  0.51252193  0.86685321  0.07735311  1
  O  O63  1  0.34820163  0.84586482  0.57986549  1
  O  O64  1  0.48483424  0.63361104  0.57695988  1
  O  O65  1  0.13314679  0.48747807  0.57735311  1
  O  O66  1  0.30811065  0.84252500  0.25414720  1
  O  O67  1  0.51214928  0.69079947  0.25671324  1
  O  O68  1  0.17154501  0.48485611  0.25556247  1
  O  O69  1  0.30920053  0.48785072  0.75671324  1
  O  O70  1  0.15747500  0.69188935  0.75414720  1
  O  O71  1  0.51514389  0.82845499  0.75556247  1
loop_
_geom_bond_atom_site_label_1
_geom_bond_atom_site_label_2
_geom_bond_distance
_geom_bond_site_symmetry_2
Na0 O52 2.351172 1_565
Na0 O67 2.399060 1_555
Na0 O53 2.544528 1_565
Na0 O31 2.560181 1_555
Na0 O66 2.576839 1_555
Na0 O16 2.734208 1_565
Na0 O9 2.801771 1_555
Na0 O2 2.845867 1_565
Na1 O68 2.400081 1_555
Na1 O51 2.440923 1_555
Na1 O67 2.470503 1_555
Na1 O53 2.513214 1_555
Na1 O17 2.522208 1_555
Na1 O32 2.724936 1_555
Na1 O10 2.810839 1_555
Na1 O0 2.935376 1_555
Na2 O68 2.451625 1_655
Na2 O51 2.453785 1_555
Na2 O66 2.490268 1_655
Na2 O52 2.524999 1_555
Na2 O30 2.570812 1_655
Na2 O15 2.628365 1_555
Na2 O1 2.763075 1_555
Na2 O11 2.939178 1_655
Na3 O71 2.400081 1_555
Na3 O49 2.440923 1_555
Na3 O69 2.470503 1_555
Na3 O50 2.513214 1_555
Na3 O14 2.522208 1_555
Na3 O35 2.724936 1_555
Na3 O6 2.810839 1_555
Na3 O4 2.935377 1_555
Na4 O48 2.351172 1_455
Na4 O69 2.399060 1_555
Na4 O50 2.544528 1_455
Na4 O33 2.560181 1_555
Na4 O70 2.576839 1_555
Na4 O12 2.734208 1_455
Na4 O7 2.801771 1_555
Na4 O5 2.845867 1_455
Na5 O71 2.451625 1_545
Na5 O49 2.453785 1_555
Na5 O70 2.490268 1_545
Na5 O48 2.524999 1_555
Na5 O34 2.570812 1_545
Na5 O13 2.628365 1_555
Na5 O3 2.763075 1_555
Na5 O8 2.939178 1_545
Na6 O64 2.351176 1_555
Na6 O43 2.399060 1_555
Na6 O65 2.544542 1_555
Na6 O7 2.560181 1_555
Na6 O42 2.576839 1_455
Na6 O28 2.734193 1_555
Na6 O21 2.801771 1_555
Na6 O14 2.845867 1_555
Na7 O44 2.400081 1_455
Na7 O63 2.440914 1_555
Na7 O43 2.470503 1_565
Na7 O65 2.513199 1_555
Na7 O29 2.522182 1_555
Na7 O8 2.724936 1_555
Na7 O22 2.810839 1_455
Na7 O12 2.935376 1_455
Na8 O44 2.451625 1_555
Na8 O63 2.453793 1_555
Na8 O42 2.490268 1_565
Na8 O64 2.524990 1_555
Na8 O6 2.570812 1_555
Na8 O27 2.628345 1_555
Na8 O13 2.763075 1_565
Na8 O23 2.939178 1_565
Na9 O47 2.400081 1_565
Na9 O61 2.440914 1_555
Na9 O45 2.470503 1_455
Na9 O62 2.513199 1_555
Na9 O26 2.522182 1_554
Na9 O11 2.724936 1_555
Na9 O18 2.810839 1_565
Na9 O16 2.935377 1_565
Na10 O60 2.351176 1_555
Na10 O45 2.399060 1_555
Na10 O62 2.544542 1_555
Na10 O9 2.560181 1_555
Na10 O46 2.576839 1_565
Na10 O24 2.734193 1_554
Na10 O19 2.801771 1_555
Na10 O17 2.845867 1_555
Na11 O47 2.451625 1_555
Na11 O61 2.453793 1_555
Na11 O46 2.490268 1_455
Na11 O60 2.524990 1_555
Na11 O10 2.570812 1_555
Na11 O25 2.628345 1_554
Na11 O15 2.763075 1_455
Na11 O20 2.939178 1_455
Na12 O40 2.351172 1_655
Na12 O55 2.399068 1_555
Na12 O41 2.544528 1_555
Na12 O19 2.560161 1_556
Na12 O54 2.576831 1_555
Na12 O4 2.734208 1_555
Na12 O33 2.801771 1_655
Na12 O26 2.845867 1_655
Na13 O56 2.400064 1_555
Na13 O39 2.440923 1_655
Na13 O55 2.470493 1_555
Na13 O41 2.513214 1_545
Na13 O5 2.522208 1_555
Na13 O20 2.724911 1_556
Na13 O34 2.810839 1_545
Na13 O24 2.935376 1_545
Na14 O56 2.451640 1_555
Na14 O39 2.453785 1_555
Na14 O54 2.490272 1_555
Na14 O40 2.524999 1_545
Na14 O18 2.570798 1_556
Na14 O3 2.628365 1_555
Na14 O25 2.763075 1_555
Na14 O35 2.939178 1_555
Na15 O59 2.400064 1_555
Na15 O37 2.440923 1_545
Na15 O57 2.470493 1_555
Na15 O38 2.513214 1_655
Na15 O2 2.522208 1_555
Na15 O23 2.724911 1_555
Na15 O30 2.810839 1_655
Na15 O28 2.935377 1_655
Na16 O36 2.351172 1_545
Na16 O57 2.399068 1_555
Na16 O38 2.544528 1_555
Na16 O21 2.560161 1_555
Na16 O58 2.576831 1_555
Na16 O0 2.734208 1_555
Na16 O31 2.801771 1_545
Na16 O29 2.845867 1_545
Na17 O59 2.451640 1_555
Na17 O37 2.453785 1_555
Na17 O58 2.490272 1_555
Na17 O36 2.524999 1_655
Na17 O22 2.570798 1_555
Na17 O1 2.628365 1_555
Na17 O27 2.763075 1_555
Na17 O32 2.939178 1_555
Na18 O36 2.432433 1_655
Na18 O44 2.436478 1_555
Na18 O37 2.454497 1_555
Na18 O43 2.482949 1_665
Na18 O42 2.605889 1_565
Na18 O38 2.653898 1_665
Na19 O40 2.432433 1_544
Na19 O47 2.436478 1_555
Na19 O39 2.454497 1_554
Na19 O45 2.482949 1_445
Na19 O46 2.605889 1_455
Na19 O41 2.653898 1_444
Na20 O48 2.432433 1_555
Na20 O56 2.436478 1_555
Na20 O49 2.454497 1_555
Na20 O55 2.482949 1_555
Na20 O54 2.605889 1_555
Na20 O50 2.653898 1_555
Na21 O52 2.432433 1_555
Na21 O59 2.436478 1_555
Na21 O51 2.454497 1_555
Na21 O57 2.482949 1_555
Na21 O58 2.605889 1_555
Na21 O53 2.653898 1_555
Na22 O60 2.432433 1_555
Na22 O68 2.436478 1_555
Na22 O61 2.454497 1_555
Na22 O67 2.482949 1_555
Na22 O66 2.605889 1_555
Na22 O62 2.653898 1_555
Na23 O64 2.432433 1_555
Na23 O71 2.436478 1_555
Na23 O63 2.454497 1_555
Na23 O69 2.482949 1_555
Na23 O70 2.605889 1_555
Na23 O65 2.653898 1_555
Ga0 O1 1.839744 1_555
Ga0 O2 1.906975 1_565
Ga0 O37 1.907862 1_555
Ga0 O36 2.024502 1_655
Ga0 O0 2.233580 1_665
Ga0 O38 2.318833 1_665
Ga1 O3 1.839744 1_555
Ga1 O5 1.906975 1_455
Ga1 O39 1.907862 1_555
Ga1 O40 2.024502 1_545
Ga1 O4 2.233580 1_445
Ga1 O41 2.318833 1_445
Ga2 O6 1.893513 1_555
Ga2 O7 1.946055 1_665
Ga2 O43 1.996893 1_665
Ga2 O44 2.022395 1_555
Ga2 O8 2.050233 1_655
Ga2 O42 2.172905 1_565
Ga3 O10 1.893513 1_555
Ga3 O9 1.946055 1_445
Ga3 O45 1.996893 1_445
Ga3 O47 2.022395 1_555
Ga3 O11 2.050234 1_545
Ga3 O46 2.172905 1_455
Ga4 O13 1.839744 1_555
Ga4 O14 1.906975 1_555
Ga4 O49 1.907862 1_555
Ga4 O48 2.024502 1_555
Ga4 O12 2.233580 1_555
Ga4 O50 2.318833 1_555
Ga5 O15 1.839744 1_555
Ga5 O17 1.906975 1_555
Ga5 O51 1.907862 1_555
Ga5 O52 2.024502 1_555
Ga5 O16 2.233580 1_555
Ga5 O53 2.318833 1_555
Ga6 O18 1.893513 1_556
Ga6 O19 1.946055 1_556
Ga6 O55 1.996893 1_555
Ga6 O56 2.022395 1_555
Ga6 O20 2.050233 1_556
Ga6 O54 2.172905 1_555
Ga7 O22 1.893513 1_555
Ga7 O21 1.946055 1_555
Ga7 O57 1.996893 1_555
Ga7 O59 2.022395 1_555
Ga7 O23 2.050234 1_555
Ga7 O58 2.172905 1_555
Ga8 O25 1.839744 1_554
Ga8 O26 1.906975 1_554
Ga8 O61 1.907862 1_555
Ga8 O60 2.024502 1_555
Ga8 O24 2.233580 1_554
Ga8 O62 2.318833 1_555
Ga9 O27 1.839744 1_555
Ga9 O29 1.906975 1_555
Ga9 O63 1.907862 1_555
Ga9 O64 2.024502 1_555
Ga9 O28 2.233580 1_555
Ga9 O65 2.318833 1_555
Ga10 O30 1.893513 1_555
Ga10 O31 1.946055 1_555
Ga10 O67 1.996893 1_555
Ga10 O68 2.022395 1_555
Ga10 O32 2.050233 1_555
Ga10 O66 2.172905 1_555
Ga11 O34 1.893513 1_555
Ga11 O33 1.946055 1_555
Ga11 O69 1.996893 1_555
Ga11 O71 2.022395 1_555
Ga11 O35 2.050234 1_555
Ga11 O70 2.172905 1_555
O0 S0 1.474694 1_555
O1 Si0 1.632737 1_555
O2 Si1 1.644955 1_555
O3 Si2 1.632737 1_555
O4 S1 1.474694 1_555
O5 Si3 1.644955 1_555
O6 Si3 1.637787 1_565
O7 Si2 1.637948 1_555
O8 S1 1.490890 1_455
O9 Si0 1.637948 1_555
O10 Si1 1.637787 1_455
O11 S0 1.490890 1_565
O12 S2 1.474694 1_555
O13 Si4 1.632737 1_555
O14 Si5 1.644955 1_555
O15 Si6 1.632737 1_555
O16 S3 1.474694 1_555
O17 Si7 1.644955 1_555
O18 Si7 1.637787 1_555
O19 Si6 1.637948 1_555
O20 S3 1.490890 1_555
O21 Si4 1.637948 1_555
O22 Si5 1.637787 1_555
O23 S2 1.490890 1_555
O24 S4 1.474694 1_555
O25 Si8 1.632737 1_555
O26 Si9 1.644955 1_555
O27 Si10 1.632737 1_555
O28 S5 1.474694 1_555
O29 Si11 1.644955 1_555
O30 Si11 1.637787 1_555
O31 Si10 1.637948 1_555
O32 S5 1.490890 1_555
O33 Si8 1.637948 1_555
O34 Si9 1.637787 1_555
O35 S4 1.490890 1_555
O36 Si11 1.663327 1_555
O37 Si10 1.650982 1_555
O38 S5 1.481991 1_555
O39 Si8 1.650982 1_555
O40 Si9 1.663327 1_555
O41 S4 1.481991 1_555
O42 S2 1.495497 1_555
O43 Si4 1.650040 1_555
O44 Si5 1.655870 1_555
O45 Si6 1.650040 1_555
O46 S3 1.495497 1_555
O47 Si7 1.655870 1_555
O48 Si3 1.663327 1_555
O49 Si2 1.650982 1_555
O50 S1 1.481991 1_555
O51 Si0 1.650982 1_555
O52 Si1 1.663327 1_555
O53 S0 1.481991 1_555
O54 S4 1.495509 1_555
O55 Si8 1.650026 1_655
O56 Si9 1.655867 1_545
O57 Si10 1.650026 1_545
O58 S5 1.495509 1_555
O59 Si11 1.655867 1_655
O60 Si7 1.663338 1_555
O61 Si6 1.650969 1_455
O62 S3 1.481987 1_565
O63 Si4 1.650969 1_565
O64 Si5 1.663338 1_555
O65 S2 1.481987 1_455
O66 S0 1.495497 1_565
O67 Si0 1.650040 1_555
O68 Si1 1.655870 1_455
O69 Si2 1.650040 1_555
O70 S1 1.495497 1_455
O71 Si3 1.655870 1_565
