# generated using pymatgen
data_Na3Mg3ZrPS5O24
_symmetry_space_group_name_H-M   'P 1'
_cell_length_a   8.82179000
_cell_length_b   8.80060550
_cell_length_c   22.90572006
_cell_angle_alpha   90.10135045
_cell_angle_beta   89.99335668
_cell_angle_gamma   120.25810762
_symmetry_Int_Tables_number   1
_chemical_formula_structural   Na3Mg3ZrPS5O24
_chemical_formula_sum   'Na9 Mg9 Zr3 P3 S15 O72'
_cell_volume   1536.05783628
_cell_formula_units_Z   3
loop_
 _symmetry_equiv_pos_site_id
 _symmetry_equiv_pos_as_xyz
  1  'x, y, z'
loop_
 _atom_site_type_symbol
 _atom_site_label
 _atom_site_symmetry_multiplicity
 _atom_site_fract_x
 _atom_site_fract_y
 _atom_site_fract_z
 _atom_site_occupancy
  Na  Na0  1  0.36288481  0.36325539  0.25099073  1
  Na  Na1  1  0.02568887  0.69778012  0.58546703  1
  Na  Na2  1  0.30035289  0.96647127  0.08035789  1
  Na  Na3  1  0.99073851  0.00199563  0.50067680  1
  Na  Na4  1  0.99877352  0.00792738  0.99225021  1
  Na  Na5  1  0.66594621  0.32780465  0.82725612  1
  Na  Na6  1  0.67767519  0.33111811  0.33067433  1
  Na  Na7  1  0.33270849  0.66593919  0.16768924  1
  Na  Na8  1  0.35251585  0.66400383  0.66345221  1
  Mg  Mg0  1  0.99498331  0.99679230  0.35065893  1
  Mg  Mg1  1  0.00704678  0.00752460  0.85204689  1
  Mg  Mg2  1  0.99204118  0.00057628  0.65000883  1
  Mg  Mg3  1  0.99074290  0.99791364  0.15162705  1
  Mg  Mg4  1  0.66101800  0.33645991  0.68517176  1
  Mg  Mg5  1  0.67675047  0.33577636  0.18507200  1
  Mg  Mg6  1  0.32851893  0.66034061  0.01392603  1
  Mg  Mg7  1  0.34807518  0.66675180  0.51765485  1
  Mg  Mg8  1  0.33383638  0.67505719  0.31657477  1
  Zr  Zr0  1  0.67118770  0.33079794  0.97677770  1
  Zr  Zr1  1  0.66634771  0.33926186  0.48177710  1
  Zr  Zr2  1  0.32706330  0.66835359  0.81417631  1
  P  P0  1  0.66485641  0.63097769  0.58692324  1
  P  P1  1  0.04649482  0.36835544  0.91843897  1
  P  P2  1  0.32193172  0.95399356  0.92008411  1
  S  S0  1  0.29220301  0.99853771  0.24888992  1
  S  S1  1  0.70614861  0.70641881  0.25017502  1
  S  S2  1  0.99953848  0.29232831  0.25052296  1
  S  S3  1  0.29196901  0.28653765  0.74920769  1
  S  S4  1  0.99365976  0.70804013  0.74882221  1
  S  S5  1  0.71317495  0.00597442  0.74974365  1
  S  S6  1  0.96130491  0.33288258  0.58489407  1
  S  S7  1  0.37174924  0.03787801  0.58541101  1
  S  S8  1  0.96192659  0.62905111  0.08570115  1
  S  S9  1  0.66772728  0.03788017  0.08541438  1
  S  S10  1  0.37263414  0.33605110  0.08625360  1
  S  S11  1  0.62805538  0.67361318  0.91775084  1
  S  S12  1  0.62639333  0.95515246  0.41583353  1
  S  S13  1  0.32622830  0.37226290  0.41468148  1
  S  S14  1  0.04782917  0.67303293  0.41691230  1
  O  O0  1  0.20813653  0.02911093  0.30006056  1
  O  O1  1  0.81269202  0.78769218  0.30255917  1
  O  O2  1  0.97455144  0.18535048  0.30293626  1
  O  O3  1  0.20975648  0.18531196  0.80216945  1
  O  O4  1  0.97600048  0.79343588  0.80090169  1
  O  O5  1  0.81449753  0.02497975  0.80266985  1
  O  O6  1  0.78887694  0.97605338  0.69679519  1
  O  O7  1  0.18543376  0.20906756  0.69635683  1
  O  O8  1  0.02374779  0.81085476  0.69461671  1
  O  O9  1  0.78603222  0.81124551  0.19737483  1
  O  O10  1  0.03088420  0.21275851  0.19791651  1
  O  O11  1  0.18998048  0.97434106  0.19448630  1
  O  O12  1  0.87750015  0.36129070  0.63563976  1
  O  O13  1  0.48215073  0.12002668  0.63594226  1
  O  O14  1  0.64285792  0.51456756  0.63856585  1
  O  O15  1  0.87585384  0.51977154  0.13690081  1
  O  O16  1  0.63723938  0.12267434  0.13606641  1
  O  O17  1  0.47752532  0.35794257  0.13939943  1
  O  O18  1  0.45951736  0.30660906  0.03414828  1
  O  O19  1  0.85392788  0.54500126  0.03228361  1
  O  O20  1  0.69216730  0.14747054  0.03180183  1
  O  O21  1  0.45710744  0.14629703  0.53109894  1
  O  O22  1  0.69439606  0.53792369  0.53033142  1
  O  O23  1  0.85009830  0.30505118  0.53069188  1
  O  O24  1  0.54636268  0.69478313  0.97035038  1
  O  O25  1  0.15281194  0.45419305  0.97267950  1
  O  O26  1  0.30843946  0.85605586  0.97655219  1
  O  O27  1  0.54421269  0.85333748  0.46873298  1
  O  O28  1  0.30703651  0.45701024  0.46689624  1
  O  O29  1  0.14437358  0.69086729  0.47140760  1
  O  O30  1  0.12773907  0.64381466  0.36517124  1
  O  O31  1  0.51982589  0.87812295  0.36321219  1
  O  O32  1  0.35753527  0.47661680  0.36091064  1
  O  O33  1  0.13041236  0.48589699  0.86297172  1
  O  O34  1  0.35919568  0.86938864  0.86557577  1
  O  O35  1  0.51750774  0.64018420  0.86470955  1
  O  O36  1  0.02325586  0.82614145  0.41035437  1
  O  O37  1  0.80379762  0.97828950  0.40994087  1
  O  O38  1  0.17238314  0.19372970  0.40918570  1
  O  O39  1  0.01516990  0.18442753  0.90990949  1
  O  O40  1  0.16325979  0.97393106  0.91056482  1
  O  O41  1  0.80295499  0.82552025  0.90980319  1
  O  O42  1  0.98130809  0.17780214  0.58936979  1
  O  O43  1  0.19618394  0.02144556  0.58948468  1
  O  O44  1  0.83947698  0.81035052  0.58856304  1
  O  O45  1  0.98291760  0.80756350  0.09045631  1
  O  O46  1  0.82524991  0.02254531  0.09074714  1
  O  O47  1  0.19801063  0.17143600  0.09047332  1
  O  O48  1  0.68897527  0.15983361  0.74347496  1
  O  O49  1  0.46920332  0.30874823  0.74407827  1
  O  O50  1  0.84129911  0.52823871  0.74397763  1
  O  O51  1  0.68141516  0.52475346  0.24414923  1
  O  O52  1  0.84382370  0.31257643  0.24348089  1
  O  O53  1  0.46934225  0.16271498  0.24336858  1
  O  O54  1  0.64240436  0.51028136  0.92341552  1
  O  O55  1  0.86213504  0.35942655  0.92277725  1
  O  O56  1  0.49396395  0.14210743  0.92372829  1
  O  O57  1  0.64580033  0.13642501  0.42225962  1
  O  O58  1  0.48874113  0.35356583  0.42151566  1
  O  O59  1  0.86560439  0.50783402  0.42147290  1
  O  O60  1  0.35596279  0.49258125  0.07840226  1
  O  O61  1  0.13969449  0.65054652  0.07975941  1
  O  O62  1  0.50621955  0.86343583  0.07795979  1
  O  O63  1  0.34555755  0.85862699  0.57664962  1
  O  O64  1  0.50348050  0.64845611  0.57723094  1
  O  O65  1  0.13286413  0.49690297  0.57579229  1
  O  O66  1  0.31242928  0.84277285  0.25605818  1
  O  O67  1  0.52502781  0.68138794  0.25601907  1
  O  O68  1  0.16282464  0.46968399  0.25663988  1
  O  O69  1  0.31373046  0.46924114  0.75514762  1
  O  O70  1  0.15737353  0.69050582  0.75422609  1
  O  O71  1  0.53168711  0.84216722  0.75539859  1
loop_
_geom_bond_atom_site_label_1
_geom_bond_atom_site_label_2
_geom_bond_distance
_geom_bond_site_symmetry_2
Na0 O68 2.382083 1_555
Na0 O53 2.386740 1_555
Na0 O67 2.420925 1_555
Na0 O51 2.432385 1_555
Na0 O32 2.715761 1_555
Na0 O17 2.757745 1_555
Na0 O0 2.782107 1_555
Na0 O10 2.809982 1_555
Na1 O44 2.307565 1_455
Na1 O65 2.398195 1_555
Na1 O63 2.445924 1_555
Na1 O43 2.462889 1_565
Na1 O8 2.692525 1_555
Na1 O12 2.812358 1_455
Na1 O22 2.822524 1_455
Na1 O29 2.826425 1_555
Na2 O47 2.400474 1_565
Na2 O61 2.401616 1_555
Na2 O62 2.404778 1_555
Na2 O45 2.430112 1_455
Na2 O26 2.581598 1_554
Na2 O18 2.797758 1_565
Na2 O11 2.802426 1_555
Na2 O16 2.868421 1_565
Na3 O44 2.533977 1_545
Na3 O42 2.578105 1_555
Na3 O37 2.595261 1_545
Na3 O38 2.663383 1_655
Na3 O43 2.671902 1_655
Na3 O36 2.682112 1_645
Na4 O39 2.403088 1_655
Na4 O40 2.476063 1_645
Na4 O41 2.514540 1_545
Na4 O46 2.765264 1_556
Na4 O47 2.768103 1_656
Na4 O45 2.820360 1_546
Na5 O48 2.490349 1_555
Na5 O49 2.525229 1_555
Na5 O50 2.530711 1_555
Na5 O56 2.714573 1_555
Na5 O55 2.715414 1_555
Na5 O54 2.792312 1_555
Na6 O52 2.530437 1_555
Na6 O51 2.605446 1_555
Na6 O53 2.611277 1_555
Na6 O59 2.623687 1_555
Na6 O57 2.634914 1_555
Na6 O58 2.734280 1_555
Na7 O61 2.596458 1_555
Na7 O67 2.599591 1_555
Na7 O68 2.604527 1_555
Na7 O66 2.611599 1_555
Na7 O60 2.618542 1_555
Na7 O62 2.630396 1_555
Na8 O64 2.423820 1_555
Na8 O71 2.623719 1_555
Na8 O69 2.624494 1_555
Na8 O63 2.647401 1_555
Na8 O65 2.658528 1_555
Na8 O70 2.782681 1_555
Mg0 O1 2.048710 1_555
Mg0 O2 2.070990 1_565
Mg0 O0 2.102784 1_665
Mg0 O37 2.106772 1_555
Mg0 O38 2.123441 1_665
Mg0 O36 2.138279 1_655
Mg1 O39 2.016397 1_555
Mg1 O3 2.034034 1_555
Mg1 O40 2.048314 1_545
Mg1 O5 2.110016 1_455
Mg1 O4 2.114132 1_445
Mg1 O41 2.158246 1_445
Mg2 O6 2.004460 1_545
Mg2 O7 2.059895 1_655
Mg2 O44 2.077587 1_545
Mg2 O8 2.094470 1_645
Mg2 O42 2.127770 1_555
Mg2 O43 2.205887 1_655
Mg3 O9 2.018403 1_555
Mg3 O10 2.035396 1_665
Mg3 O46 2.107970 1_565
Mg3 O11 2.112977 1_655
Mg3 O45 2.156263 1_555
Mg3 O47 2.197831 1_665
Mg4 O14 1.970090 1_555
Mg4 O49 2.080429 1_555
Mg4 O13 2.086460 1_555
Mg4 O50 2.116515 1_555
Mg4 O12 2.135876 1_555
Mg4 O48 2.157388 1_555
Mg5 O15 2.015979 1_555
Mg5 O16 2.057328 1_555
Mg5 O52 2.075739 1_555
Mg5 O51 2.126472 1_555
Mg5 O17 2.137304 1_555
Mg5 O53 2.156104 1_555
Mg6 O25 1.935691 1_554
Mg6 O26 2.010890 1_554
Mg6 O24 2.048151 1_554
Mg6 O60 2.188036 1_555
Mg6 O61 2.216155 1_555
Mg6 O62 2.229565 1_555
Mg7 O64 1.997832 1_555
Mg7 O27 2.022045 1_555
Mg7 O28 2.051600 1_555
Mg7 O63 2.169723 1_555
Mg7 O65 2.181431 1_555
Mg7 O29 2.186792 1_555
Mg8 O31 2.016336 1_555
Mg8 O30 2.029075 1_555
Mg8 O66 2.103315 1_555
Mg8 O32 2.121136 1_555
Mg8 O68 2.161286 1_555
Mg8 O67 2.162612 1_555
O0 S0 1.481887 1_545
O1 S1 1.467813 1_555
O2 S2 1.473466 1_555
O3 S3 1.464165 1_555
O4 S4 1.458391 1_555
O5 S5 1.464754 1_555
O6 S5 1.470435 1_565
O7 S3 1.471469 1_555
O8 S4 1.480756 1_455
O9 S1 1.469343 1_555
O10 S2 1.486916 1_455
O11 S0 1.489046 1_555
O12 S6 1.464658 1_555
O13 S7 1.448663 1_555
O14 P0 1.513396 1_555
O15 S8 1.464478 1_555
O16 S9 1.474606 1_555
O17 S10 1.481568 1_555
O18 S10 1.509275 1_555
O18 Zr0 2.204287 1_554
O19 S8 1.496268 1_555
O19 Zr0 2.167559 1_554
O20 S9 1.509737 1_555
O20 Zr0 2.129317 1_554
O21 S7 1.518225 1_555
O21 Zr1 2.101119 1_555
O22 P0 1.621766 1_555
O22 Zr1 1.977895 1_555
O23 S6 1.523450 1_555
O23 Zr1 2.113561 1_555
O24 S11 1.462881 1_555
O25 P1 1.508923 1_555
O26 P2 1.526620 1_555
O27 S12 1.464806 1_555
O28 S13 1.462680 1_555
O29 S14 1.474107 1_555
O30 S14 1.465981 1_555
O31 S12 1.466727 1_555
O32 S13 1.478170 1_555
O33 P1 1.570029 1_555
O33 Zr2 2.008914 1_555
O34 P2 1.569915 1_555
O34 Zr2 2.020878 1_555
O35 S11 1.491170 1_555
O35 Zr2 2.155245 1_555
O36 S14 1.476575 1_555
O37 S12 1.479146 1_555
O38 S13 1.475394 1_555
O39 P1 1.510877 1_555
O40 P2 1.511759 1_555
O41 S11 1.457059 1_555
O42 S6 1.465451 1_555
O43 S7 1.484147 1_555
O44 P0 1.554182 1_555
O45 S8 1.490122 1_555
O46 S9 1.467415 1_555
O47 S10 1.494177 1_555
O48 S5 1.480430 1_555
O49 S3 1.479412 1_555
O50 S4 1.476065 1_555
O51 S1 1.506777 1_555
O52 S2 1.480413 1_555
O53 S0 1.506899 1_545
O54 S11 1.510982 1_555
O54 Zr0 2.112965 1_555
O55 P1 1.591341 1_655
O55 Zr0 2.000971 1_555
O56 P2 1.586949 1_545
O56 Zr0 2.013773 1_555
O57 S12 1.523125 1_545
O57 Zr1 2.177914 1_555
O58 S13 1.531283 1_555
O58 Zr1 2.139144 1_555
O59 S14 1.534261 1_655
O59 Zr1 2.139479 1_555
O60 S10 1.468572 1_555
O61 S8 1.488194 1_455
O62 S9 1.486873 1_565
O63 S7 1.487877 1_565
O64 P0 1.523331 1_555
O65 S6 1.488952 1_455
O66 S0 1.478265 1_555
O67 S1 1.504917 1_555
O68 S2 1.504733 1_455
O69 S3 1.526061 1_555
O69 Zr2 2.167147 1_555
O70 S4 1.532873 1_455
O70 Zr2 2.111905 1_555
O71 S5 1.527384 1_565
O71 Zr2 2.152909 1_555
