# generated using pymatgen
data_Na10La4Si7Ge4S5O48
_symmetry_space_group_name_H-M   'P 1'
_cell_length_a   18.66886405
_cell_length_b   9.68427279
_cell_length_c   22.85369400
_cell_angle_alpha   89.91588258
_cell_angle_beta   84.04173216
_cell_angle_gamma   120.98178135
_symmetry_Int_Tables_number   1
_chemical_formula_structural   Na10La4Si7Ge4S5O48
_chemical_formula_sum   'Na30 La12 Si21 Ge12 S15 O144'
_cell_volume   3515.88966048
_cell_formula_units_Z   3
loop_
 _symmetry_equiv_pos_site_id
 _symmetry_equiv_pos_as_xyz
  1  'x, y, z'
loop_
 _atom_site_type_symbol
 _atom_site_label
 _atom_site_symmetry_multiplicity
 _atom_site_fract_x
 _atom_site_fract_y
 _atom_site_fract_z
 _atom_site_occupancy
  Na  Na0  1  0.18161271  0.36248275  0.23687315  1
  Na  Na1  1  0.68368793  0.36695207  0.23657184  1
  Na  Na2  1  0.99359303  0.64409714  0.25199057  1
  Na  Na3  1  0.49556877  0.64491967  0.25093099  1
  Na  Na4  1  0.49285534  0.33778587  0.75901826  1
  Na  Na5  1  0.18189741  0.00463391  0.73961059  1
  Na  Na6  1  0.67638692  0.00452840  0.73975243  1
  Na  Na7  1  0.65435545  0.33261376  0.58695294  1
  Na  Na8  1  0.01000450  0.69023527  0.57255923  1
  Na  Na9  1  0.82755867  0.97054428  0.58758135  1
  Na  Na10  1  0.49040898  0.67366406  0.92153108  1
  Na  Na11  1  0.99445837  0.67788671  0.91947425  1
  Na  Na12  1  0.84398428  0.03239359  0.91212507  1
  Na  Na13  1  0.15494279  0.30408858  0.91954512  1
  Na  Na14  1  0.49096820  0.30667532  0.41903805  1
  Na  Na15  1  0.97896575  0.29166451  0.41914981  1
  Na  Na16  1  0.34178999  0.65252279  0.40864476  1
  Na  Na17  1  0.84475791  0.67162343  0.40717937  1
  Na  Na18  1  0.02574359  0.02786286  0.50620208  1
  Na  Na19  1  0.52011699  0.00390740  0.50397893  1
  Na  Na20  1  0.01396676  0.00724017  0.00694030  1
  Na  Na21  1  0.51921801  0.02715409  0.00552867  1
  Na  Na22  1  0.34196412  0.34638847  0.83690554  1
  Na  Na23  1  0.84679166  0.35333898  0.83296938  1
  Na  Na24  1  0.33576577  0.31346349  0.32926404  1
  Na  Na25  1  0.83469193  0.30712391  0.33808490  1
  Na  Na26  1  0.18173668  0.68152608  0.16993249  1
  Na  Na27  1  0.68415925  0.68293113  0.17034827  1
  Na  Na28  1  0.18233936  0.66840696  0.67588447  1
  Na  Na29  1  0.67928259  0.66901231  0.67371290  1
  La  La0  1  0.00453217  0.00060137  0.34794730  1
  La  La1  1  0.50472850  0.00287087  0.34747123  1
  La  La2  1  0.00098255  0.00809746  0.84266866  1
  La  La3  1  0.49053121  -0.00179645  0.85713317  1
  La  La4  1  0.33879775  0.33843150  0.68030042  1
  La  La5  1  0.84045506  0.34229042  0.68830745  1
  La  La6  1  0.34074054  0.34572878  0.17722062  1
  La  La7  1  0.84018760  0.34144165  0.17808299  1
  La  La8  1  0.15662682  0.64614992  0.02085917  1
  La  La9  1  0.65746032  0.64629357  0.02489750  1
  La  La10  1  0.16789877  0.67251068  0.52088497  1
  La  La11  1  0.65500729  0.67360156  0.52055161  1
  Si  Si0  1  0.34632777  0.72249347  0.25201097  1
  Si  Si1  1  0.84762982  0.72248073  0.25144684  1
  Si  Si2  1  0.00100039  0.30656455  0.25458667  1
  Si  Si3  1  0.50215967  0.30798611  0.25446240  1
  Si  Si4  1  0.00390474  0.69836332  0.75478004  1
  Si  Si5  1  0.50098486  0.69731352  0.75472188  1
  Si  Si6  1  0.34686154  0.97173541  0.74701928  1
  Si  Si7  1  0.84125642  0.96151357  0.75319881  1
  Si  Si8  1  0.17554936  0.04945781  0.58893469  1
  Si  Si9  1  0.68264979  0.06006474  0.58897528  1
  Si  Si10  1  0.83361075  0.63814419  0.58197977  1
  Si  Si11  1  0.17730482  0.30066035  0.08911489  1
  Si  Si12  1  0.67764265  0.30291662  0.08965819  1
  Si  Si13  1  0.01362369  0.38615655  0.91519592  1
  Si  Si14  1  0.51228442  0.39140173  0.91717728  1
  Si  Si15  1  0.16732850  0.96800523  0.91558854  1
  Si  Si16  1  0.66915820  0.96770333  0.91754526  1
  Si  Si17  1  0.16792493  0.36793936  0.41584131  1
  Si  Si18  1  0.66804255  0.36937336  0.42050903  1
  Si  Si19  1  0.01260713  0.63870338  0.41976966  1
  Si  Si20  1  0.50912157  0.63818913  0.41490176  1
  Ge  Ge0  1  0.98237759  0.92455205  0.65014778  1
  Ge  Ge1  1  0.48807901  0.93087185  0.65017111  1
  Ge  Ge2  1  0.98746899  0.04281033  0.15054291  1
  Ge  Ge3  1  0.48877786  0.04074801  0.15074382  1
  Ge  Ge4  1  0.31399286  0.27406040  0.97534585  1
  Ge  Ge5  1  0.81021493  0.31306720  0.96624072  1
  Ge  Ge6  1  0.30887030  0.30498952  0.46479206  1
  Ge  Ge7  1  0.81718389  0.37919977  0.47994505  1
  Ge  Ge8  1  0.15182012  0.59327614  0.31251559  1
  Ge  Ge9  1  0.65302684  0.59892461  0.31326677  1
  Ge  Ge10  1  0.15356331  0.71323597  0.81213796  1
  Ge  Ge11  1  0.65061549  0.71131735  0.81285702  1
  S  S0  1  0.14914783  0.97244556  0.24583084  1
  S  S1  1  0.64790499  0.97123615  0.24553480  1
  S  S2  1  0.14841965  0.32515487  0.75171092  1
  S  S3  1  0.64348269  0.31536530  0.74420936  1
  S  S4  1  0.48420450  0.29521670  0.57954376  1
  S  S5  1  0.98169714  0.29837389  0.57580912  1
  S  S6  1  0.34547057  0.65599431  0.58111291  1
  S  S7  1  0.48522664  0.68141259  0.08303133  1
  S  S8  1  0.98524834  0.67562529  0.08154392  1
  S  S9  1  0.34243653  0.04119753  0.08034042  1
  S  S10  1  0.84321079  0.03172872  0.08147705  1
  S  S11  1  0.30956424  0.62661498  0.91722170  1
  S  S12  1  0.81399855  0.63760721  0.91925699  1
  S  S13  1  0.31356831  0.99213062  0.41732618  1
  S  S14  1  0.81221762  0.98080781  0.41702562  1
  O  O0  1  0.11942166  0.98922750  0.30739995  1
  O  O1  1  0.61753479  0.98547374  0.30726952  1
  O  O2  1  0.39570124  0.78105994  0.30974269  1
  O  O3  1  0.89808391  0.77714187  0.30892626  1
  O  O4  1  0.49176537  0.21703828  0.31641642  1
  O  O5  1  0.99342638  0.21705610  0.31619077  1
  O  O6  1  0.12053216  0.26261839  0.81538963  1
  O  O7  1  0.59760589  0.21780736  0.80023848  1
  O  O8  1  0.49371965  0.77949967  0.81410910  1
  O  O9  1  0.00049551  0.78251686  0.81469548  1
  O  O10  1  0.40914673  0.03670699  0.80020237  1
  O  O11  1  0.88592456  0.99259359  0.81287729  1
  O  O12  1  0.40292950  0.94437135  0.68841939  1
  O  O13  1  0.90146550  0.94649630  0.69235339  1
  O  O14  1  0.09227096  0.20449857  0.71258991  1
  O  O15  1  0.60263656  0.22503521  0.69279177  1
  O  O16  1  0.01096892  0.80907280  0.69423427  1
  O  O17  1  0.51304135  0.81299296  0.69420863  1
  O  O18  1  0.40588045  0.86487638  0.19396621  1
  O  O19  1  0.90668481  0.86572974  0.19454657  1
  O  O20  1  0.01297535  0.20933998  0.19705589  1
  O  O21  1  0.51307776  0.20688920  0.19754457  1
  O  O22  1  0.09581431  0.97781493  0.20357046  1
  O  O23  1  0.59349591  0.97643186  0.20365070  1
  O  O24  1  0.43724100  0.28504577  0.63746838  1
  O  O25  1  0.93372995  0.30031885  0.63128343  1
  O  O26  1  0.22580106  0.12509558  0.64472224  1
  O  O27  1  0.72789245  0.13006391  0.64743562  1
  O  O28  1  0.33238648  0.55244221  0.63304567  1
  O  O29  1  0.81766847  0.50705102  0.63202285  1
  O  O30  1  0.44331699  0.59842475  0.14282801  1
  O  O31  1  0.94062545  0.59061500  0.14033380  1
  O  O32  1  0.32726799  0.10875636  0.13470663  1
  O  O33  1  0.82940758  0.10914189  0.13346582  1
  O  O34  1  0.22376317  0.31672070  0.14672649  1
  O  O35  1  0.72265871  0.31192212  0.14723527  1
  O  O36  1  0.23664333  0.27747235  0.02773854  1
  O  O37  1  0.73809032  0.28592110  0.02839052  1
  O  O38  1  0.44435441  0.57395845  0.03524245  1
  O  O39  1  0.94669975  0.57328385  0.03220111  1
  O  O40  1  0.35393672  0.14371186  0.02596794  1
  O  O41  1  0.85540905  0.11865256  0.02507553  1
  O  O42  1  0.23656095  0.18593592  0.52613600  1
  O  O43  1  0.73692868  0.21122704  0.53080516  1
  O  O44  1  0.35490988  0.59190321  0.52431230  1
  O  O45  1  0.84799483  0.56559273  0.51623750  1
  O  O46  1  0.44682339  0.32014148  0.52947103  1
  O  O47  1  0.94307547  0.31294018  0.52412742  1
  O  O48  1  0.26876203  0.63069083  0.97517273  1
  O  O49  1  0.77372345  0.63781388  0.97497630  1
  O  O50  1  0.07304074  0.44436924  0.96734125  1
  O  O51  1  0.56487378  0.46748428  0.97156173  1
  O  O52  1  0.14971479  0.83841478  0.96696119  1
  O  O53  1  0.67570797  0.86073519  0.96760442  1
  O  O54  1  0.27337822  0.91749177  0.47519645  1
  O  O55  1  0.77600514  0.90795348  0.47804589  1
  O  O56  1  0.17479588  0.48669643  0.46639553  1
  O  O57  1  0.66507799  0.46267704  0.47786824  1
  O  O58  1  0.05979892  0.66460666  0.47773365  1
  O  O59  1  0.55971192  0.67026882  0.47006031  1
  O  O60  1  0.06962494  0.60548195  0.36010039  1
  O  O61  1  0.56335697  0.60416409  0.35452334  1
  O  O62  1  0.26963279  0.90866794  0.36677965  1
  O  O63  1  0.76375290  0.87662412  0.37146250  1
  O  O64  1  0.18170060  0.46939775  0.35102529  1
  O  O65  1  0.67937258  0.48033307  0.35828633  1
  O  O66  1  0.06763592  0.53819344  0.85857648  1
  O  O67  1  0.56381345  0.52923789  0.85612170  1
  O  O68  1  0.17712025  0.89457681  0.84986913  1
  O  O69  1  0.68104680  0.89209380  0.85227129  1
  O  O70  1  0.26979578  0.64256180  0.86744025  1
  O  O71  1  0.77176533  0.62934249  0.86732320  1
  O  O72  1  0.99179657  0.77766268  0.40575979  1
  O  O73  1  0.48403260  0.77125345  0.40236124  1
  O  O74  1  0.40063180  0.02538889  0.41469574  1
  O  O75  1  0.89862393  -0.00017853  0.41395110  1
  O  O76  1  0.08545250  0.18973281  0.42042500  1
  O  O77  1  0.58692522  0.18885948  0.41876888  1
  O  O78  1  0.98930881  0.20274743  0.90223899  1
  O  O79  1  0.49103308  0.20673849  0.90673664  1
  O  O80  1  0.09431117  0.01520217  0.91642917  1
  O  O81  1  0.58620942  0.98294409  0.92148133  1
  O  O82  1  0.39930643  0.75769131  0.91730748  1
  O  O83  1  0.90255958  0.77610258  0.91537028  1
  O  O84  1  0.49072398  0.14979623  0.57376817  1
  O  O85  1  0.97980959  0.14311939  0.57537493  1
  O  O86  1  0.08051352  0.03656604  0.59843443  1
  O  O87  1  0.58449980  0.03628076  0.59685205  1
  O  O88  1  0.43233450  0.81561823  0.58471818  1
  O  O89  1  0.92817578  0.80780275  0.58802048  1
  O  O90  1  0.48114494  0.82974711  0.07806046  1
  O  O91  1  0.98307135  0.82535800  0.07741585  1
  O  O92  1  0.42730517  0.05108214  0.08329827  1
  O  O93  1  0.92903084  0.04272694  0.08681948  1
  O  O94  1  0.08124429  0.12792197  0.09738282  1
  O  O95  1  0.58081310  0.12881950  0.09683800  1
  O  O96  1  0.32700657  0.11709206  0.73548746  1
  O  O97  1  0.81976691  0.10134372  0.73866277  1
  O  O98  1  0.23497872  0.34585274  0.74270174  1
  O  O99  1  0.73010668  0.34594508  0.74589820  1
  O  O100  1  0.43294833  0.50547127  0.75033547  1
  O  O101  1  0.93008374  0.51286329  0.75384489  1
  O  O102  1  0.32864727  0.54094763  0.23891898  1
  O  O103  1  0.82887469  0.54112120  0.23740059  1
  O  O104  1  0.43318013  0.36133321  0.24841252  1
  O  O105  1  0.93185615  0.35963559  0.24981856  1
  O  O106  1  0.23814207  0.11221811  0.23757434  1
  O  O107  1  0.73619901  0.11045149  0.23737340  1
  O  O108  1  0.30505927  0.46403992  0.91475882  1
  O  O109  1  0.82097322  0.48149673  0.91765363  1
  O  O110  1  0.41712227  0.38404296  0.93169474  1
  O  O111  1  0.91910216  0.38079054  0.93086377  1
  O  O112  1  0.25962207  0.14468792  0.91948534  1
  O  O113  1  0.76003370  0.15582221  0.91572169  1
  O  O114  1  0.31962893  0.15920796  0.41434817  1
  O  O115  1  0.82273387  0.14352239  0.41254453  1
  O  O116  1  0.25801143  0.36053092  0.41422539  1
  O  O117  1  0.76119109  0.37525607  0.41782803  1
  O  O118  1  0.41484263  0.45206537  0.42770377  1
  O  O119  1  0.91712006  0.45718878  0.42899523  1
  O  O120  1  0.16496917  0.45319394  0.07898939  1
  O  O121  1  0.66405680  0.45402798  0.08244807  1
  O  O122  1  0.07270480  0.70858110  0.08560982  1
  O  O123  1  0.57339300  0.71851764  0.08489903  1
  O  O124  1  0.27542577  0.87268249  0.07755066  1
  O  O125  1  0.77635343  0.85951229  0.08412269  1
  O  O126  1  0.15465525  0.86681517  0.57738364  1
  O  O127  1  0.67711391  0.89064210  0.57732087  1
  O  O128  1  0.27882539  0.69721165  0.58458384  1
  O  O129  1  0.76218625  0.68637672  0.58314534  1
  O  O130  1  0.06842716  0.44020098  0.57881076  1
  O  O131  1  0.57080137  0.44031266  0.58575649  1
  O  O132  1  0.14486478  0.81394383  0.24337394  1
  O  O133  1  0.64454299  0.81362269  0.24213076  1
  O  O134  1  0.25111930  0.70949619  0.26276169  1
  O  O135  1  0.75161578  0.70766515  0.26276126  1
  O  O136  1  0.09768890  0.48178552  0.25083699  1
  O  O137  1  0.59902946  0.48076757  0.25161877  1
  O  O138  1  0.15339704  0.48100963  0.74460152  1
  O  O139  1  0.64192027  0.46795015  0.74391479  1
  O  O140  1  0.10051995  0.71827240  0.74937126  1
  O  O141  1  0.59783109  0.71667578  0.75057101  1
  O  O142  1  0.25424702  0.79855494  0.76298048  1
  O  O143  1  0.74822726  0.78077885  0.76325855  1
loop_
_geom_bond_atom_site_label_1
_geom_bond_atom_site_label_2
_geom_bond_distance
_geom_bond_site_symmetry_2
Na0 O34 2.255021 1_555
Na0 O136 2.377468 1_555
Na0 O102 2.380486 1_555
Na1 O35 2.252938 1_555
Na1 O103 2.344347 1_555
Na1 O137 2.347937 1_555
Na2 O105 2.379756 1_555
Na2 O132 2.412660 1_655
Na2 O103 2.760180 1_555
Na2 O31 2.785329 1_555
Na2 O3 2.901876 1_555
Na2 O22 2.917612 1_655
Na3 O104 2.371375 1_555
Na3 O133 2.376874 1_555
Na3 O30 2.703578 1_555
Na3 O102 2.783550 1_555
Na3 O23 2.890311 1_555
Na3 O61 2.914748 1_555
Na3 O2 3.006061 1_555
Na4 O139 2.374925 1_555
Na4 O100 2.417066 1_555
Na4 O10 2.612471 1_555
Na4 O96 2.824855 1_555
Na4 O67 2.865471 1_555
Na5 O26 2.318293 1_555
Na5 O96 2.333027 1_555
Na5 O140 2.374605 1_545
Na5 O68 2.709427 1_545
Na5 O98 2.924097 1_555
Na6 O27 2.285067 1_555
Na6 O97 2.333867 1_555
Na6 O141 2.386756 1_545
Na6 O69 2.818043 1_545
Na6 O99 2.928203 1_555
Na6 O17 2.943538 1_545
Na7 O131 2.281547 1_555
Na7 O87 2.463997 1_555
Na7 O15 2.518016 1_555
Na7 O43 2.619974 1_555
Na7 O84 2.679875 1_555
Na7 O57 2.732978 1_555
Na7 O29 2.926566 1_555
Na7 O129 2.942705 1_555
Na8 O89 2.331238 1_455
Na8 O58 2.333030 1_555
Na8 O126 2.353084 1_555
Na9 O129 2.375236 1_555
Na9 O85 2.427616 1_565
Na9 O127 2.538098 1_555
Na9 O55 2.732070 1_555
Na10 O82 2.241176 1_555
Na10 O110 2.402906 1_555
Na10 O81 2.579575 1_555
Na10 O8 2.641437 1_555
Na10 O38 2.664395 1_556
Na10 O67 2.760961 1_555
Na11 O83 2.360104 1_555
Na11 O111 2.465674 1_555
Na11 O9 2.567627 1_655
Na11 O39 2.653990 1_556
Na11 O66 2.673379 1_655
Na11 O109 2.791966 1_555
Na11 O80 2.802492 1_665
Na11 O52 2.831009 1_655
Na12 O78 2.323135 1_555
Na12 O113 2.407091 1_555
Na12 O11 2.418845 1_545
Na12 O41 2.709945 1_556
Na12 O53 2.833819 1_545
Na13 O108 2.394156 1_555
Na13 O80 2.422863 1_555
Na13 O6 2.508912 1_555
Na13 O50 2.678204 1_555
Na13 O78 2.794993 1_455
Na14 O74 2.362275 1_555
Na14 O118 2.458438 1_555
Na14 O4 2.503228 1_555
Na14 O77 2.571574 1_555
Na14 O46 2.597225 1_555
Na14 O114 2.766106 1_555
Na14 O61 2.804573 1_555
Na15 O119 2.409527 1_555
Na15 O75 2.434207 1_555
Na15 O47 2.461108 1_555
Na15 O5 2.491072 1_555
Na15 O115 2.524292 1_555
Na15 O76 2.638121 1_655
Na15 O60 2.853069 1_655
Na16 O73 2.274039 1_555
Na16 O116 2.421318 1_555
Na16 O2 2.429186 1_555
Na16 O44 2.769522 1_555
Na16 O56 2.832907 1_555
Na17 O3 2.357787 1_555
Na17 O72 2.381201 1_555
Na17 O117 2.457616 1_555
Na17 O45 2.712496 1_555
Na17 O75 2.807194 1_565
Na18 O85 2.278044 1_455
Na18 O76 2.298062 1_555
Na18 O86 2.419684 1_555
Na18 O89 2.576936 1_445
Na19 O84 2.337543 1_555
Na19 O88 2.387712 1_545
Na19 O77 2.396152 1_555
Na19 O87 2.488292 1_555
Na20 O91 2.186819 1_445
Na20 O80 2.402257 1_554
Na20 O93 2.434522 1_455
Na20 O94 2.500099 1_555
Na21 O90 2.292336 1_545
Na21 O81 2.343468 1_544
Na21 O92 2.436050 1_555
Na21 O95 2.446388 1_555
Na22 O108 2.344814 1_555
Na22 O100 2.402524 1_555
Na22 O112 2.456780 1_555
Na22 O110 2.626992 1_555
Na23 O101 2.238155 1_555
Na23 O109 2.438757 1_555
Na23 O113 2.454104 1_555
Na23 O111 2.675372 1_555
Na24 O104 2.316969 1_555
Na24 O114 2.347320 1_555
Na24 O116 2.486691 1_555
Na24 O118 2.774989 1_555
Na24 O106 2.942580 1_555
Na25 O115 2.237145 1_555
Na25 O105 2.430181 1_555
Na25 O117 2.460881 1_555
Na25 O119 2.677092 1_555
Na26 O132 2.368674 1_555
Na26 O136 2.425858 1_555
Na26 O134 2.542213 1_555
Na26 O124 2.613816 1_555
Na26 O120 2.956883 1_555
Na26 O122 3.047542 1_555
Na27 O133 2.357543 1_555
Na27 O137 2.445733 1_555
Na27 O125 2.454713 1_555
Na27 O135 2.519297 1_555
Na27 O121 2.898865 1_555
Na28 O138 2.204015 1_555
Na28 O140 2.369839 1_555
Na28 O142 2.484515 1_555
Na28 O128 2.525242 1_555
Na29 O139 2.283009 1_555
Na29 O129 2.402863 1_555
Na29 O141 2.404384 1_555
Na29 O143 2.476939 1_555
La0 O0 2.302636 1_545
La0 O3 2.318110 1_445
La0 O5 2.331953 1_455
La0 O75 2.355865 1_455
La0 O72 2.421029 1_445
La0 O76 2.461760 1_555
La1 O1 2.296005 1_545
La1 O2 2.317121 1_545
La1 O4 2.326385 1_555
La1 O73 2.398549 1_545
La1 O77 2.436413 1_555
La1 O74 2.449894 1_555
La2 O11 2.252085 1_445
La2 O9 2.272892 1_545
La2 O6 2.342713 1_555
La2 O78 2.413128 1_455
La2 O83 2.507905 1_445
La2 O80 2.523637 1_555
La3 O10 2.265508 1_555
La3 O7 2.298893 1_555
La3 O79 2.313666 1_555
La3 O8 2.362197 1_545
La3 O82 2.374277 1_545
La3 O81 2.488265 1_545
La4 O24 2.282387 1_555
La4 O26 2.292076 1_555
La4 O98 2.316324 1_555
La4 O96 2.383786 1_555
La4 O28 2.398265 1_555
La4 O100 2.435657 1_555
La5 O25 2.270449 1_555
La5 O29 2.277683 1_555
La5 O101 2.335326 1_555
La5 O27 2.340765 1_555
La5 O99 2.343022 1_555
La5 O97 2.426986 1_555
La6 O34 2.240236 1_555
La6 O30 2.265128 1_555
La6 O106 2.380772 1_555
La6 O32 2.395181 1_555
La6 O104 2.441985 1_555
La6 O102 2.448372 1_555
La7 O35 2.251420 1_555
La7 O31 2.254504 1_555
La7 O107 2.362818 1_555
La7 O33 2.392570 1_555
La7 O105 2.433176 1_555
La7 O103 2.447539 1_555
La8 O50 2.239057 1_554
La8 O52 2.296599 1_554
La8 O48 2.316114 1_554
La8 O122 2.346590 1_555
La8 O120 2.369860 1_555
La8 O124 2.646867 1_555
La9 O51 2.198659 1_554
La9 O53 2.305268 1_554
La9 O121 2.339744 1_555
La9 O123 2.349227 1_555
La9 O49 2.385186 1_554
La9 O125 2.633570 1_555
La10 O56 2.239925 1_555
La10 O58 2.303363 1_555
La10 O54 2.313568 1_555
La10 O130 2.332825 1_555
La10 O126 2.385152 1_555
La10 O128 2.565512 1_555
La11 O59 2.205626 1_555
La11 O55 2.336011 1_555
La11 O127 2.344682 1_555
La11 O57 2.349993 1_555
La11 O131 2.375571 1_555
La11 O129 2.530843 1_555
Ge0 O16 1.809312 1_655
Ge0 O13 1.812693 1_555
Ge0 O86 1.852201 1_665
Ge0 O89 1.855617 1_555
Ge1 O17 1.781836 1_555
Ge1 O12 1.798319 1_555
Ge1 O87 1.848325 1_565
Ge1 O88 1.923169 1_555
Ge2 O19 1.801132 1_545
Ge2 O20 1.810266 1_655
Ge2 O94 1.813875 1_655
Ge2 O93 1.907885 1_555
Ge3 O18 1.798790 1_545
Ge3 O95 1.801683 1_555
Ge3 O21 1.814621 1_555
Ge3 O92 2.046447 1_555
Ge4 O112 1.787235 1_555
Ge4 O36 1.791724 1_556
Ge4 O110 1.823010 1_555
Ge4 O40 2.152190 1_556
Ge4 O108 2.384600 1_555
Ge5 O37 1.771146 1_556
Ge5 O113 1.813983 1_555
Ge5 O111 1.871025 1_555
Ge5 O109 1.882808 1_555
Ge6 O42 1.765508 1_555
Ge6 O116 1.810544 1_555
Ge6 O118 1.846179 1_555
Ge6 O114 1.900301 1_555
Ge7 O45 1.819779 1_555
Ge7 O43 1.834580 1_555
Ge7 O117 1.837544 1_555
Ge7 O119 1.871564 1_555
Ge8 O64 1.820097 1_555
Ge8 O136 1.830520 1_555
Ge8 O60 1.841722 1_555
Ge8 O134 1.845752 1_555
Ge9 O65 1.817306 1_555
Ge9 O135 1.840855 1_555
Ge9 O137 1.850008 1_555
Ge9 O61 1.858458 1_555
Ge10 O68 1.819089 1_555
Ge10 O140 1.839855 1_555
Ge10 O66 1.847945 1_555
Ge10 O142 1.854137 1_555
Ge11 O69 1.812717 1_555
Ge11 O141 1.828566 1_555
Ge11 O143 1.834399 1_555
Ge11 O67 1.852922 1_555
O0 S0 1.498559 1_555
O1 S1 1.498667 1_555
O2 Si0 1.621272 1_555
O3 Si1 1.624379 1_555
O4 Si3 1.606689 1_555
O5 Si2 1.606987 1_655
O6 S2 1.507053 1_555
O7 S3 1.483729 1_555
O8 Si5 1.603124 1_555
O9 Si4 1.606785 1_555
O10 Si6 1.663633 1_545
O11 Si7 1.620204 1_555
O12 Si6 1.719003 1_555
O13 Si7 1.750031 1_555
O14 S2 1.483270 1_555
O15 S3 1.493260 1_555
O16 Si4 1.701082 1_555
O17 Si5 1.699839 1_555
O18 Si0 1.734134 1_555
O19 Si1 1.718554 1_555
O20 Si2 1.680621 1_555
O21 Si3 1.687088 1_555
O22 S0 1.476365 1_555
O23 S1 1.484880 1_555
O24 S4 1.483434 1_555
O25 S5 1.480304 1_555
O26 Si8 1.608025 1_555
O27 Si9 1.614120 1_555
O28 S6 1.469041 1_555
O29 Si10 1.595106 1_555
O30 S7 1.501003 1_555
O31 S8 1.495066 1_555
O32 S9 1.473790 1_555
O33 S10 1.475822 1_555
O34 Si11 1.615171 1_555
O35 Si12 1.612388 1_555
O36 Si11 1.783129 1_555
O37 Si12 1.767760 1_555
O38 S7 1.488884 1_555
O39 S8 1.486360 1_555
O40 S9 1.515697 1_555
O41 S10 1.469853 1_555
O42 Si8 1.791408 1_555
O43 Si9 1.767636 1_555
O44 S6 1.472700 1_555
O45 Si10 1.713686 1_555
O46 S4 1.480950 1_555
O47 S5 1.488569 1_555
O48 S11 1.468837 1_555
O49 S12 1.410550 1_555
O50 Si13 1.612772 1_555
O51 Si14 1.600881 1_555
O52 Si15 1.597558 1_555
O53 Si16 1.597764 1_555
O54 S13 1.437843 1_555
O55 S14 1.486568 1_555
O56 Si17 1.598985 1_555
O57 Si18 1.605552 1_555
O58 Si19 1.615445 1_555
O59 Si20 1.588654 1_555
O60 Si19 1.774447 1_555
O61 Si20 1.758568 1_555
O62 S13 1.475606 1_555
O63 S14 1.476388 1_555
O64 Si17 1.697716 1_555
O65 Si18 1.708985 1_555
O66 Si13 1.747568 1_555
O67 Si14 1.745866 1_555
O68 Si15 1.695536 1_555
O69 Si16 1.706610 1_555
O70 S11 1.470468 1_555
O71 S12 1.471843 1_555
O72 Si19 1.620876 1_655
O73 Si20 1.615633 1_555
O74 S13 1.479829 1_545
O75 S14 1.520392 1_545
O76 Si17 1.609439 1_555
O77 Si18 1.624223 1_555
O78 Si13 1.627250 1_655
O79 Si14 1.644053 1_555
O80 Si15 1.644233 1_545
O81 Si16 1.623066 1_555
O82 S11 1.493127 1_555
O83 S12 1.492137 1_555
O84 S4 1.479594 1_555
O85 S5 1.485767 1_555
O86 Si8 1.703658 1_555
O87 Si9 1.714599 1_555
O88 S6 1.572716 1_555
O89 Si10 1.703018 1_555
O90 S7 1.481989 1_555
O91 S8 1.474541 1_555
O92 S9 1.546017 1_555
O93 S10 1.567846 1_555
O94 Si11 1.700098 1_555
O95 Si12 1.713804 1_555
O96 Si6 1.656737 1_545
O97 Si7 1.640334 1_545
O98 S2 1.513679 1_555
O99 S3 1.491432 1_555
O100 Si5 1.634778 1_555
O101 Si4 1.607573 1_655
O102 Si0 1.647458 1_555
O103 Si1 1.643845 1_555
O104 Si3 1.632811 1_555
O105 Si2 1.629223 1_655
O106 S0 1.499002 1_545
O107 S1 1.488955 1_545
O108 S11 1.534263 1_555
O109 S12 1.582948 1_555
O110 Si14 1.737403 1_555
O111 Si13 1.737562 1_655
O112 Si15 1.703371 1_545
O113 Si16 1.732629 1_545
O114 S13 1.563660 1_545
O115 S14 1.486251 1_545
O116 Si17 1.716492 1_555
O117 Si18 1.704968 1_555
O118 Si20 1.748643 1_555
O119 Si19 1.734069 1_655
O120 Si11 1.627551 1_555
O121 Si12 1.619607 1_555
O122 S8 1.507101 1_455
O123 S7 1.498619 1_555
O124 S9 1.465379 1_565
O125 S10 1.477827 1_565
O126 Si8 1.631807 1_565
O127 Si9 1.614328 1_565
O128 S6 1.484766 1_555
O129 Si10 1.621965 1_555
O130 S5 1.498869 1_455
O131 S4 1.522403 1_555
O132 S0 1.496835 1_555
O133 S1 1.497509 1_555
O134 Si0 1.707160 1_555
O135 Si1 1.714438 1_555
O136 Si2 1.720187 1_555
O137 Si3 1.713018 1_555
O138 S2 1.471357 1_555
O139 S3 1.492917 1_555
O140 Si4 1.703345 1_555
O141 Si5 1.711247 1_555
O142 Si6 1.678437 1_555
O143 Si7 1.708508 1_555
