# generated using pymatgen
data_Mn(SeO3)2
_symmetry_space_group_name_H-M   'P 1'
_cell_length_a   5.07421442
_cell_length_b   6.74719637
_cell_length_c   7.26990489
_cell_angle_alpha   90.00000009
_cell_angle_beta   91.01713727
_cell_angle_gamma   89.99997133
_symmetry_Int_Tables_number   1
_chemical_formula_structural   Mn(SeO3)2
_chemical_formula_sum   'Mn2 Se4 O12'
_cell_volume   248.85848758
_cell_formula_units_Z   2
loop_
 _symmetry_equiv_pos_site_id
 _symmetry_equiv_pos_as_xyz
  1  'x, y, z'
loop_
 _atom_site_type_symbol
 _atom_site_label
 _atom_site_symmetry_multiplicity
 _atom_site_fract_x
 _atom_site_fract_y
 _atom_site_fract_z
 _atom_site_occupancy
  Mn  Mn0  1  0.50000000  0.50000000  0.50000000  1
  Mn  Mn1  1  -0.00000000  0.00000000  -0.00000000  1
  Se  Se0  1  0.51559259  0.17448443  0.19928965  1
  Se  Se1  1  0.98440741  0.67448443  0.30071035  1
  Se  Se2  1  0.01559259  0.32551557  0.69929065  1
  Se  Se3  1  0.48440741  0.82551557  0.80071035  1
  O  O0  1  0.55098836  0.58243001  0.74624963  1
  O  O1  1  0.94901164  0.08243001  0.75375037  1
  O  O2  1  0.44901164  0.41756999  0.25375037  1
  O  O3  1  0.05098836  0.91756999  0.24624963  1
  O  O4  1  0.19904102  0.77946039  0.91690441  1
  O  O5  1  0.30095998  0.27946039  0.58309559  1
  O  O6  1  0.19616945  0.66069450  0.49062310  1
  O  O7  1  0.30383155  0.16069350  0.00937590  1
  O  O8  1  0.80383155  0.33930550  0.50937690  1
  O  O9  1  0.69616845  0.83930650  0.99062410  1
  O  O10  1  0.69904102  0.72053961  0.41690441  1
  O  O11  1  0.80095898  0.22053961  0.08309559  1
loop_
_geom_bond_atom_site_label_1
_geom_bond_atom_site_label_2
_geom_bond_distance
_geom_bond_site_symmetry_2
Mn0 O6 1.885027 1_555
Mn0 O8 1.885031 1_555
Mn0 O2 1.888036 1_555
Mn0 O0 1.888036 1_555
Mn0 O5 1.902854 1_555
Mn0 O10 1.902857 1_555
Mn1 O7 1.885028 1_555
Mn1 O9 1.885028 1_444
Mn1 O3 1.888036 1_545
Mn1 O1 1.888036 1_454
Mn1 O11 1.902856 1_455
Mn1 O4 1.902856 1_544
O0 Se3 1.722128 1_555
O1 Se2 1.722126 1_655
O2 Se0 1.722128 1_555
O3 Se1 1.722128 1_455
O4 Se3 1.717636 1_555
O5 Se2 1.717644 1_555
O6 Se1 1.736888 1_455
O7 Se0 1.736891 1_555
O8 Se2 1.736891 1_655
O9 Se3 1.736891 1_555
O10 Se1 1.717636 1_555
O11 Se0 1.717636 1_555
