# generated using pymatgen
data_PtCl2
_symmetry_space_group_name_H-M   'P 1'
_cell_length_a   8.22128442
_cell_length_b   8.22128372
_cell_length_c   8.22128349
_cell_angle_alpha   107.25207524
_cell_angle_beta   107.25207040
_cell_angle_gamma   107.25207714
_symmetry_Int_Tables_number   1
_chemical_formula_structural   PtCl2
_chemical_formula_sum   'Pt6 Cl12'
_cell_volume   459.55013201
_cell_formula_units_Z   6
loop_
 _symmetry_equiv_pos_site_id
 _symmetry_equiv_pos_as_xyz
  1  'x, y, z'
loop_
 _atom_site_type_symbol
 _atom_site_label
 _atom_site_symmetry_multiplicity
 _atom_site_fract_x
 _atom_site_fract_y
 _atom_site_fract_z
 _atom_site_occupancy
  Pt  Pt0  1  0.93199900  0.93199900  0.67852055  1
  Pt  Pt1  1  0.93199900  0.67852055  0.93199900  1
  Pt  Pt2  1  0.67852055  0.93199900  0.93199900  1
  Pt  Pt3  1  0.32147945  0.06800100  0.06800100  1
  Pt  Pt4  1  0.06800100  0.06800100  0.32147945  1
  Pt  Pt5  1  0.06800100  0.32147945  0.06800100  1
  Cl  Cl0  1  0.24663540  0.00000000  0.75336460  1
  Cl  Cl1  1  0.00000000  0.75336460  0.24663540  1
  Cl  Cl2  1  0.75336460  0.24663540  -0.00000000  1
  Cl  Cl3  1  0.75336460  -0.00000000  0.24663540  1
  Cl  Cl4  1  -0.00000000  0.24663540  0.75336460  1
  Cl  Cl5  1  0.24663540  0.75336460  0.00000000  1
  Cl  Cl6  1  0.37894806  0.13149949  0.37894806  1
  Cl  Cl7  1  0.37894806  0.37894806  0.13149949  1
  Cl  Cl8  1  0.13149949  0.37894806  0.37894806  1
  Cl  Cl9  1  0.86850051  0.62105194  0.62105194  1
  Cl  Cl10  1  0.62105194  0.86850051  0.62105194  1
  Cl  Cl11  1  0.62105194  0.62105194  0.86850051  1
loop_
_geom_bond_atom_site_label_1
_geom_bond_atom_site_label_2
_geom_bond_distance
_geom_bond_site_symmetry_2
Cl0 Pt3 2.318697 1_556
Cl0 Pt0 2.318697 1_445
Cl1 Pt1 2.318697 1_454
Cl1 Pt4 2.318697 1_565
Cl2 Pt2 2.318697 1_544
Cl2 Pt5 2.318697 1_655
Cl3 Pt2 2.318697 1_544
Cl3 Pt4 2.318697 1_655
Cl4 Pt5 2.318697 1_556
Cl4 Pt0 2.318697 1_445
Cl5 Pt3 2.318697 1_565
Cl5 Pt1 2.318697 1_454
Cl6 Pt3 2.318740 1_555
Cl6 Pt4 2.318741 1_555
Cl7 Pt3 2.318740 1_555
Cl7 Pt5 2.318741 1_555
Cl8 Pt5 2.318740 1_555
Cl8 Pt4 2.318740 1_555
Cl9 Pt1 2.318740 1_555
Cl9 Pt0 2.318740 1_555
Cl10 Pt2 2.318740 1_555
Cl10 Pt0 2.318741 1_555
Cl11 Pt2 2.318740 1_555
Cl11 Pt1 2.318741 1_555
