# generated using pymatgen
data_Rb3Ge2Br7
_symmetry_space_group_name_H-M   'P 1'
_cell_length_a   13.03604800
_cell_length_b   10.41361600
_cell_length_c   13.50915094
_cell_angle_alpha   78.04687432
_cell_angle_beta   90.00000000
_cell_angle_gamma   90.00000000
_symmetry_Int_Tables_number   1
_chemical_formula_structural   Rb3Ge2Br7
_chemical_formula_sum   'Rb12 Ge8 Br28'
_cell_volume   1794.13586568
_cell_formula_units_Z   4
loop_
 _symmetry_equiv_pos_site_id
 _symmetry_equiv_pos_as_xyz
  1  'x, y, z'
loop_
 _atom_site_type_symbol
 _atom_site_label
 _atom_site_symmetry_multiplicity
 _atom_site_fract_x
 _atom_site_fract_y
 _atom_site_fract_z
 _atom_site_occupancy
  Rb  Rb0  1  0.82272400  0.95051800  0.46649000  1
  Rb  Rb1  1  0.69271000  0.61180900  0.30821400  1
  Rb  Rb2  1  0.19271000  0.38819100  0.19178600  1
  Rb  Rb3  1  0.30729000  0.38819100  0.69178600  1
  Rb  Rb4  1  0.80729000  0.61180900  0.80821400  1
  Rb  Rb5  1  0.81544500  0.27481300  0.14011700  1
  Rb  Rb6  1  0.31544500  0.72518700  0.35988300  1
  Rb  Rb7  1  0.18455500  0.72518700  0.85988300  1
  Rb  Rb8  1  0.68455500  0.27481300  0.64011700  1
  Rb  Rb9  1  0.67727600  0.95051800  0.96649000  1
  Rb  Rb10  1  0.17727600  0.04948200  0.53351000  1
  Rb  Rb11  1  0.32272400  0.04948200  0.03351000  1
  Ge  Ge0  1  0.95064900  0.35593600  0.43116600  1
  Ge  Ge1  1  0.45064900  0.64406400  0.06883400  1
  Ge  Ge2  1  0.04935100  0.64406400  0.56883400  1
  Ge  Ge3  1  0.54935100  0.35593600  0.93116600  1
  Ge  Ge4  1  0.98954600  0.81493600  0.14493800  1
  Ge  Ge5  1  0.48954600  0.18506400  0.35506200  1
  Ge  Ge6  1  0.01045400  0.18506400  0.85506200  1
  Ge  Ge7  1  0.51045400  0.81493600  0.64493800  1
  Br  Br0  1  0.55948500  0.83456200  0.45861400  1
  Br  Br1  1  0.77435100  0.27793100  0.88665200  1
  Br  Br2  1  0.27435100  0.72206900  0.61334800  1
  Br  Br3  1  0.22564900  0.72206900  0.11334800  1
  Br  Br4  1  0.72564900  0.27793100  0.38665200  1
  Br  Br5  1  0.68400000  0.91095200  0.69898400  1
  Br  Br6  1  0.18400000  0.08904800  0.80101600  1
  Br  Br7  1  0.31600000  0.08904800  0.30101600  1
  Br  Br8  1  0.81600000  0.91095200  0.19898400  1
  Br  Br9  1  0.00491500  0.18470800  0.32745300  1
  Br  Br10  1  0.05948500  0.16543800  0.04138600  1
  Br  Br11  1  0.44051500  0.16543800  0.54138600  1
  Br  Br12  1  0.05938000  0.80917700  0.40044200  1
  Br  Br13  1  0.55938000  0.19082300  0.09955800  1
  Br  Br14  1  0.94062000  0.19082300  0.59955800  1
  Br  Br15  1  0.44062000  0.80917700  0.90044200  1
  Br  Br16  1  0.15044000  0.41489700  0.45768400  1
  Br  Br17  1  0.50491500  0.81529200  0.17254700  1
  Br  Br18  1  0.99508500  0.81529200  0.67254700  1
  Br  Br19  1  0.49508500  0.18470800  0.82745300  1
  Br  Br20  1  0.55945600  0.57126500  0.69843300  1
  Br  Br21  1  0.65044000  0.58510300  0.04231600  1
  Br  Br22  1  0.84956000  0.58510300  0.54231600  1
  Br  Br23  1  0.34956000  0.41489700  0.95768400  1
  Br  Br24  1  0.94054400  0.57126500  0.19843300  1
  Br  Br25  1  0.44054400  0.42873500  0.30156700  1
  Br  Br26  1  0.05945600  0.42873500  0.80156700  1
  Br  Br27  1  0.94051500  0.83456200  0.95861400  1
loop_
_geom_bond_atom_site_label_1
_geom_bond_atom_site_label_2
_geom_bond_distance
_geom_bond_site_symmetry_2
Br0 Ge7 2.563768 1_555
Br0 Rb0 3.646711 1_555
Br0 Rb6 3.718372 1_555
Br0 Rb1 3.804921 1_555
Br1 Ge3 3.134797 1_555
Br1 Rb4 3.445256 1_555
Br1 Rb5 3.459251 1_556
Br1 Rb8 3.536694 1_555
Br1 Rb9 3.586989 1_545
Br2 Ge2 3.134797 1_555
Br2 Rb3 3.445256 1_555
Br2 Rb6 3.459251 1_555
Br2 Rb7 3.536694 1_555
Br2 Rb10 3.586989 1_565
Br3 Ge1 3.134797 1_555
Br3 Rb2 3.445256 1_555
Br3 Rb7 3.459251 1_554
Br3 Rb6 3.536694 1_555
Br3 Rb11 3.586989 1_565
Br4 Ge0 3.134797 1_555
Br4 Rb1 3.445256 1_555
Br4 Rb8 3.459251 1_555
Br4 Rb5 3.536694 1_555
Br4 Rb0 3.586989 1_545
Br5 Ge7 2.636940 1_555
Br5 Rb4 3.544107 1_555
Br5 Rb0 3.573330 1_555
Br5 Rb8 3.706973 1_565
Br5 Rb9 3.722044 1_555
Br6 Ge6 2.636940 1_555
Br6 Rb3 3.544107 1_555
Br6 Rb11 3.573330 1_556
Br6 Rb7 3.706973 1_545
Br6 Rb10 3.722044 1_555
Br7 Ge5 2.636940 1_555
Br7 Rb2 3.544107 1_555
Br7 Rb10 3.573330 1_555
Br7 Rb6 3.706973 1_545
Br7 Rb11 3.722044 1_555
Br8 Ge4 2.636940 1_555
Br8 Rb1 3.544107 1_555
Br8 Rb9 3.573330 1_554
Br8 Rb5 3.706973 1_565
Br8 Rb0 3.722044 1_555
Br9 Ge0 2.584132 1_455
Br9 Rb2 3.497662 1_555
Br9 Rb5 3.521663 1_455
Br9 Rb10 3.627204 1_555
Br9 Rb0 3.635784 1_445
Br10 Ge6 2.563768 1_554
Br10 Rb11 3.646711 1_555
Br10 Rb5 3.718372 1_455
Br10 Rb2 3.804921 1_555
Br11 Ge5 2.563768 1_555
Br11 Rb10 3.646711 1_555
Br11 Rb8 3.718372 1_555
Br11 Rb3 3.804921 1_555
Br12 Ge2 2.555031 1_555
Br12 Rb6 3.522281 1_555
Br12 Rb0 3.608891 1_455
Br12 Rb10 3.703937 1_565
Br13 Ge3 2.555031 1_554
Br13 Rb5 3.522281 1_555
Br13 Rb11 3.608891 1_555
Br13 Rb9 3.703937 1_544
Br14 Ge0 2.555031 1_555
Br14 Rb8 3.522281 1_555
Br14 Rb10 3.608891 1_655
Br14 Rb0 3.703937 1_545
Br15 Ge1 2.555031 1_556
Br15 Rb7 3.522281 1_555
Br15 Rb9 3.608891 1_555
Br15 Rb11 3.703937 1_566
Br16 Ge0 2.716575 1_455
Br16 Rb2 3.701033 1_555
Br16 Rb3 3.727649 1_555
Br16 Rb10 3.746638 1_555
Br16 Rb6 3.878787 1_555
Br17 Ge1 2.584132 1_555
Br17 Rb1 3.497662 1_555
Br17 Rb6 3.521663 1_555
Br17 Rb9 3.627204 1_554
Br17 Rb11 3.635784 1_565
Br18 Ge2 2.584132 1_655
Br18 Rb4 3.497662 1_555
Br18 Rb7 3.521663 1_655
Br18 Rb0 3.627204 1_555
Br18 Rb10 3.635784 1_665
Br19 Ge3 2.584132 1_555
Br19 Rb3 3.497662 1_555
Br19 Rb8 3.521663 1_555
Br19 Rb11 3.627204 1_556
Br19 Rb9 3.635784 1_545
Br20 Ge7 2.570915 1_555
Br20 Rb4 3.615933 1_555
Br20 Rb8 3.717250 1_555
Br20 Rb3 3.810456 1_555
Br21 Ge1 2.716575 1_555
Br21 Rb1 3.701033 1_555
Br21 Rb4 3.727649 1_554
Br21 Rb9 3.746638 1_554
Br21 Rb5 3.878787 1_555
Br22 Ge2 2.716575 1_655
Br22 Rb4 3.701033 1_555
Br22 Rb1 3.727649 1_555
Br22 Rb0 3.746638 1_555
Br22 Rb8 3.878787 1_555
Br23 Ge3 2.716575 1_555
Br23 Rb3 3.701033 1_555
Br23 Rb2 3.727649 1_556
Br23 Rb11 3.746638 1_556
Br23 Rb7 3.878787 1_555
Br24 Ge4 2.570915 1_555
Br24 Rb1 3.615933 1_555
Br24 Rb5 3.717250 1_555
Br24 Rb2 3.810456 1_655
Br25 Ge5 2.570915 1_555
Br25 Rb2 3.615933 1_555
Br25 Rb6 3.717250 1_555
Br25 Rb1 3.810456 1_555
Br26 Ge6 2.570915 1_555
Br26 Rb3 3.615933 1_555
Br26 Rb7 3.717250 1_555
Br26 Rb4 3.810456 1_455
Br27 Ge4 2.563768 1_556
Br27 Rb9 3.646711 1_555
Br27 Rb7 3.718372 1_655
Br27 Rb4 3.804921 1_555
