# generated using pymatgen
data_Na5Hf4Si3(PO8)3
_symmetry_space_group_name_H-M   'P 1'
_cell_length_a   9.04130837
_cell_length_b   9.04433997
_cell_length_c   22.93314338
_cell_angle_alpha   90.01525817
_cell_angle_beta   90.01005850
_cell_angle_gamma   119.96320522
_symmetry_Int_Tables_number   1
_chemical_formula_structural   Na5Hf4Si3(PO8)3
_chemical_formula_sum   'Na15 Hf12 Si9 P9 O72'
_cell_volume   1624.66281070
_cell_formula_units_Z   3
loop_
 _symmetry_equiv_pos_site_id
 _symmetry_equiv_pos_as_xyz
  1  'x, y, z'
loop_
 _atom_site_type_symbol
 _atom_site_label
 _atom_site_symmetry_multiplicity
 _atom_site_fract_x
 _atom_site_fract_y
 _atom_site_fract_z
 _atom_site_occupancy
  Na  Na0  1  0.00061166  0.63010497  0.25003869  1
  Na  Na1  1  0.36853438  0.00001438  0.75058302  1
  Na  Na2  1  0.03048495  0.70095928  0.58092685  1
  Na  Na3  1  0.66125282  0.96429198  0.58491779  1
  Na  Na4  1  0.29811452  0.96962306  0.08088492  1
  Na  Na5  1  0.03467222  0.33875485  0.08562085  1
  Na  Na6  1  0.97269318  0.66905450  0.91876894  1
  Na  Na7  1  0.96522208  0.30215022  0.41393695  1
  Na  Na8  1  0.33606832  0.02736549  0.41771066  1
  Na  Na9  1  0.99752978  0.99185246  0.49989765  1
  Na  Na10  1  0.99878251  0.99883897  0.99930867  1
  Na  Na11  1  0.66514847  0.32485385  0.83356517  1
  Na  Na12  1  0.66574121  0.33133980  0.33259491  1
  Na  Na13  1  0.34436834  0.65847610  0.16763686  1
  Na  Na14  1  0.34030316  0.65379474  0.66705094  1
  Hf  Hf0  1  0.99077017  0.99585138  0.35206212  1
  Hf  Hf1  1  0.99888550  0.00705469  0.85282602  1
  Hf  Hf2  1  0.99889427  0.00119163  0.64827036  1
  Hf  Hf3  1  0.99889718  0.00081893  0.14783018  1
  Hf  Hf4  1  0.66623107  0.33432942  0.68636742  1
  Hf  Hf5  1  0.66623827  0.33313401  0.18580989  1
  Hf  Hf6  1  0.65630341  0.32860948  0.98038403  1
  Hf  Hf7  1  0.66564069  0.34004047  0.48106164  1
  Hf  Hf8  1  0.33457067  0.66633445  0.01857568  1
  Hf  Hf9  1  0.33985996  0.67088614  0.51909575  1
  Hf  Hf10  1  0.33426940  0.66600269  0.31411304  1
  Hf  Hf11  1  0.34056320  0.67024156  0.81378486  1
  Si  Si0  1  0.00024577  0.29516318  0.24990805  1
  Si  Si1  1  0.70665534  0.00118043  0.74937185  1
  Si  Si2  1  0.37235202  0.04234802  0.58316530  1
  Si  Si3  1  0.66454334  0.62492776  0.58476913  1
  Si  Si4  1  0.95687246  0.62596123  0.08214777  1
  Si  Si5  1  0.37527978  0.33563633  0.08446116  1
  Si  Si6  1  0.33457428  0.96167888  0.91594048  1
  Si  Si7  1  0.62717937  0.95979690  0.41707116  1
  Si  Si8  1  0.04056290  0.66700143  0.41659972  1
  P  P0  1  0.29269083  0.00161528  0.25081985  1
  P  P1  1  0.70728460  0.70819261  0.24916344  1
  P  P2  1  0.28952402  0.29153008  0.75010479  1
  P  P3  1  0.99877085  0.70769827  0.75125994  1
  P  P4  1  0.95704923  0.33331748  0.58287658  1
  P  P5  1  0.66677460  0.04388697  0.08289365  1
  P  P6  1  0.62543353  0.66693923  0.91626263  1
  P  P7  1  0.04325365  0.37572548  0.91683273  1
  P  P8  1  0.33383784  0.37664375  0.41602021  1
  O  O0  1  0.20537570  0.02225499  0.30557439  1
  O  O1  1  0.82371715  0.79244263  0.30319180  1
  O  O2  1  0.97813911  0.17971827  0.30783951  1
  O  O3  1  0.20511283  0.17426249  0.80379189  1
  O  O4  1  0.97801726  0.79647054  0.80578443  1
  O  O5  1  0.82790320  0.02363101  0.80503457  1
  O  O6  1  0.79394349  0.97646938  0.69040667  1
  O  O7  1  0.17993628  0.20398794  0.69585423  1
  O  O8  1  0.03108287  0.82285602  0.69656964  1
  O  O9  1  0.79600067  0.81893885  0.19541114  1
  O  O10  1  0.02167307  0.20239834  0.19170162  1
  O  O11  1  0.17727900  0.97082536  0.19623065  1
  O  O12  1  0.87040560  0.36370063  0.63606388  1
  O  O13  1  0.49558365  0.12858637  0.64028104  1
  O  O14  1  0.64340157  0.50752531  0.64102983  1
  O  O15  1  0.87183475  0.50360225  0.13975375  1
  O  O16  1  0.63333631  0.12525098  0.13706230  1
  O  O17  1  0.49268140  0.35847965  0.14095766  1
  O  O18  1  0.46148507  0.29449682  0.02845382  1
  O  O19  1  0.84499208  0.53513842  0.02385654  1
  O  O20  1  0.69986266  0.15949757  0.02951074  1
  O  O21  1  0.46277614  0.15454567  0.52464716  1
  O  O22  1  0.70540706  0.53998719  0.52832180  1
  O  O23  1  0.84556930  0.30122228  0.52751328  1
  O  O24  1  0.53945305  0.69096881  0.97053266  1
  O  O25  1  0.15112131  0.45808595  0.97283903  1
  O  O26  1  0.30322629  0.84100006  0.97388501  1
  O  O27  1  0.54168761  0.84566224  0.47577536  1
  O  O28  1  0.30052286  0.45773798  0.46974639  1
  O  O29  1  0.15841441  0.69572039  0.47461473  1
  O  O30  1  0.12952925  0.63429823  0.35904395  1
  O  O31  1  0.50075895  0.86586775  0.36194310  1
  O  O32  1  0.35989866  0.48762395  0.36192297  1
  O  O33  1  0.13330233  0.49241053  0.86403622  1
  O  O34  1  0.35431033  0.86441463  0.85853775  1
  O  O35  1  0.51347231  0.64037687  0.86246931  1
  O  O36  1  0.03591445  0.84456364  0.40956681  1
  O  O37  1  0.82110820  0.98999070  0.41140118  1
  O  O38  1  0.17359919  0.19599057  0.40905741  1
  O  O39  1  0.02378832  0.19795828  0.91059861  1
  O  O40  1  0.15615819  0.96768547  0.90993638  1
  O  O41  1  0.80714942  0.82496238  0.90980234  1
  O  O42  1  0.97052633  0.17107313  0.59035801  1
  O  O43  1  0.17979813  0.01254005  0.58980787  1
  O  O44  1  0.83615699  0.81638236  0.59035973  1
  O  O45  1  0.98770395  0.81890637  0.08972252  1
  O  O46  1  0.82812966  0.02869149  0.09037890  1
  O  O47  1  0.18373398  0.16388516  0.09018064  1
  O  O48  1  0.67786103  0.16657432  0.74577772  1
  O  O49  1  0.46662018  0.30298280  0.74422218  1
  O  O50  1  0.84093978  0.53054666  0.74449176  1
  O  O51  1  0.69672290  0.53192649  0.24371052  1
  O  O52  1  0.83260474  0.32100995  0.24574851  1
  O  O53  1  0.46991642  0.15887296  0.24406819  1
  O  O54  1  0.65208498  0.51024913  0.92208278  1
  O  O55  1  0.86751913  0.36603281  0.92265193  1
  O  O56  1  0.50554677  0.14873765  0.92084471  1
  O  O57  1  0.64406662  0.14895292  0.42242661  1
  O  O58  1  0.48982557  0.35105286  0.42217607  1
  O  O59  1  0.85598436  0.49214495  0.42194982  1
  O  O60  1  0.34587969  0.49826864  0.07706835  1
  O  O61  1  0.14927639  0.64594702  0.07660829  1
  O  O62  1  0.50435498  0.86728921  0.07550724  1
  O  O63  1  0.35161430  0.85001111  0.57810373  1
  O  O64  1  0.49929492  0.65065903  0.57897367  1
  O  O65  1  0.13286480  0.49542722  0.57651040  1
  O  O66  1  0.30321286  0.83523922  0.25585471  1
  O  O67  1  0.53046316  0.68993552  0.25609762  1
  O  O68  1  0.16785763  0.48846305  0.25413909  1
  O  O69  1  0.30726083  0.46769891  0.75743371  1
  O  O70  1  0.16313251  0.69404739  0.75713523  1
  O  O71  1  0.51324632  0.83236441  0.75509863  1
loop_
_geom_bond_atom_site_label_1
_geom_bond_atom_site_label_2
_geom_bond_distance
_geom_bond_site_symmetry_2
Na0 O68 2.423106 1_555
Na0 O66 2.423756 1_555
Na0 O52 2.426988 1_455
Na0 O51 2.433386 1_455
Na0 O30 2.750266 1_555
Na0 O15 2.779963 1_455
Na0 O1 2.923167 1_455
Na0 O11 2.942153 1_555
Na1 O49 2.426744 1_555
Na1 O48 2.427947 1_555
Na1 O70 2.448698 1_545
Na1 O71 2.450188 1_545
Na1 O34 2.737535 1_545
Na1 O13 2.781862 1_555
Na1 O3 2.912277 1_555
Na1 O8 2.919723 1_545
Na2 O43 2.450473 1_565
Na2 O65 2.457907 1_555
Na2 O44 2.460829 1_455
Na2 O63 2.518298 1_555
Na2 O29 2.709234 1_555
Na2 O22 2.817273 1_455
Na2 O8 2.870775 1_555
Na2 O12 2.930990 1_455
Na3 O63 2.457547 1_555
Na3 O64 2.461662 1_555
Na3 O42 2.471478 1_565
Na3 O44 2.533569 1_555
Na3 O6 2.677825 1_555
Na3 O27 2.724654 1_555
Na3 O13 2.878635 1_565
Na3 O23 2.954085 1_565
Na4 O45 2.440225 1_455
Na4 O47 2.452895 1_565
Na4 O62 2.464310 1_555
Na4 O61 2.540698 1_555
Na4 O26 2.725620 1_554
Na4 O18 2.815716 1_565
Na4 O11 2.864238 1_555
Na4 O16 2.926317 1_565
Na5 O61 2.441380 1_555
Na5 O60 2.445893 1_555
Na5 O46 2.476405 1_455
Na5 O47 2.541230 1_555
Na5 O10 2.703700 1_555
Na5 O25 2.798285 1_554
Na5 O15 2.850243 1_455
Na5 O20 2.922835 1_455
Na6 O40 2.369114 1_655
Na6 O55 2.412506 1_555
Na6 O54 2.512496 1_555
Na6 O41 2.525677 1_555
Na6 O19 2.685843 1_556
Na6 O4 2.826712 1_555
Na6 O26 2.881371 1_655
Na6 O33 2.924637 1_655
Na7 O59 2.378489 1_555
Na7 O37 2.448946 1_545
Na7 O38 2.508142 1_655
Na7 O57 2.523999 1_555
Na7 O2 2.699599 1_555
Na7 O23 2.818971 1_555
Na7 O30 2.891529 1_655
Na7 O28 2.923197 1_655
Na8 O36 2.377155 1_545
Na8 O57 2.432394 1_555
Na8 O58 2.539308 1_555
Na8 O38 2.600178 1_555
Na8 O21 2.707575 1_555
Na8 O0 2.820642 1_555
Na8 O31 2.856304 1_545
Na8 O29 2.910380 1_545
Na9 O37 2.575940 1_555
Na9 O44 2.577041 1_555
Na9 O36 2.578177 1_655
Na9 O43 2.587057 1_665
Na9 O38 2.711135 1_665
Na9 O42 2.717433 1_565
Na10 O40 2.589590 1_655
Na10 O45 2.607050 1_556
Na10 O47 2.621304 1_666
Na10 O41 2.638900 1_555
Na10 O39 2.651143 1_665
Na10 O46 2.689314 1_566
Na11 O48 2.505703 1_555
Na11 O56 2.516467 1_555
Na11 O55 2.641609 1_555
Na11 O49 2.665123 1_555
Na11 O54 2.672542 1_555
Na11 O50 2.685043 1_555
Na12 O52 2.528490 1_555
Na12 O57 2.585080 1_555
Na12 O59 2.602174 1_555
Na12 O53 2.632096 1_555
Na12 O51 2.649400 1_555
Na12 O58 2.658229 1_555
Na13 O68 2.529450 1_555
Na13 O60 2.536120 1_555
Na13 O67 2.558857 1_555
Na13 O61 2.698336 1_555
Na13 O66 2.716627 1_555
Na13 O62 2.719835 1_555
Na14 O64 2.487741 1_555
Na14 O71 2.570049 1_555
Na14 O69 2.591963 1_555
Na14 O63 2.672357 1_555
Na14 O65 2.682192 1_555
Na14 O70 2.747684 1_555
Hf0 O2 1.999386 1_565
Hf0 O37 2.031570 1_555
Hf0 O1 2.035822 1_555
Hf0 O36 2.082453 1_655
Hf0 O0 2.120486 1_665
Hf0 O38 2.174079 1_665
Hf1 O5 1.960747 1_555
Hf1 O3 2.052595 1_655
Hf1 O40 2.090320 1_645
Hf1 O39 2.097038 1_655
Hf1 O4 2.113480 1_545
Hf1 O41 2.138909 1_545
Hf2 O6 2.001084 1_545
Hf2 O7 2.057584 1_655
Hf2 O44 2.064954 1_545
Hf2 O43 2.077608 1_655
Hf2 O8 2.093526 1_645
Hf2 O42 2.141261 1_555
Hf3 O10 2.000621 1_655
Hf3 O9 2.061367 1_545
Hf3 O47 2.062934 1_655
Hf3 O45 2.079772 1_545
Hf3 O11 2.084065 1_645
Hf3 O46 2.138111 1_555
Hf4 O14 1.975133 1_555
Hf4 O13 2.022549 1_555
Hf4 O12 2.078512 1_555
Hf4 O48 2.080812 1_555
Hf4 O49 2.141915 1_555
Hf4 O50 2.149238 1_555
Hf5 O17 1.982869 1_555
Hf5 O15 2.021587 1_555
Hf5 O16 2.076866 1_555
Hf5 O52 2.080417 1_555
Hf5 O51 2.139006 1_555
Hf5 O53 2.151094 1_555
Hf6 O18 1.967500 1_556
Hf6 O56 2.037649 1_555
Hf6 O19 2.051527 1_556
Hf6 O20 2.089557 1_556
Hf6 O54 2.133465 1_555
Hf6 O55 2.206760 1_555
Hf7 O22 1.980798 1_555
Hf7 O21 2.026249 1_555
Hf7 O59 2.080590 1_555
Hf7 O23 2.115332 1_555
Hf7 O57 2.120152 1_555
Hf7 O58 2.125529 1_555
Hf8 O26 2.018475 1_554
Hf8 O25 2.067969 1_554
Hf8 O60 2.068015 1_555
Hf8 O24 2.069673 1_554
Hf8 O61 2.074657 1_555
Hf8 O62 2.139052 1_555
Hf9 O27 1.983868 1_555
Hf9 O29 2.037127 1_555
Hf9 O64 2.063951 1_555
Hf9 O63 2.072189 1_555
Hf9 O28 2.106537 1_555
Hf9 O65 2.188581 1_555
Hf10 O31 2.004249 1_555
Hf10 O30 2.010278 1_555
Hf10 O32 2.057409 1_555
Hf10 O68 2.078140 1_555
Hf10 O67 2.140328 1_555
Hf10 O66 2.153362 1_555
Hf11 O34 1.983400 1_555
Hf11 O71 2.028298 1_555
Hf11 O35 2.045685 1_555
Hf11 O33 2.101813 1_555
Hf11 O69 2.136375 1_555
Hf11 O70 2.156865 1_555
O0 P0 1.543457 1_555
O1 P1 1.556217 1_555
O2 Si0 1.639378 1_655
O3 P2 1.554257 1_555
O4 P3 1.547066 1_555
O5 Si1 1.627729 1_555
O6 Si1 1.636394 1_565
O7 P2 1.540098 1_555
O8 P3 1.562076 1_455
O9 P1 1.537755 1_555
O10 Si0 1.638640 1_555
O11 P0 1.562928 1_565
O12 P4 1.546662 1_555
O13 Si2 1.642046 1_555
O14 Si3 1.620739 1_555
O15 Si4 1.646911 1_555
O16 P5 1.548549 1_555
O17 Si5 1.621233 1_555
O18 Si5 1.638732 1_555
O19 Si4 1.629098 1_555
O20 P5 1.539458 1_555
O21 Si2 1.634476 1_555
O22 Si3 1.638781 1_555
O23 P4 1.555409 1_555
O24 P6 1.539314 1_555
O25 P7 1.558552 1_555
O26 Si6 1.652077 1_555
O27 Si7 1.636945 1_555
O28 P8 1.538534 1_555
O29 Si8 1.641897 1_555
O30 Si8 1.647587 1_555
O31 Si7 1.629570 1_555
O32 P8 1.538401 1_555
O33 P7 1.544466 1_555
O34 Si6 1.641626 1_555
O35 P6 1.536488 1_555
O36 Si8 1.635346 1_555
O37 Si7 1.639392 1_555
O38 P8 1.558623 1_555
O39 P7 1.534151 1_555
O40 Si6 1.646667 1_555
O41 P6 1.555175 1_555
O42 P4 1.541512 1_555
O43 Si2 1.630352 1_555
O44 Si3 1.654802 1_555
O45 Si4 1.633106 1_555
O46 P5 1.541696 1_555
O47 Si5 1.656021 1_555
O48 Si1 1.643558 1_555
O49 P2 1.557923 1_555
O50 P3 1.530847 1_555
O51 P1 1.553734 1_555
O52 Si0 1.647714 1_655
O53 P0 1.529100 1_555
O54 P6 1.557373 1_555
O55 P7 1.552724 1_655
O56 Si6 1.628484 1_545
O57 Si7 1.644435 1_545
O58 P8 1.545493 1_555
O59 Si8 1.632480 1_655
O60 Si5 1.628995 1_555
O61 Si4 1.661613 1_455
O62 P5 1.546972 1_565
O63 Si2 1.657946 1_565
O64 Si3 1.628283 1_555
O65 P4 1.539472 1_455
O66 P0 1.558773 1_565
O67 P1 1.531274 1_555
O68 Si0 1.647973 1_555
O69 P2 1.528819 1_555
O70 P3 1.557219 1_455
O71 Si1 1.655156 1_565
