# generated using pymatgen
data_MgTe4Mo2W2(SeS)2
_symmetry_space_group_name_H-M   'P 1'
_cell_length_a   6.78050800
_cell_length_b   6.78042899
_cell_length_c   74.42994422
_cell_angle_alpha   90.02243732
_cell_angle_beta   90.00198276
_cell_angle_gamma   119.99833697
_symmetry_Int_Tables_number   1
_chemical_formula_structural   MgTe4Mo2W2(SeS)2
_chemical_formula_sum   'Mg8 Te32 Mo16 W16 Se16 S16'
_cell_volume   2963.50018567
_cell_formula_units_Z   8
loop_
 _symmetry_equiv_pos_site_id
 _symmetry_equiv_pos_as_xyz
  1  'x, y, z'
loop_
 _atom_site_type_symbol
 _atom_site_label
 _atom_site_symmetry_multiplicity
 _atom_site_fract_x
 _atom_site_fract_y
 _atom_site_fract_z
 _atom_site_occupancy
  Mg  Mg0_0  1  0.28775750  0.18466750  0.43776950  1
  Mg  Mg0_1  1  0.28775750  0.18466750  0.93776950  1
  Mg  Mg0_2  1  0.28775750  0.68466750  0.43776950  1
  Mg  Mg0_3  1  0.28775750  0.68466750  0.93776950  1
  Mg  Mg0_4  1  0.78775750  0.18466750  0.43776950  1
  Mg  Mg0_5  1  0.78775750  0.18466750  0.93776950  1
  Mg  Mg0_6  1  0.78775750  0.68466750  0.43776950  1
  Mg  Mg0_7  1  0.78775750  0.68466750  0.93776950  1
  Te  Te0_0  1  0.16692550  0.33385950  0.35417850  1
  Te  Te0_1  1  0.16692550  0.33385950  0.85417850  1
  Te  Te0_2  1  0.16692550  0.83385950  0.35417850  1
  Te  Te0_3  1  0.16692550  0.83385950  0.85417850  1
  Te  Te0_4  1  0.66692550  0.33385950  0.35417850  1
  Te  Te0_5  1  0.66692550  0.33385950  0.85417850  1
  Te  Te0_6  1  0.66692550  0.83385950  0.35417850  1
  Te  Te0_7  1  0.66692550  0.83385950  0.85417850  1
  Te  Te1_0  1  0.33333150  0.16662800  0.02155550  1
  Te  Te1_1  1  0.33333150  0.16662800  0.52155550  1
  Te  Te1_2  1  0.33333150  0.66662800  0.02155550  1
  Te  Te1_3  1  0.33333150  0.66662800  0.52155550  1
  Te  Te1_4  1  0.83333150  0.16662800  0.02155550  1
  Te  Te1_5  1  0.83333150  0.16662800  0.52155550  1
  Te  Te1_6  1  0.83333150  0.66662800  0.02155550  1
  Te  Te1_7  1  0.83333150  0.66662800  0.52155550  1
  Te  Te2_0  1  0.33348950  0.16694050  0.07194650  1
  Te  Te2_1  1  0.33348950  0.16694050  0.57194650  1
  Te  Te2_2  1  0.33348950  0.66694050  0.07194650  1
  Te  Te2_3  1  0.33348950  0.66694050  0.57194650  1
  Te  Te2_4  1  0.83348950  0.16694050  0.07194650  1
  Te  Te2_5  1  0.83348950  0.16694050  0.57194650  1
  Te  Te2_6  1  0.83348950  0.66694050  0.07194650  1
  Te  Te2_7  1  0.83348950  0.66694050  0.57194650  1
  Te  Te3_0  1  0.16677100  0.33355400  0.30350600  1
  Te  Te3_1  1  0.16677100  0.33355400  0.80350600  1
  Te  Te3_2  1  0.16677100  0.83355400  0.30350600  1
  Te  Te3_3  1  0.16677100  0.83355400  0.80350600  1
  Te  Te3_4  1  0.66677100  0.33355400  0.30350600  1
  Te  Te3_5  1  0.66677100  0.33355400  0.80350600  1
  Te  Te3_6  1  0.66677100  0.83355400  0.30350600  1
  Te  Te3_7  1  0.66677100  0.83355400  0.80350600  1
  Mo  Mo0_0  1  0.16673650  0.33344150  0.04671850  1
  Mo  Mo0_1  1  0.16673650  0.33344150  0.54671850  1
  Mo  Mo0_2  1  0.16673650  0.83344150  0.04671850  1
  Mo  Mo0_3  1  0.16673650  0.83344150  0.54671850  1
  Mo  Mo0_4  1  0.66673650  0.33344150  0.04671850  1
  Mo  Mo0_5  1  0.66673650  0.33344150  0.54671850  1
  Mo  Mo0_6  1  0.66673650  0.83344150  0.04671850  1
  Mo  Mo0_7  1  0.66673650  0.83344150  0.54671850  1
  Mo  Mo1_0  1  0.16663300  0.33342900  0.23476000  1
  Mo  Mo1_1  1  0.16663300  0.33342900  0.73476000  1
  Mo  Mo1_2  1  0.16663300  0.83342900  0.23476000  1
  Mo  Mo1_3  1  0.16663300  0.83342900  0.73476000  1
  Mo  Mo1_4  1  0.66663300  0.33342900  0.23476000  1
  Mo  Mo1_5  1  0.66663300  0.33342900  0.73476000  1
  Mo  Mo1_6  1  0.66663300  0.83342900  0.23476000  1
  Mo  Mo1_7  1  0.66663300  0.83342900  0.73476000  1
  W  W0_0  1  0.33324250  0.16649450  0.14111500  1
  W  W0_1  1  0.33324250  0.16649450  0.64111500  1
  W  W0_2  1  0.33324250  0.66649450  0.14111500  1
  W  W0_3  1  0.33324250  0.66649450  0.64111500  1
  W  W0_4  1  0.83324250  0.16649450  0.14111500  1
  W  W0_5  1  0.83324250  0.16649450  0.64111500  1
  W  W0_6  1  0.83324250  0.66649450  0.14111500  1
  W  W0_7  1  0.83324250  0.66649450  0.64111500  1
  W  W1_0  1  0.33351600  0.16703550  0.32887150  1
  W  W1_1  1  0.33351600  0.16703550  0.82887150  1
  W  W1_2  1  0.33351600  0.66703550  0.32887150  1
  W  W1_3  1  0.33351600  0.66703550  0.82887150  1
  W  W1_4  1  0.83351600  0.16703550  0.32887150  1
  W  W1_5  1  0.83351600  0.16703550  0.82887150  1
  W  W1_6  1  0.83351600  0.66703550  0.32887150  1
  W  W1_7  1  0.83351600  0.66703550  0.82887150  1
  Se  Se0_0  1  0.16664250  0.33328300  0.16336850  1
  Se  Se0_1  1  0.16664250  0.33328300  0.66336850  1
  Se  Se0_2  1  0.16664250  0.83328300  0.16336850  1
  Se  Se0_3  1  0.16664250  0.83328300  0.66336850  1
  Se  Se0_4  1  0.66664250  0.33328300  0.16336850  1
  Se  Se0_5  1  0.66664250  0.33328300  0.66336850  1
  Se  Se0_6  1  0.66664250  0.83328300  0.16336850  1
  Se  Se0_7  1  0.66664250  0.83328300  0.66336850  1
  Se  Se1_0  1  0.16651600  0.33305200  0.11884250  1
  Se  Se1_1  1  0.16651600  0.33305200  0.61884250  1
  Se  Se1_2  1  0.16651600  0.83305200  0.11884250  1
  Se  Se1_3  1  0.16651600  0.83305200  0.61884250  1
  Se  Se1_4  1  0.66651600  0.33305200  0.11884250  1
  Se  Se1_5  1  0.66651600  0.33305200  0.61884250  1
  Se  Se1_6  1  0.66651600  0.83305200  0.11884250  1
  Se  Se1_7  1  0.66651600  0.83305200  0.61884250  1
  S  S0_0  1  0.33323050  0.16663850  0.21458150  1
  S  S0_1  1  0.33323050  0.16663850  0.71458150  1
  S  S0_2  1  0.33323050  0.66663850  0.21458150  1
  S  S0_3  1  0.33323050  0.66663850  0.71458150  1
  S  S0_4  1  0.83323050  0.16663850  0.21458150  1
  S  S0_5  1  0.83323050  0.16663850  0.71458150  1
  S  S0_6  1  0.83323050  0.66663850  0.21458150  1
  S  S0_7  1  0.83323050  0.66663850  0.71458150  1
  S  S1_0  1  0.33336550  0.16688200  0.25495950  1
  S  S1_1  1  0.33336550  0.16688200  0.75495950  1
  S  S1_2  1  0.33336550  0.66688200  0.25495950  1
  S  S1_3  1  0.33336550  0.66688200  0.75495950  1
  S  S1_4  1  0.83336550  0.16688200  0.25495950  1
  S  S1_5  1  0.83336550  0.16688200  0.75495950  1
  S  S1_6  1  0.83336550  0.66688200  0.25495950  1
  S  S1_7  1  0.83336550  0.66688200  0.75495950  1
loop_
_geom_bond_atom_site_label_1
_geom_bond_atom_site_label_2
_geom_bond_distance
_geom_bond_site_symmetry_2
Mg0_0 Mg0_2 3.390214 1_555
Mg0_0 Mg0_2 3.390214 1_545
Mg0_0 Mg0_4 3.390254 1_455
Mg0_0 Mg0_4 3.390254 1_555
Mg0_0 Mg0_6 3.390319 1_555
Mg0_0 Mg0_6 3.390319 1_445
Mg0_1 Mg0_3 3.390214 1_555
Mg0_1 Mg0_3 3.390214 1_545
Mg0_1 Mg0_5 3.390254 1_555
Mg0_1 Mg0_5 3.390254 1_455
Mg0_1 Mg0_7 3.390319 1_555
Mg0_1 Mg0_7 3.390319 1_445
Mg0_2 Mg0_6 3.390254 1_555
Mg0_2 Mg0_6 3.390254 1_455
Mg0_2 Mg0_4 3.390319 1_565
Mg0_2 Mg0_4 3.390319 1_455
Mg0_3 Mg0_7 3.390254 1_555
Mg0_3 Mg0_7 3.390254 1_455
Mg0_3 Mg0_5 3.390319 1_565
Mg0_3 Mg0_5 3.390319 1_455
Mg0_4 Mg0_6 3.390214 1_555
Mg0_4 Mg0_6 3.390214 1_545
Mg0_5 Mg0_7 3.390214 1_555
Mg0_5 Mg0_7 3.390214 1_545
Te0_0 W1_2 2.716454 1_555
Te0_0 W1_4 2.716456 1_455
Te0_0 W1_0 2.716515 1_555
Te0_1 W1_3 2.716454 1_555
Te0_1 W1_5 2.716456 1_455
Te0_1 W1_1 2.716515 1_555
Te0_2 W1_0 2.716454 1_565
Te0_2 W1_6 2.716456 1_455
Te0_2 W1_2 2.716515 1_555
Te0_3 W1_1 2.716454 1_565
Te0_3 W1_7 2.716456 1_455
Te0_3 W1_3 2.716515 1_555
Te0_4 W1_6 2.716454 1_555
Te0_4 W1_0 2.716456 1_555
Te0_4 W1_4 2.716515 1_555
Te0_5 W1_7 2.716454 1_555
Te0_5 W1_1 2.716456 1_555
Te0_5 W1_5 2.716515 1_555
Te0_6 W1_4 2.716454 1_565
Te0_6 W1_2 2.716456 1_555
Te0_6 W1_6 2.716515 1_555
Te0_7 W1_5 2.716454 1_565
Te0_7 W1_3 2.716456 1_555
Te0_7 W1_7 2.716515 1_555
Te3_0 W1_0 2.719457 1_555
Te3_0 W1_2 2.719484 1_555
Te3_0 W1_4 2.719546 1_455
Te3_1 W1_1 2.719457 1_555
Te3_1 W1_3 2.719484 1_555
Te3_1 W1_5 2.719546 1_455
Te3_2 W1_2 2.719457 1_555
Te3_2 W1_0 2.719484 1_565
Te3_2 W1_6 2.719546 1_455
Te3_3 W1_3 2.719457 1_555
Te3_3 W1_1 2.719484 1_565
Te3_3 W1_7 2.719546 1_455
Te3_4 W1_4 2.719457 1_555
Te3_4 W1_6 2.719484 1_555
Te3_4 W1_0 2.719546 1_555
Te3_5 W1_5 2.719457 1_555
Te3_5 W1_7 2.719484 1_555
Te3_5 W1_1 2.719546 1_555
Te3_6 W1_6 2.719457 1_555
Te3_6 W1_4 2.719484 1_565
Te3_6 W1_2 2.719546 1_555
Te3_7 W1_7 2.719457 1_555
Te3_7 W1_5 2.719484 1_565
Te3_7 W1_3 2.719546 1_555
Mo0_0 Te1_4 2.709018 1_455
Mo0_0 Te1_0 2.709071 1_555
Mo0_0 Te1_2 2.709074 1_555
Mo0_0 Te2_0 2.712321 1_555
Mo0_0 Te2_4 2.712416 1_455
Mo0_0 Te2_2 2.712467 1_555
Mo0_1 Te1_5 2.709018 1_455
Mo0_1 Te1_1 2.709071 1_555
Mo0_1 Te1_3 2.709074 1_555
Mo0_1 Te2_1 2.712321 1_555
Mo0_1 Te2_5 2.712416 1_455
Mo0_1 Te2_3 2.712467 1_555
Mo0_2 Te1_6 2.709018 1_455
Mo0_2 Te1_2 2.709071 1_555
Mo0_2 Te1_0 2.709074 1_565
Mo0_2 Te2_2 2.712321 1_555
Mo0_2 Te2_6 2.712416 1_455
Mo0_2 Te2_0 2.712467 1_565
Mo0_3 Te1_7 2.709018 1_455
Mo0_3 Te1_3 2.709071 1_555
Mo0_3 Te1_1 2.709074 1_565
Mo0_3 Te2_3 2.712321 1_555
Mo0_3 Te2_7 2.712416 1_455
Mo0_3 Te2_1 2.712467 1_565
Mo0_4 Te1_0 2.709018 1_555
Mo0_4 Te1_4 2.709071 1_555
Mo0_4 Te1_6 2.709074 1_555
Mo0_4 Te2_4 2.712321 1_555
Mo0_4 Te2_0 2.712416 1_555
Mo0_4 Te2_6 2.712467 1_555
Mo0_5 Te1_1 2.709018 1_555
Mo0_5 Te1_5 2.709071 1_555
Mo0_5 Te1_7 2.709074 1_555
Mo0_5 Te2_5 2.712321 1_555
Mo0_5 Te2_1 2.712416 1_555
Mo0_5 Te2_7 2.712467 1_555
Mo0_6 Te1_2 2.709018 1_555
Mo0_6 Te1_6 2.709071 1_555
Mo0_6 Te1_4 2.709074 1_565
Mo0_6 Te2_6 2.712321 1_555
Mo0_6 Te2_2 2.712416 1_555
Mo0_6 Te2_4 2.712467 1_565
Mo0_7 Te1_3 2.709018 1_555
Mo0_7 Te1_7 2.709071 1_555
Mo0_7 Te1_5 2.709074 1_565
Mo0_7 Te2_7 2.712321 1_555
Mo0_7 Te2_3 2.712416 1_555
Mo0_7 Te2_5 2.712467 1_565
Mo1_0 S0_0 2.467158 1_555
Mo1_0 S0_2 2.467164 1_555
Mo1_0 S0_4 2.467202 1_455
Mo1_0 S1_0 2.468095 1_555
Mo1_0 S1_2 2.468125 1_555
Mo1_0 S1_4 2.468159 1_455
Mo1_1 S0_1 2.467158 1_555
Mo1_1 S0_3 2.467164 1_555
Mo1_1 S0_5 2.467202 1_455
Mo1_1 S1_1 2.468095 1_555
Mo1_1 S1_3 2.468125 1_555
Mo1_1 S1_5 2.468159 1_455
Mo1_2 S0_2 2.467158 1_555
Mo1_2 S0_0 2.467164 1_565
Mo1_2 S0_6 2.467202 1_455
Mo1_2 S1_2 2.468095 1_555
Mo1_2 S1_0 2.468125 1_565
Mo1_2 S1_6 2.468159 1_455
Mo1_3 S0_3 2.467158 1_555
Mo1_3 S0_1 2.467164 1_565
Mo1_3 S0_7 2.467202 1_455
Mo1_3 S1_3 2.468095 1_555
Mo1_3 S1_1 2.468125 1_565
Mo1_3 S1_7 2.468159 1_455
Mo1_4 S0_4 2.467158 1_555
Mo1_4 S0_6 2.467164 1_555
Mo1_4 S0_0 2.467202 1_555
Mo1_4 S1_4 2.468095 1_555
Mo1_4 S1_6 2.468125 1_555
Mo1_4 S1_0 2.468159 1_555
Mo1_5 S0_5 2.467158 1_555
Mo1_5 S0_7 2.467164 1_555
Mo1_5 S0_1 2.467202 1_555
Mo1_5 S1_5 2.468095 1_555
Mo1_5 S1_7 2.468125 1_555
Mo1_5 S1_1 2.468159 1_555
Mo1_6 S0_6 2.467158 1_555
Mo1_6 S0_4 2.467164 1_565
Mo1_6 S0_2 2.467202 1_555
Mo1_6 S1_6 2.468095 1_555
Mo1_6 S1_4 2.468125 1_565
Mo1_6 S1_2 2.468159 1_555
Mo1_7 S0_7 2.467158 1_555
Mo1_7 S0_5 2.467164 1_565
Mo1_7 S0_3 2.467202 1_555
Mo1_7 S1_7 2.468095 1_555
Mo1_7 S1_5 2.468125 1_565
Mo1_7 S1_3 2.468159 1_555
Se0_0 W0_0 2.564082 1_555
Se0_0 W0_4 2.564104 1_455
Se0_0 W0_2 2.564175 1_555
Se0_1 W0_1 2.564082 1_555
Se0_1 W0_5 2.564104 1_455
Se0_1 W0_3 2.564175 1_555
Se0_2 W0_2 2.564082 1_555
Se0_2 W0_6 2.564104 1_455
Se0_2 W0_0 2.564175 1_565
Se0_3 W0_3 2.564082 1_555
Se0_3 W0_7 2.564104 1_455
Se0_3 W0_1 2.564175 1_565
Se0_4 W0_4 2.564082 1_555
Se0_4 W0_0 2.564104 1_555
Se0_4 W0_6 2.564175 1_555
Se0_5 W0_5 2.564082 1_555
Se0_5 W0_1 2.564104 1_555
Se0_5 W0_7 2.564175 1_555
Se0_6 W0_6 2.564082 1_555
Se0_6 W0_2 2.564104 1_555
Se0_6 W0_4 2.564175 1_565
Se0_7 W0_7 2.564082 1_555
Se0_7 W0_3 2.564104 1_555
Se0_7 W0_5 2.564175 1_565
Se1_0 W0_2 2.564929 1_555
Se1_0 W0_0 2.565048 1_555
Se1_0 W0_4 2.565123 1_455
Se1_1 W0_3 2.564929 1_555
Se1_1 W0_1 2.565048 1_555
Se1_1 W0_5 2.565123 1_455
Se1_2 W0_0 2.564929 1_565
Se1_2 W0_2 2.565048 1_555
Se1_2 W0_6 2.565123 1_455
Se1_3 W0_1 2.564929 1_565
Se1_3 W0_3 2.565048 1_555
Se1_3 W0_7 2.565123 1_455
Se1_4 W0_6 2.564929 1_555
Se1_4 W0_4 2.565048 1_555
Se1_4 W0_0 2.565123 1_555
Se1_5 W0_7 2.564929 1_555
Se1_5 W0_5 2.565048 1_555
Se1_5 W0_1 2.565123 1_555
Se1_6 W0_4 2.564929 1_565
Se1_6 W0_6 2.565048 1_555
Se1_6 W0_2 2.565123 1_555
Se1_7 W0_5 2.564929 1_565
Se1_7 W0_7 2.565048 1_555
Se1_7 W0_3 2.565123 1_555
