# generated using pymatgen
data_Yb5Sb3
_symmetry_space_group_name_H-M   'P 1'
_cell_length_a   8.77441361
_cell_length_b   8.77441361
_cell_length_c   6.18075739
_cell_angle_alpha   90.00000000
_cell_angle_beta   90.00000000
_cell_angle_gamma   120.00000383
_symmetry_Int_Tables_number   1
_chemical_formula_structural   Yb5Sb3
_chemical_formula_sum   'Yb10 Sb6'
_cell_volume   412.10560113
_cell_formula_units_Z   2
loop_
 _symmetry_equiv_pos_site_id
 _symmetry_equiv_pos_as_xyz
  1  'x, y, z'
loop_
 _atom_site_type_symbol
 _atom_site_label
 _atom_site_symmetry_multiplicity
 _atom_site_fract_x
 _atom_site_fract_y
 _atom_site_fract_z
 _atom_site_occupancy
  Yb  Yb0  1  0.00000000  0.75309378  0.75000000  1
  Yb  Yb1  1  1.00000000  0.24690622  0.25000000  1
  Yb  Yb2  1  0.75309378  0.75309378  0.25000000  1
  Yb  Yb3  1  0.75309378  0.00000000  0.75000000  1
  Yb  Yb4  1  0.24690622  0.24690622  0.75000000  1
  Yb  Yb5  1  0.24690622  1.00000000  0.25000000  1
  Yb  Yb6  1  0.33333300  0.66666700  0.50000000  1
  Yb  Yb7  1  0.66666700  0.33333300  0.00000000  1
  Yb  Yb8  1  0.66666700  0.33333300  0.50000000  1
  Yb  Yb9  1  0.33333300  0.66666700  0.00000000  1
  Sb  Sb0  1  0.38804513  0.00000000  0.75000000  1
  Sb  Sb1  1  0.38804513  0.38804513  0.25000000  1
  Sb  Sb2  1  1.00000000  0.61195487  0.25000000  1
  Sb  Sb3  1  0.00000000  0.38804513  0.75000000  1
  Sb  Sb4  1  0.61195487  0.61195487  0.75000000  1
  Sb  Sb5  1  0.61195487  1.00000000  0.25000000  1
loop_
_geom_bond_atom_site_label_1
_geom_bond_atom_site_label_2
_geom_bond_distance
_geom_bond_site_symmetry_2
Sb0 Yb0 2.984990 1_545
Sb0 Yb4 2.984990 1_555
Sb0 Yb9 3.125450 1_546
Sb0 Yb6 3.125450 1_545
Sb0 Yb7 3.125453 1_556
Sb0 Yb8 3.125453 1_555
Sb0 Yb3 3.203088 1_555
Sb0 Yb5 3.329280 1_546
Sb0 Yb5 3.329280 1_545
Sb1 Yb5 2.984990 1_545
Sb1 Yb1 2.984990 1_455
Sb1 Yb9 3.125458 1_555
Sb1 Yb7 3.125458 1_555
Sb1 Yb8 3.125458 1_555
Sb1 Yb6 3.125458 1_555
Sb1 Yb2 3.203088 1_555
Sb1 Yb4 3.329280 1_555
Sb1 Yb4 3.329280 1_554
Sb2 Yb5 2.984990 1_655
Sb2 Yb2 2.984990 1_555
Sb2 Yb9 3.125450 1_655
Sb2 Yb6 3.125450 1_655
Sb2 Yb7 3.125453 1_555
Sb2 Yb8 3.125453 1_555
Sb2 Yb1 3.203088 1_555
Sb2 Yb0 3.329280 1_655
Sb2 Yb0 3.329280 1_654
Sb3 Yb3 2.984990 1_455
Sb3 Yb4 2.984990 1_555
Sb3 Yb7 3.125450 1_456
Sb3 Yb8 3.125450 1_455
Sb3 Yb6 3.125453 1_555
Sb3 Yb9 3.125453 1_556
Sb3 Yb0 3.203088 1_555
Sb3 Yb1 3.329280 1_455
Sb3 Yb1 3.329280 1_456
Sb4 Yb3 2.984990 1_565
Sb4 Yb0 2.984990 1_655
Sb4 Yb8 3.125458 1_555
Sb4 Yb6 3.125458 1_555
Sb4 Yb9 3.125458 1_556
Sb4 Yb7 3.125458 1_556
Sb4 Yb4 3.203088 1_555
Sb4 Yb2 3.329280 1_556
Sb4 Yb2 3.329280 1_555
Sb5 Yb1 2.984990 1_565
Sb5 Yb2 2.984990 1_555
Sb5 Yb8 3.125450 1_565
Sb5 Yb7 3.125450 1_565
Sb5 Yb9 3.125453 1_555
Sb5 Yb6 3.125453 1_555
Sb5 Yb5 3.203088 1_555
Sb5 Yb3 3.329280 1_565
Sb5 Yb3 3.329280 1_564
