# generated using pymatgen
data_MgTiS2
_symmetry_space_group_name_H-M   'P 1'
_cell_length_a   3.48882900
_cell_length_b   3.48882828
_cell_length_c   6.24668600
_cell_angle_alpha   90.00000000
_cell_angle_beta   90.00000000
_cell_angle_gamma   119.99999735
_symmetry_Int_Tables_number   1
_chemical_formula_structural   MgTiS2
_chemical_formula_sum   'Mg1 Ti1 S2'
_cell_volume   65.84754638
_cell_formula_units_Z   1
loop_
 _symmetry_equiv_pos_site_id
 _symmetry_equiv_pos_as_xyz
  1  'x, y, z'
loop_
 _atom_site_type_symbol
 _atom_site_label
 _atom_site_symmetry_multiplicity
 _atom_site_fract_x
 _atom_site_fract_y
 _atom_site_fract_z
 _atom_site_occupancy
  Mg  Mg0  1  0.00000000  0.00000000  0.50000000  1
  Ti  Ti0  1  0.00000000  0.00000000  0.00000000  1
  S  S0  1  0.33333300  0.66666700  0.24507500  1
  S  S1  1  0.66666700  0.33333300  0.75492500  1
loop_
_geom_bond_atom_site_label_1
_geom_bond_atom_site_label_2
_geom_bond_distance
_geom_bond_site_symmetry_2
Mg0 S0 2.567714 1_545
Mg0 S1 2.567714 1_455
Mg0 S1 2.567716 1_445
Mg0 S0 2.567716 1_555
Mg0 S0 2.567716 1_445
Mg0 S1 2.567716 1_555
S0 Ti0 2.530015 1_565
S0 Ti0 2.530017 1_555
S0 Ti0 2.530017 1_665
S1 Ti0 2.530015 1_656
S1 Ti0 2.530017 1_666
S1 Ti0 2.530017 1_556
