# generated using pymatgen
data_Na2Hf2Si3Sn2(SO8)3
_symmetry_space_group_name_H-M   'P 1'
_cell_length_a   8.92557648
_cell_length_b   8.88929475
_cell_length_c   23.24912048
_cell_angle_alpha   90.59181846
_cell_angle_beta   90.47000975
_cell_angle_gamma   119.86877271
_symmetry_Int_Tables_number   1
_chemical_formula_structural   Na2Hf2Si3Sn2(SO8)3
_chemical_formula_sum   'Na6 Hf6 Si9 Sn6 S9 O72'
_cell_volume   1599.33294754
_cell_formula_units_Z   3
loop_
 _symmetry_equiv_pos_site_id
 _symmetry_equiv_pos_as_xyz
  1  'x, y, z'
loop_
 _atom_site_type_symbol
 _atom_site_label
 _atom_site_symmetry_multiplicity
 _atom_site_fract_x
 _atom_site_fract_y
 _atom_site_fract_z
 _atom_site_occupancy
  Na  Na0  1  0.98151559  0.97873960  0.49557950  1
  Na  Na1  1  0.00678487  0.98847511  0.00168426  1
  Na  Na2  1  0.64983193  0.31408390  0.82859071  1
  Na  Na3  1  0.67372285  0.32167900  0.33627101  1
  Na  Na4  1  0.31454086  0.66235498  0.17495674  1
  Na  Na5  1  0.34880911  0.66190105  0.66422149  1
  Hf  Hf0  1  0.00241959  0.00072100  0.35504011  1
  Hf  Hf1  1  0.01184168  0.01217827  0.84981071  1
  Hf  Hf2  1  0.68066171  0.33472154  0.19256731  1
  Hf  Hf3  1  0.66615432  0.33696218  0.98126947  1
  Hf  Hf4  1  0.31969421  0.67527820  0.02183255  1
  Hf  Hf5  1  0.34909354  0.68085474  0.80887256  1
  Si  Si0  1  0.29490022  0.00206879  0.25082613  1
  Si  Si1  1  0.01209928  0.29121732  0.25104370  1
  Si  Si2  1  0.28961887  0.28897259  0.74750804  1
  Si  Si3  1  0.71430705  0.00957053  0.74871009  1
  Si  Si4  1  0.66424527  0.62293249  0.58344085  1
  Si  Si5  1  0.95313455  0.63098498  0.08558306  1
  Si  Si6  1  0.33012406  0.96054796  0.91628819  1
  Si  Si7  1  0.62592650  0.95880917  0.41701063  1
  Si  Si8  1  0.04473840  0.66796511  0.41902793  1
  Sn  Sn0  1  0.98676295  0.99770915  0.64739042  1
  Sn  Sn1  1  0.00885245  0.99579498  0.15341165  1
  Sn  Sn2  1  0.65380884  0.33140984  0.68640060  1
  Sn  Sn3  1  0.67926426  0.34419674  0.47724821  1
  Sn  Sn4  1  0.34954963  0.67835162  0.51554087  1
  Sn  Sn5  1  0.31737830  0.67721227  0.31461104  1
  S  S0  1  0.70574219  0.71066173  0.25006074  1
  S  S1  1  -0.00025108  0.70876927  0.74959552  1
  S  S2  1  0.96000602  0.33598785  0.58411550  1
  S  S3  1  0.37168321  0.04036475  0.58291639  1
  S  S4  1  0.67051512  0.04433894  0.08320628  1
  S  S5  1  0.37584568  0.33412906  0.08285818  1
  S  S6  1  0.62279371  0.66767813  0.91770861  1
  S  S7  1  0.04306318  0.37805144  0.91656347  1
  S  S8  1  0.33438962  0.37805623  0.41636026  1
  O  O0  1  0.19953895  0.02614460  0.30570106  1
  O  O1  1  0.81660677  0.78930807  0.30082436  1
  O  O2  1  0.97303131  0.16727244  0.30504957  1
  O  O3  1  0.20276413  0.16960780  0.80482290  1
  O  O4  1  0.97359171  0.79134992  0.80172180  1
  O  O5  1  0.82688844  0.03020540  0.80726087  1
  O  O6  1  0.78564890  0.96000303  0.69208715  1
  O  O7  1  0.17338339  0.19967674  0.68966491  1
  O  O8  1  0.03210681  0.81300275  0.69771382  1
  O  O9  1  0.77827443  0.81363756  0.19646061  1
  O  O10  1  0.02978561  0.20727444  0.18854220  1
  O  O11  1  0.18067073  0.95588598  0.19027612  1
  O  O12  1  0.87979125  0.36028915  0.63684973  1
  O  O13  1  0.47990786  0.11491194  0.63659900  1
  O  O14  1  0.63708051  0.50968399  0.64187143  1
  O  O15  1  0.85895048  0.50674156  0.13895840  1
  O  O16  1  0.63772846  0.12073246  0.13451335  1
  O  O17  1  0.48030212  0.35859691  0.13445107  1
  O  O18  1  0.45918954  0.30704793  0.03038019  1
  O  O19  1  0.84020202  0.53688200  0.02634160  1
  O  O20  1  0.68887071  0.14953377  0.03119274  1
  O  O21  1  0.45215464  0.14556747  0.53220197  1
  O  O22  1  0.69283609  0.53131603  0.52703126  1
  O  O23  1  0.85008797  0.30159054  0.53213027  1
  O  O24  1  0.53957832  0.68862982  0.96930963  1
  O  O25  1  0.15155071  0.45814141  0.96936537  1
  O  O26  1  0.30900312  0.84151753  0.97309114  1
  O  O27  1  0.55502641  0.84580468  0.47557771  1
  O  O28  1  0.30471124  0.45141632  0.47026920  1
  O  O29  1  0.15832496  0.69395299  0.47841218  1
  O  O30  1  0.11643237  0.61972092  0.36173674  1
  O  O31  1  0.50833930  0.86967904  0.35928949  1
  O  O32  1  0.36353376  0.48455123  0.36532222  1
  O  O33  1  0.12076032  0.48049546  0.86559527  1
  O  O34  1  0.35557788  0.86232765  0.86118284  1
  O  O35  1  0.51488380  0.63612578  0.86515486  1
  O  O36  1  0.02931312  0.84163351  0.41225653  1
  O  O37  1  0.81914179  0.98691738  0.40986318  1
  O  O38  1  0.17912338  0.20471361  0.41094263  1
  O  O39  1  0.02171381  0.20099397  0.91231418  1
  O  O40  1  0.15537311  0.97640143  0.91184371  1
  O  O41  1  0.79577096  0.82150896  0.91158867  1
  O  O42  1  0.97916958  0.17770355  0.58783969  1
  O  O43  1  0.19879753  0.02564690  0.58940094  1
  O  O44  1  0.84399505  0.81606477  0.58833053  1
  O  O45  1  0.97056784  0.82517620  0.08860726  1
  O  O46  1  0.82645184  0.02829113  0.08750911  1
  O  O47  1  0.20076213  0.17955084  0.08459233  1
  O  O48  1  0.70110506  0.18626630  0.74187816  1
  O  O49  1  0.48340667  0.31259129  0.74582495  1
  O  O50  1  0.84466324  0.53523711  0.74465572  1
  O  O51  1  0.69075930  0.53664588  0.24221191  1
  O  O52  1  0.84085563  0.31597231  0.24328620  1
  O  O53  1  0.48183720  0.17793249  0.24049376  1
  O  O54  1  0.64071584  0.50885158  0.92315774  1
  O  O55  1  0.86824338  0.35885424  0.92456128  1
  O  O56  1  0.50427256  0.15198060  0.92508261  1
  O  O57  1  0.63005532  0.14647722  0.42499326  1
  O  O58  1  0.48845439  0.35634387  0.42274275  1
  O  O59  1  0.84980227  0.49702849  0.42137720  1
  O  O60  1  0.36223317  0.49282935  0.07369295  1
  O  O61  1  0.14619150  0.64767552  0.07709099  1
  O  O62  1  0.51659233  0.86688021  0.07491319  1
  O  O63  1  0.35127468  0.86334245  0.57953978  1
  O  O64  1  0.48731121  0.64027404  0.57851252  1
  O  O65  1  0.13249149  0.49220853  0.57927245  1
  O  O66  1  0.32263502  0.83338367  0.25249640  1
  O  O67  1  0.53254667  0.68802263  0.25582670  1
  O  O68  1  0.18822815  0.48107776  0.25564706  1
  O  O69  1  0.30259696  0.47699093  0.75834440  1
  O  O70  1  0.15306344  0.68729182  0.75807106  1
  O  O71  1  0.51980078  0.83888364  0.75616238  1
loop_
_geom_bond_atom_site_label_1
_geom_bond_atom_site_label_2
_geom_bond_distance
_geom_bond_site_symmetry_2
Na0 O36 2.429565 1_655
Na0 O37 2.477420 1_555
Na0 O44 2.566637 1_555
Na0 O38 2.761812 1_665
Na0 O42 2.772851 1_565
Na0 O43 2.792720 1_665
Na1 O45 2.428905 1_455
Na1 O40 2.513113 1_554
Na1 O47 2.558620 1_565
Na1 O41 2.687832 1_454
Na1 O46 2.702400 1_465
Na1 O39 2.781846 1_564
Na2 O49 2.417090 1_555
Na2 O48 2.459747 1_555
Na2 O56 2.654597 1_555
Na2 O50 2.725190 1_555
Na2 O54 2.811164 1_555
Na2 O55 2.841596 1_555
Na3 O59 2.501982 1_555
Na3 O57 2.511415 1_555
Na3 O52 2.650919 1_555
Na3 O53 2.687621 1_555
Na3 O58 2.724040 1_555
Na3 O51 2.873864 1_555
Na4 O66 2.323420 1_555
Na4 O68 2.382157 1_555
Na4 O67 2.619579 1_555
Na4 O61 2.682222 1_555
Na4 O60 2.928640 1_555
Na4 O62 2.976258 1_555
Na5 O64 2.409374 1_555
Na5 O71 2.618959 1_555
Na5 O65 2.622754 1_555
Na5 O69 2.659758 1_555
Na5 O63 2.667837 1_555
Na5 O70 2.882598 1_555
Hf0 O2 2.007214 1_455
Hf0 O0 2.026034 1_555
Hf0 O37 2.037935 1_445
Hf0 O36 2.049088 1_545
Hf0 O38 2.129314 1_555
Hf0 O1 2.164139 1_445
Hf1 O3 1.908008 1_555
Hf1 O5 1.992347 1_455
Hf1 O40 2.051174 1_545
Hf1 O4 2.121514 1_445
Hf1 O39 2.176413 1_555
Hf1 O41 2.344130 1_445
Hf2 O52 1.917386 1_555
Hf2 O53 1.983514 1_555
Hf2 O15 2.017972 1_555
Hf2 O51 2.087234 1_555
Hf2 O16 2.190751 1_555
Hf2 O17 2.326603 1_555
Hf3 O19 1.963322 1_556
Hf3 O56 2.014000 1_555
Hf3 O18 2.082888 1_556
Hf3 O20 2.129963 1_556
Hf3 O54 2.143538 1_555
Hf3 O55 2.173553 1_555
Hf4 O26 1.910564 1_554
Hf4 O61 1.941537 1_555
Hf4 O62 2.109984 1_555
Hf4 O25 2.121783 1_554
Hf4 O60 2.207826 1_555
Hf4 O24 2.273164 1_554
Hf5 O71 1.931574 1_555
Hf5 O34 1.987471 1_555
Hf5 O69 2.008794 1_555
Hf5 O70 2.127639 1_555
Hf5 O35 2.150592 1_555
Hf5 O33 2.354135 1_555
O0 Si0 1.609823 1_555
O1 S0 1.461359 1_555
O2 Si1 1.601597 1_655
O3 Si2 1.652061 1_555
O4 S1 1.489642 1_655
O5 Si3 1.638659 1_555
O6 Si3 1.616739 1_565
O6 Sn0 1.962894 1_555
O7 Si2 1.627797 1_555
O7 Sn0 1.980368 1_445
O8 S1 1.469395 1_555
O8 Sn0 2.218625 1_455
O9 S0 1.502161 1_555
O9 Sn1 2.146445 1_655
O10 Si1 1.670907 1_555
O10 Sn1 1.962642 1_545
O11 Si0 1.654502 1_565
O11 Sn1 1.933622 1_555
O12 S2 1.491772 1_555
O12 Sn2 2.233810 1_555
O13 S3 1.501823 1_555
O13 Sn2 2.098273 1_555
O14 Si4 1.645655 1_555
O14 Sn2 1.967860 1_555
O15 Si5 1.608429 1_555
O16 S4 1.468538 1_555
O17 S5 1.459319 1_555
O18 S5 1.512310 1_555
O19 Si5 1.651167 1_555
O20 S4 1.495866 1_555
O21 S3 1.465703 1_555
O21 Sn3 2.320158 1_555
O22 Si4 1.624429 1_555
O22 Sn3 1.969333 1_555
O23 S2 1.480161 1_555
O23 Sn3 2.156261 1_555
O24 S6 1.474237 1_555
O25 S7 1.492410 1_555
O26 Si6 1.653304 1_555
O27 Si7 1.634875 1_555
O27 Sn4 1.944204 1_555
O28 S8 1.492280 1_555
O28 Sn4 2.117203 1_555
O29 Si8 1.650613 1_555
O29 Sn4 1.972705 1_555
O30 Si8 1.625752 1_555
O30 Sn5 1.951736 1_555
O31 Si7 1.629975 1_555
O31 Sn5 1.985180 1_555
O32 S8 1.467934 1_555
O32 Sn5 2.286763 1_555
O33 S7 1.456405 1_555
O34 Si6 1.623122 1_555
O35 S6 1.484502 1_555
O36 Si8 1.625852 1_555
O37 Si7 1.624965 1_555
O38 S8 1.475447 1_555
O39 S7 1.490313 1_555
O40 Si6 1.637059 1_555
O41 S6 1.476016 1_555
O42 S2 1.502827 1_555
O42 Sn0 2.152614 1_545
O43 S3 1.491360 1_555
O43 Sn0 2.245360 1_445
O44 Si4 1.668495 1_555
O44 Sn0 1.998122 1_555
O45 Si5 1.654925 1_555
O45 Sn1 2.028596 1_655
O46 S4 1.470818 1_555
O46 Sn1 2.349070 1_645
O47 S5 1.481631 1_555
O47 Sn1 2.339721 1_545
O48 Si3 1.641771 1_555
O48 Sn2 2.018521 1_555
O49 Si2 1.636134 1_555
O49 Sn2 2.008926 1_555
O50 S1 1.475044 1_655
O50 Sn2 2.203705 1_555
O51 S0 1.493900 1_555
O52 Si1 1.657833 1_655
O53 Si0 1.643736 1_555
O54 S6 1.504423 1_555
O55 S7 1.496208 1_655
O56 Si6 1.645202 1_545
O57 Si7 1.658636 1_545
O57 Sn3 1.983985 1_555
O58 S8 1.487217 1_555
O58 Sn3 2.160686 1_555
O59 Si8 1.645949 1_655
O59 Sn3 1.964454 1_555
O60 S5 1.492261 1_555
O61 Si5 1.667862 1_455
O62 S4 1.497945 1_565
O63 S3 1.492407 1_565
O63 Sn4 2.200494 1_555
O64 Si4 1.664561 1_555
O64 Sn4 2.040867 1_555
O65 S2 1.479164 1_455
O65 Sn4 2.364647 1_555
O66 Si0 1.637692 1_565
O66 Sn5 1.998138 1_555
O67 S0 1.463652 1_555
O67 Sn5 2.329665 1_555
O68 Si1 1.637702 1_555
O68 Sn5 2.042237 1_555
O69 Si2 1.633490 1_555
O70 S1 1.484731 1_555
O71 Si3 1.653131 1_565
