# generated using pymatgen
data_Fe2BO4
_symmetry_space_group_name_H-M   'P 1'
_cell_length_a   3.17446300
_cell_length_b   9.48519200
_cell_length_c   9.57727500
_cell_angle_alpha   90.00000000
_cell_angle_beta   90.00000000
_cell_angle_gamma   90.00000000
_symmetry_Int_Tables_number   1
_chemical_formula_structural   Fe2BO4
_chemical_formula_sum   'Fe8 B4 O16'
_cell_volume   288.37549546
_cell_formula_units_Z   4
loop_
 _symmetry_equiv_pos_site_id
 _symmetry_equiv_pos_as_xyz
  1  'x, y, z'
loop_
 _atom_site_type_symbol
 _atom_site_label
 _atom_site_symmetry_multiplicity
 _atom_site_fract_x
 _atom_site_fract_y
 _atom_site_fract_z
 _atom_site_occupancy
  Fe  Fe0  1  0.75000000  0.60155100  0.18539900  1
  Fe  Fe1  1  0.75000000  0.61835400  0.56646000  1
  Fe  Fe2  1  0.25000000  0.89844900  0.68539900  1
  Fe  Fe3  1  0.75000000  0.11835400  0.93354000  1
  Fe  Fe4  1  0.25000000  0.38164600  0.43354000  1
  Fe  Fe5  1  0.25000000  0.88164600  0.06646000  1
  Fe  Fe6  1  0.75000000  0.10155100  0.31460100  1
  Fe  Fe7  1  0.25000000  0.39844900  0.81460100  1
  B  B0  1  0.25000000  0.33190500  0.12958500  1
  B  B1  1  0.25000000  0.83190500  0.37041500  1
  B  B2  1  0.75000000  0.66809500  0.87041500  1
  B  B3  1  0.75000000  0.16809500  0.62958500  1
  O  O0  1  0.25000000  0.47428100  0.12767800  1
  O  O1  1  0.75000000  0.52571900  0.87232200  1
  O  O2  1  0.75000000  0.00562900  0.11322900  1
  O  O3  1  0.75000000  0.50562900  0.38677100  1
  O  O4  1  0.25000000  0.49437100  0.61322900  1
  O  O5  1  0.25000000  0.75798900  0.24366600  1
  O  O6  1  0.25000000  0.99437100  0.88677100  1
  O  O7  1  0.75000000  0.02571900  0.62767800  1
  O  O8  1  0.25000000  0.25798900  0.25633400  1
  O  O9  1  0.75000000  0.74201100  0.74366600  1
  O  O10  1  0.25000000  0.75585600  0.49756800  1
  O  O11  1  0.75000000  0.24201100  0.75633400  1
  O  O12  1  0.25000000  0.25585600  0.00243200  1
  O  O13  1  0.75000000  0.24414400  0.50243200  1
  O  O14  1  0.75000000  0.74414400  0.99756800  1
  O  O15  1  0.25000000  0.97428100  0.37232200  1
loop_
_geom_bond_atom_site_label_1
_geom_bond_atom_site_label_2
_geom_bond_distance
_geom_bond_site_symmetry_2
Fe0 O0 2.069345 1_555
Fe0 O0 2.069345 1_655
Fe0 O3 2.132436 1_555
Fe0 O5 2.243325 1_655
Fe0 O5 2.243325 1_555
Fe0 O14 2.250642 1_554
Fe1 O4 2.025566 1_555
Fe1 O4 2.025566 1_655
Fe1 O3 2.026038 1_555
Fe1 O9 2.063017 1_555
Fe1 O10 2.157698 1_655
Fe1 O10 2.157698 1_555
Fe2 O7 2.069345 1_465
Fe2 O7 2.069345 1_565
Fe2 O6 2.132436 1_555
Fe2 O9 2.243325 1_455
Fe2 O9 2.243325 1_555
Fe2 O10 2.250642 1_555
Fe3 O6 2.025566 1_645
Fe3 O6 2.025566 1_545
Fe3 O2 2.026038 1_556
Fe3 O11 2.063017 1_555
Fe3 O12 2.157698 1_556
Fe3 O12 2.157698 1_656
Fe4 O3 2.025566 1_555
Fe4 O3 2.025566 1_455
Fe4 O4 2.026038 1_555
Fe4 O8 2.063017 1_555
Fe4 O13 2.157698 1_555
Fe4 O13 2.157698 1_455
Fe5 O2 2.025566 1_565
Fe5 O2 2.025566 1_465
Fe5 O6 2.026038 1_554
Fe5 O5 2.063017 1_555
Fe5 O14 2.157698 1_454
Fe5 O14 2.157698 1_554
Fe6 O15 2.069345 1_645
Fe6 O15 2.069345 1_545
Fe6 O2 2.132436 1_555
Fe6 O8 2.243325 1_555
Fe6 O8 2.243325 1_655
Fe6 O13 2.250642 1_555
Fe7 O1 2.069345 1_455
Fe7 O1 2.069345 1_555
Fe7 O4 2.132436 1_555
Fe7 O11 2.243325 1_455
Fe7 O11 2.243325 1_555
Fe7 O12 2.250642 1_556
B0 O0 1.350587 1_555
B0 O8 1.401831 1_555
B0 O12 1.415386 1_555
B1 O15 1.350587 1_555
B1 O5 1.401831 1_555
B1 O10 1.415386 1_555
B2 O1 1.350587 1_555
B2 O9 1.401831 1_555
B2 O14 1.415386 1_555
B3 O7 1.350587 1_555
B3 O11 1.401831 1_555
B3 O13 1.415386 1_555
