# generated using pymatgen
data_PRu2
_symmetry_space_group_name_H-M   'P 1'
_cell_length_a   3.86569481
_cell_length_b   5.84423685
_cell_length_c   6.99711164
_cell_angle_alpha   90.00000000
_cell_angle_beta   90.00000000
_cell_angle_gamma   90.00000000
_symmetry_Int_Tables_number   1
_chemical_formula_structural   PRu2
_chemical_formula_sum   'P4 Ru8'
_cell_volume   158.07899848
_cell_formula_units_Z   4
loop_
 _symmetry_equiv_pos_site_id
 _symmetry_equiv_pos_as_xyz
  1  'x, y, z'
loop_
 _atom_site_type_symbol
 _atom_site_label
 _atom_site_symmetry_multiplicity
 _atom_site_fract_x
 _atom_site_fract_y
 _atom_site_fract_z
 _atom_site_occupancy
  P  P0  1  0.25000000  0.74987527  0.38927392  1
  P  P1  1  0.75000000  0.25012473  0.61072608  1
  P  P2  1  0.25000000  0.24987527  0.11072608  1
  P  P3  1  0.75000000  0.75012473  0.88927392  1
  Ru  Ru0  1  0.75000000  0.01317568  0.34991124  1
  Ru  Ru1  1  0.25000000  0.98682432  0.65008876  1
  Ru  Ru2  1  0.75000000  0.51317568  0.15008876  1
  Ru  Ru3  1  0.25000000  0.48682432  0.84991124  1
  Ru  Ru4  1  0.25000000  0.36144774  0.42071217  1
  Ru  Ru5  1  0.75000000  0.63855226  0.57928783  1
  Ru  Ru6  1  0.25000000  0.86144774  0.07928783  1
  Ru  Ru7  1  0.75000000  0.13855226  0.92071217  1
loop_
_geom_bond_atom_site_label_1
_geom_bond_atom_site_label_2
_geom_bond_distance
_geom_bond_site_symmetry_2
P0 Ru6 2.264899 1_555
P0 Ru4 2.280696 1_555
P0 Ru1 2.290868 1_555
P0 Ru5 2.434518 1_455
P0 Ru5 2.434518 1_555
P0 Ru0 2.485887 1_465
P0 Ru0 2.485887 1_565
P0 Ru2 2.906966 1_555
P0 Ru2 2.906966 1_455
P1 Ru7 2.264899 1_555
P1 Ru5 2.280696 1_555
P1 Ru0 2.290868 1_555
P1 Ru4 2.434518 1_555
P1 Ru4 2.434518 1_655
P1 Ru1 2.485887 1_645
P1 Ru1 2.485887 1_545
P1 Ru3 2.906966 1_655
P1 Ru3 2.906966 1_555
P2 Ru4 2.264899 1_555
P2 Ru6 2.280696 1_545
P2 Ru3 2.290868 1_554
P2 Ru7 2.434518 1_554
P2 Ru7 2.434518 1_454
P2 Ru2 2.485887 1_555
P2 Ru2 2.485887 1_455
P2 Ru0 2.906966 1_455
P2 Ru0 2.906966 1_555
P3 Ru5 2.264899 1_555
P3 Ru7 2.280696 1_565
P3 Ru2 2.290868 1_556
P3 Ru6 2.434518 1_656
P3 Ru6 2.434518 1_556
P3 Ru3 2.485887 1_555
P3 Ru3 2.485887 1_655
P3 Ru1 2.906966 1_655
P3 Ru1 2.906966 1_555
