# generated using pymatgen
data_NdSnPd
_symmetry_space_group_name_H-M   'P 1'
_cell_length_a   7.62213416
_cell_length_b   7.62213351
_cell_length_c   4.13431359
_cell_angle_alpha   90.00000000
_cell_angle_beta   90.00000000
_cell_angle_gamma   119.99999831
_symmetry_Int_Tables_number   1
_chemical_formula_structural   NdSnPd
_chemical_formula_sum   'Nd3 Sn3 Pd3'
_cell_volume   208.01142758
_cell_formula_units_Z   3
loop_
 _symmetry_equiv_pos_site_id
 _symmetry_equiv_pos_as_xyz
  1  'x, y, z'
loop_
 _atom_site_type_symbol
 _atom_site_label
 _atom_site_symmetry_multiplicity
 _atom_site_fract_x
 _atom_site_fract_y
 _atom_site_fract_z
 _atom_site_occupancy
  Nd  Nd0  1  0.00000000  0.58862640  -0.00000000  1
  Nd  Nd1  1  0.41137360  0.41137360  0.00000000  1
  Nd  Nd2  1  0.58862640  -0.00000000  0.00000000  1
  Sn  Sn0  1  0.74887309  0.74887309  0.50000000  1
  Sn  Sn1  1  0.00000000  0.25112691  0.50000000  1
  Sn  Sn2  1  0.25112691  -0.00000000  0.50000000  1
  Pd  Pd0  1  0.66666700  0.33333300  0.50000000  1
  Pd  Pd1  1  0.00000000  -0.00000000  0.00000000  1
  Pd  Pd2  1  0.33333300  0.66666700  0.50000000  1
loop_
_geom_bond_atom_site_label_1
_geom_bond_atom_site_label_2
_geom_bond_distance
_geom_bond_site_symmetry_2
Nd0 Pd2 3.093681 1_554
Nd0 Pd2 3.093681 1_555
Nd0 Pd0 3.093683 1_455
Nd0 Pd0 3.093683 1_454
Nd0 Pd1 3.135545 1_565
Nd0 Sn1 3.300109 1_554
Nd0 Sn1 3.300109 1_555
Nd0 Sn2 3.430281 1_564
Nd0 Sn2 3.430281 1_565
Nd0 Sn0 3.430281 1_455
Nd0 Sn0 3.430281 1_454
Nd1 Pd2 3.093687 1_554
Nd1 Pd2 3.093687 1_555
Nd1 Pd0 3.093687 1_555
Nd1 Pd0 3.093687 1_554
Nd1 Pd1 3.135545 1_555
Nd1 Sn0 3.300109 1_555
Nd1 Sn0 3.300109 1_554
Nd1 Sn2 3.430281 1_554
Nd1 Sn2 3.430281 1_555
Nd1 Sn1 3.430281 1_554
Nd1 Sn1 3.430281 1_555
Nd2 Pd0 3.093681 1_555
Nd2 Pd0 3.093681 1_554
Nd2 Pd2 3.093683 1_544
Nd2 Pd2 3.093683 1_545
Nd2 Pd1 3.135545 1_655
Nd2 Sn2 3.300109 1_555
Nd2 Sn2 3.300109 1_554
Nd2 Sn0 3.430281 1_544
Nd2 Sn0 3.430281 1_545
Nd2 Sn1 3.430281 1_654
Nd2 Sn1 3.430281 1_655
Sn0 Sn1 3.315358 1_665
Sn0 Sn2 3.315358 1_665
Sn1 Sn2 3.315358 1_555
Pd0 Sn1 2.905130 1_655
Pd0 Sn2 2.905136 1_555
Pd0 Sn0 2.905138 1_555
Pd1 Sn1 2.817269 1_555
Pd1 Sn1 2.817269 1_554
Pd1 Sn0 2.817269 1_444
Pd1 Sn0 2.817269 1_445
Pd1 Sn2 2.817269 1_555
Pd1 Sn2 2.817269 1_554
Pd2 Sn2 2.905130 1_565
Pd2 Sn1 2.905135 1_555
Pd2 Sn0 2.905138 1_555
