# generated using pymatgen
data_MgMn6O7F5
_symmetry_space_group_name_H-M   'P 1'
_cell_length_a   5.17930608
_cell_length_b   7.92747917
_cell_length_c   5.75268356
_cell_angle_alpha   96.74719046
_cell_angle_beta   98.47832940
_cell_angle_gamma   83.77752387
_symmetry_Int_Tables_number   1
_chemical_formula_structural   MgMn6O7F5
_chemical_formula_sum   'Mg1 Mn6 O7 F5'
_cell_volume   230.99998062
_cell_formula_units_Z   1
loop_
 _symmetry_equiv_pos_site_id
 _symmetry_equiv_pos_as_xyz
  1  'x, y, z'
loop_
 _atom_site_type_symbol
 _atom_site_label
 _atom_site_symmetry_multiplicity
 _atom_site_fract_x
 _atom_site_fract_y
 _atom_site_fract_z
 _atom_site_occupancy
  Mg  Mg0  1  0.01357800  0.49206800  0.00698800  1
  Mn  Mn0  1  0.53138400  0.00997900  0.49238600  1
  Mn  Mn1  1  0.54795300  0.67988400  0.12158000  1
  Mn  Mn2  1  0.49173400  0.32022500  0.83252300  1
  Mn  Mn3  1  0.00200400  0.68137200  0.64423600  1
  Mn  Mn4  1  0.95991400  0.29558100  0.36526600  1
  Mn  Mn5  1  0.96481800  0.98955400  0.00104500  1
  O  O0  1  0.85277900  0.73705500  0.94412500  1
  O  O1  1  0.81584100  0.08361900  0.27333300  1
  O  O2  1  0.70133700  0.10318300  0.79018000  1
  O  O3  1  0.70232600  0.78093600  0.45231800  1
  O  O4  1  0.70226400  0.41845300  0.12913500  1
  O  O5  1  0.30199600  0.55315100  0.85069600  1
  O  O6  1  0.30811400  0.22323000  0.53194600  1
  F  F0  1  0.82669900  0.42814900  0.66578800  1
  F  F1  1  0.29989700  0.91063600  0.20702600  1
  F  F2  1  0.13482000  0.54525700  0.35646000  1
  F  F3  1  0.17474900  0.25327400  0.03378200  1
  F  F4  1  0.18168200  0.91105800  0.74166600  1
loop_
_geom_bond_atom_site_label_1
_geom_bond_atom_site_label_2
_geom_bond_distance
_geom_bond_site_symmetry_2
Mg0 O5 1.982286 1_554
Mg0 O4 2.017062 1_455
Mg0 O0 2.078903 1_454
Mn0 O2 1.911655 1_555
Mn0 O3 1.935775 1_545
Mn0 O6 1.952015 1_555
Mn0 O1 2.237430 1_555
Mn1 O3 2.057462 1_555
Mn1 O5 2.093967 1_554
Mn1 O0 2.116405 1_554
Mn1 O4 2.141894 1_555
Mn2 O2 1.942391 1_555
Mn2 O6 1.961319 1_555
Mn2 O5 1.994452 1_555
Mn2 O4 2.007506 1_556
Mn3 O3 1.919604 1_455
Mn3 O0 1.977035 1_455
Mn3 O5 2.062799 1_555
Mn4 O1 1.899111 1_555
Mn4 O6 1.973791 1_655
Mn4 O4 2.017274 1_555
Mn5 O1 1.887376 1_565
Mn5 O2 1.909795 1_564
Mn5 O0 2.119535 1_554
F0 Mn4 2.082521 1_555
F0 Mg0 2.087740 1_656
F0 Mn3 2.314365 1_655
F0 Mn2 2.380570 1_555
F1 Mn0 2.018176 1_565
F1 Mn5 2.034653 1_455
F1 Mn1 2.168859 1_555
F2 Mg0 2.024792 1_555
F2 Mn3 2.033055 1_555
F2 Mn4 2.273021 1_455
F3 Mg0 1.998053 1_555
F3 Mn2 2.282830 1_554
F3 Mn4 2.319788 1_455
F3 Mn5 2.434812 1_445
F4 Mn5 1.999938 1_456
F4 Mn3 2.114076 1_555
F4 Mn0 2.699985 1_565
