# generated using pymatgen
data_K2Os(Cl2O)2
_symmetry_space_group_name_H-M   'P 1'
_cell_length_a   6.73929149
_cell_length_b   6.73929149
_cell_length_c   6.73929149
_cell_angle_alpha   115.15862991
_cell_angle_beta   115.15862991
_cell_angle_gamma   98.61233983
_symmetry_Int_Tables_number   1
_chemical_formula_structural   K2Os(Cl2O)2
_chemical_formula_sum   'K2 Os1 Cl4 O2'
_cell_volume   229.45855467
_cell_formula_units_Z   1
loop_
 _symmetry_equiv_pos_site_id
 _symmetry_equiv_pos_as_xyz
  1  'x, y, z'
loop_
 _atom_site_type_symbol
 _atom_site_label
 _atom_site_symmetry_multiplicity
 _atom_site_fract_x
 _atom_site_fract_y
 _atom_site_fract_z
 _atom_site_occupancy
  K  K0  1  0.75000000  0.25000000  0.50000000  1
  K  K1  1  0.25000000  0.75000000  0.50000000  1
  Os  Os0  1  0.00000000  0.00000000  0.00000000  1
  Cl  Cl0  1  0.76351200  0.76351200  0.52702300  1
  Cl  Cl1  1  0.23648800  0.23648800  0.47297700  1
  Cl  Cl2  1  0.23648800  0.76351200  0.00000000  1
  Cl  Cl3  1  0.76351200  0.23648800  0.00000000  1
  O  O0  1  0.80015100  0.80015100  0.00000000  1
  O  O1  1  0.19984900  0.19984900  0.00000000  1
loop_
_geom_bond_atom_site_label_1
_geom_bond_atom_site_label_2
_geom_bond_distance
_geom_bond_site_symmetry_2
Cl0 Os0 2.416800 1_666
Cl0 K1 3.372471 1_655
Cl0 K0 3.372471 1_565
Cl0 K0 3.372477 1_555
Cl0 K1 3.372477 1_555
Cl1 Os0 2.416800 1_555
Cl1 K0 3.372471 1_455
Cl1 K1 3.372471 1_545
Cl1 K1 3.372477 1_555
Cl1 K0 3.372477 1_555
Cl2 Os0 2.416795 1_565
Cl2 K0 3.372474 1_454
Cl2 K1 3.372474 1_555
Cl2 K0 3.372474 1_565
Cl2 K1 3.372474 1_554
Cl3 Os0 2.416795 1_655
Cl3 K0 3.372474 1_555
Cl3 K1 3.372474 1_544
Cl3 K1 3.372474 1_655
Cl3 K0 3.372474 1_554
O0 Os0 1.756325 1_665
O1 Os0 1.756325 1_555
