# generated using pymatgen
data_NaGaGeP2SO12
_symmetry_space_group_name_H-M   'P 1'
_cell_length_a   8.41383547
_cell_length_b   8.44049732
_cell_length_c   21.98319015
_cell_angle_alpha   89.42865695
_cell_angle_beta   90.00000000
_cell_angle_gamma   119.89556256
_symmetry_Int_Tables_number   1
_chemical_formula_structural   NaGaGeP2SO12
_chemical_formula_sum   'Na6 Ga6 Ge6 P12 S6 O72'
_cell_volume   1353.35194469
_cell_formula_units_Z   6
loop_
 _symmetry_equiv_pos_site_id
 _symmetry_equiv_pos_as_xyz
  1  'x, y, z'
loop_
 _atom_site_type_symbol
 _atom_site_label
 _atom_site_symmetry_multiplicity
 _atom_site_fract_x
 _atom_site_fract_y
 _atom_site_fract_z
 _atom_site_occupancy
  Na  Na0  1  0.99259059  0.99595364  0.50113936  1
  Na  Na1  1  0.00336305  0.99595364  0.00113936  1
  Na  Na2  1  0.65925759  0.32928664  0.83447236  1
  Na  Na3  1  0.67003005  0.32928664  0.33447236  1
  Na  Na4  1  0.32592359  0.66262064  0.16780636  1
  Na  Na5  1  0.33669605  0.66262064  0.66780636  1
  Ga  Ga0  1  0.99166576  0.00563324  0.64706182  1
  Ga  Ga1  1  0.01396748  0.00563324  0.14706182  1
  Ga  Ga2  1  0.65833276  0.33896624  0.98039482  1
  Ga  Ga3  1  0.68063448  0.33896624  0.48039482  1
  Ga  Ga4  1  0.32499876  0.67230024  0.31372882  1
  Ga  Ga5  1  0.34730048  0.67230024  0.81372882  1
  Ge  Ge0  1  0.99878818  0.00047918  0.35231942  1
  Ge  Ge1  1  0.00169101  0.00047918  0.85231942  1
  Ge  Ge2  1  0.66545518  0.33381218  0.68565242  1
  Ge  Ge3  1  0.66835801  0.33381218  0.18565242  1
  Ge  Ge4  1  0.33212118  0.66714618  0.01898642  1
  Ge  Ge5  1  0.33502401  0.66714618  0.51898642  1
  P  P0  1  0.29109271  0.00279697  0.24978922  1
  P  P1  1  0.00049215  0.28858122  0.24907219  1
  P  P2  1  0.28808907  0.28858122  0.74907219  1
  P  P3  1  0.71170426  0.00279697  0.74978922  1
  P  P4  1  0.95775971  0.33612997  0.58312222  1
  P  P5  1  0.66715915  0.62191422  0.58240519  1
  P  P6  1  0.95475607  0.62191422  0.08240519  1
  P  P7  1  0.37837126  0.33612997  0.08312222  1
  P  P8  1  0.62442571  0.66946397  0.91645622  1
  P  P9  1  0.33382515  0.95524822  0.91573919  1
  P  P10  1  0.62142207  0.95524822  0.41573919  1
  P  P11  1  0.04503726  0.66946397  0.41645622  1
  S  S0  1  0.71026760  0.71058746  0.24924352  1
  S  S1  1  0.00031986  0.71058746  0.74924352  1
  S  S2  1  0.37693460  0.04392046  0.58257652  1
  S  S3  1  0.66698686  0.04392046  0.08257652  1
  S  S4  1  0.04360060  0.37725446  0.91591052  1
  S  S5  1  0.33365286  0.37725446  0.41591052  1
  O  O0  1  0.20806423  0.04022491  0.30788579  1
  O  O1  1  0.82497070  0.78580599  0.30554744  1
  O  O2  1  0.95828876  0.16666884  0.30789600  1
  O  O3  1  0.20838008  0.16666884  0.80789600  1
  O  O4  1  0.96083528  0.78580599  0.80554744  1
  O  O5  1  0.83216068  0.04022491  0.80788579  1
  O  O6  1  0.78950229  0.96323271  0.69348243  1
  O  O7  1  0.17492762  0.20427293  0.69253398  1
  O  O8  1  0.03332492  0.82229001  0.69434289  1
  O  O9  1  0.78896509  0.82229001  0.19434289  1
  O  O10  1  0.02934532  0.20427293  0.19253398  1
  O  O11  1  0.17373043  0.96323271  0.19348243  1
  O  O12  1  0.87473123  0.37355791  0.64121879  1
  O  O13  1  0.49163770  0.11913899  0.63888044  1
  O  O14  1  0.62495576  0.50000184  0.64122900  1
  O  O15  1  0.87504708  0.50000184  0.14122900  1
  O  O16  1  0.62750228  0.11913899  0.13888044  1
  O  O17  1  0.49882768  0.37355791  0.14121879  1
  O  O18  1  0.45616929  0.29656571  0.02681543  1
  O  O19  1  0.84159462  0.53760593  0.02586698  1
  O  O20  1  0.69999192  0.15562301  0.02767589  1
  O  O21  1  0.45563209  0.15562301  0.52767589  1
  O  O22  1  0.69601232  0.53760593  0.52586698  1
  O  O23  1  0.84039743  0.29656571  0.52681543  1
  O  O24  1  0.54139723  0.70689191  0.97455279  1
  O  O25  1  0.15830370  0.45247299  0.97221444  1
  O  O26  1  0.29162176  0.83333584  0.97456300  1
  O  O27  1  0.54171308  0.83333584  0.47456300  1
  O  O28  1  0.29416828  0.45247299  0.47221444  1
  O  O29  1  0.16549368  0.70689191  0.47455279  1
  O  O30  1  0.12283529  0.62989971  0.36014943  1
  O  O31  1  0.50826062  0.87093993  0.35920098  1
  O  O32  1  0.36665792  0.48895701  0.36100989  1
  O  O33  1  0.12229809  0.48895701  0.86100989  1
  O  O34  1  0.36267832  0.87093993  0.85920098  1
  O  O35  1  0.50706343  0.62989971  0.86014943  1
  O  O36  1  0.02911180  0.84573914  0.40903779  1
  O  O37  1  0.81607371  0.97390106  0.40950354  1
  O  O38  1  0.16420764  0.19280315  0.41108127  1
  O  O39  1  0.02859551  0.19280315  0.91108127  1
  O  O40  1  0.15782735  0.97390106  0.90950354  1
  O  O41  1  0.81662734  0.84573914  0.90903779  1
  O  O42  1  0.98262111  0.16971641  0.58929223  1
  O  O43  1  0.19389467  0.02189262  0.59027573  1
  O  O44  1  0.83742855  0.80942051  0.59049534  1
  O  O45  1  0.97199196  0.80942051  0.09049534  1
  O  O46  1  0.82799795  0.02189262  0.09027573  1
  O  O47  1  0.18709531  0.16971641  0.08929223  1
  O  O48  1  0.69577880  0.17907214  0.74237079  1
  O  O49  1  0.48274071  0.30723406  0.74283654  1
  O  O50  1  0.83087464  0.52613615  0.74441427  1
  O  O51  1  0.69526251  0.52613615  0.24441427  1
  O  O52  1  0.82449435  0.30723406  0.24283654  1
  O  O53  1  0.48329434  0.17907214  0.24237079  1
  O  O54  1  0.64928811  0.50304941  0.92262523  1
  O  O55  1  0.86056167  0.35522562  0.92360873  1
  O  O56  1  0.50409555  0.14275351  0.92382834  1
  O  O57  1  0.63865896  0.14275351  0.42382834  1
  O  O58  1  0.49466495  0.35522562  0.42360873  1
  O  O59  1  0.85376231  0.50304941  0.42262523  1
  O  O60  1  0.36244480  0.51240614  0.07570479  1
  O  O61  1  0.14940671  0.64056806  0.07617054  1
  O  O62  1  0.49754064  0.85947015  0.07774827  1
  O  O63  1  0.36192851  0.85947015  0.57774827  1
  O  O64  1  0.49116035  0.64056806  0.57617054  1
  O  O65  1  0.14996034  0.51240614  0.57570479  1
  O  O66  1  0.31595411  0.83638341  0.25595923  1
  O  O67  1  0.52722767  0.68855962  0.25694273  1
  O  O68  1  0.17076155  0.47608751  0.25716234  1
  O  O69  1  0.30532496  0.47608751  0.75716234  1
  O  O70  1  0.16133095  0.68855962  0.75694273  1
  O  O71  1  0.52042831  0.83638341  0.75595923  1
loop_
_geom_bond_atom_site_label_1
_geom_bond_atom_site_label_2
_geom_bond_distance
_geom_bond_site_symmetry_2
Na0 O44 2.435397 1_555
Na0 O37 2.455672 1_555
Na0 O42 2.468356 1_565
Na0 O36 2.498174 1_655
Na0 O38 2.511557 1_665
Na0 O43 2.528881 1_665
Na1 O45 2.435397 1_455
Na1 O40 2.455672 1_554
Na1 O47 2.468356 1_565
Na1 O41 2.498174 1_454
Na1 O39 2.511557 1_564
Na1 O46 2.528881 1_465
Na2 O56 2.435397 1_555
Na2 O49 2.455672 1_555
Na2 O54 2.468356 1_555
Na2 O48 2.498174 1_555
Na2 O50 2.511557 1_555
Na2 O55 2.528881 1_555
Na3 O57 2.435397 1_555
Na3 O52 2.455672 1_555
Na3 O59 2.468356 1_555
Na3 O53 2.498174 1_555
Na3 O51 2.511557 1_555
Na3 O58 2.528881 1_555
Na4 O68 2.435397 1_555
Na4 O61 2.455672 1_555
Na4 O66 2.468356 1_555
Na4 O60 2.498174 1_555
Na4 O62 2.511557 1_555
Na4 O67 2.528881 1_555
Na5 O69 2.435397 1_555
Na5 O64 2.455672 1_555
Na5 O71 2.468356 1_555
Na5 O65 2.498174 1_555
Na5 O63 2.511557 1_555
Na5 O70 2.528881 1_555
Ga0 O6 1.857051 1_545
Ga0 O42 1.899116 1_555
Ga0 O7 1.908982 1_655
Ga0 O44 1.967700 1_545
Ga0 O8 2.026475 1_645
Ga0 O43 2.058195 1_655
Ga1 O11 1.857051 1_545
Ga1 O47 1.899116 1_555
Ga1 O10 1.908982 1_555
Ga1 O45 1.967700 1_445
Ga1 O9 2.026475 1_445
Ga1 O46 2.058195 1_455
Ga2 O18 1.857051 1_556
Ga2 O54 1.899116 1_555
Ga2 O19 1.908982 1_556
Ga2 O56 1.967700 1_555
Ga2 O20 2.026475 1_556
Ga2 O55 2.058195 1_555
Ga3 O23 1.857051 1_555
Ga3 O59 1.899116 1_555
Ga3 O22 1.908982 1_555
Ga3 O57 1.967700 1_555
Ga3 O21 2.026475 1_555
Ga3 O58 2.058195 1_555
Ga4 O30 1.857051 1_555
Ga4 O66 1.899116 1_555
Ga4 O31 1.908982 1_555
Ga4 O68 1.967700 1_555
Ga4 O32 2.026475 1_555
Ga4 O67 2.058195 1_555
Ga5 O35 1.857051 1_555
Ga5 O71 1.899116 1_555
Ga5 O34 1.908982 1_555
Ga5 O69 1.967700 1_555
Ga5 O33 2.026475 1_555
Ga5 O70 2.058195 1_555
Ge0 O2 1.867241 1_555
Ge0 O0 1.889909 1_655
Ge0 O36 1.904018 1_645
Ge0 O37 1.909076 1_545
Ge0 O1 1.968444 1_545
Ge0 O38 2.007627 1_655
Ge1 O3 1.867241 1_555
Ge1 O5 1.889910 1_455
Ge1 O41 1.904018 1_445
Ge1 O40 1.909076 1_545
Ge1 O4 1.968444 1_445
Ge1 O39 2.007627 1_555
Ge2 O14 1.867241 1_555
Ge2 O12 1.889909 1_555
Ge2 O48 1.904018 1_555
Ge2 O49 1.909076 1_555
Ge2 O13 1.968444 1_555
Ge2 O50 2.007627 1_555
Ge3 O15 1.867241 1_555
Ge3 O17 1.889910 1_555
Ge3 O53 1.904018 1_555
Ge3 O52 1.909076 1_555
Ge3 O16 1.968444 1_555
Ge3 O51 2.007627 1_555
Ge4 O26 1.867241 1_554
Ge4 O24 1.889909 1_554
Ge4 O60 1.904018 1_555
Ge4 O61 1.909076 1_555
Ge4 O25 1.968444 1_554
Ge4 O62 2.007627 1_555
Ge5 O27 1.867241 1_555
Ge5 O29 1.889910 1_555
Ge5 O65 1.904018 1_555
Ge5 O64 1.909076 1_555
Ge5 O28 1.968444 1_555
Ge5 O63 2.007627 1_555
O0 P0 1.564280 1_555
O1 S0 1.507105 1_555
O2 P1 1.570464 1_655
O3 P2 1.570464 1_555
O4 S1 1.507105 1_655
O5 P3 1.564280 1_555
O6 P3 1.516012 1_565
O7 P2 1.516554 1_555
O8 S1 1.462509 1_555
O9 S0 1.462509 1_555
O10 P1 1.516555 1_555
O11 P0 1.516012 1_565
O12 P4 1.564280 1_555
O13 S2 1.507105 1_555
O14 P5 1.570464 1_555
O15 P6 1.570464 1_555
O16 S3 1.507105 1_555
O17 P7 1.564280 1_555
O18 P7 1.516012 1_555
O19 P6 1.516554 1_555
O20 S3 1.462509 1_555
O21 S2 1.462509 1_555
O22 P5 1.516555 1_555
O23 P4 1.516012 1_555
O24 P8 1.564280 1_555
O25 S4 1.507105 1_555
O26 P9 1.570464 1_555
O27 P10 1.570464 1_555
O28 S5 1.507105 1_555
O29 P11 1.564280 1_555
O30 P11 1.516012 1_555
O31 P10 1.516554 1_555
O32 S5 1.462509 1_555
O33 S4 1.462509 1_555
O34 P9 1.516555 1_555
O35 P8 1.516012 1_555
O36 P11 1.565932 1_555
O37 P10 1.571112 1_555
O38 S5 1.502790 1_555
O39 S4 1.502793 1_555
O40 P9 1.571104 1_555
O41 P8 1.565936 1_555
O42 P4 1.524526 1_555
O43 S2 1.465934 1_555
O44 P5 1.527823 1_555
O45 P6 1.527826 1_555
O46 S3 1.465926 1_555
O47 P7 1.524531 1_555
O48 P3 1.565932 1_555
O49 P2 1.571112 1_555
O50 S1 1.502790 1_655
O51 S0 1.502793 1_555
O52 P1 1.571104 1_655
O53 P0 1.565936 1_555
O54 P8 1.524538 1_555
O55 S4 1.465920 1_655
O56 P9 1.527819 1_545
O57 P10 1.527812 1_545
O58 S5 1.465936 1_555
O59 P11 1.524528 1_655
O60 P7 1.565943 1_555
O61 P6 1.571098 1_455
O62 S3 1.502787 1_565
O63 S2 1.502780 1_565
O64 P5 1.571115 1_555
O65 P4 1.565933 1_455
O66 P0 1.524526 1_565
O67 S0 1.465934 1_555
O68 P1 1.527823 1_555
O69 P2 1.527826 1_555
O70 S1 1.465926 1_555
O71 P3 1.524531 1_565
