# generated using pymatgen
data_BaCu2Si2O7
_symmetry_space_group_name_H-M   'P 1'
_cell_length_a   6.94281600
_cell_length_b   7.05304700
_cell_length_c   13.19087100
_cell_angle_alpha   90.00000000
_cell_angle_beta   90.00000000
_cell_angle_gamma   90.00000000
_symmetry_Int_Tables_number   1
_chemical_formula_structural   BaCu2Si2O7
_chemical_formula_sum   'Ba4 Cu8 Si8 O28'
_cell_volume   645.93067086
_cell_formula_units_Z   4
loop_
 _symmetry_equiv_pos_site_id
 _symmetry_equiv_pos_as_xyz
  1  'x, y, z'
loop_
 _atom_site_type_symbol
 _atom_site_label
 _atom_site_symmetry_multiplicity
 _atom_site_fract_x
 _atom_site_fract_y
 _atom_site_fract_z
 _atom_site_occupancy
  Ba  Ba0  1  0.98614300  0.95998300  0.75000000  1
  Ba  Ba1  1  0.48614300  0.54001700  0.75000000  1
  Ba  Ba2  1  0.51385700  0.45998300  0.25000000  1
  Ba  Ba3  1  0.01385700  0.04001700  0.25000000  1
  Cu  Cu0  1  0.77915200  0.20817700  0.49527100  1
  Cu  Cu1  1  0.27915200  0.29182300  0.00472900  1
  Cu  Cu2  1  0.72084800  0.70817700  0.50472900  1
  Cu  Cu3  1  0.22084800  0.79182300  0.99527100  1
  Cu  Cu4  1  0.22084800  0.79182300  0.50472900  1
  Cu  Cu5  1  0.72084800  0.70817700  0.99527100  1
  Cu  Cu6  1  0.27915200  0.29182300  0.49527100  1
  Cu  Cu7  1  0.77915200  0.20817700  0.00472900  1
  Si  Si0  1  0.00126300  0.52487500  0.36683900  1
  Si  Si1  1  0.50126300  0.97512500  0.13316100  1
  Si  Si2  1  0.49873700  0.02487500  0.63316100  1
  Si  Si3  1  0.99873700  0.47512500  0.86683900  1
  Si  Si4  1  0.99873700  0.47512500  0.63316100  1
  Si  Si5  1  0.49873700  0.02487500  0.86683900  1
  Si  Si6  1  0.50126300  0.97512500  0.36683900  1
  Si  Si7  1  0.00126300  0.52487500  0.13316100  1
  O  O0  1  0.81840300  0.46893300  0.44318400  1
  O  O1  1  0.31840300  0.03106700  0.05681600  1
  O  O2  1  0.68159700  0.96893300  0.55681600  1
  O  O3  1  0.18159700  0.53106700  0.94318400  1
  O  O4  1  0.18159700  0.53106700  0.55681600  1
  O  O5  1  0.68159700  0.96893300  0.94318400  1
  O  O6  1  0.31840300  0.03106700  0.44318400  1
  O  O7  1  0.81840300  0.46893300  0.05681600  1
  O  O8  1  0.07015400  0.74342200  0.38497300  1
  O  O9  1  0.57015400  0.75657800  0.11502700  1
  O  O10  1  0.42984600  0.24342200  0.61502700  1
  O  O11  1  0.92984600  0.25657800  0.88497300  1
  O  O12  1  0.92984600  0.25657800  0.61502700  1
  O  O13  1  0.42984600  0.24342200  0.88497300  1
  O  O14  1  0.57015400  0.75657800  0.38497300  1
  O  O15  1  0.07015400  0.74342200  0.11502700  1
  O  O16  1  0.17146500  0.36355300  0.36569200  1
  O  O17  1  0.67146500  0.13644700  0.13430800  1
  O  O18  1  0.32853500  0.86355300  0.63430800  1
  O  O19  1  0.82853500  0.63644700  0.86569200  1
  O  O20  1  0.90552700  0.51475800  0.25000000  1
  O  O21  1  0.40552700  0.98524200  0.25000000  1
  O  O22  1  0.59447300  0.01475800  0.75000000  1
  O  O23  1  0.09447300  0.48524200  0.75000000  1
  O  O24  1  0.17146500  0.36355300  0.13430800  1
  O  O25  1  0.67146500  0.13644700  0.36569200  1
  O  O26  1  0.32853500  0.86355300  0.86569200  1
  O  O27  1  0.82853500  0.63644700  0.63430800  1
loop_
_geom_bond_atom_site_label_1
_geom_bond_atom_site_label_2
_geom_bond_distance
_geom_bond_site_symmetry_2
Ba0 O22 2.746599 1_565
Ba0 O11 2.774649 1_565
Ba0 O12 2.774649 1_565
Ba0 O26 2.905580 1_655
Ba0 O18 2.905580 1_655
Ba0 O19 2.955236 1_555
Ba0 O27 2.955236 1_555
Ba1 O23 2.746599 1_555
Ba1 O13 2.774649 1_555
Ba1 O10 2.774649 1_555
Ba1 O19 2.905580 1_555
Ba1 O27 2.905580 1_555
Ba1 O26 2.955236 1_555
Ba1 O18 2.955236 1_555
Ba2 O20 2.746599 1_555
Ba2 O14 2.774649 1_555
Ba2 O9 2.774649 1_555
Ba2 O16 2.905580 1_555
Ba2 O24 2.905580 1_555
Ba2 O25 2.955236 1_555
Ba2 O17 2.955236 1_555
Ba3 O21 2.746599 1_545
Ba3 O8 2.774649 1_545
Ba3 O15 2.774649 1_545
Ba3 O25 2.905580 1_455
Ba3 O17 2.905580 1_455
Ba3 O16 2.955236 1_555
Ba3 O24 2.955236 1_555
Cu0 O12 1.925244 1_555
Cu0 O25 1.933003 1_555
Cu0 O0 1.982097 1_555
Cu0 O2 1.991264 1_545
Cu1 O13 1.925244 1_554
Cu1 O24 1.933003 1_555
Cu1 O1 1.982097 1_555
Cu1 O3 1.991264 1_554
Cu2 O14 1.925244 1_555
Cu2 O27 1.933003 1_555
Cu2 O2 1.982097 1_555
Cu2 O0 1.991264 1_555
Cu3 O15 1.925244 1_556
Cu3 O26 1.933003 1_555
Cu3 O3 1.982097 1_555
Cu3 O1 1.991264 1_566
Cu4 O8 1.925244 1_555
Cu4 O18 1.933003 1_555
Cu4 O4 1.982097 1_555
Cu4 O6 1.991264 1_565
Cu5 O9 1.925244 1_556
Cu5 O19 1.933003 1_555
Cu5 O5 1.982097 1_555
Cu5 O7 1.991264 1_556
Cu6 O10 1.925244 1_555
Cu6 O16 1.933003 1_555
Cu6 O6 1.982097 1_555
Cu6 O4 1.991264 1_555
Cu7 O11 1.925244 1_554
Cu7 O17 1.933003 1_555
Cu7 O7 1.982097 1_555
Cu7 O5 1.991264 1_544
O0 Si0 1.667823 1_655
O1 Si1 1.667823 1_545
O2 Si2 1.667823 1_565
O3 Si3 1.667823 1_455
O4 Si4 1.667823 1_455
O5 Si5 1.667823 1_565
O6 Si6 1.667823 1_545
O7 Si7 1.667823 1_655
O8 Si0 1.631554 1_555
O9 Si1 1.631554 1_555
O10 Si2 1.631554 1_555
O11 Si3 1.631554 1_555
O12 Si4 1.631554 1_555
O13 Si5 1.631554 1_555
O14 Si6 1.631554 1_555
O15 Si7 1.631554 1_555
O16 Si0 1.640492 1_555
O17 Si1 1.640492 1_545
O18 Si2 1.640492 1_565
O19 Si3 1.640492 1_555
O20 Si0 1.679944 1_655
O20 Si7 1.679944 1_655
O21 Si6 1.679944 1_555
O21 Si1 1.679944 1_555
O22 Si5 1.679944 1_555
O22 Si2 1.679944 1_555
O23 Si3 1.679944 1_455
O23 Si4 1.679944 1_455
O24 Si7 1.640492 1_555
O25 Si6 1.640492 1_545
O26 Si5 1.640492 1_565
O27 Si4 1.640492 1_555
