# generated using pymatgen
data_Ni(PO3)4
_symmetry_space_group_name_H-M   'P 1'
_cell_length_a   10.61704687
_cell_length_b   10.61704687
_cell_length_c   5.17517660
_cell_angle_alpha   82.77537684
_cell_angle_beta   82.77537684
_cell_angle_gamma   71.89521953
_symmetry_Int_Tables_number   1
_chemical_formula_structural   Ni(PO3)4
_chemical_formula_sum   'Ni2 P8 O24'
_cell_volume   547.74154434
_cell_formula_units_Z   2
loop_
 _symmetry_equiv_pos_site_id
 _symmetry_equiv_pos_as_xyz
  1  'x, y, z'
loop_
 _atom_site_type_symbol
 _atom_site_label
 _atom_site_symmetry_multiplicity
 _atom_site_fract_x
 _atom_site_fract_y
 _atom_site_fract_z
 _atom_site_occupancy
  Ni  Ni0  1  0.00000000  0.50000000  0.50000000  1
  Ni  Ni1  1  0.50000000  0.00000000  0.50000000  1
  P  P0  1  0.93758000  0.69711100  0.97129500  1
  P  P1  1  0.35617000  0.79609400  0.32279700  1
  P  P2  1  0.20390600  0.64383000  0.67720300  1
  P  P3  1  0.64383000  0.20390600  0.67720300  1
  P  P4  1  0.06242000  0.30288900  0.02870500  1
  P  P5  1  0.30288900  0.06242000  0.02870500  1
  P  P6  1  0.69711100  0.93758000  0.97129500  1
  P  P7  1  0.79609400  0.35617000  0.32279700  1
  O  O0  1  0.84620600  0.84620600  0.89676000  1
  O  O1  1  0.83212200  0.44287500  0.49244700  1
  O  O2  1  0.16787800  0.55712500  0.50755300  1
  O  O3  1  0.55712500  0.16787800  0.50755300  1
  O  O4  1  0.22748600  0.77251400  0.50000000  1
  O  O5  1  0.77251400  0.22748600  0.50000000  1
  O  O6  1  0.06976200  0.32905800  0.73473300  1
  O  O7  1  0.32905800  0.06976200  0.73473300  1
  O  O8  1  0.32183600  0.57066600  0.83071900  1
  O  O9  1  0.57066600  0.32183600  0.83071900  1
  O  O10  1  0.07900700  0.72135400  0.86318000  1
  O  O11  1  0.72135400  0.07900700  0.86318000  1
  O  O12  1  0.15379400  0.15379400  0.10324000  1
  O  O13  1  0.60212000  0.90964700  0.81702000  1
  O  O14  1  0.90964700  0.60212000  0.81702000  1
  O  O15  1  0.93023800  0.67094200  0.26526700  1
  O  O16  1  0.39788000  0.09035300  0.18298000  1
  O  O17  1  0.44287500  0.83212200  0.49244700  1
  O  O18  1  0.27864600  0.92099300  0.13682000  1
  O  O19  1  0.92099300  0.27864600  0.13682000  1
  O  O20  1  0.42933400  0.67816400  0.16928100  1
  O  O21  1  0.67816400  0.42933400  0.16928100  1
  O  O22  1  0.67094200  0.93023800  0.26526700  1
  O  O23  1  0.09035300  0.39788000  0.18298000  1
loop_
_geom_bond_atom_site_label_1
_geom_bond_atom_site_label_2
_geom_bond_distance
_geom_bond_site_symmetry_2
Ni0 O6 2.038251 1_555
Ni0 O15 2.038251 1_455
Ni0 O14 2.047574 1_455
Ni0 O23 2.047574 1_555
Ni0 O1 2.059502 1_455
Ni0 O2 2.059502 1_555
Ni1 O7 2.038251 1_555
Ni1 O22 2.038251 1_545
Ni1 O16 2.047574 1_555
Ni1 O13 2.047574 1_545
Ni1 O17 2.059502 1_545
Ni1 O3 2.059502 1_555
O0 P6 1.606789 1_555
O0 P0 1.606789 1_555
O1 P7 1.507035 1_555
O2 P2 1.507035 1_555
O3 P3 1.507035 1_555
O4 P1 1.615547 1_555
O4 P2 1.615547 1_555
O5 P7 1.615547 1_555
O5 P3 1.615547 1_555
O6 P4 1.508348 1_556
O7 P5 1.508348 1_556
O8 P2 1.514185 1_555
O9 P3 1.514185 1_555
O10 P2 1.600660 1_555
O10 P0 1.620675 1_455
O11 P3 1.600660 1_555
O11 P6 1.620675 1_545
O12 P5 1.606789 1_555
O12 P4 1.606789 1_555
O13 P6 1.480028 1_555
O14 P0 1.480028 1_555
O15 P0 1.508348 1_554
O16 P5 1.480028 1_555
O17 P1 1.507035 1_555
O18 P1 1.600660 1_555
O18 P5 1.620675 1_565
O19 P7 1.600660 1_555
O19 P4 1.620675 1_655
O20 P1 1.514185 1_555
O21 P7 1.514185 1_555
O22 P6 1.508348 1_554
O23 P4 1.480028 1_555
