# generated using pymatgen
data_Na3Hf2SiSn2P5O24
_symmetry_space_group_name_H-M   'P 1'
_cell_length_a   8.88445807
_cell_length_b   8.85572210
_cell_length_c   22.93046164
_cell_angle_alpha   90.10624005
_cell_angle_beta   89.89322750
_cell_angle_gamma   119.92575754
_symmetry_Int_Tables_number   1
_chemical_formula_structural   Na3Hf2SiSn2P5O24
_chemical_formula_sum   'Na9 Hf6 Si3 Sn6 P15 O72'
_cell_volume   1563.58597778
_cell_formula_units_Z   3
loop_
 _symmetry_equiv_pos_site_id
 _symmetry_equiv_pos_as_xyz
  1  'x, y, z'
loop_
 _atom_site_type_symbol
 _atom_site_label
 _atom_site_symmetry_multiplicity
 _atom_site_fract_x
 _atom_site_fract_y
 _atom_site_fract_z
 _atom_site_occupancy
  Na  Na0  1  0.36633862  0.00015135  0.74959369  1
  Na  Na1  1  0.66446285  0.97022380  0.58519903  1
  Na  Na2  1  0.67003958  0.69555621  0.08286644  1
  Na  Na3  1  0.01328780  0.00055722  0.49926439  1
  Na  Na4  1  0.01017728  0.00556682  0.00021086  1
  Na  Na5  1  0.67588940  0.33870488  0.83384027  1
  Na  Na6  1  0.66661517  0.33323244  0.33318867  1
  Na  Na7  1  0.32024029  0.66565433  0.16712744  1
  Na  Na8  1  0.32866991  0.65585058  0.66645534  1
  Hf  Hf0  1  0.99405693  0.99994941  0.85415358  1
  Hf  Hf1  1  0.00208695  0.99904995  0.64752060  1
  Hf  Hf2  1  0.66920309  0.33246271  0.68551586  1
  Hf  Hf3  1  0.67187735  0.33522974  0.18713701  1
  Hf  Hf4  1  0.67013831  0.33593617  0.98052432  1
  Hf  Hf5  1  0.66178460  0.33192706  0.47873764  1
  Si  Si0  1  0.70506799  0.99754101  0.74962770  1
  Si  Si1  1  0.37038839  0.03795683  0.58239253  1
  Si  Si2  1  0.96392569  0.62845124  0.08397254  1
  Sn  Sn0  1  0.00058367  0.99993121  0.35250790  1
  Sn  Sn1  1  0.00564009  0.00256684  0.14881648  1
  Sn  Sn2  1  0.32686957  0.66679939  0.01896035  1
  Sn  Sn3  1  0.32895494  0.66518529  0.51747312  1
  Sn  Sn4  1  0.33288183  0.66678989  0.31399918  1
  Sn  Sn5  1  0.33547833  0.66460925  0.81505788  1
  P  P0  1  0.29084442  0.99851493  0.25123939  1
  P  P1  1  0.70703302  0.71036583  0.25044642  1
  P  P2  1  0.00233646  0.29083097  0.25103724  1
  P  P3  1  0.28914053  0.29310590  0.75080999  1
  P  P4  1  0.99952240  0.70740583  0.75177568  1
  P  P5  1  0.96075788  0.33733276  0.58196090  1
  P  P6  1  0.66434640  0.62313027  0.58218244  1
  P  P7  1  0.66765575  0.04183004  0.08362427  1
  P  P8  1  0.37421959  0.33141959  0.08320146  1
  P  P9  1  0.62201606  0.66525172  0.91823208  1
  P  P10  1  0.04494558  0.37813314  0.91657161  1
  P  P11  1  0.33352165  0.95891969  0.91597800  1
  P  P12  1  0.62651540  0.95628702  0.41595558  1
  P  P13  1  0.33058859  0.37576198  0.41541534  1
  P  P14  1  0.04302880  0.66863725  0.41523278  1
  O  O0  1  0.21027288  0.03117617  0.30615380  1
  O  O1  1  0.82224242  0.79276277  0.30452510  1
  O  O2  1  0.96998339  0.17822544  0.30588494  1
  O  O3  1  0.20804308  0.17500898  0.80460457  1
  O  O4  1  0.97712425  0.79590160  0.80605095  1
  O  O5  1  0.82663796  0.02508536  0.80598941  1
  O  O6  1  0.78952445  0.96970781  0.69009475  1
  O  O7  1  0.17794870  0.20573869  0.69619622  1
  O  O8  1  0.03583407  0.82602719  0.69754239  1
  O  O9  1  0.78406505  0.81938032  0.19372663  1
  O  O10  1  0.03495185  0.21147324  0.19540141  1
  O  O11  1  0.17790297  0.96412011  0.19593303  1
  O  O12  1  0.87639064  0.36549265  0.63699390  1
  O  O13  1  0.49232274  0.12306860  0.64100772  1
  O  O14  1  0.63930918  0.51321383  0.63716102  1
  O  O15  1  0.86756809  0.50741706  0.14070692  1
  O  O16  1  0.63658289  0.12445143  0.13799796  1
  O  O17  1  0.48973827  0.36230878  0.13735265  1
  O  O18  1  0.45807341  0.30282112  0.02848678  1
  O  O19  1  0.83581927  0.53922406  0.02766940  1
  O  O20  1  0.69211045  0.15216389  0.02891836  1
  O  O21  1  0.47005584  0.16042092  0.52642756  1
  O  O22  1  0.69390327  0.53962194  0.52782248  1
  O  O23  1  0.84437735  0.30647198  0.52830609  1
  O  O24  1  0.54453885  0.69678484  0.97478740  1
  O  O25  1  0.15800968  0.45692987  0.97143540  1
  O  O26  1  0.30220053  0.84381334  0.97030654  1
  O  O27  1  0.54976809  0.84765056  0.47271710  1
  O  O28  1  0.29818105  0.45497602  0.47112825  1
  O  O29  1  0.15554150  0.70268832  0.47063149  1
  O  O30  1  0.12372946  0.63607587  0.36040668  1
  O  O31  1  0.51107975  0.87353181  0.36201832  1
  O  O32  1  0.36288828  0.48844463  0.36064908  1
  O  O33  1  0.12325792  0.49041221  0.86121996  1
  O  O34  1  0.36373404  0.88051471  0.85915704  1
  O  O35  1  0.50846717  0.63320393  0.86364105  1
  O  O36  1  0.02583397  0.83468329  0.41017272  1
  O  O37  1  0.80878417  0.97317745  0.41033896  1
  O  O38  1  0.16626264  0.19220954  0.41042092  1
  O  O39  1  0.02754905  0.19669116  0.91060625  1
  O  O40  1  0.17069838  0.97698900  0.91037679  1
  O  O41  1  0.80381164  0.82796772  0.91177948  1
  O  O42  1  0.96996639  0.16813658  0.58906686  1
  O  O43  1  0.17942492  0.01723836  0.58816172  1
  O  O44  1  0.82324296  0.80927312  0.58855565  1
  O  O45  1  0.96992984  0.81750176  0.08944690  1
  O  O46  1  0.83085917  0.02106079  0.08980765  1
  O  O47  1  0.19042959  0.17214669  0.08919478  1
  O  O48  1  0.67882765  0.16853918  0.74553739  1
  O  O49  1  0.47060190  0.31008152  0.74331783  1
  O  O50  1  0.83701076  0.52810687  0.74432112  1
  O  O51  1  0.68630050  0.52721376  0.24411349  1
  O  O52  1  0.83822619  0.30788038  0.24451643  1
  O  O53  1  0.47191063  0.16067287  0.24401690  1
  O  O54  1  0.63933301  0.50078928  0.92329164  1
  O  O55  1  0.86259617  0.35795254  0.92325010  1
  O  O56  1  0.49782512  0.13950790  0.92275940  1
  O  O57  1  0.64715442  0.13934862  0.42200752  1
  O  O58  1  0.49452113  0.35836805  0.42162820  1
  O  O59  1  0.86196757  0.50653141  0.42213525  1
  O  O60  1  0.36850723  0.50418155  0.07712734  1
  O  O61  1  0.15526115  0.64671185  0.07934577  1
  O  O62  1  0.50981026  0.85337253  0.07737359  1
  O  O63  1  0.36586632  0.84983971  0.57701403  1
  O  O64  1  0.50171936  0.64478864  0.57622215  1
  O  O65  1  0.14362744  0.49744385  0.57675162  1
  O  O66  1  0.30792235  0.83249732  0.25642580  1
  O  O67  1  0.52481668  0.69332891  0.25622312  1
  O  O68  1  0.16665060  0.47423040  0.25616277  1
  O  O69  1  0.30434822  0.47324286  0.75621992  1
  O  O70  1  0.16672247  0.69340558  0.75682796  1
  O  O71  1  0.50700419  0.82843438  0.75528966  1
loop_
_geom_bond_atom_site_label_1
_geom_bond_atom_site_label_2
_geom_bond_distance
_geom_bond_site_symmetry_2
Na0 O70 2.397017 1_545
Na0 O71 2.406011 1_545
Na0 O48 2.410183 1_555
Na0 O49 2.424078 1_555
Na0 O34 2.723976 1_545
Na0 O13 2.724236 1_555
Na0 O8 2.813018 1_545
Na0 O3 2.850596 1_555
Na1 O63 2.321369 1_555
Na1 O42 2.387597 1_565
Na1 O44 2.456520 1_555
Na1 O64 2.505982 1_555
Na1 O6 2.652385 1_555
Na1 O27 2.786577 1_555
Na1 O13 2.803654 1_565
Na1 O23 2.895061 1_565
Na2 O45 2.327634 1_555
Na2 O60 2.353043 1_555
Na2 O62 2.445805 1_555
Na2 O46 2.503163 1_565
Na2 O24 2.721735 1_554
Na2 O9 2.753496 1_555
Na2 O19 2.776512 1_555
Na2 O17 2.850564 1_555
Na3 O43 2.479588 1_555
Na3 O36 2.548544 1_545
Na3 O38 2.564950 1_555
Na3 O44 2.656840 1_445
Na3 O37 2.662759 1_445
Na3 O42 2.673289 1_455
Na4 O45 2.550361 1_445
Na4 O47 2.558924 1_555
Na4 O40 2.586214 1_544
Na4 O39 2.619407 1_554
Na4 O46 2.642489 1_455
Na4 O41 2.659305 1_444
Na5 O48 2.529665 1_555
Na5 O50 2.585010 1_555
Na5 O55 2.590996 1_555
Na5 O54 2.612429 1_555
Na5 O56 2.643628 1_555
Na5 O49 2.692629 1_555
Na6 O58 2.612707 1_555
Na6 O52 2.614882 1_555
Na6 O57 2.615598 1_555
Na6 O51 2.620199 1_555
Na6 O59 2.621345 1_555
Na6 O53 2.621576 1_555
Na7 O61 2.447988 1_555
Na7 O66 2.556792 1_555
Na7 O68 2.568732 1_555
Na7 O62 2.653700 1_555
Na7 O60 2.661821 1_555
Na7 O67 2.665514 1_555
Na8 O69 2.561365 1_555
Na8 O71 2.565153 1_555
Na8 O65 2.569534 1_555
Na8 O63 2.590531 1_555
Na8 O64 2.606174 1_555
Na8 O70 2.634187 1_555
Hf0 O5 1.954260 1_565
Hf0 O4 2.055842 1_555
Hf0 O39 2.067755 1_665
Hf0 O41 2.086431 1_555
Hf0 O3 2.089601 1_665
Hf0 O40 2.119727 1_655
Hf1 O6 2.022738 1_455
Hf1 O43 2.024990 1_565
Hf1 O7 2.045186 1_565
Hf1 O8 2.054140 1_555
Hf1 O44 2.124268 1_455
Hf1 O42 2.134342 1_465
Hf2 O13 2.010268 1_555
Hf2 O48 2.034844 1_555
Hf2 O12 2.041622 1_555
Hf2 O14 2.072199 1_555
Hf2 O50 2.112904 1_555
Hf2 O49 2.133704 1_555
Hf3 O15 1.958412 1_555
Hf3 O16 2.064378 1_555
Hf3 O52 2.083181 1_555
Hf3 O17 2.091503 1_555
Hf3 O51 2.094971 1_555
Hf3 O53 2.122669 1_555
Hf4 O19 1.982694 1_556
Hf4 O20 2.059750 1_556
Hf4 O18 2.070633 1_556
Hf4 O54 2.082214 1_555
Hf4 O55 2.084823 1_555
Hf4 O56 2.113303 1_555
Hf5 O21 1.955021 1_555
Hf5 O22 2.049656 1_555
Hf5 O58 2.081740 1_555
Hf5 O23 2.084966 1_555
Hf5 O57 2.094944 1_555
Hf5 O59 2.119808 1_555
O0 P0 1.543881 1_545
O0 Sn0 2.038732 1_545
O1 P1 1.540789 1_555
O1 Sn0 2.045876 1_655
O2 P2 1.541465 1_655
O2 Sn0 2.036049 1_645
O3 P3 1.544066 1_555
O4 P4 1.534196 1_555
O5 Si0 1.624051 1_545
O6 Si0 1.633032 1_555
O7 P3 1.543124 1_555
O8 P4 1.555417 1_455
O9 P1 1.560157 1_555
O9 Sn1 2.092792 1_665
O10 P2 1.550447 1_555
O10 Sn1 2.035798 1_555
O11 P0 1.551235 1_555
O11 Sn1 2.037879 1_565
O12 P5 1.548647 1_555
O13 Si1 1.653843 1_555
O14 P6 1.540702 1_555
O15 Si2 1.630853 1_555
O16 P7 1.537196 1_555
O17 P8 1.547057 1_555
O18 P8 1.541705 1_555
O19 Si2 1.640418 1_555
O20 P7 1.538577 1_555
O21 Si1 1.627844 1_555
O22 P6 1.535819 1_555
O23 P5 1.542420 1_555
O24 P9 1.555862 1_555
O24 Sn2 2.077903 1_556
O25 P10 1.542967 1_555
O25 Sn2 2.027085 1_556
O26 P11 1.545597 1_555
O26 Sn2 2.024906 1_556
O27 P12 1.559289 1_555
O27 Sn3 2.085351 1_555
O28 P13 1.550449 1_555
O28 Sn3 2.038483 1_555
O29 P14 1.551266 1_555
O29 Sn3 2.038561 1_555
O30 P14 1.542501 1_555
O30 Sn4 2.036843 1_555
O31 P12 1.539493 1_555
O31 Sn4 2.043984 1_555
O32 P13 1.540385 1_555
O32 Sn4 2.034010 1_555
O33 P10 1.547529 1_555
O33 Sn5 2.037579 1_555
O34 P11 1.559831 1_555
O34 Sn5 2.063052 1_555
O35 P9 1.543692 1_555
O35 Sn5 2.028431 1_555
O36 P14 1.556881 1_555
O36 Sn0 2.067873 1_555
O37 P12 1.555283 1_555
O37 Sn0 2.075647 1_655
O38 P13 1.555284 1_555
O38 Sn0 2.080317 1_545
O39 P10 1.541389 1_555
O40 P11 1.538334 1_555
O41 P9 1.544262 1_555
O42 P5 1.549701 1_555
O43 Si1 1.618117 1_555
O44 P6 1.552288 1_555
O45 Si2 1.652761 1_555
O45 Sn1 2.028417 1_665
O46 P7 1.556699 1_555
O46 Sn1 2.128707 1_655
O47 P8 1.541601 1_555
O47 Sn1 2.087822 1_555
O48 Si0 1.645946 1_545
O49 P3 1.551935 1_555
O50 P4 1.532173 1_555
O51 P1 1.544946 1_555
O52 P2 1.546464 1_655
O53 P0 1.540263 1_545
O54 P9 1.543565 1_555
O55 P10 1.546070 1_655
O56 P11 1.543790 1_545
O57 P12 1.543907 1_545
O58 P13 1.545953 1_555
O59 P14 1.539277 1_655
O60 P8 1.562356 1_555
O60 Sn2 2.128436 1_555
O61 Si2 1.628564 1_455
O61 Sn2 1.998982 1_555
O62 P7 1.561143 1_565
O62 Sn2 2.118065 1_555
O63 Si1 1.650626 1_565
O63 Sn3 2.025823 1_555
O64 P6 1.555764 1_555
O64 Sn3 2.118638 1_555
O65 P5 1.538105 1_455
O65 Sn3 2.079450 1_555
O66 P0 1.556264 1_555
O66 Sn4 2.068442 1_555
O67 P1 1.554574 1_555
O67 Sn4 2.076322 1_555
O68 P2 1.554683 1_555
O68 Sn4 2.081830 1_555
O69 P3 1.537114 1_555
O69 Sn5 2.072199 1_555
O70 P4 1.555604 1_455
O70 Sn5 2.118021 1_555
O71 Si0 1.651241 1_555
O71 Sn5 2.024620 1_555
