# generated using pymatgen
data_Zr2NiP
_symmetry_space_group_name_H-M   'P 1'
_cell_length_a   3.63201351
_cell_length_b   5.24387314
_cell_length_c   7.50113622
_cell_angle_alpha   110.86094504
_cell_angle_beta   90.00000000
_cell_angle_gamma   90.00000000
_symmetry_Int_Tables_number   1
_chemical_formula_structural   Zr2NiP
_chemical_formula_sum   'Zr4 Ni2 P2'
_cell_volume   133.50008898
_cell_formula_units_Z   2
loop_
 _symmetry_equiv_pos_site_id
 _symmetry_equiv_pos_as_xyz
  1  'x, y, z'
loop_
 _atom_site_type_symbol
 _atom_site_label
 _atom_site_symmetry_multiplicity
 _atom_site_fract_x
 _atom_site_fract_y
 _atom_site_fract_z
 _atom_site_occupancy
  Zr  Zr0  1  0.75000000  0.20916946  0.92434650  1
  Zr  Zr1  1  0.25000000  0.79083054  0.07565350  1
  Zr  Zr2  1  0.75000000  0.21066107  0.43077098  1
  Zr  Zr3  1  0.25000000  0.78933893  0.56922902  1
  Ni  Ni0  1  0.75000000  0.64298217  0.29154878  1
  Ni  Ni1  1  0.25000000  0.35701783  0.70845122  1
  P  P0  1  0.75000000  0.64528765  0.78891784  1
  P  P1  1  0.25000000  0.35471235  0.21108116  1
loop_
_geom_bond_atom_site_label_1
_geom_bond_atom_site_label_2
_geom_bond_distance
_geom_bond_site_symmetry_2
Ni0 P1 2.301622 1_655
Ni0 P1 2.301622 1_555
Ni0 Zr3 2.662128 1_555
Ni0 Zr3 2.662128 1_655
Ni0 Zr1 2.723203 1_655
Ni0 Zr1 2.723203 1_555
Ni0 Zr2 2.781741 1_565
Ni0 Zr2 2.813579 1_555
Ni0 Zr0 2.880845 1_554
Ni1 P0 2.301622 1_455
Ni1 P0 2.301622 1_555
Ni1 Zr2 2.662128 1_555
Ni1 Zr2 2.662128 1_455
Ni1 Zr0 2.723203 1_555
Ni1 Zr0 2.723203 1_455
Ni1 Zr3 2.781741 1_545
Ni1 Zr3 2.813579 1_555
Ni1 Zr1 2.880845 1_556
P0 Zr1 2.708761 1_556
P0 Zr1 2.708761 1_656
P0 Zr3 2.733254 1_555
P0 Zr3 2.733254 1_655
P0 Zr0 2.763340 1_565
P0 Zr0 2.813670 1_555
P0 Zr2 2.837430 1_555
P1 Zr0 2.708756 1_554
P1 Zr0 2.708756 1_454
P1 Zr2 2.733259 1_455
P1 Zr2 2.733259 1_555
P1 Zr1 2.763340 1_545
P1 Zr1 2.813665 1_555
P1 Zr3 2.837435 1_555
