# generated using pymatgen
data_MgFe4(NiO4)2
_symmetry_space_group_name_H-M   'P 1'
_cell_length_a   5.81243865
_cell_length_b   5.84571188
_cell_length_c   6.22277565
_cell_angle_alpha   61.98497997
_cell_angle_beta   63.04433279
_cell_angle_gamma   59.81044900
_symmetry_Int_Tables_number   1
_chemical_formula_structural   MgFe4(NiO4)2
_chemical_formula_sum   'Mg1 Fe4 Ni2 O8'
_cell_volume   154.67594350
_cell_formula_units_Z   1
loop_
 _symmetry_equiv_pos_site_id
 _symmetry_equiv_pos_as_xyz
  1  'x, y, z'
loop_
 _atom_site_type_symbol
 _atom_site_label
 _atom_site_symmetry_multiplicity
 _atom_site_fract_x
 _atom_site_fract_y
 _atom_site_fract_z
 _atom_site_occupancy
  Mg  Mg0  1  0.12500000  0.12500000  0.62500000  1
  Fe  Fe0  1  0.96655900  0.97391800  0.08560500  1
  Fe  Fe1  1  0.28344100  0.27608200  0.16439500  1
  Fe  Fe2  1  0.62500000  0.12500000  0.62500000  1
  Fe  Fe3  1  0.62500000  0.62500000  0.62500000  1
  Ni  Ni0  1  0.12500000  0.62500000  0.62500000  1
  Ni  Ni1  1  0.62500000  0.62500000  0.12500000  1
  O  O0  1  0.38091400  0.36532000  0.39004900  1
  O  O1  1  0.41721600  0.38995500  0.80287300  1
  O  O2  1  0.38091400  0.86371700  0.39004900  1
  O  O3  1  0.86157800  0.37051200  0.39739800  1
  O  O4  1  0.38842200  0.87948800  0.85260200  1
  O  O5  1  0.86908600  0.38628300  0.85995100  1
  O  O6  1  0.83278400  0.86004500  0.44712700  1
  O  O7  1  0.86908600  0.88468000  0.85995100  1
loop_
_geom_bond_atom_site_label_1
_geom_bond_atom_site_label_2
_geom_bond_distance
_geom_bond_site_symmetry_2
Mg0 O4 2.063136 1_545
Mg0 O3 2.063136 1_455
Mg0 O0 2.127034 1_555
Mg0 O7 2.127034 1_445
Mg0 O5 2.127034 1_455
Mg0 O2 2.127034 1_545
Fe0 O6 1.906993 1_555
Fe0 O5 2.066759 1_564
Fe0 O7 2.066759 1_554
Fe0 O4 2.141704 1_654
Fe1 O1 1.906993 1_554
Fe1 O2 2.066759 1_545
Fe1 O0 2.066759 1_555
Fe1 O3 2.141704 1_455
Fe2 O1 1.897352 1_555
Fe2 O6 1.897352 1_545
Fe2 O7 2.017548 1_545
Fe2 O0 2.017548 1_555
Fe2 O3 2.065491 1_555
Fe2 O4 2.065491 1_545
Fe3 O6 1.897356 1_555
Fe3 O1 1.897356 1_555
Fe3 O5 2.017548 1_555
Fe3 O2 2.017548 1_555
Fe3 O4 2.065491 1_555
Fe3 O3 2.065491 1_555
Ni0 O1 1.981548 1_555
Ni0 O6 1.981548 1_455
Ni0 O2 2.120586 1_555
Ni0 O5 2.120586 1_455
Ni0 O7 2.120586 1_455
Ni0 O0 2.120586 1_555
Ni1 O3 2.159675 1_555
Ni1 O4 2.159675 1_554
Ni1 O7 2.174868 1_554
Ni1 O0 2.174868 1_555
Ni1 O2 2.174868 1_555
Ni1 O5 2.174868 1_554
