# generated using pymatgen
data_Na4LaSi2GePO12
_symmetry_space_group_name_H-M   'P 1'
_cell_length_a   9.48053720
_cell_length_b   9.48053685
_cell_length_c   21.80287588
_cell_angle_alpha   91.80721254
_cell_angle_beta   88.19278747
_cell_angle_gamma   120.62281848
_symmetry_Int_Tables_number   1
_chemical_formula_structural   Na4LaSi2GePO12
_chemical_formula_sum   'Na24 La6 Si12 Ge6 P6 O72'
_cell_volume   1685.24862390
_cell_formula_units_Z   6
loop_
 _symmetry_equiv_pos_site_id
 _symmetry_equiv_pos_as_xyz
  1  'x, y, z'
loop_
 _atom_site_type_symbol
 _atom_site_label
 _atom_site_symmetry_multiplicity
 _atom_site_fract_x
 _atom_site_fract_y
 _atom_site_fract_z
 _atom_site_occupancy
  Na  Na0  1  0.64143779  0.00580759  0.24920971  1
  Na  Na1  1  0.35904362  0.36467727  0.24577118  1
  Na  Na2  1  0.99810936  0.63051989  0.24937080  1
  Na  Na3  1  0.63532273  0.64095638  0.74577118  1
  Na  Na4  1  0.99419241  0.35856221  0.74920971  1
  Na  Na5  1  0.36948011  0.00189064  0.74937080  1
  Na  Na6  1  0.30810479  0.33914059  0.58254271  1
  Na  Na7  1  0.02571062  0.69801027  0.57910418  1
  Na  Na8  1  0.66477636  0.96385289  0.58270380  1
  Na  Na9  1  0.30198973  0.97428938  0.07910418  1
  Na  Na10  1  0.66085941  0.69189521  0.08254271  1
  Na  Na11  1  0.03614711  0.33522364  0.08270380  1
  Na  Na12  1  0.97477079  0.67247459  0.91587671  1
  Na  Na13  1  0.69237662  0.03134427  0.91243818  1
  Na  Na14  1  0.33144236  0.29718689  0.91603780  1
  Na  Na15  1  0.96865573  0.30762338  0.41243818  1
  Na  Na16  1  0.32752541  0.02522921  0.41587671  1
  Na  Na17  1  0.70281311  0.66855764  0.41603780  1
  Na  Na18  1  0.99434452  0.99111128  0.50151882  1
  Na  Na19  1  0.00888872  0.00565548  0.00151882  1
  Na  Na20  1  0.66101152  0.32444428  0.83485182  1
  Na  Na21  1  0.67555572  0.33898848  0.33485182  1
  Na  Na22  1  0.32767752  0.65777828  0.16818582  1
  Na  Na23  1  0.34222172  0.67232248  0.66818582  1
  La  La0  1  0.99524516  0.99777685  0.34266991  1
  La  La1  1  0.00222315  0.00475484  0.84266991  1
  La  La2  1  0.66191216  0.33110985  0.67600291  1
  La  La3  1  0.66889015  0.33808784  0.17600291  1
  La  La4  1  0.32857816  0.66444385  0.00933691  1
  La  La5  1  0.33555615  0.67142184  0.50933691  1
  Si  Si0  1  0.68516729  0.70915086  0.25207202  1
  Si  Si1  1  0.01871891  0.31156720  0.25149202  1
  Si  Si2  1  0.29084914  0.31483271  0.75207202  1
  Si  Si3  1  0.68843280  0.98128109  0.75149202  1
  Si  Si4  1  0.35183429  0.04248386  0.58540502  1
  Si  Si5  1  0.68538591  0.64490020  0.58482502  1
  Si  Si6  1  0.95751614  0.64816571  0.08540502  1
  Si  Si7  1  0.35509980  0.31461409  0.08482502  1
  Si  Si8  1  0.01850029  0.37581786  0.91873902  1
  Si  Si9  1  0.35205191  0.97823420  0.91815902  1
  Si  Si10  1  0.62418214  0.98149971  0.41873902  1
  Si  Si11  1  0.02176580  0.64794809  0.41815902  1
  Ge  Ge0  1  0.99837693  0.99783060  0.64906499  1
  Ge  Ge1  1  0.00216940  0.00162307  0.14906499  1
  Ge  Ge2  1  0.66504393  0.33116360  0.98239799  1
  Ge  Ge3  1  0.66883640  0.33495607  0.48239799  1
  Ge  Ge4  1  0.33170993  0.66449760  0.31573199  1
  Ge  Ge5  1  0.33550240  0.66829007  0.81573199  1
  P  P0  1  0.29148559  0.97512632  0.24738596  1
  P  P1  1  0.02487368  0.70851441  0.74738596  1
  P  P2  1  0.95815259  0.30845932  0.58071896  1
  P  P3  1  0.69154068  0.04184741  0.08071896  1
  P  P4  1  0.62481859  0.64179332  0.91405296  1
  P  P5  1  0.35820668  0.37518141  0.41405296  1
  O  O0  1  0.23388258  0.00329452  0.31013557  1
  O  O1  1  0.77494011  0.76105169  0.31672512  1
  O  O2  1  0.99092867  0.22207119  0.31499820  1
  O  O3  1  0.23894831  0.22505989  0.81672512  1
  O  O4  1  0.99670548  0.76611742  0.81013557  1
  O  O5  1  0.77792881  0.00907133  0.81499820  1
  O  O6  1  0.80330728  0.95909931  0.69299329  1
  O  O7  1  0.15108942  0.19819558  0.69664346  1
  O  O8  1  0.03273587  0.82478968  0.69454454  1
  O  O9  1  0.80180442  0.84891058  0.19664346  1
  O  O10  1  0.04090069  0.19669272  0.19299329  1
  O  O11  1  0.17521032  0.96726413  0.19454454  1
  O  O12  1  0.90054958  0.33662752  0.64346857  1
  O  O13  1  0.44160711  0.09438469  0.65005812  1
  O  O14  1  0.65759567  0.55540419  0.64833120  1
  O  O15  1  0.90561531  0.55839289  0.15005812  1
  O  O16  1  0.66337248  0.09945042  0.14346857  1
  O  O17  1  0.44459581  0.34240433  0.14833120  1
  O  O18  1  0.46997428  0.29243231  0.02632629  1
  O  O19  1  0.81775642  0.53152858  0.02997646  1
  O  O20  1  0.69940287  0.15812268  0.02787754  1
  O  O21  1  0.46847142  0.18224358  0.52997646  1
  O  O22  1  0.70756769  0.53002572  0.52632629  1
  O  O23  1  0.84187732  0.30059713  0.52787754  1
  O  O24  1  0.56721558  0.66996152  0.97680257  1
  O  O25  1  0.10827311  0.42771869  0.98339212  1
  O  O26  1  0.32426167  0.88873819  0.98166520  1
  O  O27  1  0.57228131  0.89172689  0.48339212  1
  O  O28  1  0.33003848  0.43278442  0.47680257  1
  O  O29  1  0.11126181  0.67573833  0.48166520  1
  O  O30  1  0.13664028  0.62576631  0.35966029  1
  O  O31  1  0.48442242  0.86486258  0.36331046  1
  O  O32  1  0.36606887  0.49145668  0.36121154  1
  O  O33  1  0.13513742  0.51557758  0.86331046  1
  O  O34  1  0.37423369  0.86335972  0.85966029  1
  O  O35  1  0.50854332  0.63393113  0.86121154  1
  O  O36  1  0.99176688  0.80070186  0.41157323  1
  O  O37  1  0.81053354  0.02205186  0.40888687  1
  O  O38  1  0.21904580  0.19705076  0.40634109  1
  O  O39  1  0.97794814  0.18946646  0.90888687  1
  O  O40  1  0.19929814  0.00823312  0.91157323  1
  O  O41  1  0.80294924  0.78095420  0.90634109  1
  O  O42  1  0.94966726  0.13801540  0.58012620  1
  O  O43  1  0.17540922  0.04839624  0.59053223  1
  O  O44  1  0.86704286  0.82399271  0.58794478  1
  O  O45  1  0.95160376  0.82459078  0.09053223  1
  O  O46  1  0.86198460  0.05033274  0.08012620  1
  O  O47  1  0.17600729  0.13295714  0.08794478  1
  O  O48  1  0.65843388  0.13403486  0.74490623  1
  O  O49  1  0.47720054  0.35538486  0.74221987  1
  O  O50  1  0.88571280  0.53038376  0.73967409  1
  O  O51  1  0.64461514  0.52279946  0.24221987  1
  O  O52  1  0.86596514  0.34156612  0.24490623  1
  O  O53  1  0.46961624  0.11428720  0.23967409  1
  O  O54  1  0.61633426  0.47134840  0.91345920  1
  O  O55  1  0.84207622  0.38172924  0.92386523  1
  O  O56  1  0.53370986  0.15732571  0.92127778  1
  O  O57  1  0.61827076  0.15792378  0.42386523  1
  O  O58  1  0.52865160  0.38366574  0.41345920  1
  O  O59  1  0.84267429  0.46629014  0.42127778  1
  O  O60  1  0.32509988  0.46736886  0.07824023  1
  O  O61  1  0.14386654  0.68871886  0.07555387  1
  O  O62  1  0.55237880  0.86371776  0.07300809  1
  O  O63  1  0.31128114  0.85613346  0.57555387  1
  O  O64  1  0.53263114  0.67490012  0.57824023  1
  O  O65  1  0.13628224  0.44762120  0.57300809  1
  O  O66  1  0.28300026  0.80468240  0.24679320  1
  O  O67  1  0.50874222  0.71506324  0.25719923  1
  O  O68  1  0.20037586  0.49065971  0.25461178  1
  O  O69  1  0.28493676  0.49125778  0.75719923  1
  O  O70  1  0.19531760  0.71699974  0.74679320  1
  O  O71  1  0.50934029  0.79962414  0.75461178  1
loop_
_geom_bond_atom_site_label_1
_geom_bond_atom_site_label_2
_geom_bond_distance
_geom_bond_site_symmetry_2
Na0 O53 2.344360 1_555
Na0 O67 2.386321 1_545
Na0 O16 2.461164 1_555
Na0 O52 2.788500 1_555
Na0 O9 2.814978 1_545
Na0 O31 2.853043 1_545
Na0 O66 2.930866 1_545
Na1 O17 2.292013 1_555
Na1 O51 2.332907 1_555
Na1 O68 2.350330 1_555
Na1 O32 2.742671 1_555
Na2 O15 2.310964 1_555
Na2 O66 2.340380 1_655
Na2 O52 2.361777 1_555
Na3 O14 2.292013 1_555
Na3 O49 2.332907 1_555
Na3 O71 2.350330 1_555
Na3 O35 2.742671 1_555
Na4 O50 2.344359 1_555
Na4 O69 2.386321 1_655
Na4 O12 2.461164 1_555
Na4 O48 2.788500 1_555
Na4 O7 2.814978 1_655
Na4 O33 2.853043 1_655
Na4 O70 2.930866 1_655
Na5 O13 2.310964 1_555
Na5 O70 2.340379 1_545
Na5 O48 2.361777 1_555
Na6 O65 2.344373 1_555
Na6 O43 2.386321 1_555
Na6 O28 2.461148 1_555
Na6 O64 2.788505 1_555
Na6 O21 2.814978 1_555
Na6 O7 2.853043 1_555
Na6 O42 2.930866 1_455
Na7 O29 2.291988 1_555
Na7 O63 2.332900 1_555
Na7 O44 2.350330 1_455
Na7 O8 2.742671 1_555
Na8 O27 2.310946 1_555
Na8 O42 2.340380 1_565
Na8 O64 2.361768 1_555
Na9 O26 2.291988 1_554
Na9 O61 2.332900 1_555
Na9 O47 2.350330 1_565
Na9 O11 2.742671 1_555
Na10 O62 2.344373 1_555
Na10 O45 2.386321 1_555
Na10 O24 2.461148 1_554
Na10 O60 2.788505 1_555
Na10 O19 2.814978 1_555
Na10 O9 2.853043 1_555
Na10 O46 2.930866 1_565
Na11 O25 2.310946 1_554
Na11 O46 2.340379 1_455
Na11 O60 2.361768 1_555
Na12 O41 2.344360 1_555
Na12 O55 2.386328 1_555
Na12 O4 2.461164 1_555
Na12 O40 2.788500 1_665
Na12 O33 2.814978 1_655
Na12 O19 2.853023 1_556
Na12 O54 2.930860 1_555
Na13 O5 2.292013 1_555
Na13 O39 2.332907 1_555
Na13 O56 2.350312 1_555
Na13 O20 2.742646 1_556
Na14 O3 2.310964 1_555
Na14 O54 2.340386 1_555
Na14 O40 2.361777 1_555
Na15 O2 2.292013 1_555
Na15 O37 2.332907 1_555
Na15 O59 2.350312 1_555
Na15 O23 2.742646 1_555
Na16 O38 2.344359 1_555
Na16 O57 2.386328 1_555
Na16 O0 2.461164 1_555
Na16 O36 2.788500 1_445
Na16 O31 2.814978 1_545
Na16 O21 2.853023 1_555
Na16 O58 2.930860 1_555
Na17 O1 2.310964 1_555
Na17 O58 2.340386 1_555
Na17 O36 2.361777 1_555
Na18 O42 2.336897 1_565
Na18 O44 2.369462 1_555
Na18 O43 2.490385 1_665
Na18 O36 2.615318 1_555
Na18 O37 2.825220 1_565
Na18 O38 2.897542 1_665
Na19 O46 2.336897 1_455
Na19 O47 2.369462 1_555
Na19 O45 2.490385 1_445
Na19 O40 2.615318 1_554
Na19 O39 2.825220 1_454
Na19 O41 2.897542 1_444
Na20 O54 2.336897 1_555
Na20 O56 2.369462 1_555
Na20 O55 2.490385 1_555
Na20 O48 2.615318 1_555
Na20 O49 2.825220 1_555
Na20 O50 2.897542 1_555
Na21 O58 2.336897 1_555
Na21 O59 2.369462 1_555
Na21 O57 2.490385 1_555
Na21 O52 2.615318 1_555
Na21 O51 2.825220 1_555
Na21 O53 2.897542 1_555
Na22 O66 2.336897 1_555
Na22 O68 2.369462 1_555
Na22 O67 2.490385 1_555
Na22 O60 2.615318 1_555
Na22 O61 2.825220 1_555
Na22 O62 2.897542 1_555
Na23 O70 2.336897 1_555
Na23 O71 2.369462 1_555
Na23 O69 2.490385 1_555
Na23 O64 2.615318 1_555
Na23 O63 2.825220 1_555
Na23 O65 2.897542 1_555
La0 O1 2.222188 1_555
La0 O2 2.249113 1_565
La0 O0 2.324856 1_665
La0 O37 2.331101 1_565
La0 O36 2.420731 1_555
La0 O38 2.436144 1_665
La1 O3 2.222188 1_555
La1 O5 2.249113 1_455
La1 O4 2.324856 1_445
La1 O39 2.331101 1_455
La1 O40 2.420731 1_555
La1 O41 2.436144 1_445
La2 O13 2.222188 1_555
La2 O14 2.249113 1_555
La2 O12 2.324856 1_555
La2 O49 2.331101 1_555
La2 O48 2.420731 1_555
La2 O50 2.436144 1_555
La3 O15 2.222188 1_555
La3 O17 2.249113 1_555
La3 O16 2.324856 1_555
La3 O51 2.331101 1_555
La3 O52 2.420731 1_555
La3 O53 2.436144 1_555
La4 O25 2.222188 1_554
La4 O26 2.249113 1_554
La4 O24 2.324856 1_554
La4 O61 2.331101 1_555
La4 O60 2.420731 1_555
La4 O62 2.436144 1_555
La5 O27 2.222188 1_555
La5 O29 2.249113 1_555
La5 O28 2.324856 1_555
La5 O63 2.331101 1_555
La5 O64 2.420731 1_555
La5 O65 2.436144 1_555
Ge0 O6 1.921181 1_555
Ge0 O43 1.938854 1_665
Ge0 O44 1.979357 1_555
Ge0 O7 1.987259 1_665
Ge0 O8 2.109039 1_655
Ge0 O42 2.243613 1_565
Ge1 O10 1.921181 1_555
Ge1 O45 1.938854 1_445
Ge1 O47 1.979357 1_555
Ge1 O9 1.987259 1_445
Ge1 O11 2.109039 1_545
Ge1 O46 2.243613 1_455
Ge2 O18 1.921181 1_556
Ge2 O55 1.938854 1_555
Ge2 O56 1.979357 1_555
Ge2 O19 1.987259 1_556
Ge2 O20 2.109039 1_556
Ge2 O54 2.243613 1_555
Ge3 O22 1.921181 1_555
Ge3 O57 1.938854 1_555
Ge3 O59 1.979357 1_555
Ge3 O21 1.987259 1_555
Ge3 O23 2.109039 1_555
Ge3 O58 2.243613 1_555
Ge4 O30 1.921181 1_555
Ge4 O67 1.938854 1_555
Ge4 O68 1.979357 1_555
Ge4 O31 1.987259 1_555
Ge4 O32 2.109039 1_555
Ge4 O66 2.243613 1_555
Ge5 O34 1.921181 1_555
Ge5 O69 1.938854 1_555
Ge5 O71 1.979357 1_555
Ge5 O33 1.987259 1_555
Ge5 O35 2.109039 1_555
Ge5 O70 2.243613 1_555
O0 P0 1.523060 1_545
O1 Si0 1.599623 1_555
O2 Si1 1.590545 1_655
O3 Si2 1.599623 1_555
O4 P1 1.523060 1_655
O5 Si3 1.590545 1_545
O6 Si3 1.727960 1_555
O7 Si2 1.721308 1_555
O8 P1 1.593436 1_555
O9 Si0 1.721308 1_555
O10 Si1 1.727960 1_555
O11 P0 1.593436 1_555
O12 P2 1.523060 1_555
O13 Si4 1.599623 1_555
O14 Si5 1.590545 1_555
O15 Si6 1.599623 1_555
O16 P3 1.523060 1_555
O17 Si7 1.590545 1_555
O18 Si7 1.727960 1_555
O19 Si6 1.721308 1_555
O20 P3 1.593436 1_555
O21 Si4 1.721308 1_555
O22 Si5 1.727960 1_555
O23 P2 1.593436 1_555
O24 P4 1.523060 1_555
O25 Si8 1.599623 1_555
O26 Si9 1.590545 1_555
O27 Si10 1.599623 1_555
O28 P5 1.523060 1_555
O29 Si11 1.590545 1_555
O30 Si11 1.727960 1_555
O31 Si10 1.721308 1_555
O32 P5 1.593436 1_555
O33 Si8 1.721308 1_555
O34 Si9 1.727960 1_555
O35 P4 1.593436 1_555
O36 Si11 1.622975 1_655
O37 Si10 1.613852 1_545
O38 P5 1.532014 1_555
O39 Si8 1.613852 1_655
O40 Si9 1.622975 1_545
O41 P4 1.532014 1_555
O42 P2 1.576099 1_555
O43 Si4 1.701931 1_555
O44 Si5 1.695453 1_555
O45 Si6 1.701931 1_555
O46 P3 1.576099 1_555
O47 Si7 1.695453 1_555
O48 Si3 1.622975 1_545
O49 Si2 1.613852 1_555
O50 P1 1.532014 1_655
O51 Si0 1.613852 1_555
O52 Si1 1.622975 1_655
O53 P0 1.532014 1_545
O54 P4 1.576112 1_555
O55 Si8 1.701916 1_655
O56 Si9 1.695453 1_545
O57 Si10 1.701916 1_545
O58 P5 1.576112 1_555
O59 Si11 1.695453 1_655
O60 Si7 1.622987 1_555
O61 Si6 1.613838 1_455
O62 P3 1.532008 1_565
O63 Si4 1.613838 1_565
O64 Si5 1.622987 1_555
O65 P2 1.532008 1_455
O66 P0 1.576099 1_555
O67 Si0 1.701931 1_555
O68 Si1 1.695453 1_555
O69 Si2 1.701931 1_555
O70 P1 1.576099 1_555
O71 Si3 1.695453 1_555
