# generated using pymatgen
data_PbIF
_symmetry_space_group_name_H-M   'P 1'
_cell_length_a   4.23585500
_cell_length_b   4.23585500
_cell_length_c   9.45969800
_cell_angle_alpha   90.00000000
_cell_angle_beta   90.00000000
_cell_angle_gamma   90.00000000
_symmetry_Int_Tables_number   1
_chemical_formula_structural   PbIF
_chemical_formula_sum   'Pb2 I2 F2'
_cell_volume   169.73032469
_cell_formula_units_Z   2
loop_
 _symmetry_equiv_pos_site_id
 _symmetry_equiv_pos_as_xyz
  1  'x, y, z'
loop_
 _atom_site_type_symbol
 _atom_site_label
 _atom_site_symmetry_multiplicity
 _atom_site_fract_x
 _atom_site_fract_y
 _atom_site_fract_z
 _atom_site_occupancy
  Pb  Pb0  1  0.00000000  0.50000000  0.84272900  1
  Pb  Pb1  1  0.50000000  0.00000000  0.15727100  1
  I  I0  1  0.50000000  0.00000000  0.67182800  1
  I  I1  1  0.00000000  0.50000000  0.32817200  1
  F  F0  1  0.00000000  0.00000000  0.00000000  1
  F  F1  1  0.50000000  0.50000000  0.00000000  1
loop_
_geom_bond_atom_site_label_1
_geom_bond_atom_site_label_2
_geom_bond_distance
_geom_bond_site_symmetry_2
I0 Pb0 3.403654 1_555
I0 Pb0 3.403654 1_645
I0 Pb0 3.403654 1_545
I0 Pb0 3.403654 1_655
I1 Pb1 3.403654 1_465
I1 Pb1 3.403654 1_565
I1 Pb1 3.403654 1_555
I1 Pb1 3.403654 1_455
F0 Pb1 2.588238 1_555
F0 Pb1 2.588238 1_455
F0 Pb0 2.588238 1_544
F0 Pb0 2.588238 1_554
F1 Pb1 2.588238 1_565
F1 Pb1 2.588238 1_555
F1 Pb0 2.588238 1_654
F1 Pb0 2.588238 1_554
