# generated using pymatgen
data_Na3Zn3SnPS5O24
_symmetry_space_group_name_H-M   'P 1'
_cell_length_a   8.79778748
_cell_length_b   8.77712623
_cell_length_c   22.72209693
_cell_angle_alpha   90.32762332
_cell_angle_beta   90.02742800
_cell_angle_gamma   120.15949494
_symmetry_Int_Tables_number   1
_chemical_formula_structural   Na3Zn3SnPS5O24
_chemical_formula_sum   'Na9 Zn9 Sn3 P3 S15 O72'
_cell_volume   1517.03029616
_cell_formula_units_Z   3
loop_
 _symmetry_equiv_pos_site_id
 _symmetry_equiv_pos_as_xyz
  1  'x, y, z'
loop_
 _atom_site_type_symbol
 _atom_site_label
 _atom_site_symmetry_multiplicity
 _atom_site_fract_x
 _atom_site_fract_y
 _atom_site_fract_z
 _atom_site_occupancy
  Na  Na0  1  0.36414696  0.36442461  0.25095656  1
  Na  Na1  1  0.02807482  0.69946783  0.58496530  1
  Na  Na2  1  0.29899992  0.96451887  0.08057854  1
  Na  Na3  1  0.99329377  0.00154315  0.50091146  1
  Na  Na4  1  0.99886932  0.00695600  0.99322620  1
  Na  Na5  1  0.66721703  0.32883160  0.82968755  1
  Na  Na6  1  0.67576748  0.33253645  0.33188984  1
  Na  Na7  1  0.33328711  0.66646900  0.16716118  1
  Na  Na8  1  0.34802398  0.66460361  0.66506393  1
  Zn  Zn0  1  0.99658776  0.99730404  0.35034877  1
  Zn  Zn1  1  0.01065838  0.01040476  0.85239235  1
  Zn  Zn2  1  0.98780164  0.99639881  0.65184689  1
  Zn  Zn3  1  0.98999070  0.99729886  0.15239499  1
  Zn  Zn4  1  0.66181707  0.33943393  0.68487483  1
  Zn  Zn5  1  0.67611278  0.33518353  0.18454096  1
  Zn  Zn6  1  0.32703129  0.66223321  0.01008375  1
  Zn  Zn7  1  0.34913744  0.66586184  0.51774182  1
  Zn  Zn8  1  0.33267669  0.67435968  0.31885789  1
  Sn  Sn0  1  0.67060888  0.33078401  0.97904439  1
  Sn  Sn1  1  0.66627028  0.33621091  0.48378767  1
  Sn  Sn2  1  0.32891651  0.66767702  0.81697275  1
  P  P0  1  0.66543045  0.62911648  0.58549382  1
  P  P1  1  0.04149625  0.36991313  0.91781688  1
  P  P2  1  0.32846786  0.95912293  0.91921214  1
  S  S0  1  0.29295545  0.99770455  0.24916949  1
  S  S1  1  0.70587927  0.70647674  0.25025054  1
  S  S2  1  0.99925275  0.29320981  0.25057197  1
  S  S3  1  0.29315910  0.29237645  0.75004551  1
  S  S4  1  0.99885206  0.70647610  0.75007732  1
  S  S5  1  0.70640112  0.00121913  0.75109669  1
  S  S6  1  0.96021492  0.33155839  0.58419016  1
  S  S7  1  0.37264684  0.03925548  0.58440391  1
  S  S8  1  0.95912930  0.62664312  0.08471833  1
  S  S9  1  0.66841414  0.03880385  0.08467491  1
  S  S10  1  0.37462336  0.33684867  0.08495451  1
  S  S11  1  0.62800041  0.66895684  0.91796651  1
  S  S12  1  0.62806458  0.96135081  0.41698962  1
  S  S13  1  0.33070552  0.37024798  0.41567693  1
  S  S14  1  0.04122241  0.66798863  0.41775000  1
  O  O0  1  0.21116425  0.03106498  0.30100097  1
  O  O1  1  0.81357817  0.78634063  0.30326913  1
  O  O2  1  0.97238884  0.18568540  0.30335622  1
  O  O3  1  0.21367560  0.19101623  0.80335670  1
  O  O4  1  0.97769818  0.79142025  0.80253826  1
  O  O5  1  0.80980122  0.02289381  0.80413917  1
  O  O6  1  0.77778644  0.96649937  0.69710757  1
  O  O7  1  0.18562452  0.21700834  0.69640634  1
  O  O8  1  0.03107053  0.80957451  0.69522578  1
  O  O9  1  0.78303928  0.81071738  0.19667074  1
  O  O10  1  0.03353454  0.21601496  0.19701039  1
  O  O11  1  0.18985686  0.97146672  0.19401017  1
  O  O12  1  0.87704125  0.36269444  0.63508158  1
  O  O13  1  0.48557268  0.12131383  0.63538128  1
  O  O14  1  0.63754105  0.51126000  0.63761394  1
  O  O15  1  0.87546797  0.51726181  0.13629665  1
  O  O16  1  0.63488569  0.12158691  0.13610924  1
  O  O17  1  0.48042795  0.36073835  0.13861597  1
  O  O18  1  0.45795309  0.30070870  0.03158919  1
  O  O19  1  0.84858665  0.54705009  0.03000421  1
  O  O20  1  0.69858251  0.14933620  0.03027486  1
  O  O21  1  0.45012039  0.14632903  0.52843649  1
  O  O22  1  0.70969028  0.55155978  0.52737589  1
  O  O23  1  0.84930966  0.29666716  0.52820509  1
  O  O24  1  0.54862238  0.69349783  0.97111751  1
  O  O25  1  0.14880288  0.45028735  0.97342787  1
  O  O26  1  0.30961544  0.86015255  0.97667000  1
  O  O27  1  0.54765901  0.85922832  0.47021301  1
  O  O28  1  0.30787223  0.45322014  0.46848341  1
  O  O29  1  0.14143663  0.68952498  0.47229034  1
  O  O30  1  0.11771623  0.63533889  0.36488492  1
  O  O31  1  0.52107448  0.88785669  0.36345660  1
  O  O32  1  0.36403089  0.47556046  0.36148021  1
  O  O33  1  0.11912026  0.48676042  0.86158296  1
  O  O34  1  0.37195181  0.88057461  0.86394819  1
  O  O35  1  0.51596601  0.63072126  0.86378753  1
  O  O36  1  0.01813112  0.82270258  0.41153482  1
  O  O37  1  0.80584754  0.98518906  0.41117126  1
  O  O38  1  0.17576821  0.19188503  0.41015570  1
  O  O39  1  0.01430737  0.18597777  0.91039377  1
  O  O40  1  0.16628318  0.97551077  0.91111281  1
  O  O41  1  0.80239623  0.82210437  0.91033631  1
  O  O42  1  0.98017064  0.17595813  0.58860237  1
  O  O43  1  0.19695077  0.02261322  0.58864129  1
  O  O44  1  0.83832776  0.81044615  0.58893277  1
  O  O45  1  0.97911641  0.80532031  0.08890662  1
  O  O46  1  0.82690320  0.02406836  0.08973393  1
  O  O47  1  0.20042826  0.17164926  0.08841630  1
  O  O48  1  0.68260149  0.15523667  0.74461877  1
  O  O49  1  0.47077226  0.31524146  0.74510305  1
  O  O50  1  0.84537747  0.52713550  0.74509529  1
  O  O51  1  0.68226299  0.52476637  0.24464096  1
  O  O52  1  0.84229642  0.31235121  0.24413520  1
  O  O53  1  0.46995360  0.16252567  0.24412810  1
  O  O54  1  0.64072812  0.50314540  0.92242884  1
  O  O55  1  0.85673467  0.36145285  0.92143419  1
  O  O56  1  0.50055268  0.14789533  0.92216631  1
  O  O57  1  0.64503194  0.14484409  0.42255212  1
  O  O58  1  0.49595639  0.35348695  0.42133153  1
  O  O59  1  0.85852250  0.50051708  0.42140074  1
  O  O60  1  0.35938864  0.49411444  0.07739563  1
  O  O61  1  0.13608570  0.64640473  0.07891137  1
  O  O62  1  0.50648711  0.86437838  0.07752081  1
  O  O63  1  0.34881713  0.86020566  0.57647504  1
  O  O64  1  0.50152690  0.64462112  0.57716467  1
  O  O65  1  0.13150133  0.49653800  0.57583516  1
  O  O66  1  0.31206983  0.84066698  0.25564003  1
  O  O67  1  0.52496495  0.68282579  0.25575443  1
  O  O68  1  0.16326161  0.47086107  0.25633735  1
  O  O69  1  0.31241513  0.47701922  0.75539310  1
  O  O70  1  0.16525961  0.69076863  0.75457394  1
  O  O71  1  0.52296341  0.83283519  0.75588617  1
loop_
_geom_bond_atom_site_label_1
_geom_bond_atom_site_label_2
_geom_bond_distance
_geom_bond_site_symmetry_2
Na0 O68 2.380992 1_555
Na0 O53 2.384410 1_555
Na0 O67 2.418068 1_555
Na0 O51 2.424663 1_555
Na0 O32 2.689103 1_555
Na0 O17 2.756494 1_555
Na0 O0 2.783544 1_555
Na0 O10 2.798361 1_555
Na1 O44 2.318777 1_455
Na1 O65 2.380741 1_555
Na1 O63 2.448200 1_555
Na1 O43 2.453938 1_565
Na1 O8 2.675461 1_555
Na1 O22 2.750793 1_455
Na1 O29 2.764836 1_555
Na1 O12 2.809456 1_455
Na2 O47 2.381087 1_565
Na2 O62 2.391896 1_555
Na2 O61 2.414387 1_555
Na2 O45 2.441428 1_455
Na2 O26 2.546311 1_554
Na2 O11 2.761912 1_555
Na2 O18 2.791865 1_565
Na2 O16 2.847458 1_565
Na3 O44 2.532856 1_545
Na3 O42 2.543608 1_555
Na3 O37 2.579461 1_545
Na3 O43 2.622514 1_655
Na3 O36 2.635261 1_645
Na3 O38 2.639780 1_655
Na4 O39 2.418562 1_655
Na4 O40 2.476268 1_645
Na4 O41 2.512264 1_545
Na4 O47 2.701329 1_656
Na4 O46 2.710693 1_556
Na4 O45 2.761194 1_546
Na5 O48 2.499985 1_555
Na5 O50 2.545711 1_555
Na5 O49 2.545991 1_555
Na5 O55 2.591914 1_555
Na5 O56 2.605541 1_555
Na5 O54 2.675372 1_555
Na6 O52 2.532460 1_555
Na6 O59 2.544836 1_555
Na6 O57 2.573428 1_555
Na6 O51 2.592623 1_555
Na6 O53 2.594117 1_555
Na6 O58 2.637746 1_555
Na7 O66 2.581927 1_555
Na7 O67 2.582015 1_555
Na7 O61 2.597605 1_555
Na7 O68 2.598677 1_555
Na7 O60 2.610684 1_555
Na7 O62 2.621396 1_555
Na8 O64 2.465802 1_555
Na8 O71 2.546841 1_555
Na8 O69 2.557841 1_555
Na8 O63 2.650830 1_555
Na8 O65 2.655918 1_555
Na8 O70 2.672743 1_555
O0 S0 1.482950 1_545
O0 Zn0 2.086289 1_445
O1 S1 1.470476 1_555
O1 Zn0 2.036016 1_555
O2 S2 1.474486 1_555
O2 Zn0 2.071962 1_545
O3 S3 1.461453 1_555
O3 Zn1 2.030185 1_555
O4 S4 1.463179 1_555
O4 Zn1 2.115737 1_665
O5 S5 1.462450 1_555
O5 Zn1 2.128599 1_655
O6 S5 1.476810 1_565
O6 Zn2 2.014467 1_555
O7 S3 1.476119 1_555
O7 Zn2 2.095981 1_445
O8 S4 1.485959 1_455
O8 Zn2 2.109659 1_455
O9 S1 1.472937 1_555
O9 Zn3 2.008369 1_555
O10 S2 1.492468 1_455
O10 Zn3 2.024380 1_445
O11 S0 1.494097 1_555
O11 Zn3 2.106869 1_455
O12 S6 1.464731 1_555
O12 Zn4 2.126816 1_555
O13 S7 1.455274 1_555
O13 Zn4 2.079676 1_555
O14 P0 1.513948 1_555
O14 Zn4 1.953264 1_555
O15 S8 1.463084 1_555
O15 Zn5 2.009288 1_555
O16 S9 1.478778 1_555
O16 Zn5 2.037177 1_555
O17 S10 1.482229 1_555
O17 Zn5 2.119452 1_555
O18 S10 1.529226 1_555
O18 Sn0 2.122477 1_554
O19 S8 1.511846 1_555
O19 Sn0 2.093386 1_554
O20 S9 1.514874 1_555
O20 Sn0 2.089669 1_554
O21 S7 1.528351 1_555
O21 Sn1 2.063904 1_555
O22 P0 1.617234 1_555
O22 Sn1 1.988016 1_555
O23 S6 1.535630 1_555
O23 Sn1 2.072758 1_555
O24 S11 1.463427 1_555
O24 Zn6 2.031429 1_556
O25 P1 1.518243 1_555
O25 Zn6 1.913911 1_556
O26 P2 1.534603 1_555
O26 Zn6 1.974859 1_556
O27 S12 1.463710 1_555
O27 Zn7 2.035061 1_555
O28 S13 1.465485 1_555
O28 Zn7 2.040293 1_555
O29 S14 1.475692 1_555
O29 Zn7 2.197900 1_555
O30 S14 1.472595 1_555
O30 Zn8 2.035379 1_555
O31 S12 1.470210 1_555
O31 Zn8 2.035047 1_555
O32 S13 1.482538 1_555
O32 Zn8 2.135734 1_555
O33 P1 1.569366 1_555
O33 Sn2 2.007714 1_555
O34 P2 1.566544 1_555
O34 Sn2 2.010057 1_555
O35 S11 1.503791 1_555
O35 Sn2 2.117411 1_555
O36 S14 1.478036 1_555
O36 Zn0 2.152514 1_455
O37 S12 1.476257 1_555
O37 Zn0 2.135852 1_555
O38 S13 1.475798 1_555
O38 Zn0 2.124781 1_445
O39 P1 1.516854 1_555
O39 Zn1 2.009904 1_555
O40 P2 1.515514 1_555
O40 Zn1 2.042764 1_565
O41 S11 1.456563 1_555
O41 Zn1 2.192375 1_665
O42 S6 1.465794 1_555
O42 Zn2 2.164616 1_545
O43 S7 1.480992 1_555
O43 Zn2 2.254371 1_445
O44 P0 1.555250 1_555
O44 Zn2 2.061947 1_555
O45 S8 1.490180 1_555
O45 Zn3 2.177061 1_555
O46 S9 1.468123 1_555
O46 Zn3 2.116998 1_545
O47 S10 1.491929 1_555
O47 Zn3 2.250325 1_445
O48 S5 1.476353 1_555
O48 Zn4 2.193620 1_555
O49 S3 1.476460 1_555
O49 Zn4 2.095189 1_555
O50 S4 1.475095 1_555
O50 Zn4 2.119728 1_555
O51 S1 1.505917 1_555
O51 Zn5 2.126060 1_555
O52 S2 1.479735 1_555
O52 Zn5 2.075323 1_555
O53 S0 1.506411 1_545
O53 Zn5 2.164104 1_555
O54 S11 1.518645 1_555
O54 Sn0 2.105760 1_555
O55 P1 1.591669 1_655
O55 Sn0 2.007627 1_555
O56 P2 1.587430 1_545
O56 Sn0 2.011630 1_555
O57 S12 1.545377 1_545
O57 Sn1 2.109456 1_555
O58 S13 1.538426 1_555
O58 Sn1 2.123869 1_555
O59 S14 1.542268 1_655
O59 Sn1 2.127147 1_555
O60 S10 1.463351 1_555
O60 Zn6 2.246148 1_555
O61 S8 1.483349 1_455
O61 Zn6 2.248924 1_555
O62 S9 1.484977 1_565
O62 Zn6 2.267265 1_555
O63 S7 1.487220 1_565
O63 Zn7 2.160902 1_555
O64 P0 1.526723 1_555
O64 Zn7 1.976759 1_555
O65 S6 1.488132 1_455
O65 Zn7 2.186963 1_555
O66 S0 1.478144 1_555
O66 Zn8 2.125229 1_555
O67 S1 1.503515 1_555
O67 Zn8 2.191014 1_555
O68 S2 1.505734 1_455
O68 Zn8 2.173438 1_555
O69 S3 1.546534 1_555
O69 Sn2 2.123244 1_555
O70 S4 1.541306 1_455
O70 Sn2 2.102132 1_555
O71 S5 1.551122 1_565
O71 Sn2 2.116847 1_555
