# generated using pymatgen
data_MgFe6(O5F)2
_symmetry_space_group_name_H-M   'P 1'
_cell_length_a   5.04265087
_cell_length_b   5.05818768
_cell_length_c   8.73258525
_cell_angle_alpha   90.88281286
_cell_angle_beta   87.61142982
_cell_angle_gamma   101.19616562
_symmetry_Int_Tables_number   1
_chemical_formula_structural   MgFe6(O5F)2
_chemical_formula_sum   'Mg1 Fe6 O10 F2'
_cell_volume   218.30414960
_cell_formula_units_Z   1
loop_
 _symmetry_equiv_pos_site_id
 _symmetry_equiv_pos_as_xyz
  1  'x, y, z'
loop_
 _atom_site_type_symbol
 _atom_site_label
 _atom_site_symmetry_multiplicity
 _atom_site_fract_x
 _atom_site_fract_y
 _atom_site_fract_z
 _atom_site_occupancy
  Mg  Mg0  1  0.05315058  0.51427352  0.49355894  1
  Fe  Fe0  1  0.99620243  0.00739666  0.00765563  1
  Fe  Fe1  1  0.96662656  0.00595657  0.32073424  1
  Fe  Fe2  1  0.98800187  0.99791069  0.68320340  1
  Fe  Fe3  1  0.55913997  0.43013125  0.16176670  1
  Fe  Fe4  1  0.42742002  0.59003759  0.84321416  1
  Fe  Fe5  1  0.54165430  0.39403967  0.51214303  1
  O  O0  1  0.16212754  0.86940299  0.16277878  1
  O  O1  1  0.18833781  0.85369050  0.84132902  1
  O  O2  1  0.28376915  0.32558763  0.00298331  1
  O  O3  1  0.28869818  0.33873134  0.34406651  1
  O  O4  1  0.24979434  0.36162440  0.66450425  1
  O  O5  1  0.69530541  0.69815000  0.00490880  1
  O  O6  1  0.76762591  0.62895752  0.35245004  1
  O  O7  1  0.73115456  0.64685704  0.66532502  1
  O  O8  1  0.79088172  0.16395245  0.16498173  1
  O  O9  1  0.80163108  0.15095242  0.50619326  1
  F  F0  1  0.22437700  0.88356974  0.50566738  1
  F  F1  1  0.79799054  0.15266704  0.84825081  1
loop_
_geom_bond_atom_site_label_1
_geom_bond_atom_site_label_2
_geom_bond_distance
_geom_bond_site_symmetry_2
Mg0 O9 2.021771 1_455
Mg0 O3 2.036678 1_555
Mg0 O4 2.064977 1_555
Mg0 O6 2.102908 1_455
Mg0 O7 2.350520 1_455
Fe0 O0 1.836488 1_645
Fe0 O8 1.937231 1_555
Fe0 O2 1.945661 1_655
Fe0 O1 1.947627 1_644
Fe0 O5 1.956994 1_545
Fe1 O0 1.863688 1_645
Fe1 O8 1.919114 1_555
Fe1 O9 1.985220 1_555
Fe1 O6 1.992506 1_545
Fe1 O3 2.113738 1_655
Fe2 O1 1.973055 1_655
Fe2 O7 1.992530 1_555
Fe2 O4 2.049917 1_665
Fe2 O9 2.076614 1_565
Fe3 O8 1.947830 1_555
Fe3 O5 1.950123 1_555
Fe3 O2 1.995798 1_555
Fe3 O3 2.050540 1_555
Fe3 O6 2.138500 1_555
Fe4 O2 1.964068 1_556
Fe4 O1 1.964426 1_555
Fe4 O5 1.991470 1_556
Fe4 O4 2.057106 1_555
Fe4 O7 2.118048 1_555
Fe5 O4 1.926906 1_555
Fe5 O9 1.962537 1_555
Fe5 O3 1.965816 1_555
Fe5 O7 1.979173 1_555
Fe5 O6 2.011946 1_555
F0 Mg0 1.902944 1_555
F0 Fe2 2.060313 1_455
F0 Fe1 2.280097 1_465
F1 Fe2 1.936372 1_545
F1 Fe0 1.977215 1_556
