# generated using pymatgen
data_Mg14Si5O24
_symmetry_space_group_name_H-M   'P 1'
_cell_length_a   5.94114600
_cell_length_b   10.17861400
_cell_length_c   14.34867500
_cell_angle_alpha   90.00000000
_cell_angle_beta   90.00000000
_cell_angle_gamma   90.00000000
_symmetry_Int_Tables_number   1
_chemical_formula_structural   Mg14Si5O24
_chemical_formula_sum   'Mg28 Si10 O48'
_cell_volume   867.70214083
_cell_formula_units_Z   2
loop_
 _symmetry_equiv_pos_site_id
 _symmetry_equiv_pos_as_xyz
  1  'x, y, z'
loop_
 _atom_site_type_symbol
 _atom_site_label
 _atom_site_symmetry_multiplicity
 _atom_site_fract_x
 _atom_site_fract_y
 _atom_site_fract_z
 _atom_site_occupancy
  Mg  Mg0  1  0.75612800  0.41887400  0.66956400  1
  Mg  Mg1  1  0.75612800  0.58112600  0.33043600  1
  Mg  Mg2  1  0.24387200  0.91887400  0.83043600  1
  Mg  Mg3  1  0.24387200  0.08112600  0.16956400  1
  Mg  Mg4  1  0.24387200  0.58112600  0.33043600  1
  Mg  Mg5  1  0.24387200  0.41887400  0.66956400  1
  Mg  Mg6  1  0.75612800  0.08112600  0.16956400  1
  Mg  Mg7  1  0.75612800  0.91887400  0.83043600  1
  Mg  Mg8  1  0.00000000  0.32060800  0.32402900  1
  Mg  Mg9  1  0.00000000  0.67939200  0.67597100  1
  Mg  Mg10  1  0.00000000  0.82060800  0.17597100  1
  Mg  Mg11  1  0.00000000  0.17939200  0.82402900  1
  Mg  Mg12  1  0.75971700  0.24659500  0.50240300  1
  Mg  Mg13  1  0.75971700  0.75340500  0.49759700  1
  Mg  Mg14  1  0.24028300  0.74659500  0.99759700  1
  Mg  Mg15  1  0.24028300  0.25340500  0.00240300  1
  Mg  Mg16  1  0.24028300  0.75340500  0.49759700  1
  Mg  Mg17  1  0.24028300  0.24659500  0.50240300  1
  Mg  Mg18  1  0.75971700  0.25340500  0.00240300  1
  Mg  Mg19  1  0.75971700  0.74659500  0.99759700  1
  Mg  Mg20  1  0.50000000  0.50000000  0.50000000  1
  Mg  Mg21  1  0.50000000  0.00000000  0.00000000  1
  Mg  Mg22  1  0.50000000  0.85450100  0.32542300  1
  Mg  Mg23  1  0.50000000  0.14549900  0.67457700  1
  Mg  Mg24  1  0.50000000  0.35450100  0.17457700  1
  Mg  Mg25  1  0.50000000  0.64549900  0.82542300  1
  Mg  Mg26  1  0.50000000  0.00000000  0.50000000  1
  Mg  Mg27  1  0.50000000  0.50000000  0.00000000  1
  Si  Si0  1  0.00000000  0.49781000  0.12472600  1
  Si  Si1  1  0.00000000  0.50219000  0.87527400  1
  Si  Si2  1  0.00000000  0.99781000  0.37527400  1
  Si  Si3  1  0.00000000  0.00219000  0.62472600  1
  Si  Si4  1  0.50000000  0.67409500  0.18862700  1
  Si  Si5  1  0.50000000  0.32590500  0.81137300  1
  Si  Si6  1  0.50000000  0.17409500  0.31137300  1
  Si  Si7  1  0.50000000  0.82590500  0.68862700  1
  Si  Si8  1  0.00000000  0.50000000  0.50000000  1
  Si  Si9  1  0.00000000  0.00000000  0.00000000  1
  O  O0  1  0.71772900  0.24722000  0.26213000  1
  O  O1  1  0.71772900  0.75278000  0.73787000  1
  O  O2  1  0.28227100  0.74722000  0.23787000  1
  O  O3  1  0.28227100  0.25278000  0.76213000  1
  O  O4  1  0.28227100  0.75278000  0.73787000  1
  O  O5  1  0.28227100  0.24722000  0.26213000  1
  O  O6  1  0.71772900  0.25278000  0.76213000  1
  O  O7  1  0.71772900  0.74722000  0.23787000  1
  O  O8  1  0.78515700  0.07475200  0.92641500  1
  O  O9  1  0.78515700  0.92524800  0.07358500  1
  O  O10  1  0.21484300  0.57475200  0.57358500  1
  O  O11  1  0.21484300  0.42524800  0.42641500  1
  O  O12  1  0.21484300  0.92524800  0.07358500  1
  O  O13  1  0.21484300  0.07475200  0.92641500  1
  O  O14  1  0.78515700  0.42524800  0.42641500  1
  O  O15  1  0.78515700  0.57475200  0.57358500  1
  O  O16  1  0.76560700  0.07877200  0.58744500  1
  O  O17  1  0.76560700  0.92122800  0.41255500  1
  O  O18  1  0.23439300  0.57877200  0.91255500  1
  O  O19  1  0.23439300  0.42122800  0.08744500  1
  O  O20  1  0.23439300  0.92122800  0.41255500  1
  O  O21  1  0.23439300  0.07877200  0.58744500  1
  O  O22  1  0.76560700  0.42122800  0.08744500  1
  O  O23  1  0.76560700  0.57877200  0.91255500  1
  O  O24  1  0.50000000  0.97170400  0.74021100  1
  O  O25  1  0.50000000  0.02829600  0.25978900  1
  O  O26  1  0.50000000  0.47170400  0.75978900  1
  O  O27  1  0.50000000  0.52829600  0.24021100  1
  O  O28  1  0.50000000  0.66953000  0.07502700  1
  O  O29  1  0.50000000  0.33047000  0.92497300  1
  O  O30  1  0.50000000  0.16953000  0.42497300  1
  O  O31  1  0.50000000  0.83047000  0.57502700  1
  O  O32  1  0.50000000  0.67228100  0.41406800  1
  O  O33  1  0.50000000  0.32771900  0.58593200  1
  O  O34  1  0.50000000  0.17228100  0.08593200  1
  O  O35  1  0.50000000  0.82771900  0.91406800  1
  O  O36  1  0.00000000  0.99573800  0.25839600  1
  O  O37  1  0.00000000  0.00426200  0.74160400  1
  O  O38  1  0.00000000  0.65299700  0.08597900  1
  O  O39  1  0.00000000  0.34700300  0.91402100  1
  O  O40  1  0.00000000  0.15299700  0.41402100  1
  O  O41  1  0.00000000  0.84700300  0.58597900  1
  O  O42  1  0.00000000  0.64644700  0.42423700  1
  O  O43  1  0.00000000  0.35355300  0.57576300  1
  O  O44  1  0.00000000  0.14644700  0.07576300  1
  O  O45  1  0.00000000  0.85355300  0.92423700  1
  O  O46  1  0.00000000  0.50426200  0.75839600  1
  O  O47  1  0.00000000  0.49573800  0.24160400  1
loop_
_geom_bond_atom_site_label_1
_geom_bond_atom_site_label_2
_geom_bond_distance
_geom_bond_site_symmetry_2
Mg0 O26 2.068991 1_555
Mg0 O43 2.086340 1_655
Mg0 O15 2.108012 1_555
Mg0 O46 2.116436 1_655
Mg0 O33 2.148591 1_555
Mg0 O6 2.162015 1_555
Mg1 O27 2.068991 1_555
Mg1 O42 2.086340 1_655
Mg1 O14 2.108012 1_555
Mg1 O47 2.116436 1_655
Mg1 O32 2.148591 1_555
Mg1 O7 2.162015 1_555
Mg2 O24 2.068991 1_555
Mg2 O45 2.086340 1_555
Mg2 O13 2.108012 1_565
Mg2 O37 2.116436 1_565
Mg2 O35 2.148591 1_555
Mg2 O4 2.162015 1_555
Mg3 O25 2.068991 1_555
Mg3 O44 2.086340 1_555
Mg3 O12 2.108012 1_545
Mg3 O36 2.116436 1_545
Mg3 O34 2.148591 1_555
Mg3 O5 2.162015 1_555
Mg4 O27 2.068991 1_555
Mg4 O42 2.086340 1_555
Mg4 O11 2.108012 1_555
Mg4 O47 2.116436 1_555
Mg4 O32 2.148591 1_555
Mg4 O2 2.162015 1_555
Mg5 O26 2.068991 1_555
Mg5 O43 2.086340 1_555
Mg5 O10 2.108012 1_555
Mg5 O46 2.116436 1_555
Mg5 O33 2.148591 1_555
Mg5 O3 2.162015 1_555
Mg6 O25 2.068991 1_555
Mg6 O44 2.086340 1_655
Mg6 O9 2.108012 1_545
Mg6 O36 2.116436 1_645
Mg6 O34 2.148591 1_555
Mg6 O0 2.162015 1_555
Mg7 O24 2.068991 1_555
Mg7 O45 2.086340 1_655
Mg7 O8 2.108012 1_565
Mg7 O37 2.116436 1_665
Mg7 O35 2.148591 1_555
Mg7 O1 2.162015 1_555
Mg8 O5 2.039414 1_555
Mg8 O0 2.039414 1_455
Mg8 O47 2.139240 1_555
Mg8 O40 2.139618 1_555
Mg8 O14 2.218539 1_455
Mg8 O11 2.218539 1_555
Mg9 O4 2.039414 1_555
Mg9 O1 2.039414 1_455
Mg9 O46 2.139240 1_555
Mg9 O41 2.139618 1_555
Mg9 O15 2.218539 1_455
Mg9 O10 2.218539 1_555
Mg10 O2 2.039414 1_555
Mg10 O7 2.039414 1_455
Mg10 O36 2.139240 1_555
Mg10 O38 2.139618 1_555
Mg10 O9 2.218539 1_455
Mg10 O12 2.218539 1_555
Mg11 O6 2.039414 1_455
Mg11 O3 2.039414 1_555
Mg11 O37 2.139240 1_555
Mg11 O39 2.139618 1_555
Mg11 O8 2.218539 1_455
Mg11 O13 2.218539 1_555
Mg12 O30 2.056834 1_555
Mg12 O43 2.081143 1_655
Mg12 O16 2.099566 1_555
Mg12 O33 2.121133 1_555
Mg12 O14 2.125648 1_555
Mg12 O40 2.133962 1_655
Mg13 O31 2.056834 1_555
Mg13 O42 2.081143 1_655
Mg13 O17 2.099566 1_555
Mg13 O32 2.121133 1_555
Mg13 O15 2.125648 1_555
Mg13 O41 2.133962 1_655
Mg14 O28 2.056834 1_556
Mg14 O45 2.081143 1_555
Mg14 O18 2.099566 1_555
Mg14 O35 2.121133 1_555
Mg14 O12 2.125648 1_556
Mg14 O38 2.133962 1_556
Mg15 O29 2.056834 1_554
Mg15 O44 2.081143 1_555
Mg15 O19 2.099566 1_555
Mg15 O34 2.121133 1_555
Mg15 O13 2.125648 1_554
Mg15 O39 2.133962 1_554
Mg16 O31 2.056834 1_555
Mg16 O42 2.081143 1_555
Mg16 O20 2.099566 1_555
Mg16 O32 2.121133 1_555
Mg16 O10 2.125648 1_555
Mg16 O41 2.133962 1_555
Mg17 O30 2.056834 1_555
Mg17 O43 2.081143 1_555
Mg17 O21 2.099566 1_555
Mg17 O33 2.121133 1_555
Mg17 O11 2.125648 1_555
Mg17 O40 2.133962 1_555
Mg18 O29 2.056834 1_554
Mg18 O44 2.081143 1_655
Mg18 O22 2.099566 1_555
Mg18 O34 2.121133 1_555
Mg18 O8 2.125648 1_554
Mg18 O39 2.133962 1_654
Mg19 O28 2.056834 1_556
Mg19 O45 2.081143 1_655
Mg19 O23 2.099566 1_555
Mg19 O35 2.121133 1_555
Mg19 O9 2.125648 1_556
Mg19 O38 2.133962 1_656
Mg20 O10 2.136332 1_555
Mg20 O11 2.136332 1_555
Mg20 O15 2.136332 1_555
Mg20 O14 2.136332 1_555
Mg20 O33 2.143680 1_555
Mg20 O32 2.143680 1_555
Mg21 O9 2.136332 1_545
Mg21 O13 2.136332 1_554
Mg21 O12 2.136332 1_545
Mg21 O8 2.136332 1_554
Mg21 O35 2.143680 1_544
Mg21 O34 2.143680 1_555
Mg22 O25 2.004058 1_565
Mg22 O2 2.108059 1_555
Mg22 O7 2.108059 1_555
Mg22 O20 2.124732 1_555
Mg22 O17 2.124732 1_555
Mg22 O32 2.248981 1_555
Mg23 O24 2.004058 1_545
Mg23 O3 2.108059 1_555
Mg23 O6 2.108059 1_555
Mg23 O16 2.124732 1_555
Mg23 O21 2.124732 1_555
Mg23 O33 2.248981 1_555
Mg24 O27 2.004058 1_555
Mg24 O5 2.108059 1_555
Mg24 O0 2.108059 1_555
Mg24 O19 2.124732 1_555
Mg24 O22 2.124732 1_555
Mg24 O34 2.248981 1_555
Mg25 O26 2.004058 1_555
Mg25 O4 2.108059 1_555
Mg25 O1 2.108059 1_555
Mg25 O18 2.124732 1_555
Mg25 O23 2.124732 1_555
Mg25 O35 2.248981 1_555
Mg26 O31 2.033854 1_545
Mg26 O30 2.033854 1_555
Mg26 O17 2.169632 1_545
Mg26 O16 2.169632 1_555
Mg26 O20 2.169632 1_545
Mg26 O21 2.169632 1_555
Mg27 O28 2.033854 1_555
Mg27 O29 2.033854 1_554
Mg27 O23 2.169632 1_554
Mg27 O18 2.169632 1_554
Mg27 O19 2.169632 1_555
Mg27 O22 2.169632 1_555
O0 Si6 1.651224 1_555
O1 Si7 1.651224 1_555
O2 Si4 1.651224 1_555
O3 Si5 1.651224 1_555
O4 Si7 1.651224 1_555
O5 Si6 1.651224 1_555
O6 Si5 1.651224 1_555
O7 Si4 1.651224 1_555
O8 Si9 1.822902 1_656
O9 Si9 1.822902 1_665
O10 Si8 1.822902 1_555
O11 Si8 1.822902 1_555
O12 Si9 1.822902 1_565
O13 Si9 1.822902 1_556
O14 Si8 1.822902 1_655
O15 Si8 1.822902 1_655
O16 Si3 1.683153 1_655
O17 Si2 1.683153 1_655
O18 Si1 1.683153 1_555
O19 Si0 1.683153 1_555
O20 Si2 1.683153 1_555
O21 Si3 1.683153 1_555
O22 Si0 1.683153 1_655
O23 Si1 1.683153 1_655
O24 Si7 1.658370 1_555
O25 Si6 1.658370 1_555
O26 Si5 1.658370 1_555
O27 Si4 1.658370 1_555
O28 Si4 1.630672 1_555
O29 Si5 1.630672 1_555
O30 Si6 1.630672 1_555
O31 Si7 1.630672 1_555
O36 Si2 1.677177 1_555
O37 Si3 1.677177 1_555
O38 Si0 1.674575 1_555
O39 Si1 1.674575 1_555
O40 Si2 1.674575 1_545
O41 Si3 1.674575 1_565
O42 Si8 1.844927 1_555
O43 Si8 1.844927 1_555
O44 Si9 1.844927 1_555
O45 Si9 1.844927 1_566
O46 Si1 1.677177 1_555
O47 Si0 1.677177 1_555
