# generated using pymatgen
data_Na14Zn2Si9Ge6(SO16)3
_symmetry_space_group_name_H-M   'P 1'
_cell_length_a   17.66460739
_cell_length_b   8.91858260
_cell_length_c   21.74410706
_cell_angle_alpha   90.59293967
_cell_angle_beta   89.73084847
_cell_angle_gamma   120.21253954
_symmetry_Int_Tables_number   1
_chemical_formula_structural   Na14Zn2Si9Ge6(SO16)3
_chemical_formula_sum   'Na42 Zn6 Si27 Ge18 S9 O144'
_cell_volume   2960.15595521
_cell_formula_units_Z   3
loop_
 _symmetry_equiv_pos_site_id
 _symmetry_equiv_pos_as_xyz
  1  'x, y, z'
loop_
 _atom_site_type_symbol
 _atom_site_label
 _atom_site_symmetry_multiplicity
 _atom_site_fract_x
 _atom_site_fract_y
 _atom_site_fract_z
 _atom_site_occupancy
  Na  Na0  1  0.31147239  0.00885809  0.24522554  1
  Na  Na1  1  0.81495758  0.01509530  0.24812975  1
  Na  Na2  1  0.19062473  0.37112637  0.25304109  1
  Na  Na3  1  0.69158766  0.36762642  0.25009075  1
  Na  Na4  1  0.99032320  0.61519670  0.25325239  1
  Na  Na5  1  0.49386947  0.62275002  0.24806082  1
  Na  Na6  1  0.31475766  0.61668082  0.74340889  1
  Na  Na7  1  0.81293277  0.61790644  0.74165486  1
  Na  Na8  1  0.99302820  0.35802838  0.74330788  1
  Na  Na9  1  0.49197380  0.37079858  0.74807206  1
  Na  Na10  1  0.19257214  0.01976462  0.74546803  1
  Na  Na11  1  0.69230415  0.01175795  0.74942244  1
  Na  Na12  1  0.15532916  0.34017900  0.58398911  1
  Na  Na13  1  0.65515157  0.34777823  0.57845462  1
  Na  Na14  1  0.01402948  0.69558704  0.58068392  1
  Na  Na15  1  0.51537725  0.69029452  0.57394750  1
  Na  Na16  1  0.33101207  0.96932221  0.58560693  1
  Na  Na17  1  0.82881801  0.95690669  0.57408851  1
  Na  Na18  1  0.15476482  0.96382049  0.08514558  1
  Na  Na19  1  0.65638068  0.97094651  0.08782925  1
  Na  Na20  1  0.33012079  0.69615950  0.08316196  1
  Na  Na21  1  0.83008056  0.69188847  0.08875692  1
  Na  Na22  1  0.01559321  0.33598750  0.07876592  1
  Na  Na23  1  0.51554591  0.33302524  0.08613182  1
  Na  Na24  1  0.98441380  0.67096199  0.91846695  1
  Na  Na25  1  0.35005779  0.03154519  0.91291637  1
  Na  Na26  1  0.16532788  0.30199331  0.91782620  1
  Na  Na27  1  0.48639573  0.30139898  0.41885250  1
  Na  Na28  1  0.66878404  0.03060162  0.41596265  1
  Na  Na29  1  0.84993075  0.67242584  0.41954051  1
  Na  Na30  1  0.00271968  0.00355141  0.49544781  1
  Na  Na31  1  0.49417132  0.98849427  0.49658095  1
  Na  Na32  1  0.99228517  0.99937104  0.99738383  1
  Na  Na33  1  0.50927540  0.00915391  0.99842871  1
  Na  Na34  1  0.33932484  0.34401605  0.82854709  1
  Na  Na35  1  0.82517193  0.31851453  0.83191340  1
  Na  Na36  1  0.32607076  0.33310363  0.33276516  1
  Na  Na37  1  0.83759253  0.33196511  0.33014139  1
  Na  Na38  1  0.17060859  0.67364677  0.16619007  1
  Na  Na39  1  0.66877612  0.67372513  0.16769783  1
  Na  Na40  1  0.16786642  0.66263814  0.66315526  1
  Na  Na41  1  0.67184946  0.66828079  0.66331712  1
  Zn  Zn0  1  0.32413104  0.33418997  0.68715165  1
  Zn  Zn1  1  0.83681355  0.33525581  0.68128799  1
  Zn  Zn2  1  0.33557604  0.33549378  0.18395353  1
  Zn  Zn3  1  0.82312430  0.31487097  0.18890383  1
  Zn  Zn4  1  0.16527958  0.67994496  0.01015667  1
  Zn  Zn5  1  0.67497984  0.66507807  0.50432037  1
  Si  Si0  1  0.13939407  0.00176849  0.25023234  1
  Si  Si1  1  0.63707610  0.98669615  0.25309906  1
  Si  Si2  1  0.35595375  0.71814466  0.25059972  1
  Si  Si3  1  0.85000065  0.70846330  0.25394612  1
  Si  Si4  1  0.00453425  0.29447203  0.25469408  1
  Si  Si5  1  0.13713470  0.28601160  0.75408771  1
  Si  Si6  1  0.64335128  0.28545972  0.74766520  1
  Si  Si7  1  0.50468947  0.71830449  0.75593304  1
  Si  Si8  1  0.35152987  0.99059401  0.75420755  1
  Si  Si9  1  0.85599988  0.99342263  0.75103069  1
  Si  Si10  1  0.98084177  0.34205760  0.58115371  1
  Si  Si11  1  0.18906113  0.04731640  0.58481641  1
  Si  Si12  1  0.33435286  0.62775617  0.58294125  1
  Si  Si13  1  0.83312719  0.62648093  0.58532243  1
  Si  Si14  1  0.47967209  0.61812479  0.08046095  1
  Si  Si15  1  0.33278464  0.03088749  0.08648842  1
  Si  Si16  1  0.83417865  0.04077469  0.08227401  1
  Si  Si17  1  0.68908603  0.33068861  0.08461883  1
  Si  Si18  1  0.80802453  0.65811104  0.91523616  1
  Si  Si19  1  0.01757814  0.37593446  0.91944935  1
  Si  Si20  1  0.52783406  0.37670050  0.91395199  1
  Si  Si21  1  0.16640481  0.96678243  0.91746273  1
  Si  Si22  1  0.30840311  0.95765223  0.41584962  1
  Si  Si23  1  0.82319505  0.97857006  0.41811470  1
  Si  Si24  1  0.66507308  0.36988944  0.41605109  1
  Si  Si25  1  0.02906453  0.68024950  0.41410935  1
  Si  Si26  1  0.51774667  0.65914975  0.41952167  1
  Ge  Ge0  1  0.99674107  0.99203761  0.35163809  1
  Ge  Ge1  1  0.49654884  0.97802661  0.35945121  1
  Ge  Ge2  1  0.99571226  0.01306295  0.85903467  1
  Ge  Ge3  1  0.50542007  0.01912661  0.84741296  1
  Ge  Ge4  1  0.99616629  0.01722248  0.63991949  1
  Ge  Ge5  1  0.49408152  0.97646729  0.65600445  1
  Ge  Ge6  1  0.98998169  0.00657595  0.15858915  1
  Ge  Ge7  1  0.49715790  0.97864229  0.14239433  1
  Ge  Ge8  1  0.34808750  0.31889282  0.98012131  1
  Ge  Ge9  1  0.82837237  0.31956429  0.97804955  1
  Ge  Ge10  1  0.32799784  0.33599212  0.47790074  1
  Ge  Ge11  1  0.84968370  0.35900724  0.47272450  1
  Ge  Ge12  1  0.66917226  0.65188075  0.02016661  1
  Ge  Ge13  1  0.16943299  0.68358056  0.51905197  1
  Ge  Ge14  1  0.16609480  0.68718497  0.30800714  1
  Ge  Ge15  1  0.67345510  0.68639366  0.32153520  1
  Ge  Ge16  1  0.16464263  0.66767069  0.81590667  1
  Ge  Ge17  1  0.66622410  0.64703431  0.80801132  1
  S  S0  1  0.50266602  0.28654449  0.25102557  1
  S  S1  1  0.00418818  0.71741493  0.75303444  1
  S  S2  1  0.47869069  0.32827049  0.58552985  1
  S  S3  1  0.68146182  0.03791056  0.58467540  1
  S  S4  1  0.97834594  0.62807565  0.08449559  1
  S  S5  1  0.18538443  0.32769298  0.08166802  1
  S  S6  1  0.31769603  0.66686593  0.91607951  1
  S  S7  1  0.66617932  0.95703392  0.91653229  1
  S  S8  1  0.16832271  0.37985253  0.41670687  1
  O  O0  1  0.09425070  0.03415173  0.30977178  1
  O  O1  1  0.59141115  0.02198109  0.31185877  1
  O  O2  1  0.41917205  0.81323715  0.30846582  1
  O  O3  1  0.91394664  0.79829773  0.31255256  1
  O  O4  1  0.49215386  0.18508269  0.30604238  1
  O  O5  1  0.98513282  0.15637826  0.30835812  1
  O  O6  1  0.09281024  0.16134652  0.81332243  1
  O  O7  1  0.60128983  0.16643043  0.80877151  1
  O  O8  1  0.48543243  0.81807537  0.81219175  1
  O  O9  1  0.99493682  0.80024501  0.80918816  1
  O  O10  1  0.41224500  0.02310088  0.81542136  1
  O  O11  1  0.91884157  0.02532821  0.80943973  1
  O  O12  1  0.39367990  0.94584323  0.69276487  1
  O  O13  1  0.89739887  0.95472450  0.68780673  1
  O  O14  1  0.07689225  0.20303150  0.69077833  1
  O  O15  1  0.57520267  0.18908103  0.68849349  1
  O  O16  1  0.01573564  0.81574731  0.69656964  1
  O  O17  1  0.52549943  0.83535927  0.69199516  1
  O  O18  1  0.39573906  0.83612327  0.18696343  1
  O  O19  1  0.89033300  0.83556832  0.19134008  1
  O  O20  1  0.02563174  0.21887196  0.18888986  1
  O  O21  1  0.51230745  0.20410862  0.19319653  1
  O  O22  1  0.07498443  0.96401759  0.18739660  1
  O  O23  1  0.57786673  0.95193835  0.18890457  1
  O  O24  1  0.43630033  0.34361846  0.64157498  1
  O  O25  1  0.95226061  0.38992047  0.64543309  1
  O  O26  1  0.24747466  0.10793889  0.64599466  1
  O  O27  1  0.73253367  0.11607774  0.64142234  1
  O  O28  1  0.31135630  0.51910282  0.64520290  1
  O  O29  1  0.81568865  0.51231098  0.64598561  1
  O  O30  1  0.44909725  0.50713033  0.14238062  1
  O  O31  1  0.93606548  0.52892250  0.13956984  1
  O  O32  1  0.31009492  0.11285303  0.14437183  1
  O  O33  1  0.81137112  0.10549365  0.14455785  1
  O  O34  1  0.23673099  0.35297321  0.13779190  1
  O  O35  1  0.74803603  0.38847196  0.14500049  1
  O  O36  1  0.22888055  0.30836103  0.02497907  1
  O  O37  1  0.73432442  0.28435430  0.02569726  1
  O  O38  1  0.40757370  0.51875882  0.02335988  1
  O  O39  1  0.92621237  0.54598185  0.02679766  1
  O  O40  1  0.35425492  0.15473523  0.02313294  1
  O  O41  1  0.85793103  0.17707270  0.02424410  1
  O  O42  1  0.23457150  0.18590403  0.52741789  1
  O  O43  1  0.72224805  0.14056474  0.52931854  1
  O  O44  1  0.35763349  0.53556722  0.52528284  1
  O  O45  1  0.85211140  0.53483330  0.52345713  1
  O  O46  1  0.42495056  0.30227593  0.52876151  1
  O  O47  1  0.91065531  0.29910295  0.52552377  1
  O  O48  1  0.27796674  0.69028699  0.97214421  1
  O  O49  1  0.76695093  0.69789926  0.97638754  1
  O  O50  1  0.07863589  0.45149565  0.97931984  1
  O  O51  1  0.58363744  0.46483482  0.97589328  1
  O  O52  1  0.14402691  0.85784418  0.97931234  1
  O  O53  1  0.65712009  0.85919950  0.97298834  1
  O  O54  1  0.26817814  0.83724940  0.47676195  1
  O  O55  1  0.78632504  0.85754418  0.47732397  1
  O  O56  1  0.16019662  0.46382443  0.47378356  1
  O  O57  1  0.63697916  0.42921261  0.47785687  1
  O  O58  1  0.08418462  0.69783497  0.47617296  1
  O  O59  1  0.57672786  0.70070321  0.47996934  1
  O  O60  1  0.06940867  0.63825727  0.35287089  1
  O  O61  1  0.56556355  0.62245228  0.35888509  1
  O  O62  1  0.24923753  0.87240277  0.35368269  1
  O  O63  1  0.75385714  0.88722980  0.35882458  1
  O  O64  1  0.18036158  0.48103243  0.36068979  1
  O  O65  1  0.68664305  0.50856649  0.35820715  1
  O  O66  1  0.06557511  0.51342363  0.86032292  1
  O  O67  1  0.56782351  0.49327596  0.85253413  1
  O  O68  1  0.19026142  0.87487241  0.85874743  1
  O  O69  1  0.67747636  0.87717815  0.86021108  1
  O  O70  1  0.26061702  0.64148481  0.86033939  1
  O  O71  1  0.74846727  0.62585254  0.85355426  1
  O  O72  1  0.01546219  0.84942834  0.41057164  1
  O  O73  1  0.50873510  0.83347176  0.41289615  1
  O  O74  1  0.40959937  0.99181643  0.40846260  1
  O  O75  1  0.91856137  0.99047976  0.40942693  1
  O  O76  1  0.09087085  0.20502898  0.41461431  1
  O  O77  1  0.57828556  0.17335529  0.40672776  1
  O  O78  1  0.00862644  0.18395126  0.91295930  1
  O  O79  1  0.51116714  0.17332458  0.91053149  1
  O  O80  1  0.07946355  0.98639035  0.90825507  1
  O  O81  1  0.58747046  0.97776406  0.91388690  1
  O  O82  1  0.40490105  0.82707931  0.91204047  1
  O  O83  1  0.90948669  0.82742445  0.90843539  1
  O  O84  1  0.48669007  0.16710075  0.58601769  1
  O  O85  1  0.98646195  0.16095977  0.58360918  1
  O  O86  1  0.09110370  0.02956883  0.59183027  1
  O  O87  1  0.59276704  0.02925086  0.58771530  1
  O  O88  1  0.42633784  0.82685969  0.58961353  1
  O  O89  1  0.92662154  0.82109104  0.58837202  1
  O  O90  1  0.48507273  0.80951732  0.08331520  1
  O  O91  1  0.98734284  0.80530191  0.08488502  1
  O  O92  1  0.42635793  0.02788720  0.08908625  1
  O  O93  1  0.92602225  0.02309148  0.08940531  1
  O  O94  1  0.09799734  0.16260951  0.08297764  1
  O  O95  1  0.59121907  0.15265415  0.09079126  1
  O  O96  1  0.34348252  0.16036647  0.75177219  1
  O  O97  1  0.84477593  0.16192309  0.74712000  1
  O  O98  1  0.23420524  0.31367171  0.75301565  1
  O  O99  1  0.73988643  0.31156541  0.74686874  1
  O  O100  1  0.42063366  0.52839519  0.75014636  1
  O  O101  1  0.92796076  0.53981806  0.75218767  1
  O  O102  1  0.34471220  0.52676200  0.24615859  1
  O  O103  1  0.84214026  0.52271326  0.24938929  1
  O  O104  1  0.42468848  0.30800823  0.24924092  1
  O  O105  1  0.92108468  0.31825238  0.24818089  1
  O  O106  1  0.23651706  0.16839157  0.24828130  1
  O  O107  1  0.73335950  0.15469056  0.25220288  1
  O  O108  1  0.32313264  0.50699584  0.91666213  1
  O  O109  1  0.82164011  0.48863855  0.92555251  1
  O  O110  1  0.42664950  0.34755696  0.91960316  1
  O  O111  1  0.92097196  0.36399005  0.92226856  1
  O  O112  1  0.25694281  0.16662449  0.92433927  1
  O  O113  1  0.74795707  0.13571493  0.91892083  1
  O  O114  1  0.32076380  0.15379329  0.42634546  1
  O  O115  1  0.82351372  0.16374079  0.42288316  1
  O  O116  1  0.25049238  0.36535700  0.41982065  1
  O  O117  1  0.75495579  0.35571520  0.42237137  1
  O  O118  1  0.42086723  0.47713325  0.42206519  1
  O  O119  1  0.92896094  0.50865042  0.41787045  1
  O  O120  1  0.17297336  0.47885945  0.07857843  1
  O  O121  1  0.67359231  0.49898618  0.07574081  1
  O  O122  1  0.06646357  0.64625817  0.08174524  1
  O  O123  1  0.58011468  0.65575330  0.06824685  1
  O  O124  1  0.25044510  0.83580706  0.07697024  1
  O  O125  1  0.74818759  0.84335544  0.07223150  1
  O  O126  1  0.17412849  0.84884503  0.57558673  1
  O  O127  1  0.66766079  0.86061206  0.58167709  1
  O  O128  1  0.24932812  0.65522185  0.57283662  1
  O  O129  1  0.74936361  0.65391253  0.57922606  1
  O  O130  1  0.08148801  0.50589107  0.56996371  1
  O  O131  1  0.56586064  0.48418880  0.58261653  1
  O  O132  1  0.14539371  0.82083109  0.25013593  1
  O  O133  1  0.64323643  0.80607186  0.25846825  1
  O  O134  1  0.25857414  0.70361694  0.25622271  1
  O  O135  1  0.75332804  0.69848377  0.25836760  1
  O  O136  1  0.09679837  0.48507209  0.25808638  1
  O  O137  1  0.58373012  0.46145212  0.25229131  1
  O  O138  1  0.14427972  0.48114225  0.76094671  1
  O  O139  1  0.64664241  0.47481218  0.74937878  1
  O  O140  1  0.08790881  0.70644087  0.75541895  1
  O  O141  1  0.59585241  0.70878375  0.76000161  1
  O  O142  1  0.25430316  0.80690086  0.75850937  1
  O  O143  1  0.75881817  0.81427535  0.75694127  1
loop_
_geom_bond_atom_site_label_1
_geom_bond_atom_site_label_2
_geom_bond_distance
_geom_bond_site_symmetry_2
Na0 O106 2.382253 1_555
Na0 O32 2.394843 1_555
Na0 O104 2.398394 1_555
Na0 O134 2.406780 1_545
Na0 O132 2.545532 1_545
Na0 O62 2.634349 1_545
Na0 O18 2.905811 1_545
Na1 O107 2.331961 1_555
Na1 O105 2.392363 1_555
Na1 O33 2.411679 1_555
Na1 O135 2.474892 1_545
Na1 O133 2.652987 1_545
Na1 O63 2.655658 1_545
Na1 O19 2.819653 1_545
Na1 O5 2.920622 1_555
Na2 O106 2.325440 1_555
Na2 O136 2.341553 1_555
Na2 O102 2.357093 1_555
Na2 O64 2.569054 1_555
Na2 O134 2.579372 1_555
Na2 O34 2.659824 1_555
Na2 O20 2.880996 1_555
Na2 O0 2.891325 1_555
Na3 O103 2.298706 1_555
Na3 O107 2.359137 1_555
Na3 O137 2.436265 1_555
Na3 O35 2.459943 1_555
Na3 O135 2.584755 1_555
Na3 O65 2.676145 1_555
Na4 O105 2.292820 1_555
Na4 O103 2.316659 1_555
Na4 O132 2.411731 1_655
Na4 O60 2.532992 1_655
Na4 O31 2.619497 1_555
Na4 O136 2.663944 1_655
Na4 O3 2.882180 1_555
Na5 O133 2.311374 1_555
Na5 O102 2.325294 1_555
Na5 O104 2.433602 1_555
Na5 O30 2.473157 1_555
Na5 O137 2.626752 1_555
Na5 O61 2.728205 1_555
Na5 O23 2.855117 1_555
Na5 O2 2.923355 1_555
Na6 O28 2.287142 1_555
Na6 O98 2.347395 1_555
Na6 O100 2.371987 1_555
Na6 O142 2.436148 1_555
Na6 O138 2.647730 1_555
Na6 O70 2.758003 1_555
Na6 O12 2.776310 1_555
Na7 O29 2.285024 1_555
Na7 O99 2.366303 1_555
Na7 O143 2.400261 1_555
Na7 O101 2.469425 1_555
Na7 O139 2.551958 1_555
Na7 O71 2.696969 1_555
Na7 O13 2.857694 1_555
Na8 O97 2.305497 1_555
Na8 O25 2.315560 1_555
Na8 O138 2.353649 1_655
Na8 O101 2.419489 1_555
Na8 O140 2.698111 1_655
Na8 O14 2.724441 1_655
Na8 O66 2.864806 1_655
Na8 O11 2.957477 1_555
Na9 O100 2.312237 1_555
Na9 O96 2.335758 1_555
Na9 O139 2.403220 1_555
Na9 O24 2.481568 1_555
Na9 O67 2.579165 1_555
Na9 O141 2.634815 1_555
Na10 O96 2.309372 1_555
Na10 O26 2.342074 1_555
Na10 O98 2.343242 1_555
Na10 O140 2.466355 1_545
Na10 O142 2.640282 1_545
Na10 O68 2.783978 1_545
Na10 O16 2.910315 1_545
Na10 O6 3.008886 1_555
Na11 O97 2.328121 1_555
Na11 O99 2.366400 1_555
Na11 O141 2.373390 1_545
Na11 O27 2.499915 1_555
Na11 O143 2.568990 1_545
Na11 O69 2.655189 1_545
Na11 O17 2.836368 1_545
Na11 O7 2.885963 1_555
Na12 O86 2.415609 1_555
Na12 O130 2.435536 1_555
Na12 O128 2.454683 1_555
Na12 O85 2.579622 1_455
Na12 O56 2.631182 1_555
Na12 O14 2.670330 1_555
Na12 O42 2.693102 1_555
Na12 O28 2.734708 1_555
Na13 O129 2.377124 1_555
Na13 O57 2.385246 1_555
Na13 O131 2.429759 1_555
Na13 O87 2.486817 1_555
Na13 O84 2.579529 1_555
Na13 O15 2.783771 1_555
Na13 O43 2.848378 1_555
Na13 O29 2.856203 1_555
Na14 O89 2.323336 1_455
Na14 O126 2.447130 1_555
Na14 O130 2.520864 1_555
Na14 O58 2.578740 1_555
Na14 O86 2.586785 1_565
Na14 O16 2.722357 1_555
Na14 O45 2.766631 1_455
Na14 O25 2.770532 1_455
Na15 O59 2.289267 1_555
Na15 O127 2.336332 1_555
Na15 O131 2.422427 1_555
Na15 O88 2.446973 1_555
Na15 O44 2.629840 1_555
Na15 O87 2.631163 1_565
Na15 O17 2.827941 1_555
Na16 O84 2.406645 1_565
Na16 O126 2.426114 1_555
Na16 O128 2.434379 1_555
Na16 O88 2.571830 1_555
Na16 O54 2.621459 1_555
Na16 O12 2.639333 1_555
Na16 O26 2.685943 1_565
Na16 O46 2.862995 1_565
Na17 O55 2.254461 1_555
Na17 O129 2.339314 1_555
Na17 O85 2.450857 1_565
Na17 O127 2.531189 1_555
Na17 O89 2.582136 1_555
Na17 O13 2.763172 1_555
Na17 O47 2.851530 1_565
Na18 O94 2.437711 1_565
Na18 O52 2.450246 1_554
Na18 O122 2.451643 1_555
Na18 O124 2.475218 1_555
Na18 O91 2.556807 1_455
Na18 O22 2.627240 1_555
Na18 O32 2.698369 1_565
Na19 O95 2.414502 1_565
Na19 O125 2.425705 1_555
Na19 O123 2.463257 1_555
Na19 O23 2.554412 1_555
Na19 O90 2.618171 1_555
Na19 O33 2.674314 1_565
Na19 O53 2.681472 1_554
Na19 O37 2.778720 1_565
Na20 O124 2.306423 1_555
Na20 O90 2.393573 1_555
Na20 O120 2.460886 1_555
Na20 O18 2.550726 1_555
Na20 O92 2.567474 1_565
Na20 O48 2.578474 1_554
Na20 O38 2.860997 1_555
Na20 O34 2.911323 1_555
Na21 O121 2.427407 1_555
Na21 O91 2.432898 1_555
Na21 O125 2.455258 1_555
Na21 O19 2.518107 1_555
Na21 O93 2.561027 1_565
Na21 O35 2.650207 1_555
Na21 O49 2.702776 1_554
Na21 O39 2.925441 1_555
Na22 O120 2.405668 1_555
Na22 O50 2.417877 1_554
Na22 O93 2.431171 1_455
Na22 O122 2.441971 1_555
Na22 O94 2.605326 1_555
Na22 O20 2.664292 1_555
Na22 O41 2.682227 1_455
Na23 O92 2.362184 1_555
Na23 O121 2.424530 1_555
Na23 O123 2.540012 1_555
Na23 O95 2.560018 1_555
Na23 O21 2.594777 1_555
Na23 O30 2.658257 1_555
Na23 O51 2.680049 1_554
Na23 O40 2.820393 1_555
Na24 O83 2.369469 1_555
Na24 O111 2.382023 1_555
Na24 O80 2.457253 1_655
Na24 O109 2.496178 1_555
Na24 O39 2.593518 1_556
Na24 O9 2.616686 1_555
Na24 O66 2.757071 1_655
Na24 O52 2.781705 1_655
Na25 O10 2.400965 1_555
Na25 O110 2.439392 1_555
Na25 O82 2.457905 1_545
Na25 O79 2.465601 1_555
Na25 O112 2.490538 1_555
Na25 O40 2.611760 1_556
Na25 O68 2.708375 1_545
Na25 O48 2.951004 1_545
Na26 O78 2.418540 1_555
Na26 O80 2.441465 1_545
Na26 O108 2.446411 1_555
Na26 O112 2.463475 1_555
Na26 O36 2.578728 1_556
Na26 O6 2.594056 1_555
Na26 O50 2.812415 1_555
Na26 O70 2.914213 1_555
Na27 O118 2.371502 1_555
Na27 O74 2.394794 1_545
Na27 O77 2.421498 1_555
Na27 O114 2.538419 1_555
Na27 O46 2.621726 1_555
Na27 O57 2.640310 1_555
Na27 O4 2.674821 1_555
Na27 O61 2.807995 1_555
Na28 O115 2.374246 1_555
Na28 O73 2.466857 1_545
Na28 O77 2.504699 1_555
Na28 O117 2.509087 1_555
Na28 O1 2.630162 1_555
Na28 O43 2.639843 1_555
Na28 O63 2.705631 1_545
Na28 O59 2.913135 1_545
Na29 O117 2.455657 1_555
Na29 O75 2.472610 1_555
Na29 O119 2.476762 1_555
Na29 O72 2.536840 1_655
Na29 O3 2.588947 1_555
Na29 O45 2.592062 1_555
Na29 O55 2.716168 1_555
Na29 O65 2.826232 1_555
Na30 O75 2.359958 1_445
Na30 O72 2.366672 1_545
Na30 O76 2.442654 1_555
Na30 O85 2.464353 1_455
Na30 O89 2.525613 1_445
Na30 O86 2.557274 1_555
Na31 O73 2.364392 1_555
Na31 O88 2.430061 1_555
Na31 O74 2.444706 1_555
Na31 O77 2.513394 1_565
Na31 O87 2.544159 1_565
Na31 O84 2.546001 1_565
Na32 O93 2.374235 1_566
Na32 O78 2.396358 1_665
Na32 O83 2.437112 1_555
Na32 O80 2.507509 1_655
Na32 O94 2.512169 1_666
Na32 O91 2.556933 1_556
Na33 O81 2.391712 1_545
Na33 O79 2.409533 1_555
Na33 O95 2.424112 1_556
Na33 O90 2.460547 1_546
Na33 O92 2.504298 1_556
Na33 O82 2.553624 1_545
Na34 O100 2.308936 1_555
Na34 O96 2.353362 1_555
Na34 O98 2.394235 1_555
Na34 O108 2.494242 1_555
Na34 O110 2.505790 1_555
Na34 O112 2.584935 1_555
Na35 O99 2.371273 1_555
Na35 O97 2.428419 1_555
Na35 O113 2.428835 1_555
Na35 O111 2.492444 1_555
Na35 O109 2.545941 1_555
Na35 O101 2.575300 1_555
Na36 O106 2.380716 1_555
Na36 O116 2.408290 1_555
Na36 O118 2.457362 1_555
Na36 O102 2.475275 1_555
Na36 O114 2.573204 1_555
Na36 O104 2.595671 1_555
Na37 O105 2.349163 1_555
Na37 O107 2.409556 1_555
Na37 O103 2.430355 1_555
Na37 O115 2.462078 1_555
Na37 O119 2.476699 1_555
Na37 O117 2.544106 1_555
Na38 O132 2.405105 1_555
Na38 O124 2.413254 1_555
Na38 O134 2.432742 1_555
Na38 O136 2.521805 1_555
Na38 O122 2.527021 1_555
Na38 O120 2.579275 1_555
Na39 O135 2.419341 1_555
Na39 O133 2.443701 1_555
Na39 O137 2.531440 1_555
Na39 O125 2.543111 1_555
Na39 O121 2.549776 1_555
Na39 O123 2.631895 1_555
Na40 O128 2.449186 1_555
Na40 O130 2.492451 1_555
Na40 O126 2.504865 1_555
Na40 O142 2.506609 1_555
Na40 O140 2.585502 1_555
Na40 O138 2.588325 1_555
Na41 O129 2.320099 1_555
Na41 O139 2.441958 1_555
Na41 O131 2.481476 1_555
Na41 O143 2.482182 1_555
Na41 O127 2.508205 1_555
Na41 O141 2.607342 1_555
Ge0 O0 1.810508 1_665
Ge0 O3 1.812418 1_555
Ge0 O5 1.846282 1_565
Ge0 O75 1.857713 1_555
Ge0 O72 1.957085 1_655
Ge0 O76 2.244343 1_665
Ge1 O2 1.793343 1_555
Ge1 O1 1.834006 1_565
Ge1 O73 1.836194 1_555
Ge1 O77 1.903072 1_565
Ge1 O74 1.918842 1_555
Ge1 O4 2.225833 1_565
Ge2 O11 1.784507 1_555
Ge2 O78 1.834486 1_655
Ge2 O6 1.845847 1_655
Ge2 O83 1.923127 1_545
Ge2 O80 1.940384 1_645
Ge2 O9 2.169997 1_545
Ge3 O7 1.752203 1_555
Ge3 O8 1.806470 1_545
Ge3 O10 1.806689 1_555
Ge3 O79 1.899191 1_555
Ge3 O81 2.212433 1_545
Ge3 O82 2.242066 1_545
Ge4 O85 1.851367 1_555
Ge4 O13 1.858785 1_545
Ge4 O14 1.897686 1_655
Ge4 O89 1.906546 1_545
Ge4 O86 1.928217 1_655
Ge4 O16 2.353837 1_645
Ge5 O17 1.797670 1_555
Ge5 O12 1.833767 1_555
Ge5 O15 1.842614 1_565
Ge5 O88 1.914619 1_555
Ge5 O87 2.151657 1_565
Ge5 O84 2.345712 1_565
Ge6 O20 1.787077 1_655
Ge6 O19 1.800149 1_545
Ge6 O22 1.838041 1_645
Ge6 O93 1.936302 1_555
Ge6 O94 2.371896 1_655
Ge6 O91 2.376942 1_545
Ge7 O23 1.863422 1_555
Ge7 O18 1.865952 1_555
Ge7 O90 1.899833 1_555
Ge7 O92 1.917704 1_565
Ge7 O95 1.962561 1_565
Ge7 O21 2.179580 1_565
Ge8 O40 1.794390 1_556
Ge8 O38 1.804165 1_556
Ge8 O110 1.831839 1_555
Ge8 O112 1.921300 1_555
Ge8 O36 2.275502 1_556
Ge8 O108 2.389690 1_555
Ge9 O37 1.843239 1_556
Ge9 O41 1.896238 1_556
Ge9 O111 1.908614 1_555
Ge9 O109 1.951490 1_555
Ge9 O113 1.997200 1_555
Ge9 O39 2.156102 1_556
Ge10 O42 1.861331 1_555
Ge10 O44 1.879631 1_555
Ge10 O114 1.915246 1_555
Ge10 O118 1.919487 1_555
Ge10 O116 1.980378 1_555
Ge10 O46 2.188507 1_555
Ge11 O119 1.816928 1_555
Ge11 O47 1.834924 1_555
Ge11 O45 1.890690 1_555
Ge11 O115 1.891154 1_555
Ge11 O117 1.991676 1_555
Ge11 O43 2.446861 1_555
Ge12 O49 1.826780 1_554
Ge12 O51 1.853716 1_554
Ge12 O121 1.862232 1_555
Ge12 O123 1.899348 1_555
Ge12 O125 1.929254 1_555
Ge12 O53 2.225744 1_554
Ge13 O58 1.833427 1_555
Ge13 O54 1.836177 1_555
Ge13 O126 1.879076 1_555
Ge13 O130 1.921654 1_555
Ge13 O128 1.950482 1_555
Ge13 O56 2.115779 1_555
Ge14 O60 1.817183 1_555
Ge14 O62 1.846679 1_555
Ge14 O132 1.900504 1_555
Ge14 O136 1.917609 1_555
Ge14 O134 1.924381 1_555
Ge14 O64 2.295389 1_555
Ge15 O63 1.817523 1_555
Ge15 O61 1.875714 1_555
Ge15 O65 1.898726 1_555
Ge15 O135 1.928897 1_555
Ge15 O133 1.978723 1_555
Ge15 O137 2.358719 1_555
Ge16 O66 1.864521 1_555
Ge16 O68 1.901089 1_555
Ge16 O142 1.908461 1_555
Ge16 O138 1.919809 1_555
Ge16 O140 2.045632 1_555
Ge16 O70 2.068993 1_555
Ge17 O71 1.849478 1_555
Ge17 O67 1.857912 1_555
Ge17 O139 1.879676 1_555
Ge17 O141 1.910869 1_555
Ge17 O143 1.922267 1_555
Ge17 O69 2.254797 1_555
O0 Si0 1.615471 1_555
O1 Si1 1.618534 1_545
O2 Si2 1.608562 1_555
O3 Si3 1.619688 1_555
O4 S0 1.461382 1_555
O5 Si4 1.611547 1_655
O6 Si5 1.628566 1_555
O7 Si6 1.634179 1_555
O8 Si7 1.637720 1_555
O9 S1 1.471139 1_655
O10 Si8 1.642707 1_545
O11 Si9 1.616828 1_545
O12 Si8 1.666522 1_555
O13 Si9 1.666911 1_555
O14 Si5 1.665908 1_555
O15 Si6 1.671443 1_555
O16 S1 1.469028 1_555
O17 Si7 1.672381 1_555
O18 Si2 1.671072 1_555
O19 Si3 1.689915 1_555
O20 Si4 1.693739 1_555
O21 S0 1.501856 1_555
O22 Si0 1.701244 1_565
O23 Si1 1.678357 1_555
O24 S2 1.468228 1_555
O24 Zn0 2.175050 1_555
O25 Si10 1.608911 1_555
O25 Zn1 1.999170 1_555
O26 Si11 1.600996 1_555
O26 Zn0 1.982490 1_555
O27 S3 1.477202 1_555
O27 Zn1 2.078876 1_555
O28 Si12 1.600843 1_555
O28 Zn0 2.002562 1_555
O29 Si13 1.606218 1_555
O29 Zn1 1.960307 1_555
O30 Si14 1.602207 1_555
O30 Zn2 2.025808 1_555
O31 S4 1.456958 1_555
O31 Zn3 2.228142 1_555
O32 Si15 1.596952 1_555
O32 Zn2 1.988690 1_555
O33 Si16 1.594477 1_555
O33 Zn3 2.008566 1_555
O34 S5 1.470270 1_555
O34 Zn2 2.091452 1_555
O35 Si17 1.591391 1_555
O35 Zn3 2.000674 1_555
O36 S5 1.503173 1_555
O37 Si17 1.662103 1_555
O38 Si14 1.674863 1_555
O39 S4 1.507117 1_555
O40 Si15 1.693118 1_555
O41 Si16 1.661120 1_555
O42 Si11 1.659571 1_555
O43 S3 1.468655 1_555
O44 Si12 1.652598 1_555
O45 Si13 1.684931 1_555
O46 S2 1.504059 1_555
O47 Si10 1.635108 1_555
O48 S6 1.468514 1_555
O48 Zn4 2.110785 1_556
O49 Si18 1.631161 1_555
O50 Si19 1.604906 1_555
O50 Zn4 1.945836 1_556
O51 Si20 1.616889 1_555
O52 Si21 1.595118 1_555
O52 Zn4 1.931823 1_556
O53 S7 1.474350 1_555
O54 Si22 1.632462 1_555
O55 Si23 1.600049 1_555
O55 Zn5 1.942106 1_555
O56 S8 1.486283 1_555
O57 Si24 1.604859 1_555
O57 Zn5 1.940163 1_555
O58 Si25 1.627303 1_555
O59 Si26 1.601449 1_555
O59 Zn5 1.990139 1_555
O60 Si25 1.634202 1_555
O61 Si26 1.678637 1_555
O62 Si22 1.640098 1_555
O63 Si23 1.677737 1_555
O64 S8 1.473202 1_555
O65 Si24 1.676380 1_555
O66 Si19 1.688612 1_555
O67 Si20 1.626092 1_555
O68 Si21 1.673454 1_555
O69 S7 1.472929 1_555
O70 S6 1.520841 1_555
O71 Si18 1.639850 1_555
O72 Si25 1.645504 1_555
O73 Si26 1.648372 1_555
O74 Si22 1.662610 1_555
O75 Si23 1.643842 1_555
O76 S8 1.468736 1_555
O77 Si24 1.659781 1_555
O78 Si19 1.642964 1_555
O79 Si20 1.685865 1_555
O80 Si21 1.644142 1_555
O81 S7 1.493409 1_555
O82 S6 1.486089 1_555
O83 Si18 1.671142 1_555
O84 S2 1.513592 1_555
O85 Si10 1.668707 1_555
O86 Si11 1.662798 1_555
O87 S3 1.530496 1_555
O88 Si12 1.705139 1_555
O89 Si13 1.690624 1_555
O90 Si14 1.661507 1_555
O91 S4 1.506841 1_555
O92 Si15 1.667790 1_555
O93 Si16 1.715055 1_555
O94 S5 1.504830 1_555
O95 Si17 1.663575 1_555
O96 Si8 1.591839 1_545
O96 Zn0 2.253318 1_555
O97 Si9 1.614798 1_545
O97 Zn1 2.173736 1_555
O98 Si5 1.604889 1_555
O98 Zn0 2.073498 1_555
O99 Si6 1.600823 1_555
O99 Zn1 2.151483 1_555
O100 Si7 1.598605 1_555
O100 Zn0 2.187111 1_555
O101 S1 1.474928 1_655
O101 Zn1 2.303544 1_555
O102 Si2 1.617957 1_555
O102 Zn2 2.107766 1_555
O103 Si3 1.593343 1_555
O103 Zn3 2.146084 1_555
O104 S0 1.483754 1_555
O104 Zn2 2.229316 1_555
O105 Si4 1.598514 1_655
O105 Zn3 2.150411 1_555
O106 Si0 1.608815 1_555
O106 Zn2 2.152922 1_555
O107 Si1 1.604248 1_545
O107 Zn3 2.046948 1_555
O108 S6 1.476660 1_555
O109 Si18 1.663143 1_555
O110 Si20 1.675841 1_555
O111 Si19 1.656345 1_655
O112 Si21 1.698457 1_545
O113 S7 1.520250 1_545
O114 Si22 1.663614 1_545
O115 Si23 1.650821 1_545
O116 S8 1.522528 1_555
O117 Si24 1.661387 1_555
O118 Si26 1.664934 1_555
O119 Si25 1.659326 1_655
O120 S5 1.472983 1_555
O120 Zn4 2.398047 1_555
O121 Si17 1.668842 1_555
O122 S4 1.482583 1_455
O122 Zn4 2.239787 1_555
O123 Si14 1.652085 1_555
O124 Si15 1.622954 1_565
O124 Zn4 2.044569 1_555
O125 Si16 1.660902 1_565
O126 Si11 1.663216 1_565
O127 S3 1.474479 1_565
O127 Zn5 2.459942 1_555
O128 Si12 1.654856 1_555
O129 Si13 1.622846 1_555
O129 Zn5 2.131761 1_555
O130 Si10 1.656471 1_455
O131 S2 1.467885 1_555
O131 Zn5 2.472434 1_555
O132 Si0 1.669530 1_565
O133 Si1 1.673603 1_555
O134 Si2 1.662761 1_555
O135 Si3 1.667039 1_555
O136 Si4 1.661803 1_555
O137 S0 1.495339 1_555
O138 Si5 1.685386 1_555
O139 Si6 1.660293 1_555
O140 S1 1.531629 1_555
O141 Si7 1.657527 1_555
O142 Si8 1.677000 1_555
O143 Si9 1.660735 1_555
