# generated using pymatgen
data_Mg4As6Rh7
_symmetry_space_group_name_H-M   'P 1'
_cell_length_a   7.00118077
_cell_length_b   7.00118097
_cell_length_c   7.00118082
_cell_angle_alpha   109.47121725
_cell_angle_beta   109.47121782
_cell_angle_gamma   109.47122702
_symmetry_Int_Tables_number   1
_chemical_formula_structural   Mg4As6Rh7
_chemical_formula_sum   'Mg4 As6 Rh7'
_cell_volume   264.17517123
_cell_formula_units_Z   1
loop_
 _symmetry_equiv_pos_site_id
 _symmetry_equiv_pos_as_xyz
  1  'x, y, z'
loop_
 _atom_site_type_symbol
 _atom_site_label
 _atom_site_symmetry_multiplicity
 _atom_site_fract_x
 _atom_site_fract_y
 _atom_site_fract_z
 _atom_site_occupancy
  Mg  Mg0  1  0.50000000  0.50000000  0.50000000  1
  Mg  Mg1  1  0.50000000  -0.00000000  -0.00000000  1
  Mg  Mg2  1  -0.00000000  0.50000000  -0.00000000  1
  Mg  Mg3  1  -0.00000000  -0.00000000  0.50000000  1
  As  As0  1  0.31453369  0.31453369  0.00000000  1
  As  As1  1  0.68546631  0.68546631  -0.00000000  1
  As  As2  1  0.68546631  0.00000000  0.68546631  1
  As  As3  1  0.31453369  -0.00000000  0.31453369  1
  As  As4  1  -0.00000000  0.68546631  0.68546631  1
  As  As5  1  0.00000000  0.31453369  0.31453369  1
  Rh  Rh0  1  -0.00000000  -0.00000000  -0.00000000  1
  Rh  Rh1  1  0.50000000  0.25000000  0.75000000  1
  Rh  Rh2  1  0.75000000  0.25000000  0.50000000  1
  Rh  Rh3  1  0.25000000  0.50000000  0.75000000  1
  Rh  Rh4  1  0.75000000  0.50000000  0.25000000  1
  Rh  Rh5  1  0.50000000  0.75000000  0.25000000  1
  Rh  Rh6  1  0.25000000  0.75000000  0.50000000  1
loop_
_geom_bond_atom_site_label_1
_geom_bond_atom_site_label_2
_geom_bond_distance
_geom_bond_site_symmetry_2
Mg0 Rh3 2.858220 1_555
Mg0 Rh4 2.858220 1_555
Mg0 Rh1 2.858220 1_555
Mg0 Rh5 2.858220 1_555
Mg0 Rh6 2.858220 1_555
Mg0 Rh2 2.858220 1_555
Mg1 Rh5 2.858220 1_545
Mg1 Rh1 2.858220 1_554
Mg1 Rh3 2.858220 1_544
Mg1 Rh4 2.858220 1_555
Mg1 Rh6 2.858220 1_544
Mg1 Rh2 2.858220 1_555
Mg2 Rh1 2.858220 1_454
Mg2 Rh5 2.858220 1_555
Mg2 Rh4 2.858220 1_455
Mg2 Rh3 2.858220 1_554
Mg2 Rh6 2.858220 1_555
Mg2 Rh2 2.858220 1_454
Mg3 Rh1 2.858220 1_555
Mg3 Rh5 2.858220 1_445
Mg3 Rh3 2.858220 1_555
Mg3 Rh4 2.858220 1_445
Mg3 Rh2 2.858220 1_455
Mg3 Rh6 2.858220 1_545
As0 Rh4 2.516503 1_555
As0 Rh1 2.516503 1_554
As0 Rh3 2.516503 1_554
As0 Rh5 2.516503 1_555
As0 Rh0 2.542774 1_555
As0 Mg0 2.905443 1_555
As0 Mg3 2.905443 1_554
As0 Mg2 2.905443 1_555
As0 Mg1 2.905443 1_555
As1 Rh3 2.516503 1_554
As1 Rh5 2.516503 1_555
As1 Rh4 2.516503 1_555
As1 Rh1 2.516503 1_554
As1 Rh0 2.542774 1_665
As1 Mg0 2.905443 1_554
As1 Mg3 2.905443 1_665
As1 Mg2 2.905443 1_655
As1 Mg1 2.905443 1_565
As2 Rh6 2.516503 1_545
As2 Rh2 2.516503 1_555
As2 Rh5 2.516503 1_545
As2 Rh1 2.516503 1_555
As2 Rh0 2.542774 1_656
As2 Mg3 2.905443 1_655
As2 Mg1 2.905443 1_556
As2 Mg2 2.905443 1_656
As2 Mg0 2.905443 1_545
As3 Rh2 2.516503 1_555
As3 Rh6 2.516503 1_545
As3 Rh1 2.516503 1_555
As3 Rh5 2.516503 1_545
As3 Rh0 2.542774 1_555
As3 Mg3 2.905443 1_555
As3 Mg1 2.905443 1_555
As3 Mg2 2.905443 1_545
As3 Mg0 2.905443 1_555
As4 Rh6 2.516503 1_555
As4 Rh2 2.516503 1_455
As4 Rh4 2.516503 1_455
As4 Rh3 2.516503 1_555
As4 Rh0 2.542775 1_566
As4 Mg0 2.905443 1_455
As4 Mg1 2.905443 1_566
As4 Mg2 2.905443 1_556
As4 Mg3 2.905443 1_565
As5 Rh2 2.516503 1_455
As5 Rh6 2.516503 1_555
As5 Rh3 2.516503 1_555
As5 Rh4 2.516503 1_455
As5 Rh0 2.542775 1_555
As5 Mg0 2.905443 1_555
As5 Mg1 2.905443 1_455
As5 Mg2 2.905443 1_555
As5 Mg3 2.905443 1_555
