# generated using pymatgen
data_Sm2Mg(BiO4)2
_symmetry_space_group_name_H-M   'P 1'
_cell_length_a   5.60423662
_cell_length_b   5.77569563
_cell_length_c   7.04643390
_cell_angle_alpha   70.21529071
_cell_angle_beta   71.21694763
_cell_angle_gamma   100.50223451
_symmetry_Int_Tables_number   1
_chemical_formula_structural   Sm2Mg(BiO4)2
_chemical_formula_sum   'Sm2 Mg1 Bi2 O8'
_cell_volume   192.02201979
_cell_formula_units_Z   1
loop_
 _symmetry_equiv_pos_site_id
 _symmetry_equiv_pos_as_xyz
  1  'x, y, z'
loop_
 _atom_site_type_symbol
 _atom_site_label
 _atom_site_symmetry_multiplicity
 _atom_site_fract_x
 _atom_site_fract_y
 _atom_site_fract_z
 _atom_site_occupancy
  Sm  Sm0  1  0.37098300  0.12218000  0.75993200  1
  Sm  Sm1  1  0.62645600  0.87885000  0.24833600  1
  Mg  Mg0  1  0.67639500  0.42895600  0.14789200  1
  Bi  Bi0  1  0.07658500  0.32882100  0.34752500  1
  Bi  Bi1  1  0.91177800  0.66312200  0.67853200  1
  O  O0  1  0.60541400  0.27185600  0.93466500  1
  O  O1  1  0.33235600  0.09042000  0.40604400  1
  O  O2  1  0.76236300  0.50851100  0.40584200  1
  O  O3  1  0.97855100  0.25192000  0.10639700  1
  O  O4  1  0.96164600  0.79841800  0.93412700  1
  O  O5  1  0.21904500  0.45449800  0.56828700  1
  O  O6  1  0.71398300  0.98188500  0.56784700  1
  O  O7  1  0.41581600  0.64792000  0.10655500  1
loop_
_geom_bond_atom_site_label_1
_geom_bond_atom_site_label_2
_geom_bond_distance
_geom_bond_site_symmetry_2
Mg0 O4 2.099471 1_554
Mg0 O0 2.101250 1_554
Mg0 O3 2.124432 1_555
Mg0 O7 2.124772 1_555
Mg0 O2 2.189893 1_555
Mg0 O1 2.192902 1_555
Bi0 O3 2.099788 1_455
Bi0 O7 2.102266 1_555
Bi0 O2 2.199080 1_455
Bi0 O1 2.199176 1_555
Bi0 O6 2.221007 1_445
Bi0 O5 2.221951 1_555
Bi1 O4 2.264892 1_555
Bi1 O0 2.267387 1_555
Bi1 O5 2.355692 1_655
Bi1 O6 2.356959 1_555
Bi1 O1 2.662719 1_665
Bi1 O2 2.667557 1_555
O0 Sm0 2.310326 1_555
O0 Sm1 2.630696 1_546
O1 Sm1 2.432842 1_545
O1 Sm0 2.634693 1_555
O2 Sm1 2.432744 1_555
O2 Sm0 2.633977 1_555
O3 Sm1 2.292818 1_545
O3 Sm0 3.120917 1_654
O4 Sm0 2.309751 1_665
O4 Sm1 2.642469 1_556
O5 Sm0 2.411273 1_555
O5 Sm1 2.684657 1_555
O6 Sm0 2.412148 1_565
O6 Sm1 2.678694 1_555
O7 Sm1 2.293070 1_555
O7 Sm0 3.106243 1_564
