# generated using pymatgen
data_Gd(CuSi)2
_symmetry_space_group_name_H-M   'P 1'
_cell_length_a   5.70365130
_cell_length_b   5.70365130
_cell_length_c   5.70365130
_cell_angle_alpha   139.08055613
_cell_angle_beta   139.08055613
_cell_angle_gamma   59.25204137
_symmetry_Int_Tables_number   1
_chemical_formula_structural   Gd(CuSi)2
_chemical_formula_sum   'Gd1 Cu2 Si2'
_cell_volume   78.82963998
_cell_formula_units_Z   1
loop_
 _symmetry_equiv_pos_site_id
 _symmetry_equiv_pos_as_xyz
  1  'x, y, z'
loop_
 _atom_site_type_symbol
 _atom_site_label
 _atom_site_symmetry_multiplicity
 _atom_site_fract_x
 _atom_site_fract_y
 _atom_site_fract_z
 _atom_site_occupancy
  Gd  Gd0  1  0.00000000  0.00000000  0.00000000  1
  Cu  Cu0  1  0.75000000  0.25000000  0.50000000  1
  Cu  Cu1  1  0.25000000  0.75000000  0.50000000  1
  Si  Si0  1  0.61899361  0.61899361  0.00000000  1
  Si  Si1  1  0.38100639  0.38100639  -0.00000000  1
loop_
_geom_bond_atom_site_label_1
_geom_bond_atom_site_label_2
_geom_bond_distance
_geom_bond_site_symmetry_2
Gd0 Si1 3.056466 1_444
Gd0 Si0 3.056466 1_556
Gd0 Si1 3.056466 1_455
Gd0 Si1 3.056466 1_556
Gd0 Si1 3.056466 1_545
Gd0 Si0 3.056466 1_444
Gd0 Si0 3.056466 1_455
Gd0 Si0 3.056466 1_545
Cu0 Si1 2.379585 1_555
Cu0 Si0 2.379585 1_545
Cu0 Si0 2.379585 1_556
Cu0 Si1 2.379585 1_656
Cu0 Cu1 2.819524 1_555
Cu0 Cu1 2.819524 1_656
Cu0 Cu1 2.819524 1_645
Cu0 Cu1 2.819524 1_544
Cu0 Gd0 3.181248 1_656
Cu0 Gd0 3.181248 1_666
Cu0 Gd0 3.181248 1_555
Cu0 Gd0 3.181248 1_655
Cu1 Si1 2.379585 1_555
Cu1 Si0 2.379585 1_556
Cu1 Si0 2.379585 1_455
Cu1 Si1 2.379585 1_566
Cu1 Gd0 3.181248 1_666
Cu1 Gd0 3.181248 1_555
Cu1 Gd0 3.181248 1_566
Cu1 Gd0 3.181248 1_565
Si0 Si1 2.359889 1_555
