# generated using pymatgen
data_Na12Mg4Nb2Si6(SO12)3
_symmetry_space_group_name_H-M   'P 1'
_cell_length_a   9.15969075
_cell_length_b   9.14790672
_cell_length_c   22.27099390
_cell_angle_alpha   90.22622800
_cell_angle_beta   90.00000000
_cell_angle_gamma   120.04262134
_symmetry_Int_Tables_number   1
_chemical_formula_structural   Na12Mg4Nb2Si6(SO12)3
_chemical_formula_sum   'Na24 Mg8 Nb4 Si12 S6 O72'
_cell_volume   1615.40554820
_cell_formula_units_Z   2
loop_
 _symmetry_equiv_pos_site_id
 _symmetry_equiv_pos_as_xyz
  1  'x, y, z'
loop_
 _atom_site_type_symbol
 _atom_site_label
 _atom_site_symmetry_multiplicity
 _atom_site_fract_x
 _atom_site_fract_y
 _atom_site_fract_z
 _atom_site_occupancy
  Na  Na0  1  0.64315356  0.01834069  0.25339484  1
  Na  Na1  1  0.34984399  0.34281885  0.25105501  1
  Na  Na2  1  0.99701866  0.63303660  0.24195223  1
  Na  Na3  1  0.63601794  0.63303660  0.74195223  1
  Na  Na4  1  0.99297487  0.34281885  0.75105501  1
  Na  Na5  1  0.37518714  0.01834069  0.75339484  1
  Na  Na6  1  0.30658969  0.34432976  0.58662457  1
  Na  Na7  1  0.03002221  0.70439440  0.57911125  1
  Na  Na8  1  0.66647469  0.94932699  0.58347332  1
  Na  Na9  1  0.28285330  0.94932699  0.08347332  1
  Na  Na10  1  0.67437319  0.70439440  0.07911125  1
  Na  Na11  1  0.03774107  0.34432976  0.08662457  1
  Na  Na12  1  0.98398375  0.68949883  0.91606028  1
  Na  Na13  1  0.71068380  0.02675443  0.90976623  1
  Na  Na14  1  0.31260348  0.28428921  0.91035766  1
  Na  Na15  1  0.97168472  0.28428921  0.41035766  1
  Na  Na16  1  0.31606964  0.02675443  0.40976623  1
  Na  Na17  1  0.70551407  0.68949883  0.41606028  1
  Na  Na18  1  0.99237820  0.99371311  0.49382317  1
  Na  Na19  1  0.00133491  0.99371311  0.99382317  1
  Na  Na20  1  0.65455281  0.31963987  0.82541384  1
  Na  Na21  1  0.66508806  0.31963987  0.32541384  1
  Na  Na22  1  0.31425047  0.66351249  0.16497781  1
  Na  Na23  1  0.34926102  0.66351249  0.66497781  1
  Mg  Mg0  1  0.00988586  0.01113169  0.35143840  1
  Mg  Mg1  1  0.00124583  0.01113169  0.85143840  1
  Mg  Mg2  1  0.98614345  0.99888733  0.65373593  1
  Mg  Mg3  1  0.01274387  0.99888733  0.15373593  1
  Mg  Mg4  1  0.65507082  0.33143020  0.68639190  1
  Mg  Mg5  1  0.67636038  0.33143020  0.18639190  1
  Mg  Mg6  1  0.32438426  0.66755146  0.01430056  1
  Mg  Mg7  1  0.34316620  0.66755146  0.51430056  1
  Nb  Nb0  1  0.67709836  0.34546328  0.97525450  1
  Nb  Nb1  1  0.66836592  0.34546328  0.47525450  1
  Nb  Nb2  1  0.32290657  0.66569962  0.31699417  1
  Nb  Nb3  1  0.34279205  0.66569962  0.81699417  1
  Si  Si0  1  0.29753279  0.00275159  0.24964679  1
  Si  Si1  1  0.99802631  0.28988300  0.24936530  1
  Si  Si2  1  0.29185668  0.28988300  0.74936530  1
  Si  Si3  1  0.70521880  0.00275159  0.74964679  1
  Si  Si4  1  0.66804659  0.63363624  0.58759210  1
  Si  Si5  1  0.96559065  0.63363624  0.08759210  1
  Si  Si6  1  0.62928249  0.67305357  0.92196715  1
  Si  Si7  1  0.04663656  0.37341645  0.91942942  1
  Si  Si8  1  0.32936621  0.95828724  0.92005464  1
  Si  Si9  1  0.62892003  0.95828724  0.42005464  1
  Si  Si10  1  0.32677889  0.37341645  0.41942942  1
  Si  Si11  1  0.04377008  0.67305357  0.42196715  1
  S  S0  1  0.70549260  0.70806888  0.24947787  1
  S  S1  1  0.00257628  0.70806888  0.74947787  1
  S  S2  1  0.95724058  0.33457935  0.58402565  1
  S  S3  1  0.37480133  0.04075148  0.58381628  1
  S  S4  1  0.66595116  0.04075148  0.08381628  1
  S  S5  1  0.37733978  0.33457935  0.08402565  1
  O  O0  1  0.21312444  0.02776036  0.30936856  1
  O  O1  1  0.80762857  0.78380549  0.30380726  1
  O  O2  1  0.96787866  0.17751144  0.30847083  1
  O  O3  1  0.20963278  0.17751144  0.80847083  1
  O  O4  1  0.97617692  0.78380549  0.80380726  1
  O  O5  1  0.81463592  0.02776036  0.80936856  1
  O  O6  1  0.77062442  0.95068559  0.68983734  1
  O  O7  1  0.17679553  0.21541096  0.68887041  1
  O  O8  1  0.03054457  0.81243648  0.69534242  1
  O  O9  1  0.78189191  0.81243648  0.19534242  1
  O  O10  1  0.03861543  0.21541096  0.18887041  1
  O  O11  1  0.18006117  0.95068559  0.18983734  1
  O  O12  1  0.87328846  0.35392579  0.63775077  1
  O  O13  1  0.48123447  0.12091558  0.63731603  1
  O  O14  1  0.64393246  0.51032432  0.64239206  1
  O  O15  1  0.86639286  0.51032432  0.14239206  1
  O  O16  1  0.63968211  0.12091558  0.13731603  1
  O  O17  1  0.48063833  0.35392579  0.13775077  1
  O  O18  1  0.46201294  0.31089245  0.02904372  1
  O  O19  1  0.83401008  0.52172405  0.02635507  1
  O  O20  1  0.68705767  0.14818720  0.02912526  1
  O  O21  1  0.46113053  0.14818720  0.52912526  1
  O  O22  1  0.68771497  0.52172405  0.52635507  1
  O  O23  1  0.84888051  0.31089245  0.52904372  1
  O  O24  1  0.54329114  0.69844246  0.97993406  1
  O  O25  1  0.15581495  0.45603572  0.97820957  1
  O  O26  1  0.30343184  0.84932828  0.97873349  1
  O  O27  1  0.54589544  0.84932828  0.47873349  1
  O  O28  1  0.30021977  0.45603572  0.47820957  1
  O  O29  1  0.15515032  0.69844246  0.47993406  1
  O  O30  1  0.13122874  0.63214398  0.36168092  1
  O  O31  1  0.50007679  0.86793758  0.36037573  1
  O  O32  1  0.37261454  0.50172415  0.35990632  1
  O  O33  1  0.12910861  0.50172415  0.85990632  1
  O  O34  1  0.36785979  0.86793758  0.86037573  1
  O  O35  1  0.50091424  0.63214398  0.86168092  1
  O  O36  1  0.00597536  0.82292199  0.41015625  1
  O  O37  1  0.81364317  0.98322956  0.40988303  1
  O  O38  1  0.17317074  0.18434404  0.41236623  1
  O  O39  1  0.01117331  0.18434404  0.91236623  1
  O  O40  1  0.16958640  0.98322956  0.90988303  1
  O  O41  1  0.81694663  0.82292199  0.91015625  1
  O  O42  1  0.97404669  0.18170083  0.58542153  1
  O  O43  1  0.20769461  0.02905364  0.58717802  1
  O  O44  1  0.84521516  0.81475415  0.58413716  1
  O  O45  1  0.96953898  0.81475415  0.08413716  1
  O  O46  1  0.82135902  0.02905364  0.08717802  1
  O  O47  1  0.20765414  0.18170083  0.08542153  1
  O  O48  1  0.68236538  0.16901039  0.74292669  1
  O  O49  1  0.48652852  0.32730872  0.74643754  1
  O  O50  1  0.85543644  0.53427299  0.74322185  1
  O  O51  1  0.67883755  0.53427299  0.24322185  1
  O  O52  1  0.84078119  0.32730872  0.24643754  1
  O  O53  1  0.48664601  0.16901039  0.24292669  1
  O  O54  1  0.63306600  0.48903893  0.92390391  1
  O  O55  1  0.85237538  0.35903504  0.92361049  1
  O  O56  1  0.50767011  0.14825790  0.92547314  1
  O  O57  1  0.64058879  0.14825790  0.42547314  1
  O  O58  1  0.50666067  0.35903504  0.42361049  1
  O  O59  1  0.85597393  0.48903893  0.42390391  1
  O  O60  1  0.36456078  0.48927125  0.07922267  1
  O  O61  1  0.15022093  0.64814768  0.08140243  1
  O  O62  1  0.51607798  0.86988299  0.07871657  1
  O  O63  1  0.35380401  0.86988299  0.57871657  1
  O  O64  1  0.49792575  0.64814768  0.58140243  1
  O  O65  1  0.12470947  0.48927125  0.57922267  1
  O  O66  1  0.32240262  0.82788565  0.25786721  1
  O  O67  1  0.53305508  0.69220157  0.25432041  1
  O  O68  1  0.17921154  0.48624416  0.25773419  1
  O  O69  1  0.30703162  0.48624416  0.75773419  1
  O  O70  1  0.15914549  0.69220157  0.75432041  1
  O  O71  1  0.50548204  0.82788565  0.75786721  1
loop_
_geom_bond_atom_site_label_1
_geom_bond_atom_site_label_2
_geom_bond_distance
_geom_bond_site_symmetry_2
Na0 O53 2.447483 1_555
Na0 O52 2.483935 1_555
Na0 O66 2.559916 1_545
Na0 O67 2.628022 1_545
Na0 O31 2.740002 1_545
Na0 O16 2.759301 1_555
Na0 O2 2.849743 1_555
Na1 O53 2.474598 1_555
Na1 O68 2.497620 1_555
Na1 O51 2.626157 1_555
Na1 O67 2.768456 1_555
Na1 O17 2.773678 1_555
Na1 O32 2.775260 1_555
Na1 O0 2.824384 1_555
Na1 O10 2.839648 1_555
Na2 O52 2.423745 1_555
Na2 O15 2.498730 1_555
Na2 O51 2.583546 1_555
Na2 O66 2.619422 1_655
Na2 O68 2.638059 1_655
Na2 O11 2.783948 1_655
Na2 O30 2.937962 1_655
Na3 O49 2.423745 1_555
Na3 O14 2.498732 1_555
Na3 O50 2.583555 1_555
Na3 O71 2.619429 1_555
Na3 O69 2.638067 1_555
Na3 O6 2.783948 1_555
Na3 O35 2.937966 1_555
Na4 O48 2.474590 1_555
Na4 O69 2.497612 1_655
Na4 O50 2.626150 1_555
Na4 O70 2.768456 1_655
Na4 O12 2.773675 1_555
Na4 O33 2.775259 1_655
Na4 O5 2.824384 1_555
Na4 O7 2.839648 1_655
Na5 O48 2.447490 1_555
Na5 O49 2.483934 1_555
Na5 O71 2.559908 1_545
Na5 O70 2.628024 1_545
Na5 O34 2.740000 1_545
Na5 O13 2.759303 1_555
Na5 O3 2.849743 1_555
Na6 O64 2.436164 1_555
Na6 O43 2.554053 1_555
Na6 O7 2.570376 1_555
Na6 O65 2.602721 1_555
Na6 O42 2.637111 1_455
Na6 O28 2.637551 1_555
Na7 O44 2.368016 1_455
Na7 O29 2.501362 1_555
Na7 O65 2.516742 1_555
Na7 O63 2.567504 1_555
Na7 O43 2.580231 1_565
Na7 O8 2.766352 1_555
Na8 O64 2.390915 1_555
Na8 O44 2.492873 1_555
Na8 O42 2.541733 1_565
Na8 O27 2.543517 1_555
Na8 O6 2.551371 1_555
Na8 O63 2.580121 1_555
Na9 O61 2.390913 1_555
Na9 O45 2.492881 1_455
Na9 O47 2.541740 1_565
Na9 O26 2.543512 1_554
Na9 O11 2.551374 1_555
Na9 O62 2.580103 1_555
Na10 O45 2.368007 1_555
Na10 O24 2.501370 1_554
Na10 O60 2.516756 1_555
Na10 O62 2.567519 1_555
Na10 O46 2.580231 1_565
Na10 O9 2.766350 1_555
Na11 O61 2.436167 1_555
Na11 O46 2.554055 1_455
Na11 O10 2.570374 1_555
Na11 O60 2.602704 1_555
Na11 O47 2.637103 1_555
Na11 O25 2.637547 1_554
Na12 O40 2.357574 1_655
Na12 O41 2.391454 1_555
Na12 O55 2.641095 1_555
Na12 O4 2.660472 1_555
Na12 O54 2.797428 1_555
Na12 O19 2.862714 1_556
Na12 O26 2.889277 1_655
Na12 O33 2.924221 1_655
Na13 O39 2.384031 1_655
Na13 O5 2.428497 1_555
Na13 O41 2.498344 1_545
Na13 O56 2.623391 1_555
Na13 O55 2.657360 1_555
Na13 O20 2.926514 1_556
Na13 O34 2.932688 1_545
Na14 O40 2.385034 1_545
Na14 O39 2.435939 1_555
Na14 O3 2.460212 1_555
Na14 O54 2.589584 1_555
Na14 O56 2.661568 1_555
Na15 O37 2.385034 1_545
Na15 O38 2.435948 1_655
Na15 O2 2.460213 1_555
Na15 O59 2.589570 1_555
Na15 O57 2.661551 1_555
Na16 O38 2.384023 1_555
Na16 O0 2.428494 1_555
Na16 O36 2.498337 1_545
Na16 O57 2.623408 1_555
Na16 O58 2.657362 1_555
Na16 O21 2.926519 1_555
Na16 O31 2.932688 1_545
Na17 O37 2.357572 1_555
Na17 O36 2.391462 1_655
Na17 O58 2.641093 1_555
Na17 O1 2.660474 1_555
Na17 O59 2.797443 1_555
Na17 O22 2.862718 1_555
Na17 O27 2.889277 1_555
Na17 O32 2.924221 1_555
Na18 O37 2.454715 1_555
Na18 O36 2.469909 1_655
Na18 O38 2.491566 1_665
Na18 O44 2.521740 1_555
Na18 O42 2.721858 1_565
Na18 O43 2.770047 1_665
Na19 O40 2.454715 1_555
Na19 O41 2.469909 1_455
Na19 O39 2.491566 1_565
Na19 O45 2.521740 1_456
Na19 O47 2.721858 1_566
Na19 O46 2.770047 1_466
Na20 O49 2.361428 1_555
Na20 O48 2.381168 1_555
Na20 O50 2.646220 1_555
Na20 O56 2.673852 1_555
Na20 O54 2.744084 1_555
Na20 O55 2.745144 1_555
Na21 O52 2.361428 1_555
Na21 O53 2.381168 1_555
Na21 O51 2.646220 1_555
Na21 O57 2.673852 1_555
Na21 O59 2.744084 1_555
Na21 O58 2.745143 1_555
Na22 O61 2.351188 1_555
Na22 O66 2.531658 1_555
Na22 O68 2.538727 1_555
Na22 O60 2.666831 1_555
Na22 O62 2.684481 1_555
Na22 O67 2.741156 1_555
Na23 O64 2.351188 1_555
Na23 O71 2.531658 1_555
Na23 O69 2.538727 1_555
Na23 O65 2.666831 1_555
Na23 O63 2.684481 1_555
Na23 O70 2.741156 1_555
Mg0 O2 1.994548 1_455
Mg0 O0 2.020924 1_555
Mg0 O38 2.049145 1_555
Mg0 O37 2.129243 1_445
Mg0 O36 2.152148 1_545
Mg0 O1 2.237638 1_445
Mg1 O3 1.994548 1_555
Mg1 O5 2.020924 1_455
Mg1 O39 2.049145 1_555
Mg1 O40 2.129243 1_545
Mg1 O41 2.152148 1_445
Mg1 O4 2.237638 1_445
Mg2 O6 1.967005 1_555
Mg2 O7 2.027196 1_665
Mg2 O8 2.154129 1_655
Mg2 O44 2.169897 1_555
Mg2 O42 2.308560 1_565
Mg2 O43 2.415391 1_665
Mg3 O11 1.967005 1_555
Mg3 O10 2.027196 1_565
Mg3 O9 2.154129 1_455
Mg3 O45 2.169897 1_455
Mg3 O47 2.308560 1_565
Mg3 O46 2.415391 1_465
Mg4 O14 1.956693 1_555
Mg4 O49 2.028583 1_555
Mg4 O48 2.059642 1_555
Mg4 O13 2.086047 1_555
Mg4 O12 2.191115 1_555
Mg4 O50 2.232691 1_555
Mg5 O15 1.956693 1_555
Mg5 O52 2.028583 1_555
Mg5 O53 2.059642 1_555
Mg5 O16 2.086047 1_555
Mg5 O17 2.191115 1_555
Mg5 O51 2.232691 1_555
Mg6 O26 1.938914 1_554
Mg6 O25 1.941735 1_554
Mg6 O24 2.029905 1_554
Mg6 O61 2.127981 1_555
Mg6 O62 2.300416 1_555
Mg6 O60 2.346353 1_555
Mg7 O27 1.938914 1_555
Mg7 O28 1.941735 1_555
Mg7 O29 2.029905 1_555
Mg7 O64 2.127981 1_555
Mg7 O63 2.300416 1_555
Mg7 O65 2.346353 1_555
Nb0 O19 1.904167 1_556
Nb0 O55 1.928059 1_555
Nb0 O54 1.933363 1_555
Nb0 O56 2.018168 1_555
Nb0 O18 2.189879 1_556
Nb0 O20 2.210539 1_556
Nb1 O22 1.904167 1_555
Nb1 O58 1.928059 1_555
Nb1 O59 1.933363 1_555
Nb1 O57 2.018168 1_555
Nb1 O23 2.189879 1_555
Nb1 O21 2.210539 1_555
Nb2 O30 1.905251 1_555
Nb2 O66 1.989363 1_555
Nb2 O31 1.992338 1_555
Nb2 O68 1.997140 1_555
Nb2 O32 2.016417 1_555
Nb2 O67 2.290781 1_555
Nb3 O35 1.905251 1_555
Nb3 O71 1.989363 1_555
Nb3 O34 1.992338 1_555
Nb3 O69 1.997140 1_555
Nb3 O33 2.016417 1_555
Nb3 O70 2.290781 1_555
O0 Si0 1.610553 1_555
O1 S0 1.470933 1_555
O2 Si1 1.610021 1_555
O3 Si2 1.610021 1_555
O4 S1 1.470933 1_655
O5 Si3 1.610553 1_555
O6 Si3 1.625036 1_565
O7 Si2 1.632137 1_555
O8 S1 1.481535 1_555
O9 S0 1.481535 1_555
O10 Si1 1.632137 1_455
O11 Si0 1.625036 1_565
O12 S2 1.479487 1_555
O13 S3 1.478211 1_555
O14 Si4 1.603796 1_555
O15 Si5 1.603796 1_555
O16 S4 1.478211 1_555
O17 S5 1.479487 1_555
O18 S5 1.521204 1_555
O19 Si5 1.764701 1_555
O20 S4 1.518578 1_555
O21 S3 1.518578 1_555
O22 Si4 1.764701 1_555
O23 S2 1.521204 1_555
O24 Si6 1.588011 1_555
O25 Si7 1.587582 1_555
O26 Si8 1.590899 1_555
O27 Si9 1.590899 1_555
O28 Si10 1.587582 1_555
O29 Si11 1.588011 1_555
O30 Si11 1.697259 1_555
O31 Si9 1.690292 1_555
O32 Si10 1.682299 1_555
O33 Si7 1.682299 1_555
O34 Si8 1.690292 1_555
O35 Si6 1.697259 1_555
O36 Si11 1.595840 1_555
O37 Si9 1.606272 1_555
O38 Si10 1.599099 1_555
O39 Si7 1.599102 1_555
O40 Si8 1.606263 1_555
O41 Si6 1.595846 1_555
O42 S2 1.482034 1_555
O43 S3 1.481887 1_555
O44 Si4 1.641150 1_555
O45 Si5 1.641155 1_555
O46 S4 1.481878 1_555
O47 S5 1.482039 1_555
O48 Si3 1.643167 1_555
O49 Si2 1.640103 1_555
O50 S1 1.488716 1_655
O51 S0 1.488719 1_555
O52 Si1 1.640094 1_555
O53 Si0 1.643173 1_555
O54 Si6 1.701679 1_555
O55 Si7 1.719839 1_655
O56 Si8 1.690693 1_545
O57 Si9 1.690684 1_545
O58 Si10 1.719857 1_555
O59 Si11 1.701669 1_655
O60 S5 1.481459 1_555
O61 Si5 1.634622 1_455
O62 S4 1.480116 1_565
O63 S3 1.480108 1_565
O64 Si4 1.634641 1_555
O65 S2 1.481449 1_455
O66 Si0 1.735367 1_565
O67 S0 1.515917 1_555
O68 Si1 1.740135 1_455
O69 Si2 1.740139 1_555
O70 S1 1.515907 1_555
O71 Si3 1.735372 1_565
