# generated using pymatgen
data_BaYMgCoCuO5
_symmetry_space_group_name_H-M   'P 1'
_cell_length_a   3.82132278
_cell_length_b   4.04547838
_cell_length_c   9.63266820
_cell_angle_alpha   90.00000000
_cell_angle_beta   90.00000000
_cell_angle_gamma   90.00000000
_symmetry_Int_Tables_number   1
_chemical_formula_structural   BaYMgCoCuO5
_chemical_formula_sum   'Ba1 Y1 Mg1 Co1 Cu1 O5'
_cell_volume   148.91217569
_cell_formula_units_Z   1
loop_
 _symmetry_equiv_pos_site_id
 _symmetry_equiv_pos_as_xyz
  1  'x, y, z'
loop_
 _atom_site_type_symbol
 _atom_site_label
 _atom_site_symmetry_multiplicity
 _atom_site_fract_x
 _atom_site_fract_y
 _atom_site_fract_z
 _atom_site_occupancy
  Ba  Ba0  1  0.00000000  0.00000000  0.11102985  1
  Y  Y0  1  0.00000000  0.00000000  0.46954575  1
  Mg  Mg0  1  0.00000000  0.50000000  0.82478353  1
  Co  Co0  1  0.49999900  0.49999900  0.60891570  1
  Cu  Cu0  1  0.49999900  0.49999900  0.31455977  1
  O  O0  1  0.00000000  0.49999900  0.62168133  1
  O  O1  1  0.49999900  0.00000000  0.59908511  1
  O  O2  1  0.00000000  0.49999900  0.30779361  1
  O  O3  1  0.49999900  0.00000000  0.29800171  1
  O  O4  1  0.49999900  0.49999900  0.92418864  1
loop_
_geom_bond_atom_site_label_1
_geom_bond_atom_site_label_2
_geom_bond_distance
_geom_bond_site_symmetry_2
Ba0 O3 2.625709 1_555
Ba0 O3 2.625715 1_455
Ba0 O2 2.771975 1_555
Ba0 O2 2.771981 1_545
Ba0 O4 3.313801 1_554
Ba0 O4 3.313805 1_454
Ba0 O4 3.313806 1_544
Ba0 O4 3.313810 1_444
Mg0 O0 1.956416 1_555
Mg0 O4 2.137168 1_555
Mg0 O4 2.137175 1_455
Co0 O0 1.914610 1_555
Co0 O0 1.914618 1_655
Co0 O1 2.024951 1_555
Co0 O1 2.024959 1_565
Cu0 O2 1.911769 1_555
Cu0 O2 1.911777 1_655
Cu0 O3 2.029014 1_555
Cu0 O3 2.029022 1_565
O0 Y0 2.497812 1_555
O0 Y0 2.497818 1_565
O1 Y0 2.282026 1_555
O1 Y0 2.282032 1_655
O2 Y0 2.553262 1_555
O2 Y0 2.553269 1_565
O3 Y0 2.526089 1_555
O3 Y0 2.526095 1_655
