# generated using pymatgen
data_CrP2O7
_symmetry_space_group_name_H-M   'P 1'
_cell_length_a   4.80097041
_cell_length_b   6.97272791
_cell_length_c   8.02449804
_cell_angle_alpha   89.99798858
_cell_angle_beta   90.01125546
_cell_angle_gamma   106.27516362
_symmetry_Int_Tables_number   1
_chemical_formula_structural   CrP2O7
_chemical_formula_sum   'Cr2 P4 O14'
_cell_volume   257.86224534
_cell_formula_units_Z   2
loop_
 _symmetry_equiv_pos_site_id
 _symmetry_equiv_pos_as_xyz
  1  'x, y, z'
loop_
 _atom_site_type_symbol
 _atom_site_label
 _atom_site_symmetry_multiplicity
 _atom_site_fract_x
 _atom_site_fract_y
 _atom_site_fract_z
 _atom_site_occupancy
  Cr  Cr0  1  0.21972300  0.72751600  0.50519500  1
  Cr  Cr1  1  0.78023400  0.27248800  0.00516800  1
  P  P0  1  0.61300000  0.49190200  0.68793300  1
  P  P1  1  0.38701500  0.50806800  0.18786700  1
  P  P2  1  0.23381200  0.10384900  0.77114500  1
  P  P3  1  0.76617100  0.89622500  0.27110200  1
  O  O0  1  0.27947500  0.51192300  0.36561200  1
  O  O1  1  0.72060000  0.48803000  0.86561300  1
  O  O2  1  0.13980400  0.91349200  0.67175200  1
  O  O3  1  0.86013000  0.08646600  0.17174100  1
  O  O4  1  0.97235000  0.17155100  0.82634400  1
  O  O5  1  0.02772300  0.82847900  0.32632200  1
  O  O6  1  0.43018500  0.09329400  0.92290500  1
  O  O7  1  0.56985500  0.90669500  0.42292100  1
  O  O8  1  0.41905600  0.26976400  0.64214900  1
  O  O9  1  0.58088900  0.73023700  0.14213600  1
  O  O10  1  0.58200100  0.36635500  0.17869600  1
  O  O11  1  0.41804200  0.63368200  0.67878000  1
  O  O12  1  0.14505200  0.46082100  0.05791100  1
  O  O13  1  0.85488700  0.53916200  0.55790700  1
loop_
_geom_bond_atom_site_label_1
_geom_bond_atom_site_label_2
_geom_bond_distance
_geom_bond_site_symmetry_2
Cr0 O11 1.903540 1_555
Cr0 O7 1.909372 1_555
Cr0 O13 1.919021 1_455
Cr0 O5 1.941313 1_555
Cr0 O0 1.959250 1_555
Cr0 O2 1.973407 1_555
Cr1 O10 1.903377 1_555
Cr1 O6 1.908909 1_554
Cr1 O12 1.918819 1_655
Cr1 O4 1.941558 1_554
Cr1 O1 1.958504 1_554
Cr1 O3 1.973517 1_555
O0 P1 1.519779 1_555
O1 P0 1.519210 1_555
O2 P2 1.505237 1_565
O3 P3 1.504488 1_545
O4 P2 1.525492 1_655
O5 P3 1.525946 1_455
O6 P2 1.554258 1_555
O7 P3 1.554625 1_555
O8 P0 1.610161 1_555
O8 P2 1.620000 1_555
O9 P1 1.610192 1_555
O9 P3 1.620024 1_555
O10 P1 1.541633 1_555
O11 P0 1.541879 1_555
O12 P1 1.526605 1_555
O13 P0 1.527029 1_555
