# generated using pymatgen
data_Mn4Ge6Ir7
_symmetry_space_group_name_H-M   'P 1'
_cell_length_a   6.99477460
_cell_length_b   6.99477460
_cell_length_c   6.99477460
_cell_angle_alpha   109.47122063
_cell_angle_beta   109.47122063
_cell_angle_gamma   109.47122063
_symmetry_Int_Tables_number   1
_chemical_formula_structural   Mn4Ge6Ir7
_chemical_formula_sum   'Mn4 Ge6 Ir7'
_cell_volume   263.45065508
_cell_formula_units_Z   1
loop_
 _symmetry_equiv_pos_site_id
 _symmetry_equiv_pos_as_xyz
  1  'x, y, z'
loop_
 _atom_site_type_symbol
 _atom_site_label
 _atom_site_symmetry_multiplicity
 _atom_site_fract_x
 _atom_site_fract_y
 _atom_site_fract_z
 _atom_site_occupancy
  Mn  Mn0  1  0.50000000  0.50000000  0.50000000  1
  Mn  Mn1  1  0.00000000  0.00000000  0.50000000  1
  Mn  Mn2  1  0.50000000  0.00000000  0.00000000  1
  Mn  Mn3  1  0.00000000  0.50000000  0.00000000  1
  Ge  Ge0  1  0.30609200  0.00000000  0.30609200  1
  Ge  Ge1  1  0.69390800  0.00000000  0.69390800  1
  Ge  Ge2  1  0.00000000  0.69390800  0.69390800  1
  Ge  Ge3  1  0.00000000  0.30609200  0.30609200  1
  Ge  Ge4  1  0.69390800  0.69390800  0.00000000  1
  Ge  Ge5  1  0.30609200  0.30609200  0.00000000  1
  Ir  Ir0  1  0.25000000  0.75000000  0.50000000  1
  Ir  Ir1  1  0.75000000  0.50000000  0.25000000  1
  Ir  Ir2  1  0.50000000  0.75000000  0.25000000  1
  Ir  Ir3  1  0.50000000  0.25000000  0.75000000  1
  Ir  Ir4  1  0.75000000  0.25000000  0.50000000  1
  Ir  Ir5  1  0.00000000  0.00000000  0.00000000  1
  Ir  Ir6  1  0.25000000  0.50000000  0.75000000  1
loop_
_geom_bond_atom_site_label_1
_geom_bond_atom_site_label_2
_geom_bond_distance
_geom_bond_site_symmetry_2
Ge0 Ir5 2.472265 1_555
Ge0 Ir3 2.555411 1_555
Ge0 Ir2 2.555411 1_545
Ge0 Ir0 2.555411 1_545
Ge0 Ir4 2.555411 1_555
Ge0 Mn3 2.891320 1_545
Ge0 Mn1 2.891320 1_555
Ge0 Mn2 2.891320 1_555
Ge0 Mn0 2.891320 1_555
Ge1 Ir5 2.472265 1_656
Ge1 Ir4 2.555411 1_555
Ge1 Ir2 2.555411 1_545
Ge1 Ir3 2.555411 1_555
Ge1 Ir0 2.555411 1_545
Ge1 Mn3 2.891320 1_656
Ge1 Mn0 2.891320 1_545
Ge1 Mn1 2.891320 1_655
Ge1 Mn2 2.891320 1_556
Ge2 Ir5 2.472265 1_566
Ge2 Ir4 2.555411 1_455
Ge2 Ir1 2.555411 1_455
Ge2 Ir0 2.555411 1_555
Ge2 Ir6 2.555411 1_555
Ge2 Mn2 2.891320 1_566
Ge2 Mn0 2.891320 1_455
Ge2 Mn1 2.891320 1_565
Ge2 Mn3 2.891320 1_556
Ge3 Ir5 2.472265 1_555
Ge3 Ir4 2.555411 1_455
Ge3 Ir1 2.555411 1_455
Ge3 Ir6 2.555411 1_555
Ge3 Ir0 2.555411 1_555
Ge3 Mn2 2.891320 1_455
Ge3 Mn1 2.891320 1_555
Ge3 Mn3 2.891320 1_555
Ge3 Mn0 2.891320 1_555
Ge4 Ir5 2.472265 1_665
Ge4 Ir6 2.555411 1_554
Ge4 Ir3 2.555411 1_554
Ge4 Ir1 2.555411 1_555
Ge4 Ir2 2.555411 1_555
Ge4 Mn2 2.891320 1_565
Ge4 Mn3 2.891320 1_655
Ge4 Mn1 2.891320 1_665
Ge4 Mn0 2.891320 1_554
Ge5 Ir5 2.472265 1_555
Ge5 Ir6 2.555411 1_554
Ge5 Ir3 2.555411 1_554
Ge5 Ir1 2.555411 1_555
Ge5 Ir2 2.555411 1_555
Ge5 Mn2 2.891320 1_555
Ge5 Mn1 2.891320 1_554
Ge5 Mn3 2.891320 1_555
Ge5 Mn0 2.891320 1_555
Ir0 Mn1 2.855605 1_565
Ir0 Mn3 2.855605 1_555
Ir0 Mn2 2.855605 1_566
Ir0 Mn0 2.855605 1_555
Ir1 Mn0 2.855605 1_555
Ir1 Mn1 2.855605 1_665
Ir1 Mn3 2.855605 1_655
Ir1 Mn2 2.855605 1_555
Ir2 Mn3 2.855605 1_555
Ir2 Mn0 2.855605 1_555
Ir2 Mn2 2.855605 1_565
Ir2 Mn1 2.855605 1_665
Ir3 Mn3 2.855605 1_656
Ir3 Mn0 2.855605 1_555
Ir3 Mn2 2.855605 1_556
Ir3 Mn1 2.855605 1_555
Ir4 Mn3 2.855605 1_656
Ir4 Mn0 2.855605 1_555
Ir4 Mn1 2.855605 1_655
Ir4 Mn2 2.855605 1_555
Ir6 Mn3 2.855605 1_556
Ir6 Mn2 2.855605 1_566
Ir6 Mn0 2.855605 1_555
Ir6 Mn1 2.855605 1_555
