# generated using pymatgen
data_MgV4(OF)6
_symmetry_space_group_name_H-M   'P 1'
_cell_length_a   5.09278083
_cell_length_b   7.52759128
_cell_length_c   5.42373426
_cell_angle_alpha   86.09401742
_cell_angle_beta   90.44479243
_cell_angle_gamma   90.81331753
_symmetry_Int_Tables_number   1
_chemical_formula_structural   MgV4(OF)6
_chemical_formula_sum   'Mg1 V4 O6 F6'
_cell_volume   207.41760697
_cell_formula_units_Z   1
loop_
 _symmetry_equiv_pos_site_id
 _symmetry_equiv_pos_as_xyz
  1  'x, y, z'
loop_
 _atom_site_type_symbol
 _atom_site_label
 _atom_site_symmetry_multiplicity
 _atom_site_fract_x
 _atom_site_fract_y
 _atom_site_fract_z
 _atom_site_occupancy
  Mg  Mg0  1  0.49461900  0.21311800  0.91572300  1
  V  V0  1  0.51579900  0.50805800  0.48462100  1
  V  V1  1  0.49752700  0.01942700  0.48017100  1
  V  V2  1  0.03441900  0.51945300  0.99256700  1
  V  V3  1  0.98932800  0.97945000  0.00529100  1
  O  O0  1  0.69930200  0.53521300  0.22529300  1
  O  O1  1  0.70535200  0.97328700  0.82157500  1
  O  O2  1  0.58293500  0.24022500  0.51972600  1
  O  O3  1  0.30052800  0.06007500  0.17813100  1
  O  O4  1  0.31217100  0.43886300  0.81116000  1
  O  O5  1  0.09764900  0.74318600  0.01688000  1
  F  F0  1  0.86812300  0.25894300  0.00863200  1
  F  F1  1  0.80664300  0.93879500  0.31918900  1
  F  F2  1  0.81498300  0.56283600  0.70007700  1
  F  F3  1  0.39994400  0.76073000  0.51069700  1
  F  F4  1  0.19684500  0.44073900  0.30798200  1
  F  F5  1  0.19633200  0.05760200  0.70228500  1
loop_
_geom_bond_atom_site_label_1
_geom_bond_atom_site_label_2
_geom_bond_distance
_geom_bond_site_symmetry_2
Mg0 O4 1.994493 1_555
Mg0 O3 2.023855 1_556
Mg0 O2 2.193077 1_555
Mg0 O1 2.204753 1_545
O0 V0 1.693895 1_555
O0 V2 2.140018 1_654
O1 V3 1.751745 1_556
O1 V1 2.135880 1_565
O2 V1 1.739059 1_555
O2 V0 2.045538 1_555
O3 V1 1.923210 1_555
O3 V3 1.945789 1_445
O4 V2 1.861256 1_555
O4 V0 2.090670 1_555
O5 V2 1.723866 1_554
O5 V3 1.866391 1_455
F0 Mg0 1.995334 1_554
F0 V2 2.121588 1_654
F0 V3 2.202276 1_545
F1 V1 1.931247 1_565
F1 V3 1.950201 1_555
F2 V2 1.945360 1_655
F2 V0 1.969102 1_555
F3 V1 1.999125 1_565
F3 V0 2.013848 1_555
F4 V2 1.953402 1_554
F4 V0 1.957501 1_555
F5 V1 1.993773 1_555
F5 V3 2.008955 1_446
F5 Mg0 2.263867 1_555
