# generated using pymatgen
data_Na5ScNb3Si5PO24
_symmetry_space_group_name_H-M   'P 1'
_cell_length_a   9.06823807
_cell_length_b   9.05815180
_cell_length_c   22.62930130
_cell_angle_alpha   90.08260158
_cell_angle_beta   90.04075172
_cell_angle_gamma   119.97826455
_symmetry_Int_Tables_number   1
_chemical_formula_structural   Na5ScNb3Si5PO24
_chemical_formula_sum   'Na15 Sc3 Nb9 Si15 P3 O72'
_cell_volume   1610.12027026
_cell_formula_units_Z   3
loop_
 _symmetry_equiv_pos_site_id
 _symmetry_equiv_pos_as_xyz
  1  'x, y, z'
loop_
 _atom_site_type_symbol
 _atom_site_label
 _atom_site_symmetry_multiplicity
 _atom_site_fract_x
 _atom_site_fract_y
 _atom_site_fract_z
 _atom_site_occupancy
  Na  Na0  1  0.99214520  0.62991249  0.24395786  1
  Na  Na1  1  0.63289317  0.62271820  0.74690074  1
  Na  Na2  1  0.98966458  0.36566993  0.74656077  1
  Na  Na3  1  0.37481218  0.00936711  0.74819168  1
  Na  Na4  1  0.31466637  0.97308805  0.08398187  1
  Na  Na5  1  0.66469228  0.69024484  0.08423039  1
  Na  Na6  1  0.96698959  0.29071444  0.41385075  1
  Na  Na7  1  0.32295728  0.03265489  0.41293831  1
  Na  Na8  1  0.70810780  0.67658462  0.41447513  1
  Na  Na9  1  0.99968598  0.99973381  0.50102672  1
  Na  Na10  1  0.99919834  0.00890344  0.99556587  1
  Na  Na11  1  0.66601585  0.33367151  0.83413432  1
  Na  Na12  1  0.65024586  0.31868123  0.32425381  1
  Na  Na13  1  0.33358000  0.65709860  0.16524871  1
  Na  Na14  1  0.33217174  0.66389737  0.66407286  1
  Sc  Sc0  1  0.00463057  0.00236373  0.35264535  1
  Sc  Sc1  1  0.66965828  0.33807952  0.68556286  1
  Sc  Sc2  1  0.65819057  0.32541784  0.18397955  1
  Nb  Nb0  1  0.00015347  0.99903845  0.85676566  1
  Nb  Nb1  1  0.99561885  0.99944705  0.64473317  1
  Nb  Nb2  1  0.00441189  0.00417859  0.14555722  1
  Nb  Nb3  1  0.66701991  0.33187197  0.97788823  1
  Nb  Nb4  1  0.67127328  0.33633231  0.48205103  1
  Nb  Nb5  1  0.32900204  0.66303278  0.01858538  1
  Nb  Nb6  1  0.33329525  0.66348234  0.52210778  1
  Nb  Nb7  1  0.33744908  0.67069220  0.31174672  1
  Nb  Nb8  1  0.33299778  0.66565048  0.81438535  1
  Si  Si0  1  0.29793208  0.00438387  0.25244560  1
  Si  Si1  1  0.28623061  0.28715082  0.75046403  1
  Si  Si2  1  0.00217817  0.71363079  0.75010241  1
  Si  Si3  1  0.71055144  0.99812816  0.75102015  1
  Si  Si4  1  0.96070378  0.33303663  0.58567030  1
  Si  Si5  1  0.66789851  0.62803300  0.58564736  1
  Si  Si6  1  0.95699346  0.61938195  0.08604823  1
  Si  Si7  1  0.66803402  0.04404327  0.08296513  1
  Si  Si8  1  0.37871229  0.33605924  0.08332386  1
  Si  Si9  1  0.62429965  0.66601987  0.91719119  1
  Si  Si10  1  0.04013469  0.37473409  0.91582437  1
  Si  Si11  1  0.33464676  0.95924272  0.91670963  1
  Si  Si12  1  0.62090107  0.95678641  0.41771685  1
  Si  Si13  1  0.33503677  0.37876926  0.41670944  1
  Si  Si14  1  0.04447246  0.66465515  0.41669385  1
  P  P0  1  0.70792926  0.70977579  0.25091441  1
  P  P1  1  0.00148419  0.29263337  0.25199856  1
  P  P2  1  0.37443041  0.04164037  0.58383820  1
  O  O0  1  0.20440364  0.01500849  0.31198750  1
  O  O1  1  0.81228437  0.79507518  0.30710739  1
  O  O2  1  0.98100563  0.19303985  0.30908404  1
  O  O3  1  0.18905525  0.16415899  0.80696016  1
  O  O4  1  0.97479861  0.81005716  0.80669711  1
  O  O5  1  0.83586038  0.02664670  0.80687044  1
  O  O6  1  0.80327909  0.96410155  0.69306023  1
  O  O7  1  0.16015238  0.19613861  0.69289138  1
  O  O8  1  0.03672853  0.84026529  0.69291333  1
  O  O9  1  0.79669684  0.82217141  0.19495329  1
  O  O10  1  0.01857884  0.19259423  0.19782473  1
  O  O11  1  0.16843175  0.97354102  0.19417807  1
  O  O12  1  0.88090619  0.36216453  0.64480449  1
  O  O13  1  0.47800905  0.11740434  0.64018861  1
  O  O14  1  0.63404891  0.51853534  0.64492557  1
  O  O15  1  0.88505864  0.51925772  0.14694669  1
  O  O16  1  0.61735226  0.11818504  0.13884863  1
  O  O17  1  0.49976102  0.38203242  0.14006566  1
  O  O18  1  0.46444949  0.29387978  0.02628903  1
  O  O19  1  0.82657496  0.52834611  0.02974720  1
  O  O20  1  0.69777342  0.16623240  0.02526795  1
  O  O21  1  0.46912402  0.15622984  0.52822178  1
  O  O22  1  0.68781127  0.52586652  0.52651107  1
  O  O23  1  0.83787282  0.30868813  0.52627177  1
  O  O24  1  0.53011989  0.69069569  0.97494134  1
  O  O25  1  0.16441044  0.47549554  0.97205628  1
  O  O26  1  0.31097331  0.84192540  0.97480469  1
  O  O27  1  0.52389776  0.83112165  0.47275835  1
  O  O28  1  0.30783472  0.47616116  0.47290264  1
  O  O29  1  0.17103251  0.69422967  0.47174689  1
  O  O30  1  0.13161419  0.62842989  0.35775105  1
  O  O31  1  0.49350286  0.86301072  0.35957002  1
  O  O32  1  0.36998015  0.50696434  0.35993499  1
  O  O33  1  0.13507828  0.49350185  0.85694603  1
  O  O34  1  0.35763090  0.86248897  0.85790642  1
  O  O35  1  0.50420831  0.64193669  0.85831127  1
  O  O36  1  0.01683355  0.82760872  0.41351464  1
  O  O37  1  0.80814644  0.97854103  0.41279397  1
  O  O38  1  0.16640260  0.19224458  0.41411617  1
  O  O39  1  0.02551175  0.18894397  0.91103538  1
  O  O40  1  0.16322038  0.97401285  0.91081407  1
  O  O41  1  0.81059995  0.83686716  0.91063509  1
  O  O42  1  0.97988019  0.16196888  0.58731737  1
  O  O43  1  0.19700025  0.02675776  0.58615608  1
  O  O44  1  0.84310355  0.81476938  0.58724980  1
  O  O45  1  0.97503876  0.81447740  0.09118960  1
  O  O46  1  0.83318650  0.01442313  0.09105193  1
  O  O47  1  0.18884331  0.16112288  0.09164061  1
  O  O48  1  0.68706954  0.16323298  0.74686350  1
  O  O49  1  0.47332849  0.30634272  0.74739341  1
  O  O50  1  0.83459027  0.52549036  0.74778476  1
  O  O51  1  0.69680677  0.53585487  0.24602922  1
  O  O52  1  0.85237836  0.32577114  0.24607426  1
  O  O53  1  0.48472305  0.16668572  0.24754173  1
  O  O54  1  0.63903858  0.49472576  0.92330905  1
  O  O55  1  0.85585633  0.36246606  0.92272197  1
  O  O56  1  0.50588650  0.14556574  0.92198808  1
  O  O57  1  0.62996519  0.14244672  0.42324141  1
  O  O58  1  0.50715164  0.36264193  0.42367040  1
  O  O59  1  0.85636254  0.48867884  0.42352644  1
  O  O60  1  0.35499771  0.50265176  0.07393283  1
  O  O61  1  0.15402517  0.66140368  0.07547413  1
  O  O62  1  0.50297341  0.84975148  0.07374846  1
  O  O63  1  0.35401441  0.86261004  0.57443795  1
  O  O64  1  0.50273855  0.65360808  0.57445719  1
  O  O65  1  0.14808837  0.50293005  0.57459427  1
  O  O66  1  0.29708568  0.81706299  0.25466116  1
  O  O67  1  0.52767255  0.69378481  0.25485399  1
  O  O68  1  0.17039290  0.47166047  0.25374116  1
  O  O69  1  0.30047459  0.47617393  0.75552264  1
  O  O70  1  0.17687796  0.69989815  0.75535207  1
  O  O71  1  0.52336979  0.82197619  0.75530446  1
loop_
_geom_bond_atom_site_label_1
_geom_bond_atom_site_label_2
_geom_bond_distance
_geom_bond_site_symmetry_2
Na0 O51 2.370829 1_555
Na0 O52 2.389458 1_555
Na0 O15 2.405183 1_555
Na0 O66 2.427422 1_655
Na0 O68 2.651888 1_655
Na0 O30 2.871083 1_655
Na0 O11 2.924566 1_655
Na1 O50 2.393992 1_555
Na1 O71 2.463937 1_555
Na1 O49 2.482473 1_555
Na1 O14 2.493886 1_555
Na1 O69 2.624842 1_555
Na1 O35 2.820312 1_555
Na1 O6 2.944973 1_555
Na1 O4 3.008843 1_555
Na2 O48 2.421519 1_555
Na2 O50 2.471534 1_555
Na2 O69 2.483191 1_655
Na2 O12 2.498251 1_555
Na2 O70 2.636067 1_655
Na2 O33 2.789338 1_655
Na2 O7 2.931427 1_655
Na2 O5 2.995484 1_555
Na3 O49 2.373466 1_555
Na3 O48 2.453120 1_555
Na3 O70 2.465663 1_545
Na3 O13 2.627107 1_555
Na3 O71 2.647190 1_545
Na3 O34 2.785932 1_545
Na3 O8 2.933656 1_545
Na3 O3 2.988344 1_555
Na4 O61 2.453169 1_555
Na4 O62 2.474675 1_555
Na4 O47 2.484855 1_565
Na4 O45 2.674984 1_455
Na4 O16 2.681103 1_565
Na4 O26 2.732804 1_554
Na4 O11 2.826128 1_555
Na4 O18 2.839390 1_565
Na5 O45 2.458732 1_555
Na5 O60 2.461237 1_555
Na5 O62 2.532274 1_555
Na5 O46 2.548682 1_565
Na5 O17 2.732722 1_555
Na5 O24 2.757960 1_554
Na5 O9 2.774251 1_555
Na5 O19 2.823911 1_555
Na6 O38 2.382759 1_655
Na6 O37 2.449630 1_545
Na6 O59 2.463085 1_555
Na6 O2 2.554678 1_555
Na6 O57 2.662556 1_555
Na6 O23 2.839533 1_555
Na6 O30 2.940804 1_655
Na6 O28 2.993311 1_655
Na7 O36 2.450225 1_545
Na7 O57 2.454724 1_555
Na7 O38 2.481284 1_555
Na7 O0 2.494744 1_555
Na7 O58 2.606033 1_555
Na7 O21 2.884365 1_555
Na7 O31 2.929832 1_545
Na7 O29 2.976611 1_545
Na8 O37 2.413764 1_555
Na8 O36 2.425384 1_655
Na8 O58 2.504886 1_555
Na8 O1 2.635370 1_555
Na8 O59 2.652143 1_555
Na8 O22 2.843409 1_555
Na8 O32 2.926911 1_555
Na8 O27 2.970534 1_555
Na9 O42 2.502169 1_565
Na9 O44 2.503252 1_555
Na9 O43 2.555113 1_665
Na9 O38 2.563977 1_665
Na9 O36 2.571116 1_655
Na9 O37 2.588649 1_555
Na10 O39 2.448749 1_655
Na10 O41 2.523976 1_545
Na10 O40 2.542152 1_645
Na10 O46 2.649028 1_556
Na10 O47 2.683614 1_656
Na10 O45 2.730961 1_546
Na11 O56 2.550593 1_555
Na11 O49 2.555159 1_555
Na11 O50 2.556119 1_555
Na11 O55 2.568121 1_555
Na11 O48 2.570291 1_555
Na11 O54 2.570825 1_555
Na12 O53 2.255272 1_555
Na12 O51 2.522432 1_555
Na12 O52 2.526093 1_555
Na12 O57 2.705065 1_555
Na12 O58 2.724258 1_555
Na12 O59 2.831813 1_555
Na13 O60 2.555146 1_555
Na13 O68 2.559550 1_555
Na13 O67 2.593909 1_555
Na13 O66 2.602823 1_555
Na13 O61 2.615114 1_555
Na13 O62 2.651098 1_555
Na14 O65 2.562585 1_555
Na14 O64 2.581010 1_555
Na14 O69 2.603694 1_555
Na14 O70 2.610986 1_555
Na14 O71 2.612286 1_555
Na14 O63 2.654851 1_555
Nb0 O4 1.966629 1_455
Nb0 O3 1.972032 1_565
Nb0 O5 1.981868 1_465
Nb0 O40 2.016720 1_555
Nb0 O41 2.020729 1_455
Nb0 O39 2.029369 1_565
Nb1 O6 1.945847 1_555
Nb1 O7 1.980820 1_665
Nb1 O8 1.986926 1_655
Nb1 O44 2.020490 1_555
Nb1 O42 2.022606 1_565
Nb1 O43 2.169363 1_665
Nb2 O11 1.977602 1_545
Nb2 O47 1.984602 1_555
Nb2 O45 2.018249 1_445
Nb2 O46 2.020505 1_455
Nb2 O10 2.025619 1_555
Nb2 O9 2.102484 1_445
Nb3 O20 1.975058 1_556
Nb3 O19 2.014002 1_556
Nb3 O18 2.016102 1_556
Nb3 O55 2.024202 1_555
Nb3 O56 2.027355 1_555
Nb3 O54 2.035873 1_555
Nb4 O22 1.928661 1_555
Nb4 O23 1.929536 1_555
Nb4 O21 2.032857 1_555
Nb4 O59 2.041859 1_555
Nb4 O57 2.081084 1_555
Nb4 O58 2.090387 1_555
Nb5 O25 1.918566 1_554
Nb5 O26 1.975659 1_554
Nb5 O24 1.977620 1_554
Nb5 O60 2.020353 1_555
Nb5 O61 2.038326 1_555
Nb5 O62 2.057259 1_555
Nb6 O28 1.942911 1_555
Nb6 O64 1.976715 1_555
Nb6 O65 1.978220 1_555
Nb6 O27 1.981204 1_555
Nb6 O29 1.987343 1_555
Nb6 O63 2.084684 1_555
Nb7 O31 1.933206 1_555
Nb7 O32 1.979158 1_555
Nb7 O30 2.001050 1_555
Nb7 O66 2.012425 1_555
Nb7 O67 2.078510 1_555
Nb7 O68 2.128193 1_555
Nb8 O35 1.943296 1_555
Nb8 O33 1.946880 1_555
Nb8 O34 1.948203 1_555
Nb8 O69 2.072190 1_555
Nb8 O70 2.079067 1_555
Nb8 O71 2.082940 1_555
O0 Si0 1.620767 1_555
O0 Sc0 1.984137 1_555
O1 P0 1.540863 1_555
O1 Sc0 2.085379 1_665
O2 P1 1.534070 1_655
O2 Sc0 2.091684 1_655
O3 Si1 1.636093 1_555
O4 Si2 1.636669 1_655
O5 Si3 1.630635 1_545
O6 Si3 1.667859 1_555
O7 Si1 1.654392 1_555
O8 Si2 1.653623 1_555
O9 P0 1.573002 1_555
O10 P1 1.576544 1_555
O11 Si0 1.692505 1_565
O12 Si4 1.604709 1_555
O12 Sc1 2.037998 1_555
O13 P2 1.526719 1_555
O13 Sc1 2.142471 1_555
O14 Si5 1.605481 1_555
O14 Sc1 2.037947 1_555
O15 Si6 1.600266 1_555
O15 Sc2 2.101071 1_555
O16 Si7 1.602596 1_555
O16 Sc2 2.000766 1_555
O17 Si8 1.602099 1_555
O17 Sc2 2.012527 1_555
O18 Si8 1.647155 1_555
O19 Si6 1.649886 1_555
O20 Si7 1.645856 1_555
O21 P2 1.585342 1_555
O22 Si5 1.686307 1_555
O23 Si4 1.687475 1_555
O24 Si9 1.636677 1_555
O25 Si10 1.639820 1_555
O26 Si11 1.637109 1_555
O27 Si12 1.620461 1_555
O28 Si13 1.634255 1_555
O29 Si14 1.621952 1_555
O30 Si14 1.664513 1_555
O31 Si12 1.673774 1_555
O32 Si13 1.654270 1_555
O33 Si10 1.659519 1_555
O34 Si11 1.661870 1_555
O35 Si9 1.663897 1_555
O36 Si14 1.617632 1_555
O36 Sc0 2.143930 1_565
O37 Si12 1.612560 1_555
O37 Sc0 2.166556 1_665
O38 Si13 1.616835 1_555
O38 Sc0 2.124624 1_555
O39 Si10 1.624183 1_555
O40 Si11 1.630914 1_555
O41 Si9 1.630749 1_555
O42 Si4 1.643837 1_555
O43 P2 1.546970 1_555
O44 Si5 1.643412 1_555
O45 Si6 1.695202 1_555
O46 Si7 1.658227 1_555
O47 Si8 1.669036 1_555
O48 Si3 1.615386 1_545
O48 Sc1 2.171066 1_555
O49 Si1 1.618367 1_555
O49 Sc1 2.168705 1_555
O50 Si2 1.621123 1_655
O50 Sc1 2.134042 1_555
O51 P0 1.531331 1_555
O51 Sc2 2.247719 1_555
O52 P1 1.530286 1_655
O52 Sc2 2.250830 1_555
O53 Si0 1.598430 1_555
O53 Sc2 2.087968 1_555
O54 Si9 1.628606 1_555
O55 Si10 1.626058 1_655
O56 Si11 1.629153 1_545
O57 Si12 1.646776 1_545
O58 Si13 1.646133 1_555
O59 Si14 1.660843 1_655
O60 Si8 1.641253 1_555
O61 Si6 1.647958 1_455
O62 Si7 1.657477 1_565
O63 P2 1.551869 1_565
O64 Si5 1.645385 1_555
O65 Si4 1.645287 1_455
O66 Si0 1.693774 1_565
O67 P0 1.569876 1_555
O68 P1 1.579526 1_555
O69 Si1 1.655239 1_555
O70 Si2 1.654100 1_555
O71 Si3 1.652460 1_555
