# generated using pymatgen
data_LiMnPO4
_symmetry_space_group_name_H-M   'P 1'
_cell_length_a   8.72185731
_cell_length_b   8.72185731
_cell_length_c   8.72185788
_cell_angle_alpha   107.75587412
_cell_angle_beta   107.75587412
_cell_angle_gamma   107.75587148
_symmetry_Int_Tables_number   1
_chemical_formula_structural   LiMnPO4
_chemical_formula_sum   'Li6 Mn6 P6 O24'
_cell_volume   540.75369972
_cell_formula_units_Z   6
loop_
 _symmetry_equiv_pos_site_id
 _symmetry_equiv_pos_as_xyz
  1  'x, y, z'
loop_
 _atom_site_type_symbol
 _atom_site_label
 _atom_site_symmetry_multiplicity
 _atom_site_fract_x
 _atom_site_fract_y
 _atom_site_fract_z
 _atom_site_occupancy
  Li  Li0  1  0.89098400  0.12914100  0.72147000  1
  Li  Li1  1  0.42781000  0.21282500  0.61019900  1
  Li  Li2  1  0.61019900  0.42781000  0.21282500  1
  Li  Li3  1  0.12914100  0.72147000  0.89098400  1
  Li  Li4  1  0.21282500  0.61019900  0.42781000  1
  Li  Li5  1  0.72147000  0.89098400  0.12914100  1
  Mn  Mn0  1  0.45516300  0.05432100  0.22974300  1
  Mn  Mn1  1  0.76958100  0.53831500  0.94427000  1
  Mn  Mn2  1  0.05432100  0.22974300  0.45516300  1
  Mn  Mn3  1  0.94427000  0.76958100  0.53831500  1
  Mn  Mn4  1  0.22974300  0.45516300  0.05432100  1
  Mn  Mn5  1  0.53831500  0.94427000  0.76958100  1
  P  P0  1  0.28109900  0.09862500  0.87223200  1
  P  P1  1  0.79020600  0.38498400  0.57111100  1
  P  P2  1  0.87223200  0.28109900  0.09862500  1
  P  P3  1  0.38498400  0.57111100  0.79020600  1
  P  P4  1  0.57111100  0.79020600  0.38498400  1
  P  P5  1  0.09862500  0.87223200  0.28109900  1
  O  O0  1  0.96093100  0.29434500  0.96918900  1
  O  O1  1  0.39397600  0.09476500  0.76471000  1
  O  O2  1  0.08115500  0.03382200  0.74338600  1
  O  O3  1  0.89780500  0.27271300  0.58378700  1
  O  O4  1  0.28995200  0.02342800  0.35699000  1
  O  O5  1  0.74338600  0.08115500  0.03382200  1
  O  O6  1  0.68344500  0.36238300  0.68316000  1
  O  O7  1  0.65468000  0.31566300  0.37381700  1
  O  O8  1  0.31566300  0.37381700  0.65468000  1
  O  O9  1  0.92144900  0.58650500  0.64828200  1
  O  O10  1  0.76471000  0.39397600  0.09476500  1
  O  O11  1  0.35699000  0.28995200  0.02342800  1
  O  O12  1  0.58650500  0.64828200  0.92144900  1
  O  O13  1  0.27271300  0.58378700  0.89780500  1
  O  O14  1  0.02342800  0.35699000  0.28995200  1
  O  O15  1  0.36238300  0.68316000  0.68344500  1
  O  O16  1  0.68316000  0.68344500  0.36238300  1
  O  O17  1  0.37381700  0.65468000  0.31566300  1
  O  O18  1  0.64828200  0.92144900  0.58650500  1
  O  O19  1  0.96918900  0.96093100  0.29434500  1
  O  O20  1  0.29434500  0.96918900  0.96093100  1
  O  O21  1  0.09476500  0.76471000  0.39397600  1
  O  O22  1  0.58378700  0.89780500  0.27271300  1
  O  O23  1  0.03382200  0.74338600  0.08115500  1
loop_
_geom_bond_atom_site_label_1
_geom_bond_atom_site_label_2
_geom_bond_distance
_geom_bond_site_symmetry_2
Li0 O0 1.969147 1_555
Li0 O3 1.982150 1_555
Li0 O18 1.997200 1_545
Li0 O2 2.055088 1_655
Li1 O8 1.953400 1_555
Li1 O1 1.966479 1_555
Li1 O6 1.982953 1_555
Li1 O4 1.998907 1_555
Li2 O7 1.953400 1_555
Li2 O10 1.966479 1_555
Li2 O16 1.982953 1_555
Li2 O11 1.998907 1_555
Li3 O20 1.969147 1_555
Li3 O13 1.982150 1_555
Li3 O9 1.997200 1_455
Li3 O23 2.055088 1_556
Li4 O17 1.953400 1_555
Li4 O21 1.966479 1_555
Li4 O15 1.982953 1_555
Li4 O14 1.998907 1_555
Li5 O19 1.969147 1_555
Li5 O22 1.982150 1_555
Li5 O12 1.997200 1_554
Li5 O5 2.055088 1_565
Mn0 O22 2.062081 1_545
Mn0 O4 2.074037 1_555
Mn0 O7 2.074329 1_555
Mn0 O20 2.076732 1_544
Mn1 O6 2.056045 1_555
Mn1 O10 2.078173 1_556
Mn1 O12 2.089462 1_555
Mn1 O23 2.107401 1_656
Mn2 O3 2.062081 1_455
Mn2 O14 2.074037 1_555
Mn2 O8 2.074329 1_555
Mn2 O19 2.076732 1_445
Mn3 O16 2.056045 1_555
Mn3 O21 2.078173 1_655
Mn3 O9 2.089462 1_555
Mn3 O2 2.107401 1_665
Mn4 O13 2.062081 1_554
Mn4 O11 2.074037 1_555
Mn4 O17 2.074329 1_555
Mn4 O0 2.076732 1_454
Mn5 O15 2.056045 1_555
Mn5 O1 2.078173 1_565
Mn5 O18 2.089462 1_555
Mn5 O5 2.107402 1_566
O0 P2 1.563336 1_556
O1 P0 1.553671 1_555
O2 P0 1.561921 1_555
O3 P1 1.554037 1_555
O4 P5 1.553551 1_545
O5 P2 1.561921 1_555
O6 P1 1.556131 1_555
O7 P1 1.553308 1_555
O8 P3 1.553308 1_555
O9 P1 1.560133 1_555
O10 P2 1.553671 1_555
O11 P0 1.553551 1_554
O12 P3 1.560133 1_555
O13 P3 1.554037 1_555
O14 P2 1.553551 1_455
O15 P3 1.556131 1_555
O16 P4 1.556131 1_555
O17 P4 1.553308 1_555
O18 P4 1.560133 1_555
O19 P5 1.563336 1_655
O20 P0 1.563336 1_565
O21 P5 1.553671 1_555
O22 P4 1.554037 1_555
O23 P5 1.561921 1_555
