# generated using pymatgen
data_Sb3ClO4
_symmetry_space_group_name_H-M   'P 1'
_cell_length_a   5.32733935
_cell_length_b   5.62084491
_cell_length_c   9.74475617
_cell_angle_alpha   94.99436294
_cell_angle_beta   90.00000000
_cell_angle_gamma   90.00000000
_symmetry_Int_Tables_number   1
_chemical_formula_structural   Sb3ClO4
_chemical_formula_sum   'Sb6 Cl2 O8'
_cell_volume   290.69054348
_cell_formula_units_Z   2
loop_
 _symmetry_equiv_pos_site_id
 _symmetry_equiv_pos_as_xyz
  1  'x, y, z'
loop_
 _atom_site_type_symbol
 _atom_site_label
 _atom_site_symmetry_multiplicity
 _atom_site_fract_x
 _atom_site_fract_y
 _atom_site_fract_z
 _atom_site_occupancy
  Sb  Sb0  1  0.29345271  0.70001947  0.79347555  1
  Sb  Sb1  1  0.18194471  0.25000000  0.50000000  1
  Sb  Sb2  1  0.81805529  0.75000000  0.50000000  1
  Sb  Sb3  1  0.29345271  0.79998053  0.20652445  1
  Sb  Sb4  1  0.70654729  0.29997953  0.20652445  1
  Sb  Sb5  1  0.70654729  0.20002047  0.79347555  1
  Cl  Cl0  1  0.29547359  0.25000000  -0.00000000  1
  Cl  Cl1  1  0.70452641  0.75000000  -0.00000000  1
  O  O0  1  0.91566855  0.10191404  0.61664264  1
  O  O1  1  0.91566855  0.39808596  0.38335736  1
  O  O2  1  0.08433145  0.89808596  0.38335736  1
  O  O3  1  0.08433145  0.60191404  0.61664264  1
  O  O4  1  0.52892257  0.45735189  0.70847157  1
  O  O5  1  0.47107743  0.54264811  0.29152843  1
  O  O6  1  0.52892257  0.04264811  0.29152843  1
  O  O7  1  0.47107743  0.95735189  0.70847157  1
loop_
_geom_bond_atom_site_label_1
_geom_bond_atom_site_label_2
_geom_bond_distance
_geom_bond_site_symmetry_2
Cl0 Sb4 2.970951 1_555
Cl0 Sb5 2.970951 1_554
Cl1 Sb3 2.970951 1_555
Cl1 Sb0 2.970951 1_554
O0 Sb1 2.040053 1_655
O0 Sb5 2.085464 1_555
O0 Sb2 2.254690 1_545
O1 Sb1 2.040053 1_655
O1 Sb4 2.085464 1_555
O1 Sb2 2.254690 1_555
O2 Sb2 2.040053 1_455
O2 Sb3 2.085463 1_555
O2 Sb1 2.254690 1_565
O3 Sb2 2.040053 1_455
O3 Sb0 2.085463 1_555
O3 Sb1 2.254690 1_555
O4 Sb5 1.970360 1_555
O4 Sb0 1.980783 1_555
O5 Sb3 1.970364 1_555
O5 Sb4 1.980787 1_555
O6 Sb4 1.970360 1_555
O6 Sb3 1.980783 1_545
O7 Sb0 1.970364 1_555
O7 Sb5 1.980787 1_565
