# generated using pymatgen
data_Na4Ca2Nb2Si3(SO8)3
_symmetry_space_group_name_H-M   'P 1'
_cell_length_a   9.22500673
_cell_length_b   9.21935054
_cell_length_c   23.11524359
_cell_angle_alpha   89.75801979
_cell_angle_beta   90.17755026
_cell_angle_gamma   120.24778914
_symmetry_Int_Tables_number   1
_chemical_formula_structural   Na4Ca2Nb2Si3(SO8)3
_chemical_formula_sum   'Na12 Ca6 Nb6 Si9 S9 O72'
_cell_volume   1698.25213512
_cell_formula_units_Z   3
loop_
 _symmetry_equiv_pos_site_id
 _symmetry_equiv_pos_as_xyz
  1  'x, y, z'
loop_
 _atom_site_type_symbol
 _atom_site_label
 _atom_site_symmetry_multiplicity
 _atom_site_fract_x
 _atom_site_fract_y
 _atom_site_fract_z
 _atom_site_occupancy
  Na  Na0  1  0.36618037  0.33874091  0.24277786  1
  Na  Na1  1  0.65049571  0.62980375  0.74581529  1
  Na  Na2  1  0.02074331  0.67005823  0.59283294  1
  Na  Na3  1  0.33600709  0.97193349  0.07741932  1
  Na  Na4  1  0.69649481  0.01880920  0.90568658  1
  Na  Na5  1  0.99744782  0.30725139  0.42341422  1
  Na  Na6  1  0.02187940  0.02462629  0.50158228  1
  Na  Na7  1  0.01626045  0.99869184  0.98986339  1
  Na  Na8  1  0.68916843  0.33713683  0.82038964  1
  Na  Na9  1  0.63726108  0.30693954  0.33093621  1
  Na  Na10  1  0.35671496  0.66626256  0.15330836  1
  Na  Na11  1  0.33344018  0.63683858  0.65525428  1
  Ca  Ca0  1  0.00231107  0.99306395  0.35249286  1
  Ca  Ca1  1  0.01051476  0.00414515  0.85188203  1
  Ca  Ca2  1  0.66483504  0.32368498  0.68626365  1
  Ca  Ca3  1  0.67030859  0.33047246  0.18579876  1
  Ca  Ca4  1  0.33359745  0.65795818  0.01771929  1
  Ca  Ca5  1  0.34534419  0.66549899  0.51951420  1
  Nb  Nb0  1  0.97779511  0.99398609  0.64981305  1
  Nb  Nb1  1  0.01392471  0.00062319  0.14188688  1
  Nb  Nb2  1  0.65112567  0.31285369  0.98257460  1
  Nb  Nb3  1  0.66154464  0.34426221  0.48823137  1
  Nb  Nb4  1  0.34299803  0.67095263  0.31423947  1
  Nb  Nb5  1  0.32556912  0.68425547  0.81025328  1
  Si  Si0  1  0.29473662  0.99244860  0.25171985  1
  Si  Si1  1  0.99911287  0.71147486  0.74969185  1
  Si  Si2  1  0.69710071  0.99698122  0.75810958  1
  Si  Si3  1  0.95973405  0.32683741  0.58344395  1
  Si  Si4  1  0.67113106  0.64293122  0.59179943  1
  Si  Si5  1  0.67441502  0.03534832  0.08650199  1
  Si  Si6  1  0.37348661  0.33607883  0.08905416  1
  Si  Si7  1  0.33117396  0.96448138  0.92210276  1
  Si  Si8  1  0.34099957  0.36954302  0.41744270  1
  S  S0  1  0.69832637  0.71069039  0.25063179  1
  S  S1  1  0.01408971  0.29892535  0.25120854  1
  S  S2  1  0.28648253  0.30289070  0.74960634  1
  S  S3  1  0.36233686  0.04414222  0.58183957  1
  S  S4  1  0.95557963  0.63306260  0.08357045  1
  S  S5  1  0.62473829  0.65314975  0.91638547  1
  S  S6  1  0.02935832  0.37839412  0.91627360  1
  S  S7  1  0.62441197  0.97159722  0.41438731  1
  S  S8  1  0.03451145  0.65303501  0.41697439  1
  O  O0  1  0.19763011  0.01594636  0.30312056  1
  O  O1  1  0.78320338  0.78815394  0.30420297  1
  O  O2  1  0.98857030  0.20761742  0.30550156  1
  O  O3  1  0.21464638  0.21114824  0.80256740  1
  O  O4  1  0.98335020  0.80201683  0.80458932  1
  O  O5  1  0.79104953  0.00979056  0.81684016  1
  O  O6  1  0.80624817  0.96937786  0.70004015  1
  O  O7  1  0.17867953  0.21303937  0.69718089  1
  O  O8  1  0.03324966  0.83630062  0.68983806  1
  O  O9  1  0.78377960  0.81346412  0.19847194  1
  O  O10  1  0.03399673  0.20403968  0.20100073  1
  O  O11  1  0.16832048  0.96831886  0.19152603  1
  O  O12  1  0.86284879  0.34972934  0.63497548  1
  O  O13  1  0.45624695  0.11278836  0.63408816  1
  O  O14  1  0.65202605  0.54058145  0.64854672  1
  O  O15  1  0.88453185  0.54549012  0.13735274  1
  O  O16  1  0.64805393  0.13047753  0.13764797  1
  O  O17  1  0.46134995  0.34885365  0.14887658  1
  O  O18  1  0.48113379  0.30392249  0.03239345  1
  O  O19  1  0.85105313  0.54740226  0.03172339  1
  O  O20  1  0.69965120  0.16569909  0.02505232  1
  O  O21  1  0.46416144  0.15905683  0.52921394  1
  O  O22  1  0.69311673  0.52391854  0.53345384  1
  O  O23  1  0.83106400  0.30128058  0.52077063  1
  O  O24  1  0.53933056  0.66944345  0.96668588  1
  O  O25  1  0.12262081  0.45101008  0.96905303  1
  O  O26  1  0.33308882  0.87534441  0.98022699  1
  O  O27  1  0.54563072  0.87918078  0.46629816  1
  O  O28  1  0.30947446  0.46539620  0.46735124  1
  O  O29  1  0.12685702  0.67891207  0.47052296  1
  O  O30  1  0.13475780  0.63711715  0.36632980  1
  O  O31  1  0.51425239  0.87043613  0.36122671  1
  O  O32  1  0.36328575  0.50063779  0.35701110  1
  O  O33  1  0.12415528  0.48151453  0.86383071  1
  O  O34  1  0.35659028  0.85496517  0.86422668  1
  O  O35  1  0.52426892  0.62964238  0.86220653  1
  O  O36  1  0.99551525  0.78565420  0.40791590  1
  O  O37  1  0.79363657  0.99637809  0.40774137  1
  O  O38  1  0.17304012  0.18852108  0.41211141  1
  O  O39  1  0.99168263  0.20329692  0.91153713  1
  O  O40  1  0.18962938  0.01237689  0.91758523  1
  O  O41  1  0.79217431  0.80724885  0.91369817  1
  O  O42  1  0.97708717  0.15479746  0.59112523  1
  O  O43  1  0.20005743  0.04287672  0.58106154  1
  O  O44  1  0.86378311  0.81953181  0.58966441  1
  O  O45  1  0.96121424  0.80517081  0.08646119  1
  O  O46  1  0.85101714  0.02679092  0.09560373  1
  O  O47  1  0.18847927  0.14086837  0.09027124  1
  O  O48  1  0.64287246  0.13292293  0.74907312  1
  O  O49  1  0.45764757  0.33406991  0.74280089  1
  O  O50  1  0.84092762  0.52579134  0.74588692  1
  O  O51  1  0.66669424  0.53795360  0.24688491  1
  O  O52  1  0.88195000  0.33880414  0.24277898  1
  O  O53  1  0.48005518  0.15463049  0.24919497  1
  O  O54  1  0.64489901  0.50042846  0.92327306  1
  O  O55  1  0.86181689  0.37394831  0.91825494  1
  O  O56  1  0.52419815  0.15325624  0.92362312  1
  O  O57  1  0.63508945  0.13858014  0.41252610  1
  O  O58  1  0.51868894  0.35931265  0.42455812  1
  O  O59  1  0.87088811  0.48397754  0.41780335  1
  O  O60  1  0.31737055  0.46948508  0.07953916  1
  O  O61  1  0.13059768  0.67433805  0.07751704  1
  O  O62  1  0.51311680  0.85341493  0.07877760  1
  O  O63  1  0.33081957  0.87496951  0.57072508  1
  O  O64  1  0.53251215  0.69259930  0.58138023  1
  O  O65  1  0.13654810  0.49817219  0.57590957  1
  O  O66  1  0.30348890  0.81337934  0.26181922  1
  O  O67  1  0.52184669  0.69639941  0.25280093  1
  O  O68  1  0.18358761  0.46489931  0.25375355  1
  O  O69  1  0.29718172  0.47327845  0.75251550  1
  O  O70  1  0.17831204  0.69732506  0.75854180  1
  O  O71  1  0.51561170  0.80167544  0.76064694  1
loop_
_geom_bond_atom_site_label_1
_geom_bond_atom_site_label_2
_geom_bond_distance
_geom_bond_site_symmetry_2
Na0 O17 2.327745 1_555
Na0 O53 2.408314 1_555
Na0 O51 2.436740 1_555
Na0 O68 2.496673 1_555
Na0 O10 2.832501 1_555
Na0 O67 2.867473 1_555
Na1 O50 2.388057 1_555
Na1 O49 2.391135 1_555
Na1 O14 2.399913 1_555
Na1 O71 2.484001 1_555
Na1 O69 2.827058 1_555
Na2 O65 2.349234 1_555
Na2 O44 2.451478 1_455
Na2 O63 2.562985 1_555
Na2 O8 2.690630 1_555
Na2 O12 2.728150 1_455
Na3 O62 2.379561 1_555
Na3 O26 2.415241 1_554
Na3 O61 2.424945 1_555
Na3 O47 2.551086 1_565
Na3 O18 2.845526 1_565
Na3 O16 2.848595 1_565
Na4 O5 2.251908 1_555
Na4 O39 2.379059 1_555
Na4 O56 2.495577 1_555
Na4 O41 2.519519 1_545
Na4 O55 2.846915 1_555
Na5 O38 2.383639 1_655
Na5 O59 2.438907 1_555
Na5 O37 2.540885 1_545
Na5 O28 2.684942 1_655
Na5 O23 2.712663 1_555
Na5 O2 2.867616 1_555
Na5 O57 2.901139 1_555
Na5 O30 2.947825 1_655
Na6 O43 2.410507 1_555
Na6 O38 2.524586 1_555
Na6 O42 2.533959 1_455
Na6 O44 2.656192 1_445
Na6 O37 2.937751 1_445
Na6 O36 3.016295 1_445
Na7 O40 2.275212 1_565
Na7 O41 2.610732 1_455
Na7 O39 2.699472 1_465
Na7 O45 2.736308 1_456
Na7 O47 2.744775 1_566
Na7 O46 2.965010 1_466
Na8 O50 2.342496 1_555
Na8 O48 2.378307 1_555
Na8 O55 2.684933 1_555
Na8 O49 2.773948 1_555
Na8 O56 2.876336 1_555
Na8 O54 2.957113 1_555
Na9 O53 2.366178 1_555
Na9 O57 2.431189 1_555
Na9 O58 2.582344 1_555
Na9 O51 2.787509 1_555
Na9 O59 2.792432 1_555
Na9 O52 2.947781 1_555
Na10 O62 2.347132 1_555
Na10 O60 2.385269 1_555
Na10 O67 2.691485 1_555
Na10 O61 2.749299 1_555
Na10 O68 2.896100 1_555
Na10 O66 3.013198 1_555
Na11 O64 2.369310 1_555
Na11 O65 2.440694 1_555
Na11 O69 2.628317 1_555
Na11 O71 2.915735 1_555
Na11 O63 2.941962 1_555
Na11 O70 2.982540 1_555
Ca0 O0 2.054573 1_565
Ca0 O38 2.185193 1_565
Ca0 O1 2.248811 1_455
Ca0 O36 2.271710 1_455
Ca0 O2 2.311319 1_465
Ca0 O37 2.326459 1_455
Ca1 O4 2.067724 1_445
Ca1 O5 2.203027 1_455
Ca1 O3 2.204972 1_555
Ca1 O40 2.213964 1_555
Ca1 O39 2.376335 1_455
Ca1 O41 2.388758 1_445
Ca2 O12 2.090224 1_555
Ca2 O48 2.205275 1_555
Ca2 O50 2.229012 1_555
Ca2 O14 2.235023 1_555
Ca2 O13 2.274582 1_555
Ca2 O49 2.360312 1_555
Ca3 O16 2.077304 1_555
Ca3 O17 2.188750 1_555
Ca3 O53 2.232765 1_555
Ca3 O15 2.266546 1_555
Ca3 O52 2.320851 1_555
Ca3 O51 2.396088 1_555
Ca4 O26 2.182322 1_554
Ca4 O60 2.191335 1_555
Ca4 O24 2.194339 1_554
Ca4 O25 2.226442 1_554
Ca4 O62 2.232074 1_555
Ca4 O61 2.396459 1_555
Ca5 O28 2.089977 1_555
Ca5 O64 2.154482 1_555
Ca5 O65 2.189550 1_555
Ca5 O27 2.265918 1_555
Ca5 O63 2.330166 1_555
Ca5 O29 2.365571 1_555
Nb0 O6 1.884473 1_555
Nb0 O44 1.982838 1_555
Nb0 O8 1.991495 1_655
Nb0 O42 2.007761 1_565
Nb0 O7 2.224217 1_665
Nb0 O43 2.452716 1_665
Nb1 O47 1.894601 1_555
Nb1 O46 1.953042 1_455
Nb1 O11 1.961699 1_545
Nb1 O45 2.063430 1_445
Nb1 O10 2.255804 1_555
Nb1 O9 2.345847 1_445
Nb2 O20 1.898135 1_556
Nb2 O56 1.914208 1_555
Nb2 O18 1.916346 1_556
Nb2 O54 2.225402 1_555
Nb2 O55 2.283266 1_555
Nb2 O19 2.314721 1_556
Nb3 O22 1.856782 1_555
Nb3 O23 1.944941 1_555
Nb3 O21 1.998278 1_555
Nb3 O58 2.023045 1_555
Nb3 O59 2.352563 1_555
Nb3 O57 2.505353 1_555
Nb4 O32 1.939025 1_555
Nb4 O66 1.947111 1_555
Nb4 O31 2.033926 1_555
Nb4 O67 2.101371 1_555
Nb4 O30 2.155194 1_555
Nb4 O68 2.218410 1_555
Nb5 O70 1.855350 1_555
Nb5 O71 1.910541 1_555
Nb5 O34 1.917287 1_555
Nb5 O33 2.230598 1_555
Nb5 O69 2.267087 1_555
Nb5 O35 2.442679 1_555
O0 Si0 1.570148 1_545
O1 S0 1.447277 1_555
O2 S1 1.460245 1_655
O3 S2 1.443888 1_555
O4 Si1 1.568627 1_555
O5 Si2 1.580831 1_545
O6 Si2 1.774750 1_555
O7 S2 1.521436 1_555
O8 Si1 1.721001 1_455
O9 S0 1.488827 1_555
O10 S1 1.522377 1_555
O11 Si0 1.754039 1_555
O12 Si3 1.568756 1_555
O13 S3 1.434319 1_555
O14 Si4 1.570191 1_555
O15 S4 1.445815 1_555
O16 Si5 1.565711 1_555
O17 Si6 1.575202 1_555
O18 Si6 1.759930 1_555
O19 S4 1.491107 1_555
O20 Si5 1.794929 1_555
O21 S3 1.574199 1_555
O22 Si4 1.817234 1_555
O23 Si3 1.809326 1_555
O24 S5 1.456575 1_555
O25 S6 1.448074 1_555
O26 Si7 1.576685 1_555
O27 S7 1.437663 1_555
O28 Si8 1.570358 1_555
O29 S8 1.451190 1_555
O30 S8 1.546635 1_555
O31 S7 1.568313 1_555
O32 Si8 1.786474 1_555
O33 S6 1.515690 1_555
O34 Si7 1.765226 1_555
O35 S5 1.505695 1_555
O36 S8 1.452124 1_655
O37 S7 1.467886 1_555
O38 Si8 1.611371 1_555
O39 S6 1.474684 1_655
O40 Si7 1.578138 1_545
O41 S5 1.482243 1_555
O42 Si3 1.681103 1_555
O43 S3 1.491239 1_555
O44 Si4 1.701892 1_555
O45 S4 1.562897 1_555
O46 Si5 1.682814 1_555
O47 Si6 1.748684 1_555
O48 Si2 1.579061 1_545
O49 S2 1.464407 1_555
O50 Si1 1.597317 1_555
O51 S0 1.470238 1_555
O52 S1 1.452074 1_655
O53 Si0 1.608189 1_545
O54 S5 1.517933 1_555
O55 S6 1.526161 1_655
O56 Si7 1.754654 1_545
O57 S7 1.492725 1_545
O58 Si8 1.696124 1_555
O59 S8 1.528955 1_655
O60 Si6 1.570836 1_555
O61 S4 1.467345 1_455
O62 Si5 1.595535 1_565
O63 S3 1.459160 1_565
O64 Si4 1.577975 1_555
O65 Si3 1.609236 1_455
O66 Si0 1.708044 1_555
O67 S0 1.566745 1_555
O68 S1 1.542555 1_555
O69 S2 1.525295 1_555
O70 Si1 1.733953 1_455
O71 Si2 1.735278 1_555
