# generated using pymatgen
data_TbPb3
_symmetry_space_group_name_H-M   'P 1'
_cell_length_a   4.85482046
_cell_length_b   4.85482046
_cell_length_c   4.85482046
_cell_angle_alpha   90.00000000
_cell_angle_beta   90.00000000
_cell_angle_gamma   90.00000000
_symmetry_Int_Tables_number   1
_chemical_formula_structural   TbPb3
_chemical_formula_sum   'Tb1 Pb3'
_cell_volume   114.42463102
_cell_formula_units_Z   1
loop_
 _symmetry_equiv_pos_site_id
 _symmetry_equiv_pos_as_xyz
  1  'x, y, z'
loop_
 _atom_site_type_symbol
 _atom_site_label
 _atom_site_symmetry_multiplicity
 _atom_site_fract_x
 _atom_site_fract_y
 _atom_site_fract_z
 _atom_site_occupancy
  Tb  Tb0  1  0.00000000  -0.00000000  0.00000000  1
  Pb  Pb0  1  0.50000000  0.50000000  0.00000000  1
  Pb  Pb1  1  0.50000000  -0.00000000  0.50000000  1
  Pb  Pb2  1  0.00000000  0.50000000  0.50000000  1
loop_
_geom_bond_atom_site_label_1
_geom_bond_atom_site_label_2
_geom_bond_distance
_geom_bond_site_symmetry_2
Pb0 Tb0 3.432876 1_555
Pb0 Tb0 3.432876 1_565
Pb0 Tb0 3.432876 1_665
Pb0 Tb0 3.432876 1_655
Pb1 Tb0 3.432876 1_555
Pb1 Tb0 3.432876 1_556
Pb1 Tb0 3.432876 1_656
Pb1 Tb0 3.432876 1_655
Pb2 Tb0 3.432876 1_555
Pb2 Tb0 3.432876 1_556
Pb2 Tb0 3.432876 1_565
Pb2 Tb0 3.432876 1_566
