# generated using pymatgen
data_Na5Hf2Si3Sn2(PO8)3
_symmetry_space_group_name_H-M   'P 1'
_cell_length_a   8.99179184
_cell_length_b   8.99082846
_cell_length_c   22.84310669
_cell_angle_alpha   90.04846277
_cell_angle_beta   89.89977814
_cell_angle_gamma   119.92475049
_symmetry_Int_Tables_number   1
_chemical_formula_structural   Na5Hf2Si3Sn2(PO8)3
_chemical_formula_sum   'Na15 Hf6 Si9 Sn6 P9 O72'
_cell_volume   1600.51556563
_cell_formula_units_Z   3
loop_
 _symmetry_equiv_pos_site_id
 _symmetry_equiv_pos_as_xyz
  1  'x, y, z'
loop_
 _atom_site_type_symbol
 _atom_site_label
 _atom_site_symmetry_multiplicity
 _atom_site_fract_x
 _atom_site_fract_y
 _atom_site_fract_z
 _atom_site_occupancy
  Na  Na0  1  -0.00003516  0.62960401  0.25016624  1
  Na  Na1  1  0.36845031  0.00023916  0.74990820  1
  Na  Na2  1  0.03116851  0.70146768  0.58135179  1
  Na  Na3  1  0.66194815  0.96254851  0.58413594  1
  Na  Na4  1  0.29862614  0.97000427  0.08145028  1
  Na  Na5  1  0.03437574  0.33692700  0.08550451  1
  Na  Na6  1  0.97223301  0.66880842  0.91842061  1
  Na  Na7  1  0.96523851  0.29998315  0.41444291  1
  Na  Na8  1  0.33593488  0.02939558  0.41799794  1
  Na  Na9  1  0.99616313  0.99337024  0.50005466  1
  Na  Na10  1  0.99915807  0.99986295  0.99987229  1
  Na  Na11  1  0.66465333  0.32668513  0.83306012  1
  Na  Na12  1  0.66565578  0.33190451  0.33337196  1
  Na  Na13  1  0.34256907  0.65965538  0.16740188  1
  Na  Na14  1  0.33937309  0.65657906  0.66625049  1
  Hf  Hf0  1  0.99867960  0.00692797  0.85247566  1
  Hf  Hf1  1  0.66564500  0.33227682  0.18640542  1
  Hf  Hf2  1  0.65677314  0.32897069  0.98083740  1
  Hf  Hf3  1  0.33449838  0.66610722  0.01867845  1
  Hf  Hf4  1  0.33464775  0.66573567  0.31420760  1
  Hf  Hf5  1  0.34126456  0.67029124  0.81327626  1
  Si  Si0  1  0.00029179  0.29088452  0.25012582  1
  Si  Si1  1  0.71014723  0.00466575  0.74812083  1
  Si  Si2  1  0.37290339  0.04381231  0.58356837  1
  Si  Si3  1  0.66308638  0.62178919  0.58424497  1
  Si  Si4  1  0.95558497  0.62720589  0.08327598  1
  Si  Si5  1  0.37434152  0.33476220  0.08508736  1
  Si  Si6  1  0.33510921  0.96211286  0.91599543  1
  Si  Si7  1  0.62716401  0.95917261  0.41744646  1
  Si  Si8  1  0.03887752  0.66636901  0.41687623  1
  Sn  Sn0  1  0.99105105  0.99438886  0.35184027  1
  Sn  Sn1  1  0.00012559  0.00086721  0.64845441  1
  Sn  Sn2  1  -0.00180882  -0.00052292  0.14847785  1
  Sn  Sn3  1  0.66727437  0.33501470  0.68543432  1
  Sn  Sn4  1  0.66568594  0.33836477  0.48169300  1
  Sn  Sn5  1  0.33884590  0.66961102  0.51834364  1
  P  P0  1  0.29150798  0.00134505  0.25098434  1
  P  P1  1  0.70839922  0.70965065  0.24921124  1
  P  P2  1  0.29001115  0.29090590  0.74916910  1
  P  P3  1  0.99667539  0.70517318  0.75035027  1
  P  P4  1  0.96011137  0.33426242  0.58281840  1
  P  P5  1  0.66730753  0.04258930  0.08348230  1
  P  P6  1  0.62501387  0.66692799  0.91625937  1
  P  P7  1  0.04332591  0.37603755  0.91666448  1
  P  P8  1  0.33456461  0.37674170  0.41651387  1
  O  O0  1  0.20920971  0.02895877  0.30664656  1
  O  O1  1  0.82704490  0.78446557  0.30357141  1
  O  O2  1  0.96980878  0.17699776  0.30940683  1
  O  O3  1  0.20500214  0.17248115  0.80263833  1
  O  O4  1  0.97331445  0.79368033  0.80473121  1
  O  O5  1  0.82966789  0.02982574  0.80445122  1
  O  O6  1  0.78879838  0.97036162  0.68843279  1
  O  O7  1  0.18080841  0.21086738  0.69376922  1
  O  O8  1  0.03789035  0.82025052  0.69472047  1
  O  O9  1  0.78959805  0.82136116  0.19437000  1
  O  O10  1  0.03100162  0.20871971  0.19038644  1
  O  O11  1  0.17601625  0.96154959  0.19566676  1
  O  O12  1  0.88139617  0.37285688  0.63672934  1
  O  O13  1  0.49522373  0.11989363  0.64139955  1
  O  O14  1  0.63446436  0.50721714  0.64221652  1
  O  O15  1  0.87336796  0.50489296  0.14076087  1
  O  O16  1  0.63368257  0.12364930  0.13753610  1
  O  O17  1  0.49225685  0.35898752  0.14126330  1
  O  O18  1  0.45985476  0.29359757  0.02858752  1
  O  O19  1  0.84401769  0.53877329  0.02452348  1
  O  O20  1  0.70093957  0.15922164  0.02967647  1
  O  O21  1  0.45423346  0.15454760  0.52365858  1
  O  O22  1  0.71396645  0.54679283  0.52705774  1
  O  O23  1  0.84754221  0.29586394  0.52698013  1
  O  O24  1  0.54031293  0.69332831  0.97064650  1
  O  O25  1  0.15183443  0.45729409  0.97261026  1
  O  O26  1  0.30114519  0.84061713  0.97393577  1
  O  O27  1  0.55053241  0.84824299  0.47735678  1
  O  O28  1  0.29393450  0.45162366  0.47132274  1
  O  O29  1  0.15749168  0.70304260  0.47572791  1
  O  O30  1  0.12638163  0.63164544  0.35952282  1
  O  O31  1  0.50085585  0.86914480  0.36209757  1
  O  O32  1  0.36099855  0.48887900  0.36278694  1
  O  O33  1  0.13140632  0.49256800  0.86361925  1
  O  O34  1  0.35676197  0.86609979  0.85842445  1
  O  O35  1  0.51212104  0.63830925  0.86232672  1
  O  O36  1  0.03530571  0.84662442  0.40982408  1
  O  O37  1  0.82298504  0.99112270  0.41248146  1
  O  O38  1  0.17309174  0.19475880  0.41032216  1
  O  O39  1  0.02385931  0.19660897  0.91043914  1
  O  O40  1  0.15649882  0.96848337  0.90943030  1
  O  O41  1  0.80687151  0.82529833  0.90942210  1
  O  O42  1  0.97261562  0.16961344  0.58931525  1
  O  O43  1  0.17876603  0.01564056  0.59004623  1
  O  O44  1  0.83637112  0.81544754  0.58904987  1
  O  O45  1  0.98501943  0.82175611  0.09003749  1
  O  O46  1  0.83158945  0.02905075  0.08916985  1
  O  O47  1  0.18202658  0.16070328  0.08874930  1
  O  O48  1  0.68214207  0.17265117  0.74486035  1
  O  O49  1  0.46755377  0.30127925  0.74513408  1
  O  O50  1  0.83554660  0.52723610  0.74454758  1
  O  O51  1  0.69588484  0.53227111  0.24306899  1
  O  O52  1  0.83272698  0.31733431  0.24536145  1
  O  O53  1  0.46889665  0.15952122  0.24422206  1
  O  O54  1  0.65151689  0.50975269  0.92225130  1
  O  O55  1  0.86690286  0.36514598  0.92314630  1
  O  O56  1  0.50630614  0.14929368  0.92140526  1
  O  O57  1  0.64236110  0.15039657  0.42251407  1
  O  O58  1  0.49270845  0.35251541  0.42116270  1
  O  O59  1  0.85356211  0.48926759  0.42188410  1
  O  O60  1  0.34593056  0.49859814  0.07735709  1
  O  O61  1  0.14853643  0.64783914  0.07705463  1
  O  O62  1  0.50438431  0.86572352  0.07604693  1
  O  O63  1  0.35044644  0.84947442  0.57893514  1
  O  O64  1  0.49551746  0.64717854  0.57860068  1
  O  O65  1  0.13717664  0.49865109  0.57614479  1
  O  O66  1  0.30335226  0.83560609  0.25690738  1
  O  O67  1  0.53128536  0.69156377  0.25675277  1
  O  O68  1  0.16789264  0.48503994  0.25498593  1
  O  O69  1  0.30860792  0.46883039  0.75716676  1
  O  O70  1  0.16070755  0.69025519  0.75729535  1
  O  O71  1  0.51621929  0.83611435  0.75497261  1
loop_
_geom_bond_atom_site_label_1
_geom_bond_atom_site_label_2
_geom_bond_distance
_geom_bond_site_symmetry_2
Na0 O66 2.419906 1_555
Na0 O51 2.425304 1_455
Na0 O68 2.437300 1_555
Na0 O52 2.437933 1_455
Na0 O30 2.742575 1_555
Na0 O15 2.744187 1_455
Na0 O1 2.827523 1_455
Na0 O11 2.872025 1_555
Na1 O49 2.392784 1_555
Na1 O71 2.431733 1_545
Na1 O48 2.451328 1_555
Na1 O70 2.467938 1_545
Na1 O13 2.715083 1_555
Na1 O34 2.736405 1_545
Na1 O8 2.872865 1_545
Na1 O3 2.875840 1_555
Na2 O44 2.436926 1_455
Na2 O65 2.445668 1_555
Na2 O43 2.457497 1_565
Na2 O63 2.490732 1_555
Na2 O29 2.662015 1_555
Na2 O22 2.767543 1_455
Na2 O8 2.789652 1_555
Na2 O12 2.858915 1_455
Na3 O63 2.460268 1_555
Na3 O64 2.462049 1_555
Na3 O42 2.468877 1_565
Na3 O44 2.508382 1_555
Na3 O6 2.628944 1_555
Na3 O27 2.643187 1_555
Na3 O13 2.840030 1_565
Na3 O23 2.911973 1_565
Na4 O47 2.420555 1_565
Na4 O45 2.452610 1_455
Na4 O62 2.459057 1_555
Na4 O61 2.514184 1_555
Na4 O26 2.721544 1_554
Na4 O18 2.795702 1_565
Na4 O11 2.816930 1_555
Na4 O16 2.912823 1_565
Na5 O60 2.435439 1_555
Na5 O46 2.440909 1_455
Na5 O61 2.458107 1_555
Na5 O47 2.525416 1_555
Na5 O10 2.653137 1_555
Na5 O25 2.791406 1_554
Na5 O15 2.853329 1_455
Na5 O20 2.898062 1_455
Na6 O40 2.364857 1_655
Na6 O55 2.404742 1_555
Na6 O54 2.500758 1_555
Na6 O41 2.514261 1_555
Na6 O19 2.687123 1_556
Na6 O4 2.828253 1_555
Na6 O26 2.862320 1_655
Na6 O33 2.894731 1_655
Na7 O59 2.374322 1_555
Na7 O37 2.409453 1_545
Na7 O38 2.481995 1_655
Na7 O57 2.524766 1_555
Na7 O2 2.649856 1_555
Na7 O23 2.771535 1_555
Na7 O30 2.873035 1_655
Na7 O28 2.876184 1_655
Na8 O36 2.368910 1_545
Na8 O57 2.407504 1_555
Na8 O58 2.519158 1_555
Na8 O38 2.560971 1_555
Na8 O21 2.652048 1_555
Na8 O0 2.788200 1_555
Na8 O31 2.833290 1_545
Na8 O29 2.867904 1_545
Na9 O37 2.531093 1_555
Na9 O44 2.541311 1_555
Na9 O36 2.563026 1_655
Na9 O43 2.577783 1_665
Na9 O42 2.653478 1_565
Na9 O38 2.670550 1_665
Na10 O47 2.559505 1_666
Na10 O45 2.573739 1_556
Na10 O40 2.595471 1_655
Na10 O46 2.623529 1_566
Na10 O39 2.639028 1_665
Na10 O41 2.649773 1_555
Na11 O48 2.492661 1_555
Na11 O56 2.524543 1_555
Na11 O49 2.614385 1_555
Na11 O50 2.632763 1_555
Na11 O55 2.654436 1_555
Na11 O54 2.657350 1_555
Na12 O52 2.549736 1_555
Na12 O57 2.552749 1_555
Na12 O59 2.562541 1_555
Na12 O58 2.598145 1_555
Na12 O53 2.636446 1_555
Na12 O51 2.662719 1_555
Na13 O60 2.523289 1_555
Na13 O68 2.543330 1_555
Na13 O67 2.579356 1_555
Na13 O61 2.672430 1_555
Na13 O62 2.685297 1_555
Na13 O66 2.712156 1_555
Na14 O64 2.468899 1_555
Na14 O71 2.585812 1_555
Na14 O69 2.603284 1_555
Na14 O63 2.613195 1_555
Na14 O65 2.643994 1_555
Na14 O70 2.733221 1_555
Hf0 O5 1.968187 1_555
Hf0 O3 2.047857 1_655
Hf0 O40 2.079066 1_645
Hf0 O39 2.079604 1_655
Hf0 O4 2.116240 1_545
Hf0 O41 2.125833 1_545
Hf1 O17 1.982756 1_555
Hf1 O15 2.021925 1_555
Hf1 O52 2.073070 1_555
Hf1 O16 2.075304 1_555
Hf1 O51 2.119441 1_555
Hf1 O53 2.130791 1_555
Hf2 O18 1.964202 1_556
Hf2 O56 2.026166 1_555
Hf2 O19 2.054929 1_556
Hf2 O20 2.083447 1_556
Hf2 O54 2.125007 1_555
Hf2 O55 2.188920 1_555
Hf3 O26 2.017310 1_554
Hf3 O24 2.056714 1_554
Hf3 O60 2.057615 1_555
Hf3 O25 2.062989 1_554
Hf3 O61 2.078403 1_555
Hf3 O62 2.130619 1_555
Hf4 O31 2.012520 1_555
Hf4 O30 2.023238 1_555
Hf4 O32 2.048357 1_555
Hf4 O68 2.071389 1_555
Hf4 O67 2.117888 1_555
Hf4 O66 2.135062 1_555
Hf5 O34 1.983686 1_555
Hf5 O71 2.031581 1_555
Hf5 O35 2.036094 1_555
Hf5 O33 2.103247 1_555
Hf5 O69 2.115787 1_555
Hf5 O70 2.145167 1_555
O0 P0 1.550947 1_555
O0 Sn0 2.096556 1_445
O1 P1 1.555571 1_555
O1 Sn0 2.043990 1_555
O2 Si0 1.636569 1_655
O2 Sn0 1.996946 1_545
O3 P2 1.548125 1_555
O4 P3 1.544237 1_555
O5 Si1 1.619786 1_555
O6 Si1 1.633353 1_565
O6 Sn1 1.998595 1_665
O7 P2 1.543158 1_555
O7 Sn1 2.053759 1_555
O8 P3 1.562262 1_455
O8 Sn1 2.103242 1_565
O9 P1 1.542236 1_555
O9 Sn2 2.044654 1_665
O10 Si0 1.638505 1_555
O10 Sn2 1.996709 1_555
O11 P0 1.560869 1_565
O11 Sn2 2.094180 1_565
O12 P4 1.542472 1_555
O12 Sn3 2.097637 1_555
O13 Si2 1.635758 1_555
O13 Sn3 2.040286 1_555
O14 Si3 1.617895 1_555
O14 Sn3 1.979404 1_555
O15 Si4 1.633431 1_555
O16 P5 1.537597 1_555
O17 Si5 1.610024 1_555
O18 Si5 1.635113 1_555
O19 Si4 1.626915 1_555
O20 P5 1.544737 1_555
O21 Si2 1.634400 1_555
O21 Sn4 2.031386 1_555
O22 Si3 1.635442 1_555
O22 Sn4 1.990123 1_555
O23 P4 1.557499 1_555
O23 Sn4 2.126061 1_555
O24 P6 1.535069 1_555
O25 P7 1.552582 1_555
O26 Si6 1.645124 1_555
O27 Si7 1.629645 1_555
O27 Sn5 2.006321 1_555
O28 P8 1.548106 1_555
O28 Sn5 2.089551 1_555
O29 Si8 1.645279 1_555
O29 Sn5 2.047503 1_555
O30 Si8 1.635167 1_555
O31 Si7 1.621639 1_555
O32 P8 1.530097 1_555
O33 P7 1.537565 1_555
O34 Si6 1.636290 1_555
O35 P6 1.535477 1_555
O36 Si8 1.644952 1_555
O36 Sn0 2.051824 1_455
O37 Si7 1.640257 1_555
O37 Sn0 2.037639 1_555
O38 P8 1.560545 1_555
O38 Sn0 2.184228 1_445
O39 P7 1.539896 1_555
O40 Si6 1.642477 1_555
O41 P6 1.549906 1_555
O42 P4 1.546783 1_555
O42 Sn1 2.137067 1_655
O43 Si2 1.640529 1_555
O43 Sn1 2.039098 1_555
O44 Si3 1.662812 1_555
O44 Sn1 2.083919 1_665
O45 Si4 1.640513 1_555
O45 Sn2 2.038977 1_665
O46 P5 1.547217 1_555
O46 Sn2 2.134337 1_655
O47 Si5 1.657119 1_555
O47 Sn2 2.073640 1_555
O48 Si1 1.652200 1_555
O48 Sn3 2.047016 1_555
O49 P2 1.554580 1_555
O49 Sn3 2.150695 1_555
O50 P3 1.537465 1_555
O50 Sn3 2.119851 1_555
O51 P1 1.548008 1_555
O52 Si0 1.642154 1_655
O53 P0 1.525383 1_555
O54 P6 1.552069 1_555
O55 P7 1.546694 1_655
O56 Si6 1.622560 1_545
O57 Si7 1.659293 1_545
O57 Sn4 2.090691 1_555
O58 P8 1.546088 1_555
O58 Sn4 2.133659 1_555
O59 Si8 1.636308 1_655
O59 Sn4 2.066268 1_555
O60 Si5 1.625510 1_555
O61 Si4 1.656147 1_455
O62 P5 1.542657 1_565
O63 Si2 1.659106 1_565
O63 Sn5 2.090481 1_555
O64 Si3 1.637958 1_555
O64 Sn5 2.051986 1_555
O65 P4 1.547357 1_455
O65 Sn5 2.146709 1_555
O66 P0 1.552053 1_565
O67 P1 1.527450 1_555
O68 Si0 1.645052 1_555
O69 P2 1.533971 1_555
O70 P3 1.554621 1_455
O71 Si1 1.650642 1_565
