# generated using pymatgen
data_Na6MgMo2(NO3)2
_symmetry_space_group_name_H-M   'P 1'
_cell_length_a   5.76112719
_cell_length_b   6.52185743
_cell_length_c   7.15729300
_cell_angle_alpha   90.00000000
_cell_angle_beta   90.00000000
_cell_angle_gamma   89.51014231
_symmetry_Int_Tables_number   1
_chemical_formula_structural   Na6MgMo2(NO3)2
_chemical_formula_sum   'Na6 Mg1 Mo2 N2 O6'
_cell_volume   268.91293185
_cell_formula_units_Z   1
loop_
 _symmetry_equiv_pos_site_id
 _symmetry_equiv_pos_as_xyz
  1  'x, y, z'
loop_
 _atom_site_type_symbol
 _atom_site_label
 _atom_site_symmetry_multiplicity
 _atom_site_fract_x
 _atom_site_fract_y
 _atom_site_fract_z
 _atom_site_occupancy
  Na  Na0  1  0.54231000  0.83209900  0.00000000  1
  Na  Na1  1  0.48712400  0.31960500  0.26235200  1
  Na  Na2  1  0.48712400  0.31960500  0.73764800  1
  Na  Na3  1  0.03750700  0.70720600  0.80394800  1
  Na  Na4  1  0.97944400  0.07947500  0.50000000  1
  Na  Na5  1  0.03750700  0.70720600  0.19605200  1
  Mg  Mg0  1  0.89152900  0.53863800  0.50000000  1
  Mo  Mo0  1  0.47758800  0.80561300  0.50000000  1
  Mo  Mo1  1  0.99245700  0.20557500  0.00000000  1
  N  N0  1  0.69474300  0.16809700  0.00000000  1
  N  N1  1  0.15711500  0.75289800  0.50000000  1
  O  O0  1  0.66598700  0.64144400  0.69552000  1
  O  O1  1  0.06759600  0.34484800  0.77645000  1
  O  O2  1  0.06759600  0.34484800  0.22355000  1
  O  O3  1  0.66598700  0.64144400  0.30448000  1
  O  O4  1  0.14131800  0.95043100  0.00000000  1
  O  O5  1  0.56622000  0.09930300  0.50000000  1
loop_
_geom_bond_atom_site_label_1
_geom_bond_atom_site_label_2
_geom_bond_distance
_geom_bond_site_symmetry_2
Na0 O4 2.429397 1_555
Na0 O3 2.605337 1_555
Na0 O0 2.605337 1_554
Na1 O5 2.270220 1_555
Na1 O3 2.365477 1_555
Na1 O2 2.437026 1_555
Na2 O5 2.270220 1_555
Na2 O0 2.365477 1_555
Na2 O1 2.437026 1_555
Na3 O4 2.204351 1_556
Na3 O0 2.320151 1_455
Na3 O1 2.376282 1_555
Na4 O5 2.383041 1_555
Na4 O1 2.680176 1_655
Na4 O2 2.680176 1_655
Na5 O4 2.204351 1_555
Na5 O3 2.320151 1_455
Na5 O2 2.376282 1_555
Mg0 O3 2.020232 1_555
Mg0 O0 2.020232 1_555
Mg0 N1 2.080947 1_655
Mg0 O2 2.553299 1_655
Mg0 O1 2.553299 1_655
Mo0 N1 1.880910 1_555
Mo0 O5 1.986512 1_565
Mo0 O0 2.064673 1_555
Mo0 O3 2.064673 1_555
Mo1 N0 1.734565 1_555
Mo1 O4 1.865483 1_645
Mo1 O2 1.891877 1_655
Mo1 O1 1.891877 1_654
N0 Na0 2.367709 1_545
N0 Na1 2.431611 1_555
N0 Na2 2.431611 1_554
N1 Na5 2.302108 1_555
N1 Na3 2.302108 1_555
N1 Na4 2.355180 1_465
