# generated using pymatgen
data_Na10Ca4Zn4SiS11O48
_symmetry_space_group_name_H-M   'P 1'
_cell_length_a   18.32931364
_cell_length_b   9.13627148
_cell_length_c   22.36241642
_cell_angle_alpha   89.88571203
_cell_angle_beta   90.14964262
_cell_angle_gamma   120.02941830
_symmetry_Int_Tables_number   1
_chemical_formula_structural   Na10Ca4Zn4SiS11O48
_chemical_formula_sum   'Na30 Ca12 Zn12 Si3 S33 O144'
_cell_volume   3242.15762064
_cell_formula_units_Z   3
loop_
 _symmetry_equiv_pos_site_id
 _symmetry_equiv_pos_as_xyz
  1  'x, y, z'
loop_
 _atom_site_type_symbol
 _atom_site_label
 _atom_site_symmetry_multiplicity
 _atom_site_fract_x
 _atom_site_fract_y
 _atom_site_fract_z
 _atom_site_occupancy
  Na  Na0  1  0.82164890  0.98027494  0.24478037  1
  Na  Na1  1  0.68033188  0.36491988  0.24993731  1
  Na  Na2  1  0.99685624  0.65746850  0.25901045  1
  Na  Na3  1  0.49410664  0.61787597  0.24635379  1
  Na  Na4  1  0.32356088  0.66831245  0.74315425  1
  Na  Na5  1  0.82285691  0.66749570  0.74361836  1
  Na  Na6  1  0.98903334  0.33184037  0.75644143  1
  Na  Na7  1  0.48884192  0.33163840  0.75671682  1
  Na  Na8  1  0.18326339  0.00078824  0.75015803  1
  Na  Na9  1  0.68291209  0.99944379  0.74975619  1
  Na  Na10  1  0.33489234  0.97519682  0.58730982  1
  Na  Na11  1  0.83168840  0.96937074  0.59083421  1
  Na  Na12  1  0.15719025  0.97016483  0.07939559  1
  Na  Na13  1  0.83241891  0.69258996  0.09255510  1
  Na  Na14  1  0.34748502  0.02581427  0.91287037  1
  Na  Na15  1  0.84711411  0.02590536  0.90853989  1
  Na  Na16  1  0.17277932  0.03630571  0.41946329  1
  Na  Na17  1  0.85024441  0.66766790  0.40737120  1
  Na  Na18  1  0.00904111  0.02791758  0.49912946  1
  Na  Na19  1  0.51027331  0.99725313  0.49279729  1
  Na  Na20  1  0.00996432  0.02150208  0.00099489  1
  Na  Na21  1  0.50912111  0.99584290  0.00828900  1
  Na  Na22  1  0.33349280  0.33416723  0.83731364  1
  Na  Na23  1  0.83310223  0.33291538  0.83670597  1
  Na  Na24  1  0.33409841  0.33557371  0.33320259  1
  Na  Na25  1  0.83243598  0.33568906  0.33573568  1
  Na  Na26  1  0.18710334  0.65545971  0.16959300  1
  Na  Na27  1  0.66115484  0.65514622  0.16337433  1
  Na  Na28  1  0.16715667  0.66616886  0.66295966  1
  Na  Na29  1  0.66553928  0.66694679  0.66254156  1
  Ca  Ca0  1  0.00289568  0.00821603  0.34883800  1
  Ca  Ca1  1  0.00116452  0.00040228  0.85530554  1
  Ca  Ca2  1  0.50082936  0.00151433  0.85547525  1
  Ca  Ca3  1  0.99973797  0.99772977  0.64471603  1
  Ca  Ca4  1  0.49935665  0.99842217  0.64480131  1
  Ca  Ca5  1  0.00319157  0.01290124  0.15201313  1
  Ca  Ca6  1  0.33584038  0.33726371  0.67443491  1
  Ca  Ca7  1  0.83352313  0.33145072  0.67424780  1
  Ca  Ca8  1  0.83279436  0.33456190  0.17803192  1
  Ca  Ca9  1  0.66253756  0.66411284  0.32230762  1
  Ca  Ca10  1  0.16767921  0.66329317  0.82568059  1
  Ca  Ca11  1  0.66597383  0.66430282  0.82567942  1
  Zn  Zn0  1  0.49166388  0.99450593  0.34992268  1
  Zn  Zn1  1  0.48837342  0.98830169  0.15028343  1
  Zn  Zn2  1  0.33274450  0.33042025  0.17967077  1
  Zn  Zn3  1  0.34225789  0.34412551  0.99001371  1
  Zn  Zn4  1  0.82869926  0.33375152  0.98846677  1
  Zn  Zn5  1  0.33698573  0.34802407  0.48208264  1
  Zn  Zn6  1  0.83121457  0.33028051  0.48532069  1
  Zn  Zn7  1  0.16660816  0.65586666  0.01667025  1
  Zn  Zn8  1  0.65810119  0.66293568  0.01908913  1
  Zn  Zn9  1  0.17017986  0.66358244  0.51099450  1
  Zn  Zn10  1  0.65858036  0.65882797  0.50848011  1
  Zn  Zn11  1  0.17518185  0.66462287  0.31854248  1
  Si  Si0  1  0.84239601  0.68912221  0.24998711  1
  Si  Si1  1  0.34357411  0.00006944  0.75005100  1
  Si  Si2  1  0.84377024  0.99918723  0.75021602  1
  S  S0  1  0.16361157  0.00157050  0.24988161  1
  S  S1  1  0.63621659  0.99425161  0.24932499  1
  S  S2  1  0.35112416  0.69692073  0.25066084  1
  S  S3  1  0.00804789  0.32722466  0.25216526  1
  S  S4  1  0.49263850  0.28078467  0.24825688  1
  S  S5  1  0.15308821  0.30468095  0.74884030  1
  S  S6  1  0.65341770  0.30592581  0.74894648  1
  S  S7  1  0.00038990  0.69401894  0.75080138  1
  S  S8  1  0.50051529  0.69430173  0.75108088  1
  S  S9  1  0.48897227  0.34393670  0.57764888  1
  S  S10  1  0.98992735  0.34620582  0.57870683  1
  S  S11  1  0.18227956  0.01985656  0.57313530  1
  S  S12  1  0.67965712  0.01262668  0.57842888  1
  S  S13  1  0.32724337  0.63968238  0.57925005  1
  S  S14  1  0.82818054  0.63987543  0.57454763  1
  S  S15  1  0.48487095  0.63965511  0.08936358  1
  S  S16  1  0.99110761  0.63783314  0.08019426  1
  S  S17  1  0.33368855  0.03319678  0.08194551  1
  S  S18  1  0.82927656  0.01641047  0.07860121  1
  S  S19  1  0.19187892  0.34268352  0.08206665  1
  S  S20  1  0.67495050  0.33420610  0.08172468  1
  S  S21  1  0.31886932  0.65661491  0.92178738  1
  S  S22  1  0.81767526  0.65611582  0.92473582  1
  S  S23  1  0.00772427  0.36065970  0.92181363  1
  S  S24  1  0.50817131  0.36207777  0.92212525  1
  S  S25  1  0.17387545  0.98347308  0.92570195  1
  S  S26  1  0.67262027  0.98198260  0.92260876  1
  S  S27  1  0.31694385  0.96744769  0.41689896  1
  S  S28  1  0.81833542  0.97700293  0.42157618  1
  S  S29  1  0.17413793  0.37227363  0.41799960  1
  S  S30  1  0.66779901  0.35447518  0.41757828  1
  S  S31  1  0.01949341  0.66413883  0.41635559  1
  S  S32  1  0.50649610  0.66778711  0.41448445  1
  O  O0  1  0.12392805  0.02189074  0.30483155  1
  O  O1  1  0.59914683  0.02395566  0.30346929  1
  O  O2  1  0.40544143  0.78120628  0.30311032  1
  O  O3  1  0.89736112  0.78270834  0.31031317  1
  O  O4  1  0.48506729  0.18556968  0.30360204  1
  O  O5  1  0.00100838  0.22451882  0.30484722  1
  O  O6  1  0.11619381  0.19735359  0.80224227  1
  O  O7  1  0.61691102  0.19827653  0.80232293  1
  O  O8  1  0.49926875  0.78372778  0.80529807  1
  O  O9  1  0.99909508  0.78356747  0.80505535  1
  O  O10  1  0.39838645  0.01581738  0.81044478  1
  O  O11  1  0.89853154  0.01406661  0.81056736  1
  O  O12  1  0.39025199  0.98471661  0.68964213  1
  O  O13  1  0.89058048  0.98345416  0.68978134  1
  O  O14  1  0.10694343  0.21470806  0.69467233  1
  O  O15  1  0.60738952  0.21651600  0.69475335  1
  O  O16  1  0.01733784  0.80193814  0.69753048  1
  O  O17  1  0.51685908  0.80128885  0.69768519  1
  O  O18  1  0.38688715  0.79674604  0.19537043  1
  O  O19  1  0.89160485  0.79984365  0.19033005  1
  O  O20  1  0.01996007  0.25376694  0.19701483  1
  O  O21  1  0.50224126  0.19794492  0.19467815  1
  O  O22  1  0.10907946  0.97867687  0.19702982  1
  O  O23  1  0.58891098  0.98863596  0.19504824  1
  O  O24  1  0.45876801  0.35759073  0.63807869  1
  O  O25  1  0.95767081  0.35439612  0.63902275  1
  O  O26  1  0.22714357  0.10062051  0.62964495  1
  O  O27  1  0.72069066  0.08306390  0.63741669  1
  O  O28  1  0.32750671  0.57075348  0.63945560  1
  O  O29  1  0.82851527  0.56122905  0.63258457  1
  O  O30  1  0.44537221  0.54340042  0.14561060  1
  O  O31  1  0.95699412  0.55935015  0.13911583  1
  O  O32  1  0.32126356  0.12506088  0.13219770  1
  O  O33  1  0.82780449  0.09281208  0.13689473  1
  O  O34  1  0.23847561  0.36049212  0.13863049  1
  O  O35  1  0.72215791  0.35740777  0.13886926  1
  O  O36  1  0.23631047  0.32451978  0.03007996  1
  O  O37  1  0.72321798  0.31764459  0.03174691  1
  O  O38  1  0.43322689  0.55079052  0.03653128  1
  O  O39  1  0.93259382  0.53510312  0.03205519  1
  O  O40  1  0.34331772  0.12584393  0.02496747  1
  O  O41  1  0.82972294  0.11955361  0.02773437  1
  O  O42  1  0.22979289  0.12446690  0.52077993  1
  O  O43  1  0.73163771  0.12783310  0.53017380  1
  O  O44  1  0.32407418  0.52652741  0.53164565  1
  O  O45  1  0.82984655  0.53990967  0.52305775  1
  O  O46  1  0.42770032  0.33114096  0.53171209  1
  O  O47  1  0.93082782  0.34023566  0.53214939  1
  O  O48  1  0.26425732  0.66875052  0.96815333  1
  O  O49  1  0.76558113  0.66161169  0.97412578  1
  O  O50  1  0.06232722  0.46980727  0.97010702  1
  O  O51  1  0.56279725  0.47189155  0.97007602  1
  O  O52  1  0.16964653  0.87837932  0.97781893  1
  O  O53  1  0.66966254  0.86932830  0.97118143  1
  O  O54  1  0.28109825  0.87538382  0.47398320  1
  O  O55  1  0.76699220  0.86647937  0.47158220  1
  O  O56  1  0.17002882  0.45960711  0.47205283  1
  O  O57  1  0.65993015  0.45207281  0.46740106  1
  O  O58  1  0.07125117  0.66796250  0.46743463  1
  O  O59  1  0.56414544  0.68504383  0.46402768  1
  O  O60  1  0.05653372  0.65270054  0.35869635  1
  O  O61  1  0.53986375  0.64926953  0.35616823  1
  O  O62  1  0.25796427  0.87473931  0.36668466  1
  O  O63  1  0.77582057  0.90473438  0.36342122  1
  O  O64  1  0.17541888  0.46207012  0.36264594  1
  O  O65  1  0.67819191  0.44631683  0.36002676  1
  O  O66  1  0.04264493  0.43120737  0.86192553  1
  O  O67  1  0.54182479  0.43221408  0.86194710  1
  O  O68  1  0.17608455  0.90056420  0.86906914  1
  O  O69  1  0.67672212  0.91037239  0.86368134  1
  O  O70  1  0.28047459  0.64384965  0.86171195  1
  O  O71  1  0.77713977  0.64554171  0.86582826  1
  O  O72  1  0.01740882  0.82690612  0.41857674  1
  O  O73  1  0.49774095  0.82139425  0.41383622  1
  O  O74  1  0.40189965  0.98818647  0.40971752  1
  O  O75  1  0.90060461  0.97971801  0.42413289  1
  O  O76  1  0.10017975  0.19592590  0.41908124  1
  O  O77  1  0.59353615  0.18261925  0.41587111  1
  O  O78  1  -0.00143165  0.18932772  0.92774586  1
  O  O79  1  0.49758766  0.19030189  0.92837769  1
  O  O80  1  0.10032156  0.00914395  0.92767494  1
  O  O81  1  0.59923037  0.00682507  0.92654666  1
  O  O82  1  0.40166314  0.81703609  0.92574925  1
  O  O83  1  0.90060180  0.81723966  0.92760416  1
  O  O84  1  0.49311936  0.18516055  0.57393558  1
  O  O85  1  0.99134806  0.18395113  0.57397835  1
  O  O86  1  0.09622306  -0.00483961  0.57189834  1
  O  O87  1  0.59382974  -0.01166305  0.57553411  1
  O  O88  1  0.40330376  0.80982984  0.57175595  1
  O  O89  1  0.90361598  0.81268282  0.57026555  1
  O  O90  1  0.49366159  0.81122284  0.09134629  1
  O  O91  1  0.00006771  0.81072687  0.07738146  1
  O  O92  1  0.40839816  0.01251021  0.08867087  1
  O  O93  1  0.90541489  -0.00259816  0.07446430  1
  O  O94  1  0.10805043  0.18233621  0.08336331  1
  O  O95  1  0.58962392  0.18546149  0.08378433  1
  O  O96  1  0.33400534  0.17076112  0.74862531  1
  O  O97  1  0.83502477  0.17070770  0.74910323  1
  O  O98  1  0.24250936  0.34833226  0.74574543  1
  O  O99  1  0.74322564  0.35113514  0.74566495  1
  O  O100  1  0.41781928  0.53549826  0.74740055  1
  O  O101  1  0.91726415  0.53624852  0.74663111  1
  O  O102  1  0.34647298  0.52794846  0.24632269  1
  O  O103  1  0.83102709  0.49854060  0.24983455  1
  O  O104  1  0.41922350  0.30891796  0.24446440  1
  O  O105  1  0.92685040  0.32994770  0.24916669  1
  O  O106  1  0.24823514  0.15336929  0.24361470  1
  O  O107  1  0.72581180  0.13387675  0.24585714  1
  O  O108  1  0.33067810  0.50927015  0.92825529  1
  O  O109  1  0.83072203  0.50888427  0.92856639  1
  O  O110  1  0.42212947  0.34356366  0.92436606  1
  O  O111  1  0.92128381  0.33817015  0.92430098  1
  O  O112  1  0.25406588  0.14889595  0.92656960  1
  O  O113  1  0.75282346  0.14937757  0.92517973  1
  O  O114  1  0.32310233  0.13758528  0.41829292  1
  O  O115  1  0.83232276  0.15122053  0.42561500  1
  O  O116  1  0.25023431  0.35006696  0.41758881  1
  O  O117  1  0.74800889  0.34698789  0.42299378  1
  O  O118  1  0.42198047  0.51371448  0.42119672  1
  O  O119  1  0.93026726  0.52223763  0.41929947  1
  O  O120  1  0.17776747  0.48919456  0.07790825  1
  O  O121  1  0.67088747  0.49405139  0.07635053  1
  O  O122  1  0.07743336  0.66166585  0.07492349  1
  O  O123  1  0.57074256  0.65886801  0.08585177  1
  O  O124  1  0.25489651  0.86255394  0.08065912  1
  O  O125  1  0.75365075  0.84148253  0.07799617  1
  O  O126  1  0.17904888  0.85316426  0.57181796  1
  O  O127  1  0.67625964  0.84581688  0.57436751  1
  O  O128  1  0.25170583  0.66293968  0.57805513  1
  O  O129  1  0.75159922  0.65765963  0.57362519  1
  O  O130  1  0.07568935  0.49199120  0.57296296  1
  O  O131  1  0.57401204  0.49343965  0.57035983  1
  O  O132  1  0.16886254  0.84402451  0.25405359  1
  O  O133  1  0.63705183  0.83150729  0.25219753  1
  O  O134  1  0.26466273  0.67125011  0.25728635  1
  O  O135  1  0.74936186  0.67864137  0.24959032  1
  O  O136  1  0.07874663  0.50475445  0.25721621  1
  O  O137  1  0.57067953  0.45250279  0.25100245  1
  O  O138  1  0.14928408  0.46309610  0.75256659  1
  O  O139  1  0.64967159  0.46431660  0.75299475  1
  O  O140  1  0.06776968  0.64958987  0.75423848  1
  O  O141  1  0.56808231  0.65013521  0.75409399  1
  O  O142  1  0.24873716  0.82909660  0.75144948  1
  O  O143  1  0.74940111  0.82770497  0.75147285  1
loop_
_geom_bond_atom_site_label_1
_geom_bond_atom_site_label_2
_geom_bond_distance
_geom_bond_site_symmetry_2
Na0 O135 2.388836 1_555
Na0 O33 2.601123 1_565
Na0 O107 2.742885 1_565
Na0 O63 2.764946 1_555
Na0 O105 2.787206 1_565
Na0 O19 2.824187 1_555
Na0 O133 2.953356 1_555
Na1 O103 2.396827 1_555
Na1 O135 2.487266 1_555
Na1 O137 2.508060 1_555
Na1 O65 2.579218 1_555
Na1 O35 2.612423 1_555
Na1 O107 2.630858 1_555
Na2 O60 2.490457 1_655
Na2 O136 2.509567 1_655
Na2 O105 2.609031 1_555
Na2 O103 2.640034 1_555
Na2 O132 2.734938 1_655
Na2 O31 2.805301 1_555
Na2 O3 2.838302 1_555
Na2 O22 2.953167 1_655
Na3 O133 2.360560 1_555
Na3 O30 2.392395 1_555
Na3 O102 2.402568 1_555
Na3 O104 2.444555 1_555
Na3 O137 2.526773 1_555
Na3 O61 2.562714 1_555
Na4 O142 2.468208 1_555
Na4 O28 2.500175 1_555
Na4 O98 2.531730 1_555
Na4 O100 2.561897 1_555
Na4 O70 2.744924 1_555
Na4 O12 2.782042 1_555
Na4 O138 2.787663 1_555
Na5 O143 2.441484 1_555
Na5 O99 2.502797 1_555
Na5 O101 2.551986 1_555
Na5 O29 2.688926 1_555
Na5 O139 2.769573 1_555
Na5 O13 2.780414 1_555
Na5 O71 2.837737 1_555
Na6 O97 2.449881 1_555
Na6 O140 2.513827 1_655
Na6 O66 2.541192 1_655
Na6 O138 2.559030 1_655
Na6 O25 2.715896 1_555
Na6 O101 2.778852 1_555
Na6 O11 2.796762 1_555
Na7 O96 2.463915 1_555
Na7 O141 2.519916 1_555
Na7 O67 2.535460 1_555
Na7 O139 2.567241 1_555
Na7 O24 2.742142 1_555
Na7 O100 2.762402 1_555
Na7 O10 2.779658 1_555
Na8 O96 2.398466 1_555
Na8 O142 2.405290 1_545
Na8 O68 2.792547 1_545
Na8 O98 2.796313 1_555
Na8 O140 2.826027 1_545
Na8 O26 2.830001 1_555
Na8 O6 2.884192 1_555
Na8 O16 2.897374 1_545
Na9 O97 2.419874 1_565
Na9 O143 2.421165 1_555
Na9 O27 2.616516 1_565
Na9 O69 2.658273 1_555
Na9 O141 2.810886 1_555
Na9 O99 2.828228 1_565
Na9 O7 2.891518 1_565
Na9 O17 2.893437 1_555
Na10 O88 2.424152 1_555
Na10 O128 2.480619 1_555
Na10 O12 2.484811 1_555
Na10 O126 2.516236 1_555
Na10 O84 2.571825 1_565
Na10 O54 2.706007 1_555
Na10 O26 2.896388 1_565
Na11 O89 2.427718 1_555
Na11 O13 2.434634 1_555
Na11 O129 2.496106 1_555
Na11 O127 2.510677 1_555
Na11 O85 2.609623 1_565
Na11 O55 2.877372 1_555
Na11 O27 2.904120 1_565
Na12 O124 2.436517 1_555
Na12 O122 2.442858 1_555
Na12 O52 2.473255 1_554
Na12 O91 2.493740 1_555
Na12 O94 2.515027 1_565
Na12 O22 2.790204 1_555
Na12 O32 2.858240 1_565
Na12 O36 3.015877 1_565
Na13 O19 2.418671 1_555
Na13 O93 2.445029 1_565
Na13 O125 2.449990 1_555
Na13 O121 2.609477 1_555
Na13 O91 2.721600 1_655
Na13 O49 2.869459 1_554
Na13 O35 2.887686 1_555
Na14 O79 2.409771 1_555
Na14 O112 2.494333 1_555
Na14 O10 2.494476 1_555
Na14 O110 2.528120 1_555
Na14 O82 2.568981 1_545
Na14 O40 2.684196 1_556
Na14 O68 2.920449 1_545
Na15 O11 2.411165 1_555
Na15 O78 2.442947 1_655
Na15 O111 2.496238 1_555
Na15 O113 2.520790 1_555
Na15 O83 2.577337 1_545
Na15 O41 2.867915 1_556
Na15 O69 2.926251 1_545
Na16 O76 2.416567 1_555
Na16 O114 2.428403 1_555
Na16 O42 2.454915 1_555
Na16 O116 2.482184 1_555
Na16 O72 2.513435 1_545
Na16 O0 2.694749 1_555
Na16 O62 2.886735 1_545
Na17 O3 2.377724 1_555
Na17 O119 2.436210 1_555
Na17 O75 2.547368 1_555
Na17 O117 2.592618 1_555
Na17 O72 2.665209 1_655
Na17 O45 2.784091 1_555
Na17 O65 2.960364 1_555
Na18 O85 2.326822 1_455
Na18 O86 2.398819 1_555
Na18 O76 2.406093 1_555
Na18 O75 2.463032 1_445
Na18 O89 2.516311 1_445
Na18 O72 2.633947 1_545
Na19 O73 2.322055 1_555
Na19 O77 2.360448 1_565
Na19 O87 2.425885 1_565
Na19 O88 2.557301 1_555
Na19 O84 2.625656 1_565
Na19 O74 2.687194 1_555
Na20 O78 2.320888 1_554
Na20 O80 2.376155 1_554
Na20 O93 2.452089 1_455
Na20 O94 2.476616 1_555
Na20 O91 2.509581 1_545
Na20 O83 2.538746 1_444
Na21 O95 2.338555 1_565
Na21 O90 2.426323 1_555
Na21 O81 2.434868 1_564
Na21 O82 2.593772 1_554
Na21 O79 2.599189 1_564
Na21 O92 2.638657 1_565
Na22 O96 2.487624 1_555
Na22 O110 2.506203 1_555
Na22 O112 2.550259 1_555
Na22 O108 2.606521 1_555
Na22 O100 2.640293 1_555
Na22 O98 2.681043 1_555
Na23 O97 2.469699 1_555
Na23 O111 2.521501 1_555
Na23 O113 2.534519 1_555
Na23 O109 2.624932 1_555
Na23 O101 2.649746 1_555
Na23 O99 2.672458 1_555
Na24 O116 2.482211 1_555
Na24 O118 2.547141 1_555
Na24 O102 2.550467 1_555
Na24 O114 2.560619 1_555
Na24 O106 2.576094 1_555
Na24 O104 2.613439 1_555
Na25 O103 2.435416 1_555
Na25 O117 2.527732 1_555
Na25 O119 2.559022 1_555
Na25 O105 2.618014 1_555
Na25 O115 2.619772 1_555
Na25 O107 2.765219 1_555
Na26 O134 2.380912 1_555
Na26 O120 2.508166 1_555
Na26 O124 2.593055 1_555
Na26 O136 2.636746 1_555
Na26 O132 2.690704 1_555
Na26 O122 2.935515 1_555
Na27 O123 2.407063 1_555
Na27 O135 2.452594 1_555
Na27 O121 2.502245 1_555
Na27 O125 2.555966 1_555
Na27 O137 2.635766 1_555
Na27 O133 2.732515 1_555
Na28 O128 2.463500 1_555
Na28 O142 2.477105 1_555
Na28 O130 2.591967 1_555
Na28 O126 2.595387 1_555
Na28 O138 2.635365 1_555
Na28 O140 2.692599 1_555
Na29 O143 2.492185 1_555
Na29 O127 2.502987 1_555
Na29 O129 2.569075 1_555
Na29 O131 2.628677 1_555
Na29 O139 2.655671 1_555
Na29 O141 2.673825 1_555
Ca0 O3 2.176759 1_445
Ca0 O5 2.221441 1_555
Ca0 O76 2.350219 1_555
Ca0 O0 2.374663 1_555
Ca0 O72 2.382319 1_545
Ca0 O75 2.438109 1_445
Ca1 O11 2.186345 1_455
Ca1 O9 2.263234 1_445
Ca1 O6 2.301870 1_555
Ca1 O78 2.387378 1_555
Ca1 O83 2.393606 1_445
Ca1 O80 2.401781 1_555
Ca2 O10 2.189083 1_555
Ca2 O8 2.273938 1_545
Ca2 O7 2.312555 1_555
Ca2 O82 2.356322 1_545
Ca2 O81 2.383090 1_555
Ca2 O79 2.398043 1_555
Ca3 O13 2.187364 1_555
Ca3 O14 2.266624 1_665
Ca3 O16 2.294764 1_655
Ca3 O85 2.381274 1_565
Ca3 O89 2.397676 1_555
Ca3 O86 2.415891 1_665
Ca4 O12 2.186270 1_555
Ca4 O15 2.277582 1_565
Ca4 O17 2.305026 1_555
Ca4 O87 2.362339 1_565
Ca4 O84 2.370375 1_565
Ca4 O88 2.386773 1_555
Ca5 O19 2.173527 1_445
Ca5 O20 2.297858 1_555
Ca5 O22 2.339666 1_545
Ca5 O94 2.339907 1_555
Ca5 O93 2.443373 1_455
Ca5 O91 2.471123 1_545
Ca6 O96 2.237581 1_555
Ca6 O26 2.309527 1_555
Ca6 O24 2.315695 1_555
Ca6 O100 2.339994 1_555
Ca6 O28 2.346213 1_555
Ca6 O98 2.380699 1_555
Ca7 O97 2.233838 1_555
Ca7 O25 2.318142 1_555
Ca7 O27 2.325194 1_555
Ca7 O29 2.338424 1_555
Ca7 O101 2.366771 1_555
Ca7 O99 2.373846 1_555
Ca8 O103 2.209562 1_555
Ca8 O35 2.310092 1_555
Ca8 O31 2.341226 1_555
Ca8 O33 2.353387 1_555
Ca8 O105 2.358498 1_555
Ca8 O107 2.431734 1_555
Ca9 O135 2.235131 1_555
Ca9 O65 2.305816 1_555
Ca9 O61 2.313203 1_555
Ca9 O63 2.327860 1_555
Ca9 O133 2.391008 1_555
Ca9 O137 2.419801 1_555
Ca10 O142 2.237830 1_555
Ca10 O70 2.305104 1_555
Ca10 O68 2.310355 1_555
Ca10 O138 2.350355 1_555
Ca10 O66 2.354648 1_555
Ca10 O140 2.382784 1_555
Ca11 O143 2.244830 1_555
Ca11 O71 2.307956 1_555
Ca11 O69 2.319194 1_555
Ca11 O67 2.346381 1_555
Ca11 O139 2.352124 1_555
Ca11 O141 2.356313 1_555
O0 S0 1.488037 1_555
O1 S1 1.480378 1_545
O1 Zn0 2.124100 1_545
O2 S2 1.479880 1_555
O2 Zn0 2.075607 1_555
O3 Si0 1.643561 1_555
O4 S4 1.477686 1_555
O4 Zn0 2.082817 1_545
O5 S3 1.469782 1_555
O6 S5 1.476749 1_555
O7 S6 1.476681 1_555
O8 S8 1.469968 1_555
O9 S7 1.471542 1_655
O10 Si1 1.644100 1_555
O11 Si2 1.644530 1_545
O12 Si1 1.644229 1_565
O13 Si2 1.647287 1_555
O14 S5 1.470083 1_555
O15 S6 1.468522 1_555
O16 S7 1.475959 1_555
O17 S8 1.474816 1_555
O18 S2 1.480407 1_555
O18 Zn1 2.069795 1_555
O19 Si0 1.644468 1_555
O20 S3 1.473256 1_555
O21 S4 1.475606 1_555
O21 Zn1 2.058587 1_545
O22 S0 1.491730 1_565
O23 S1 1.475769 1_555
O23 Zn1 2.093492 1_555
O24 S9 1.490614 1_555
O25 S10 1.491074 1_555
O26 S11 1.486130 1_555
O27 S12 1.494533 1_555
O28 S13 1.486228 1_555
O29 S14 1.483707 1_555
O30 S15 1.497572 1_555
O30 Zn2 2.147067 1_555
O31 S16 1.480896 1_555
O32 S17 1.488466 1_555
O32 Zn2 2.074392 1_555
O33 S18 1.486595 1_555
O34 S19 1.487282 1_555
O34 Zn2 2.090266 1_555
O35 S20 1.496118 1_555
O36 S19 1.477595 1_555
O36 Zn3 2.065502 1_554
O37 S20 1.481389 1_555
O37 Zn4 2.102584 1_554
O38 S15 1.476424 1_555
O38 Zn3 2.067634 1_554
O39 S16 1.476667 1_555
O39 Zn4 2.109938 1_554
O40 S17 1.489454 1_555
O40 Zn3 2.149647 1_554
O41 S18 1.473110 1_555
O41 Zn4 2.151973 1_554
O42 S11 1.486751 1_555
O42 Zn5 2.183154 1_555
O43 S12 1.475536 1_555
O43 Zn6 2.093247 1_555
O44 S13 1.466074 1_555
O44 Zn5 2.083030 1_555
O45 S14 1.480939 1_555
O45 Zn6 2.106065 1_555
O46 S9 1.480966 1_555
O46 Zn5 2.065574 1_555
O47 S10 1.481748 1_555
O47 Zn6 2.064652 1_555
O48 S21 1.485371 1_555
O48 Zn7 2.047751 1_556
O49 S22 1.479138 1_555
O49 Zn8 2.219557 1_556
O50 S23 1.470414 1_555
O50 Zn7 2.090912 1_556
O51 S24 1.467024 1_555
O51 Zn8 2.060405 1_556
O52 S25 1.485847 1_555
O52 Zn7 2.184182 1_556
O53 S26 1.477197 1_555
O53 Zn8 2.083638 1_556
O54 S27 1.488520 1_555
O54 Zn9 2.151197 1_555
O55 S28 1.485141 1_555
O55 Zn10 2.111342 1_555
O56 S29 1.472378 1_555
O56 Zn9 2.057318 1_555
O57 S30 1.480123 1_555
O57 Zn10 2.113414 1_555
O58 S31 1.472171 1_555
O58 Zn9 2.074070 1_555
O59 S32 1.482129 1_555
O59 Zn10 2.108709 1_555
O60 S31 1.486786 1_555
O60 Zn11 2.306591 1_555
O61 S32 1.487263 1_555
O62 S27 1.492653 1_555
O62 Zn11 2.056898 1_555
O63 S28 1.489168 1_555
O64 S29 1.477393 1_555
O64 Zn11 2.097166 1_555
O65 S30 1.494555 1_555
O66 S23 1.485534 1_555
O67 S24 1.485722 1_555
O68 S25 1.487983 1_555
O69 S26 1.491099 1_555
O70 S21 1.492384 1_555
O71 S22 1.490046 1_555
O72 S31 1.507491 1_555
O73 S32 1.490236 1_555
O73 Zn0 2.173273 1_555
O74 S27 1.480669 1_555
O74 Zn0 2.101070 1_555
O75 S28 1.496622 1_555
O76 S29 1.499354 1_555
O77 S30 1.476621 1_555
O77 Zn0 2.323584 1_545
O78 S23 1.494120 1_555
O79 S24 1.488193 1_555
O80 S25 1.480341 1_545
O81 S26 1.474815 1_545
O82 S21 1.494184 1_555
O83 S22 1.497270 1_555
O84 S9 1.492600 1_555
O85 S10 1.499551 1_555
O86 S11 1.477602 1_555
O87 S12 1.475928 1_555
O88 S13 1.489719 1_555
O89 S14 1.492911 1_555
O90 S15 1.494122 1_555
O90 Zn1 2.128378 1_555
O91 S16 1.505351 1_455
O92 S17 1.480331 1_555
O92 Zn1 2.099726 1_545
O93 S18 1.493196 1_555
O94 S19 1.501661 1_555
O95 S20 1.472340 1_555
O95 Zn1 2.357562 1_545
O96 Si1 1.654480 1_555
O97 Si2 1.653248 1_545
O98 S5 1.482057 1_555
O99 S6 1.485153 1_555
O100 S8 1.485944 1_555
O101 S7 1.486445 1_655
O102 S2 1.506237 1_555
O102 Zn2 2.257431 1_555
O103 Si0 1.646842 1_555
O104 S4 1.493159 1_555
O104 Zn2 2.224659 1_555
O105 S3 1.502221 1_655
O106 S0 1.481967 1_555
O106 Zn2 2.134288 1_555
O107 S1 1.494555 1_545
O108 S21 1.473319 1_555
O108 Zn3 2.130629 1_555
O109 S22 1.481669 1_555
O109 Zn4 2.070799 1_555
O110 S24 1.500569 1_555
O110 Zn3 2.077791 1_555
O111 S23 1.493384 1_655
O111 Zn4 2.210054 1_555
O112 S25 1.490478 1_545
O112 Zn3 2.218037 1_555
O113 S26 1.501002 1_545
O113 Zn4 2.104536 1_555
O114 S27 1.501499 1_545
O114 Zn5 2.305533 1_555
O115 S28 1.483040 1_545
O115 Zn6 2.121672 1_555
O116 S29 1.506655 1_555
O116 Zn5 2.150910 1_555
O117 S30 1.510135 1_555
O117 Zn6 2.124362 1_555
O118 S32 1.490498 1_555
O118 Zn5 2.053015 1_555
O119 S31 1.495953 1_655
O119 Zn6 2.317001 1_555
O120 S19 1.487687 1_555
O120 Zn7 2.130245 1_555
O121 S20 1.503608 1_555
O121 Zn8 2.104250 1_555
O122 S16 1.490297 1_455
O122 Zn7 2.114119 1_555
O123 S15 1.496133 1_555
O123 Zn8 2.178756 1_555
O124 S17 1.504508 1_565
O124 Zn7 2.274285 1_555
O125 S18 1.502835 1_565
O125 Zn8 2.144902 1_555
O126 S11 1.494539 1_565
O126 Zn9 2.145449 1_555
O127 S12 1.496761 1_565
O127 Zn10 2.155909 1_555
O128 S13 1.502361 1_555
O128 Zn9 2.116357 1_555
O129 S14 1.491731 1_555
O129 Zn10 2.243768 1_555
O130 S10 1.471858 1_455
O130 Zn9 2.159619 1_555
O131 S9 1.480321 1_555
O131 Zn10 2.063825 1_555
O132 S0 1.492604 1_565
O132 Zn11 2.226969 1_555
O133 S1 1.495847 1_555
O134 S2 1.489146 1_555
O134 Zn11 2.117104 1_555
O135 Si0 1.659405 1_555
O136 S3 1.489641 1_555
O136 Zn11 2.133019 1_555
O137 S4 1.505000 1_555
O138 S5 1.485958 1_555
O139 S6 1.485604 1_555
O140 S7 1.482263 1_555
O141 S8 1.483503 1_555
O142 Si1 1.656812 1_565
O143 Si2 1.653784 1_555
