# generated using pymatgen
data_MgV2ZnO6
_symmetry_space_group_name_H-M   'P 1'
_cell_length_a   3.96174850
_cell_length_b   5.27896672
_cell_length_c   6.38287174
_cell_angle_alpha   90.51165205
_cell_angle_beta   90.00590661
_cell_angle_gamma   112.03513015
_symmetry_Int_Tables_number   1
_chemical_formula_structural   MgV2ZnO6
_chemical_formula_sum   'Mg1 V2 Zn1 O6'
_cell_volume   123.73421097
_cell_formula_units_Z   1
loop_
 _symmetry_equiv_pos_site_id
 _symmetry_equiv_pos_as_xyz
  1  'x, y, z'
loop_
 _atom_site_type_symbol
 _atom_site_label
 _atom_site_symmetry_multiplicity
 _atom_site_fract_x
 _atom_site_fract_y
 _atom_site_fract_z
 _atom_site_occupancy
  Mg  Mg0  1  0.82141392  0.64339950  0.89313435  1
  V  V0  1  0.14920097  0.29946483  0.63514857  1
  V  V1  1  0.81568269  0.63263426  0.36971967  1
  Zn  Zn0  1  0.13586847  0.27247199  0.13282529  1
  O  O0  1  0.96922099  0.93998071  0.63808882  1
  O  O1  1  0.94038796  0.88250495  0.16883938  1
  O  O2  1  0.25749682  0.51584043  0.87667762  1
  O  O3  1  0.67754524  0.35604455  0.16303316  1
  O  O4  1  0.27393572  0.54891531  0.40310125  1
  O  O5  1  0.69139021  0.38374348  0.61943189  1
loop_
_geom_bond_atom_site_label_1
_geom_bond_atom_site_label_2
_geom_bond_distance
_geom_bond_site_symmetry_2
Mg0 O2 2.078691 1_655
Mg0 O2 2.079791 1_555
Mg0 O1 2.103804 1_556
Mg0 O5 2.150228 1_555
Mg0 O0 2.191361 1_555
Mg0 O3 2.234251 1_556
O0 V0 1.759367 1_665
O0 V1 2.268543 1_555
O1 V1 1.780272 1_555
O1 Zn0 1.924253 1_665
O2 V0 1.861763 1_555
O2 Zn0 2.031989 1_556
O3 V1 1.880881 1_555
O3 Zn0 2.031027 1_555
O3 Zn0 2.031856 1_655
O4 V0 1.928397 1_555
O4 V1 2.034014 1_555
O4 V1 2.034784 1_455
O4 Zn0 2.181934 1_555
O5 V1 2.015274 1_555
O5 V0 2.025801 1_655
O5 V0 2.026263 1_555
