# generated using pymatgen
data_PrFeAsO
_symmetry_space_group_name_H-M   'P 1'
_cell_length_a   4.09488900
_cell_length_b   4.09488900
_cell_length_c   9.25872200
_cell_angle_alpha   90.00000000
_cell_angle_beta   90.00000000
_cell_angle_gamma   90.00000000
_symmetry_Int_Tables_number   1
_chemical_formula_structural   PrFeAsO
_chemical_formula_sum   'Pr2 Fe2 As2 O2'
_cell_volume   155.25132379
_cell_formula_units_Z   2
loop_
 _symmetry_equiv_pos_site_id
 _symmetry_equiv_pos_as_xyz
  1  'x, y, z'
loop_
 _atom_site_type_symbol
 _atom_site_label
 _atom_site_symmetry_multiplicity
 _atom_site_fract_x
 _atom_site_fract_y
 _atom_site_fract_z
 _atom_site_occupancy
  Pr  Pr0  1  0.00000000  0.50000000  0.87143100  1
  Pr  Pr1  1  0.50000000  0.00000000  0.12856900  1
  Fe  Fe0  1  0.00000000  0.00000000  0.50000000  1
  Fe  Fe1  1  0.50000000  0.50000000  0.50000000  1
  As  As0  1  0.00000000  0.50000000  0.32341700  1
  As  As1  1  0.50000000  0.00000000  0.67658300  1
  O  O0  1  0.00000000  0.00000000  0.00000000  1
  O  O1  1  0.50000000  0.50000000  0.00000000  1
loop_
_geom_bond_atom_site_label_1
_geom_bond_atom_site_label_2
_geom_bond_distance
_geom_bond_site_symmetry_2
As0 Fe1 2.620121 1_555
As0 Fe1 2.620121 1_455
As0 Fe0 2.620121 1_555
As0 Fe0 2.620121 1_565
As0 Pr1 3.411544 1_555
As0 Pr1 3.411544 1_455
As0 Pr1 3.411544 1_565
As0 Pr1 3.411544 1_465
As1 Fe0 2.620121 1_555
As1 Fe0 2.620121 1_655
As1 Fe1 2.620121 1_555
As1 Fe1 2.620121 1_545
As1 Pr0 3.411544 1_545
As1 Pr0 3.411544 1_645
As1 Pr0 3.411544 1_555
As1 Pr0 3.411544 1_655
O0 Pr0 2.368342 1_554
O0 Pr1 2.368342 1_455
O0 Pr0 2.368342 1_544
O0 Pr1 2.368342 1_555
O1 Pr1 2.368342 1_565
O1 Pr0 2.368342 1_554
O1 Pr0 2.368342 1_654
O1 Pr1 2.368342 1_555
