# generated using pymatgen
data_Na2Sm2MgTi3O10
_symmetry_space_group_name_H-M   'P 1'
_cell_length_a   3.91534206
_cell_length_b   3.91534236
_cell_length_c   15.88330412
_cell_angle_alpha   97.07990153
_cell_angle_beta   97.07990318
_cell_angle_gamma   89.99999214
_symmetry_Int_Tables_number   1
_chemical_formula_structural   Na2Sm2MgTi3O10
_chemical_formula_sum   'Na2 Sm2 Mg1 Ti3 O10'
_cell_volume   239.76206040
_cell_formula_units_Z   1
loop_
 _symmetry_equiv_pos_site_id
 _symmetry_equiv_pos_as_xyz
  1  'x, y, z'
loop_
 _atom_site_type_symbol
 _atom_site_label
 _atom_site_symmetry_multiplicity
 _atom_site_fract_x
 _atom_site_fract_y
 _atom_site_fract_z
 _atom_site_occupancy
  Na  Na0  1  0.71604200  0.71604200  0.43208300  1
  Na  Na1  1  0.28395800  0.28395800  0.56791700  1
  Sm  Sm0  1  0.59711400  0.59711400  0.19422800  1
  Sm  Sm1  1  0.40288600  0.40288600  0.80577200  1
  Mg  Mg0  1  0.50000000  0.50000000  0.00000000  1
  Ti  Ti0  1  0.84541800  0.84541800  0.69083500  1
  Ti  Ti1  1  0.15458200  0.15458200  0.30916500  1
  Ti  Ti2  1  0.00000000  0.00000000  0.00000000  1
  O  O0  1  0.86034400  0.36034500  0.72068900  1
  O  O1  1  0.36034500  0.86034400  0.72068900  1
  O  O2  1  0.13965600  0.63965600  0.27931100  1
  O  O3  1  0.63965600  0.13965600  0.27931100  1
  O  O4  1  0.78913700  0.78913700  0.57827500  1
  O  O5  1  0.21086300  0.21086300  0.42172500  1
  O  O6  1  0.00000000  0.50000000  0.00000000  1
  O  O7  1  0.06728300  0.06728300  0.13456500  1
  O  O8  1  0.93271700  0.93271700  0.86543500  1
  O  O9  1  0.50000000  0.00000000  0.00000000  1
loop_
_geom_bond_atom_site_label_1
_geom_bond_atom_site_label_2
_geom_bond_distance
_geom_bond_site_symmetry_2
Na0 O4 2.286465 1_555
Na0 O5 2.773300 1_565
Na0 O5 2.773300 1_655
Na0 O5 2.773301 1_665
Na0 O5 2.773301 1_555
Na1 O5 2.286465 1_555
Na1 O4 2.773300 1_545
Na1 O4 2.773300 1_455
Na1 O4 2.773301 1_445
Na1 O4 2.773301 1_555
Mg0 O6 1.957671 1_655
Mg0 O6 1.957671 1_555
Mg0 O9 1.957671 1_565
Mg0 O9 1.957671 1_555
O0 Ti0 2.012583 1_555
O0 Ti0 2.012583 1_545
O0 Sm1 2.367121 1_555
O0 Sm1 2.367124 1_655
O1 Ti0 2.012583 1_555
O1 Ti0 2.012583 1_455
O1 Sm1 2.367121 1_555
O1 Sm1 2.367124 1_565
O2 Ti1 2.012580 1_565
O2 Ti1 2.012587 1_555
O2 Sm0 2.367121 1_555
O2 Sm0 2.367124 1_455
O3 Ti1 2.012579 1_655
O3 Ti1 2.012587 1_555
O3 Sm0 2.367121 1_555
O3 Sm0 2.367124 1_545
O4 Ti0 1.760456 1_555
O5 Ti1 1.760456 1_555
O6 Ti2 1.957671 1_565
O6 Ti2 1.957671 1_555
O7 Ti2 2.104617 1_555
O8 Ti2 2.104617 1_666
O9 Ti2 1.957671 1_555
O9 Ti2 1.957671 1_655
