# generated using pymatgen
data_GdBO3
_symmetry_space_group_name_H-M   'P 1'
_cell_length_a   6.12926541
_cell_length_b   6.12926541
_cell_length_c   6.12926615
_cell_angle_alpha   62.98774565
_cell_angle_beta   62.98774565
_cell_angle_gamma   62.98775685
_symmetry_Int_Tables_number   1
_chemical_formula_structural   GdBO3
_chemical_formula_sum   'Gd3 B3 O9'
_cell_volume   173.62184450
_cell_formula_units_Z   3
loop_
 _symmetry_equiv_pos_site_id
 _symmetry_equiv_pos_as_xyz
  1  'x, y, z'
loop_
 _atom_site_type_symbol
 _atom_site_label
 _atom_site_symmetry_multiplicity
 _atom_site_fract_x
 _atom_site_fract_y
 _atom_site_fract_z
 _atom_site_occupancy
  Gd  Gd0  1  0.16818000  0.50000000  0.83182000  1
  Gd  Gd1  1  0.83182000  0.16818000  0.50000000  1
  Gd  Gd2  1  0.50000000  0.83182000  0.16818000  1
  B  B0  1  0.75737600  0.24262400  0.00000000  1
  B  B1  1  0.00000000  0.75737600  0.24262400  1
  B  B2  1  0.24262400  0.00000000  0.75737600  1
  O  O0  1  0.26900300  0.91341600  0.55858000  1
  O  O1  1  0.91341600  0.55858000  0.26900300  1
  O  O2  1  0.55858000  0.26900300  0.91341600  1
  O  O3  1  0.44142000  0.08658400  0.73099700  1
  O  O4  1  0.08658400  0.73099700  0.44142000  1
  O  O5  1  0.73099700  0.44142000  0.08658400  1
  O  O6  1  0.00000000  0.22352400  0.77647600  1
  O  O7  1  0.22352400  0.77647600  0.00000000  1
  O  O8  1  0.77647600  0.00000000  0.22352400  1
loop_
_geom_bond_atom_site_label_1
_geom_bond_atom_site_label_2
_geom_bond_distance
_geom_bond_site_symmetry_2
Gd0 O2 2.312344 1_555
Gd0 O4 2.312344 1_555
Gd0 O0 2.496995 1_555
Gd0 O3 2.496996 1_555
Gd0 O5 2.512252 1_456
Gd0 O1 2.512253 1_456
Gd0 O6 2.544768 1_555
Gd0 O7 2.544769 1_556
Gd1 O1 2.312344 1_555
Gd1 O3 2.312344 1_555
Gd1 O5 2.496996 1_555
Gd1 O2 2.496996 1_555
Gd1 O4 2.512253 1_645
Gd1 O0 2.512253 1_645
Gd1 O8 2.544769 1_555
Gd1 O6 2.544769 1_655
Gd2 O5 2.312344 1_555
Gd2 O0 2.312344 1_555
Gd2 O4 2.496995 1_555
Gd2 O1 2.496996 1_555
Gd2 O2 2.512252 1_564
Gd2 O3 2.512253 1_564
Gd2 O8 2.544768 1_565
Gd2 O7 2.544769 1_555
B0 O5 1.457033 1_555
B0 O2 1.457033 1_554
B0 O6 1.496348 1_654
B0 O8 1.496348 1_555
B1 O1 1.457033 1_455
B1 O4 1.457033 1_555
B1 O7 1.496348 1_555
B1 O8 1.496348 1_465
B2 O3 1.457033 1_555
B2 O0 1.457033 1_545
B2 O7 1.496348 1_546
B2 O6 1.496348 1_555
