# generated using pymatgen
data_MgMn6O11F
_symmetry_space_group_name_H-M   'P 1'
_cell_length_a   10.19652784
_cell_length_b   7.71471888
_cell_length_c   2.90855000
_cell_angle_alpha   89.99889380
_cell_angle_beta   89.99914564
_cell_angle_gamma   110.04127731
_symmetry_Int_Tables_number   1
_chemical_formula_structural   MgMn6O11F
_chemical_formula_sum   'Mg1 Mn6 O11 F1'
_cell_volume   214.94173970
_cell_formula_units_Z   1
loop_
 _symmetry_equiv_pos_site_id
 _symmetry_equiv_pos_as_xyz
  1  'x, y, z'
loop_
 _atom_site_type_symbol
 _atom_site_label
 _atom_site_symmetry_multiplicity
 _atom_site_fract_x
 _atom_site_fract_y
 _atom_site_fract_z
 _atom_site_occupancy
  Mg  Mg0  1  0.16598900  0.33520200  0.51194000  1
  Mn  Mn0  1  0.99328100  0.94497600  0.01216600  1
  Mn  Mn1  1  0.33918200  0.14877300  0.51213400  1
  Mn  Mn2  1  0.99495500  0.52352300  0.51215900  1
  Mn  Mn3  1  0.66516000  0.37228100  0.01204300  1
  Mn  Mn4  1  0.34224900  0.72174600  0.01207700  1
  Mn  Mn5  1  0.66661700  0.80788800  0.51192800  1
  O  O0  1  0.12451700  0.05297800  0.51215700  1
  O  O1  1  0.02486900  0.36221500  0.01208100  1
  O  O2  1  0.30709200  0.30744700  0.01202500  1
  O  O3  1  0.98977900  0.67861400  0.01214100  1
  O  O4  1  0.53622100  0.28079400  0.51206100  1
  O  O5  1  0.20940100  0.61757400  0.51210200  1
  O  O6  1  0.46756900  0.73234100  0.51203100  1
  O  O7  1  0.79614800  0.40110400  0.51204100  1
  O  O8  1  0.66765300  0.65054400  0.01192900  1
  O  O9  1  0.34758700  0.99360500  0.01211100  1
  O  O10  1  0.86519000  0.92080400  0.51209900  1
  F  F0  1  0.66529300  0.98091900  0.01194500  1
loop_
_geom_bond_atom_site_label_1
_geom_bond_atom_site_label_2
_geom_bond_distance
_geom_bond_site_symmetry_2
Mg0 O5 2.068948 1_555
Mg0 O0 2.070825 1_555
Mg0 O1 2.105532 1_555
Mg0 O1 2.106074 1_556
Mg0 O2 2.107410 1_555
Mg0 O2 2.107775 1_556
Mn0 O10 1.920411 1_555
Mn0 O10 1.920741 1_554
Mn0 O0 1.958465 1_664
Mn0 O0 1.958479 1_665
Mn0 O3 2.042946 1_555
Mn1 O9 1.904025 1_546
Mn1 O9 1.904161 1_545
Mn1 O4 1.916083 1_555
Mn1 O2 1.998531 1_556
Mn1 O2 1.998965 1_555
Mn1 O0 2.056325 1_555
Mn2 O3 1.895380 1_556
Mn2 O3 1.895427 1_555
Mn2 O7 1.920694 1_555
Mn2 O1 2.004007 1_656
Mn2 O1 2.004364 1_655
Mn2 O5 2.054334 1_655
Mn3 O4 1.924974 1_554
Mn3 O4 1.925003 1_555
Mn3 O7 1.935107 1_554
Mn3 O7 1.935135 1_555
Mn3 O8 2.138143 1_555
Mn4 O6 1.918991 1_555
Mn4 O6 1.919163 1_554
Mn4 O5 1.962001 1_554
Mn4 O5 1.962055 1_555
Mn4 O9 2.079292 1_555
Mn5 O8 1.896635 1_556
Mn5 O8 1.896666 1_555
Mn5 O6 1.910027 1_555
Mn5 O10 1.910388 1_555
F0 Mn5 1.977157 1_555
F0 Mn5 1.977268 1_554
