# generated using pymatgen
data_MgMn2O4
_symmetry_space_group_name_H-M   'P 1'
_cell_length_a   2.90020593
_cell_length_b   5.23669090
_cell_length_c   5.49799628
_cell_angle_alpha   101.84516481
_cell_angle_beta   89.99279820
_cell_angle_gamma   73.80937909
_symmetry_Int_Tables_number   1
_chemical_formula_structural   MgMn2O4
_chemical_formula_sum   'Mg1 Mn2 O4'
_cell_volume   78.33517816
_cell_formula_units_Z   1
loop_
 _symmetry_equiv_pos_site_id
 _symmetry_equiv_pos_as_xyz
  1  'x, y, z'
loop_
 _atom_site_type_symbol
 _atom_site_label
 _atom_site_symmetry_multiplicity
 _atom_site_fract_x
 _atom_site_fract_y
 _atom_site_fract_z
 _atom_site_occupancy
  Mg  Mg0  1  0.74794934  0.50321342  0.74980295  1
  Mn  Mn0  1  0.97099455  0.05710503  0.01509698  1
  Mn  Mn1  1  0.52467253  0.94935551  0.48452330  1
  O  O0  1  0.12864459  0.74223555  0.61208087  1
  O  O1  1  0.59043646  0.81817685  0.07336938  1
  O  O2  1  0.36714892  0.26395318  0.88755357  1
  O  O3  1  0.90530161  0.18834045  0.42616495  1
loop_
_geom_bond_atom_site_label_1
_geom_bond_atom_site_label_2
_geom_bond_distance
_geom_bond_site_symmetry_2
Mg0 O1 2.113966 1_556
Mg0 O3 2.113975 1_555
Mg0 O0 2.121740 1_555
Mg0 O2 2.122140 1_655
Mg0 O0 2.125712 1_655
Mg0 O2 2.127002 1_555
Mn0 O1 1.951095 1_645
Mn0 O1 1.954701 1_545
Mn0 O2 1.996566 1_554
Mn0 O2 1.997685 1_654
Mn0 O3 2.214872 1_555
Mn0 O0 2.432475 1_644
Mn1 O3 1.951206 1_465
Mn1 O3 1.955241 1_565
Mn1 O0 1.997395 1_655
Mn1 O0 1.998558 1_555
Mn1 O1 2.215301 1_555
Mn1 O2 2.431912 1_565
