# generated using pymatgen
data_Mo2SBr2
_symmetry_space_group_name_H-M   'P 1'
_cell_length_a   9.60461323
_cell_length_b   9.60461323
_cell_length_c   12.03892092
_cell_angle_alpha   90.00000000
_cell_angle_beta   90.00000000
_cell_angle_gamma   139.33902224
_symmetry_Int_Tables_number   1
_chemical_formula_structural   Mo2SBr2
_chemical_formula_sum   'Mo12 S6 Br12'
_cell_volume   723.62963454
_cell_formula_units_Z   6
loop_
 _symmetry_equiv_pos_site_id
 _symmetry_equiv_pos_as_xyz
  1  'x, y, z'
loop_
 _atom_site_type_symbol
 _atom_site_label
 _atom_site_symmetry_multiplicity
 _atom_site_fract_x
 _atom_site_fract_y
 _atom_site_fract_z
 _atom_site_occupancy
  Mo  Mo0  1  0.74639715  0.74639715  0.93858551  1
  Mo  Mo1  1  0.74639715  0.74639715  0.56141449  1
  Mo  Mo2  1  0.25360285  0.25360285  0.43858551  1
  Mo  Mo3  1  0.25360285  0.25360285  0.06141449  1
  Mo  Mo4  1  0.01140164  0.15777236  0.89948407  1
  Mo  Mo5  1  0.15777236  0.01140164  0.60051593  1
  Mo  Mo6  1  0.98859836  0.84222764  0.39948407  1
  Mo  Mo7  1  0.84222764  0.98859836  0.10051593  1
  Mo  Mo8  1  0.98859836  0.84222764  0.10051593  1
  Mo  Mo9  1  0.84222764  0.98859836  0.39948407  1
  Mo  Mo10  1  0.01140164  0.15777236  0.60051593  1
  Mo  Mo11  1  0.15777236  0.01140164  0.89948407  1
  S  S0  1  0.38235280  0.38235280  0.62672501  1
  S  S1  1  0.38235280  0.38235280  0.87327499  1
  S  S2  1  0.61764720  0.61764720  0.12672501  1
  S  S3  1  0.61764720  0.61764720  0.37327499  1
  S  S4  1  0.91385621  0.91385621  0.75000000  1
  S  S5  1  0.08614379  0.08614379  0.25000000  1
  Br  Br0  1  0.97388983  0.62453179  0.25000000  1
  Br  Br1  1  0.62453179  0.97388983  0.25000000  1
  Br  Br2  1  0.02611017  0.37546821  0.75000000  1
  Br  Br3  1  0.37546821  0.02611017  0.75000000  1
  Br  Br4  1  0.10713832  0.40005269  0.06476510  1
  Br  Br5  1  0.40005269  0.10713832  0.43523490  1
  Br  Br6  1  0.40005269  0.10713832  0.06476510  1
  Br  Br7  1  0.10713832  0.40005269  0.43523490  1
  Br  Br8  1  0.59994731  0.89286168  0.56476510  1
  Br  Br9  1  0.89286168  0.59994731  0.93523490  1
  Br  Br10  1  0.59994731  0.89286168  0.93523490  1
  Br  Br11  1  0.89286168  0.59994731  0.56476510  1
loop_
_geom_bond_atom_site_label_1
_geom_bond_atom_site_label_2
_geom_bond_distance
_geom_bond_site_symmetry_2
Mo0 S2 2.422510 1_556
Mo0 S4 2.530538 1_555
Mo0 S1 2.553673 1_555
Mo1 S3 2.422510 1_555
Mo1 S4 2.530538 1_555
Mo1 S0 2.553673 1_555
Mo2 S0 2.422510 1_555
Mo2 S5 2.530538 1_555
Mo2 S3 2.553673 1_555
Mo3 S1 2.422510 1_554
Mo3 S5 2.530538 1_555
Mo3 S2 2.553673 1_555
Mo4 S1 2.405539 1_555
Mo4 S4 2.504955 1_445
Mo5 S0 2.405539 1_555
Mo5 S4 2.504955 1_445
Mo6 S3 2.405539 1_555
Mo6 S5 2.504955 1_665
Mo7 S2 2.405539 1_555
Mo7 S5 2.504955 1_665
Mo8 S2 2.405539 1_555
Mo8 S5 2.504955 1_665
Mo9 S3 2.405539 1_555
Mo9 S5 2.504955 1_665
Mo10 S0 2.405539 1_555
Mo10 S4 2.504955 1_445
Mo11 S1 2.405539 1_555
Mo11 S4 2.504955 1_445
Br0 Mo8 2.679977 1_555
Br0 Mo6 2.679977 1_555
Br1 Mo9 2.679977 1_555
Br1 Mo7 2.679977 1_555
Br2 Mo10 2.679977 1_555
Br2 Mo4 2.679977 1_555
Br3 Mo11 2.679977 1_555
Br3 Mo5 2.679977 1_555
Br4 Mo3 2.638379 1_555
Br4 Mo4 2.640741 1_554
Br4 Mo7 2.649767 1_445
Br5 Mo2 2.638379 1_555
Br5 Mo5 2.640741 1_555
Br5 Mo6 2.649767 1_445
Br6 Mo3 2.638379 1_555
Br6 Mo11 2.640741 1_554
Br6 Mo8 2.649767 1_445
Br7 Mo2 2.638379 1_555
Br7 Mo10 2.640741 1_555
Br7 Mo9 2.649767 1_445
Br8 Mo1 2.638379 1_555
Br8 Mo9 2.640741 1_555
Br8 Mo10 2.649767 1_665
Br9 Mo0 2.638379 1_555
Br9 Mo8 2.640741 1_556
Br9 Mo11 2.649767 1_665
Br10 Mo0 2.638379 1_555
Br10 Mo7 2.640741 1_556
Br10 Mo4 2.649767 1_665
Br11 Mo1 2.638379 1_555
Br11 Mo6 2.640741 1_555
Br11 Mo5 2.649767 1_665
