# generated using pymatgen
data_CsBi3S5
_symmetry_space_group_name_H-M   'P 1'
_cell_length_a   4.08716899
_cell_length_b   12.22869193
_cell_length_c   21.30907612
_cell_angle_alpha   90.00000000
_cell_angle_beta   90.00000000
_cell_angle_gamma   90.00000000
_symmetry_Int_Tables_number   1
_chemical_formula_structural   CsBi3S5
_chemical_formula_sum   'Cs4 Bi12 S20'
_cell_volume   1065.04318958
_cell_formula_units_Z   4
loop_
 _symmetry_equiv_pos_site_id
 _symmetry_equiv_pos_as_xyz
  1  'x, y, z'
loop_
 _atom_site_type_symbol
 _atom_site_label
 _atom_site_symmetry_multiplicity
 _atom_site_fract_x
 _atom_site_fract_y
 _atom_site_fract_z
 _atom_site_occupancy
  Cs  Cs0  1  0.75000000  0.00429151  0.88854550  1
  Cs  Cs1  1  0.25000000  0.99570849  0.11145450  1
  Cs  Cs2  1  0.75000000  0.50429151  0.61145450  1
  Cs  Cs3  1  0.25000000  0.49570849  0.38854550  1
  Bi  Bi0  1  0.25000000  0.87090465  0.64651432  1
  Bi  Bi1  1  0.75000000  0.12909535  0.35348568  1
  Bi  Bi2  1  0.25000000  0.37090465  0.85348568  1
  Bi  Bi3  1  0.75000000  0.62909535  0.14651432  1
  Bi  Bi4  1  0.25000000  0.66477839  0.97434529  1
  Bi  Bi5  1  0.75000000  0.33522161  0.02565471  1
  Bi  Bi6  1  0.25000000  0.16477839  0.52565471  1
  Bi  Bi7  1  0.75000000  0.83522161  0.47434529  1
  Bi  Bi8  1  0.75000000  0.64663373  0.80816493  1
  Bi  Bi9  1  0.25000000  0.35336627  0.19183507  1
  Bi  Bi10  1  0.75000000  0.14663373  0.69183507  1
  Bi  Bi11  1  0.25000000  0.85336627  0.30816493  1
  S  S0  1  0.25000000  0.71967037  0.52746280  1
  S  S1  1  0.75000000  0.28032963  0.47253720  1
  S  S2  1  0.25000000  0.21967037  0.97253720  1
  S  S3  1  0.75000000  0.78032963  0.02746280  1
  S  S4  1  0.25000000  0.01421981  0.74083522  1
  S  S5  1  0.75000000  0.98578019  0.25916478  1
  S  S6  1  0.25000000  0.51421981  0.75916478  1
  S  S7  1  0.75000000  0.48578019  0.24083522  1
  S  S8  1  0.25000000  0.98857780  0.41676982  1
  S  S9  1  0.75000000  0.01142220  0.58323018  1
  S  S10  1  0.25000000  0.48857780  0.08323018  1
  S  S11  1  0.75000000  0.51142220  0.91676982  1
  S  S12  1  0.25000000  0.74915069  0.19227107  1
  S  S13  1  0.75000000  0.25084931  0.80772893  1
  S  S14  1  0.25000000  0.24915069  0.30772893  1
  S  S15  1  0.75000000  0.75084931  0.69227107  1
  S  S16  1  0.75000000  0.72665687  0.36826144  1
  S  S17  1  0.25000000  0.27334313  0.63173856  1
  S  S18  1  0.75000000  0.22665687  0.13173856  1
  S  S19  1  0.25000000  0.77334313  0.86826144  1
loop_
_geom_bond_atom_site_label_1
_geom_bond_atom_site_label_2
_geom_bond_distance
_geom_bond_site_symmetry_2
Cs0 S13 3.472236 1_555
Cs0 S19 3.512713 1_545
Cs0 S19 3.512713 1_645
Cs0 S4 3.754753 1_655
Cs0 S4 3.754753 1_555
Cs0 S2 3.783713 1_655
Cs0 S2 3.783713 1_555
Cs0 S3 4.032814 1_546
Cs1 S12 3.472236 1_555
Cs1 S18 3.512713 1_465
Cs1 S18 3.512713 1_565
Cs1 S5 3.754753 1_455
Cs1 S5 3.754753 1_555
Cs1 S3 3.783713 1_455
Cs1 S3 3.783713 1_555
Cs1 S2 4.032814 1_564
Cs2 S15 3.472236 1_555
Cs2 S17 3.512713 1_555
Cs2 S17 3.512713 1_655
Cs2 S6 3.754753 1_555
Cs2 S6 3.754753 1_655
Cs2 S0 3.783713 1_555
Cs2 S0 3.783713 1_655
Cs2 S1 4.032814 1_555
Cs3 S14 3.472236 1_555
Cs3 S16 3.512713 1_555
Cs3 S16 3.512713 1_455
Cs3 S7 3.754753 1_455
Cs3 S7 3.754753 1_555
Cs3 S1 3.783713 1_455
Cs3 S1 3.783713 1_555
Cs3 S0 4.032814 1_555
Bi0 S4 2.666668 1_565
Bi0 S15 2.698575 1_455
Bi0 S15 2.698575 1_555
Bi0 S9 2.991233 1_565
Bi0 S9 2.991233 1_465
Bi0 S0 3.139430 1_555
Bi1 S5 2.666668 1_545
Bi1 S14 2.698575 1_555
Bi1 S14 2.698575 1_655
Bi1 S8 2.991233 1_645
Bi1 S8 2.991233 1_545
Bi1 S1 3.139430 1_555
Bi2 S6 2.666668 1_555
Bi2 S13 2.698575 1_555
Bi2 S13 2.698575 1_455
Bi2 S11 2.991233 1_455
Bi2 S11 2.991233 1_555
Bi2 S2 3.139430 1_555
Bi3 S7 2.666668 1_555
Bi3 S12 2.698575 1_555
Bi3 S12 2.698575 1_655
Bi3 S10 2.991233 1_555
Bi3 S10 2.991233 1_655
Bi3 S3 3.139430 1_555
Bi4 S19 2.621567 1_555
Bi4 S3 2.730217 1_556
Bi4 S3 2.730217 1_456
Bi4 S11 3.032885 1_455
Bi4 S11 3.032885 1_555
Bi4 S10 3.166424 1_556
Bi5 S18 2.621567 1_555
Bi5 S2 2.730217 1_554
Bi5 S2 2.730217 1_654
Bi5 S10 3.032885 1_655
Bi5 S10 3.032885 1_555
Bi5 S11 3.166424 1_554
Bi6 S17 2.621567 1_555
Bi6 S1 2.730217 1_455
Bi6 S1 2.730217 1_555
Bi6 S9 3.032885 1_455
Bi6 S9 3.032885 1_555
Bi6 S8 3.166424 1_545
Bi7 S16 2.621567 1_555
Bi7 S0 2.730217 1_555
Bi7 S0 2.730217 1_655
Bi7 S8 3.032885 1_655
Bi7 S8 3.032885 1_555
Bi7 S9 3.166424 1_565
Bi8 S15 2.779033 1_555
Bi8 S6 2.808638 1_655
Bi8 S6 2.808638 1_555
Bi8 S11 2.844253 1_555
Bi8 S19 2.866548 1_655
Bi8 S19 2.866548 1_555
Bi9 S14 2.779033 1_555
Bi9 S7 2.808638 1_555
Bi9 S7 2.808638 1_455
Bi9 S10 2.844253 1_555
Bi9 S18 2.866548 1_555
Bi9 S18 2.866548 1_455
Bi10 S13 2.779033 1_555
Bi10 S4 2.808638 1_555
Bi10 S4 2.808638 1_655
Bi10 S9 2.844253 1_555
Bi10 S17 2.866548 1_555
Bi10 S17 2.866548 1_655
Bi11 S12 2.779033 1_555
Bi11 S5 2.808638 1_455
Bi11 S5 2.808638 1_555
Bi11 S8 2.844253 1_555
Bi11 S16 2.866548 1_455
Bi11 S16 2.866548 1_555
