# generated using pymatgen
data_NdGeRh
_symmetry_space_group_name_H-M   'P 1'
_cell_length_a   4.48835084
_cell_length_b   7.31725266
_cell_length_c   7.25236263
_cell_angle_alpha   90.00000000
_cell_angle_beta   90.00000000
_cell_angle_gamma   90.00000000
_symmetry_Int_Tables_number   1
_chemical_formula_structural   NdGeRh
_chemical_formula_sum   'Nd4 Ge4 Rh4'
_cell_volume   238.18497357
_cell_formula_units_Z   4
loop_
 _symmetry_equiv_pos_site_id
 _symmetry_equiv_pos_as_xyz
  1  'x, y, z'
loop_
 _atom_site_type_symbol
 _atom_site_label
 _atom_site_symmetry_multiplicity
 _atom_site_fract_x
 _atom_site_fract_y
 _atom_site_fract_z
 _atom_site_occupancy
  Nd  Nd0  1  0.25000000  0.48218000  0.31656579  1
  Nd  Nd1  1  0.75000000  0.51782000  0.68343421  1
  Nd  Nd2  1  0.25000000  0.98218000  0.18343421  1
  Nd  Nd3  1  0.75000000  0.01782000  0.81656579  1
  Ge  Ge0  1  0.25000000  0.30207217  0.89339887  1
  Ge  Ge1  1  0.75000000  0.69792783  0.10660113  1
  Ge  Ge2  1  0.25000000  0.80207217  0.60660113  1
  Ge  Ge3  1  0.75000000  0.19792783  0.39339887  1
  Rh  Rh0  1  0.75000000  0.85524507  0.42857732  1
  Rh  Rh1  1  0.25000000  0.14475493  0.57142268  1
  Rh  Rh2  1  0.75000000  0.35524507  0.07142268  1
  Rh  Rh3  1  0.25000000  0.64475493  0.92857732  1
loop_
_geom_bond_atom_site_label_1
_geom_bond_atom_site_label_2
_geom_bond_distance
_geom_bond_site_symmetry_2
Nd0 Rh2 3.009955 1_455
Nd0 Rh2 3.009955 1_555
Nd0 Rh3 3.054965 1_554
Nd0 Rh1 3.084210 1_555
Nd1 Rh3 3.009955 1_655
Nd1 Rh3 3.009955 1_555
Nd1 Rh2 3.054965 1_556
Nd1 Rh0 3.084210 1_555
Nd2 Rh0 3.009955 1_555
Nd2 Rh0 3.009955 1_455
Nd2 Rh1 3.054965 1_565
Nd2 Rh3 3.084210 1_554
Nd3 Rh1 3.009955 1_655
Nd3 Rh1 3.009955 1_555
Nd3 Rh0 3.054965 1_545
Nd3 Rh2 3.084210 1_556
Ge0 Rh3 2.520442 1_555
Ge0 Rh1 2.603409 1_555
Ge0 Rh2 2.618134 1_456
Ge0 Rh2 2.618134 1_556
Ge0 Nd3 3.110143 1_455
Ge0 Nd3 3.110143 1_555
Ge0 Nd1 3.138040 1_555
Ge0 Nd1 3.138040 1_455
Ge0 Nd2 3.146981 1_546
Ge0 Nd0 3.339964 1_556
Ge1 Rh2 2.520442 1_555
Ge1 Rh0 2.603409 1_555
Ge1 Rh3 2.618134 1_654
Ge1 Rh3 2.618134 1_554
Ge1 Nd2 3.110143 1_555
Ge1 Nd2 3.110143 1_655
Ge1 Nd0 3.138040 1_555
Ge1 Nd0 3.138040 1_655
Ge1 Nd3 3.146981 1_564
Ge1 Nd1 3.339964 1_554
Ge2 Rh1 2.520442 1_565
Ge2 Rh3 2.603409 1_555
Ge2 Rh0 2.618134 1_555
Ge2 Rh0 2.618134 1_455
Ge2 Nd1 3.110143 1_555
Ge2 Nd1 3.110143 1_455
Ge2 Nd3 3.138040 1_465
Ge2 Nd3 3.138040 1_565
Ge2 Nd0 3.146981 1_555
Ge2 Nd2 3.339964 1_555
Ge3 Rh0 2.520442 1_545
Ge3 Rh2 2.603409 1_555
Ge3 Rh1 2.618134 1_655
Ge3 Rh1 2.618134 1_555
Ge3 Nd0 3.110143 1_555
Ge3 Nd0 3.110143 1_655
Ge3 Nd2 3.138040 1_645
Ge3 Nd2 3.138040 1_545
Ge3 Nd1 3.146981 1_555
Ge3 Nd3 3.339964 1_555
