# generated using pymatgen
data_MgFeHO2
_symmetry_space_group_name_H-M   'P 1'
_cell_length_a   3.04732252
_cell_length_b   3.05055907
_cell_length_c   6.21815447
_cell_angle_alpha   89.84561391
_cell_angle_beta   89.95075629
_cell_angle_gamma   120.02918533
_symmetry_Int_Tables_number   1
_chemical_formula_structural   MgFeHO2
_chemical_formula_sum   'Mg1 Fe1 H1 O2'
_cell_volume   50.04482925
_cell_formula_units_Z   1
loop_
 _symmetry_equiv_pos_site_id
 _symmetry_equiv_pos_as_xyz
  1  'x, y, z'
loop_
 _atom_site_type_symbol
 _atom_site_label
 _atom_site_symmetry_multiplicity
 _atom_site_fract_x
 _atom_site_fract_y
 _atom_site_fract_z
 _atom_site_occupancy
  Mg  Mg0  1  0.33092836  0.66492634  0.58205075  1
  Fe  Fe0  1  0.00233438  0.00114224  0.03157598  1
  H  H0  1  0.66350554  0.33110098  0.45732341  1
  O  O0  1  0.33424288  0.66661092  0.17632354  1
  O  O1  1  0.66882084  0.33618652  0.82592033  1
loop_
_geom_bond_atom_site_label_1
_geom_bond_atom_site_label_2
_geom_bond_distance
_geom_bond_site_symmetry_2
Mg0 O1 2.310308 1_455
Mg0 O1 2.322374 1_555
Mg0 O1 2.337088 1_565
Mg0 O0 2.522867 1_555
Fe0 O0 1.975916 1_545
Fe0 O0 1.977075 1_445
Fe0 O0 1.977513 1_555
Fe0 O1 2.171577 1_554
Fe0 O1 2.176188 1_444
Fe0 O1 2.178929 1_454
H0 Mg0 1.920222 1_545
H0 Mg0 1.923946 1_555
H0 Mg0 1.925896 1_655
