# generated using pymatgen
data_Ba2TmMgRuO6
_symmetry_space_group_name_H-M   'P 1'
_cell_length_a   6.53719105
_cell_length_b   6.51896600
_cell_length_c   6.53719151
_cell_angle_alpha   54.02231048
_cell_angle_beta   53.99347733
_cell_angle_gamma   54.02231414
_symmetry_Int_Tables_number   1
_chemical_formula_structural   Ba2TmMgRuO6
_chemical_formula_sum   'Ba2 Tm1 Mg1 Ru1 O6'
_cell_volume   169.44323227
_cell_formula_units_Z   1
loop_
 _symmetry_equiv_pos_site_id
 _symmetry_equiv_pos_as_xyz
  1  'x, y, z'
loop_
 _atom_site_type_symbol
 _atom_site_label
 _atom_site_symmetry_multiplicity
 _atom_site_fract_x
 _atom_site_fract_y
 _atom_site_fract_z
 _atom_site_occupancy
  Ba  Ba0  1  0.70083729  0.69994225  0.70083729  1
  Ba  Ba1  1  0.24260865  0.24168490  0.24260865  1
  Tm  Tm0  1  0.49269524  0.49222058  0.49269524  1
  Mg  Mg0  1  0.87342351  0.86699292  0.87342351  1
  Ru  Ru0  1  0.02068269  0.02008575  0.02068269  1
  O  O0  1  0.25394094  0.75722188  0.76052047  1
  O  O1  1  0.24816168  0.77911685  0.24816168  1
  O  O2  1  0.75955746  0.24971976  0.75955746  1
  O  O3  1  0.24605016  0.25018812  0.77652192  1
  O  O4  1  0.77652192  0.25018812  0.24605016  1
  O  O5  1  0.76052047  0.75722188  0.25394094  1
loop_
_geom_bond_atom_site_label_1
_geom_bond_atom_site_label_2
_geom_bond_distance
_geom_bond_site_symmetry_2
Ba0 O0 2.525034 1_555
Ba0 O5 2.525035 1_555
Ba0 O2 2.536657 1_555
Ba0 Mg0 2.848770 1_555
Ba0 O3 3.104068 1_655
Ba0 O4 3.104068 1_556
Ba0 O1 3.122750 1_655
Ba0 O1 3.122750 1_556
Ba0 O4 3.126701 1_565
Ba0 O3 3.126702 1_565
Ba1 O0 2.967473 1_554
Ba1 O5 2.967474 1_455
Ba1 O1 2.973211 1_545
Ba1 O2 2.976805 1_554
Ba1 O2 2.976806 1_455
Ba1 O0 2.983176 1_545
Ba1 O5 2.983176 1_545
Ba1 O4 3.001598 1_455
Ba1 O3 3.001599 1_554
Mg0 O0 1.901320 1_655
Mg0 O5 1.901320 1_556
Mg0 O2 1.902739 1_565
O0 Ru0 2.336458 1_566
O0 Tm0 2.378783 1_555
O1 Ru0 2.000285 1_565
O1 Tm0 2.141892 1_555
O2 Ru0 2.343087 1_656
O2 Tm0 2.384015 1_555
O3 Ru0 1.996719 1_556
O3 Tm0 2.136300 1_555
O4 Ru0 1.996720 1_655
O4 Tm0 2.136300 1_555
O5 Ru0 2.336458 1_665
O5 Tm0 2.378783 1_555
