# generated using pymatgen
data_Li4Co5(P3O11)2
_symmetry_space_group_name_H-M   'P 1'
_cell_length_a   6.55399200
_cell_length_b   10.59413900
_cell_length_c   12.65236134
_cell_angle_alpha   76.42525556
_cell_angle_beta   90.00000000
_cell_angle_gamma   90.00000000
_symmetry_Int_Tables_number   1
_chemical_formula_structural   Li4Co5(P3O11)2
_chemical_formula_sum   'Li8 Co10 P12 O44'
_cell_volume   853.96145362
_cell_formula_units_Z   2
loop_
 _symmetry_equiv_pos_site_id
 _symmetry_equiv_pos_as_xyz
  1  'x, y, z'
loop_
 _atom_site_type_symbol
 _atom_site_label
 _atom_site_symmetry_multiplicity
 _atom_site_fract_x
 _atom_site_fract_y
 _atom_site_fract_z
 _atom_site_occupancy
  Li  Li0  1  0.36855100  0.06278800  0.81340500  1
  Li  Li1  1  0.46536900  0.12013400  0.33807700  1
  Li  Li2  1  0.53463100  0.87986600  0.66192300  1
  Li  Li3  1  0.86855100  0.43721200  0.18659500  1
  Li  Li4  1  0.03463100  0.62013400  0.33807700  1
  Li  Li5  1  0.13144900  0.56278800  0.81340500  1
  Li  Li6  1  0.63144900  0.93721200  0.18659500  1
  Li  Li7  1  0.96536900  0.37986600  0.66192300  1
  Co  Co0  1  0.48873600  0.69475100  0.34143600  1
  Co  Co1  1  0.25802500  0.71756600  0.13352200  1
  Co  Co2  1  0.24197500  0.21756600  0.13352200  1
  Co  Co3  1  0.98873600  0.80524900  0.65856400  1
  Co  Co4  1  0.51126400  0.30524900  0.65856400  1
  Co  Co5  1  0.50000000  0.50000000  0.00000000  1
  Co  Co6  1  0.75802500  0.78243400  0.86647800  1
  Co  Co7  1  0.74197500  0.28243400  0.86647800  1
  Co  Co8  1  0.01126400  0.19475100  0.34143600  1
  Co  Co9  1  0.00000000  0.00000000  0.00000000  1
  P  P0  1  0.26537700  0.77837600  0.91191600  1
  P  P1  1  0.77343200  0.91987900  0.41986200  1
  P  P2  1  0.09831600  0.92936500  0.26433400  1
  P  P3  1  0.76537700  0.72162400  0.08808400  1
  P  P4  1  0.22656800  0.08012100  0.58013800  1
  P  P5  1  0.23462300  0.27837600  0.91191600  1
  P  P6  1  0.27343200  0.58012100  0.58013800  1
  P  P7  1  0.59831600  0.57063500  0.73566600  1
  P  P8  1  0.40168400  0.42936500  0.26433400  1
  P  P9  1  0.73462300  0.22162400  0.08808400  1
  P  P10  1  0.90168400  0.07063500  0.73566600  1
  P  P11  1  0.72656800  0.41987900  0.41986200  1
  O  O0  1  0.56616400  0.44978000  0.17781100  1
  O  O1  1  0.20337200  0.05748500  0.27209900  1
  O  O2  1  0.91704800  0.24525400  0.16055300  1
  O  O3  1  0.27718400  0.36829300  0.99158200  1
  O  O4  1  0.19560500  0.14659000  0.99689900  1
  O  O5  1  0.77718400  0.13170700  0.00841800  1
  O  O6  1  0.80439500  0.85341000  0.00310100  1
  O  O7  1  0.73054500  0.56994600  0.38873800  1
  O  O8  1  0.55117000  0.16515400  0.16144100  1
  O  O9  1  0.99343300  0.87239300  0.38202700  1
  O  O10  1  0.44883000  0.83484600  0.83855900  1
  O  O11  1  0.75170800  0.67639400  0.74689000  1
  O  O12  1  0.39108600  0.12982400  0.64680700  1
  O  O13  1  0.29662800  0.55748500  0.27209900  1
  O  O14  1  0.93383600  0.94978000  0.17781100  1
  O  O15  1  0.30439500  0.64659000  0.99689900  1
  O  O16  1  0.89108600  0.37017600  0.35319300  1
  O  O17  1  0.26945500  0.43005400  0.61126200  1
  O  O18  1  0.05117000  0.33484600  0.83855900  1
  O  O19  1  0.26373500  0.63993500  0.45872700  1
  O  O20  1  0.22281600  0.86829300  0.99158200  1
  O  O21  1  0.94883000  0.66515400  0.16144100  1
  O  O22  1  0.49343300  0.62760700  0.61797300  1
  O  O23  1  0.10891400  0.62982400  0.64680700  1
  O  O24  1  0.50656700  0.37239300  0.38202700  1
  O  O25  1  0.72281600  0.63170700  0.00841800  1
  O  O26  1  0.23626500  0.13993500  0.45872700  1
  O  O27  1  0.60891400  0.87017600  0.35319300  1
  O  O28  1  0.70337200  0.44251500  0.72790100  1
  O  O29  1  0.25170800  0.82360600  0.25311000  1
  O  O30  1  0.74829200  0.17639400  0.74689000  1
  O  O31  1  0.23054500  0.93005400  0.61126200  1
  O  O32  1  0.00656700  0.12760700  0.61797300  1
  O  O33  1  0.73626500  0.36006500  0.54127300  1
  O  O34  1  0.24829200  0.32360600  0.25311000  1
  O  O35  1  0.41704800  0.25474600  0.83944700  1
  O  O36  1  0.06616400  0.05022000  0.82218900  1
  O  O37  1  0.08295200  0.75474600  0.83944700  1
  O  O38  1  0.76373500  0.86006500  0.54127300  1
  O  O39  1  0.43383600  0.55022000  0.82218900  1
  O  O40  1  0.79662800  0.94251500  0.72790100  1
  O  O41  1  0.58295200  0.74525400  0.16055300  1
  O  O42  1  0.76945500  0.06994600  0.38873800  1
  O  O43  1  0.69560500  0.35341000  0.00310100  1
loop_
_geom_bond_atom_site_label_1
_geom_bond_atom_site_label_2
_geom_bond_distance
_geom_bond_site_symmetry_2
Li0 O36 1.987670 1_555
Li0 O12 2.065557 1_555
Li0 O35 2.158655 1_555
Li0 O10 2.418438 1_545
Li1 O1 2.084701 1_555
Li1 O42 2.122624 1_555
Li1 O26 2.186136 1_555
Li1 O8 2.244537 1_555
Li2 O40 2.084701 1_555
Li2 O31 2.122624 1_555
Li2 O38 2.186136 1_555
Li2 O10 2.244537 1_555
Li3 O0 1.987670 1_555
Li3 O16 2.065557 1_555
Li3 O2 2.158655 1_555
Li3 O21 2.418438 1_555
Li4 O13 2.084701 1_555
Li4 O7 2.122624 1_455
Li4 O19 2.186136 1_555
Li4 O21 2.244537 1_455
Li5 O39 1.987670 1_555
Li5 O23 2.065557 1_555
Li5 O37 2.158655 1_555
Li5 O18 2.418438 1_555
Li6 O14 1.987670 1_555
Li6 O27 2.065557 1_555
Li6 O41 2.158655 1_555
Li6 O8 2.418438 1_565
Li7 O28 2.084701 1_555
Li7 O17 2.122624 1_655
Li7 O33 2.186136 1_555
Li7 O18 2.244537 1_655
Co0 O27 2.055779 1_555
Co0 O7 2.060721 1_555
Co0 O19 2.075952 1_555
Co0 O29 2.193071 1_555
Co0 O13 2.251332 1_555
Co0 O41 2.308772 1_555
Co1 O15 2.063004 1_554
Co1 O29 2.085919 1_555
Co1 O21 2.108925 1_455
Co1 O20 2.117095 1_554
Co1 O13 2.149062 1_555
Co1 O41 2.187503 1_555
Co2 O4 2.063004 1_554
Co2 O34 2.085919 1_555
Co2 O8 2.108925 1_555
Co2 O3 2.117095 1_554
Co2 O1 2.149062 1_555
Co2 O2 2.187503 1_455
Co3 O23 2.055779 1_655
Co3 O31 2.060721 1_655
Co3 O38 2.075952 1_555
Co3 O11 2.193071 1_555
Co3 O40 2.251332 1_555
Co3 O37 2.308772 1_655
Co4 O12 2.055779 1_555
Co4 O17 2.060721 1_555
Co4 O33 2.075952 1_555
Co4 O30 2.193071 1_555
Co4 O28 2.251332 1_555
Co4 O35 2.308772 1_555
Co5 O43 2.007047 1_555
Co5 O15 2.007047 1_554
Co5 O25 2.039757 1_555
Co5 O3 2.039757 1_554
Co5 O0 2.229464 1_555
Co5 O39 2.229464 1_554
Co6 O6 2.063004 1_556
Co6 O11 2.085919 1_555
Co6 O10 2.108925 1_555
Co6 O25 2.117095 1_556
Co6 O40 2.149062 1_555
Co6 O37 2.187503 1_655
Co7 O43 2.063004 1_556
Co7 O30 2.085919 1_555
Co7 O18 2.108925 1_655
Co7 O5 2.117095 1_556
Co7 O28 2.149062 1_555
Co7 O35 2.187503 1_555
Co8 O16 2.055779 1_455
Co8 O42 2.060721 1_455
Co8 O26 2.075952 1_555
Co8 O34 2.193071 1_555
Co8 O1 2.251332 1_555
Co8 O2 2.308772 1_455
Co9 O6 2.007047 1_445
Co9 O4 2.007047 1_554
Co9 O5 2.039757 1_455
Co9 O20 2.039757 1_544
Co9 O14 2.229464 1_445
Co9 O36 2.229464 1_554
O0 P8 1.515299 1_555
O1 P2 1.545527 1_545
O2 P9 1.562249 1_555
O3 P5 1.565876 1_555
O4 P5 1.570377 1_555
O5 P9 1.565876 1_555
O6 P3 1.570377 1_555
O7 P11 1.545776 1_555
O8 P9 1.550592 1_555
O9 P2 1.622440 1_655
O9 P1 1.635334 1_555
O10 P0 1.550592 1_555
O11 P7 1.536522 1_555
O12 P4 1.536202 1_555
O13 P8 1.545527 1_555
O14 P2 1.515299 1_655
O15 P0 1.570377 1_555
O16 P11 1.536202 1_555
O17 P6 1.545776 1_555
O18 P5 1.550592 1_555
O19 P6 1.519326 1_555
O20 P0 1.565876 1_555
O21 P3 1.550592 1_555
O22 P7 1.622440 1_555
O22 P6 1.635334 1_555
O23 P6 1.536202 1_555
O24 P8 1.622440 1_555
O24 P11 1.635334 1_555
O25 P3 1.565876 1_555
O26 P4 1.519326 1_555
O27 P1 1.536202 1_555
O28 P7 1.545527 1_555
O29 P2 1.536522 1_555
O30 P10 1.536522 1_555
O31 P4 1.545776 1_565
O32 P10 1.622440 1_455
O32 P4 1.635334 1_555
O33 P11 1.519326 1_555
O34 P8 1.536522 1_555
O35 P5 1.562249 1_555
O36 P10 1.515299 1_455
O37 P0 1.562249 1_555
O38 P1 1.519326 1_555
O39 P7 1.515299 1_555
O40 P10 1.545527 1_565
O41 P3 1.562249 1_555
O42 P1 1.545776 1_545
O43 P9 1.570377 1_555
