# generated using pymatgen
data_MgVS2
_symmetry_space_group_name_H-M   'P 1'
_cell_length_a   6.13338281
_cell_length_b   7.22883743
_cell_length_c   7.22883926
_cell_angle_alpha   48.80377629
_cell_angle_beta   38.20899440
_cell_angle_gamma   38.20897135
_symmetry_Int_Tables_number   1
_chemical_formula_structural   MgVS2
_chemical_formula_sum   'Mg1 V1 S2'
_cell_volume   121.90605337
_cell_formula_units_Z   1
loop_
 _symmetry_equiv_pos_site_id
 _symmetry_equiv_pos_as_xyz
  1  'x, y, z'
loop_
 _atom_site_type_symbol
 _atom_site_label
 _atom_site_symmetry_multiplicity
 _atom_site_fract_x
 _atom_site_fract_y
 _atom_site_fract_z
 _atom_site_occupancy
  Mg  Mg0  1  -0.00000000  0.50000000  0.50000000  1
  V  V0  1  -0.00000000  0.00000000  0.00000000  1
  S  S0  1  0.66556897  0.79514396  0.79514398  1
  S  S1  1  0.33443103  0.20485604  0.20485602  1
loop_
_geom_bond_atom_site_label_1
_geom_bond_atom_site_label_2
_geom_bond_distance
_geom_bond_site_symmetry_2
Mg0 S0 2.356437 1_455
Mg0 S1 2.356437 1_555
S0 V0 2.222319 1_566
S1 V0 2.222319 1_655
