# generated using pymatgen
data_MgV4O10
_symmetry_space_group_name_H-M   'P 1'
_cell_length_a   5.39233173
_cell_length_b   12.13878866
_cell_length_c   3.23524750
_cell_angle_alpha   90.00000000
_cell_angle_beta   90.00000000
_cell_angle_gamma   91.08403590
_symmetry_Int_Tables_number   1
_chemical_formula_structural   MgV4O10
_chemical_formula_sum   'Mg1 V4 O10'
_cell_volume   211.72967271
_cell_formula_units_Z   1
loop_
 _symmetry_equiv_pos_site_id
 _symmetry_equiv_pos_as_xyz
  1  'x, y, z'
loop_
 _atom_site_type_symbol
 _atom_site_label
 _atom_site_symmetry_multiplicity
 _atom_site_fract_x
 _atom_site_fract_y
 _atom_site_fract_z
 _atom_site_occupancy
  Mg  Mg0  1  0.65274450  0.12323007  0.00000000  1
  V  V0  1  0.65261248  0.38803374  -0.00000000  1
  V  V1  1  0.30907018  0.64117470  -0.00000000  1
  V  V2  1  0.16308305  0.11309723  -0.00000000  1
  V  V3  1  0.81366313  0.84416456  -0.00000000  1
  O  O0  1  0.80588906  0.40295866  0.50000000  1
  O  O1  1  0.17225782  0.61257986  0.50000000  1
  O  O2  1  0.38313797  0.09307596  0.50000000  1
  O  O3  1  0.68129683  0.87709500  0.50000000  1
  O  O4  1  0.96444957  0.22081980  -0.00000000  1
  O  O5  1  0.08685698  0.77915153  -0.00000000  1
  O  O6  1  0.47777664  0.27015433  -0.00000000  1
  O  O7  1  0.58189819  0.71241505  -0.00000000  1
  O  O8  1  0.45075163  0.49414403  -0.00000000  1
  O  O9  1  0.92951197  0.00568347  -0.00000000  1
loop_
_geom_bond_atom_site_label_1
_geom_bond_atom_site_label_2
_geom_bond_distance
_geom_bond_site_symmetry_2
Mg0 O6 2.033382 1_555
Mg0 O4 2.037924 1_555
Mg0 O9 2.084194 1_555
Mg0 O2 2.200934 1_554
Mg0 O2 2.200934 1_555
O0 V0 1.824005 1_556
O0 V0 1.824005 1_555
O1 V1 1.808800 1_555
O1 V1 1.808800 1_556
O2 V2 2.023543 1_556
O2 V2 2.023543 1_555
O3 V3 1.815695 1_556
O3 V3 1.815695 1_555
O4 V2 1.705907 1_655
O5 V3 1.684331 1_455
O5 V1 2.077722 1_555
O6 V0 1.698614 1_555
O7 V1 1.692353 1_555
O7 V3 2.010958 1_555
O8 V0 1.702045 1_555
O8 V1 1.954661 1_555
O9 V2 1.795625 1_655
O9 V3 2.046466 1_545
