# generated using pymatgen
data_SrBe3O4
_symmetry_space_group_name_H-M   'P 1'
_cell_length_a   4.59169906
_cell_length_b   4.59169851
_cell_length_c   8.92258475
_cell_angle_alpha   90.00000000
_cell_angle_beta   90.00000000
_cell_angle_gamma   120.00000395
_symmetry_Int_Tables_number   1
_chemical_formula_structural   SrBe3O4
_chemical_formula_sum   'Sr2 Be6 O8'
_cell_volume   162.91762775
_cell_formula_units_Z   2
loop_
 _symmetry_equiv_pos_site_id
 _symmetry_equiv_pos_as_xyz
  1  'x, y, z'
loop_
 _atom_site_type_symbol
 _atom_site_label
 _atom_site_symmetry_multiplicity
 _atom_site_fract_x
 _atom_site_fract_y
 _atom_site_fract_z
 _atom_site_occupancy
  Sr  Sr0  1  0.66666700  0.33333300  0.75000000  1
  Sr  Sr1  1  0.33333300  0.66666700  0.25000000  1
  Be  Be0  1  -0.00000000  -0.00000000  -0.00000000  1
  Be  Be1  1  -0.00000000  -0.00000000  0.50000000  1
  Be  Be2  1  0.33333300  0.66666700  0.57116629  1
  Be  Be3  1  0.33333300  0.66666700  0.92883371  1
  Be  Be4  1  0.66666700  0.33333300  0.42883371  1
  Be  Be5  1  0.66666700  0.33333300  0.07116629  1
  O  O0  1  0.66509397  -0.00000000  0.50000000  1
  O  O1  1  0.33490603  0.33490603  -0.00000000  1
  O  O2  1  0.66666700  0.33333300  0.25000000  1
  O  O3  1  0.33333300  0.66666700  0.75000000  1
  O  O4  1  0.66509397  -0.00000000  -0.00000000  1
  O  O5  1  0.33490603  0.33490603  0.50000000  1
  O  O6  1  -0.00000000  0.66509397  0.50000000  1
  O  O7  1  -0.00000000  0.66509397  -0.00000000  1
loop_
_geom_bond_atom_site_label_1
_geom_bond_atom_site_label_2
_geom_bond_distance
_geom_bond_site_symmetry_2
Be0 O7 1.537788 1_545
Be0 O1 1.537788 1_555
Be0 O4 1.537788 1_455
Be1 O6 1.537788 1_545
Be1 O5 1.537788 1_555
Be1 O0 1.537788 1_455
Be2 O3 1.595659 1_555
Be2 O6 1.653734 1_555
Be2 O0 1.653735 1_565
Be2 O5 1.653738 1_555
Be3 O3 1.595659 1_555
Be3 O7 1.653734 1_556
Be3 O4 1.653735 1_566
Be3 O1 1.653738 1_556
Be4 O2 1.595659 1_555
Be4 O0 1.653733 1_555
Be4 O6 1.653735 1_655
Be4 O5 1.653738 1_555
Be5 O2 1.595659 1_555
Be5 O4 1.653733 1_555
Be5 O7 1.653735 1_655
Be5 O1 1.653738 1_555
O0 Sr0 2.703222 1_555
O0 Sr1 2.703223 1_545
O1 Sr1 2.703224 1_555
O1 Sr0 2.703224 1_554
O2 Sr1 2.651016 1_545
O2 Sr1 2.651016 1_655
O2 Sr1 2.651024 1_555
O3 Sr0 2.651016 1_565
O3 Sr0 2.651016 1_455
O3 Sr0 2.651024 1_555
O4 Sr0 2.703222 1_554
O4 Sr1 2.703223 1_545
O5 Sr1 2.703224 1_555
O5 Sr0 2.703224 1_555
O6 Sr1 2.703222 1_555
O6 Sr0 2.703223 1_455
O7 Sr1 2.703222 1_555
O7 Sr0 2.703223 1_454
