# generated using pymatgen
data_H4SO5
_symmetry_space_group_name_H-M   'P 1'
_cell_length_a   6.94261559
_cell_length_b   7.09939745
_cell_length_c   8.01862810
_cell_angle_alpha   72.67283976
_cell_angle_beta   90.00000000
_cell_angle_gamma   90.00000000
_symmetry_Int_Tables_number   1
_chemical_formula_structural   H4SO5
_chemical_formula_sum   'H16 S4 O20'
_cell_volume   377.28981846
_cell_formula_units_Z   4
loop_
 _symmetry_equiv_pos_site_id
 _symmetry_equiv_pos_as_xyz
  1  'x, y, z'
loop_
 _atom_site_type_symbol
 _atom_site_label
 _atom_site_symmetry_multiplicity
 _atom_site_fract_x
 _atom_site_fract_y
 _atom_site_fract_z
 _atom_site_occupancy
  H  H0  1  0.33634629  0.77031549  0.29248456  1
  H  H1  1  0.83634629  0.22968451  0.20751544  1
  H  H2  1  0.66365371  0.22968451  0.70751544  1
  H  H3  1  0.16365371  0.77031549  0.79248456  1
  H  H4  1  0.88023858  0.27775674  0.77936491  1
  H  H5  1  0.38023858  0.72224326  0.72063509  1
  H  H6  1  0.19684637  0.59215987  0.41512560  1
  H  H7  1  0.69684637  0.40784013  0.08487440  1
  H  H8  1  0.80315363  0.40784013  0.58487440  1
  H  H9  1  0.30315363  0.59215987  0.91512560  1
  H  H10  1  0.81382570  0.89916317  0.60757984  1
  H  H11  1  0.31382570  0.10083683  0.89242016  1
  H  H12  1  0.18617430  0.10083683  0.39242016  1
  H  H13  1  0.68617430  0.89916317  0.10757984  1
  H  H14  1  0.11976142  0.72224326  0.22063509  1
  H  H15  1  0.61976142  0.27775674  0.27936491  1
  S  S0  1  0.65390942  0.74924633  0.45854275  1
  S  S1  1  0.15390942  0.25075367  0.04145725  1
  S  S2  1  0.34609058  0.25075367  0.54145725  1
  S  S3  1  0.84609058  0.74924633  0.95854275  1
  O  O0  1  0.51039954  0.66052760  0.58952344  1
  O  O1  1  0.76279159  0.93661415  0.99553895  1
  O  O2  1  0.23720841  0.06338585  0.00446105  1
  O  O3  1  0.73720841  0.93661415  0.49553895  1
  O  O4  1  0.29962704  0.72759382  0.82399108  1
  O  O5  1  0.79962704  0.27240618  0.67600892  1
  O  O6  1  0.70037296  0.27240618  0.17600892  1
  O  O7  1  0.20037296  0.72759382  0.32399108  1
  O  O8  1  0.48960046  0.33947240  0.41047656  1
  O  O9  1  0.98960046  0.66052760  0.08952344  1
  O  O10  1  0.81350594  0.61707065  0.45893256  1
  O  O11  1  0.31350594  0.38292935  0.04106744  1
  O  O12  1  0.18649406  0.38292935  0.54106744  1
  O  O13  1  0.68649406  0.61707065  0.95893256  1
  O  O14  1  0.56558497  0.82908527  0.28514980  1
  O  O15  1  0.06558497  0.17091473  0.21485020  1
  O  O16  1  0.43441503  0.17091473  0.71485020  1
  O  O17  1  0.93441503  0.82908527  0.78514980  1
  O  O18  1  0.26279159  0.06338585  0.50446105  1
  O  O19  1  0.01039954  0.33947240  0.91047656  1
loop_
_geom_bond_atom_site_label_1
_geom_bond_atom_site_label_2
_geom_bond_distance
_geom_bond_site_symmetry_2
H0 O7 1.000665 1_555
H0 O14 1.641903 1_555
H1 O6 1.000665 1_555
H1 O15 1.641903 1_655
H2 O5 1.000665 1_555
H2 O16 1.641903 1_555
H3 O4 1.000665 1_555
H3 O17 1.641903 1_455
H4 O5 1.010086 1_555
H4 O19 1.545398 1_655
H5 O4 1.010086 1_555
H5 O0 1.545398 1_555
H6 O7 1.020089 1_555
H6 O12 1.529031 1_555
H7 O6 1.020089 1_555
H7 O13 1.529031 1_554
H8 O5 1.020089 1_555
H8 O10 1.529031 1_555
H9 O4 1.020089 1_555
H9 O11 1.529031 1_556
H10 O3 1.009207 1_555
H10 O17 1.598084 1_555
H11 O2 1.009207 1_556
H11 O16 1.598084 1_555
H12 O18 1.009207 1_555
H12 O15 1.598084 1_555
H13 O1 1.009207 1_554
H13 O14 1.598084 1_555
H14 O7 1.010086 1_555
H14 O9 1.545398 1_455
H15 O6 1.010086 1_555
H15 O8 1.545398 1_555
O0 S0 1.448604 1_555
O1 S3 1.557862 1_555
O2 S1 1.557862 1_555
O3 S0 1.557862 1_555
O8 S2 1.448604 1_555
O9 S3 1.448604 1_554
O10 S0 1.451378 1_555
O11 S1 1.451378 1_555
O12 S2 1.451378 1_555
O13 S3 1.451378 1_555
O14 S0 1.470036 1_555
O15 S1 1.470036 1_555
O16 S2 1.470036 1_555
O17 S3 1.470036 1_555
O18 S2 1.557862 1_555
O19 S1 1.448604 1_556
