# generated using pymatgen
data_MgCrSbO4
_symmetry_space_group_name_H-M   'P 1'
_cell_length_a   5.58219967
_cell_length_b   9.93018918
_cell_length_c   9.40774274
_cell_angle_alpha   18.54336388
_cell_angle_beta   35.33477269
_cell_angle_gamma   39.34853453
_symmetry_Int_Tables_number   1
_chemical_formula_structural   MgCrSbO4
_chemical_formula_sum   'Mg1 Cr1 Sb1 O4'
_cell_volume   95.91767613
_cell_formula_units_Z   1
loop_
 _symmetry_equiv_pos_site_id
 _symmetry_equiv_pos_as_xyz
  1  'x, y, z'
loop_
 _atom_site_type_symbol
 _atom_site_label
 _atom_site_symmetry_multiplicity
 _atom_site_fract_x
 _atom_site_fract_y
 _atom_site_fract_z
 _atom_site_occupancy
  Mg  Mg0  1  0.00040811  -0.00004292  -0.00018909  1
  Cr  Cr0  1  0.49963654  0.00009067  0.49989625  1
  Sb  Sb0  1  0.49980728  0.49995146  0.50025235  1
  O  O0  1  0.43195492  -0.00103082  0.18100338  1
  O  O1  1  0.15575103  0.49929570  0.26344304  1
  O  O2  1  0.56839621  0.00089270  0.81921959  1
  O  O3  1  0.84404592  0.50084220  0.73637447  1
loop_
_geom_bond_atom_site_label_1
_geom_bond_atom_site_label_2
_geom_bond_distance
_geom_bond_site_symmetry_2
Mg0 O2 2.041112 1_554
Mg0 O0 2.041127 1_455
Mg0 O3 2.245789 1_445
Mg0 O1 2.246018 1_554
Mg0 O1 2.254119 1_545
Mg0 O3 2.254882 1_454
Cr0 O3 2.131910 1_554
Cr0 O1 2.132066 1_546
Cr0 O1 2.132446 1_555
Cr0 O3 2.132487 1_545
O0 Sb0 2.109876 1_554
O0 Sb0 2.109988 1_545
O1 Sb0 2.247620 1_455
O2 Sb0 2.109819 1_546
O2 Sb0 2.110126 1_555
O3 Sb0 2.248216 1_655
