# generated using pymatgen
data_VF4
_symmetry_space_group_name_H-M   'P 1'
_cell_length_a   7.67703988
_cell_length_b   7.97214663
_cell_length_c   9.10739056
_cell_angle_alpha   90.00000000
_cell_angle_beta   90.00000000
_cell_angle_gamma   90.00000000
_symmetry_Int_Tables_number   1
_chemical_formula_structural   VF4
_chemical_formula_sum   'V8 F32'
_cell_volume   557.39495789
_cell_formula_units_Z   8
loop_
 _symmetry_equiv_pos_site_id
 _symmetry_equiv_pos_as_xyz
  1  'x, y, z'
loop_
 _atom_site_type_symbol
 _atom_site_label
 _atom_site_symmetry_multiplicity
 _atom_site_fract_x
 _atom_site_fract_y
 _atom_site_fract_z
 _atom_site_occupancy
  V  V0  1  0.12500884  0.05188959  0.24890271  1
  V  V1  1  0.12500884  0.44811041  0.24890271  1
  V  V2  1  0.37499116  0.55188959  0.74890271  1
  V  V3  1  0.37499116  0.94811041  0.74890271  1
  V  V4  1  0.62500884  0.05188959  0.25109729  1
  V  V5  1  0.62500884  0.44811041  0.25109729  1
  V  V6  1  0.87499116  0.55188959  0.75109729  1
  V  V7  1  0.87499116  0.94811041  0.75109729  1
  F  F0  1  0.12497092  0.93803101  0.76127893  1
  F  F1  1  0.12497092  0.56196899  0.76127893  1
  F  F2  1  0.11543355  0.57414390  0.40253031  1
  F  F3  1  0.11543355  0.92585610  0.40253031  1
  F  F4  1  0.11667306  0.25000000  0.37708808  1
  F  F5  1  0.13330769  0.25000000  0.12045690  1
  F  F6  1  0.13496664  0.57125724  0.09319977  1
  F  F7  1  0.13496664  0.92874276  0.09319977  1
  F  F8  1  0.36503336  0.07125724  0.59319977  1
  F  F9  1  0.36503336  0.42874276  0.59319977  1
  F  F10  1  0.36669231  0.75000000  0.62045690  1
  F  F11  1  0.38332694  0.75000000  0.87708808  1
  F  F12  1  0.38456645  0.07414390  0.90253031  1
  F  F13  1  0.38456645  0.42585610  0.90253031  1
  F  F14  1  0.37502908  0.06196899  0.26127893  1
  F  F15  1  0.37502908  0.43803101  0.26127893  1
  F  F16  1  0.62497092  0.56196899  0.73872107  1
  F  F17  1  0.62497092  0.93803101  0.73872107  1
  F  F18  1  0.61543355  0.57414390  0.09746969  1
  F  F19  1  0.61543355  0.92585610  0.09746969  1
  F  F20  1  0.61667306  0.25000000  0.12291192  1
  F  F21  1  0.63330769  0.25000000  0.37954310  1
  F  F22  1  0.63496664  0.57125724  0.40680023  1
  F  F23  1  0.63496664  0.92874276  0.40680023  1
  F  F24  1  0.86503336  0.07125724  0.90680023  1
  F  F25  1  0.86503336  0.42874276  0.90680023  1
  F  F26  1  0.86669231  0.75000000  0.87954310  1
  F  F27  1  0.88332694  0.75000000  0.62291192  1
  F  F28  1  0.88456645  0.07414390  0.59746969  1
  F  F29  1  0.88456645  0.42585610  0.59746969  1
  F  F30  1  0.87502908  0.06196899  0.23872107  1
  F  F31  1  0.87502908  0.43803101  0.23872107  1
loop_
_geom_bond_atom_site_label_1
_geom_bond_atom_site_label_2
_geom_bond_distance
_geom_bond_site_symmetry_2
F0 V7 1.923023 1_455
F0 V3 1.924400 1_555
F1 V6 1.923023 1_455
F1 V2 1.924400 1_555
F2 V1 1.724109 1_555
F3 V0 1.724109 1_565
F4 V1 1.965043 1_555
F4 V0 1.965043 1_555
F5 V1 1.966444 1_555
F5 V0 1.966444 1_555
F6 V1 1.726420 1_555
F7 V0 1.726420 1_565
F8 V3 1.726420 1_545
F9 V2 1.726420 1_555
F10 V2 1.966444 1_555
F10 V3 1.966444 1_555
F11 V2 1.965043 1_555
F11 V3 1.965043 1_555
F12 V3 1.724109 1_545
F13 V2 1.724109 1_555
F14 V4 1.923023 1_555
F14 V0 1.924400 1_555
F15 V5 1.923023 1_555
F15 V1 1.924400 1_555
F16 V2 1.923023 1_555
F16 V6 1.924400 1_555
F17 V3 1.923023 1_555
F17 V7 1.924400 1_555
F18 V5 1.724109 1_555
F19 V4 1.724109 1_565
F20 V4 1.965043 1_555
F20 V5 1.965043 1_555
F21 V5 1.966444 1_555
F21 V4 1.966444 1_555
F22 V5 1.726420 1_555
F23 V4 1.726420 1_565
F24 V7 1.726420 1_545
F25 V6 1.726420 1_555
F26 V6 1.966444 1_555
F26 V7 1.966444 1_555
F27 V6 1.965043 1_555
F27 V7 1.965043 1_555
F28 V7 1.724109 1_545
F29 V6 1.724109 1_555
F30 V0 1.923023 1_655
F30 V4 1.924400 1_555
F31 V1 1.923023 1_655
F31 V5 1.924400 1_555
