# generated using pymatgen
data_NaMgNiIO6
_symmetry_space_group_name_H-M   'P 1'
_cell_length_a   5.27185631
_cell_length_b   5.50125663
_cell_length_c   5.48649622
_cell_angle_alpha   72.09371205
_cell_angle_beta   88.66555330
_cell_angle_gamma   122.00190003
_symmetry_Int_Tables_number   1
_chemical_formula_structural   NaMgNiIO6
_chemical_formula_sum   'Na1 Mg1 Ni1 I1 O6'
_cell_volume   124.93504341
_cell_formula_units_Z   1
loop_
 _symmetry_equiv_pos_site_id
 _symmetry_equiv_pos_as_xyz
  1  'x, y, z'
loop_
 _atom_site_type_symbol
 _atom_site_label
 _atom_site_symmetry_multiplicity
 _atom_site_fract_x
 _atom_site_fract_y
 _atom_site_fract_z
 _atom_site_occupancy
  Na  Na0  1  0.12444356  0.15439989  0.08288442  1
  Mg  Mg0  1  -0.10538633  0.56267712  0.93766987  1
  Ni  Ni0  1  0.35393268  0.67585196  0.46841850  1
  I  I0  1  0.65750506  0.31992486  0.50273845  1
  O  O0  1  0.92533205  0.29467343  0.72305127  1
  O  O1  1  0.70689472  0.13920900  0.27234537  1
  O  O2  1  0.03292303  0.68756271  0.26132774  1
  O  O3  1  0.45621396  0.45555114  0.27584235  1
  O  O4  1  0.58440559  0.50901349  0.71339064  1
  O  O5  1  0.31373568  0.91363638  0.69983238  1
loop_
_geom_bond_atom_site_label_1
_geom_bond_atom_site_label_2
_geom_bond_distance
_geom_bond_site_symmetry_2
Na0 O2 2.214825 1_545
Na0 O3 2.240124 1_555
Na0 O1 2.361792 1_455
Na0 O0 2.369206 1_454
Na0 O4 2.473996 1_554
Mg0 O4 2.020185 1_455
Mg0 O5 2.026694 1_555
Mg0 O2 2.106300 1_556
Mg0 O1 2.149298 1_456
Mg0 O0 2.213186 1_455
Mg0 O3 2.610667 1_456
Ni0 O1 2.076204 1_565
Ni0 O2 2.078255 1_555
Ni0 O3 2.080711 1_555
Ni0 O0 2.117551 1_455
Ni0 O4 2.150483 1_555
Ni0 O5 2.161169 1_555
I0 O3 1.887336 1_555
I0 O5 1.891729 1_545
I0 O0 1.912611 1_555
I0 O1 1.919836 1_555
I0 O4 1.926067 1_555
I0 O2 1.936460 1_655
