# generated using pymatgen
data_Na14Y3Nb5(SiO4)12
_symmetry_space_group_name_H-M   'P 1'
_cell_length_a   18.59042865
_cell_length_b   9.28685884
_cell_length_c   22.42465620
_cell_angle_alpha   90.02676392
_cell_angle_beta   89.92091505
_cell_angle_gamma   119.95601752
_symmetry_Int_Tables_number   1
_chemical_formula_structural   Na14Y3Nb5(SiO4)12
_chemical_formula_sum   'Na42 Y9 Nb15 Si36 O144'
_cell_volume   3354.33591844
_cell_formula_units_Z   3
loop_
 _symmetry_equiv_pos_site_id
 _symmetry_equiv_pos_as_xyz
  1  'x, y, z'
loop_
 _atom_site_type_symbol
 _atom_site_label
 _atom_site_symmetry_multiplicity
 _atom_site_fract_x
 _atom_site_fract_y
 _atom_site_fract_z
 _atom_site_occupancy
  Na  Na0  1  0.31939622  0.01291186  0.24644032  1
  Na  Na1  1  0.81729749  0.00836646  0.24416423  1
  Na  Na2  1  0.18657834  0.36548402  0.24403460  1
  Na  Na3  1  0.68764573  0.36118632  0.24705344  1
  Na  Na4  1  0.99604333  0.62118881  0.24623506  1
  Na  Na5  1  0.49218014  0.62868863  0.24526023  1
  Na  Na6  1  0.31570630  0.62351969  0.74638299  1
  Na  Na7  1  0.81530036  0.62282356  0.74681073  1
  Na  Na8  1  0.99515443  0.36852526  0.74737042  1
  Na  Na9  1  0.49489643  0.36775622  0.74696638  1
  Na  Na10  1  0.18974571  0.00846574  0.74683220  1
  Na  Na11  1  0.68909817  0.00826113  0.74667109  1
  Na  Na12  1  0.15491812  0.34790274  0.57846337  1
  Na  Na13  1  0.65353384  0.34741584  0.57812326  1
  Na  Na14  1  0.01901711  0.69285589  0.57822799  1
  Na  Na15  1  0.51963747  0.69169676  0.57795181  1
  Na  Na16  1  0.32489964  0.95752638  0.57711062  1
  Na  Na17  1  0.82786691  0.96281671  0.57987369  1
  Na  Na18  1  0.15554422  0.96079051  0.07797094  1
  Na  Na19  1  0.65472935  0.96037315  0.07805753  1
  Na  Na20  1  0.32607056  0.69249305  0.07888508  1
  Na  Na21  1  0.82572249  0.69235743  0.07862322  1
  Na  Na22  1  0.01896569  0.34693488  0.07732347  1
  Na  Na23  1  0.51919835  0.34667279  0.07757442  1
  Na  Na24  1  0.34831625  0.02642431  0.91938980  1
  Na  Na25  1  0.84817337  0.02654578  0.91948214  1
  Na  Na26  1  0.48543269  0.29362395  0.41378155  1
  Na  Na27  1  0.66082538  0.02745390  0.41307975  1
  Na  Na28  1  0.35202777  0.67827841  0.41407047  1
  Na  Na29  1  0.84850747  0.67255987  0.41669420  1
  Na  Na30  1  0.00768561  0.01471245  0.49690420  1
  Na  Na31  1  0.49943656  0.99986747  0.49414710  1
  Na  Na32  1  0.00730792  0.99985728  0.99751042  1
  Na  Na33  1  0.50725879  0.00032408  0.99830843  1
  Na  Na34  1  0.33281719  0.34188673  0.83633899  1
  Na  Na35  1  0.83270036  0.34175998  0.83659714  1
  Na  Na36  1  0.32899724  0.32744336  0.33168090  1
  Na  Na37  1  0.83719664  0.32973631  0.33229701  1
  Na  Na38  1  0.16764185  0.66762770  0.15902297  1
  Na  Na39  1  0.66621911  0.66687816  0.15923689  1
  Na  Na40  1  0.16745983  0.66764430  0.65990793  1
  Na  Na41  1  0.66638435  0.66623237  0.66115884  1
  Y  Y0  1  0.49909017  0.99919864  0.34878209  1
  Y  Y1  1  0.33294632  0.33290984  0.68722621  1
  Y  Y2  1  0.83338387  0.33313433  0.68842793  1
  Y  Y3  1  0.33132632  0.33089975  0.18236486  1
  Y  Y4  1  0.83528809  0.33613536  0.18426309  1
  Y  Y5  1  0.16481946  0.66444958  0.01003574  1
  Y  Y6  1  0.66481878  0.66434078  0.01094260  1
  Y  Y7  1  0.16141404  0.66007158  0.51237220  1
  Y  Y8  1  0.67011403  0.67167183  0.51501201  1
  Nb  Nb0  1  0.00277653  0.00429805  0.35383849  1
  Nb  Nb1  1  0.00182381  0.00042317  0.85449135  1
  Nb  Nb2  1  0.50179629  0.00018621  0.85447977  1
  Nb  Nb3  1  0.00020855  0.99975555  0.64488076  1
  Nb  Nb4  1  0.49971881  0.99995319  0.64404007  1
  Nb  Nb5  1  0.99995430  0.99986853  0.14402776  1
  Nb  Nb6  1  0.49978044  0.00017020  0.14688161  1
  Nb  Nb7  1  0.33375387  0.33742182  0.97943977  1
  Nb  Nb8  1  0.83372338  0.33750488  0.97962575  1
  Nb  Nb9  1  0.33051990  0.32815129  0.48004989  1
  Nb  Nb10  1  0.83654943  0.33542588  0.48003879  1
  Nb  Nb11  1  0.16689700  0.66870891  0.31565339  1
  Nb  Nb12  1  0.66600911  0.66557364  0.31391255  1
  Nb  Nb13  1  0.16610094  0.66471136  0.81606302  1
  Nb  Nb14  1  0.66591817  0.66461376  0.81619699  1
  Si  Si0  1  0.14225738  0.98809551  0.24962990  1
  Si  Si1  1  0.64781714  0.99210868  0.25133921  1
  Si  Si2  1  0.34674612  0.70422795  0.25121565  1
  Si  Si3  1  0.85379074  0.71471343  0.25157691  1
  Si  Si4  1  0.00491715  0.29428675  0.25043149  1
  Si  Si5  1  0.50404892  0.30474676  0.25125128  1
  Si  Si6  1  0.14181321  0.29516030  0.75026348  1
  Si  Si7  1  0.64147465  0.29462468  0.75014678  1
  Si  Si8  1  0.00516353  0.71611308  0.75073869  1
  Si  Si9  1  0.50499202  0.71613094  0.75032191  1
  Si  Si10  1  0.35279273  0.98961507  0.75149946  1
  Si  Si11  1  0.85257315  0.98907296  0.75157430  1
  Si  Si12  1  0.48032181  0.32870939  0.58513770  1
  Si  Si13  1  0.98037657  0.32728295  0.58671359  1
  Si  Si14  1  0.18311531  0.03709881  0.58654568  1
  Si  Si15  1  0.68431201  0.04248208  0.58507154  1
  Si  Si16  1  0.33489449  0.63205708  0.58462423  1
  Si  Si17  1  0.83685054  0.63352716  0.58606316  1
  Si  Si18  1  0.48101118  0.63443031  0.08462092  1
  Si  Si19  1  0.98204196  0.63412737  0.08510634  1
  Si  Si20  1  0.33533654  0.03520462  0.08397509  1
  Si  Si21  1  0.83575611  0.03755107  0.08323281  1
  Si  Si22  1  0.18224270  0.32748871  0.08366452  1
  Si  Si23  1  0.68388035  0.32836622  0.08551386  1
  Si  Si24  1  0.31717972  0.66359170  0.91630411  1
  Si  Si25  1  0.81712116  0.66382195  0.91645521  1
  Si  Si26  1  0.01412299  0.36511844  0.91730200  1
  Si  Si27  1  0.51426817  0.36514182  0.91747684  1
  Si  Si28  1  0.16820289  0.97202846  0.91752350  1
  Si  Si29  1  0.66821184  0.97197227  0.91760935  1
  Si  Si30  1  0.31375859  0.96931864  0.41905450  1
  Si  Si31  1  0.81770491  0.97155691  0.41593396  1
  Si  Si32  1  0.16823619  0.36644793  0.41759601  1
  Si  Si33  1  0.67044352  0.36863224  0.41842731  1
  Si  Si34  1  0.01505621  0.66439902  0.41726768  1
  Si  Si35  1  0.51438012  0.65893362  0.41866234  1
  O  O0  1  0.08783612  -0.00005675  0.30487470  1
  O  O1  1  0.61080499  0.01887688  0.31211587  1
  O  O2  1  0.39751941  0.77676879  0.31178978  1
  O  O3  1  0.91106529  0.81631419  0.30851817  1
  O  O4  1  0.49075640  0.20436665  0.31208254  1
  O  O5  1  0.99728066  0.17119720  0.30512587  1
  O  O6  1  0.08707595  0.17531850  0.80515710  1
  O  O7  1  0.58697432  0.17519866  0.80520206  1
  O  O8  1  0.49775882  0.82366723  0.80512387  1
  O  O9  1  0.99776805  0.82393954  0.80524950  1
  O  O10  1  0.41031309  0.00367965  0.80826383  1
  O  O11  1  0.91031167  0.00348270  0.80817707  1
  O  O12  1  0.40163650  0.96976576  0.69129537  1
  O  O13  1  0.90150797  0.96974159  0.69123180  1
  O  O14  1  0.08477487  0.20014828  0.68939129  1
  O  O15  1  0.58477593  0.20024661  0.68925219  1
  O  O16  1  0.01576432  0.83109074  0.68976950  1
  O  O17  1  0.51596801  0.83125262  0.68939567  1
  O  O18  1  0.40249009  0.83272793  0.19392271  1
  O  O19  1  0.90190281  0.83219030  0.19126154  1
  O  O20  1  0.01545252  0.19945707  0.18964882  1
  O  O21  1  0.51344966  0.19532151  0.19376802  1
  O  O22  1  0.08514540  0.97027502  0.18897351  1
  O  O23  1  0.58376462  0.97263578  0.19399503  1
  O  O24  1  0.44389359  0.35835969  0.64641473  1
  O  O25  1  0.94367599  0.35450351  0.64813211  1
  O  O26  1  0.23342108  0.10875782  0.64810809  1
  O  O27  1  0.73545460  0.11566278  0.64612121  1
  O  O28  1  0.32064165  0.52949642  0.64588812  1
  O  O29  1  0.82283415  0.53070609  0.64690950  1
  O  O30  1  0.44401807  0.53386705  0.14583289  1
  O  O31  1  0.94900954  0.53730414  0.14773307  1
  O  O32  1  0.31893514  0.10374876  0.14581491  1
  O  O33  1  0.82350617  0.11481895  0.14409724  1
  O  O34  1  0.23030236  0.35538031  0.14587893  1
  O  O35  1  0.73449884  0.36077671  0.14726453  1
  O  O36  1  0.23896124  0.30782864  0.02872014  1
  O  O37  1  0.73946572  0.30782411  0.02968886  1
  O  O38  1  0.41614943  0.52129595  0.02875458  1
  O  O39  1  0.91600369  0.51949804  0.03010302  1
  O  O40  1  0.34599481  0.16254026  0.02678843  1
  O  O41  1  0.84627057  0.16207071  0.02540814  1
  O  O42  1  0.23896933  0.16943969  0.53080202  1
  O  O43  1  0.73730509  0.16640746  0.52697714  1
  O  O44  1  0.34591620  0.52757677  0.52696434  1
  O  O45  1  0.84597261  0.52755219  0.52792436  1
  O  O46  1  0.41699659  0.30823921  0.52782211  1
  O  O47  1  0.91647410  0.31172758  0.53000135  1
  O  O48  1  0.28564625  0.71289772  0.97536763  1
  O  O49  1  0.78545982  0.71309321  0.97555002  1
  O  O50  1  0.06281372  0.42731734  0.97887921  1
  O  O51  1  0.56318861  0.42807705  0.97898626  1
  O  O52  1  0.15178389  0.87492147  0.97930522  1
  O  O53  1  0.65205538  0.87441685  0.97932287  1
  O  O54  1  0.27595513  0.86124237  0.47830027  1
  O  O55  1  0.78761726  0.86515493  0.47667147  1
  O  O56  1  0.15006480  0.42611622  0.47992020  1
  O  O57  1  0.65849916  0.44694176  0.47875467  1
  O  O58  1  0.06148664  0.69755676  0.47984811  1
  O  O59  1  0.56826133  0.69016804  0.47805418  1
  O  O60  1  0.06979378  0.64375323  0.36133382  1
  O  O61  1  0.57030764  0.64192173  0.36074081  1
  O  O62  1  0.25196747  0.85937309  0.36041868  1
  O  O63  1  0.74991716  0.86281274  0.36080286  1
  O  O64  1  0.18010062  0.50209316  0.36257647  1
  O  O65  1  0.67996387  0.49816910  0.36085636  1
  O  O66  1  0.07026884  0.49648410  0.86120001  1
  O  O67  1  0.57026849  0.49660594  0.86129290  1
  O  O68  1  0.17995264  0.85822808  0.86236226  1
  O  O69  1  0.68011584  0.85861940  0.86230943  1
  O  O70  1  0.25129918  0.64078317  0.85981973  1
  O  O71  1  0.75134191  0.64100259  0.85991814  1
  O  O72  1  0.99605693  0.81862514  0.40670935  1
  O  O73  1  0.49740074  0.81258892  0.41417244  1
  O  O74  1  0.40781716  0.00306764  0.41439109  1
  O  O75  1  0.91031413  0.99568731  0.40428102  1
  O  O76  1  0.09056731  0.17808387  0.40479286  1
  O  O77  1  0.59279816  0.18239309  0.41424758  1
  O  O78  1  0.99678187  0.17411764  0.90650378  1
  O  O79  1  0.49691150  0.17417995  0.90665316  1
  O  O80  1  0.08930099  0.00086759  0.90508772  1
  O  O81  1  0.58925972  0.00057659  0.90520639  1
  O  O82  1  0.40978041  0.82607067  0.90464367  1
  O  O83  1  0.90974958  0.82623998  0.90472604  1
  O  O84  1  0.47963383  0.14756045  0.58659728  1
  O  O85  1  0.97874788  0.14574117  0.58632442  1
  O  O86  1  0.09395393  0.04052957  0.58676386  1
  O  O87  1  0.59408983  0.04160938  0.58625307  1
  O  O88  1  0.42526215  0.81260129  0.58687047  1
  O  O89  1  0.92714238  0.81297646  0.58685438  1
  O  O90  1  0.48080272  0.81429224  0.08661279  1
  O  O91  1  0.97985588  0.81203216  0.08567301  1
  O  O92  1  0.42624618  0.03751152  0.08738824  1
  O  O93  1  0.92573456  0.03620851  0.08621462  1
  O  O94  1  0.09255310  0.14661905  0.08502581  1
  O  O95  1  0.59412830  0.14808286  0.08782567  1
  O  O96  1  0.34220369  0.15242938  0.75287607  1
  O  O97  1  0.84163003  0.15136851  0.75326289  1
  O  O98  1  0.23327852  0.31528546  0.75290899  1
  O  O99  1  0.73298504  0.31466417  0.75317846  1
  O  O100  1  0.42352091  0.53292727  0.75259248  1
  O  O101  1  0.92374066  0.53318990  0.75326641  1
  O  O102  1  0.32996712  0.51679520  0.24625155  1
  O  O103  1  0.84292492  0.53057965  0.25283442  1
  O  O104  1  0.42642931  0.33677875  0.24663156  1
  O  O105  1  0.92399764  0.31566369  0.25219153  1
  O  O106  1  0.23423268  0.14868272  0.25166623  1
  O  O107  1  0.74122954  0.14815743  0.24692932  1
  O  O108  1  0.32181934  0.49231477  0.92154994  1
  O  O109  1  0.82196340  0.49276766  0.92183834  1
  O  O110  1  0.42206716  0.35073792  0.91959523  1
  O  O111  1  0.92209402  0.35146258  0.91948746  1
  O  O112  1  0.25723679  0.14887093  0.91908054  1
  O  O113  1  0.75707328  0.14929683  0.91925332  1
  O  O114  1  0.31707974  0.15107056  0.42148295  1
  O  O115  1  0.81731098  0.14839881  0.42062412  1
  O  O116  1  0.25849458  0.37065497  0.41993406  1
  O  O117  1  0.75945813  0.36712038  0.41974269  1
  O  O118  1  0.42567238  0.47966757  0.42024077  1
  O  O119  1  0.92290667  0.49163409  0.42016151  1
  O  O120  1  0.16703848  0.48291417  0.07654344  1
  O  O121  1  0.66828772  0.48342400  0.07762778  1
  O  O122  1  0.07524394  0.66696979  0.07777330  1
  O  O123  1  0.57421158  0.66549124  0.07836667  1
  O  O124  1  0.25867680  0.84757195  0.07735748  1
  O  O125  1  0.75817992  0.85027997  0.07855725  1
  O  O126  1  0.16606134  0.84975850  0.58016838  1
  O  O127  1  0.66811249  0.85506549  0.58007556  1
  O  O128  1  0.25761242  0.66449364  0.57882224  1
  O  O129  1  0.76052773  0.66966858  0.58217491  1
  O  O130  1  0.07370079  0.48121256  0.58140131  1
  O  O131  1  0.57437311  0.48204243  0.57955903  1
  O  O132  1  0.14531984  0.81341526  0.25491797  1
  O  O133  1  0.64883407  0.81317312  0.25255447  1
  O  O134  1  0.25719193  0.70595690  0.25236397  1
  O  O135  1  0.76240276  0.70520657  0.25606364  1
  O  O136  1  0.09117277  0.47601986  0.25633149  1
  O  O137  1  0.59469974  0.48338945  0.25276112  1
  O  O138  1  0.14681099  0.47840715  0.75443527  1
  O  O139  1  0.64681413  0.47833980  0.75445806  1
  O  O140  1  0.09154047  0.70595185  0.75576529  1
  O  O141  1  0.59145242  0.70577333  0.75569898  1
  O  O142  1  0.26063178  0.81665520  0.75485656  1
  O  O143  1  0.76046852  0.81626232  0.75470321  1
loop_
_geom_bond_atom_site_label_1
_geom_bond_atom_site_label_2
_geom_bond_distance
_geom_bond_site_symmetry_2
Na0 O32 2.410916 1_555
Na0 O106 2.470452 1_555
Na0 O134 2.487754 1_545
Na0 O104 2.651197 1_555
Na0 O132 2.819985 1_545
Na0 O62 2.889083 1_545
Na1 O107 2.349914 1_555
Na1 O33 2.431762 1_555
Na1 O135 2.483900 1_545
Na1 O105 2.541374 1_555
Na1 O133 2.731067 1_545
Na1 O63 2.922469 1_545
Na1 O19 3.020117 1_545
Na2 O102 2.311340 1_555
Na2 O34 2.363353 1_555
Na2 O136 2.468242 1_555
Na2 O106 2.578759 1_555
Na2 O134 2.758768 1_555
Na2 O64 2.973031 1_555
Na2 O20 3.015916 1_555
Na3 O35 2.400844 1_555
Na3 O137 2.499523 1_555
Na3 O103 2.508054 1_555
Na3 O107 2.621902 1_555
Na3 O135 2.783058 1_555
Na3 O65 2.885964 1_555
Na4 O31 2.360933 1_555
Na4 O132 2.445346 1_655
Na4 O105 2.463137 1_555
Na4 O103 2.537637 1_555
Na4 O136 2.716400 1_655
Na4 O60 2.882335 1_655
Na5 O104 2.352634 1_555
Na5 O30 2.400960 1_555
Na5 O133 2.541954 1_555
Na5 O102 2.654161 1_555
Na5 O137 2.837414 1_555
Na5 O61 2.943222 1_555
Na5 O23 2.998351 1_555
Na6 O28 2.434545 1_555
Na6 O142 2.476811 1_555
Na6 O98 2.486522 1_555
Na6 O100 2.535629 1_555
Na6 O138 2.735001 1_555
Na6 O70 2.848351 1_555
Na7 O29 2.426353 1_555
Na7 O143 2.474985 1_555
Na7 O99 2.485645 1_555
Na7 O101 2.540616 1_555
Na7 O139 2.728040 1_555
Na7 O71 2.840300 1_555
Na8 O25 2.401314 1_555
Na8 O138 2.478527 1_655
Na8 O101 2.478987 1_555
Na8 O97 2.545854 1_555
Na8 O140 2.731057 1_655
Na8 O66 2.868383 1_655
Na9 O24 2.431873 1_555
Na9 O100 2.482238 1_555
Na9 O139 2.482680 1_555
Na9 O96 2.530715 1_555
Na9 O141 2.736350 1_555
Na9 O67 2.881068 1_555
Na10 O26 2.381099 1_555
Na10 O96 2.460791 1_555
Na10 O140 2.478558 1_545
Na10 O98 2.547464 1_555
Na10 O142 2.699506 1_545
Na10 O68 2.905179 1_545
Na11 O27 2.441301 1_555
Na11 O97 2.462992 1_555
Na11 O141 2.476791 1_545
Na11 O99 2.542711 1_555
Na11 O143 2.708463 1_545
Na11 O69 2.907577 1_545
Na12 O56 2.342314 1_555
Na12 O130 2.383940 1_555
Na12 O86 2.497301 1_555
Na12 O128 2.585270 1_555
Na12 O14 2.824593 1_555
Na12 O85 2.853092 1_455
Na12 O42 2.985081 1_555
Na13 O131 2.359489 1_555
Na13 O57 2.396731 1_555
Na13 O87 2.487091 1_555
Na13 O129 2.641294 1_555
Na13 O84 2.817577 1_555
Na13 O15 2.821661 1_555
Na14 O58 2.335198 1_555
Na14 O126 2.370677 1_555
Na14 O89 2.469975 1_455
Na14 O130 2.626311 1_555
Na14 O86 2.812578 1_565
Na14 O16 2.825284 1_555
Na15 O127 2.396040 1_555
Na15 O59 2.417202 1_555
Na15 O88 2.518947 1_555
Na15 O131 2.608908 1_555
Na15 O17 2.831009 1_555
Na15 O87 2.831711 1_565
Na16 O128 2.360581 1_555
Na16 O54 2.393402 1_555
Na16 O84 2.523090 1_565
Na16 O126 2.602678 1_555
Na16 O88 2.801732 1_555
Na16 O12 2.907290 1_555
Na17 O129 2.361738 1_555
Na17 O85 2.452903 1_565
Na17 O55 2.462402 1_555
Na17 O127 2.617959 1_555
Na17 O89 2.816528 1_555
Na17 O13 2.834706 1_555
Na18 O52 2.340786 1_554
Na18 O122 2.367739 1_555
Na18 O94 2.528255 1_565
Na18 O124 2.606689 1_555
Na18 O22 2.832417 1_555
Na18 O91 2.845776 1_455
Na18 O36 3.003162 1_565
Na18 O32 3.047489 1_565
Na19 O53 2.345404 1_554
Na19 O123 2.376219 1_555
Na19 O95 2.513235 1_565
Na19 O125 2.589960 1_555
Na19 O90 2.819541 1_555
Na20 O124 2.333924 1_555
Na20 O48 2.477246 1_554
Na20 O90 2.517088 1_555
Na20 O120 2.604882 1_555
Na20 O92 2.795050 1_565
Na20 O18 2.920340 1_555
Na21 O125 2.359379 1_555
Na21 O49 2.467581 1_554
Na21 O91 2.508278 1_555
Na21 O121 2.580736 1_555
Na21 O93 2.784613 1_565
Na21 O19 2.870933 1_555
Na22 O50 2.341796 1_554
Na22 O120 2.387651 1_555
Na22 O93 2.525001 1_455
Na22 O122 2.612049 1_555
Na22 O94 2.811504 1_555
Na22 O20 2.852747 1_555
Na23 O51 2.346726 1_554
Na23 O121 2.404075 1_555
Na23 O92 2.514492 1_555
Na23 O123 2.605509 1_555
Na23 O95 2.821613 1_555
Na24 O79 2.410027 1_555
Na24 O112 2.466372 1_555
Na24 O110 2.612883 1_555
Na24 O82 2.645496 1_545
Na24 O40 2.729728 1_556
Na24 O10 2.795990 1_555
Na24 O48 2.832415 1_545
Na24 O68 2.999755 1_545
Na25 O78 2.410886 1_555
Na25 O113 2.468991 1_555
Na25 O111 2.617707 1_555
Na25 O83 2.646747 1_545
Na25 O41 2.696122 1_556
Na25 O11 2.801580 1_555
Na25 O49 2.832662 1_545
Na25 O69 2.996691 1_545
Na26 O74 2.339866 1_555
Na26 O4 2.444877 1_555
Na26 O118 2.481260 1_555
Na26 O77 2.666495 1_555
Na26 O114 2.727390 1_555
Na26 O46 2.887922 1_555
Na27 O77 2.342569 1_555
Na27 O1 2.434911 1_555
Na27 O115 2.547793 1_555
Na27 O73 2.675464 1_545
Na27 O117 2.749349 1_555
Na27 O43 2.895661 1_555
Na28 O73 2.343741 1_555
Na28 O2 2.456944 1_555
Na28 O116 2.498235 1_555
Na28 O74 2.655082 1_565
Na28 O118 2.796114 1_555
Na28 O44 2.867818 1_555
Na29 O72 2.386832 1_555
Na29 O117 2.470152 1_555
Na29 O75 2.638035 1_555
Na29 O119 2.657726 1_555
Na29 O3 2.732044 1_555
Na29 O45 2.824303 1_555
Na29 O55 2.881826 1_555
Na29 O65 2.991574 1_555
Na30 O86 2.512872 1_555
Na30 O85 2.537619 1_455
Na30 O76 2.569453 1_555
Na30 O89 2.648465 1_445
Na30 O72 2.656762 1_445
Na30 O75 2.704200 1_445
Na31 O77 2.480347 1_565
Na31 O74 2.481868 1_565
Na31 O73 2.484791 1_555
Na31 O84 2.610429 1_565
Na31 O87 2.615483 1_565
Na31 O88 2.617241 1_555
Na32 O94 2.463636 1_566
Na32 O91 2.514571 1_456
Na32 O80 2.568269 1_565
Na32 O93 2.621596 1_466
Na32 O78 2.672559 1_465
Na32 O83 2.702792 1_455
Na33 O90 2.509935 1_546
Na33 O95 2.512750 1_556
Na33 O81 2.582708 1_555
Na33 O92 2.624559 1_556
Na33 O79 2.680043 1_555
Na33 O82 2.719021 1_545
Na34 O108 2.434410 1_555
Na34 O112 2.471977 1_555
Na34 O110 2.473368 1_555
Na34 O100 2.554321 1_555
Na34 O98 2.556965 1_555
Na34 O96 2.632829 1_555
Na35 O109 2.436468 1_555
Na35 O111 2.466543 1_555
Na35 O113 2.468457 1_555
Na35 O101 2.550767 1_555
Na35 O99 2.557787 1_555
Na35 O97 2.633488 1_555
Na36 O106 2.482808 1_555
Na36 O116 2.512550 1_555
Na36 O114 2.535097 1_555
Na36 O118 2.577273 1_555
Na36 O102 2.594991 1_555
Na36 O104 2.599914 1_555
Na37 O105 2.459720 1_555
Na37 O115 2.505047 1_555
Na37 O119 2.508995 1_555
Na37 O103 2.543577 1_555
Na37 O117 2.558713 1_555
Na37 O107 2.587112 1_555
Na38 O124 2.486044 1_555
Na38 O122 2.503678 1_555
Na38 O120 2.518245 1_555
Na38 O134 2.587767 1_555
Na38 O132 2.680570 1_555
Na38 O136 2.723548 1_555
Na39 O125 2.486630 1_555
Na39 O123 2.490203 1_555
Na39 O121 2.513075 1_555
Na39 O133 2.600641 1_555
Na39 O137 2.608250 1_555
Na39 O135 2.722669 1_555
Na40 O126 2.470900 1_555
Na40 O130 2.475254 1_555
Na40 O128 2.481238 1_555
Na40 O138 2.656445 1_555
Na40 O142 2.657502 1_555
Na40 O140 2.689150 1_555
Na41 O129 2.477281 1_555
Na41 O131 2.506768 1_555
Na41 O127 2.515754 1_555
Na41 O139 2.630927 1_555
Na41 O143 2.640934 1_555
Na41 O141 2.659293 1_555
Nb0 O5 1.940655 1_455
Nb0 O0 1.940813 1_555
Nb0 O76 1.986682 1_555
Nb0 O3 2.004513 1_445
Nb0 O75 2.024358 1_445
Nb0 O72 2.044734 1_445
Nb1 O9 1.945865 1_445
Nb1 O6 1.949337 1_555
Nb1 O80 1.982520 1_555
Nb1 O11 2.006711 1_455
Nb1 O83 2.011660 1_445
Nb1 O78 2.029811 1_455
Nb2 O8 1.947716 1_545
Nb2 O7 1.948539 1_555
Nb2 O81 1.984191 1_555
Nb2 O10 2.006876 1_555
Nb2 O82 2.010048 1_545
Nb2 O79 2.032867 1_555
Nb3 O16 2.001263 1_555
Nb3 O13 2.002275 1_455
Nb3 O14 2.002990 1_565
Nb3 O89 2.048610 1_455
Nb3 O86 2.052860 1_565
Nb3 O85 2.065128 1_465
Nb4 O12 2.002679 1_555
Nb4 O15 2.013338 1_565
Nb4 O17 2.013760 1_555
Nb4 O88 2.045595 1_555
Nb4 O84 2.047429 1_565
Nb4 O87 2.055043 1_565
Nb5 O19 2.007722 1_555
Nb5 O20 2.007729 1_665
Nb5 O22 2.009715 1_655
Nb5 O93 2.041768 1_565
Nb5 O94 2.055184 1_665
Nb5 O91 2.059920 1_555
Nb6 O18 1.997404 1_545
Nb6 O21 1.998412 1_555
Nb6 O23 2.005682 1_545
Nb6 O92 2.061022 1_555
Nb6 O95 2.075153 1_555
Nb6 O90 2.078898 1_545
Nb7 O38 1.968737 1_556
Nb7 O36 1.978252 1_556
Nb7 O108 2.030985 1_555
Nb7 O40 2.046517 1_556
Nb7 O110 2.074367 1_555
Nb7 O112 2.106480 1_555
Nb8 O39 1.974529 1_556
Nb8 O37 1.979731 1_556
Nb8 O109 2.030636 1_555
Nb8 O41 2.035823 1_556
Nb8 O111 2.077450 1_555
Nb8 O113 2.105750 1_555
Nb9 O42 1.963518 1_555
Nb9 O46 2.016968 1_555
Nb9 O114 2.019974 1_555
Nb9 O44 2.021972 1_555
Nb9 O116 2.073475 1_555
Nb9 O118 2.101743 1_555
Nb10 O47 1.960310 1_555
Nb10 O45 2.013430 1_555
Nb10 O43 2.019842 1_555
Nb10 O119 2.038328 1_555
Nb10 O115 2.073321 1_555
Nb10 O117 2.096619 1_555
Nb11 O62 1.962206 1_555
Nb11 O60 1.984706 1_555
Nb11 O64 1.985759 1_555
Nb11 O132 2.088879 1_555
Nb11 O134 2.089419 1_555
Nb11 O136 2.107313 1_555
Nb12 O61 1.980169 1_555
Nb12 O65 1.999379 1_555
Nb12 O63 2.010814 1_555
Nb12 O137 2.064791 1_555
Nb12 O133 2.077044 1_555
Nb12 O135 2.089235 1_555
Nb13 O66 1.963701 1_555
Nb13 O70 1.968967 1_555
Nb13 O68 1.977595 1_555
Nb13 O138 2.100357 1_555
Nb13 O140 2.105265 1_555
Nb13 O142 2.117074 1_555
Nb14 O67 1.960802 1_555
Nb14 O71 1.970668 1_555
Nb14 O69 1.977163 1_555
Nb14 O139 2.102621 1_555
Nb14 O141 2.106454 1_555
Nb14 O143 2.120743 1_555
O0 Si0 1.636457 1_545
O1 Si1 1.600201 1_545
O1 Y0 2.153847 1_545
O2 Si2 1.599236 1_555
O2 Y0 2.151285 1_555
O3 Si3 1.629034 1_555
O4 Si5 1.600349 1_555
O4 Y0 2.151356 1_545
O5 Si4 1.633994 1_655
O6 Si6 1.629798 1_555
O7 Si7 1.629865 1_555
O8 Si9 1.630391 1_555
O9 Si8 1.628420 1_655
O10 Si10 1.626336 1_545
O11 Si11 1.625217 1_545
O12 Si10 1.686620 1_555
O13 Si11 1.688294 1_555
O14 Si6 1.683674 1_555
O15 Si7 1.680527 1_555
O16 Si8 1.684855 1_555
O17 Si9 1.683456 1_555
O18 Si2 1.706282 1_555
O19 Si3 1.686173 1_555
O20 Si4 1.685879 1_555
O21 Si5 1.703052 1_555
O22 Si0 1.683184 1_555
O23 Si1 1.700934 1_555
O24 Si12 1.614294 1_555
O24 Y1 2.157712 1_555
O25 Si13 1.611106 1_555
O25 Y2 2.156073 1_555
O26 Si14 1.613838 1_555
O26 Y1 2.163909 1_555
O27 Si15 1.611666 1_555
O27 Y2 2.150438 1_555
O28 Si16 1.616467 1_555
O28 Y1 2.159618 1_555
O29 Si17 1.610342 1_555
O29 Y2 2.152518 1_555
O30 Si18 1.608266 1_555
O30 Y3 2.160116 1_555
O31 Si19 1.614088 1_555
O31 Y4 2.164045 1_555
O32 Si20 1.616496 1_555
O32 Y3 2.165299 1_555
O33 Si21 1.609675 1_555
O33 Y4 2.152412 1_555
O34 Si22 1.607401 1_555
O34 Y3 2.163127 1_555
O35 Si23 1.616774 1_555
O35 Y4 2.164308 1_555
O36 Si22 1.688697 1_555
O37 Si23 1.692466 1_555
O38 Si18 1.692649 1_555
O39 Si19 1.691028 1_555
O40 Si20 1.687875 1_555
O41 Si21 1.682810 1_555
O42 Si14 1.695481 1_555
O43 Si15 1.690497 1_555
O44 Si16 1.688773 1_555
O45 Si17 1.691736 1_555
O46 Si12 1.689509 1_555
O47 Si13 1.697680 1_555
O48 Si24 1.604036 1_555
O48 Y5 2.199668 1_556
O49 Si25 1.605670 1_555
O49 Y6 2.201420 1_556
O50 Si26 1.593829 1_555
O50 Y5 2.183028 1_556
O51 Si27 1.594717 1_555
O51 Y6 2.181679 1_556
O52 Si28 1.597176 1_555
O52 Y5 2.197483 1_556
O53 Si29 1.598274 1_555
O53 Y6 2.197571 1_556
O54 Si30 1.600192 1_555
O54 Y7 2.152272 1_555
O55 Si31 1.609832 1_555
O55 Y8 2.194542 1_555
O56 Si32 1.599806 1_555
O56 Y7 2.199071 1_555
O57 Si33 1.602449 1_555
O57 Y8 2.147618 1_555
O58 Si34 1.595852 1_555
O58 Y7 2.180359 1_555
O59 Si35 1.604509 1_555
O59 Y8 2.151959 1_555
O60 Si34 1.684228 1_555
O61 Si35 1.718476 1_555
O62 Si30 1.709564 1_555
O63 Si31 1.693688 1_555
O64 Si32 1.697353 1_555
O65 Si33 1.712718 1_555
O66 Si26 1.699018 1_555
O67 Si27 1.700069 1_555
O68 Si28 1.709771 1_555
O69 Si29 1.710442 1_555
O70 Si24 1.701238 1_555
O71 Si25 1.700856 1_555
O72 Si34 1.654687 1_655
O73 Si35 1.611237 1_555
O73 Y0 2.258856 1_555
O74 Si30 1.618314 1_545
O74 Y0 2.258093 1_545
O75 Si31 1.641974 1_555
O76 Si32 1.644861 1_555
O77 Si33 1.609585 1_555
O77 Y0 2.264788 1_545
O78 Si26 1.654588 1_655
O79 Si27 1.654220 1_555
O80 Si28 1.641520 1_545
O81 Si29 1.640976 1_545
O82 Si24 1.647338 1_555
O83 Si25 1.647662 1_555
O84 Si12 1.676289 1_555
O85 Si13 1.671059 1_555
O86 Si14 1.673686 1_555
O87 Si15 1.673410 1_555
O88 Si16 1.680250 1_555
O89 Si17 1.673797 1_555
O90 Si18 1.672866 1_555
O91 Si19 1.672882 1_555
O92 Si20 1.681303 1_555
O93 Si21 1.680422 1_555
O94 Si22 1.674937 1_555
O95 Si23 1.673272 1_555
O96 Si10 1.619613 1_545
O96 Y1 2.301585 1_555
O97 Si11 1.618846 1_545
O97 Y2 2.290879 1_555
O98 Si6 1.616364 1_555
O98 Y1 2.306341 1_555
O99 Si7 1.617876 1_555
O99 Y2 2.300964 1_555
O100 Si9 1.617923 1_555
O100 Y1 2.305423 1_555
O101 Si8 1.616220 1_655
O101 Y2 2.296733 1_555
O102 Si2 1.611604 1_555
O102 Y3 2.252697 1_555
O103 Si3 1.618903 1_555
O103 Y4 2.321088 1_555
O104 Si5 1.615718 1_555
O104 Y3 2.261929 1_555
O105 Si4 1.613088 1_655
O105 Y4 2.323040 1_555
O106 Si0 1.613498 1_545
O106 Y3 2.341171 1_555
O107 Si1 1.616175 1_545
O107 Y4 2.242077 1_555
O108 Si24 1.639689 1_555
O109 Si25 1.639881 1_555
O110 Si27 1.651951 1_555
O111 Si26 1.651851 1_655
O112 Si28 1.650280 1_545
O113 Si29 1.650928 1_545
O114 Si30 1.658809 1_545
O115 Si31 1.649282 1_545
O116 Si32 1.659679 1_555
O117 Si33 1.662178 1_555
O118 Si35 1.658470 1_555
O119 Si34 1.663741 1_655
O120 Si22 1.611403 1_555
O120 Y5 2.267206 1_555
O121 Si23 1.614355 1_555
O121 Y6 2.274660 1_555
O122 Si19 1.610494 1_455
O122 Y5 2.261159 1_555
O123 Si18 1.614045 1_555
O123 Y6 2.265913 1_555
O124 Si20 1.615464 1_565
O124 Y5 2.292861 1_555
O125 Si21 1.615843 1_565
O125 Y6 2.303239 1_555
O126 Si14 1.611496 1_565
O126 Y7 2.295187 1_555
O127 Si15 1.615261 1_565
O127 Y8 2.256477 1_555
O128 Si16 1.613864 1_555
O128 Y7 2.313949 1_555
O129 Si17 1.615372 1_555
O129 Y8 2.265420 1_555
O130 Si13 1.609499 1_455
O130 Y7 2.259349 1_555
O131 Si12 1.616655 1_555
O131 Y8 2.286775 1_555
O132 Si0 1.655708 1_555
O133 Si1 1.671505 1_555
O134 Si2 1.673089 1_555
O135 Si3 1.659536 1_555
O136 Si4 1.653752 1_555
O137 Si5 1.673773 1_555
O138 Si6 1.659951 1_555
O139 Si7 1.661578 1_555
O140 Si8 1.658913 1_555
O141 Si9 1.662008 1_555
O142 Si10 1.665100 1_555
O143 Si11 1.663684 1_555
