# generated using pymatgen
data_K6Mg(BiO4)2
_symmetry_space_group_name_H-M   'P 1'
_cell_length_a   7.17726138
_cell_length_b   6.34986489
_cell_length_c   7.77181452
_cell_angle_alpha   99.67082462
_cell_angle_beta   98.19961425
_cell_angle_gamma   92.33616631
_symmetry_Int_Tables_number   1
_chemical_formula_structural   K6Mg(BiO4)2
_chemical_formula_sum   'K6 Mg1 Bi2 O8'
_cell_volume   344.83361328
_cell_formula_units_Z   1
loop_
 _symmetry_equiv_pos_site_id
 _symmetry_equiv_pos_as_xyz
  1  'x, y, z'
loop_
 _atom_site_type_symbol
 _atom_site_label
 _atom_site_symmetry_multiplicity
 _atom_site_fract_x
 _atom_site_fract_y
 _atom_site_fract_z
 _atom_site_occupancy
  K  K0  1  0.56528913  0.69860493  0.94022027  1
  K  K1  1  0.72208802  0.17404868  0.87527830  1
  K  K2  1  0.69576644  0.79909538  0.45391398  1
  K  K3  1  0.41597628  0.27042096  0.49550674  1
  K  K4  1  0.33907379  0.26146034  0.05655538  1
  K  K5  1  0.02473506  0.76449534  0.13040696  1
  Mg  Mg0  1  0.05234473  0.26236033  0.68685386  1
  Bi  Bi0  1  0.87846581  0.28549789  0.31860749  1
  Bi  Bi1  1  0.17059497  0.78216934  0.64320785  1
  O  O0  1  0.05719401  0.02314015  0.83006771  1
  O  O1  1  0.05790094  0.06871088  0.45070938  1
  O  O2  1  0.23311804  0.51060167  0.79184344  1
  O  O3  1  0.71163154  0.48657375  0.17920469  1
  O  O4  1  0.44711215  0.92172546  0.68571387  1
  O  O5  1  0.69949579  0.02433566  0.18137061  1
  O  O6  1  0.13112702  0.43825364  0.28484660  1
  O  O7  1  0.80808626  0.37850560  0.57902586  1
loop_
_geom_bond_atom_site_label_1
_geom_bond_atom_site_label_2
_geom_bond_distance
_geom_bond_site_symmetry_2
K0 O5 2.595893 1_566
K0 O3 2.600889 1_556
K0 O2 2.638183 1_555
K0 O4 2.683288 1_555
K1 O4 2.598531 1_545
K1 O0 2.672497 1_655
K1 O5 2.728818 1_556
K1 O3 2.830370 1_556
K1 O7 2.951601 1_555
K2 O3 2.678352 1_555
K2 O5 2.750234 1_565
K2 O4 2.756055 1_555
K2 O1 3.058947 1_665
K2 O7 3.090681 1_555
K3 O1 2.773669 1_555
K3 O6 2.793744 1_555
K3 O7 2.825652 1_555
K3 O4 2.860684 1_545
K3 O2 3.032794 1_555
K4 O6 2.618862 1_555
K4 O0 2.705761 1_554
K4 O2 2.838808 1_554
K4 O3 2.933505 1_555
K4 O5 3.161074 1_555
K5 O6 2.649181 1_555
K5 O1 2.857076 1_565
K5 O3 2.907386 1_455
K5 O5 2.947281 1_465
K5 O0 3.100310 1_564
Mg0 O2 1.983194 1_555
Mg0 O0 2.027007 1_555
Mg0 O1 2.036789 1_555
Mg0 O7 2.052697 1_455
Bi0 O6 2.091891 1_655
Bi0 O5 2.092597 1_555
Bi0 O3 2.111199 1_555
Bi0 O7 2.148154 1_555
Bi0 O1 2.202218 1_655
Bi1 O4 2.098678 1_555
Bi1 O0 2.192000 1_565
Bi1 O2 2.256964 1_555
Bi1 O1 2.625331 1_565
