# generated using pymatgen
data_SrMg(NiO2)4
_symmetry_space_group_name_H-M   'P 1'
_cell_length_a   6.37989503
_cell_length_b   6.32979223
_cell_length_c   6.37989572
_cell_angle_alpha   55.50113307
_cell_angle_beta   56.26294297
_cell_angle_gamma   55.50113166
_symmetry_Int_Tables_number   1
_chemical_formula_structural   SrMg(NiO2)4
_chemical_formula_sum   'Sr1 Mg1 Ni4 O8'
_cell_volume   164.22241803
_cell_formula_units_Z   1
loop_
 _symmetry_equiv_pos_site_id
 _symmetry_equiv_pos_as_xyz
  1  'x, y, z'
loop_
 _atom_site_type_symbol
 _atom_site_label
 _atom_site_symmetry_multiplicity
 _atom_site_fract_x
 _atom_site_fract_y
 _atom_site_fract_z
 _atom_site_occupancy
  Sr  Sr0  1  0.50000000  0.50000000  0.50000000  1
  Mg  Mg0  1  0.00000000  0.50000000  0.00000000  1
  Ni  Ni0  1  0.00000000  0.00000000  0.00000000  1
  Ni  Ni1  1  0.50000000  0.00000000  0.50000000  1
  Ni  Ni2  1  0.50000000  0.50000000  0.00000000  1
  Ni  Ni3  1  0.00000000  0.50000000  0.50000000  1
  O  O0  1  0.76684800  0.29279300  0.76684800  1
  O  O1  1  0.20492900  0.26357500  0.73516100  1
  O  O2  1  0.23315200  0.70720700  0.23315200  1
  O  O3  1  0.73516100  0.26357500  0.20492900  1
  O  O4  1  0.25779200  0.29314500  0.25779200  1
  O  O5  1  0.74220800  0.70685500  0.74220800  1
  O  O6  1  0.79507100  0.73642500  0.26483900  1
  O  O7  1  0.26483900  0.73642500  0.79507100  1
loop_
_geom_bond_atom_site_label_1
_geom_bond_atom_site_label_2
_geom_bond_distance
_geom_bond_site_symmetry_2
Mg0 O3 2.235624 1_455
Mg0 O7 2.235624 1_554
Mg0 O6 2.235624 1_455
Mg0 O1 2.235624 1_554
Mg0 O5 2.291327 1_454
Mg0 O4 2.291327 1_555
Ni0 O2 2.017932 1_545
Ni0 O0 2.017932 1_454
Ni0 O6 2.042451 1_445
Ni0 O1 2.042451 1_554
Ni0 O7 2.042451 1_544
Ni0 O3 2.042451 1_455
Ni1 O4 2.091648 1_555
Ni1 O5 2.091648 1_545
Ni1 O7 2.172262 1_545
Ni1 O3 2.172262 1_555
Ni1 O6 2.172262 1_545
Ni1 O1 2.172262 1_555
Ni2 O3 1.902342 1_555
Ni2 O7 1.902342 1_554
Ni2 O2 1.923263 1_555
Ni2 O0 1.923263 1_554
Ni2 O4 1.958770 1_555
Ni2 O5 1.958770 1_554
Ni3 O1 1.902342 1_555
Ni3 O6 1.902342 1_455
Ni3 O2 1.923263 1_555
Ni3 O0 1.923263 1_455
Ni3 O5 1.958770 1_455
Ni3 O4 1.958770 1_555
O0 Sr0 2.382774 1_555
O1 Sr0 2.354810 1_555
O2 Sr0 2.382774 1_555
O3 Sr0 2.354810 1_555
O6 Sr0 2.354810 1_555
O7 Sr0 2.354810 1_555
