# generated using pymatgen
data_MgFe2(SbO4)2
_symmetry_space_group_name_H-M   'P 1'
_cell_length_a   5.97316036
_cell_length_b   5.89084040
_cell_length_c   6.05782979
_cell_angle_alpha   69.12091508
_cell_angle_beta   98.37235437
_cell_angle_gamma   62.14192549
_symmetry_Int_Tables_number   1
_chemical_formula_structural   MgFe2(SbO4)2
_chemical_formula_sum   'Mg1 Fe2 Sb2 O8'
_cell_volume   163.02344276
_cell_formula_units_Z   1
loop_
 _symmetry_equiv_pos_site_id
 _symmetry_equiv_pos_as_xyz
  1  'x, y, z'
loop_
 _atom_site_type_symbol
 _atom_site_label
 _atom_site_symmetry_multiplicity
 _atom_site_fract_x
 _atom_site_fract_y
 _atom_site_fract_z
 _atom_site_occupancy
  Mg  Mg0  1  0.49270305  0.51991270  0.49828068  1
  Fe  Fe0  1  0.81065383  0.77002368  0.57681847  1
  Fe  Fe1  1  0.48777921  0.51179919  0.00356045  1
  Sb  Sb0  1  0.18013478  0.24639077  0.42778862  1
  Sb  Sb1  1  -0.00415547  -0.00486642  0.99738865  1
  O  O0  1  0.05905808  0.72300005  0.86334300  1
  O  O1  1  0.59973566  0.22595104  0.85836568  1
  O  O2  1  0.44403653  0.81480719  0.63511646  1
  O  O3  1  0.94271260  0.31811551  0.63874456  1
  O  O4  1  0.50338186  0.22983597  0.36433932  1
  O  O5  1  0.05038950  0.67216513  0.35134812  1
  O  O6  1  0.38746328  0.81427858  0.14035569  1
  O  O7  1  0.92705809  0.27763562  0.15645532  1
loop_
_geom_bond_atom_site_label_1
_geom_bond_atom_site_label_2
_geom_bond_distance
_geom_bond_site_symmetry_2
Mg0 O6 2.001940 1_555
Mg0 O1 2.008084 1_555
Mg0 O2 2.100965 1_555
Mg0 O4 2.117525 1_555
Mg0 O3 2.233625 1_555
Mg0 O5 2.260197 1_555
Fe0 O0 1.952989 1_655
Fe0 O4 2.131449 1_565
Fe0 O5 2.146578 1_655
Fe0 O2 2.177507 1_555
Fe0 O3 2.255951 1_555
Fe1 O1 2.056921 1_554
Fe1 O6 2.102392 1_555
Fe1 O0 2.112563 1_554
Fe1 O7 2.155090 1_555
Fe1 O4 2.180051 1_555
Fe1 O2 2.188749 1_554
O0 Sb1 1.955337 1_565
O1 Sb1 1.937275 1_655
O2 Sb0 1.981917 1_565
O3 Sb0 2.043397 1_655
O3 Sb1 2.174714 1_655
O4 Sb0 1.987995 1_555
O5 Sb0 2.087333 1_555
O5 Sb1 2.152436 1_564
O6 Sb1 1.944285 1_564
O7 Sb0 1.954862 1_655
O7 Sb1 2.118047 1_654
