# generated using pymatgen
data_YTl5Cu2(NO2)12
_symmetry_space_group_name_H-M   'P 1'
_cell_length_a   10.60079894
_cell_length_b   10.60079023
_cell_length_c   10.60078931
_cell_angle_alpha   90.00000000
_cell_angle_beta   90.00000000
_cell_angle_gamma   90.00000000
_symmetry_Int_Tables_number   1
_chemical_formula_structural   YTl5Cu2(NO2)12
_chemical_formula_sum   'Y2 Tl10 Cu4 N24 O48'
_cell_volume   1191.28326600
_cell_formula_units_Z   2
loop_
 _symmetry_equiv_pos_site_id
 _symmetry_equiv_pos_as_xyz
  1  'x, y, z'
loop_
 _atom_site_type_symbol
 _atom_site_label
 _atom_site_symmetry_multiplicity
 _atom_site_fract_x
 _atom_site_fract_y
 _atom_site_fract_z
 _atom_site_occupancy
  Y  Y0  1  0.50000000  0.50000000  0.50000000  1
  Y  Y1  1  -0.00000000  0.00000000  0.00000000  1
  Tl  Tl0  1  0.50000000  0.00000000  0.00000000  1
  Tl  Tl1  1  -0.00000000  0.50000000  0.00000000  1
  Tl  Tl2  1  -0.00000000  0.00000000  0.50000000  1
  Tl  Tl3  1  0.50000000  0.50000000  0.00000000  1
  Tl  Tl4  1  0.50000000  0.00000000  0.50000000  1
  Tl  Tl5  1  -0.00000000  0.50000000  0.50000000  1
  Tl  Tl6  1  0.25000000  0.75000000  0.25000000  1
  Tl  Tl7  1  0.75000000  0.25000000  0.25000000  1
  Tl  Tl8  1  0.25000000  0.25000000  0.75000000  1
  Tl  Tl9  1  0.75000000  0.75000000  0.75000000  1
  Cu  Cu0  1  0.75000000  0.25000000  0.75000000  1
  Cu  Cu1  1  0.25000000  0.75000000  0.75000000  1
  Cu  Cu2  1  0.75000000  0.75000000  0.25000000  1
  Cu  Cu3  1  0.25000000  0.25000000  0.25000000  1
  N  N0  1  0.24400781  0.05458896  0.23993985  1
  N  N1  1  0.55458881  0.73993975  0.25599180  1
  N  N2  1  0.55458881  0.26006025  0.74400820  1
  N  N3  1  0.44541119  0.73993975  0.74400820  1
  N  N4  1  0.26006056  0.74400770  0.55458852  1
  N  N5  1  0.74400781  0.44541104  0.73993985  1
  N  N6  1  0.74400781  0.55458896  0.26006015  1
  N  N7  1  0.73993944  0.25599230  0.55458852  1
  N  N8  1  0.25599219  0.55458896  0.73993985  1
  N  N9  1  0.73993944  0.74400770  0.44541148  1
  N  N10  1  0.26006056  0.25599230  0.44541148  1
  N  N11  1  0.25599219  0.44541104  0.26006015  1
  N  N12  1  0.44541119  0.26006025  0.25599180  1
  N  N13  1  0.94541119  0.76006025  0.24400820  1
  N  N14  1  0.94541119  0.23993975  0.75599180  1
  N  N15  1  0.05458881  0.76006025  0.75599180  1
  N  N16  1  0.05458881  0.23993975  0.24400820  1
  N  N17  1  0.23993944  0.75599230  0.94541148  1
  N  N18  1  0.23993944  0.24400770  0.05458852  1
  N  N19  1  0.76006056  0.75599230  0.05458852  1
  N  N20  1  0.24400781  0.94541104  0.76006015  1
  N  N21  1  0.76006056  0.24400770  0.94541148  1
  N  N22  1  0.75599219  0.94541104  0.23993985  1
  N  N23  1  0.75599219  0.05458896  0.76006015  1
  O  O0  1  0.49600457  0.84212213  0.25358637  1
  O  O1  1  0.34212190  0.75358628  0.00399510  1
  O  O2  1  0.99600457  0.65787787  0.75358637  1
  O  O3  1  0.00399543  0.34212213  0.75358637  1
  O  O4  1  0.00399543  0.65787787  0.24641363  1
  O  O5  1  0.50399543  0.15787787  0.25358637  1
  O  O6  1  0.25358615  0.50399521  0.15787784  1
  O  O7  1  0.15787810  0.25358628  0.50399510  1
  O  O8  1  0.84212190  0.74641372  0.50399510  1
  O  O9  1  0.25358615  0.49600479  0.84212216  1
  O  O10  1  0.84212190  0.25358628  0.49600490  1
  O  O11  1  0.74641385  0.49600479  0.15787784  1
  O  O12  1  0.74641385  0.50399521  0.84212216  1
  O  O13  1  0.15787810  0.74641372  0.49600490  1
  O  O14  1  0.50399543  0.84212213  0.74641363  1
  O  O15  1  0.49600457  0.15787787  0.74641363  1
  O  O16  1  0.99570162  0.14222629  0.20906032  1
  O  O17  1  0.20906075  0.99570187  0.14222661  1
  O  O18  1  0.14222725  0.20906098  0.99570228  1
  O  O19  1  0.85777275  0.79093902  0.99570228  1
  O  O20  1  0.20906075  0.00429813  0.85777339  1
  O  O21  1  0.85777275  0.20906098  0.00429772  1
  O  O22  1  0.79093925  0.00429813  0.14222661  1
  O  O23  1  0.79093925  0.99570187  0.85777339  1
  O  O24  1  0.14222725  0.79093902  0.00429772  1
  O  O25  1  0.99570162  0.85777371  0.79093968  1
  O  O26  1  0.00429838  0.14222629  0.79093968  1
  O  O27  1  0.00429838  0.85777371  0.20906032  1
  O  O28  1  0.50429838  0.35777371  0.29093968  1
  O  O29  1  0.29093925  0.50429813  0.35777339  1
  O  O30  1  0.35777275  0.29093902  0.50429772  1
  O  O31  1  0.64222725  0.70906098  0.50429772  1
  O  O32  1  0.29093925  0.49570187  0.64222661  1
  O  O33  1  0.64222725  0.29093902  0.49570228  1
  O  O34  1  0.70906075  0.49570187  0.35777339  1
  O  O35  1  0.70906075  0.50429813  0.64222661  1
  O  O36  1  0.35777275  0.70906098  0.49570228  1
  O  O37  1  0.50429838  0.64222629  0.70906032  1
  O  O38  1  0.49570162  0.35777371  0.70906032  1
  O  O39  1  0.49570162  0.64222629  0.29093968  1
  O  O40  1  0.99600457  0.34212213  0.24641363  1
  O  O41  1  0.24641385  0.99600479  0.34212216  1
  O  O42  1  0.75358615  0.99600479  0.65787784  1
  O  O43  1  0.65787810  0.75358628  0.99600490  1
  O  O44  1  0.24641385  0.00399521  0.65787784  1
  O  O45  1  0.65787810  0.24641372  0.00399510  1
  O  O46  1  0.75358615  0.00399521  0.34212216  1
  O  O47  1  0.34212190  0.24641372  0.99600490  1
loop_
_geom_bond_atom_site_label_1
_geom_bond_atom_site_label_2
_geom_bond_distance
_geom_bond_site_symmetry_2
Cu0 N23 2.075227 1_555
Cu0 N5 2.075227 1_555
Cu0 N2 2.075230 1_555
Cu0 N14 2.075230 1_555
Cu0 N7 2.075232 1_555
Cu0 N21 2.075232 1_555
Cu1 N8 2.075227 1_555
Cu1 N20 2.075227 1_555
Cu1 N15 2.075230 1_555
Cu1 N3 2.075230 1_555
Cu1 N17 2.075232 1_555
Cu1 N4 2.075232 1_555
Cu2 N6 2.075227 1_555
Cu2 N22 2.075227 1_555
Cu2 N1 2.075230 1_555
Cu2 N13 2.075230 1_555
Cu2 N19 2.075232 1_555
Cu2 N9 2.075232 1_555
Cu3 N0 2.075227 1_555
Cu3 N11 2.075227 1_555
Cu3 N12 2.075230 1_555
Cu3 N16 2.075230 1_555
Cu3 N18 2.075232 1_555
Cu3 N10 2.075232 1_555
N0 O41 1.248876 1_545
N0 O17 1.264869 1_545
N1 O0 1.248877 1_555
N1 O39 1.264874 1_555
N2 O15 1.248877 1_555
N2 O38 1.264874 1_555
N3 O14 1.248877 1_555
N3 O37 1.264874 1_555
N4 O13 1.248875 1_555
N4 O36 1.264855 1_555
N5 O12 1.248876 1_555
N5 O35 1.264869 1_555
N6 O11 1.248876 1_555
N6 O34 1.264869 1_555
N7 O10 1.248875 1_555
N7 O33 1.264855 1_555
N8 O9 1.248876 1_555
N8 O32 1.264869 1_555
N9 O8 1.248875 1_555
N9 O31 1.264855 1_555
N10 O7 1.248875 1_555
N10 O30 1.264855 1_555
N11 O6 1.248876 1_555
N11 O29 1.264869 1_555
N12 O5 1.248877 1_555
N12 O28 1.264874 1_555
N13 O4 1.248877 1_655
N13 O27 1.264874 1_655
N14 O3 1.248877 1_655
N14 O26 1.264874 1_655
N15 O2 1.248877 1_455
N15 O25 1.264874 1_455
N16 O40 1.248877 1_455
N16 O16 1.264874 1_455
N17 O1 1.248875 1_556
N17 O24 1.264855 1_556
N18 O47 1.248875 1_554
N18 O18 1.264855 1_554
N19 O43 1.248875 1_554
N19 O19 1.264855 1_554
N20 O44 1.248876 1_565
N20 O20 1.264869 1_565
N21 O45 1.248875 1_556
N21 O21 1.264855 1_556
N22 O46 1.248876 1_565
N22 O22 1.264869 1_565
N23 O42 1.248876 1_545
N23 O23 1.264869 1_545
O0 Tl6 2.784957 1_555
O1 Tl6 2.784957 1_555
O2 Tl9 2.784957 1_555
O3 Tl8 2.784957 1_555
O4 Tl6 2.784957 1_555
O5 Tl7 2.784957 1_555
O6 Tl6 2.784957 1_555
O7 Tl8 2.784957 1_555
O8 Tl9 2.784957 1_555
O9 Tl8 2.784957 1_555
O10 Tl7 2.784957 1_555
O11 Tl7 2.784957 1_555
O12 Tl9 2.784957 1_555
O13 Tl6 2.784957 1_555
O14 Tl9 2.784957 1_555
O15 Tl8 2.784957 1_555
O16 Y1 2.680827 1_655
O17 Y1 2.680834 1_565
O18 Y1 2.680839 1_556
O19 Y1 2.680839 1_666
O20 Y1 2.680834 1_556
O21 Y1 2.680839 1_655
O22 Y1 2.680834 1_655
O23 Y1 2.680834 1_666
O24 Y1 2.680839 1_565
O25 Y1 2.680827 1_666
O26 Y1 2.680827 1_556
O27 Y1 2.680827 1_565
O28 Y0 2.680827 1_555
O29 Y0 2.680834 1_555
O30 Y0 2.680839 1_555
O31 Y0 2.680839 1_555
O32 Y0 2.680834 1_555
O33 Y0 2.680839 1_555
O34 Y0 2.680834 1_555
O35 Y0 2.680834 1_555
O36 Y0 2.680839 1_555
O37 Y0 2.680827 1_555
O38 Y0 2.680827 1_555
O39 Y0 2.680827 1_555
O40 Tl7 2.784957 1_555
O41 Tl6 2.784957 1_555
O42 Tl9 2.784957 1_555
O43 Tl9 2.784957 1_555
O44 Tl8 2.784957 1_555
O45 Tl7 2.784957 1_555
O46 Tl7 2.784957 1_555
O47 Tl8 2.784957 1_555
