# generated using pymatgen
data_Nb2Te3O11
_symmetry_space_group_name_H-M   'P 1'
_cell_length_a   4.04108615
_cell_length_b   7.81850259
_cell_length_c   15.80393990
_cell_angle_alpha   90.00000000
_cell_angle_beta   90.00000000
_cell_angle_gamma   90.00000000
_symmetry_Int_Tables_number   1
_chemical_formula_structural   Nb2Te3O11
_chemical_formula_sum   'Nb4 Te6 O22'
_cell_volume   499.32931407
_cell_formula_units_Z   2
loop_
 _symmetry_equiv_pos_site_id
 _symmetry_equiv_pos_as_xyz
  1  'x, y, z'
loop_
 _atom_site_type_symbol
 _atom_site_label
 _atom_site_symmetry_multiplicity
 _atom_site_fract_x
 _atom_site_fract_y
 _atom_site_fract_z
 _atom_site_occupancy
  Nb  Nb0  1  0.74667583  0.12909629  0.60255581  1
  Nb  Nb1  1  0.74667583  0.87090371  0.39744419  1
  Nb  Nb2  1  0.25332417  0.62909629  0.89744419  1
  Nb  Nb3  1  0.25332417  0.37090371  0.10255581  1
  Te  Te0  1  0.86441889  0.00000000  -0.00000000  1
  Te  Te1  1  0.13558111  0.50000000  0.50000000  1
  Te  Te2  1  0.14099564  0.18919886  0.79721266  1
  Te  Te3  1  0.14099564  0.81080114  0.20278734  1
  Te  Te4  1  0.85900436  0.68919886  0.70278734  1
  Te  Te5  1  0.85900436  0.31080114  0.29721266  1
  O  O0  1  0.84338444  0.13782605  0.88614730  1
  O  O1  1  0.84338444  0.86217395  0.11385270  1
  O  O2  1  0.15661556  0.63782605  0.61385270  1
  O  O3  1  0.15661556  0.36217395  0.38614730  1
  O  O4  1  0.78521486  0.91670059  0.67329022  1
  O  O5  1  0.78521486  0.08329941  0.32670978  1
  O  O6  1  0.21478514  0.41670059  0.82670978  1
  O  O7  1  0.21478514  0.58329941  0.17329022  1
  O  O8  1  0.80372221  0.35640389  0.54422572  1
  O  O9  1  0.80372221  0.64359611  0.45577428  1
  O  O10  1  0.70315641  0.34954625  0.10795205  1
  O  O11  1  0.70315641  0.65045375  0.89204795  1
  O  O12  1  0.29684359  0.84954625  0.39204795  1
  O  O13  1  0.29684359  0.15045375  0.60795205  1
  O  O14  1  0.19140332  0.24904731  0.22001470  1
  O  O15  1  0.19140332  0.75095269  0.77998530  1
  O  O16  1  0.80859668  0.74904731  0.27998530  1
  O  O17  1  0.80859668  0.25095269  0.72001470  1
  O  O18  1  0.19977447  0.50000000  -0.00000000  1
  O  O19  1  0.80022553  0.00000000  0.50000000  1
  O  O20  1  0.19627779  0.14359611  0.04422572  1
  O  O21  1  0.19627779  0.85640389  0.95577428  1
loop_
_geom_bond_atom_site_label_1
_geom_bond_atom_site_label_2
_geom_bond_distance
_geom_bond_site_symmetry_2
Nb0 O13 1.827455 1_555
Nb0 O19 1.921599 1_555
Nb0 O4 2.007875 1_545
Nb0 O8 2.015292 1_555
Nb0 O17 2.101479 1_555
Nb0 O13 2.231168 1_655
Nb1 O12 1.827455 1_555
Nb1 O19 1.921599 1_565
Nb1 O5 2.007875 1_565
Nb1 O9 2.015292 1_555
Nb1 O16 2.101479 1_555
Nb1 O12 2.231168 1_655
Nb2 O11 1.827455 1_555
Nb2 O18 1.921599 1_556
Nb2 O6 2.007875 1_555
Nb2 O21 2.015292 1_555
Nb2 O15 2.101479 1_555
Nb2 O11 2.231168 1_455
Nb3 O10 1.827455 1_555
Nb3 O18 1.921599 1_555
Nb3 O7 2.007875 1_555
Nb3 O20 2.015292 1_555
Nb3 O14 2.101479 1_555
Nb3 O10 2.231168 1_455
O0 Te2 1.892942 1_655
O0 Te0 2.099045 1_556
O1 Te3 1.892942 1_655
O1 Te0 2.099045 1_565
O2 Te4 1.892942 1_455
O2 Te1 2.099045 1_555
O3 Te5 1.892942 1_455
O3 Te1 2.099045 1_555
O4 Te4 1.862817 1_555
O5 Te5 1.862817 1_555
O6 Te2 1.862817 1_555
O7 Te3 1.862817 1_555
O8 Te1 1.883470 1_655
O9 Te1 1.883470 1_655
O14 Te5 1.877744 1_455
O15 Te4 1.877744 1_455
O16 Te3 1.877744 1_655
O17 Te2 1.877744 1_655
O20 Te0 1.883470 1_455
O21 Te0 1.883470 1_466
