# generated using pymatgen
data_Na9Mg2Ta10Si9(PO8)9
_symmetry_space_group_name_H-M   'P 1'
_cell_length_a   8.85226251
_cell_length_b   8.85173857
_cell_length_c   22.75499409
_cell_angle_alpha   89.98044533
_cell_angle_beta   90.00960556
_cell_angle_gamma   119.84423363
_symmetry_Int_Tables_number   1
_chemical_formula_structural   Na9Mg2Ta10Si9(PO8)9
_chemical_formula_sum   'Na9 Mg2 Ta10 Si9 P9 O72'
_cell_volume   1546.57052853
_cell_formula_units_Z   1
loop_
 _symmetry_equiv_pos_site_id
 _symmetry_equiv_pos_as_xyz
  1  'x, y, z'
loop_
 _atom_site_type_symbol
 _atom_site_label
 _atom_site_symmetry_multiplicity
 _atom_site_fract_x
 _atom_site_fract_y
 _atom_site_fract_z
 _atom_site_occupancy
  Na  Na0  1  0.63577877  0.00730580  0.24792922  1
  Na  Na1  1  0.37464135  0.36566456  0.24724634  1
  Na  Na2  1  0.99358661  0.36516050  0.74750792  1
  Na  Na3  1  0.00014705  0.99945256  0.49882873  1
  Na  Na4  1  0.99982580  0.99931751  0.99923424  1
  Na  Na5  1  0.65693495  0.33229979  0.82905523  1
  Na  Na6  1  0.67613189  0.34189532  0.32976748  1
  Na  Na7  1  0.32714343  0.66500871  0.16539571  1
  Na  Na8  1  0.33987577  0.67143006  0.66601610  1
  Mg  Mg0  1  0.65843521  0.33271946  0.68569382  1
  Mg  Mg1  1  0.67540507  0.34132198  0.18541430  1
  Ta  Ta0  1  0.99344719  0.99785283  0.35593191  1
  Ta  Ta1  1  0.00587922  0.00337156  0.85571900  1
  Ta  Ta2  1  0.00247918  0.00283871  0.64571868  1
  Ta  Ta3  1  0.99737722  0.00103753  0.14580153  1
  Ta  Ta4  1  0.66729408  0.33441827  0.97806476  1
  Ta  Ta5  1  0.66616869  0.33408239  0.47830636  1
  Ta  Ta6  1  0.33298131  0.66628933  0.01960026  1
  Ta  Ta7  1  0.33349658  0.66667658  0.51985273  1
  Ta  Ta8  1  0.32987561  0.66357243  0.31408848  1
  Ta  Ta9  1  0.33765105  0.66745338  0.81335094  1
  Si  Si0  1  0.71208030  0.70435433  0.25004478  1
  Si  Si1  1  0.99574025  0.29190747  0.24981014  1
  Si  Si2  1  0.29971032  0.29073268  0.74980680  1
  Si  Si3  1  0.62297856  0.66802063  0.91712210  1
  Si  Si4  1  0.04569727  0.37973161  0.91648473  1
  Si  Si5  1  0.33473536  0.95474029  0.91679227  1
  Si  Si6  1  0.61984276  0.95500846  0.41690077  1
  Si  Si7  1  0.33241176  0.37686825  0.41722113  1
  Si  Si8  1  0.04430968  0.66708801  0.41745930  1
  P  P0  1  0.28541098  0.99836266  0.24995975  1
  P  P1  1  0.99768767  0.71088173  0.75004153  1
  P  P2  1  0.71135630  0.00008557  0.74975275  1
  P  P3  1  0.95415250  0.33474597  0.58536844  1
  P  P4  1  0.38102128  0.04577376  0.58483934  1
  P  P5  1  0.66611390  0.62039360  0.58479711  1
  P  P6  1  0.95475389  0.62023123  0.08466303  1
  P  P7  1  0.66447845  0.04534469  0.08518141  1
  P  P8  1  0.37955607  0.33376102  0.08512210  1
  O  O0  1  0.19892914  0.02788038  0.30438259  1
  O  O1  1  0.83405176  0.80759186  0.30666161  1
  O  O2  1  0.97588997  0.16658355  0.30607167  1
  O  O3  1  0.18804723  0.16745818  0.80611841  1
  O  O4  1  0.97479929  0.80274529  0.80457360  1
  O  O5  1  0.82795388  0.02380763  0.80424020  1
  O  O6  1  0.79962479  0.96765118  0.69474937  1
  O  O7  1  0.15919278  0.19396416  0.69383848  1
  O  O8  1  0.02765331  0.83085685  0.69523002  1
  O  O9  1  0.80585223  0.84010029  0.19345167  1
  O  O10  1  0.03853078  0.19779530  0.19312073  1
  O  O11  1  0.16821130  0.96772670  0.19457798  1
  O  O12  1  0.88046183  0.36411473  0.64096650  1
  O  O13  1  0.48938124  0.12199223  0.63859592  1
  O  O14  1  0.63498128  0.51191975  0.63850773  1
  O  O15  1  0.87922186  0.51237893  0.13804979  1
  O  O16  1  0.63407324  0.11815399  0.14029707  1
  O  O17  1  0.48271374  0.36329932  0.14026721  1
  O  O18  1  0.46691160  0.30659504  0.02930771  1
  O  O19  1  0.84095501  0.53572290  0.02830297  1
  O  O20  1  0.69451993  0.16024420  0.02934123  1
  O  O21  1  0.46286631  0.15914604  0.52854628  1
  O  O22  1  0.69495237  0.53593483  0.52850286  1
  O  O23  1  0.83965951  0.30522493  0.52970710  1
  O  O24  1  0.52959619  0.69737506  0.97402918  1
  O  O25  1  0.16846076  0.47048997  0.97359895  1
  O  O26  1  0.30293636  0.83235882  0.97407484  1
  O  O27  1  0.52813570  0.83154380  0.47376810  1
  O  O28  1  0.30282765  0.47105281  0.47380518  1
  O  O29  1  0.16749376  0.69623039  0.47423846  1
  O  O30  1  0.13480026  0.63415008  0.35962838  1
  O  O31  1  0.50257970  0.86938874  0.35770337  1
  O  O32  1  0.36677995  0.49819753  0.35829399  1
  O  O33  1  0.13241944  0.49904393  0.85770856  1
  O  O34  1  0.36556453  0.86425682  0.85909884  1
  O  O35  1  0.49842063  0.63386027  0.85949495  1
  O  O36  1  0.02644584  0.83884376  0.40908105  1
  O  O37  1  0.81214851  0.97577120  0.40985988  1
  O  O38  1  0.16405195  0.18608670  0.40843679  1
  O  O39  1  0.02182547  0.18632754  0.90817039  1
  O  O40  1  0.16216637  0.97388080  0.90873586  1
  O  O41  1  0.81316855  0.83726024  0.90755861  1
  O  O42  1  0.97463489  0.16682579  0.59032140  1
  O  O43  1  0.19141980  0.02218107  0.59103583  1
  O  O44  1  0.83099787  0.80822710  0.59044708  1
  O  O45  1  0.97825857  0.80865417  0.08989830  1
  O  O46  1  0.83203927  0.02435033  0.08966428  1
  O  O47  1  0.19257333  0.16752952  0.08922781  1
  O  O48  1  0.70166040  0.16445203  0.74370482  1
  O  O49  1  0.48473061  0.30982285  0.74596733  1
  O  O50  1  0.84546496  0.52898105  0.74416874  1
  O  O51  1  0.67575018  0.51143868  0.24551114  1
  O  O52  1  0.82061006  0.29686417  0.24498143  1
  O  O53  1  0.46490543  0.15727361  0.24353158  1
  O  O54  1  0.64101761  0.49507420  0.92670685  1
  O  O55  1  0.85343476  0.35814797  0.92663812  1
  O  O56  1  0.50446261  0.14657101  0.92701041  1
  O  O57  1  0.64187860  0.14720527  0.42689687  1
  O  O58  1  0.50565153  0.35922139  0.42657801  1
  O  O59  1  0.85371274  0.49485797  0.42697113  1
  O  O60  1  0.35366760  0.49485564  0.07470755  1
  O  O61  1  0.14182870  0.64639616  0.07422064  1
  O  O62  1  0.50542738  0.85847429  0.07470267  1
  O  O63  1  0.35257206  0.85847637  0.57444573  1
  O  O64  1  0.50552793  0.64678229  0.57439970  1
  O  O65  1  0.14070076  0.49353937  0.57494240  1
  O  O66  1  0.30554923  0.83375175  0.25624312  1
  O  O67  1  0.52270642  0.70170059  0.25665123  1
  O  O68  1  0.17908625  0.47864570  0.25634604  1
  O  O69  1  0.29624634  0.47705372  0.75662808  1
  O  O70  1  0.16782685  0.69758722  0.75637426  1
  O  O71  1  0.52980791  0.83345080  0.75649211  1
loop_
_geom_bond_atom_site_label_1
_geom_bond_atom_site_label_2
_geom_bond_distance
_geom_bond_site_symmetry_2
Na0 O52 2.253227 1_555
Na0 O67 2.379877 1_545
Na0 O53 2.461416 1_555
Na0 O66 2.543949 1_545
Na0 O16 2.640928 1_555
Na0 O31 2.772445 1_545
Na0 O9 2.865932 1_545
Na0 O2 2.928814 1_555
Na1 O51 2.312620 1_555
Na1 O53 2.348479 1_555
Na1 O68 2.400647 1_555
Na1 O67 2.594500 1_555
Na1 O17 2.619599 1_555
Na1 O32 2.801718 1_555
Na1 O10 2.859589 1_555
Na1 O0 2.901538 1_555
Na2 O48 2.296194 1_555
Na2 O69 2.358203 1_655
Na2 O50 2.391682 1_555
Na2 O70 2.561528 1_655
Na2 O12 2.621136 1_555
Na2 O33 2.784670 1_655
Na2 O7 2.854802 1_655
Na2 O5 2.921432 1_555
Na3 O37 2.562037 1_455
Na3 O36 2.564664 1_555
Na3 O38 2.584205 1_565
Na3 O42 2.629758 1_465
Na3 O44 2.632405 1_455
Na3 O43 2.640032 1_565
Na4 O40 2.584556 1_655
Na4 O39 2.597870 1_665
Na4 O41 2.604131 1_555
Na4 O47 2.606559 1_666
Na4 O45 2.611143 1_556
Na4 O46 2.611199 1_566
Na5 O49 2.373902 1_555
Na5 O50 2.579584 1_555
Na5 O48 2.593034 1_555
Na5 O54 2.690312 1_555
Na5 O56 2.698677 1_555
Na5 O55 2.758921 1_555
Na6 O51 2.435408 1_555
Na6 O52 2.454708 1_555
Na6 O53 2.641440 1_555
Na6 O59 2.660686 1_555
Na6 O58 2.717644 1_555
Na6 O57 2.724755 1_555
Na7 O68 2.562987 1_555
Na7 O61 2.598588 1_555
Na7 O66 2.612941 1_555
Na7 O67 2.618019 1_555
Na7 O60 2.633697 1_555
Na7 O62 2.644068 1_555
Na8 O69 2.587916 1_555
Na8 O71 2.592912 1_555
Na8 O64 2.619882 1_555
Na8 O63 2.628341 1_555
Na8 O70 2.636873 1_555
Na8 O65 2.668467 1_555
Mg0 O49 1.994228 1_555
Mg0 O14 2.009643 1_555
Mg0 O13 2.022375 1_555
Mg0 O12 2.105441 1_555
Mg0 O50 2.160511 1_555
Mg0 O48 2.161744 1_555
Mg1 O15 1.997514 1_555
Mg1 O51 2.033327 1_555
Mg1 O52 2.036382 1_555
Mg1 O17 2.081437 1_555
Mg1 O16 2.090947 1_555
Mg1 O53 2.202994 1_555
O0 P0 1.545182 1_545
O0 Ta0 2.067506 1_445
O1 Si0 1.636750 1_555
O1 Ta0 1.928695 1_555
O2 Si1 1.644866 1_555
O2 Ta0 1.942150 1_545
O3 Si2 1.653974 1_555
O3 Ta1 1.911093 1_555
O4 P1 1.551386 1_555
O4 Ta1 2.024588 1_665
O5 P2 1.559078 1_555
O5 Ta1 2.041683 1_655
O6 P2 1.575859 1_565
O6 Ta2 2.002536 1_665
O7 Si2 1.686029 1_555
O7 Ta2 1.910621 1_555
O8 P1 1.572453 1_455
O8 Ta2 1.993205 1_565
O9 Si0 1.672665 1_555
O9 Ta3 1.917089 1_565
O10 Si1 1.678228 1_455
O10 Ta3 1.922263 1_455
O11 P0 1.567743 1_555
O11 Ta3 2.012165 1_465
O12 P3 1.504315 1_555
O13 P4 1.492532 1_555
O14 P5 1.492507 1_555
O15 P6 1.482706 1_555
O16 P7 1.494668 1_555
O17 P8 1.496346 1_555
O18 P8 1.566673 1_555
O18 Ta4 2.032850 1_554
O19 P6 1.571409 1_555
O19 Ta4 2.029698 1_554
O20 P7 1.565152 1_555
O20 Ta4 2.040827 1_554
O21 P4 1.564808 1_555
O21 Ta5 2.041920 1_555
O22 P5 1.567068 1_555
O22 Ta5 2.027370 1_555
O23 P3 1.560742 1_555
O23 Ta5 2.044884 1_555
O24 Si3 1.625437 1_555
O24 Ta6 1.924595 1_556
O25 Si4 1.626882 1_555
O25 Ta6 1.925898 1_556
O26 Si5 1.627093 1_555
O26 Ta6 1.921665 1_556
O27 Si6 1.626116 1_555
O27 Ta7 1.922256 1_555
O28 Si7 1.624691 1_555
O28 Ta7 1.924405 1_555
O29 Si8 1.626258 1_555
O29 Ta7 1.920190 1_555
O30 Si8 1.640564 1_555
O30 Ta8 1.917419 1_555
O31 Si6 1.638184 1_555
O31 Ta8 1.967215 1_555
O32 Si7 1.648609 1_555
O32 Ta8 1.932945 1_555
O33 Si4 1.638885 1_555
O33 Ta9 1.961056 1_555
O34 Si5 1.630290 1_555
O34 Ta9 1.937058 1_555
O35 Si3 1.641546 1_555
O35 Ta9 1.907051 1_555
O36 Si8 1.616124 1_555
O36 Ta0 1.984189 1_455
O37 Si6 1.626681 1_555
O37 Ta0 1.951422 1_555
O38 Si7 1.614978 1_555
O38 Ta0 1.995172 1_445
O39 Si4 1.628314 1_555
O39 Ta1 1.959818 1_555
O40 Si5 1.628938 1_555
O40 Ta1 1.948404 1_565
O41 Si3 1.617322 1_555
O41 Ta1 1.991639 1_665
O42 P3 1.588406 1_555
O42 Ta2 2.027705 1_655
O43 P4 1.591140 1_555
O43 Ta2 2.022519 1_555
O44 P5 1.579899 1_555
O44 Ta2 2.062001 1_665
O45 P6 1.579242 1_555
O45 Ta3 2.064302 1_565
O46 P7 1.587257 1_555
O46 Ta3 2.028869 1_555
O47 P8 1.577813 1_555
O47 Ta3 2.068771 1_455
O48 P2 1.505747 1_555
O49 Si2 1.563109 1_555
O50 P1 1.505598 1_555
O51 Si0 1.575949 1_555
O52 Si1 1.576408 1_555
O53 P0 1.516624 1_545
O54 Si3 1.630865 1_555
O54 Ta4 1.941693 1_555
O55 Si4 1.631874 1_655
O55 Ta4 1.945418 1_555
O56 Si5 1.629641 1_545
O56 Ta4 1.951271 1_555
O57 Si6 1.629135 1_545
O57 Ta5 1.948918 1_555
O58 Si7 1.630902 1_555
O58 Ta5 1.941150 1_555
O59 Si8 1.630199 1_655
O59 Ta5 1.947835 1_555
O60 P8 1.570690 1_555
O60 Ta6 2.045465 1_555
O61 P6 1.571913 1_455
O61 Ta6 2.035456 1_555
O62 P7 1.567652 1_565
O62 Ta6 2.052463 1_555
O63 P4 1.566111 1_565
O63 Ta7 2.042097 1_555
O64 P5 1.568974 1_555
O64 Ta7 2.038843 1_555
O65 P3 1.564833 1_455
O65 Ta7 2.056470 1_555
O66 P0 1.560039 1_555
O66 Ta8 2.090345 1_555
O67 Si0 1.671620 1_555
O67 Ta8 2.040338 1_555
O68 Si1 1.648799 1_455
O68 Ta8 2.003461 1_555
O69 Si2 1.672011 1_555
O69 Ta9 2.006812 1_555
O70 P1 1.574586 1_455
O70 Ta9 2.100067 1_555
O71 P2 1.556462 1_565
O71 Ta9 2.058710 1_555
