# generated using pymatgen
data_Nb3Pt
_symmetry_space_group_name_H-M   'P 1'
_cell_length_a   5.19478774
_cell_length_b   5.19475057
_cell_length_c   5.19474955
_cell_angle_alpha   90.00000000
_cell_angle_beta   90.00000000
_cell_angle_gamma   90.00000000
_symmetry_Int_Tables_number   1
_chemical_formula_structural   Nb3Pt
_chemical_formula_sum   'Nb6 Pt2'
_cell_volume   140.18357150
_cell_formula_units_Z   2
loop_
 _symmetry_equiv_pos_site_id
 _symmetry_equiv_pos_as_xyz
  1  'x, y, z'
loop_
 _atom_site_type_symbol
 _atom_site_label
 _atom_site_symmetry_multiplicity
 _atom_site_fract_x
 _atom_site_fract_y
 _atom_site_fract_z
 _atom_site_occupancy
  Nb  Nb0  1  0.25000000  0.00000000  0.50000000  1
  Nb  Nb1  1  0.75000000  0.00000000  0.50000000  1
  Nb  Nb2  1  0.00000000  0.50000000  0.25000097  1
  Nb  Nb3  1  0.00000000  0.50000000  0.74999903  1
  Nb  Nb4  1  0.50000000  0.74999997  -0.00000000  1
  Nb  Nb5  1  0.50000000  0.25000003  -0.00000000  1
  Pt  Pt0  1  0.00000000  0.00000000  -0.00000000  1
  Pt  Pt1  1  0.50000000  0.50000000  0.50000000  1
loop_
_geom_bond_atom_site_label_1
_geom_bond_atom_site_label_2
_geom_bond_distance
_geom_bond_site_symmetry_2
Nb0 Nb1 2.597394 1_455
Nb0 Nb1 2.597394 1_555
Nb0 Pt0 2.903958 1_556
Nb0 Pt0 2.903958 1_555
Nb0 Pt1 2.903958 1_555
Nb0 Pt1 2.903958 1_545
Nb0 Nb3 3.181124 1_545
Nb0 Nb2 3.181124 1_555
Nb0 Nb2 3.181124 1_545
Nb0 Nb3 3.181124 1_555
Nb0 Nb5 3.181126 1_556
Nb0 Nb5 3.181126 1_555
Nb0 Nb4 3.181126 1_545
Nb0 Nb4 3.181126 1_546
Nb1 Pt0 2.903958 1_656
Nb1 Pt0 2.903958 1_655
Nb1 Pt1 2.903958 1_555
Nb1 Pt1 2.903958 1_545
Nb1 Nb3 3.181124 1_655
Nb1 Nb2 3.181124 1_645
Nb1 Nb2 3.181124 1_655
Nb1 Nb3 3.181124 1_645
Nb1 Nb5 3.181126 1_556
Nb1 Nb5 3.181126 1_555
Nb1 Nb4 3.181126 1_545
Nb1 Nb4 3.181126 1_546
Nb2 Nb3 2.597365 1_555
Nb2 Nb3 2.597385 1_554
Nb2 Pt0 2.903956 1_555
Nb2 Pt0 2.903956 1_565
Nb2 Pt1 2.903968 1_455
Nb2 Pt1 2.903968 1_555
Nb2 Nb5 3.181139 1_455
Nb2 Nb4 3.181139 1_555
Nb2 Nb5 3.181139 1_555
Nb2 Nb4 3.181139 1_455
Nb3 Pt0 2.903956 1_566
Nb3 Pt0 2.903956 1_556
Nb3 Pt1 2.903968 1_455
Nb3 Pt1 2.903968 1_555
Nb3 Nb4 3.181139 1_556
Nb3 Nb5 3.181139 1_456
Nb3 Nb5 3.181139 1_556
Nb3 Nb4 3.181139 1_456
Nb4 Nb5 2.597375 1_555
Nb4 Nb5 2.597376 1_565
Nb4 Pt1 2.903953 1_555
Nb4 Pt1 2.903953 1_554
Nb4 Pt0 2.903971 1_565
Nb4 Pt0 2.903971 1_665
Nb5 Pt1 2.903953 1_555
Nb5 Pt1 2.903953 1_554
Nb5 Pt0 2.903971 1_555
Nb5 Pt0 2.903971 1_655
