# generated using pymatgen
data_MgCo6(OF)6
_symmetry_space_group_name_H-M   'P 1'
_cell_length_a   5.02128278
_cell_length_b   4.96197359
_cell_length_c   8.62212094
_cell_angle_alpha   88.35774474
_cell_angle_beta   89.35978748
_cell_angle_gamma   98.06927833
_symmetry_Int_Tables_number   1
_chemical_formula_structural   MgCo6(OF)6
_chemical_formula_sum   'Mg1 Co6 O6 F6'
_cell_volume   212.58482732
_cell_formula_units_Z   1
loop_
 _symmetry_equiv_pos_site_id
 _symmetry_equiv_pos_as_xyz
  1  'x, y, z'
loop_
 _atom_site_type_symbol
 _atom_site_label
 _atom_site_symmetry_multiplicity
 _atom_site_fract_x
 _atom_site_fract_y
 _atom_site_fract_z
 _atom_site_occupancy
  Mg  Mg0  1  0.51957413  0.03376721  0.81378645  1
  Co  Co0  1  0.96913975  0.94914750  0.00218109  1
  Co  Co1  1  0.99568067  0.97542392  0.33197682  1
  Co  Co2  1  0.03727575  0.02519003  0.65397732  1
  Co  Co3  1  0.64065797  0.44922904  0.16951867  1
  Co  Co4  1  0.33322439  0.51954295  0.85272723  1
  Co  Co5  1  0.41997852  0.56348027  0.49041101  1
  O  O0  1  0.14321290  0.82181675  0.82458560  1
  O  O1  1  0.15904929  0.82304769  0.49955344  1
  O  O2  1  0.34401876  0.28918236  0.67165494  1
  O  O3  1  0.63640647  0.70088055  0.98828756  1
  O  O4  1  0.70298211  0.68999754  0.33356157  1
  O  O5  1  0.84836888  0.16429688  0.16258059  1
  F  F0  1  0.15030874  0.75049711  0.15946253  1
  F  F1  1  0.33326862  0.27737605  0.31370807  1
  F  F2  1  0.36123508  0.20753678  -0.00205709  1
  F  F3  1  0.66339366  0.79750916  0.66546502  1
  F  F4  1  0.87689799  0.23215219  0.82765276  1
  F  F5  1  0.89310434  0.22992702  0.49811440  1
loop_
_geom_bond_atom_site_label_1
_geom_bond_atom_site_label_2
_geom_bond_distance
_geom_bond_site_symmetry_2
Mg0 O0 2.029437 1_545
Mg0 O2 2.033181 1_555
Mg0 O3 2.342128 1_545
Co0 O5 1.915131 1_565
Co0 O0 1.920545 1_654
Co0 O3 1.938666 1_554
Co0 F0 1.959809 1_655
Co0 F4 2.127902 1_564
Co0 F2 2.192822 1_665
Co1 O1 1.862854 1_655
Co1 O4 1.892137 1_555
Co1 O5 1.923274 1_565
Co1 F5 2.044943 1_565
Co1 F0 2.091311 1_655
Co1 F1 2.100140 1_665
Co2 O1 1.839365 1_545
Co2 F5 1.874049 1_455
Co2 O0 1.883685 1_545
Co2 O2 1.887259 1_555
Co2 F3 2.050522 1_445
Co2 F4 2.058845 1_455
Co3 O5 1.872888 1_555
Co3 O4 1.878168 1_555
Co3 O3 1.974279 1_554
Co3 F1 2.044981 1_555
Co3 F2 2.295862 1_555
Co4 O0 1.898650 1_555
Co4 O2 1.965885 1_555
Co4 F2 1.984499 1_556
Co4 O3 2.051544 1_555
Co4 F3 2.535432 1_555
Co4 F4 2.538102 1_455
Co5 O1 1.964422 1_555
Co5 O4 1.974923 1_555
Co5 O2 2.039373 1_555
Co5 F1 2.119301 1_555
Co5 F3 2.205384 1_555
F2 Mg0 2.034570 1_554
F3 Mg0 1.958118 1_565
F4 Mg0 1.928273 1_555
