# generated using pymatgen
data_Ce2SeF4
_symmetry_space_group_name_H-M   'P 1'
_cell_length_a   8.02865422
_cell_length_b   8.02865422
_cell_length_c   8.02865412
_cell_angle_alpha   29.86591285
_cell_angle_beta   29.86591285
_cell_angle_gamma   29.86590765
_symmetry_Int_Tables_number   1
_chemical_formula_structural   Ce2SeF4
_chemical_formula_sum   'Ce2 Se1 F4'
_cell_volume   113.65239233
_cell_formula_units_Z   1
loop_
 _symmetry_equiv_pos_site_id
 _symmetry_equiv_pos_as_xyz
  1  'x, y, z'
loop_
 _atom_site_type_symbol
 _atom_site_label
 _atom_site_symmetry_multiplicity
 _atom_site_fract_x
 _atom_site_fract_y
 _atom_site_fract_z
 _atom_site_occupancy
  Ce  Ce0  1  0.75654679  0.75654679  0.75654679  1
  Ce  Ce1  1  0.24345321  0.24345321  0.24345321  1
  Se  Se0  1  0.00000000  0.00000000  0.00000000  1
  F  F0  1  0.86105671  0.86105671  0.86105671  1
  F  F1  1  0.13894329  0.13894329  0.13894329  1
  F  F2  1  0.56863304  0.56863304  0.56863304  1
  F  F3  1  0.43136696  0.43136696  0.43136696  1
loop_
_geom_bond_atom_site_label_1
_geom_bond_atom_site_label_2
_geom_bond_distance
_geom_bond_site_symmetry_2
Ce0 F3 2.396297 1_565
Ce0 F3 2.396297 1_655
Ce0 F3 2.396298 1_556
Ce0 F0 2.403205 1_555
Ce0 F1 2.641958 1_656
Ce0 F1 2.641958 1_566
Ce0 F1 2.641958 1_665
Ce0 Se0 3.158911 1_656
Ce0 Se0 3.158911 1_566
Ce0 Se0 3.158912 1_665
Ce1 F2 2.396297 1_455
Ce1 F2 2.396297 1_545
Ce1 F2 2.396298 1_554
Ce1 F1 2.403205 1_555
Ce1 F0 2.641958 1_454
Ce1 F0 2.641958 1_544
Ce1 F0 2.641958 1_445
Ce1 Se0 3.158911 1_565
Ce1 Se0 3.158911 1_655
Ce1 Se0 3.158912 1_556
