# generated using pymatgen
data_Na8Mg(CoO4)2
_symmetry_space_group_name_H-M   'P 1'
_cell_length_a   5.78596782
_cell_length_b   5.87048159
_cell_length_c   8.85643108
_cell_angle_alpha   72.19209179
_cell_angle_beta   80.05656073
_cell_angle_gamma   68.93982512
_symmetry_Int_Tables_number   1
_chemical_formula_structural   Na8Mg(CoO4)2
_chemical_formula_sum   'Na8 Mg1 Co2 O8'
_cell_volume   266.60899788
_cell_formula_units_Z   1
loop_
 _symmetry_equiv_pos_site_id
 _symmetry_equiv_pos_as_xyz
  1  'x, y, z'
loop_
 _atom_site_type_symbol
 _atom_site_label
 _atom_site_symmetry_multiplicity
 _atom_site_fract_x
 _atom_site_fract_y
 _atom_site_fract_z
 _atom_site_occupancy
  Na  Na0  1  0.94480176  0.74482435  0.30979735  1
  Na  Na1  1  0.47186604  0.36982505  0.93570479  1
  Na  Na2  1  0.46044006  0.23668685  0.32586748  1
  Na  Na3  1  0.43250343  0.08360046  0.72754283  1
  Na  Na4  1  0.91462710  0.44489446  0.63504204  1
  Na  Na5  1  0.42835955  0.85632756  0.14302990  1
  Na  Na6  1  0.97711694  0.31713383  0.17925833  1
  Na  Na7  1  0.03504953  0.62662125  0.84372429  1
  Mg  Mg0  1  0.88788723  0.05700393  0.52990871  1
  Co  Co0  1  0.97774689  0.00204229  0.97369412  1
  Co  Co1  1  0.45392505  0.69498185  0.49438068  1
  O  O0  1  0.71462306  0.07879208  0.12097745  1
  O  O1  1  0.72018609  0.43439539  0.40744019  1
  O  O2  1  0.19460003  0.97499215  0.37936454  1
  O  O3  1  0.27462131  0.51656121  0.63104839  1
  O  O4  1  0.65961355  0.86100228  0.53887338  1
  O  O5  1  0.18162054  0.18766096  0.94666606  1
  O  O6  1  0.87174001  0.05710698  0.76081469  1
  O  O7  1  0.17360583  0.65337406  0.07126278  1
loop_
_geom_bond_atom_site_label_1
_geom_bond_atom_site_label_2
_geom_bond_distance
_geom_bond_site_symmetry_2
Na0 O0 2.302430 1_565
Na0 O7 2.391818 1_655
Na0 O1 2.471428 1_555
Na0 O4 2.487035 1_555
Na0 O2 2.552367 1_655
Na1 O0 2.222788 1_556
Na1 O5 2.268069 1_555
Na1 O7 2.373303 1_556
Na2 O0 2.332870 1_555
Na2 O2 2.439651 1_545
Na2 O4 2.475925 1_545
Na2 O1 2.503825 1_555
Na3 O3 2.301592 1_555
Na3 O5 2.315466 1_555
Na3 O4 2.359987 1_545
Na3 O6 2.552704 1_555
Na4 O3 2.260985 1_655
Na4 O6 2.290044 1_555
Na4 O4 2.332513 1_555
Na4 O1 2.498340 1_555
Na5 O5 2.374568 1_564
Na5 O0 2.402907 1_565
Na5 O2 2.435694 1_555
Na5 O7 2.458672 1_555
Na6 O2 2.352641 1_645
Na6 O5 2.385511 1_654
Na6 O1 2.417784 1_555
Na6 O7 2.487181 1_655
Na6 O0 2.602030 1_555
Na7 O3 2.255140 1_555
Na7 O6 2.281875 1_465
Na7 O5 2.334578 1_555
Na7 O7 2.360149 1_556
Mg0 O4 2.018623 1_545
Mg0 O2 2.029826 1_645
Mg0 O6 2.031133 1_555
Mg0 O1 2.091635 1_555
Co0 O5 1.817387 1_655
Co0 O0 1.844702 1_556
Co0 O7 1.951868 1_646
Co0 O6 1.979732 1_555
Co1 O3 1.791722 1_555
Co1 O2 1.929267 1_555
Co1 O4 1.937005 1_555
Co1 O1 1.980776 1_555
