# generated using pymatgen
data_MgMn6(O5F)2
_symmetry_space_group_name_H-M   'P 1'
_cell_length_a   5.06755492
_cell_length_b   7.55295185
_cell_length_c   5.65890120
_cell_angle_alpha   98.05334312
_cell_angle_beta   98.14033234
_cell_angle_gamma   84.06753100
_symmetry_Int_Tables_number   1
_chemical_formula_structural   MgMn6(O5F)2
_chemical_formula_sum   'Mg1 Mn6 O10 F2'
_cell_volume   211.52544701
_cell_formula_units_Z   1
loop_
 _symmetry_equiv_pos_site_id
 _symmetry_equiv_pos_as_xyz
  1  'x, y, z'
loop_
 _atom_site_type_symbol
 _atom_site_label
 _atom_site_symmetry_multiplicity
 _atom_site_fract_x
 _atom_site_fract_y
 _atom_site_fract_z
 _atom_site_occupancy
  Mg  Mg0  1  0.49034715  0.16222959  0.15835383  1
  Mn  Mn0  1  0.44713510  0.97014475  0.54668051  1
  Mn  Mn1  1  0.51515039  0.66625114  0.15313007  1
  Mn  Mn2  1  0.56235304  0.35197542  0.77862892  1
  Mn  Mn3  1  0.99744565  0.66578793  0.67272681  1
  Mn  Mn4  1  0.00467614  0.33703452  0.32712503  1
  Mn  Mn5  1  0.99681812  0.98412230  0.99188057  1
  O  O0  1  0.86691095  0.43431180  0.62051426  1
  O  O1  1  0.85737014  0.75602192  0.95736436  1
  O  O2  1  0.64974591  0.08874539  0.83763959  1
  O  O3  1  0.67167908  0.75285313  0.47864576  1
  O  O4  1  0.65520177  0.40963524  0.13296367  1
  O  O5  1  0.34421142  0.57746516  0.83637399  1
  O  O6  1  0.35756468  0.23105086  0.49136620  1
  O  O7  1  0.33795896  0.91295401  0.19182954  1
  O  O8  1  0.11802993  0.21869229  0.03120872  1
  O  O9  1  0.13861936  0.89965372  0.71023659  1
  F  F0  1  0.84208150  0.07004729  0.30330933  1
  F  F1  1  0.16058970  0.59138255  0.36752124  1
loop_
_geom_bond_atom_site_label_1
_geom_bond_atom_site_label_2
_geom_bond_distance
_geom_bond_site_symmetry_2
Mg0 O8 1.947957 1_555
Mg0 O6 2.070407 1_555
Mg0 O2 2.072344 1_554
Mg0 O7 2.149175 1_545
Mg0 O4 2.154599 1_555
Mn0 O3 1.922894 1_555
Mn0 O2 1.966146 1_565
Mn0 O7 2.004184 1_555
Mn0 O6 2.033474 1_565
Mn0 O9 2.074684 1_555
Mn1 O5 1.938209 1_554
Mn1 O3 1.950920 1_555
Mn1 O7 1.980339 1_555
Mn1 O4 1.987457 1_555
Mn1 O1 2.385813 1_554
Mn2 O5 1.945911 1_555
Mn2 O6 1.963642 1_555
Mn2 O4 1.990516 1_556
Mn2 O2 2.054890 1_555
Mn2 O0 2.077181 1_555
Mn3 O1 1.865218 1_555
Mn3 O0 1.902761 1_555
Mn3 O9 1.946820 1_655
Mn3 O3 1.956639 1_555
Mn3 O5 1.964809 1_655
Mn4 O0 1.914187 1_455
Mn4 O8 1.918320 1_555
Mn4 O4 2.015268 1_455
Mn4 O6 2.035786 1_555
Mn5 O9 1.846143 1_655
Mn5 O1 1.903669 1_555
Mn5 O8 1.908272 1_666
Mn5 O2 1.987685 1_565
Mn5 O7 1.995536 1_656
F0 Mg0 1.955538 1_555
F0 Mn5 2.026723 1_544
F0 Mn4 2.235928 1_655
F1 Mn3 2.004662 1_455
F1 Mn4 2.122880 1_555
F1 Mn1 2.457554 1_555
