# generated using pymatgen
data_Ga(Bi3O5)4
_symmetry_space_group_name_H-M   'P 1'
_cell_length_a   8.86849331
_cell_length_b   8.86849331
_cell_length_c   8.86849331
_cell_angle_alpha   109.47122063
_cell_angle_beta   109.47122063
_cell_angle_gamma   109.47122063
_symmetry_Int_Tables_number   1
_chemical_formula_structural   Ga(Bi3O5)4
_chemical_formula_sum   'Ga1 Bi12 O20'
_cell_volume   536.94232319
_cell_formula_units_Z   1
loop_
 _symmetry_equiv_pos_site_id
 _symmetry_equiv_pos_as_xyz
  1  'x, y, z'
loop_
 _atom_site_type_symbol
 _atom_site_label
 _atom_site_symmetry_multiplicity
 _atom_site_fract_x
 _atom_site_fract_y
 _atom_site_fract_z
 _atom_site_occupancy
  Ga  Ga0  1  0.00000000  0.00000000  0.00000000  1
  Bi  Bi0  1  0.14079600  0.30550500  0.81359900  1
  Bi  Bi1  1  0.50809400  0.69449500  0.83529000  1
  Bi  Bi2  1  0.85920400  0.67280300  0.16471000  1
  Bi  Bi3  1  0.49190600  0.32719700  0.18640100  1
  Bi  Bi4  1  0.69449500  0.83529000  0.50809400  1
  Bi  Bi5  1  0.67280300  0.16471000  0.85920400  1
  Bi  Bi6  1  0.30550500  0.81359900  0.14079600  1
  Bi  Bi7  1  0.32719700  0.18640100  0.49190600  1
  Bi  Bi8  1  0.16471000  0.85920400  0.67280300  1
  Bi  Bi9  1  0.81359900  0.14079600  0.30550500  1
  Bi  Bi10  1  0.83529000  0.50809400  0.69449500  1
  Bi  Bi11  1  0.18640100  0.49190600  0.32719700  1
  O  O0  1  0.23683400  0.35673300  0.61779600  1
  O  O1  1  0.26106300  0.64326700  0.88010100  1
  O  O2  1  0.76316600  0.38096200  0.11989900  1
  O  O3  1  0.73893700  0.61903800  0.38220400  1
  O  O4  1  0.00000000  0.00000000  0.21354000  1
  O  O5  1  0.21354000  0.00000000  0.00000000  1
  O  O6  1  0.00000000  0.21354000  0.00000000  1
  O  O7  1  0.78646000  0.78646000  0.78646000  1
  O  O8  1  0.00000000  0.00000000  0.61623000  1
  O  O9  1  0.61623000  0.00000000  0.00000000  1
  O  O10  1  0.00000000  0.61623000  0.00000000  1
  O  O11  1  0.38377000  0.38377000  0.38377000  1
  O  O12  1  0.38220400  0.73893700  0.61903800  1
  O  O13  1  0.61903800  0.38220400  0.73893700  1
  O  O14  1  0.35673300  0.61779600  0.23683400  1
  O  O15  1  0.38096200  0.11989900  0.76316600  1
  O  O16  1  0.64326700  0.88010100  0.26106300  1
  O  O17  1  0.11989900  0.76316600  0.38096200  1
  O  O18  1  0.61779600  0.23683400  0.35673300  1
  O  O19  1  0.88010100  0.26106300  0.64326700  1
loop_
_geom_bond_atom_site_label_1
_geom_bond_atom_site_label_2
_geom_bond_distance
_geom_bond_site_symmetry_2
Ga0 O7 1.893778 1_444
Ga0 O4 1.893778 1_555
Ga0 O6 1.893778 1_555
Ga0 O5 1.893778 1_555
Bi0 O19 2.109441 1_455
Bi0 O8 2.256006 1_555
Bi0 O0 2.280599 1_555
Bi0 O6 2.559890 1_556
Bi0 O1 2.594428 1_555
Bi1 O12 2.109434 1_555
Bi1 O9 2.256007 1_566
Bi1 O1 2.280604 1_555
Bi1 O7 2.559885 1_555
Bi1 O0 2.594427 1_555
Bi2 O17 2.109437 1_655
Bi2 O10 2.256013 1_655
Bi2 O2 2.280596 1_555
Bi2 O4 2.559893 1_665
Bi2 O3 2.594419 1_555
Bi3 O18 2.109441 1_555
Bi3 O11 2.256006 1_555
Bi3 O3 2.280599 1_555
Bi3 O5 2.559890 1_555
Bi3 O2 2.594428 1_555
Bi4 O3 2.109434 1_555
Bi4 O8 2.256007 1_665
Bi4 O16 2.280604 1_555
Bi4 O7 2.559885 1_555
Bi4 O14 2.594427 1_555
Bi5 O2 2.109437 1_556
Bi5 O9 2.256013 1_556
Bi5 O15 2.280596 1_555
Bi5 O6 2.559893 1_656
Bi5 O13 2.594419 1_555
Bi6 O1 2.109441 1_554
Bi6 O10 2.256006 1_555
Bi6 O14 2.280599 1_555
Bi6 O5 2.559890 1_565
Bi6 O16 2.594428 1_555
Bi7 O0 2.109441 1_555
Bi7 O11 2.256006 1_555
Bi7 O13 2.280599 1_555
Bi7 O4 2.559890 1_555
Bi7 O15 2.594428 1_555
Bi8 O15 2.109437 1_565
Bi8 O8 2.256013 1_565
Bi8 O17 2.280596 1_555
Bi8 O5 2.559893 1_566
Bi8 O12 2.594419 1_555
Bi9 O16 2.109441 1_545
Bi9 O9 2.256006 1_555
Bi9 O18 2.280599 1_555
Bi9 O4 2.559890 1_655
Bi9 O19 2.594428 1_555
Bi10 O13 2.109434 1_555
Bi10 O10 2.256007 1_656
Bi10 O19 2.280604 1_555
Bi10 O7 2.559885 1_555
Bi10 O18 2.594427 1_555
Bi11 O14 2.109441 1_555
Bi11 O11 2.256006 1_555
Bi11 O12 2.280599 1_555
Bi11 O6 2.559890 1_555
Bi11 O17 2.594428 1_555
