# generated using pymatgen
data_Na4TaGa(SiO4)3
_symmetry_space_group_name_H-M   'P 1'
_cell_length_a   9.03078849
_cell_length_b   9.03078818
_cell_length_c   22.17717419
_cell_angle_alpha   90.00000000
_cell_angle_beta   90.00000000
_cell_angle_gamma   120.00000116
_symmetry_Int_Tables_number   1
_chemical_formula_structural   Na4TaGa(SiO4)3
_chemical_formula_sum   'Na24 Ta6 Ga6 Si18 O72'
_cell_volume   1566.34765421
_cell_formula_units_Z   6
loop_
 _symmetry_equiv_pos_site_id
 _symmetry_equiv_pos_as_xyz
  1  'x, y, z'
loop_
 _atom_site_type_symbol
 _atom_site_label
 _atom_site_symmetry_multiplicity
 _atom_site_fract_x
 _atom_site_fract_y
 _atom_site_fract_z
 _atom_site_occupancy
  Na  Na0  1  0.63756271  0.01054851  0.24801598  1
  Na  Na1  1  0.37298580  0.36243729  0.24801598  1
  Na  Na2  1  0.98945149  0.62701420  0.24801598  1
  Na  Na3  1  0.63756271  0.62701420  0.74801598  1
  Na  Na4  1  0.98945149  0.36243729  0.74801598  1
  Na  Na5  1  0.37298580  0.01054851  0.74801598  1
  Na  Na6  1  0.30422971  0.34388151  0.58134898  1
  Na  Na7  1  0.03965280  0.69577029  0.58134898  1
  Na  Na8  1  0.65611849  0.96034720  0.58134898  1
  Na  Na9  1  0.30422971  0.96034720  0.08134898  1
  Na  Na10  1  0.65611849  0.69577029  0.08134898  1
  Na  Na11  1  0.03965280  0.34388151  0.08134898  1
  Na  Na12  1  0.97089571  0.67721551  0.91468298  1
  Na  Na13  1  0.70631880  0.02910429  0.91468298  1
  Na  Na14  1  0.32278449  0.29368120  0.91468298  1
  Na  Na15  1  0.97089571  0.29368120  0.41468298  1
  Na  Na16  1  0.32278449  0.02910429  0.41468298  1
  Na  Na17  1  0.70631880  0.67721551  0.41468298  1
  Na  Na18  1  -0.00000000  -0.00000000  0.49510351  1
  Na  Na19  1  -0.00000000  -0.00000000  0.99510351  1
  Na  Na20  1  0.66666700  0.33333300  0.82843651  1
  Na  Na21  1  0.66666700  0.33333300  0.32843651  1
  Na  Na22  1  0.33333300  0.66666700  0.16177051  1
  Na  Na23  1  0.33333300  0.66666700  0.66177051  1
  Ta  Ta0  1  0.00000000  -0.00000000  0.64651634  1
  Ta  Ta1  1  0.00000000  -0.00000000  0.14651634  1
  Ta  Ta2  1  0.66666700  0.33333300  0.97984934  1
  Ta  Ta3  1  0.66666700  0.33333300  0.47984934  1
  Ta  Ta4  1  0.33333300  0.66666700  0.31318334  1
  Ta  Ta5  1  0.33333300  0.66666700  0.81318334  1
  Ga  Ga0  1  0.00000000  -0.00000000  0.35099121  1
  Ga  Ga1  1  0.00000000  -0.00000000  0.85099121  1
  Ga  Ga2  1  0.66666700  0.33333300  0.68432421  1
  Ga  Ga3  1  0.66666700  0.33333300  0.18432421  1
  Ga  Ga4  1  0.33333300  0.66666700  0.01765821  1
  Ga  Ga5  1  0.33333300  0.66666700  0.51765821  1
  Si  Si0  1  0.29293964  0.00446675  0.25185597  1
  Si  Si1  1  0.71152711  0.70706036  0.25185597  1
  Si  Si2  1  0.99553325  0.28847289  0.25185597  1
  Si  Si3  1  0.29293964  0.28847289  0.75185597  1
  Si  Si4  1  0.99553325  0.70706036  0.75185597  1
  Si  Si5  1  0.71152711  0.00446675  0.75185597  1
  Si  Si6  1  0.95960664  0.33779975  0.58518897  1
  Si  Si7  1  0.37819411  0.04039336  0.58518897  1
  Si  Si8  1  0.66220025  0.62180589  0.58518897  1
  Si  Si9  1  0.95960664  0.62180589  0.08518897  1
  Si  Si10  1  0.66220025  0.04039336  0.08518897  1
  Si  Si11  1  0.37819411  0.33779975  0.08518897  1
  Si  Si12  1  0.62627264  0.67113375  0.91852297  1
  Si  Si13  1  0.04486011  0.37372736  0.91852297  1
  Si  Si14  1  0.32886625  0.95513989  0.91852297  1
  Si  Si15  1  0.62627264  0.95513989  0.41852297  1
  Si  Si16  1  0.32886625  0.37372736  0.41852297  1
  Si  Si17  1  0.04486011  0.67113375  0.41852297  1
  O  O0  1  0.20642331  0.03653491  0.31007061  1
  O  O1  1  0.83011160  0.79357669  0.31007061  1
  O  O2  1  0.96346509  0.16988840  0.31007061  1
  O  O3  1  0.20642331  0.16988840  0.81007061  1
  O  O4  1  0.96346509  0.79357669  0.81007061  1
  O  O5  1  0.83011160  0.03653491  0.81007061  1
  O  O6  1  0.79946546  0.96456788  0.69207881  1
  O  O7  1  0.16510242  0.20053454  0.69207881  1
  O  O8  1  0.03543212  0.83489758  0.69207881  1
  O  O9  1  0.79946546  0.83489758  0.19207881  1
  O  O10  1  0.03543212  0.20053454  0.19207881  1
  O  O11  1  0.16510242  0.96456788  0.19207881  1
  O  O12  1  0.87309031  0.36986791  0.64340361  1
  O  O13  1  0.49677860  0.12690969  0.64340361  1
  O  O14  1  0.63013209  0.50322140  0.64340361  1
  O  O15  1  0.87309031  0.50322140  0.14340361  1
  O  O16  1  0.63013209  0.12690969  0.14340361  1
  O  O17  1  0.49677860  0.36986791  0.14340361  1
  O  O18  1  0.46613246  0.29790088  0.02541181  1
  O  O19  1  0.83176942  0.53386754  0.02541181  1
  O  O20  1  0.70209912  0.16823058  0.02541181  1
  O  O21  1  0.46613246  0.16823058  0.52541181  1
  O  O22  1  0.70209912  0.53386754  0.52541181  1
  O  O23  1  0.83176942  0.29790088  0.52541181  1
  O  O24  1  0.53975631  0.70320191  0.97673761  1
  O  O25  1  0.16344460  0.46024369  0.97673761  1
  O  O26  1  0.29679809  0.83655540  0.97673761  1
  O  O27  1  0.53975631  0.83655540  0.47673761  1
  O  O28  1  0.29679809  0.46024369  0.47673761  1
  O  O29  1  0.16344460  0.70320191  0.47673761  1
  O  O30  1  0.13279846  0.63123488  0.35874581  1
  O  O31  1  0.49843542  0.86720154  0.35874581  1
  O  O32  1  0.36876512  0.50156458  0.35874581  1
  O  O33  1  0.13279846  0.50156458  0.85874581  1
  O  O34  1  0.36876512  0.86720154  0.85874581  1
  O  O35  1  0.49843542  0.63123488  0.85874581  1
  O  O36  1  0.02054464  0.83580443  0.41124503  1
  O  O37  1  0.81525979  0.97945536  0.41124503  1
  O  O38  1  0.16419557  0.18474021  0.41124503  1
  O  O39  1  0.02054464  0.18474021  0.91124503  1
  O  O40  1  0.16419557  0.97945536  0.91124503  1
  O  O41  1  0.81525979  0.83580443  0.91124503  1
  O  O42  1  0.97227092  0.15989618  0.58919657  1
  O  O43  1  0.18762526  0.02772908  0.58919657  1
  O  O44  1  0.84010382  0.81237474  0.58919657  1
  O  O45  1  0.97227092  0.81237474  0.08919657  1
  O  O46  1  0.84010382  0.02772908  0.08919657  1
  O  O47  1  0.18762526  0.15989618  0.08919657  1
  O  O48  1  0.68721164  0.16913743  0.74457803  1
  O  O49  1  0.48192679  0.31278836  0.74457803  1
  O  O50  1  0.83086257  0.51807321  0.74457803  1
  O  O51  1  0.68721164  0.51807321  0.24457803  1
  O  O52  1  0.83086257  0.31278836  0.24457803  1
  O  O53  1  0.48192679  0.16913743  0.24457803  1
  O  O54  1  0.63893792  0.49322918  0.92252957  1
  O  O55  1  0.85429226  0.36106208  0.92252957  1
  O  O56  1  0.50677082  0.14570774  0.92252957  1
  O  O57  1  0.63893792  0.14570774  0.42252957  1
  O  O58  1  0.50677082  0.36106208  0.42252957  1
  O  O59  1  0.85429226  0.49322918  0.42252957  1
  O  O60  1  0.35387764  0.50247143  0.07791203  1
  O  O61  1  0.14859279  0.64612236  0.07791203  1
  O  O62  1  0.49752857  0.85140721  0.07791203  1
  O  O63  1  0.35387764  0.85140721  0.57791203  1
  O  O64  1  0.49752857  0.64612236  0.57791203  1
  O  O65  1  0.14859279  0.50247143  0.57791203  1
  O  O66  1  0.30560392  0.82656318  0.25586357  1
  O  O67  1  0.52095826  0.69439608  0.25586357  1
  O  O68  1  0.17343682  0.47904174  0.25586357  1
  O  O69  1  0.30560392  0.47904174  0.75586357  1
  O  O70  1  0.17343682  0.69439608  0.75586357  1
  O  O71  1  0.52095826  0.82656318  0.75586357  1
loop_
_geom_bond_atom_site_label_1
_geom_bond_atom_site_label_2
_geom_bond_distance
_geom_bond_site_symmetry_2
Na0 O52 2.395494 1_555
Na0 O53 2.458737 1_555
Na0 O67 2.506846 1_545
Na0 O16 2.561582 1_555
Na0 O66 2.607117 1_545
Na0 O31 2.767360 1_545
Na0 O2 2.896826 1_555
Na0 O9 2.917569 1_545
Na1 O53 2.395501 1_555
Na1 O51 2.458745 1_555
Na1 O68 2.506855 1_555
Na1 O17 2.561585 1_555
Na1 O67 2.607117 1_555
Na1 O32 2.767363 1_555
Na1 O0 2.896826 1_555
Na1 O10 2.917569 1_555
Na2 O51 2.395493 1_555
Na2 O52 2.458745 1_555
Na2 O66 2.506847 1_655
Na2 O15 2.561584 1_555
Na2 O68 2.607109 1_655
Na2 O30 2.767358 1_655
Na2 O1 2.896826 1_555
Na2 O11 2.917569 1_655
Na3 O50 2.395501 1_555
Na3 O49 2.458745 1_555
Na3 O71 2.506855 1_555
Na3 O14 2.561585 1_555
Na3 O69 2.607117 1_555
Na3 O35 2.767363 1_555
Na3 O4 2.896826 1_555
Na3 O6 2.917569 1_555
Na4 O48 2.395494 1_555
Na4 O50 2.458737 1_555
Na4 O69 2.506846 1_655
Na4 O12 2.561582 1_555
Na4 O70 2.607116 1_655
Na4 O33 2.767360 1_655
Na4 O5 2.896826 1_555
Na4 O7 2.917569 1_655
Na5 O49 2.395493 1_555
Na5 O48 2.458745 1_555
Na5 O70 2.506847 1_545
Na5 O13 2.561584 1_555
Na5 O71 2.607109 1_545
Na5 O34 2.767358 1_545
Na5 O3 2.896826 1_555
Na5 O8 2.917569 1_545
Na6 O64 2.395499 1_555
Na6 O65 2.458752 1_555
Na6 O43 2.506846 1_555
Na6 O28 2.561567 1_555
Na6 O42 2.607117 1_455
Na6 O7 2.767360 1_555
Na6 O14 2.896826 1_555
Na6 O21 2.917569 1_555
Na7 O65 2.395485 1_555
Na7 O63 2.458736 1_555
Na7 O44 2.506855 1_455
Na7 O29 2.561560 1_555
Na7 O43 2.607117 1_565
Na7 O8 2.767363 1_555
Na7 O12 2.896826 1_455
Na7 O22 2.917569 1_455
Na8 O63 2.395502 1_555
Na8 O64 2.458736 1_555
Na8 O42 2.506847 1_565
Na8 O27 2.561563 1_555
Na8 O44 2.607109 1_555
Na8 O6 2.767358 1_555
Na8 O13 2.896826 1_565
Na8 O23 2.917569 1_565
Na9 O62 2.395485 1_555
Na9 O61 2.458736 1_555
Na9 O47 2.506855 1_565
Na9 O26 2.561560 1_554
Na9 O45 2.607117 1_455
Na9 O11 2.767363 1_555
Na9 O16 2.896826 1_565
Na9 O18 2.917569 1_565
Na10 O60 2.395499 1_555
Na10 O62 2.458752 1_555
Na10 O45 2.506846 1_555
Na10 O24 2.561567 1_554
Na10 O46 2.607116 1_565
Na10 O9 2.767360 1_555
Na10 O17 2.896826 1_555
Na10 O19 2.917569 1_555
Na11 O61 2.395502 1_555
Na11 O60 2.458737 1_555
Na11 O46 2.506847 1_455
Na11 O25 2.561563 1_554
Na11 O47 2.607109 1_555
Na11 O10 2.767358 1_555
Na11 O15 2.896826 1_455
Na11 O20 2.917569 1_455
Na12 O40 2.395494 1_655
Na12 O41 2.458737 1_555
Na12 O55 2.506854 1_555
Na12 O4 2.561582 1_555
Na12 O54 2.607108 1_555
Na12 O19 2.767341 1_556
Na12 O26 2.896826 1_655
Na12 O33 2.917569 1_655
Na13 O41 2.395501 1_545
Na13 O39 2.458745 1_655
Na13 O56 2.506838 1_555
Na13 O5 2.561585 1_555
Na13 O55 2.607107 1_555
Na13 O20 2.767337 1_556
Na13 O24 2.896826 1_545
Na13 O34 2.917569 1_545
Na14 O39 2.395493 1_555
Na14 O40 2.458745 1_545
Na14 O54 2.506852 1_555
Na14 O3 2.561584 1_555
Na14 O56 2.607123 1_555
Na14 O18 2.767345 1_556
Na14 O25 2.896826 1_555
Na14 O35 2.917569 1_555
Na15 O38 2.395501 1_655
Na15 O37 2.458745 1_545
Na15 O59 2.506838 1_555
Na15 O2 2.561585 1_555
Na15 O57 2.607107 1_555
Na15 O23 2.767337 1_555
Na15 O28 2.896826 1_655
Na15 O30 2.917569 1_655
Na16 O36 2.395494 1_545
Na16 O38 2.458737 1_555
Na16 O57 2.506854 1_555
Na16 O0 2.561582 1_555
Na16 O58 2.607108 1_555
Na16 O21 2.767341 1_555
Na16 O29 2.896826 1_545
Na16 O31 2.917569 1_545
Na17 O37 2.395493 1_555
Na17 O36 2.458745 1_655
Na17 O58 2.506852 1_555
Na17 O1 2.561584 1_555
Na17 O59 2.607123 1_555
Na17 O22 2.767345 1_555
Na17 O27 2.896826 1_555
Na17 O32 2.917569 1_555
Na18 O38 2.442729 1_555
Na18 O36 2.442729 1_545
Na18 O37 2.442729 1_445
Na18 O44 2.619886 1_445
Na18 O42 2.619886 1_455
Na18 O43 2.619886 1_555
Na19 O39 2.442729 1_555
Na19 O41 2.442729 1_445
Na19 O40 2.442729 1_545
Na19 O45 2.619886 1_446
Na19 O47 2.619886 1_556
Na19 O46 2.619886 1_456
Na20 O50 2.442729 1_555
Na20 O48 2.442729 1_555
Na20 O49 2.442729 1_555
Na20 O56 2.619886 1_555
Na20 O54 2.619886 1_555
Na20 O55 2.619886 1_555
Na21 O51 2.442729 1_555
Na21 O53 2.442729 1_555
Na21 O52 2.442729 1_555
Na21 O57 2.619886 1_555
Na21 O59 2.619886 1_555
Na21 O58 2.619886 1_555
Na22 O62 2.442729 1_555
Na22 O60 2.442729 1_555
Na22 O61 2.442729 1_555
Na22 O68 2.619886 1_555
Na22 O66 2.619886 1_555
Na22 O67 2.619886 1_555
Na23 O63 2.442729 1_555
Na23 O65 2.442729 1_555
Na23 O64 2.442729 1_555
Na23 O69 2.619886 1_555
Na23 O71 2.619886 1_555
Na23 O70 2.619886 1_555
Ga0 O1 1.947427 1_445
Ga0 O2 1.947427 1_455
Ga0 O0 1.947427 1_555
Ga0 O38 2.072165 1_555
Ga0 O36 2.072165 1_545
Ga0 O37 2.072165 1_445
Ga1 O4 1.947427 1_445
Ga1 O3 1.947427 1_555
Ga1 O5 1.947427 1_455
Ga1 O39 2.072165 1_555
Ga1 O41 2.072165 1_445
Ga1 O40 2.072165 1_545
Ga2 O13 1.947427 1_555
Ga2 O14 1.947427 1_555
Ga2 O12 1.947427 1_555
Ga2 O50 2.072165 1_555
Ga2 O48 2.072165 1_555
Ga2 O49 2.072165 1_555
Ga3 O16 1.947427 1_555
Ga3 O15 1.947427 1_555
Ga3 O17 1.947427 1_555
Ga3 O51 2.072165 1_555
Ga3 O53 2.072165 1_555
Ga3 O52 2.072165 1_555
Ga4 O25 1.947427 1_554
Ga4 O26 1.947427 1_554
Ga4 O24 1.947427 1_554
Ga4 O62 2.072165 1_555
Ga4 O60 2.072165 1_555
Ga4 O61 2.072165 1_555
Ga5 O28 1.947427 1_555
Ga5 O27 1.947427 1_555
Ga5 O29 1.947427 1_555
Ga5 O63 2.072165 1_555
Ga5 O65 2.072165 1_555
Ga5 O64 2.072165 1_555
O0 Si0 1.608527 1_555
O1 Si1 1.608527 1_555
O2 Si2 1.608527 1_555
O3 Si3 1.608527 1_555
O4 Si4 1.608527 1_555
O5 Si5 1.608527 1_555
O6 Si5 1.674546 1_565
O6 Ta0 1.955397 1_665
O7 Si3 1.674546 1_555
O7 Ta0 1.955397 1_555
O8 Si4 1.674546 1_455
O8 Ta0 1.955397 1_565
O9 Si1 1.674546 1_555
O9 Ta1 1.955397 1_665
O10 Si2 1.674546 1_455
O10 Ta1 1.955397 1_555
O11 Si0 1.674546 1_565
O11 Ta1 1.955397 1_565
O12 Si6 1.608527 1_555
O13 Si7 1.608527 1_555
O14 Si8 1.608527 1_555
O15 Si9 1.608527 1_555
O16 Si10 1.608527 1_555
O17 Si11 1.608527 1_555
O18 Si11 1.674546 1_555
O18 Ta2 1.955397 1_554
O19 Si9 1.674546 1_555
O19 Ta2 1.955397 1_554
O20 Si10 1.674546 1_555
O20 Ta2 1.955397 1_554
O21 Si7 1.674546 1_555
O21 Ta3 1.955397 1_555
O22 Si8 1.674546 1_555
O22 Ta3 1.955397 1_555
O23 Si6 1.674546 1_555
O23 Ta3 1.955397 1_555
O24 Si12 1.608527 1_555
O25 Si13 1.608527 1_555
O26 Si14 1.608527 1_555
O27 Si15 1.608527 1_555
O28 Si16 1.608527 1_555
O29 Si17 1.608527 1_555
O30 Si17 1.674546 1_555
O30 Ta4 1.955397 1_555
O31 Si15 1.674546 1_555
O31 Ta4 1.955397 1_555
O32 Si16 1.674546 1_555
O32 Ta4 1.955397 1_555
O33 Si13 1.674546 1_555
O33 Ta5 1.955397 1_555
O34 Si14 1.674546 1_555
O34 Ta5 1.955397 1_555
O35 Si12 1.674546 1_555
O35 Ta5 1.955397 1_555
O36 Si17 1.616263 1_555
O37 Si15 1.616272 1_555
O38 Si16 1.616268 1_555
O39 Si13 1.616272 1_555
O40 Si14 1.616263 1_555
O41 Si12 1.616268 1_555
O42 Si6 1.669107 1_555
O42 Ta0 2.031092 1_655
O43 Si7 1.669116 1_555
O43 Ta0 2.031092 1_555
O44 Si8 1.669112 1_555
O44 Ta0 2.031092 1_665
O45 Si9 1.669116 1_555
O45 Ta1 2.031092 1_665
O46 Si10 1.669107 1_555
O46 Ta1 2.031092 1_655
O47 Si11 1.669112 1_555
O47 Ta1 2.031092 1_555
O48 Si5 1.616263 1_555
O49 Si3 1.616272 1_555
O50 Si4 1.616268 1_555
O51 Si1 1.616272 1_555
O52 Si2 1.616263 1_555
O53 Si0 1.616268 1_555
O54 Si12 1.669120 1_555
O54 Ta2 2.031092 1_555
O55 Si13 1.669102 1_655
O55 Ta2 2.031092 1_555
O56 Si14 1.669110 1_545
O56 Ta2 2.031092 1_555
O57 Si15 1.669102 1_545
O57 Ta3 2.031092 1_555
O58 Si16 1.669120 1_555
O58 Ta3 2.031092 1_555
O59 Si17 1.669110 1_655
O59 Ta3 2.031092 1_555
O60 Si11 1.616275 1_555
O61 Si9 1.616257 1_455
O62 Si10 1.616264 1_565
O63 Si7 1.616257 1_565
O64 Si8 1.616275 1_555
O65 Si6 1.616264 1_455
O66 Si0 1.669107 1_565
O66 Ta4 2.031092 1_555
O67 Si1 1.669116 1_555
O67 Ta4 2.031092 1_555
O68 Si2 1.669112 1_455
O68 Ta4 2.031092 1_555
O69 Si3 1.669116 1_555
O69 Ta5 2.031092 1_555
O70 Si4 1.669107 1_455
O70 Ta5 2.031092 1_555
O71 Si5 1.669112 1_565
O71 Ta5 2.031092 1_555
