# generated using pymatgen
data_Fe2CuGe2
_symmetry_space_group_name_H-M   'P 1'
_cell_length_a   3.92580044
_cell_length_b   4.94389133
_cell_length_c   6.87457056
_cell_angle_alpha   90.00164360
_cell_angle_beta   90.00000000
_cell_angle_gamma   90.00000000
_symmetry_Int_Tables_number   1
_chemical_formula_structural   Fe2CuGe2
_chemical_formula_sum   'Fe4 Cu2 Ge4'
_cell_volume   133.42668905
_cell_formula_units_Z   2
loop_
 _symmetry_equiv_pos_site_id
 _symmetry_equiv_pos_as_xyz
  1  'x, y, z'
loop_
 _atom_site_type_symbol
 _atom_site_label
 _atom_site_symmetry_multiplicity
 _atom_site_fract_x
 _atom_site_fract_y
 _atom_site_fract_z
 _atom_site_occupancy
  Fe  Fe0  1  0.50000000  0.25001854  0.15324119  1
  Fe  Fe1  1  0.50000000  0.74998146  0.84675881  1
  Fe  Fe2  1  0.50000000  0.50000000  0.50000000  1
  Fe  Fe3  1  0.50000000  -0.00000000  0.50000000  1
  Cu  Cu0  1  -0.00000000  -0.00000000  -0.00000000  1
  Cu  Cu1  1  0.00000000  0.50000000  -0.00000000  1
  Ge  Ge0  1  0.00000000  0.25000643  0.37234358  1
  Ge  Ge1  1  0.00000000  0.74999357  0.62765642  1
  Ge  Ge2  1  0.50000000  0.74997873  0.19395986  1
  Ge  Ge3  1  0.50000000  0.25002127  0.80604014  1
loop_
_geom_bond_atom_site_label_1
_geom_bond_atom_site_label_2
_geom_bond_distance
_geom_bond_site_symmetry_2
Fe0 Ge3 2.386858 1_554
Fe0 Ge0 2.474211 1_555
Fe0 Ge0 2.474211 1_655
Fe0 Ge2 2.487541 1_555
Fe0 Ge2 2.487948 1_545
Fe0 Fe2 2.685111 1_555
Fe0 Fe3 2.685258 1_555
Fe1 Ge2 2.386858 1_556
Fe1 Ge1 2.474211 1_555
Fe1 Ge1 2.474211 1_655
Fe1 Ge3 2.487541 1_555
Fe1 Ge3 2.487948 1_565
Fe1 Fe2 2.685111 1_555
Fe1 Fe3 2.685258 1_565
Fe2 Ge3 2.440059 1_555
Fe2 Ge2 2.440059 1_555
Fe2 Fe3 2.471946 1_555
Fe2 Fe3 2.471946 1_565
Fe2 Ge1 2.480044 1_555
Fe2 Ge1 2.480044 1_655
Fe2 Ge0 2.480044 1_555
Fe2 Ge0 2.480044 1_655
Fe3 Ge3 2.440105 1_555
Fe3 Ge2 2.440105 1_545
Fe3 Ge1 2.480101 1_545
Fe3 Ge0 2.480101 1_555
Fe3 Ge1 2.480101 1_645
Fe3 Ge0 2.480101 1_655
Cu0 Cu1 2.471946 1_555
Cu0 Cu1 2.471946 1_545
Cu0 Fe0 2.547656 1_555
Cu0 Fe0 2.547656 1_455
Cu0 Fe1 2.547656 1_544
Cu0 Fe1 2.547656 1_444
Cu0 Ge2 2.675610 1_445
Cu0 Ge3 2.675610 1_554
Cu0 Ge2 2.675610 1_545
Cu0 Ge3 2.675610 1_454
Cu0 Ge1 2.842464 1_544
Cu0 Ge0 2.842464 1_555
Cu1 Fe0 2.547596 1_455
Cu1 Fe0 2.547596 1_555
Cu1 Fe1 2.547596 1_454
Cu1 Fe1 2.547596 1_554
Cu1 Ge3 2.675478 1_454
Cu1 Ge2 2.675478 1_455
Cu1 Ge3 2.675478 1_554
Cu1 Ge2 2.675478 1_555
Cu1 Ge0 2.842500 1_555
Cu1 Ge1 2.842500 1_554
