# generated using pymatgen
data_Tm6MgWO12
_symmetry_space_group_name_H-M   'P 1'
_cell_length_a   6.47343760
_cell_length_b   6.47343760
_cell_length_c   6.47343850
_cell_angle_alpha   99.58024517
_cell_angle_beta   99.58024517
_cell_angle_gamma   99.58023033
_symmetry_Int_Tables_number   1
_chemical_formula_structural   Tm6MgWO12
_chemical_formula_sum   'Tm6 Mg1 W1 O12'
_cell_volume   258.44759439
_cell_formula_units_Z   1
loop_
 _symmetry_equiv_pos_site_id
 _symmetry_equiv_pos_as_xyz
  1  'x, y, z'
loop_
 _atom_site_type_symbol
 _atom_site_label
 _atom_site_symmetry_multiplicity
 _atom_site_fract_x
 _atom_site_fract_y
 _atom_site_fract_z
 _atom_site_occupancy
  Tm  Tm0  1  0.39482300  0.85824000  0.66835500  1
  Tm  Tm1  1  0.30285600  0.65077500  0.13236100  1
  Tm  Tm2  1  0.13236100  0.30285600  0.65077500  1
  Tm  Tm3  1  0.85824000  0.66835500  0.39482300  1
  Tm  Tm4  1  0.66835500  0.39482300  0.85824000  1
  Tm  Tm5  1  0.65077500  0.13236100  0.30285600  1
  Mg  Mg0  1  0.27257700  0.27257700  0.27257700  1
  W  W0  1  0.98111600  0.98111600  0.98111600  1
  O  O0  1  0.05610700  0.91751700  0.67970200  1
  O  O1  1  0.30653400  0.97937800  0.09660300  1
  O  O2  1  0.18963600  0.55979700  0.41683700  1
  O  O3  1  0.58195900  0.82785500  0.40822400  1
  O  O4  1  0.09660300  0.30653400  0.97937800  1
  O  O5  1  0.40822400  0.58195900  0.82785500  1
  O  O6  1  0.55979700  0.41683700  0.18963600  1
  O  O7  1  0.91751700  0.67970200  0.05610700  1
  O  O8  1  0.41683700  0.18963600  0.55979700  1
  O  O9  1  0.82785500  0.40822400  0.58195900  1
  O  O10  1  0.67970200  0.05610700  0.91751700  1
  O  O11  1  0.97937800  0.09660300  0.30653400  1
loop_
_geom_bond_atom_site_label_1
_geom_bond_atom_site_label_2
_geom_bond_distance
_geom_bond_site_symmetry_2
Mg0 O1 2.109731 1_545
Mg0 O4 2.109732 1_554
Mg0 O11 2.109732 1_455
Mg0 O2 2.130399 1_555
Mg0 O8 2.130399 1_555
Mg0 O6 2.130399 1_555
O0 W0 2.080073 1_455
O0 Tm3 2.275759 1_455
O0 Tm0 2.298842 1_555
O0 Tm2 2.505492 1_565
O1 W0 2.117348 1_454
O1 Tm1 2.174388 1_555
O1 Tm5 2.358863 1_565
O2 Tm1 2.223032 1_555
O2 Tm0 2.350887 1_555
O2 Tm3 2.355786 1_455
O2 Tm2 2.453041 1_555
O3 Tm5 2.192196 1_565
O3 Tm3 2.215580 1_555
O3 Tm0 2.233819 1_555
O3 Tm1 2.307098 1_555
O4 W0 2.117348 1_445
O4 Tm2 2.174389 1_555
O4 Tm1 2.358863 1_556
O5 Tm1 2.192196 1_556
O5 Tm0 2.215580 1_555
O5 Tm4 2.233819 1_555
O5 Tm2 2.307098 1_555
O6 Tm5 2.223032 1_555
O6 Tm3 2.350887 1_555
O6 Tm4 2.355786 1_554
O6 Tm1 2.453040 1_555
O7 W0 2.080073 1_554
O7 Tm4 2.275759 1_554
O7 Tm3 2.298842 1_555
O7 Tm1 2.505492 1_655
O8 Tm2 2.223032 1_555
O8 Tm4 2.350887 1_555
O8 Tm0 2.355786 1_545
O8 Tm5 2.453040 1_555
O9 Tm2 2.192196 1_655
O9 Tm4 2.215580 1_555
O9 Tm3 2.233819 1_555
O9 Tm5 2.307098 1_555
O10 W0 2.080073 1_545
O10 Tm0 2.275759 1_545
O10 Tm4 2.298842 1_555
O10 Tm5 2.505493 1_556
O11 W0 2.117348 1_544
O11 Tm5 2.174388 1_555
O11 Tm2 2.358863 1_655
