# generated using pymatgen
data_PrMgCoO3
_symmetry_space_group_name_H-M   'P 1'
_cell_length_a   4.51719018
_cell_length_b   4.51719018
_cell_length_c   4.51719018
_cell_angle_alpha   81.09956246
_cell_angle_beta   81.09956246
_cell_angle_gamma   81.09956246
_symmetry_Int_Tables_number   1
_chemical_formula_structural   PrMgCoO3
_chemical_formula_sum   'Pr1 Mg1 Co1 O3'
_cell_volume   89.15565531
_cell_formula_units_Z   1
loop_
 _symmetry_equiv_pos_site_id
 _symmetry_equiv_pos_as_xyz
  1  'x, y, z'
loop_
 _atom_site_type_symbol
 _atom_site_label
 _atom_site_symmetry_multiplicity
 _atom_site_fract_x
 _atom_site_fract_y
 _atom_site_fract_z
 _atom_site_occupancy
  Pr  Pr0  1  0.13814017  0.13814017  0.13814017  1
  Mg  Mg0  1  0.73812154  0.73812154  0.73812154  1
  Co  Co0  1  0.45686748  0.45686748  0.45686748  1
  O  O0  1  0.97205782  0.47240500  0.47240500  1
  O  O1  1  0.47240500  0.97205782  0.47240500  1
  O  O2  1  0.47240500  0.47240500  0.97205782  1
loop_
_geom_bond_atom_site_label_1
_geom_bond_atom_site_label_2
_geom_bond_distance
_geom_bond_site_symmetry_2
Mg0 O2 1.912831 1_555
Mg0 O1 1.912831 1_555
Mg0 O0 1.912831 1_555
Co0 O0 2.170773 1_455
Co0 O1 2.170773 1_545
Co0 O2 2.170773 1_554
Co0 O2 2.351251 1_555
Co0 O0 2.351251 1_555
Co0 O1 2.351251 1_555
O0 Pr0 2.264309 1_655
O1 Pr0 2.264309 1_565
O2 Pr0 2.264309 1_556
