# generated using pymatgen
data_Ca5As4(HO2)10
_symmetry_space_group_name_H-M   'P 1'
_cell_length_a   10.69190726
_cell_length_b   10.69190726
_cell_length_c   10.33726468
_cell_angle_alpha   84.23494402
_cell_angle_beta   84.23494402
_cell_angle_gamma   55.01331146
_symmetry_Int_Tables_number   1
_chemical_formula_structural   Ca5As4(HO2)10
_chemical_formula_sum   'Ca10 As8 H20 O40'
_cell_volume   961.94006760
_cell_formula_units_Z   2
loop_
 _symmetry_equiv_pos_site_id
 _symmetry_equiv_pos_as_xyz
  1  'x, y, z'
loop_
 _atom_site_type_symbol
 _atom_site_label
 _atom_site_symmetry_multiplicity
 _atom_site_fract_x
 _atom_site_fract_y
 _atom_site_fract_z
 _atom_site_occupancy
  Ca  Ca0  1  0.79305900  0.85642000  0.36095200  1
  Ca  Ca1  1  0.14358000  0.20694100  0.13904800  1
  Ca  Ca2  1  0.20694100  0.14358000  0.63904800  1
  Ca  Ca3  1  0.85642000  0.79305900  0.86095200  1
  Ca  Ca4  1  0.40017000  0.23605700  0.31494800  1
  Ca  Ca5  1  0.76394300  0.59983000  0.18505200  1
  Ca  Ca6  1  0.59983000  0.76394300  0.68505200  1
  Ca  Ca7  1  0.23605700  0.40017000  0.81494800  1
  Ca  Ca8  1  0.89747500  0.10252500  0.75000000  1
  Ca  Ca9  1  0.10252500  0.89747500  0.25000000  1
  As  As0  1  0.89608400  0.42067500  0.87660400  1
  As  As1  1  0.57932500  0.10391600  0.62339600  1
  As  As2  1  0.10391600  0.57932500  0.12339600  1
  As  As3  1  0.42067500  0.89608400  0.37660400  1
  As  As4  1  0.73131400  0.09864700  0.08367700  1
  As  As5  1  0.90135300  0.26868600  0.41632300  1
  As  As6  1  0.26868600  0.90135300  0.91632300  1
  As  As7  1  0.09864700  0.73131400  0.58367700  1
  H  H0  1  0.50643200  0.55342300  0.64904100  1
  H  H1  1  0.44657700  0.49356800  0.85095900  1
  H  H2  1  0.49356800  0.44657700  0.35095900  1
  H  H3  1  0.55342300  0.50643200  0.14904100  1
  H  H4  1  0.65994500  0.46621300  0.73294000  1
  H  H5  1  0.53378700  0.34005500  0.76706000  1
  H  H6  1  0.34005500  0.53378700  0.26706000  1
  H  H7  1  0.46621300  0.65994500  0.23294000  1
  H  H8  1  0.56668500  0.84530000  0.97708900  1
  H  H9  1  0.15470000  0.43331500  0.52291100  1
  H  H10  1  0.43331500  0.15470000  0.02291100  1
  H  H11  1  0.84530000  0.56668500  0.47708900  1
  H  H12  1  0.61014500  0.92051800  0.07615100  1
  H  H13  1  0.07948200  0.38985500  0.42384900  1
  H  H14  1  0.38985500  0.07948200  0.92384900  1
  H  H15  1  0.92051800  0.61014500  0.57615100  1
  H  H16  1  0.72857100  0.30676400  0.98745600  1
  H  H17  1  0.69323600  0.27142900  0.51254400  1
  H  H18  1  0.27142900  0.69323600  0.01254400  1
  H  H19  1  0.30676400  0.72857100  0.48745600  1
  O  O0  1  0.59415300  0.55254100  0.66991000  1
  O  O1  1  0.44745900  0.40584700  0.83009000  1
  O  O2  1  0.40584700  0.44745900  0.33009000  1
  O  O3  1  0.55254100  0.59415300  0.16991000  1
  O  O4  1  0.65219200  0.82797700  0.02680300  1
  O  O5  1  0.17202300  0.34780800  0.47319700  1
  O  O6  1  0.34780800  0.17202300  0.97319700  1
  O  O7  1  0.82797700  0.65219200  0.52680300  1
  O  O8  1  0.79717300  0.34304200  0.84708200  1
  O  O9  1  0.65695800  0.20282700  0.65291800  1
  O  O10  1  0.20282700  0.65695800  0.15291800  1
  O  O11  1  0.34304200  0.79717300  0.34708200  1
  O  O12  1  0.07428300  0.32426100  0.79835600  1
  O  O13  1  0.67573900  0.92571700  0.70164400  1
  O  O14  1  0.92571700  0.67573900  0.20164400  1
  O  O15  1  0.32426100  0.07428300  0.29835600  1
  O  O16  1  0.79810300  0.61033700  0.82531800  1
  O  O17  1  0.38966300  0.20189700  0.67468200  1
  O  O18  1  0.20189700  0.38966300  0.17468200  1
  O  O19  1  0.61033700  0.79810300  0.32531800  1
  O  O20  1  0.91904700  0.40466900  0.04158300  1
  O  O21  1  0.59533100  0.08095300  0.45841700  1
  O  O22  1  0.08095300  0.59533100  0.95841700  1
  O  O23  1  0.40466900  0.91904700  0.54158300  1
  O  O24  1  0.80873300  0.02036900  0.93601200  1
  O  O25  1  0.97963100  0.19126700  0.56398800  1
  O  O26  1  0.19126700  0.97963100  0.06398800  1
  O  O27  1  0.02036900  0.80873300  0.43601200  1
  O  O28  1  0.56772600  0.10622400  0.12984800  1
  O  O29  1  0.89377600  0.43227400  0.37015200  1
  O  O30  1  0.43227400  0.89377600  0.87015200  1
  O  O31  1  0.10622400  0.56772600  0.62984800  1
  O  O32  1  0.85304800  0.99569700  0.20505200  1
  O  O33  1  0.00430300  0.14695200  0.29494800  1
  O  O34  1  0.14695200  0.00430300  0.79494800  1
  O  O35  1  0.99569700  0.85304800  0.70505200  1
  O  O36  1  0.68193900  0.28794100  0.07156500  1
  O  O37  1  0.71205900  0.31806100  0.42843500  1
  O  O38  1  0.31806100  0.71205900  0.92843500  1
  O  O39  1  0.28794100  0.68193900  0.57156500  1
loop_
_geom_bond_atom_site_label_1
_geom_bond_atom_site_label_2
_geom_bond_distance
_geom_bond_site_symmetry_2
Ca0 O14 2.341659 1_555
Ca0 O21 2.342137 1_565
Ca0 O32 2.373105 1_555
Ca0 O27 2.376357 1_655
Ca0 O19 2.434922 1_555
Ca0 O7 2.507665 1_555
Ca1 O15 2.341659 1_555
Ca1 O20 2.342137 1_455
Ca1 O33 2.373105 1_555
Ca1 O26 2.376357 1_545
Ca1 O18 2.434922 1_555
Ca1 O6 2.507665 1_554
Ca2 O12 2.341659 1_555
Ca2 O23 2.342137 1_545
Ca2 O34 2.373105 1_555
Ca2 O25 2.376357 1_455
Ca2 O17 2.434922 1_555
Ca2 O5 2.507665 1_555
Ca3 O13 2.341659 1_555
Ca3 O22 2.342137 1_655
Ca3 O35 2.373105 1_555
Ca3 O24 2.376357 1_565
Ca3 O16 2.434922 1_555
Ca3 O4 2.507665 1_556
Ca4 O2 2.316768 1_555
Ca4 O15 2.318907 1_555
Ca4 O18 2.332428 1_555
Ca4 O21 2.337320 1_555
Ca4 O28 2.406391 1_555
Ca4 O5 2.510502 1_555
Ca5 O3 2.316768 1_555
Ca5 O14 2.318907 1_555
Ca5 O19 2.332428 1_555
Ca5 O20 2.337320 1_555
Ca5 O29 2.406391 1_555
Ca5 O4 2.510502 1_555
Ca6 O0 2.316768 1_555
Ca6 O13 2.318907 1_555
Ca6 O16 2.332428 1_555
Ca6 O23 2.337320 1_555
Ca6 O30 2.406391 1_555
Ca6 O7 2.510502 1_555
Ca7 O1 2.316768 1_555
Ca7 O12 2.318907 1_555
Ca7 O17 2.332428 1_555
Ca7 O22 2.337320 1_555
Ca7 O31 2.406391 1_555
Ca7 O6 2.510502 1_555
Ca8 O34 2.317820 1_655
Ca8 O35 2.317820 1_545
Ca8 O25 2.370474 1_555
Ca8 O24 2.370474 1_555
Ca8 O8 2.431036 1_555
Ca8 O9 2.431036 1_555
Ca9 O32 2.317820 1_455
Ca9 O33 2.317820 1_565
Ca9 O26 2.370474 1_555
Ca9 O27 2.370474 1_555
Ca9 O10 2.431036 1_555
Ca9 O11 2.431036 1_555
As0 O16 1.717592 1_555
As0 O12 1.718316 1_655
As0 O20 1.724925 1_556
As0 O8 1.738646 1_555
As1 O17 1.717592 1_555
As1 O13 1.718316 1_545
As1 O21 1.724925 1_555
As1 O9 1.738646 1_555
As2 O18 1.717592 1_555
As2 O14 1.718316 1_455
As2 O22 1.724925 1_554
As2 O10 1.738646 1_555
As3 O19 1.717592 1_555
As3 O15 1.718316 1_565
As3 O23 1.724925 1_555
As3 O11 1.738646 1_555
As4 O32 1.699293 1_545
As4 O24 1.709988 1_554
As4 O28 1.723706 1_555
As4 O36 1.768530 1_555
As5 O33 1.699293 1_655
As5 O25 1.709988 1_555
As5 O29 1.723706 1_555
As5 O37 1.768530 1_555
As6 O34 1.699293 1_565
As6 O26 1.709988 1_556
As6 O30 1.723706 1_555
As6 O38 1.768530 1_555
As7 O35 1.699293 1_455
As7 O27 1.709988 1_555
As7 O31 1.723706 1_555
As7 O39 1.768530 1_555
H0 O0 0.977952 1_555
H1 O1 0.977952 1_555
H2 O2 0.977952 1_555
H3 O3 0.977952 1_555
H4 O0 0.998992 1_555
H4 O8 1.760415 1_555
H5 O1 0.998992 1_555
H5 O9 1.760415 1_555
H6 O2 0.998992 1_555
H6 O10 1.760415 1_555
H7 O3 0.998992 1_555
H7 O11 1.760415 1_555
H8 O4 1.007626 1_556
H8 O30 1.704635 1_555
H9 O5 1.007626 1_555
H9 O31 1.704635 1_555
H10 O6 1.007626 1_554
H10 O28 1.704635 1_555
H11 O7 1.007626 1_555
H11 O29 1.704635 1_555
H12 O4 0.993252 1_555
H13 O5 0.993252 1_555
H14 O6 0.993252 1_555
H15 O7 0.993252 1_555
H16 O36 1.018760 1_556
H16 O8 1.671364 1_555
H17 O37 1.018760 1_555
H17 O9 1.671364 1_555
H18 O38 1.018760 1_554
H18 O10 1.671364 1_555
H19 O39 1.018760 1_555
H19 O11 1.671364 1_555
