# generated using pymatgen
data_Rb3PbCl5
_symmetry_space_group_name_H-M   'P 1'
_cell_length_a   8.34609647
_cell_length_b   8.73026057
_cell_length_c   15.83935249
_cell_angle_alpha   90.00000000
_cell_angle_beta   90.00000000
_cell_angle_gamma   90.00000000
_symmetry_Int_Tables_number   1
_chemical_formula_structural   Rb3PbCl5
_chemical_formula_sum   'Rb12 Pb4 Cl20'
_cell_volume   1154.11219539
_cell_formula_units_Z   4
loop_
 _symmetry_equiv_pos_site_id
 _symmetry_equiv_pos_as_xyz
  1  'x, y, z'
loop_
 _atom_site_type_symbol
 _atom_site_label
 _atom_site_symmetry_multiplicity
 _atom_site_fract_x
 _atom_site_fract_y
 _atom_site_fract_z
 _atom_site_occupancy
  Rb  Rb0  1  0.96721094  0.26233352  0.04608902  1
  Rb  Rb1  1  0.46721094  0.23766648  0.95391098  1
  Rb  Rb2  1  0.53278906  0.76233352  0.45391098  1
  Rb  Rb3  1  0.03278906  0.73766648  0.54608902  1
  Rb  Rb4  1  0.03278906  0.73766648  0.95391098  1
  Rb  Rb5  1  0.53278906  0.76233352  0.04608902  1
  Rb  Rb6  1  0.46721094  0.23766648  0.54608902  1
  Rb  Rb7  1  0.96721094  0.26233352  0.45391098  1
  Rb  Rb8  1  0.13663980  0.08043215  0.75000000  1
  Rb  Rb9  1  0.63663980  0.41956785  0.25000000  1
  Rb  Rb10  1  0.36336020  0.58043215  0.75000000  1
  Rb  Rb11  1  0.86336020  0.91956785  0.25000000  1
  Pb  Pb0  1  0.64222696  0.93310065  0.75000000  1
  Pb  Pb1  1  0.14222696  0.56689935  0.25000000  1
  Pb  Pb2  1  0.85777304  0.43310065  0.75000000  1
  Pb  Pb3  1  0.35777304  0.06689935  0.25000000  1
  Cl  Cl0  1  0.12813452  0.39079083  0.87476769  1
  Cl  Cl1  1  0.62813452  0.10920917  0.12523231  1
  Cl  Cl2  1  0.37186548  0.89079083  0.62523231  1
  Cl  Cl3  1  0.87186548  0.60920917  0.37476769  1
  Cl  Cl4  1  0.87186548  0.60920917  0.12523231  1
  Cl  Cl5  1  0.37186548  0.89079083  0.87476769  1
  Cl  Cl6  1  0.62813452  0.10920917  0.37476769  1
  Cl  Cl7  1  0.12813452  0.39079083  0.62523231  1
  Cl  Cl8  1  0.17657218  0.95188625  0.11337031  1
  Cl  Cl9  1  0.67657218  0.54811375  0.88662969  1
  Cl  Cl10  1  0.32342782  0.45188625  0.38662969  1
  Cl  Cl11  1  0.82342782  0.04811375  0.61337031  1
  Cl  Cl12  1  0.82342782  0.04811375  0.88662969  1
  Cl  Cl13  1  0.32342782  0.45188625  0.11337031  1
  Cl  Cl14  1  0.67657218  0.54811375  0.61337031  1
  Cl  Cl15  1  0.17657218  0.95188625  0.38662969  1
  Cl  Cl16  1  0.02218716  0.27613044  0.25000000  1
  Cl  Cl17  1  0.52218716  0.22386956  0.75000000  1
  Cl  Cl18  1  0.47781284  0.77613044  0.25000000  1
  Cl  Cl19  1  0.97781284  0.72386956  0.75000000  1
loop_
_geom_bond_atom_site_label_1
_geom_bond_atom_site_label_2
_geom_bond_distance
_geom_bond_site_symmetry_2
Cl0 Pb2 3.022182 1_455
Cl0 Rb0 3.228821 1_456
Cl0 Rb10 3.240496 1_555
Cl0 Rb8 3.354403 1_555
Cl0 Rb1 3.371533 1_555
Cl0 Rb4 3.372742 1_555
Cl1 Pb3 3.022182 1_555
Cl1 Rb1 3.228821 1_554
Cl1 Rb11 3.240496 1_545
Cl1 Rb9 3.354403 1_555
Cl1 Rb0 3.371533 1_555
Cl1 Rb5 3.372742 1_545
Cl2 Pb0 3.022182 1_555
Cl2 Rb2 3.228821 1_555
Cl2 Rb8 3.240496 1_565
Cl2 Rb10 3.354403 1_555
Cl2 Rb3 3.371533 1_555
Cl2 Rb6 3.372742 1_565
Cl3 Pb1 3.022182 1_655
Cl3 Rb3 3.228821 1_655
Cl3 Rb9 3.240496 1_555
Cl3 Rb11 3.354403 1_555
Cl3 Rb2 3.371533 1_555
Cl3 Rb7 3.372742 1_555
Cl4 Pb1 3.022182 1_655
Cl4 Rb4 3.228821 1_654
Cl4 Rb9 3.240496 1_555
Cl4 Rb11 3.354403 1_555
Cl4 Rb5 3.371533 1_555
Cl4 Rb0 3.372742 1_555
Cl5 Pb0 3.022182 1_555
Cl5 Rb5 3.228821 1_556
Cl5 Rb8 3.240496 1_565
Cl5 Rb10 3.354403 1_555
Cl5 Rb4 3.371533 1_555
Cl5 Rb1 3.372742 1_565
Cl6 Pb3 3.022182 1_555
Cl6 Rb6 3.228821 1_555
Cl6 Rb11 3.240496 1_545
Cl6 Rb9 3.354403 1_555
Cl6 Rb7 3.371533 1_555
Cl6 Rb2 3.372742 1_545
Cl7 Pb2 3.022182 1_455
Cl7 Rb7 3.228821 1_455
Cl7 Rb10 3.240496 1_555
Cl7 Rb8 3.354403 1_555
Cl7 Rb6 3.371533 1_555
Cl7 Rb3 3.372742 1_555
Cl8 Pb3 2.824669 1_565
Cl8 Rb4 3.364078 1_554
Cl8 Rb0 3.396259 1_465
Cl8 Rb11 3.405371 1_455
Cl8 Rb5 3.565538 1_555
Cl9 Pb2 2.824669 1_555
Cl9 Rb5 3.364078 1_556
Cl9 Rb1 3.396259 1_555
Cl9 Rb10 3.405371 1_555
Cl9 Rb4 3.565538 1_655
Cl10 Pb1 2.824669 1_555
Cl10 Rb6 3.364078 1_555
Cl10 Rb2 3.396259 1_555
Cl10 Rb9 3.405371 1_555
Cl10 Rb7 3.565538 1_455
Cl11 Pb0 2.824669 1_545
Cl11 Rb7 3.364078 1_555
Cl11 Rb3 3.396259 1_645
Cl11 Rb8 3.405371 1_655
Cl11 Rb6 3.565538 1_555
Cl12 Pb0 2.824669 1_545
Cl12 Rb0 3.364078 1_556
Cl12 Rb4 3.396259 1_645
Cl12 Rb8 3.405371 1_655
Cl12 Rb1 3.565538 1_555
Cl13 Pb1 2.824669 1_555
Cl13 Rb1 3.364078 1_554
Cl13 Rb5 3.396259 1_555
Cl13 Rb9 3.405371 1_555
Cl13 Rb0 3.565538 1_455
Cl14 Pb2 2.824669 1_555
Cl14 Rb2 3.364078 1_555
Cl14 Rb6 3.396259 1_555
Cl14 Rb10 3.405371 1_555
Cl14 Rb3 3.565538 1_655
Cl15 Pb3 2.824669 1_565
Cl15 Rb3 3.364078 1_555
Cl15 Rb7 3.396259 1_465
Cl15 Rb11 3.405371 1_455
Cl15 Rb2 3.565538 1_555
Cl16 Pb1 2.729039 1_555
Cl16 Rb0 3.264470 1_455
Cl16 Rb7 3.264470 1_455
Cl16 Rb11 3.383375 1_445
Cl16 Rb9 3.452891 1_455
Cl17 Pb0 2.729039 1_545
Cl17 Rb6 3.264470 1_555
Cl17 Rb1 3.264470 1_555
Cl17 Rb10 3.383375 1_555
Cl17 Rb8 3.452891 1_555
Cl18 Pb3 2.729039 1_565
Cl18 Rb5 3.264470 1_555
Cl18 Rb2 3.264470 1_555
Cl18 Rb9 3.383375 1_555
Cl18 Rb11 3.452891 1_555
Cl19 Pb2 2.729039 1_555
Cl19 Rb3 3.264470 1_655
Cl19 Rb4 3.264470 1_655
Cl19 Rb8 3.383375 1_665
Cl19 Rb10 3.452891 1_655
