# generated using pymatgen
data_MgZn(NiO2)4
_symmetry_space_group_name_H-M   'P 1'
_cell_length_a   2.95965192
_cell_length_b   7.18804050
_cell_length_c   7.29444914
_cell_angle_alpha   79.15308351
_cell_angle_beta   78.18283970
_cell_angle_gamma   77.80630332
_symmetry_Int_Tables_number   1
_chemical_formula_structural   MgZn(NiO2)4
_chemical_formula_sum   'Mg1 Zn1 Ni4 O8'
_cell_volume   146.75363068
_cell_formula_units_Z   1
loop_
 _symmetry_equiv_pos_site_id
 _symmetry_equiv_pos_as_xyz
  1  'x, y, z'
loop_
 _atom_site_type_symbol
 _atom_site_label
 _atom_site_symmetry_multiplicity
 _atom_site_fract_x
 _atom_site_fract_y
 _atom_site_fract_z
 _atom_site_occupancy
  Mg  Mg0  1  0.66551700  0.83028000  0.83927000  1
  Zn  Zn0  1  0.31828200  0.15231000  0.21150600  1
  Ni  Ni0  1  0.62843900  0.17536800  0.56782800  1
  Ni  Ni1  1  0.13545500  0.52347000  0.21071000  1
  Ni  Ni2  1  0.84714000  0.46109300  0.84177300  1
  Ni  Ni3  1  0.35442100  0.80643300  0.48641200  1
  O  O0  1  0.85787500  0.66527200  0.62093000  1
  O  O1  1  0.45651400  0.30395300  0.78020400  1
  O  O2  1  0.52679100  0.68302700  0.26815700  1
  O  O3  1  0.12058700  0.32212000  0.43633800  1
  O  O4  1  0.16226000  0.98560600  0.68769800  1
  O  O5  1  0.78047700  0.33331100  0.10140900  1
  O  O6  1  0.81972200  0.99868100  0.36686800  1
  O  O7  1  0.20733700  0.64259100  0.94672700  1
loop_
_geom_bond_atom_site_label_1
_geom_bond_atom_site_label_2
_geom_bond_distance
_geom_bond_site_symmetry_2
Mg0 O4 2.047794 1_655
Mg0 O4 2.048140 1_555
Mg0 O7 2.051573 1_655
Mg0 O7 2.052528 1_555
Mg0 O0 2.078910 1_555
Ni0 O1 1.878960 1_555
Ni0 O3 1.957496 1_555
Ni0 O3 1.962241 1_655
Ni0 O6 2.034550 1_545
Ni0 O4 2.080341 1_645
Ni0 O4 2.093022 1_545
Ni1 O2 1.932633 1_455
Ni1 O2 1.942491 1_555
Ni1 O7 1.942935 1_554
Ni1 O3 1.976392 1_555
Ni1 O5 2.198386 1_555
Ni1 O5 2.228828 1_455
Ni2 O1 1.931033 1_655
Ni2 O5 1.933450 1_556
Ni2 O1 1.941489 1_555
Ni2 O0 1.964428 1_555
Ni2 O7 2.147649 1_555
Ni2 O7 2.173092 1_655
Ni3 O2 1.894580 1_555
Ni3 O0 1.948860 1_555
Ni3 O0 1.953633 1_455
Ni3 O4 2.048961 1_555
Ni3 O6 2.088600 1_455
Ni3 O6 2.103573 1_555
O3 Zn0 2.140235 1_555
O5 Zn0 2.029172 1_555
O5 Zn0 2.031435 1_655
O6 Zn0 2.052677 1_665
O6 Zn0 2.057142 1_565
