# generated using pymatgen
data_MgFe6(O5F)2
_symmetry_space_group_name_H-M   'P 1'
_cell_length_a   11.79531595
_cell_length_b   6.72878423
_cell_length_c   2.92363202
_cell_angle_alpha   89.98898088
_cell_angle_beta   89.99400086
_cell_angle_gamma   75.94057964
_symmetry_Int_Tables_number   1
_chemical_formula_structural   MgFe6(O5F)2
_chemical_formula_sum   'Mg1 Fe6 O10 F2'
_cell_volume   225.09220474
_cell_formula_units_Z   1
loop_
 _symmetry_equiv_pos_site_id
 _symmetry_equiv_pos_as_xyz
  1  'x, y, z'
loop_
 _atom_site_type_symbol
 _atom_site_label
 _atom_site_symmetry_multiplicity
 _atom_site_fract_x
 _atom_site_fract_y
 _atom_site_fract_z
 _atom_site_occupancy
  Mg  Mg0  1  0.16269600  0.18755300  0.99050100  1
  Fe  Fe0  1  0.97931600  0.02318300  0.98968000  1
  Fe  Fe1  1  0.94635300  0.55829100  0.48996100  1
  Fe  Fe2  1  0.36803100  0.30810200  0.99055200  1
  Fe  Fe3  1  0.65187600  0.17121200  0.49002300  1
  Fe  Fe4  1  0.39598800  0.75021500  0.49017500  1
  Fe  Fe5  1  0.66932500  0.66575600  0.99012600  1
  O  O0  1  0.98860300  0.35547000  0.98985800  1
  O  O1  1  0.97169300  0.73663800  0.98999800  1
  O  O2  1  0.24806300  0.31031800  0.49051100  1
  O  O3  1  0.47751900  0.23207300  0.49047500  1
  O  O4  1  0.09379900  0.02153700  0.48985300  1
  O  O5  1  0.35693900  0.60177900  0.99028800  1
  O  O6  1  0.66272500  0.35381500  0.99021500  1
  O  O7  1  0.55765500  0.71742400  0.49014600  1
  O  O8  1  0.77823300  0.61538000  0.49011900  1
  O  O9  1  0.66905200  0.97816200  0.98991900  1
  F  F0  1  0.33987500  0.97622100  0.99033200  1
  F  F1  1  0.85725600  0.09687100  0.48976800  1
loop_
_geom_bond_atom_site_label_1
_geom_bond_atom_site_label_2
_geom_bond_distance
_geom_bond_site_symmetry_2
Mg0 O2 2.058266 1_555
Mg0 O2 2.058683 1_556
Mg0 O0 2.089531 1_455
Mg0 O4 2.116568 1_556
Mg0 O4 2.119597 1_555
Fe0 O1 1.951892 1_545
Fe0 O4 1.987802 1_655
Fe0 O4 1.988751 1_656
Fe0 O0 2.264993 1_555
Fe1 O8 1.926100 1_555
Fe1 O1 1.959483 1_554
Fe1 O1 1.960035 1_555
Fe1 O0 1.978847 1_555
Fe1 O0 1.979603 1_554
Fe2 O3 1.935177 1_556
Fe2 O3 1.935461 1_555
Fe2 O5 1.948444 1_555
Fe2 O2 2.031871 1_556
Fe2 O2 2.032252 1_555
Fe3 O9 1.932850 1_545
Fe3 O6 1.933132 1_554
Fe3 O9 1.933656 1_544
Fe3 O6 1.934358 1_555
Fe3 O3 1.997022 1_555
Fe4 O7 1.865631 1_555
Fe4 O5 1.889416 1_554
Fe4 O5 1.889555 1_555
Fe5 O8 1.921018 1_555
Fe5 O8 1.921092 1_556
Fe5 O7 1.941705 1_556
Fe5 O7 1.941724 1_555
Fe5 O9 2.101333 1_555
Fe5 O6 2.119241 1_555
F0 Fe4 2.096812 1_556
F0 Fe4 2.097763 1_555
F0 Mg0 2.223923 1_565
F0 Fe2 2.336154 1_565
F1 Fe0 2.026862 1_555
F1 Fe0 2.027153 1_554
F1 Fe3 2.351611 1_555
