# generated using pymatgen
data_MgFe12(OF)12
_symmetry_space_group_name_H-M   'P 1'
_cell_length_a   9.71576602
_cell_length_b   14.59224785
_cell_length_c   3.10801100
_cell_angle_alpha   90.00000000
_cell_angle_beta   90.00000000
_cell_angle_gamma   87.58719171
_symmetry_Int_Tables_number   1
_chemical_formula_structural   MgFe12(OF)12
_chemical_formula_sum   'Mg1 Fe12 O12 F12'
_cell_volume   440.24719241
_cell_formula_units_Z   1
loop_
 _symmetry_equiv_pos_site_id
 _symmetry_equiv_pos_as_xyz
  1  'x, y, z'
loop_
 _atom_site_type_symbol
 _atom_site_label
 _atom_site_symmetry_multiplicity
 _atom_site_fract_x
 _atom_site_fract_y
 _atom_site_fract_z
 _atom_site_occupancy
  Mg  Mg0  1  0.97925800  0.18199100  0.50000000  1
  Fe  Fe0  1  0.02336000  0.00346900  0.00000000  1
  Fe  Fe1  1  0.04000900  0.35679400  0.00000000  1
  Fe  Fe2  1  0.00071700  0.66381200  0.00000000  1
  Fe  Fe3  1  0.25556200  0.17774800  0.50000000  1
  Fe  Fe4  1  0.26870200  0.49359300  0.50000000  1
  Fe  Fe5  1  0.24496100  0.84213900  0.50000000  1
  Fe  Fe6  1  0.51424400  0.34430700  0.00000000  1
  Fe  Fe7  1  0.47566000  0.98119900  0.00000000  1
  Fe  Fe8  1  0.51909100  0.66527700  0.00000000  1
  Fe  Fe9  1  0.69917500  0.06142300  0.50000000  1
  Fe  Fe10  1  0.73032600  0.49765600  0.50000000  1
  Fe  Fe11  1  0.72464600  0.82539900  0.50000000  1
  O  O0  1  0.11033900  0.28788200  0.50000000  1
  O  O1  1  0.09667600  0.93466800  0.50000000  1
  O  O2  1  0.11232500  0.12037600  0.00000000  1
  O  O3  1  0.16572600  0.45363100  0.00000000  1
  O  O4  1  0.34443700  0.88860600  0.00000000  1
  O  O5  1  0.41636700  0.40352900  0.50000000  1
  O  O6  1  0.59909900  0.94152800  0.50000000  1
  O  O7  1  0.59936000  0.60462700  0.50000000  1
  O  O8  1  0.59968100  0.09219800  0.00000000  1
  O  O9  1  0.66504100  0.43421900  0.00000000  1
  O  O10  1  0.64025000  0.77089900  0.00000000  1
  O  O11  1  0.89090300  0.05967300  0.50000000  1
  F  F0  1  0.11620500  0.60825000  0.50000000  1
  F  F1  1  0.15196700  0.77020100  0.00000000  1
  F  F2  1  0.37095800  0.23622700  0.00000000  1
  F  F3  1  0.35682500  0.57327800  0.00000000  1
  F  F4  1  0.37057800  0.05075900  0.50000000  1
  F  F5  1  0.39480900  0.72854800  0.50000000  1
  F  F6  1  0.60367000  0.27434800  0.50000000  1
  F  F7  1  0.89052100  0.24860800  0.00000000  1
  F  F8  1  0.83021300  0.89183800  0.00000000  1
  F  F9  1  0.84487700  0.56557100  0.00000000  1
  F  F10  1  0.91767000  0.41632700  0.50000000  1
  F  F11  1  0.89293500  0.73458400  0.50000000  1
loop_
_geom_bond_atom_site_label_1
_geom_bond_atom_site_label_2
_geom_bond_distance
_geom_bond_site_symmetry_2
Mg0 O11 2.012901 1_555
Mg0 O0 2.043338 1_655
Mg0 O2 2.190183 1_655
Mg0 O2 2.190183 1_656
Fe0 O2 1.944607 1_555
Fe0 O1 1.967247 1_545
Fe0 O1 1.967247 1_544
Fe0 O11 2.157514 1_455
Fe0 O11 2.157514 1_454
Fe1 O3 1.906305 1_555
Fe1 O0 1.958363 1_555
Fe1 O0 1.958363 1_554
Fe3 O0 2.093476 1_555
Fe3 O2 2.269498 1_555
Fe3 O2 2.269498 1_556
Fe4 O5 1.904406 1_555
Fe4 O3 1.950663 1_555
Fe4 O3 1.950663 1_556
Fe5 O1 1.932587 1_555
Fe5 O4 1.965698 1_556
Fe5 O4 1.965698 1_555
Fe6 O5 1.999214 1_554
Fe6 O5 1.999214 1_555
Fe6 O9 2.007432 1_555
Fe7 O4 1.896331 1_555
Fe7 O6 2.032221 1_554
Fe7 O6 2.032221 1_555
Fe7 O8 2.059069 1_565
Fe8 O7 1.936049 1_554
Fe8 O7 1.936049 1_555
Fe8 O10 1.978368 1_555
Fe9 O11 1.861884 1_555
Fe9 O8 1.874696 1_556
Fe9 O8 1.874696 1_555
Fe9 O6 2.037034 1_545
Fe10 O9 1.929663 1_556
Fe10 O9 1.929663 1_555
Fe10 O7 1.971906 1_555
Fe11 O10 1.942848 1_556
Fe11 O10 1.942848 1_555
Fe11 O6 2.045837 1_555
F0 Fe2 2.062692 1_556
F0 Fe2 2.062692 1_555
F0 Fe4 2.187640 1_555
F1 Fe5 2.100730 1_555
F1 Fe5 2.100730 1_554
F1 Fe2 2.182123 1_555
F2 Fe3 2.116761 1_555
F2 Fe3 2.116761 1_554
F2 Fe6 2.147146 1_555
F3 Fe8 2.113269 1_555
F3 Fe4 2.140997 1_554
F3 Fe4 2.140997 1_555
F4 Fe7 2.097694 1_546
F4 Fe7 2.097694 1_545
F4 Fe3 2.123252 1_555
F5 Fe8 2.152099 1_556
F5 Fe8 2.152099 1_555
F5 Fe5 2.159604 1_555
F6 Fe6 2.034033 1_556
F6 Fe6 2.034033 1_555
F7 Mg0 2.008141 1_555
F7 Mg0 2.008141 1_554
F7 Fe1 2.189683 1_655
F8 Fe11 2.119095 1_554
F8 Fe11 2.119095 1_555
F8 Fe0 2.536211 1_665
F9 Fe2 2.128463 1_655
F9 Fe10 2.174536 1_555
F9 Fe10 2.174536 1_554
F10 Fe1 2.120254 1_655
F10 Fe1 2.120254 1_656
F10 Fe10 2.130644 1_555
F11 Fe11 2.060853 1_555
F11 Fe2 2.118251 1_655
F11 Fe2 2.118251 1_656
