# generated using pymatgen
data_Na6TaIn3Si4(SO12)2
_symmetry_space_group_name_H-M   'P 1'
_cell_length_a   9.18326283
_cell_length_b   9.21410809
_cell_length_c   22.70342136
_cell_angle_alpha   89.66172788
_cell_angle_beta   90.17850471
_cell_angle_gamma   120.16956139
_symmetry_Int_Tables_number   1
_chemical_formula_structural   Na6TaIn3Si4(SO12)2
_chemical_formula_sum   'Na18 Ta3 In9 Si12 S6 O72'
_cell_volume   1660.81058046
_cell_formula_units_Z   3
loop_
 _symmetry_equiv_pos_site_id
 _symmetry_equiv_pos_as_xyz
  1  'x, y, z'
loop_
 _atom_site_type_symbol
 _atom_site_label
 _atom_site_symmetry_multiplicity
 _atom_site_fract_x
 _atom_site_fract_y
 _atom_site_fract_z
 _atom_site_occupancy
  Na  Na0  1  0.61982038  0.99899958  0.25207645  1
  Na  Na1  1  0.64171523  0.62480088  0.75170484  1
  Na  Na2  1  0.00362747  0.36677081  0.74321824  1
  Na  Na3  1  0.29661736  0.34720071  0.58432728  1
  Na  Na4  1  0.02342683  0.69054636  0.58958868  1
  Na  Na5  1  0.67645625  0.95939404  0.57492961  1
  Na  Na6  1  0.29644721  0.94785108  0.08724243  1
  Na  Na7  1  0.66940655  0.71214918  0.07549395  1
  Na  Na8  1  0.02836326  0.33962136  0.08153384  1
  Na  Na9  1  0.97693870  0.68745872  0.91440141  1
  Na  Na10  1  0.32385357  0.29212082  0.91142993  1
  Na  Na11  1  0.68012984  0.67281176  0.41485650  1
  Na  Na12  1  0.99982563  0.02575751  0.49431519  1
  Na  Na13  1  0.98075264  0.99104059  0.99333248  1
  Na  Na14  1  0.65207463  0.32552091  0.82876809  1
  Na  Na15  1  0.63287620  0.30949225  0.33004828  1
  Na  Na16  1  0.31615260  0.67919106  0.16900363  1
  Na  Na17  1  0.32495513  0.65509375  0.66509222  1
  Ta  Ta0  1  0.68100345  0.33273898  0.97591440  1
  Ta  Ta1  1  0.67113126  0.33342762  0.47912998  1
  Ta  Ta2  1  0.32639109  0.66398405  0.81907609  1
  In  In0  1  0.01965739  0.01897865  0.35207181  1
  In  In1  1  0.00384885  0.99852463  0.85071422  1
  In  In2  1  0.00526616  0.00295019  0.65038081  1
  In  In3  1  0.00226069  0.98761668  0.14807899  1
  In  In4  1  0.67164579  0.34877655  0.68462259  1
  In  In5  1  0.66027229  0.32393341  0.18421296  1
  In  In6  1  0.33436505  0.67480009  0.01458861  1
  In  In7  1  0.33974302  0.65720859  0.51266061  1
  In  In8  1  0.33885985  0.67567803  0.31953030  1
  Si  Si0  1  0.29855987  0.99670404  0.24840462  1
  Si  Si1  1  0.30040429  0.30223283  0.75084160  1
  Si  Si2  1  0.00668310  0.70456970  0.75021660  1
  Si  Si3  1  0.96197389  0.33580773  0.58488963  1
  Si  Si4  1  0.66826889  0.63238206  0.58282159  1
  Si  Si5  1  0.95675117  0.62182573  0.08328816  1
  Si  Si6  1  0.66844236  0.03801775  0.08474964  1
  Si  Si7  1  0.62773027  0.66539539  0.91949520  1
  Si  Si8  1  0.04080058  0.36836845  0.91964779  1
  Si  Si9  1  0.33847755  0.96468834  0.91879044  1
  Si  Si10  1  0.63770729  0.96953975  0.41651742  1
  Si  Si11  1  0.33412927  0.36745010  0.41913670  1
  S  S0  1  0.70108267  0.70046386  0.25063857  1
  S  S1  1  0.00278574  0.29969316  0.24840649  1
  S  S2  1  0.69488883  0.99442365  0.75002347  1
  S  S3  1  0.38068116  0.04595190  0.58105907  1
  S  S4  1  0.37682044  0.33487047  0.08082937  1
  S  S5  1  0.03027331  0.66049152  0.41932720  1
  O  O0  1  0.20179654  0.01622370  0.30416092  1
  O  O1  1  0.80096574  0.78373389  0.30393136  1
  O  O2  1  0.97051269  0.18627477  0.29963686  1
  O  O3  1  0.21229997  0.19757551  0.80996719  1
  O  O4  1  0.95889056  0.78253601  0.80572062  1
  O  O5  1  0.80699355  0.02565830  0.80091089  1
  O  O6  1  0.76381291  0.96108903  0.69513731  1
  O  O7  1  0.18078487  0.23272818  0.69115661  1
  O  O8  1  0.03539069  0.80875050  0.68817640  1
  O  O9  1  0.77818542  0.80576609  0.19617307  1
  O  O10  1  0.02020446  0.22298461  0.19285991  1
  O  O11  1  0.20313582  0.97842155  0.18439512  1
  O  O12  1  0.88068665  0.35541878  0.64585275  1
  O  O13  1  0.48157035  0.11649158  0.63491472  1
  O  O14  1  0.62265247  0.51653697  0.64179325  1
  O  O15  1  0.86401710  0.50438709  0.13960400  1
  O  O16  1  0.62590557  0.10809531  0.14349064  1
  O  O17  1  0.47731533  0.36044925  0.13463825  1
  O  O18  1  0.46243914  0.31390887  0.02788183  1
  O  O19  1  0.83502197  0.52214822  0.02390645  1
  O  O20  1  0.68779501  0.16904797  0.02810590  1
  O  O21  1  0.47104511  0.15491719  0.52885156  1
  O  O22  1  0.68623308  0.52319432  0.52712285  1
  O  O23  1  0.82995693  0.31475530  0.53060140  1
  O  O24  1  0.54966755  0.68502335  0.98016948  1
  O  O25  1  0.15002376  0.44403062  0.97862745  1
  O  O26  1  0.29267150  0.85531617  0.97865145  1
  O  O27  1  0.55460209  0.85917013  0.47676321  1
  O  O28  1  0.30516301  0.43585892  0.48158727  1
  O  O29  1  0.12964297  0.68702220  0.47368358  1
  O  O30  1  0.10533403  0.63084345  0.36722654  1
  O  O31  1  0.52527043  0.90074156  0.35714730  1
  O  O32  1  0.38254896  0.50124733  0.36465067  1
  O  O33  1  0.13648318  0.50022642  0.86256188  1
  O  O34  1  0.36203281  0.85824753  0.86360199  1
  O  O35  1  0.49938024  0.63732550  0.86233541  1
  O  O36  1  0.99504961  0.79926194  0.41333166  1
  O  O37  1  0.81613872  0.96946125  0.41032549  1
  O  O38  1  0.17820755  0.17785365  0.41604917  1
  O  O39  1  0.01667975  0.18643593  0.90965613  1
  O  O40  1  0.17931026  0.99268402  0.91085772  1
  O  O41  1  0.81821581  0.81789776  0.91141530  1
  O  O42  1  0.97630475  0.16462104  0.58374853  1
  O  O43  1  0.21641987  0.04029083  0.58248255  1
  O  O44  1  0.84738439  0.81330036  0.58368574  1
  O  O45  1  0.96713413  0.80561805  0.08125480  1
  O  O46  1  0.84965856  0.03978307  0.08623047  1
  O  O47  1  0.20811263  0.17985528  0.08343981  1
  O  O48  1  0.67335582  0.14117113  0.74412537  1
  O  O49  1  0.49028659  0.32903991  0.74735371  1
  O  O50  1  0.84840392  0.50838929  0.74971304  1
  O  O51  1  0.68595400  0.53367732  0.24603547  1
  O  O52  1  0.84833522  0.31517487  0.24649649  1
  O  O53  1  0.49231209  0.16470939  0.24901475  1
  O  O54  1  0.63185642  0.48394501  0.92355117  1
  O  O55  1  0.85974149  0.37075392  0.92224767  1
  O  O56  1  0.50979750  0.15273721  0.92364898  1
  O  O57  1  0.66019421  0.15944475  0.42880915  1
  O  O58  1  0.51564572  0.36093581  0.42686094  1
  O  O59  1  0.85800336  0.50333899  0.42534576  1
  O  O60  1  0.35623725  0.48280590  0.07700302  1
  O  O61  1  0.14215042  0.63726209  0.08026056  1
  O  O62  1  0.50851959  0.84802158  0.07892947  1
  O  O63  1  0.35459183  0.87556472  0.57383429  1
  O  O64  1  0.50708222  0.66352374  0.58034092  1
  O  O65  1  0.14273524  0.51237099  0.57800964  1
  O  O66  1  0.32365176  0.82959503  0.25231011  1
  O  O67  1  0.53189327  0.68570936  0.25305649  1
  O  O68  1  0.15522988  0.46531323  0.25522462  1
  O  O69  1  0.32304963  0.49660743  0.75945525  1
  O  O70  1  0.17844110  0.68673526  0.75990329  1
  O  O71  1  0.52853896  0.83734750  0.75856743  1
loop_
_geom_bond_atom_site_label_1
_geom_bond_atom_site_label_2
_geom_bond_distance
_geom_bond_site_symmetry_2
Na0 O53 2.345748 1_565
Na0 O66 2.359374 1_555
Na0 O31 2.541911 1_555
Na0 O67 2.577207 1_555
Na0 O52 2.599887 1_565
Na0 O16 2.646938 1_565
Na1 O49 2.358683 1_555
Na1 O69 2.552716 1_555
Na1 O50 2.608206 1_555
Na1 O71 2.643936 1_555
Na1 O14 2.665291 1_555
Na1 O4 2.800700 1_555
Na1 O35 2.864598 1_555
Na1 O6 2.996289 1_555
Na2 O50 2.372673 1_455
Na2 O12 2.457743 1_455
Na2 O69 2.577368 1_555
Na2 O70 2.581616 1_555
Na2 O48 2.680166 1_455
Na2 O7 2.760090 1_555
Na2 O33 2.975375 1_555
Na2 O5 3.019372 1_455
Na3 O28 2.455298 1_555
Na3 O43 2.539495 1_555
Na3 O65 2.547849 1_555
Na3 O42 2.551271 1_455
Na3 O64 2.564113 1_555
Na3 O7 2.642858 1_555
Na3 O14 2.899184 1_555
Na4 O44 2.396993 1_455
Na4 O65 2.404090 1_555
Na4 O8 2.472889 1_555
Na4 O63 2.659219 1_555
Na4 O43 2.794124 1_565
Na4 O29 2.815281 1_555
Na4 O12 2.963199 1_455
Na4 O22 3.029309 1_455
Na5 O64 2.366779 1_555
Na5 O42 2.442444 1_565
Na5 O27 2.458100 1_555
Na5 O44 2.536563 1_555
Na5 O63 2.653073 1_555
Na5 O6 2.840105 1_555
Na6 O11 2.437305 1_555
Na6 O61 2.480108 1_555
Na6 O62 2.545479 1_555
Na6 O26 2.607850 1_554
Na6 O45 2.626316 1_455
Na6 O47 2.641152 1_565
Na6 O16 2.910786 1_565
Na7 O62 2.370106 1_555
Na7 O24 2.381307 1_554
Na7 O45 2.422091 1_555
Na7 O60 2.574669 1_555
Na7 O46 2.626098 1_565
Na7 O9 2.897133 1_555
Na8 O61 2.394336 1_555
Na8 O46 2.403700 1_455
Na8 O25 2.557647 1_554
Na8 O60 2.612393 1_555
Na8 O47 2.708310 1_555
Na8 O10 2.727076 1_555
Na8 O15 2.942757 1_455
Na8 O20 2.963308 1_455
Na9 O41 2.309315 1_555
Na9 O40 2.472770 1_655
Na9 O55 2.558118 1_555
Na9 O4 2.645940 1_555
Na9 O54 2.761985 1_555
Na9 O19 2.860013 1_556
Na9 O26 2.901663 1_655
Na9 O33 3.013858 1_655
Na10 O40 2.386145 1_545
Na10 O39 2.479091 1_555
Na10 O54 2.485155 1_555
Na10 O3 2.495334 1_555
Na10 O56 2.615201 1_555
Na10 O18 2.894557 1_556
Na10 O35 2.962059 1_555
Na10 O25 3.020129 1_555
Na11 O37 2.368094 1_555
Na11 O58 2.498846 1_555
Na11 O36 2.517079 1_555
Na11 O32 2.631723 1_555
Na11 O1 2.732263 1_555
Na11 O59 2.778538 1_555
Na11 O27 2.877661 1_555
Na11 O22 2.904389 1_555
Na12 O38 2.342247 1_655
Na12 O37 2.421314 1_545
Na12 O42 2.473394 1_555
Na12 O44 2.669300 1_545
Na12 O36 2.773188 1_545
Na12 O43 2.773385 1_655
Na13 O41 2.419961 1_555
Na13 O39 2.515106 1_665
Na13 O45 2.581804 1_556
Na13 O46 2.582592 1_566
Na13 O40 2.612342 1_655
Na13 O47 2.817009 1_666
Na14 O49 2.378153 1_555
Na14 O50 2.498419 1_555
Na14 O56 2.601585 1_555
Na14 O48 2.644030 1_555
Na14 O54 2.666079 1_555
Na14 O55 2.738812 1_555
Na15 O53 2.261394 1_555
Na15 O58 2.598985 1_555
Na15 O51 2.662687 1_555
Na15 O57 2.703775 1_555
Na15 O52 2.726540 1_555
Na15 O59 2.907177 1_555
Na16 O66 2.331668 1_555
Na16 O61 2.475986 1_555
Na16 O68 2.635269 1_555
Na16 O62 2.635422 1_555
Na16 O67 2.725533 1_555
Na16 O60 2.914028 1_555
Na17 O65 2.497320 1_555
Na17 O64 2.528518 1_555
Na17 O69 2.580725 1_555
Na17 O70 2.635992 1_555
Na17 O71 2.771427 1_555
Na17 O63 2.809194 1_555
In0 O0 2.008945 1_555
In0 O38 2.059680 1_555
In0 O37 2.145120 1_445
In0 O2 2.161311 1_455
In0 O1 2.359036 1_445
In0 O36 2.364923 1_445
In1 O3 2.084743 1_565
In1 O4 2.090482 1_455
In1 O40 2.129855 1_555
In1 O39 2.150303 1_565
In1 O41 2.170499 1_455
In1 O5 2.246610 1_465
In2 O8 2.119589 1_545
In2 O7 2.126347 1_555
In2 O44 2.218005 1_445
In2 O42 2.224277 1_455
In2 O6 2.290766 1_445
In2 O43 2.365689 1_555
In3 O11 2.058312 1_555
In3 O45 2.168229 1_455
In3 O9 2.181962 1_455
In3 O46 2.196234 1_465
In3 O10 2.330209 1_565
In3 O47 2.342165 1_565
In4 O14 2.053259 1_555
In4 O12 2.086977 1_555
In4 O49 2.131322 1_555
In4 O50 2.143087 1_555
In4 O13 2.272111 1_555
In4 O48 2.341784 1_555
In5 O15 2.038657 1_555
In5 O16 2.073294 1_555
In5 O53 2.100031 1_555
In5 O17 2.180553 1_555
In5 O52 2.261020 1_555
In5 O51 2.309213 1_555
In6 O26 2.049628 1_554
In6 O24 2.085739 1_554
In6 O25 2.108912 1_554
In6 O62 2.164797 1_555
In6 O61 2.203425 1_555
In6 O60 2.345980 1_555
In7 O28 2.030483 1_555
In7 O27 2.078908 1_555
In7 O64 2.149982 1_555
In7 O65 2.195880 1_555
In7 O29 2.258397 1_555
In7 O63 2.398235 1_555
In8 O31 2.098559 1_555
In8 O32 2.102293 1_555
In8 O66 2.128869 1_555
In8 O30 2.249664 1_555
In8 O67 2.297584 1_555
In8 O68 2.337725 1_555
O0 Si0 1.610807 1_545
O1 S0 1.480080 1_555
O2 S1 1.486359 1_655
O3 Si1 1.610502 1_555
O4 Si2 1.621014 1_655
O5 S2 1.475176 1_545
O6 S2 1.500859 1_555
O7 Si1 1.657369 1_555
O8 Si2 1.645266 1_555
O9 S0 1.507511 1_555
O10 S1 1.496978 1_555
O11 Si0 1.659746 1_555
O12 Si3 1.628039 1_555
O13 S3 1.474079 1_555
O14 Si4 1.626214 1_555
O15 Si5 1.610927 1_555
O16 Si6 1.617097 1_555
O17 S4 1.475605 1_555
O18 S4 1.503927 1_555
O18 Ta0 2.261199 1_554
O19 Si5 1.698234 1_555
O19 Ta0 1.940441 1_554
O20 Si6 1.706007 1_555
O20 Ta0 1.937987 1_554
O21 S3 1.502075 1_555
O21 Ta1 2.075857 1_555
O22 Si4 1.679768 1_555
O22 Ta1 2.010385 1_555
O23 Si3 1.668435 1_555
O23 Ta1 1.939520 1_555
O24 Si7 1.607347 1_555
O25 Si8 1.607770 1_555
O26 Si9 1.612718 1_555
O27 Si10 1.642396 1_555
O28 Si11 1.630882 1_555
O29 S5 1.479106 1_555
O30 S5 1.465297 1_555
O31 Si10 1.621220 1_555
O32 Si11 1.637748 1_555
O33 Si8 1.686240 1_555
O33 Ta2 1.908165 1_555
O34 Si9 1.675720 1_555
O34 Ta2 1.939958 1_555
O35 Si7 1.681745 1_555
O35 Ta2 1.981977 1_555
O36 S5 1.473596 1_655
O37 Si10 1.645401 1_555
O38 Si11 1.610475 1_555
O39 Si8 1.594243 1_555
O40 Si9 1.616249 1_555
O41 Si7 1.611355 1_555
O42 Si3 1.647762 1_555
O43 S3 1.483374 1_555
O44 Si4 1.651971 1_555
O45 Si5 1.648002 1_555
O46 Si6 1.656279 1_555
O47 S4 1.489723 1_555
O48 S2 1.466895 1_545
O49 Si1 1.635733 1_555
O50 Si2 1.655182 1_655
O51 S0 1.476194 1_555
O52 S1 1.495621 1_655
O53 Si0 1.671533 1_545
O54 Si7 1.693225 1_555
O54 Ta0 2.041376 1_555
O55 Si8 1.675095 1_655
O55 Ta0 1.931570 1_555
O56 Si9 1.658559 1_545
O56 Ta0 2.005335 1_555
O57 Si10 1.680641 1_545
O57 Ta1 1.935016 1_555
O58 Si11 1.706334 1_555
O58 Ta1 1.964922 1_555
O59 S5 1.521404 1_655
O59 Ta1 2.043800 1_555
O60 S4 1.469275 1_555
O61 Si5 1.637349 1_455
O62 Si6 1.629840 1_565
O63 S3 1.474391 1_565
O64 Si4 1.644008 1_555
O65 Si3 1.646467 1_455
O66 Si0 1.669341 1_555
O67 S0 1.491190 1_555
O68 S1 1.471978 1_555
O69 Si1 1.708407 1_555
O69 Ta2 2.046571 1_555
O70 Si2 1.679635 1_555
O70 Ta2 1.991553 1_555
O71 S2 1.497417 1_555
O71 Ta2 2.212334 1_555
