# generated using pymatgen
data_Sr2YMgCrO6
_symmetry_space_group_name_H-M   'P 1'
_cell_length_a   6.19649608
_cell_length_b   5.88251258
_cell_length_c   6.19633227
_cell_angle_alpha   61.66349246
_cell_angle_beta   56.33714405
_cell_angle_gamma   61.66068377
_symmetry_Int_Tables_number   1
_chemical_formula_structural   Sr2YMgCrO6
_chemical_formula_sum   'Sr2 Y1 Mg1 Cr1 O6'
_cell_volume   158.41062427
_cell_formula_units_Z   1
loop_
 _symmetry_equiv_pos_site_id
 _symmetry_equiv_pos_as_xyz
  1  'x, y, z'
loop_
 _atom_site_type_symbol
 _atom_site_label
 _atom_site_symmetry_multiplicity
 _atom_site_fract_x
 _atom_site_fract_y
 _atom_site_fract_z
 _atom_site_occupancy
  Sr  Sr0  1  0.18417200  0.31582800  0.18417200  1
  Sr  Sr1  1  0.81582800  0.68417200  0.81582800  1
  Y  Y0  1  0.50000000  0.50000000  0.50000000  1
  Mg  Mg0  1  0.50000000  0.00000000  0.50000000  1
  Cr  Cr0  1  0.00000000  0.00000000  0.00000000  1
  O  O0  1  0.75601700  0.23219800  0.24398300  1
  O  O1  1  0.76015300  0.23984700  0.76015300  1
  O  O2  1  0.75619300  0.76754300  0.24380700  1
  O  O3  1  0.24398300  0.76780200  0.75601700  1
  O  O4  1  0.23984700  0.76015300  0.23984700  1
  O  O5  1  0.24380700  0.23245700  0.75619300  1
loop_
_geom_bond_atom_site_label_1
_geom_bond_atom_site_label_2
_geom_bond_distance
_geom_bond_site_symmetry_2
Mg0 O3 2.027126 1_545
Mg0 O0 2.027126 1_555
Mg0 O2 2.028794 1_545
Mg0 O5 2.028794 1_555
Mg0 Sr1 2.907554 1_545
Mg0 Sr0 2.907554 1_555
Cr0 O3 1.975559 1_544
Cr0 O0 1.975559 1_455
Cr0 O2 1.975986 1_445
Cr0 O5 1.975986 1_554
Cr0 O4 2.208063 1_545
Cr0 O1 2.208063 1_454
O0 Y0 2.173647 1_555
O0 Sr1 2.719211 1_554
O0 Sr0 2.719211 1_655
O1 Y0 2.395002 1_555
O1 Sr1 2.985582 1_545
O1 Sr1 2.985582 1_555
O1 Sr0 3.007597 1_655
O1 Sr0 3.007597 1_556
O2 Y0 2.173381 1_555
O2 Sr0 2.717690 1_655
O2 Sr1 2.717690 1_554
O3 Y0 2.173647 1_555
O3 Sr0 2.719211 1_556
O3 Sr1 2.719211 1_455
O4 Y0 2.395002 1_555
O4 Sr0 2.985582 1_555
O4 Sr0 2.985582 1_565
O4 Sr1 3.007597 1_455
O4 Sr1 3.007597 1_554
O5 Y0 2.173381 1_555
O5 Sr1 2.717690 1_455
O5 Sr0 2.717690 1_556
