# generated using pymatgen
data_KH3O2
_symmetry_space_group_name_H-M   'P 1'
_cell_length_a   5.69184007
_cell_length_b   5.78099450
_cell_length_c   7.87531014
_cell_angle_alpha   70.21423391
_cell_angle_beta   90.00000000
_cell_angle_gamma   90.00000000
_symmetry_Int_Tables_number   1
_chemical_formula_structural   KH3O2
_chemical_formula_sum   'K4 H12 O8'
_cell_volume   243.83516104
_cell_formula_units_Z   4
loop_
 _symmetry_equiv_pos_site_id
 _symmetry_equiv_pos_as_xyz
  1  'x, y, z'
loop_
 _atom_site_type_symbol
 _atom_site_label
 _atom_site_symmetry_multiplicity
 _atom_site_fract_x
 _atom_site_fract_y
 _atom_site_fract_z
 _atom_site_occupancy
  K  K0  1  0.75509477  0.69959915  0.57661219  1
  K  K1  1  0.25509477  0.30040085  0.92338781  1
  K  K2  1  0.24490523  0.30040085  0.42338781  1
  K  K3  1  0.74490523  0.69959915  0.07661219  1
  H  H0  1  0.97546133  0.98654650  0.75323366  1
  H  H1  1  0.47546133  0.01345350  0.74676634  1
  H  H2  1  0.02453867  0.01345350  0.24676634  1
  H  H3  1  0.52453867  0.98654650  0.25323366  1
  H  H4  1  0.71062913  0.22924794  0.84608440  1
  H  H5  1  0.21062913  0.77075206  0.65391560  1
  H  H6  1  0.28937087  0.77075206  0.15391560  1
  H  H7  1  0.78937087  0.22924794  0.34608440  1
  H  H8  1  0.70309158  0.22903784  0.54147190  1
  H  H9  1  0.79690842  0.22903784  0.04147190  1
  H  H10  1  0.29690842  0.77096216  0.45852810  1
  H  H11  1  0.20309158  0.77096216  0.95852810  1
  O  O0  1  0.24385863  0.65688399  0.08516912  1
  O  O1  1  0.14156635  0.94450296  0.76259851  1
  O  O2  1  0.35843365  0.94450296  0.26259851  1
  O  O3  1  0.85843365  0.05549704  0.23740149  1
  O  O4  1  0.75614137  0.34311601  0.91483088  1
  O  O5  1  0.25614137  0.65688399  0.58516912  1
  O  O6  1  0.74385863  0.34311601  0.41483088  1
  O  O7  1  0.64156635  0.05549704  0.73740149  1
loop_
_geom_bond_atom_site_label_1
_geom_bond_atom_site_label_2
_geom_bond_distance
_geom_bond_site_symmetry_2
K0 O4 2.761426 1_555
K0 O6 2.766218 1_555
K0 O3 2.827431 1_565
K0 O7 2.831581 1_565
K0 O5 2.849499 1_555
K0 O5 2.861373 1_655
K1 O5 2.761426 1_555
K1 O0 2.766218 1_556
K1 O2 2.827431 1_546
K1 O1 2.831581 1_545
K1 O4 2.849499 1_455
K1 O4 2.861373 1_555
K2 O0 2.761426 1_555
K2 O5 2.766218 1_555
K2 O1 2.827431 1_545
K2 O2 2.831581 1_545
K2 O6 2.849499 1_555
K2 O6 2.861373 1_455
K3 O6 2.761426 1_555
K3 O4 2.766218 1_554
K3 O7 2.827431 1_564
K3 O3 2.831581 1_565
K3 O0 2.849499 1_655
K3 O0 2.861373 1_555
H0 O1 0.972749 1_655
H0 K0 2.796756 1_555
H0 K3 2.845960 1_556
H1 O7 0.972749 1_555
H1 K1 2.796756 1_555
H1 K2 2.845960 1_555
H2 O3 0.972749 1_455
H2 K2 2.796756 1_555
H2 K1 2.845960 1_554
H3 O2 0.972749 1_555
H3 K3 2.796756 1_555
H3 K0 2.845960 1_555
H4 O4 1.017260 1_555
H4 O7 1.574190 1_555
H4 K1 2.726190 1_555
H4 K0 2.838057 1_555
H5 O5 1.017260 1_555
H5 O1 1.574190 1_555
H5 K0 2.726190 1_455
H5 K1 2.838057 1_555
H6 O0 1.017260 1_555
H6 O2 1.574190 1_555
H6 K3 2.726190 1_555
H6 K2 2.838057 1_555
H7 O6 1.017260 1_555
H7 O3 1.574190 1_555
H7 K2 2.726190 1_655
H7 K3 2.838057 1_555
H8 O6 1.018900 1_555
H8 O7 1.569069 1_555
H8 K2 2.752550 1_555
H8 K0 2.841472 1_555
H9 O4 1.018900 1_554
H9 O3 1.569069 1_555
H9 K1 2.752550 1_654
H9 K3 2.841472 1_555
H10 O5 1.018900 1_555
H10 O2 1.569069 1_555
H10 K0 2.752550 1_555
H10 K2 2.841472 1_555
H11 O0 1.018900 1_556
H11 O1 1.569069 1_555
H11 K3 2.752550 1_456
H11 K1 2.841472 1_555
