# generated using pymatgen
data_Na3YMgP2SO12
_symmetry_space_group_name_H-M   'P 1'
_cell_length_a   9.19777880
_cell_length_b   9.17315297
_cell_length_c   22.95513820
_cell_angle_alpha   89.30124903
_cell_angle_beta   90.00000000
_cell_angle_gamma   120.08884417
_symmetry_Int_Tables_number   1
_chemical_formula_structural   Na3YMgP2SO12
_chemical_formula_sum   'Na18 Y6 Mg6 P12 S6 O72'
_cell_volume   1675.63529187
_cell_formula_units_Z   6
loop_
 _symmetry_equiv_pos_site_id
 _symmetry_equiv_pos_as_xyz
  1  'x, y, z'
loop_
 _atom_site_type_symbol
 _atom_site_label
 _atom_site_symmetry_multiplicity
 _atom_site_fract_x
 _atom_site_fract_y
 _atom_site_fract_z
 _atom_site_occupancy
  Na  Na0  1  0.35397174  0.35170726  0.24483502  1
  Na  Na1  1  0.00122921  0.63085375  0.24377395  1
  Na  Na2  1  0.62962454  0.63085375  0.74377395  1
  Na  Na3  1  0.99773552  0.35170726  0.74483502  1
  Na  Na4  1  0.02063874  0.68504026  0.57816802  1
  Na  Na5  1  0.66789621  0.96418675  0.57710695  1
  Na  Na6  1  0.29629154  0.96418675  0.07710695  1
  Na  Na7  1  0.66440252  0.68504026  0.07816802  1
  Na  Na8  1  0.68730474  0.01837426  0.91150202  1
  Na  Na9  1  0.33456221  0.29752075  0.91044095  1
  Na  Na10  1  0.96295754  0.29752075  0.41044095  1
  Na  Na11  1  0.33106852  0.01837426  0.41150202  1
  Na  Na12  1  0.97559339  0.98073364  0.49268471  1
  Na  Na13  1  0.00514026  0.98073364  0.99268471  1
  Na  Na14  1  0.64226039  0.31406664  0.82601771  1
  Na  Na15  1  0.67180726  0.31406664  0.32601771  1
  Na  Na16  1  0.30892639  0.64740064  0.15935171  1
  Na  Na17  1  0.33847326  0.64740064  0.65935171  1
  Y  Y0  1  0.00845816  0.01387691  0.65010748  1
  Y  Y1  1  0.00541875  0.01387691  0.15010748  1
  Y  Y2  1  0.67512516  0.34720991  0.98344048  1
  Y  Y3  1  0.67208575  0.34720991  0.48344048  1
  Y  Y4  1  0.34179116  0.68054391  0.31677448  1
  Y  Y5  1  0.33875175  0.68054391  0.81677448  1
  Mg  Mg0  1  0.99068219  0.99457058  0.34986887  1
  Mg  Mg1  1  0.00388838  0.99457058  0.84986887  1
  Mg  Mg2  1  0.65734919  0.32790358  0.68320187  1
  Mg  Mg3  1  0.67055538  0.32790358  0.18320187  1
  Mg  Mg4  1  0.32401519  0.66123758  0.01653587  1
  Mg  Mg5  1  0.33722138  0.66123758  0.51653587  1
  P  P0  1  0.30194013  0.01046862  0.25129006  1
  P  P1  1  0.99378210  0.29805440  0.25501654  1
  P  P2  1  0.30427229  0.29805440  0.75501654  1
  P  P3  1  0.70852849  0.01046862  0.75129006  1
  P  P4  1  0.96860713  0.34380162  0.58462306  1
  P  P5  1  0.66044910  0.63138740  0.58834954  1
  P  P6  1  0.97093929  0.63138740  0.08834954  1
  P  P7  1  0.37519549  0.34380162  0.08462306  1
  P  P8  1  0.63527313  0.67713562  0.91795706  1
  P  P9  1  0.32711510  0.96472140  0.92168354  1
  P  P10  1  0.63760529  0.96472140  0.42168354  1
  P  P11  1  0.04186149  0.67713562  0.41795706  1
  S  S0  1  0.70602207  0.69778402  0.24995212  1
  S  S1  1  0.99176195  0.69778402  0.74995212  1
  S  S2  1  0.37268907  0.03111702  0.58328512  1
  S  S3  1  0.65842895  0.03111702  0.08328512  1
  S  S4  1  0.03935507  0.36445102  0.91661912  1
  S  S5  1  0.32509495  0.36445102  0.41661912  1
  O  O0  1  0.21230856  0.02968811  0.30539635  1
  O  O1  1  0.81230574  0.79093619  0.29922717  1
  O  O2  1  0.97825097  0.19700670  0.31108957  1
  O  O3  1  0.21875573  0.19700670  0.81108957  1
  O  O4  1  0.97863045  0.79093619  0.79922717  1
  O  O5  1  0.81737955  0.02968811  0.80539635  1
  O  O6  1  0.78929806  0.98139779  0.69626340  1
  O  O7  1  0.19315826  0.21242426  0.70152351  1
  O  O8  1  0.01754433  0.79150313  0.69423424  1
  O  O9  1  0.77395879  0.79150313  0.19423424  1
  O  O10  1  0.01926600  0.21242426  0.20152351  1
  O  O11  1  0.19209973  0.98139779  0.19626340  1
  O  O12  1  0.87897556  0.36302111  0.63872935  1
  O  O13  1  0.47897274  0.12426919  0.63256017  1
  O  O14  1  0.64491797  0.53033970  0.64442257  1
  O  O15  1  0.88542273  0.53033970  0.14442257  1
  O  O16  1  0.64529745  0.12426919  0.13256017  1
  O  O17  1  0.48404655  0.36302111  0.13872935  1
  O  O18  1  0.45596506  0.31473079  0.02959640  1
  O  O19  1  0.85982526  0.54575726  0.03485651  1
  O  O20  1  0.68421133  0.12483613  0.02756724  1
  O  O21  1  0.44062579  0.12483613  0.52756724  1
  O  O22  1  0.68593300  0.54575726  0.53485651  1
  O  O23  1  0.85876673  0.31473079  0.52959640  1
  O  O24  1  0.54564156  0.69635511  0.97206335  1
  O  O25  1  0.14563874  0.45760319  0.96589417  1
  O  O26  1  0.31158397  0.86367370  0.97775657  1
  O  O27  1  0.55208873  0.86367370  0.47775657  1
  O  O28  1  0.31196345  0.45760319  0.46589417  1
  O  O29  1  0.15071255  0.69635511  0.47206335  1
  O  O30  1  0.12263106  0.64806479  0.36293040  1
  O  O31  1  0.52649126  0.87909126  0.36819051  1
  O  O32  1  0.35087733  0.45817013  0.36090124  1
  O  O33  1  0.10729179  0.45817013  0.86090124  1
  O  O34  1  0.35259900  0.87909126  0.86819051  1
  O  O35  1  0.52543273  0.64806479  0.86293040  1
  O  O36  1  0.03011724  0.83936686  0.41113057  1
  O  O37  1  0.81728291  0.99259138  0.41473904  1
  O  O38  1  0.16794945  0.19637062  0.41454035  1
  O  O39  1  0.02842117  0.19637062  0.91454035  1
  O  O40  1  0.17530847  0.99259138  0.91473904  1
  O  O41  1  0.80924962  0.83936686  0.91113057  1
  O  O42  1  0.98334244  0.18189784  0.58753958  1
  O  O43  1  0.19672032  -0.00108950  0.58824079  1
  O  O44  1  0.82655853  0.80985746  0.58854668  1
  O  O45  1  0.98329893  0.80985746  0.08854668  1
  O  O46  1  0.80219018  -0.00108950  0.08824079  1
  O  O47  1  0.19855540  0.18189784  0.08753958  1
  O  O48  1  0.69678424  0.17269986  0.74446357  1
  O  O49  1  0.48394991  0.32592438  0.74807204  1
  O  O50  1  0.83461645  0.52970362  0.74787335  1
  O  O51  1  0.69508817  0.52970362  0.24787335  1
  O  O52  1  0.84197547  0.32592438  0.24807204  1
  O  O53  1  0.47591662  0.17269986  0.24446357  1
  O  O54  1  0.65000944  0.51523084  0.92087258  1
  O  O55  1  0.86338732  0.33224350  0.92157379  1
  O  O56  1  0.49322553  0.14319046  0.92187968  1
  O  O57  1  0.64996593  0.14319046  0.42187968  1
  O  O58  1  0.46885718  0.33224350  0.42157379  1
  O  O59  1  0.86522240  0.51523084  0.42087258  1
  O  O60  1  0.36345024  0.50603386  0.07779757  1
  O  O61  1  0.15061591  0.65925838  0.08140604  1
  O  O62  1  0.50128245  0.86303762  0.08120735  1
  O  O63  1  0.36175417  0.86303762  0.58120735  1
  O  O64  1  0.50864147  0.65925838  0.58140604  1
  O  O65  1  0.14258262  0.50603386  0.57779757  1
  O  O66  1  0.31667544  0.84856484  0.25420658  1
  O  O67  1  0.53005332  0.66557750  0.25490779  1
  O  O68  1  0.15989153  0.47652446  0.25521368  1
  O  O69  1  0.31663193  0.47652446  0.75521368  1
  O  O70  1  0.13552318  0.66557750  0.75490779  1
  O  O71  1  0.53188840  0.84856484  0.75420658  1
loop_
_geom_bond_atom_site_label_1
_geom_bond_atom_site_label_2
_geom_bond_distance
_geom_bond_site_symmetry_2
Na0 O53 2.408638 1_555
Na0 O67 2.511340 1_555
Na0 O68 2.571059 1_555
Na0 O17 2.691462 1_555
Na0 O51 2.716796 1_555
Na0 O32 2.853852 1_555
Na0 O10 2.861021 1_555
Na0 O0 2.897705 1_555
Na1 O52 2.421669 1_455
Na1 O51 2.485312 1_455
Na1 O15 2.500500 1_455
Na1 O68 2.503048 1_555
Na1 O66 2.581786 1_555
Na2 O49 2.421669 1_555
Na2 O50 2.485320 1_555
Na2 O14 2.500502 1_555
Na2 O69 2.503056 1_555
Na2 O71 2.581793 1_555
Na3 O48 2.408630 1_555
Na3 O70 2.511341 1_655
Na3 O69 2.571051 1_655
Na3 O12 2.691458 1_555
Na3 O50 2.716788 1_555
Na3 O33 2.853850 1_655
Na3 O7 2.861021 1_655
Na3 O5 2.897705 1_555
Na4 O65 2.408622 1_555
Na4 O43 2.511340 1_565
Na4 O44 2.571059 1_455
Na4 O29 2.691435 1_555
Na4 O63 2.716789 1_555
Na4 O8 2.853852 1_555
Na4 O22 2.861021 1_455
Na4 O12 2.897705 1_455
Na5 O64 2.421662 1_555
Na5 O63 2.485323 1_555
Na5 O27 2.500480 1_555
Na5 O44 2.503048 1_555
Na5 O42 2.581786 1_565
Na6 O61 2.421661 1_555
Na6 O62 2.485306 1_555
Na6 O26 2.500475 1_554
Na6 O45 2.503056 1_455
Na6 O47 2.581793 1_565
Na7 O60 2.408637 1_555
Na7 O46 2.511341 1_565
Na7 O45 2.571051 1_555
Na7 O24 2.691443 1_554
Na7 O62 2.716805 1_555
Na7 O9 2.853850 1_555
Na7 O19 2.861021 1_555
Na7 O17 2.897705 1_555
Na8 O41 2.408638 1_545
Na8 O55 2.511331 1_555
Na8 O56 2.571041 1_555
Na8 O5 2.691462 1_555
Na8 O39 2.716796 1_655
Na8 O20 2.853826 1_556
Na8 O34 2.861021 1_545
Na8 O24 2.897705 1_545
Na9 O40 2.421669 1_545
Na9 O39 2.485312 1_555
Na9 O3 2.500500 1_555
Na9 O56 2.503062 1_555
Na9 O54 2.581789 1_555
Na10 O37 2.421669 1_545
Na10 O38 2.485320 1_655
Na10 O2 2.500502 1_555
Na10 O57 2.503046 1_555
Na10 O59 2.581775 1_555
Na11 O36 2.408630 1_545
Na11 O58 2.511329 1_555
Na11 O57 2.571058 1_555
Na11 O0 2.691458 1_555
Na11 O38 2.716788 1_555
Na11 O21 2.853829 1_555
Na11 O31 2.861021 1_545
Na11 O29 2.897705 1_545
Na12 O37 2.342555 1_555
Na12 O36 2.479745 1_655
Na12 O38 2.581693 1_665
Na12 O44 2.634345 1_555
Na12 O42 2.849118 1_565
Na12 O43 2.940203 1_665
Na13 O40 2.342555 1_555
Na13 O41 2.479745 1_455
Na13 O39 2.581693 1_565
Na13 O45 2.634345 1_456
Na13 O47 2.849118 1_566
Na13 O46 2.940203 1_466
Na14 O49 2.342555 1_555
Na14 O48 2.479745 1_555
Na14 O50 2.581693 1_555
Na14 O56 2.634345 1_555
Na14 O54 2.849118 1_555
Na14 O55 2.940203 1_555
Na15 O52 2.342555 1_555
Na15 O53 2.479745 1_555
Na15 O51 2.581693 1_555
Na15 O57 2.634345 1_555
Na15 O59 2.849118 1_555
Na15 O58 2.940203 1_555
Na16 O61 2.342555 1_555
Na16 O60 2.479745 1_555
Na16 O62 2.581693 1_555
Na16 O68 2.634345 1_555
Na16 O66 2.849118 1_555
Na16 O67 2.940203 1_555
Na17 O64 2.342555 1_555
Na17 O65 2.479745 1_555
Na17 O63 2.581693 1_555
Na17 O69 2.634345 1_555
Na17 O71 2.849118 1_555
Na17 O70 2.940203 1_555
Mg0 O2 2.103912 1_565
Mg0 O1 2.124263 1_555
Mg0 O36 2.145939 1_655
Mg0 O0 2.152873 1_665
Mg0 O37 2.175255 1_555
Mg0 O38 2.308617 1_665
Mg1 O3 2.103912 1_565
Mg1 O4 2.124263 1_455
Mg1 O41 2.145939 1_455
Mg1 O5 2.152873 1_465
Mg1 O40 2.175255 1_555
Mg1 O39 2.308617 1_565
Mg2 O14 2.103912 1_555
Mg2 O13 2.124263 1_555
Mg2 O48 2.145939 1_555
Mg2 O12 2.152873 1_555
Mg2 O49 2.175255 1_555
Mg2 O50 2.308617 1_555
Mg3 O15 2.103912 1_555
Mg3 O16 2.124263 1_555
Mg3 O53 2.145939 1_555
Mg3 O17 2.152873 1_555
Mg3 O52 2.175255 1_555
Mg3 O51 2.308617 1_555
Mg4 O26 2.103912 1_554
Mg4 O25 2.124263 1_554
Mg4 O60 2.145939 1_555
Mg4 O24 2.152873 1_554
Mg4 O61 2.175255 1_555
Mg4 O62 2.308617 1_555
Mg5 O27 2.103912 1_555
Mg5 O28 2.124263 1_555
Mg5 O65 2.145939 1_555
Mg5 O29 2.152873 1_555
Mg5 O64 2.175255 1_555
Mg5 O63 2.308617 1_555
O0 P0 1.550620 1_555
O1 S0 1.466710 1_555
O2 P1 1.540948 1_555
O3 P2 1.540948 1_555
O4 S1 1.466710 1_555
O5 P3 1.550620 1_555
O6 P3 1.557372 1_565
O6 Y0 2.159825 1_665
O7 P2 1.545290 1_555
O7 Y0 2.132189 1_555
O8 S1 1.483224 1_455
O8 Y0 2.305347 1_565
O9 S0 1.483224 1_555
O9 Y1 2.305347 1_665
O10 P1 1.545290 1_455
O10 Y1 2.132189 1_555
O11 P0 1.557372 1_565
O11 Y1 2.159825 1_565
O12 P4 1.550620 1_555
O13 S2 1.466710 1_555
O14 P5 1.540948 1_555
O15 P6 1.540948 1_555
O16 S3 1.466710 1_555
O17 P7 1.550620 1_555
O18 P7 1.557372 1_555
O18 Y2 2.159825 1_554
O19 P6 1.545290 1_555
O19 Y2 2.132189 1_554
O20 S3 1.483224 1_555
O20 Y2 2.305347 1_554
O21 S2 1.483224 1_555
O21 Y3 2.305347 1_555
O22 P5 1.545290 1_555
O22 Y3 2.132189 1_555
O23 P4 1.557372 1_555
O23 Y3 2.159825 1_555
O24 P8 1.550620 1_555
O25 S4 1.466710 1_555
O26 P9 1.540948 1_555
O27 P10 1.540948 1_555
O28 S5 1.466710 1_555
O29 P11 1.550620 1_555
O30 P11 1.557372 1_555
O30 Y4 2.159825 1_555
O31 P10 1.545290 1_555
O31 Y4 2.132189 1_555
O32 S5 1.483224 1_555
O32 Y4 2.305347 1_555
O33 S4 1.483224 1_555
O33 Y5 2.305347 1_555
O34 P9 1.545290 1_555
O34 Y5 2.132189 1_555
O35 P8 1.557372 1_555
O35 Y5 2.159825 1_555
O36 P11 1.551250 1_555
O37 P10 1.548335 1_555
O38 S5 1.495303 1_555
O39 S4 1.495307 1_555
O40 P9 1.548326 1_555
O41 P8 1.551255 1_555
O42 P4 1.558197 1_555
O42 Y0 2.189693 1_655
O43 S2 1.496517 1_555
O43 Y0 2.297224 1_555
O44 P5 1.583258 1_555
O44 Y0 2.285517 1_665
O45 P6 1.583262 1_555
O45 Y1 2.285517 1_665
O46 S3 1.496508 1_555
O46 Y1 2.297224 1_655
O47 P7 1.558202 1_555
O47 Y1 2.189693 1_555
O48 P3 1.551250 1_555
O49 P2 1.548335 1_555
O50 S1 1.495303 1_555
O51 S0 1.495307 1_555
O52 P1 1.548326 1_555
O53 P0 1.551255 1_555
O54 P8 1.558211 1_555
O54 Y2 2.189693 1_555
O55 S4 1.496503 1_655
O55 Y2 2.297224 1_555
O56 P9 1.583257 1_545
O56 Y2 2.285517 1_555
O57 P10 1.583248 1_545
O57 Y3 2.285517 1_555
O58 S5 1.496521 1_555
O58 Y3 2.297224 1_555
O59 P11 1.558200 1_655
O59 Y3 2.189693 1_555
O60 P7 1.551263 1_555
O61 P6 1.548320 1_455
O62 S3 1.495301 1_565
O63 S2 1.495292 1_565
O64 P5 1.548338 1_555
O65 P4 1.551252 1_455
O66 P0 1.558197 1_565
O66 Y4 2.189693 1_555
O67 S0 1.496517 1_555
O67 Y4 2.297224 1_555
O68 P1 1.583258 1_455
O68 Y4 2.285517 1_555
O69 P2 1.583262 1_555
O69 Y5 2.285517 1_555
O70 S1 1.496508 1_455
O70 Y5 2.297224 1_555
O71 P3 1.558202 1_565
O71 Y5 2.189693 1_555
