# generated using pymatgen
data_MgCu2(RhO2)4
_symmetry_space_group_name_H-M   'P 1'
_cell_length_a   6.37190541
_cell_length_b   6.37185486
_cell_length_c   6.02917077
_cell_angle_alpha   90.05795307
_cell_angle_beta   118.18941429
_cell_angle_gamma   123.50880287
_symmetry_Int_Tables_number   1
_chemical_formula_structural   MgCu2(RhO2)4
_chemical_formula_sum   'Mg1 Cu2 Rh4 O8'
_cell_volume   168.09486161
_cell_formula_units_Z   1
loop_
 _symmetry_equiv_pos_site_id
 _symmetry_equiv_pos_as_xyz
  1  'x, y, z'
loop_
 _atom_site_type_symbol
 _atom_site_label
 _atom_site_symmetry_multiplicity
 _atom_site_fract_x
 _atom_site_fract_y
 _atom_site_fract_z
 _atom_site_occupancy
  Mg  Mg0  1  0.24998300  0.87499700  0.12499600  1
  Cu  Cu0  1  0.94349300  0.02803800  0.97150500  1
  Cu  Cu1  1  0.55651600  0.72196600  0.27849400  1
  Rh  Rh0  1  0.74991100  0.37491900  0.12482100  1
  Rh  Rh1  1  0.74990000  0.37491500  0.62508100  1
  Rh  Rh2  1  0.25003500  0.37499200  0.62502000  1
  Rh  Rh3  1  0.25016200  0.87517100  0.62508300  1
  O  O0  1  0.23056800  0.62073800  0.37878800  1
  O  O1  1  0.75805000  0.14821800  0.37879100  1
  O  O2  1  0.71131900  0.14409700  0.85541500  1
  O  O3  1  0.78862000  0.60593500  0.39455700  1
  O  O4  1  0.23055300  0.62119100  0.85173900  1
  O  O5  1  0.26944600  0.12924500  0.87122400  1
  O  O6  1  0.26946700  0.12879800  0.39826200  1
  O  O7  1  0.74197600  0.60177800  0.87122500  1
loop_
_geom_bond_atom_site_label_1
_geom_bond_atom_site_label_2
_geom_bond_distance
_geom_bond_site_symmetry_2
Mg0 O6 2.219201 1_565
Mg0 O4 2.219424 1_554
Mg0 O7 2.223314 1_454
Mg0 O5 2.223363 1_564
Mg0 O0 2.223504 1_555
Mg0 O1 2.223580 1_565
Cu0 O2 1.859054 1_555
Cu0 O5 2.191678 1_655
Cu0 O7 2.191765 1_545
Cu0 O6 2.195864 1_656
Cu1 O3 1.858531 1_555
Cu1 O0 2.191675 1_555
Cu1 O1 2.191694 1_565
Cu1 O4 2.195817 1_554
O0 Rh3 2.108432 1_555
O0 Rh0 2.108528 1_455
O0 Rh2 2.171737 1_555
O1 Rh1 2.108450 1_555
O1 Rh0 2.108580 1_555
O1 Rh2 2.171771 1_655
O2 Rh1 2.019784 1_555
O2 Rh3 2.019812 1_545
O2 Rh0 2.020006 1_556
O3 Rh3 2.021523 1_655
O3 Rh1 2.021529 1_555
O3 Rh0 2.021814 1_555
O4 Rh3 2.108214 1_555
O4 Rh1 2.108297 1_455
O4 Rh2 2.171602 1_555
O5 Rh3 2.107501 1_545
O5 Rh0 2.107641 1_556
O5 Rh2 2.171583 1_555
O6 Rh1 2.107288 1_555
O6 Rh3 2.107347 1_545
O6 Rh2 2.171492 1_555
O7 Rh1 2.107500 1_555
O7 Rh0 2.107594 1_556
O7 Rh2 2.171550 1_555
