# generated using pymatgen
data_Sm2O3
_symmetry_space_group_name_H-M   'P 1'
_cell_length_a   9.47279338
_cell_length_b   9.47279364
_cell_length_c   9.47279343
_cell_angle_alpha   109.47121799
_cell_angle_beta   109.47121856
_cell_angle_gamma   109.47122214
_symmetry_Int_Tables_number   1
_chemical_formula_structural   Sm2O3
_chemical_formula_sum   'Sm16 O24'
_cell_volume   654.35335668
_cell_formula_units_Z   8
loop_
 _symmetry_equiv_pos_site_id
 _symmetry_equiv_pos_as_xyz
  1  'x, y, z'
loop_
 _atom_site_type_symbol
 _atom_site_label
 _atom_site_symmetry_multiplicity
 _atom_site_fract_x
 _atom_site_fract_y
 _atom_site_fract_z
 _atom_site_occupancy
  Sm  Sm0  1  0.50000000  0.50000000  0.50000000  1
  Sm  Sm1  1  0.00000000  -0.00000000  0.50000000  1
  Sm  Sm2  1  0.50000000  -0.00000000  0.00000000  1
  Sm  Sm3  1  0.00000000  0.50000000  0.00000000  1
  Sm  Sm4  1  0.25000000  0.21891861  0.96891861  1
  Sm  Sm5  1  0.28108139  0.53108139  0.75000000  1
  Sm  Sm6  1  0.53108139  0.75000000  0.28108139  1
  Sm  Sm7  1  0.21891861  0.96891861  0.25000000  1
  Sm  Sm8  1  0.96891861  0.25000000  0.21891861  1
  Sm  Sm9  1  0.75000000  0.28108139  0.53108139  1
  Sm  Sm10  1  0.75000000  0.78108139  0.03108139  1
  Sm  Sm11  1  0.71891861  0.46891861  0.25000000  1
  Sm  Sm12  1  0.46891861  0.25000000  0.71891861  1
  Sm  Sm13  1  0.78108139  0.03108139  0.75000000  1
  Sm  Sm14  1  0.03108139  0.75000000  0.78108139  1
  Sm  Sm15  1  0.25000000  0.71891861  0.46891861  1
  O  O0  1  0.52884340  0.76969486  0.54115159  1
  O  O1  1  0.98769181  0.95884841  0.72854327  1
  O  O2  1  0.25914855  0.77145673  0.73030514  1
  O  O3  1  0.51230819  0.24085145  0.97115660  1
  O  O4  1  0.95884841  0.72854327  0.98769181  1
  O  O5  1  0.73030514  0.25914855  0.77145673  1
  O  O6  1  0.24085145  0.97115660  0.51230819  1
  O  O7  1  0.54115159  0.52884340  0.76969486  1
  O  O8  1  0.76969486  0.54115159  0.52884340  1
  O  O9  1  0.72854327  0.98769181  0.95884841  1
  O  O10  1  0.77145673  0.73030514  0.25914855  1
  O  O11  1  0.97115660  0.51230819  0.24085145  1
  O  O12  1  0.47115660  0.23030514  0.45884841  1
  O  O13  1  0.01230819  0.04115159  0.27145673  1
  O  O14  1  0.74085145  0.22854327  0.26969486  1
  O  O15  1  0.48769181  0.75914855  0.02884340  1
  O  O16  1  0.04115159  0.27145673  0.01230819  1
  O  O17  1  0.26969486  0.74085145  0.22854327  1
  O  O18  1  0.75914855  0.02884340  0.48769181  1
  O  O19  1  0.45884841  0.47115660  0.23030514  1
  O  O20  1  0.23030514  0.45884841  0.47115660  1
  O  O21  1  0.27145673  0.01230819  0.04115159  1
  O  O22  1  0.22854327  0.26969486  0.74085145  1
  O  O23  1  0.02884340  0.48769181  0.75914855  1
loop_
_geom_bond_atom_site_label_1
_geom_bond_atom_site_label_2
_geom_bond_distance
_geom_bond_site_symmetry_2
O0 Sm13 2.322227 1_565
O0 Sm15 2.324938 1_555
O0 Sm0 2.356510 1_555
O0 Sm6 2.415694 1_555
O1 Sm14 2.322227 1_655
O1 Sm13 2.324938 1_565
O1 Sm1 2.356509 1_665
O1 Sm4 2.415695 1_665
O2 Sm15 2.322227 1_555
O2 Sm14 2.324938 1_555
O2 Sm2 2.356510 1_566
O2 Sm5 2.415694 1_555
O3 Sm12 2.322227 1_555
O3 Sm11 2.324938 1_556
O3 Sm2 2.356509 1_556
O3 Sm4 2.415694 1_555
O4 Sm10 2.322227 1_556
O4 Sm14 2.324938 1_655
O4 Sm3 2.356510 1_656
O4 Sm7 2.415695 1_656
O5 Sm12 2.322227 1_555
O5 Sm13 2.324938 1_555
O5 Sm3 2.356510 1_656
O5 Sm9 2.415694 1_555
O6 Sm15 2.322227 1_555
O6 Sm12 2.324938 1_565
O6 Sm1 2.356509 1_565
O6 Sm7 2.415695 1_555
O7 Sm10 2.322227 1_556
O7 Sm12 2.324938 1_555
O7 Sm0 2.356510 1_555
O7 Sm5 2.415694 1_555
O8 Sm14 2.322227 1_655
O8 Sm11 2.324938 1_555
O8 Sm0 2.356509 1_555
O8 Sm9 2.415695 1_555
O9 Sm13 2.322227 1_565
O9 Sm10 2.324938 1_556
O9 Sm2 2.356509 1_566
O9 Sm8 2.415695 1_566
O10 Sm11 2.322227 1_555
O10 Sm10 2.324938 1_555
O10 Sm1 2.356510 1_665
O10 Sm6 2.415694 1_555
O11 Sm11 2.322227 1_555
O11 Sm15 2.324938 1_655
O11 Sm3 2.356509 1_655
O11 Sm8 2.415695 1_555
O12 Sm7 2.322227 1_545
O12 Sm9 2.324938 1_555
O12 Sm0 2.356510 1_555
O12 Sm12 2.415694 1_555
O13 Sm8 2.322227 1_455
O13 Sm7 2.324938 1_545
O13 Sm1 2.356509 1_555
O13 Sm10 2.415695 1_445
O14 Sm9 2.322227 1_555
O14 Sm8 2.324938 1_555
O14 Sm2 2.356510 1_555
O14 Sm11 2.415694 1_555
O15 Sm6 2.322227 1_555
O15 Sm5 2.324938 1_554
O15 Sm2 2.356509 1_565
O15 Sm10 2.415694 1_555
O16 Sm4 2.322227 1_554
O16 Sm8 2.324938 1_455
O16 Sm3 2.356510 1_555
O16 Sm13 2.415695 1_454
O17 Sm6 2.322227 1_555
O17 Sm7 2.324938 1_555
O17 Sm3 2.356510 1_555
O17 Sm15 2.415694 1_555
O18 Sm9 2.322227 1_555
O18 Sm6 2.324938 1_545
O18 Sm1 2.356509 1_655
O18 Sm13 2.415695 1_555
O19 Sm4 2.322227 1_554
O19 Sm6 2.324938 1_555
O19 Sm0 2.356510 1_555
O19 Sm11 2.415694 1_555
O20 Sm8 2.322227 1_455
O20 Sm5 2.324938 1_555
O20 Sm0 2.356509 1_555
O20 Sm15 2.415695 1_555
O21 Sm7 2.322227 1_545
O21 Sm4 2.324938 1_554
O21 Sm2 2.356509 1_555
O21 Sm14 2.415695 1_544
O22 Sm5 2.322227 1_555
O22 Sm4 2.324938 1_555
O22 Sm1 2.356510 1_555
O22 Sm12 2.415694 1_555
O23 Sm5 2.322227 1_555
O23 Sm9 2.324938 1_455
O23 Sm3 2.356509 1_556
O23 Sm14 2.415695 1_555
