# generated using pymatgen
data_MgMn6O11F
_symmetry_space_group_name_H-M   'P 1'
_cell_length_a   4.91706968
_cell_length_b   7.52448581
_cell_length_c   5.55829293
_cell_angle_alpha   96.05004486
_cell_angle_beta   93.60600469
_cell_angle_gamma   87.39349101
_symmetry_Int_Tables_number   1
_chemical_formula_structural   MgMn6O11F
_chemical_formula_sum   'Mg1 Mn6 O11 F1'
_cell_volume   203.94134729
_cell_formula_units_Z   1
loop_
 _symmetry_equiv_pos_site_id
 _symmetry_equiv_pos_as_xyz
  1  'x, y, z'
loop_
 _atom_site_type_symbol
 _atom_site_label
 _atom_site_symmetry_multiplicity
 _atom_site_fract_x
 _atom_site_fract_y
 _atom_site_fract_z
 _atom_site_occupancy
  Mg  Mg0  1  0.00681600  0.83512700  0.33932400  1
  Mn  Mn0  1  0.50399200  0.00361800  0.48605700  1
  Mn  Mn1  1  0.51916200  0.66144600  0.15071500  1
  Mn  Mn2  1  0.49870300  0.32644900  0.83176600  1
  Mn  Mn3  1  0.98037900  0.64411400  0.71267500  1
  Mn  Mn4  1  0.99281000  0.31802500  0.32971100  1
  Mn  Mn5  1  0.00919700  0.01219800  0.95715900  1
  O  O0  1  0.81164600  0.42223300  0.63725600  1
  O  O1  1  0.83768900  0.77298200  0.99159700  1
  O  O2  1  0.84642800  0.08545700  0.27488300  1
  O  O3  1  0.68572800  0.09422000  0.78796100  1
  O  O4  1  0.67840000  0.75903300  0.46999700  1
  O  O5  1  0.68605500  0.42291700  0.13447100  1
  O  O6  1  0.31376300  0.55733000  0.86840500  1
  O  O7  1  0.31382400  0.23411200  0.52231400  1
  O  O8  1  0.32276000  0.89832700  0.18037800  1
  O  O9  1  0.18263600  0.23272000  0.02161800  1
  O  O10  1  0.15711500  0.87928000  0.68308500  1
  F  F0  1  0.15289400  0.57255300  0.37063000  1
loop_
_geom_bond_atom_site_label_1
_geom_bond_atom_site_label_2
_geom_bond_distance
_geom_bond_site_symmetry_2
Mg0 O8 1.936100 1_555
Mg0 O4 1.944837 1_455
Mg0 O10 2.004571 1_555
Mg0 O2 2.066346 1_465
Mg0 O1 2.070869 1_454
Mn0 O3 1.924799 1_555
Mn0 O7 1.930145 1_555
Mn0 O8 1.974483 1_545
Mn0 O4 1.990438 1_545
Mn0 O2 2.255511 1_555
Mn0 O10 2.362171 1_545
Mn1 O6 1.926011 1_554
Mn1 O5 1.934971 1_555
Mn1 O4 1.975978 1_555
Mn1 O8 1.984516 1_555
Mn1 O1 2.095198 1_554
Mn2 O6 1.921333 1_555
Mn2 O3 1.936678 1_555
Mn2 O5 1.953159 1_556
Mn2 O7 1.968873 1_555
Mn2 O9 2.118754 1_556
Mn2 O0 2.128496 1_555
Mn3 O0 1.893715 1_555
Mn3 O1 1.895812 1_555
Mn3 O6 1.925144 1_655
Mn3 O10 2.032875 1_655
Mn3 O4 2.156180 1_555
Mn4 O2 1.909931 1_555
Mn4 O7 1.968631 1_655
Mn4 O5 1.985456 1_555
Mn4 O9 2.032398 1_655
Mn4 O0 2.043516 1_555
Mn5 O9 1.890485 1_556
Mn5 O10 1.897900 1_545
Mn5 O3 1.907882 1_455
Mn5 O2 1.998911 1_456
Mn5 O1 2.053957 1_445
Mn5 O8 2.124619 1_546
F0 Mn4 2.088555 1_455
F0 Mg0 2.092224 1_555
F0 Mn3 2.137647 1_455
F0 Mn1 2.396631 1_555
