# generated using pymatgen
data_Ho5(Ge5Rh2)2
_symmetry_space_group_name_H-M   'P 1'
_cell_length_a   12.94902453
_cell_length_b   12.94903363
_cell_length_c   4.26230961
_cell_angle_alpha   90.00000187
_cell_angle_beta   89.99999951
_cell_angle_gamma   89.99977876
_symmetry_Int_Tables_number   1
_chemical_formula_structural   Ho5(Ge5Rh2)2
_chemical_formula_sum   'Ho10 Ge20 Rh8'
_cell_volume   714.69279782
_cell_formula_units_Z   2
loop_
 _symmetry_equiv_pos_site_id
 _symmetry_equiv_pos_as_xyz
  1  'x, y, z'
loop_
 _atom_site_type_symbol
 _atom_site_label
 _atom_site_symmetry_multiplicity
 _atom_site_fract_x
 _atom_site_fract_y
 _atom_site_fract_z
 _atom_site_occupancy
  Ho  Ho0  1  0.50001607  0.50000271  0.00000009  1
  Ho  Ho1  1  -0.00001433  -0.00000412  -0.00000005  1
  Ho  Ho2  1  0.88734604  0.38735097  0.50000013  1
  Ho  Ho3  1  0.38735668  0.11264080  0.50000014  1
  Ho  Ho4  1  0.61266909  0.88735519  0.49999977  1
  Ho  Ho5  1  0.11262415  0.61265586  0.50000014  1
  Ho  Ho6  1  0.32560077  0.82562699  0.49999984  1
  Ho  Ho7  1  0.82562358  0.67440149  0.49999956  1
  Ho  Ho8  1  0.17436062  0.32560414  0.49999960  1
  Ho  Ho9  1  0.67441113  0.17437362  0.50000010  1
  Ge  Ge0  1  0.43297758  0.93297584  -0.00000006  1
  Ge  Ge1  1  0.93296943  0.56703391  -0.00000004  1
  Ge  Ge2  1  0.06700996  0.43297246  -0.00000015  1
  Ge  Ge3  1  0.56704396  0.06702117  0.00000022  1
  Ge  Ge4  1  0.33776374  0.29924723  -0.00000016  1
  Ge  Ge5  1  0.66225958  0.70075099  0.00000002  1
  Ge  Ge6  1  0.70076167  0.33775839  0.00000014  1
  Ge  Ge7  1  0.29924943  0.66225021  0.00000005  1
  Ge  Ge8  1  0.79926211  0.83776035  -0.00000002  1
  Ge  Ge9  1  0.83775107  0.20073426  -0.00000011  1
  Ge  Ge10  1  0.16222298  0.79926042  0.00000012  1
  Ge  Ge11  1  0.20072824  0.16223771  -0.00000004  1
  Ge  Ge12  1  0.34209063  0.49706950  0.50000003  1
  Ge  Ge13  1  0.65792821  0.50293030  0.49999969  1
  Ge  Ge14  1  0.50295292  0.34208718  0.49999987  1
  Ge  Ge15  1  0.49709227  0.65791697  0.50000010  1
  Ge  Ge16  1  0.99704843  0.84209531  0.49999997  1
  Ge  Ge17  1  0.84209507  0.00292690  0.49999990  1
  Ge  Ge18  1  0.00290672  0.15789948  0.50000004  1
  Ge  Ge19  1  0.15788991  0.99706936  0.50000052  1
  Rh  Rh0  1  0.25480249  0.47915798  -0.00000002  1
  Rh  Rh1  1  0.74519468  0.52083796  0.00000009  1
  Rh  Rh2  1  0.52084940  0.25481009  -0.00000002  1
  Rh  Rh3  1  0.47917435  0.74519243  0.00000014  1
  Rh  Rh4  1  0.97914470  0.75480946  -0.00000000  1
  Rh  Rh5  1  0.75481258  0.02083812  0.00000015  1
  Rh  Rh6  1  0.24518900  0.97915255  -0.00000006  1
  Rh  Rh7  1  0.02083312  0.24519582  0.00000030  1
loop_
_geom_bond_atom_site_label_1
_geom_bond_atom_site_label_2
_geom_bond_distance
_geom_bond_site_symmetry_2
Ho0 Rh1 3.186268 1_555
Ho0 Rh3 3.186418 1_555
Ho0 Rh2 3.186447 1_555
Ho0 Rh0 3.186729 1_555
Ho1 Rh5 3.186202 1_455
Ho1 Rh4 3.186377 1_445
Ho1 Rh7 3.186559 1_555
Ho1 Rh6 3.186594 1_545
Ho2 Rh1 3.304218 1_556
Ho2 Rh1 3.304219 1_555
Ho2 Rh7 3.304246 1_655
Ho2 Rh7 3.304247 1_656
Ho3 Rh6 3.304352 1_546
Ho3 Rh6 3.304353 1_545
Ho3 Rh2 3.304394 1_556
Ho3 Rh2 3.304395 1_555
Ho4 Rh5 3.304141 1_565
Ho4 Rh5 3.304143 1_566
Ho4 Rh3 3.304360 1_555
Ho4 Rh3 3.304362 1_556
Ho5 Rh4 3.304183 1_456
Ho5 Rh4 3.304184 1_455
Ho5 Rh0 3.304486 1_556
Ho5 Rh0 3.304487 1_555
Ho6 Rh6 3.094865 1_555
Ho6 Rh6 3.094865 1_556
Ho6 Rh3 3.095362 1_555
Ho6 Rh3 3.095364 1_556
Ho7 Rh4 3.094815 1_555
Ho7 Rh4 3.094817 1_556
Ho7 Rh1 3.095259 1_555
Ho7 Rh1 3.095262 1_556
Ho8 Rh7 3.094869 1_555
Ho8 Rh7 3.094873 1_556
Ho8 Rh0 3.095235 1_555
Ho8 Rh0 3.095238 1_556
Ho9 Rh5 3.094902 1_555
Ho9 Rh5 3.094903 1_556
Ho9 Rh2 3.095272 1_556
Ho9 Rh2 3.095273 1_555
Ge0 Ge3 2.454928 1_565
Ge0 Rh3 2.504113 1_555
Ge0 Rh6 2.504114 1_555
Ge0 Ho6 2.899551 1_555
Ge0 Ho6 2.899551 1_554
Ge0 Ho3 3.209880 1_564
Ge0 Ho3 3.209881 1_565
Ge0 Ho4 3.210128 1_555
Ge0 Ho4 3.210129 1_554
Ge1 Ge2 2.454830 1_655
Ge1 Rh4 2.503952 1_555
Ge1 Rh1 2.504004 1_555
Ge1 Ho7 2.899468 1_555
Ge1 Ho7 2.899471 1_554
Ge1 Ho5 3.209789 1_654
Ge1 Ho5 3.209790 1_655
Ge1 Ho2 3.210058 1_554
Ge1 Ho2 3.210059 1_555
Ge2 Rh7 2.503971 1_555
Ge2 Rh0 2.504196 1_555
Ge2 Ho8 2.899503 1_555
Ge2 Ho8 2.899505 1_554
Ge2 Ho2 3.209874 1_454
Ge2 Ho2 3.209876 1_455
Ge2 Ho5 3.210041 1_554
Ge2 Ho5 3.210042 1_555
Ge3 Rh5 2.503883 1_555
Ge3 Rh2 2.504175 1_555
Ge3 Ho9 2.899513 1_555
Ge3 Ho9 2.899514 1_554
Ge3 Ho4 3.209899 1_545
Ge3 Ho4 3.209902 1_544
Ge3 Ho3 3.210086 1_555
Ge3 Ho3 3.210087 1_554
Ge4 Rh2 2.439610 1_555
Ge4 Rh0 2.565423 1_555
Ge4 Ho8 3.022478 1_555
Ge4 Ho8 3.022480 1_554
Ge4 Ho3 3.285279 1_554
Ge4 Ho3 3.285281 1_555
Ge4 Ho0 3.342476 1_555
Ge5 Rh3 2.439618 1_555
Ge5 Rh1 2.565308 1_555
Ge5 Ho7 3.022112 1_555
Ge5 Ho7 3.022115 1_554
Ge5 Ho4 3.285251 1_555
Ge5 Ho4 3.285253 1_554
Ge5 Ho0 3.342332 1_555
Ge6 Rh1 2.439527 1_555
Ge6 Rh2 2.565377 1_555
Ge6 Ho9 3.022306 1_555
Ge6 Ho9 3.022306 1_554
Ge6 Ho2 3.285071 1_555
Ge6 Ho2 3.285071 1_554
Ge6 Ho0 3.342299 1_555
Ge7 Rh0 2.439728 1_555
Ge7 Rh3 2.565493 1_555
Ge7 Ho6 3.022234 1_555
Ge7 Ho6 3.022235 1_554
Ge7 Ho5 3.285465 1_554
Ge7 Ho5 3.285465 1_555
Ge7 Ho0 3.342536 1_555
Ge8 Rh5 2.439550 1_565
Ge8 Rh4 2.565034 1_555
Ge8 Ho7 3.022084 1_555
Ge8 Ho7 3.022086 1_554
Ge8 Ho4 3.285155 1_555
Ge8 Ho4 3.285156 1_554
Ge8 Ho1 3.342018 1_665
Ge9 Rh7 2.439643 1_655
Ge9 Rh5 2.565135 1_555
Ge9 Ho9 3.021913 1_554
Ge9 Ho9 3.021914 1_555
Ge9 Ho2 3.285386 1_554
Ge9 Ho2 3.285387 1_555
Ge9 Ho1 3.342147 1_655
Ge10 Rh4 2.439564 1_455
Ge10 Rh6 2.565237 1_555
Ge10 Ho6 3.022264 1_555
Ge10 Ho6 3.022266 1_554
Ge10 Ho5 3.285280 1_554
Ge10 Ho5 3.285281 1_555
Ge10 Ho1 3.342140 1_565
Ge11 Rh6 2.439677 1_545
Ge11 Rh7 2.565221 1_555
Ge11 Ho8 3.022162 1_555
Ge11 Ho8 3.022164 1_554
Ge11 Ho3 3.285498 1_554
Ge11 Ho3 3.285499 1_555
Ge11 Ho1 3.342260 1_555
Ge12 Rh0 2.423466 1_556
Ge12 Rh0 2.423466 1_555
Ge12 Ho0 2.953846 1_555
Ge12 Ho0 2.953847 1_556
Ge12 Ho8 3.105985 1_555
Ge12 Ho5 3.327040 1_555
Ge13 Rh1 2.423329 1_555
Ge13 Rh1 2.423332 1_556
Ge13 Ho0 2.953725 1_555
Ge13 Ho0 2.953728 1_556
Ge13 Ho7 3.105725 1_555
Ge13 Ho2 3.326436 1_555
Ge14 Rh2 2.423380 1_555
Ge14 Rh2 2.423381 1_556
Ge14 Ho0 2.953758 1_555
Ge14 Ho0 2.953760 1_556
Ge14 Ho9 3.105757 1_555
Ge14 Ho3 3.326877 1_555
Ge15 Rh3 2.423397 1_555
Ge15 Rh3 2.423397 1_556
Ge15 Ho0 2.953745 1_555
Ge15 Ho0 2.953745 1_556
Ge15 Ho6 3.106034 1_555
Ge15 Ho4 3.326669 1_555
Ge16 Rh4 2.423443 1_555
Ge16 Rh4 2.423443 1_556
Ge16 Ho1 2.953625 1_666
Ge16 Ho1 2.953625 1_665
Ge16 Ho7 3.105282 1_555
Ge16 Ho5 3.326667 1_655
Ge17 Rh5 2.423430 1_555
Ge17 Rh5 2.423432 1_556
Ge17 Ho1 2.953533 1_655
Ge17 Ho1 2.953534 1_656
Ge17 Ho9 3.105383 1_555
Ge17 Ho4 3.326496 1_545
Ge18 Rh7 2.423533 1_555
Ge18 Rh7 2.423535 1_556
Ge18 Ho1 2.953649 1_556
Ge18 Ho1 2.953650 1_555
Ge18 Ho8 3.105649 1_555
Ge18 Ho2 3.326718 1_455
Ge19 Rh6 2.423536 1_556
Ge19 Rh6 2.423540 1_555
Ge19 Ho1 2.953653 1_566
Ge19 Ho1 2.953657 1_565
Ge19 Ho6 3.105586 1_555
Ge19 Ho3 3.326967 1_565
