# generated using pymatgen
data_CaCoAsHO5
_symmetry_space_group_name_H-M   'P 1'
_cell_length_a   6.00421800
_cell_length_b   7.58981000
_cell_length_c   9.08435300
_cell_angle_alpha   90.00000000
_cell_angle_beta   90.00000000
_cell_angle_gamma   90.00000000
_symmetry_Int_Tables_number   1
_chemical_formula_structural   CaCoAsHO5
_chemical_formula_sum   'Ca4 Co4 As4 H4 O20'
_cell_volume   413.98190429
_cell_formula_units_Z   4
loop_
 _symmetry_equiv_pos_site_id
 _symmetry_equiv_pos_as_xyz
  1  'x, y, z'
loop_
 _atom_site_type_symbol
 _atom_site_label
 _atom_site_symmetry_multiplicity
 _atom_site_fract_x
 _atom_site_fract_y
 _atom_site_fract_z
 _atom_site_occupancy
  Ca  Ca0  1  0.52317100  0.62769300  0.32739200  1
  Ca  Ca1  1  0.02317100  0.87230700  0.67260800  1
  Ca  Ca2  1  0.47682900  0.12769300  0.17260800  1
  Ca  Ca3  1  0.97682900  0.37230700  0.82739200  1
  Co  Co0  1  0.24427500  0.74146000  0.00552600  1
  Co  Co1  1  0.74427500  0.75854000  0.99447400  1
  Co  Co2  1  0.75572500  0.24146000  0.49447400  1
  Co  Co3  1  0.25572500  0.25854000  0.50552600  1
  As  As0  1  0.48287200  0.62326000  0.67745500  1
  As  As1  1  0.98287200  0.87674000  0.32254500  1
  As  As2  1  0.51712800  0.12326000  0.82254500  1
  As  As3  1  0.01712800  0.37674000  0.17745500  1
  H  H0  1  0.51663700  0.48855100  0.02090600  1
  H  H1  1  0.01663700  0.01144900  0.97909400  1
  H  H2  1  0.48336300  0.98855100  0.47909400  1
  H  H3  1  0.98336300  0.51144900  0.52090600  1
  O  O0  1  0.50472000  0.60373600  0.07196300  1
  O  O1  1  0.00472000  0.89626400  0.92803700  1
  O  O2  1  0.49528000  0.10373600  0.42803700  1
  O  O3  1  0.99528000  0.39626400  0.57196300  1
  O  O4  1  0.25444800  0.60717600  0.79311500  1
  O  O5  1  0.75444800  0.89282400  0.20688500  1
  O  O6  1  0.74555200  0.10717600  0.70688500  1
  O  O7  1  0.24555200  0.39282400  0.29311500  1
  O  O8  1  0.50949300  0.44604000  0.55608600  1
  O  O9  1  0.00949300  0.05396000  0.44391400  1
  O  O10  1  0.49050700  0.94604000  0.94391400  1
  O  O11  1  0.99050700  0.55396000  0.05608600  1
  O  O12  1  0.90973700  0.70798700  0.43973700  1
  O  O13  1  0.40973700  0.79201300  0.56026300  1
  O  O14  1  0.09026300  0.20798700  0.06026300  1
  O  O15  1  0.59026300  0.29201300  0.93973700  1
  O  O16  1  0.76705600  0.34972000  0.26998200  1
  O  O17  1  0.26705600  0.15028000  0.73001800  1
  O  O18  1  0.23294400  0.84972000  0.23001800  1
  O  O19  1  0.73294400  0.65028000  0.76998200  1
loop_
_geom_bond_atom_site_label_1
_geom_bond_atom_site_label_2
_geom_bond_distance
_geom_bond_site_symmetry_2
Ca0 O0 2.330155 1_555
Ca0 O7 2.460319 1_555
Ca0 O8 2.494745 1_555
Ca0 O13 2.548439 1_555
Ca0 O18 2.580464 1_555
Ca0 O12 2.607708 1_555
Ca0 O16 2.620569 1_555
Ca0 O5 2.678819 1_555
Ca1 O1 2.330155 1_555
Ca1 O6 2.460319 1_465
Ca1 O9 2.494745 1_565
Ca1 O12 2.548439 1_455
Ca1 O19 2.580464 1_455
Ca1 O13 2.607708 1_555
Ca1 O17 2.620569 1_565
Ca1 O4 2.678819 1_555
Ca2 O2 2.330155 1_555
Ca2 O5 2.460319 1_545
Ca2 O10 2.494745 1_544
Ca2 O15 2.548439 1_554
Ca2 O16 2.580464 1_555
Ca2 O14 2.607708 1_555
Ca2 O18 2.620569 1_545
Ca2 O7 2.678819 1_555
Ca3 O3 2.330155 1_555
Ca3 O4 2.460319 1_655
Ca3 O11 2.494745 1_556
Ca3 O14 2.548439 1_656
Ca3 O17 2.580464 1_655
Ca3 O15 2.607708 1_555
Ca3 O19 2.620569 1_555
Ca3 O6 2.678819 1_555
Co0 O0 1.975419 1_555
Co0 O1 1.986157 1_554
Co0 O11 2.134886 1_455
Co0 O4 2.183094 1_554
Co0 O18 2.199723 1_555
Co0 O10 2.215847 1_554
Co1 O1 1.975419 1_655
Co1 O0 1.986157 1_556
Co1 O10 2.134886 1_555
Co1 O5 2.183094 1_556
Co1 O19 2.199723 1_555
Co1 O11 2.215847 1_556
Co2 O2 1.975419 1_555
Co2 O3 1.986157 1_555
Co2 O9 2.134886 1_655
Co2 O6 2.183094 1_555
Co2 O16 2.199723 1_555
Co2 O8 2.215847 1_555
Co3 O3 1.975419 1_455
Co3 O2 1.986157 1_555
Co3 O8 2.134886 1_555
Co3 O7 2.183094 1_555
Co3 O17 2.199723 1_555
Co3 O9 2.215847 1_555
As0 O13 1.722406 1_555
As0 O4 1.732021 1_555
As0 O19 1.732928 1_555
As0 O8 1.746536 1_555
As1 O12 1.722406 1_555
As1 O5 1.732021 1_555
As1 O18 1.732928 1_655
As1 O9 1.746536 1_665
As2 O15 1.722406 1_555
As2 O6 1.732021 1_555
As2 O17 1.732928 1_555
As2 O10 1.746536 1_545
As3 O14 1.722406 1_555
As3 O7 1.732021 1_555
As3 O16 1.732928 1_455
As3 O11 1.746536 1_455
H0 O0 0.992235 1_555
H0 O15 1.721703 1_554
H1 O1 0.992235 1_545
H1 O14 1.721703 1_556
H2 O2 0.992235 1_565
H2 O13 1.721703 1_555
H3 O3 0.992235 1_555
H3 O12 1.721703 1_555
