# generated using pymatgen
data_MgCo2Te2(MoO6)2
_symmetry_space_group_name_H-M   'P 1'
_cell_length_a   5.10820186
_cell_length_b   5.31704249
_cell_length_c   10.20018536
_cell_angle_alpha   90.00050204
_cell_angle_beta   90.03160139
_cell_angle_gamma   91.14368557
_symmetry_Int_Tables_number   1
_chemical_formula_structural   MgCo2Te2(MoO6)2
_chemical_formula_sum   'Mg1 Co2 Te2 Mo2 O12'
_cell_volume   276.98716938
_cell_formula_units_Z   1
loop_
 _symmetry_equiv_pos_site_id
 _symmetry_equiv_pos_as_xyz
  1  'x, y, z'
loop_
 _atom_site_type_symbol
 _atom_site_label
 _atom_site_symmetry_multiplicity
 _atom_site_fract_x
 _atom_site_fract_y
 _atom_site_fract_z
 _atom_site_occupancy
  Mg  Mg0  1  0.00020000  0.99997700  0.00165900  1
  Co  Co0  1  0.99985400  0.00008500  0.48287900  1
  Co  Co1  1  0.49994100  0.50008000  0.52670600  1
  Te  Te0  1  0.99983300  0.49992300  0.28962200  1
  Te  Te1  1  0.50008300  0.00003500  0.72157200  1
  Mo  Mo0  1  0.99994700  0.49985700  0.76605400  1
  Mo  Mo1  1  0.50026700  0.99943300  0.23294800  1
  O  O0  1  0.25206300  0.80175000  0.33084600  1
  O  O1  1  0.27074200  0.81541100  0.60182500  1
  O  O2  1  0.74750600  0.19818300  0.33101200  1
  O  O3  1  0.72940600  0.18492700  0.60200500  1
  O  O4  1  0.73023100  0.85070300  0.11930700  1
  O  O5  1  0.77972100  0.68674100  0.40694100  1
  O  O6  1  0.12717200  0.74572900  0.87871700  1
  O  O7  1  0.87285900  0.25430200  0.87879600  1
  O  O8  1  0.21954400  0.31369700  0.40739300  1
  O  O9  1  0.72775100  0.68626400  0.68316000  1
  O  O10  1  0.27034900  0.14898000  0.11941400  1
  O  O11  1  0.27252800  0.31392400  0.68343200  1
loop_
_geom_bond_atom_site_label_1
_geom_bond_atom_site_label_2
_geom_bond_distance
_geom_bond_site_symmetry_2
Mg0 O7 1.963809 1_464
Mg0 O6 1.963832 1_554
Mg0 O10 1.982223 1_565
Mg0 O4 1.982416 1_455
Co0 O1 2.098420 1_645
Co0 O3 2.099283 1_555
Co0 O8 2.135188 1_655
Co0 O5 2.136454 1_545
Co0 O2 2.285326 1_555
Co0 O0 2.287613 1_645
Co1 O8 2.110963 1_555
Co1 O5 2.113114 1_555
Co1 O9 2.198386 1_555
Co1 O11 2.200225 1_555
Co1 O1 2.201880 1_555
Co1 O3 2.202093 1_555
Mo0 O7 1.848134 1_555
Mo0 O6 1.848588 1_655
Mo0 O11 1.919012 1_655
Mo0 O9 1.919455 1_555
Mo1 O4 1.840521 1_555
Mo1 O10 1.840802 1_565
Mo1 O2 1.912494 1_565
Mo1 O0 1.912504 1_555
O0 Te0 2.080676 1_455
O1 Te1 1.944355 1_565
O2 Te0 2.081261 1_555
O3 Te1 1.944672 1_555
O5 Te0 1.931058 1_555
O8 Te0 1.930296 1_455
O9 Te1 2.089810 1_565
O11 Te1 2.089235 1_555
