# generated using pymatgen
data_Cu10Sb3
_symmetry_space_group_name_H-M   'P 1'
_cell_length_a   10.07653226
_cell_length_b   10.07653226
_cell_length_c   4.30219600
_cell_angle_alpha   90.00000000
_cell_angle_beta   90.00000000
_cell_angle_gamma   120.00000174
_symmetry_Int_Tables_number   1
_chemical_formula_structural   Cu10Sb3
_chemical_formula_sum   'Cu20 Sb6'
_cell_volume   378.30581408
_cell_formula_units_Z   2
loop_
 _symmetry_equiv_pos_site_id
 _symmetry_equiv_pos_as_xyz
  1  'x, y, z'
loop_
 _atom_site_type_symbol
 _atom_site_label
 _atom_site_symmetry_multiplicity
 _atom_site_fract_x
 _atom_site_fract_y
 _atom_site_fract_z
 _atom_site_occupancy
  Cu  Cu0  1  0.33333300  0.66666700  0.75000000  1
  Cu  Cu1  1  0.66666700  0.33333300  0.25000000  1
  Cu  Cu2  1  0.11593500  0.16671200  0.25000000  1
  Cu  Cu3  1  0.83328800  0.94922300  0.25000000  1
  Cu  Cu4  1  0.05077700  0.88406500  0.25000000  1
  Cu  Cu5  1  0.88406500  0.83328800  0.75000000  1
  Cu  Cu6  1  0.16671200  0.05077700  0.75000000  1
  Cu  Cu7  1  0.94922300  0.11593500  0.75000000  1
  Cu  Cu8  1  0.44114100  0.41760900  0.25000000  1
  Cu  Cu9  1  0.58239100  0.02353200  0.25000000  1
  Cu  Cu10  1  0.97646800  0.55885900  0.25000000  1
  Cu  Cu11  1  0.55885900  0.58239100  0.75000000  1
  Cu  Cu12  1  0.41760900  0.97646800  0.75000000  1
  Cu  Cu13  1  0.02353200  0.44114100  0.75000000  1
  Cu  Cu14  1  0.20869400  0.50379200  0.25000000  1
  Cu  Cu15  1  0.49620800  0.70490200  0.25000000  1
  Cu  Cu16  1  0.29509800  0.79130600  0.25000000  1
  Cu  Cu17  1  0.79130600  0.49620800  0.75000000  1
  Cu  Cu18  1  0.50379200  0.29509800  0.75000000  1
  Cu  Cu19  1  0.70490200  0.20869400  0.75000000  1
  Sb  Sb0  1  0.36246300  0.10685000  0.25000000  1
  Sb  Sb1  1  0.89315000  0.25561200  0.25000000  1
  Sb  Sb2  1  0.74438800  0.63753700  0.25000000  1
  Sb  Sb3  1  0.63753700  0.89315000  0.75000000  1
  Sb  Sb4  1  0.10685000  0.74438800  0.75000000  1
  Sb  Sb5  1  0.25561200  0.36246300  0.75000000  1
loop_
_geom_bond_atom_site_label_1
_geom_bond_atom_site_label_2
_geom_bond_distance
_geom_bond_site_symmetry_2
Cu0 Cu16 2.614746 1_556
Cu0 Cu16 2.614746 1_555
Cu0 Cu14 2.614750 1_556
Cu0 Cu14 2.614750 1_555
Cu0 Cu15 2.614752 1_555
Cu0 Cu15 2.614752 1_556
Cu0 Sb3 2.758424 1_555
Cu0 Sb5 2.758424 1_555
Cu0 Sb4 2.758424 1_555
Cu0 Cu12 2.795585 1_555
Cu0 Cu13 2.795588 1_555
Cu0 Cu11 2.795595 1_555
Cu1 Cu19 2.614746 1_554
Cu1 Cu19 2.614746 1_555
Cu1 Cu17 2.614750 1_555
Cu1 Cu17 2.614750 1_554
Cu1 Cu18 2.614752 1_555
Cu1 Cu18 2.614752 1_554
Cu1 Sb0 2.758424 1_555
Cu1 Sb2 2.758424 1_555
Cu1 Sb1 2.758424 1_555
Cu1 Cu9 2.795585 1_555
Cu1 Cu10 2.795588 1_555
Cu1 Cu8 2.795595 1_555
Cu2 Cu3 2.583175 1_445
Cu2 Cu4 2.583175 1_545
Cu2 Cu7 2.617535 1_454
Cu2 Cu7 2.617535 1_455
Cu2 Cu6 2.617535 1_554
Cu2 Cu6 2.617535 1_555
Cu2 Sb5 2.778972 1_554
Cu2 Sb5 2.778972 1_555
Cu2 Sb1 2.802326 1_455
Cu2 Sb0 2.834304 1_555
Cu2 Cu8 2.974114 1_555
Cu3 Cu4 2.583175 1_655
Cu3 Cu7 2.617535 1_564
Cu3 Cu7 2.617535 1_565
Cu3 Cu5 2.617535 1_555
Cu3 Cu5 2.617535 1_554
Cu3 Sb3 2.778974 1_555
Cu3 Sb3 2.778974 1_554
Cu3 Sb2 2.802336 1_555
Cu3 Sb1 2.834294 1_565
Cu3 Cu9 2.974114 1_565
Cu4 Cu6 2.617535 1_565
Cu4 Cu6 2.617535 1_564
Cu4 Cu5 2.617535 1_455
Cu4 Cu5 2.617535 1_454
Cu4 Sb4 2.778967 1_555
Cu4 Sb4 2.778967 1_554
Cu4 Sb0 2.802333 1_565
Cu4 Sb2 2.834298 1_455
Cu5 Cu6 2.583175 1_665
Cu5 Cu7 2.583175 1_565
Cu5 Sb2 2.778972 1_556
Cu5 Sb2 2.778972 1_555
Cu5 Sb4 2.802326 1_655
Cu5 Sb3 2.834304 1_555
Cu6 Cu7 2.583175 1_455
Cu6 Sb0 2.778974 1_556
Cu6 Sb0 2.778974 1_555
Cu6 Sb5 2.802336 1_555
Cu6 Sb4 2.834294 1_545
Cu7 Sb1 2.778967 1_555
Cu7 Sb1 2.778967 1_556
Cu7 Sb3 2.802333 1_545
Cu7 Sb5 2.834298 1_655
Cu8 Sb5 2.718852 1_555
Cu8 Sb5 2.718852 1_554
Cu8 Sb2 2.734336 1_555
Cu8 Sb0 2.819836 1_555
Cu9 Sb3 2.718846 1_545
Cu9 Sb3 2.718846 1_544
Cu9 Sb0 2.734329 1_555
Cu9 Sb1 2.819833 1_555
Cu10 Cu13 2.611841 1_655
Cu10 Cu13 2.611841 1_654
Cu10 Cu14 2.661221 1_655
Cu10 Cu17 2.707224 1_555
Cu10 Cu17 2.707224 1_554
Cu10 Sb4 2.718850 1_655
Cu10 Sb4 2.718850 1_654
Cu10 Sb1 2.734339 1_555
Cu10 Sb2 2.819826 1_555
Cu10 Cu16 2.876530 1_655
Cu10 Cu4 2.974114 1_655
Cu11 Cu8 2.611841 1_556
Cu11 Cu8 2.611841 1_555
Cu11 Cu18 2.661221 1_555
Cu11 Cu15 2.707224 1_555
Cu11 Cu15 2.707224 1_556
Cu11 Sb2 2.718852 1_555
Cu11 Sb2 2.718852 1_556
Cu11 Sb5 2.734336 1_555
Cu11 Sb3 2.819836 1_555
Cu11 Cu17 2.876530 1_555
Cu11 Cu5 2.974114 1_555
Cu12 Cu9 2.611841 1_566
Cu12 Cu9 2.611841 1_565
Cu12 Cu19 2.661221 1_565
Cu12 Cu16 2.707224 1_556
Cu12 Cu16 2.707224 1_555
Cu12 Sb0 2.718846 1_565
Cu12 Sb0 2.718846 1_566
Cu12 Sb3 2.734329 1_555
Cu12 Sb4 2.819833 1_555
Cu12 Cu18 2.876530 1_565
Cu12 Cu6 2.974114 1_565
Cu13 Cu17 2.661221 1_455
Cu13 Cu14 2.707224 1_556
Cu13 Cu14 2.707224 1_555
Cu13 Sb1 2.718850 1_456
Cu13 Sb1 2.718850 1_455
Cu13 Sb4 2.734339 1_555
Cu13 Sb5 2.819826 1_555
Cu13 Cu19 2.876530 1_455
Cu13 Cu7 2.974114 1_455
Cu14 Cu15 2.574699 1_555
Cu14 Cu16 2.574699 1_555
Cu14 Sb5 2.748106 1_555
Cu14 Sb5 2.748106 1_554
Cu14 Cu8 2.876530 1_555
Cu14 Sb1 2.900390 1_455
Cu14 Cu2 3.039039 1_555
Cu15 Cu16 2.574699 1_555
Cu15 Cu8 2.661221 1_555
Cu15 Sb3 2.748111 1_554
Cu15 Sb3 2.748111 1_555
Cu15 Cu9 2.876530 1_565
Cu15 Sb2 2.900396 1_555
Cu15 Cu3 3.039039 1_555
Cu16 Cu9 2.661221 1_565
Cu16 Sb4 2.748113 1_555
Cu16 Sb4 2.748113 1_554
Cu16 Sb0 2.900387 1_565
Cu16 Cu4 3.039039 1_555
Cu17 Cu18 2.574699 1_555
Cu17 Cu19 2.574699 1_555
Cu17 Sb2 2.748106 1_555
Cu17 Sb2 2.748106 1_556
Cu17 Sb4 2.900390 1_655
Cu17 Cu5 3.039039 1_555
Cu18 Cu19 2.574699 1_555
Cu18 Cu8 2.707224 1_556
Cu18 Cu8 2.707224 1_555
Cu18 Sb0 2.748111 1_556
Cu18 Sb0 2.748111 1_555
Cu18 Sb5 2.900396 1_555
Cu18 Cu6 3.039039 1_555
Cu19 Cu9 2.707224 1_555
Cu19 Cu9 2.707224 1_556
Cu19 Sb1 2.748113 1_556
Cu19 Sb1 2.748113 1_555
Cu19 Sb3 2.900387 1_545
Cu19 Cu7 3.039039 1_555
