# generated using pymatgen
data_H8CN6
_symmetry_space_group_name_H-M   'P 1'
_cell_length_a   10.45698100
_cell_length_b   6.44762800
_cell_length_c   7.54893289
_cell_angle_alpha   70.19314972
_cell_angle_beta   90.00000000
_cell_angle_gamma   90.00000000
_symmetry_Int_Tables_number   1
_chemical_formula_structural   H8CN6
_chemical_formula_sum   'H32 C4 N24'
_cell_volume   478.85910596
_cell_formula_units_Z   4
loop_
 _symmetry_equiv_pos_site_id
 _symmetry_equiv_pos_as_xyz
  1  'x, y, z'
loop_
 _atom_site_type_symbol
 _atom_site_label
 _atom_site_symmetry_multiplicity
 _atom_site_fract_x
 _atom_site_fract_y
 _atom_site_fract_z
 _atom_site_occupancy
  H  H0  1  0.64465600  0.33233700  0.93847900  1
  H  H1  1  0.14465600  0.16766300  0.06152100  1
  H  H2  1  0.35534400  0.66766300  0.06152100  1
  H  H3  1  0.85534400  0.83233700  0.93847900  1
  H  H4  1  0.71156500  0.08999000  0.05069200  1
  H  H5  1  0.21156500  0.41001000  0.94930800  1
  H  H6  1  0.28843500  0.91001000  0.94930800  1
  H  H7  1  0.78843500  0.58999000  0.05069200  1
  H  H8  1  0.45685900  0.07415000  0.14428900  1
  H  H9  1  0.95685900  0.42585000  0.85571100  1
  H  H10  1  0.54314100  0.92585000  0.85571100  1
  H  H11  1  0.04314100  0.57415000  0.14428900  1
  H  H12  1  0.34230700  0.04190300  0.49460100  1
  H  H13  1  0.84230700  0.45809700  0.50539900  1
  H  H14  1  0.69080100  0.70764900  0.27021800  1
  H  H15  1  0.65769300  0.95809700  0.50539900  1
  H  H16  1  0.24636100  0.21794600  0.34395500  1
  H  H17  1  0.74636100  0.28205400  0.65604500  1
  H  H18  1  0.75363900  0.78205400  0.65604500  1
  H  H19  1  0.25363900  0.71794600  0.34395500  1
  H  H20  1  0.43370200  0.38541500  0.43573000  1
  H  H21  1  0.93370200  0.11458500  0.56427000  1
  H  H22  1  0.56629800  0.61458500  0.56427000  1
  H  H23  1  0.06629800  0.88541500  0.43573000  1
  H  H24  1  0.53717200  0.70421300  0.23560800  1
  H  H25  1  0.03717200  0.79578700  0.76439200  1
  H  H26  1  0.46282800  0.29578700  0.76439200  1
  H  H27  1  0.96282800  0.20421300  0.23560800  1
  H  H28  1  0.80919900  0.20764900  0.27021800  1
  H  H29  1  0.30919900  0.29235100  0.72978200  1
  H  H30  1  0.19080100  0.79235100  0.72978200  1
  H  H31  1  0.15769300  0.54190300  0.49460100  1
  C  C0  1  0.96188900  0.80531600  0.23589400  1
  C  C1  1  0.46188900  0.69468400  0.76410600  1
  C  C2  1  0.03811100  0.19468400  0.76410600  1
  C  C3  1  0.53811100  0.30531600  0.23589400  1
  N  N0  1  0.54396700  0.13984100  0.15793600  1
  N  N1  1  0.04396700  0.36015900  0.84206400  1
  N  N2  1  0.45603300  0.86015900  0.84206400  1
  N  N3  1  0.95603300  0.63984100  0.15793600  1
  N  N4  1  0.33523700  0.14811000  0.35860000  1
  N  N5  1  0.83523700  0.35189000  0.64140000  1
  N  N6  1  0.66476300  0.85189000  0.64140000  1
  N  N7  1  0.16476300  0.64811000  0.35860000  1
  N  N8  1  0.42618800  0.32003100  0.32816900  1
  N  N9  1  0.92618800  0.17996900  0.67183100  1
  N  N10  1  0.57381200  0.67996900  0.67183100  1
  N  N11  1  0.07381200  0.82003100  0.32816900  1
  N  N12  1  0.61236300  0.60548800  0.30340900  1
  N  N13  1  0.11236300  0.89451200  0.69659100  1
  N  N14  1  0.38763700  0.39451200  0.69659100  1
  N  N15  1  0.88763700  0.10548800  0.30340900  1
  N  N16  1  0.63439000  0.44123200  0.21617400  1
  N  N17  1  0.13439000  0.05876800  0.78382600  1
  N  N18  1  0.36561000  0.55876800  0.78382600  1
  N  N19  1  0.86561000  0.94123200  0.21617400  1
  N  N20  1  0.87429400  0.66689200  0.00096500  1
  N  N21  1  0.37429400  0.83310800  0.99903500  1
  N  N22  1  0.12570600  0.33310800  0.99903500  1
  N  N23  1  0.62570600  0.16689200  0.00096500  1
loop_
_geom_bond_atom_site_label_1
_geom_bond_atom_site_label_2
_geom_bond_distance
_geom_bond_site_symmetry_2
H0 N23 1.028919 1_556
H1 N22 1.028919 1_554
H2 N21 1.028919 1_554
H3 N20 1.028919 1_556
H4 N23 1.032821 1_555
H5 N22 1.032821 1_555
H6 N21 1.032821 1_555
H7 N20 1.032821 1_555
H8 N0 1.024351 1_555
H9 N1 1.024351 1_655
H10 N2 1.024351 1_555
H11 N3 1.024351 1_455
H12 N4 1.025660 1_555
H13 N5 1.025660 1_555
H14 N12 1.028387 1_555
H15 N6 1.025660 1_555
H16 N4 1.022239 1_555
H17 N5 1.022239 1_555
H18 N6 1.022239 1_555
H19 N7 1.022239 1_555
H20 N8 1.036905 1_555
H21 N9 1.036905 1_555
H22 N10 1.036905 1_555
H23 N11 1.036905 1_555
H24 N12 1.031784 1_555
H25 N13 1.031784 1_555
H26 N14 1.031784 1_555
H27 N15 1.031784 1_555
H28 N15 1.028387 1_555
H29 N14 1.028387 1_555
H30 N13 1.028387 1_555
H31 N7 1.025660 1_555
C0 N19 1.309709 1_555
C0 N11 1.381591 1_655
C0 N3 1.383445 1_555
C1 N18 1.309709 1_555
C1 N10 1.381591 1_555
C1 N2 1.383445 1_555
C2 N17 1.309709 1_555
C2 N9 1.381591 1_455
C2 N1 1.383445 1_555
C3 N16 1.309709 1_555
C3 N8 1.381591 1_555
C3 N0 1.383445 1_555
N0 N23 1.423053 1_555
N1 N22 1.423053 1_555
N2 N21 1.423053 1_555
N12 N16 1.442558 1_555
N13 N17 1.442558 1_565
N14 N18 1.442558 1_555
N15 N19 1.442558 1_545
N20 N3 1.423053 1_555
