# generated using pymatgen
data_Li3Cr2(PO4)3
_symmetry_space_group_name_H-M   'P 1'
_cell_length_a   8.40771392
_cell_length_b   8.40771392
_cell_length_c   8.56727194
_cell_angle_alpha   61.49382794
_cell_angle_beta   61.49382794
_cell_angle_gamma   62.74530328
_symmetry_Int_Tables_number   1
_chemical_formula_structural   Li3Cr2(PO4)3
_chemical_formula_sum   'Li6 Cr4 P6 O24'
_cell_volume   446.41728772
_cell_formula_units_Z   2
loop_
 _symmetry_equiv_pos_site_id
 _symmetry_equiv_pos_as_xyz
  1  'x, y, z'
loop_
 _atom_site_type_symbol
 _atom_site_label
 _atom_site_symmetry_multiplicity
 _atom_site_fract_x
 _atom_site_fract_y
 _atom_site_fract_z
 _atom_site_occupancy
  Li  Li0  1  0.15751700  0.23697900  0.35946400  1
  Li  Li1  1  0.84248300  0.76302100  0.64053600  1
  Li  Li2  1  0.00000000  0.50000000  0.00000000  1
  Li  Li3  1  0.76302100  0.84248300  0.14053600  1
  Li  Li4  1  0.50000000  0.00000000  0.50000000  1
  Li  Li5  1  0.23697900  0.15751700  0.85946400  1
  Cr  Cr0  1  0.85832900  0.36588700  0.85117000  1
  Cr  Cr1  1  0.36588700  0.85832900  0.35117000  1
  Cr  Cr2  1  0.63411300  0.14167100  0.64883000  1
  Cr  Cr3  1  0.14167100  0.63411300  0.14883000  1
  P  P0  1  0.04307800  0.95692200  0.75000000  1
  P  P1  1  0.25518800  0.44751400  0.53175400  1
  P  P2  1  0.74481200  0.55248600  0.46824600  1
  P  P3  1  0.95692200  0.04307800  0.25000000  1
  P  P4  1  0.44751400  0.25518800  0.03175400  1
  P  P5  1  0.55248600  0.74481200  0.96824600  1
  O  O0  1  0.31892700  0.61742600  0.46461600  1
  O  O1  1  0.55666600  0.90474100  0.77068800  1
  O  O2  1  0.87351400  0.98239400  0.70534800  1
  O  O3  1  0.98239400  0.87351400  0.20534800  1
  O  O4  1  0.01760600  0.12648600  0.79465200  1
  O  O5  1  0.12648600  0.01760600  0.29465200  1
  O  O6  1  0.44333400  0.09525900  0.22931200  1
  O  O7  1  0.24983400  0.40742700  0.07072300  1
  O  O8  1  0.45220900  0.18857600  0.88951600  1
  O  O9  1  0.61742600  0.31892700  0.96461600  1
  O  O10  1  0.05300300  0.77066000  0.92202200  1
  O  O11  1  0.54779100  0.81142400  0.11048400  1
  O  O12  1  0.40742700  0.24983400  0.57072300  1
  O  O13  1  0.18857600  0.45220900  0.38951600  1
  O  O14  1  0.09525900  0.44333400  0.72931200  1
  O  O15  1  0.77066000  0.05300300  0.42202200  1
  O  O16  1  0.22934000  0.94699700  0.57797800  1
  O  O17  1  0.68107300  0.38257400  0.53538400  1
  O  O18  1  0.81142400  0.54779100  0.61048400  1
  O  O19  1  0.59257300  0.75016600  0.42927700  1
  O  O20  1  0.90474100  0.55666600  0.27068800  1
  O  O21  1  0.94699700  0.22934000  0.07797800  1
  O  O22  1  0.38257400  0.68107300  0.03538400  1
  O  O23  1  0.75016600  0.59257300  0.92927700  1
loop_
_geom_bond_atom_site_label_1
_geom_bond_atom_site_label_2
_geom_bond_distance
_geom_bond_site_symmetry_2
Li0 O13 2.085855 1_555
Li0 O6 2.127406 1_555
Li0 O7 2.139573 1_555
Li0 O16 2.277617 1_545
Li0 O5 2.309730 1_555
Li0 O20 2.584446 1_455
Li1 O18 2.085855 1_555
Li1 O1 2.127406 1_555
Li1 O23 2.139573 1_555
Li1 O15 2.277617 1_565
Li1 O2 2.309730 1_555
Li1 O14 2.584446 1_655
Li2 O7 2.156951 1_555
Li2 O23 2.156951 1_454
Li2 O10 2.239852 1_554
Li2 O21 2.239852 1_455
Li2 O20 2.275683 1_455
Li2 O14 2.275683 1_554
Li3 O11 2.085855 1_555
Li3 O20 2.127406 1_555
Li3 O19 2.139573 1_555
Li3 O10 2.277617 1_654
Li3 O3 2.309730 1_555
Li3 O6 2.584446 1_565
Li4 O12 2.156951 1_555
Li4 O19 2.156951 1_545
Li4 O15 2.239852 1_555
Li4 O16 2.239852 1_545
Li4 O1 2.275683 1_545
Li4 O6 2.275683 1_555
Li5 O8 2.085855 1_555
Li5 O14 2.127406 1_555
Li5 O12 2.139573 1_555
Li5 O21 2.277617 1_456
Li5 O4 2.309730 1_555
Li5 O1 2.584446 1_545
Cr0 O9 1.920958 1_555
Cr0 O4 1.980354 1_655
Cr0 O23 1.989049 1_555
Cr0 O18 1.990004 1_555
Cr0 O14 2.009038 1_655
Cr0 O21 2.029534 1_556
Cr1 O0 1.920958 1_555
Cr1 O5 1.980354 1_565
Cr1 O19 1.989049 1_555
Cr1 O11 1.990004 1_555
Cr1 O6 2.009038 1_565
Cr1 O16 2.029534 1_555
Cr2 O17 1.920958 1_555
Cr2 O2 1.980354 1_545
Cr2 O12 1.989049 1_555
Cr2 O8 1.990004 1_555
Cr2 O1 2.009038 1_545
Cr2 O15 2.029534 1_555
Cr3 O22 1.920958 1_555
Cr3 O3 1.980354 1_455
Cr3 O7 1.989049 1_555
Cr3 O13 1.990004 1_555
Cr3 O20 2.009038 1_455
Cr3 O10 2.029534 1_554
O0 P1 1.510460 1_555
O1 P5 1.577387 1_555
O2 P0 1.545121 1_655
O3 P3 1.545121 1_565
O4 P0 1.545121 1_545
O5 P3 1.545121 1_455
O6 P4 1.577387 1_555
O7 P4 1.562684 1_555
O8 P4 1.544491 1_556
O9 P4 1.510460 1_556
O10 P0 1.557605 1_555
O11 P5 1.544491 1_554
O12 P1 1.562684 1_555
O13 P1 1.544491 1_555
O14 P1 1.577387 1_555
O15 P3 1.557605 1_555
O16 P0 1.557605 1_555
O17 P2 1.510460 1_555
O18 P2 1.544491 1_555
O19 P2 1.562684 1_555
O20 P2 1.577387 1_555
O21 P3 1.557605 1_555
O22 P5 1.510460 1_554
O23 P5 1.562684 1_555
