# generated using pymatgen
data_Hf5Ga3
_symmetry_space_group_name_H-M   'P 1'
_cell_length_a   7.95337136
_cell_length_b   7.95337012
_cell_length_c   5.66165508
_cell_angle_alpha   90.00000000
_cell_angle_beta   90.00000000
_cell_angle_gamma   119.99999244
_symmetry_Int_Tables_number   1
_chemical_formula_structural   Hf5Ga3
_chemical_formula_sum   'Hf10 Ga6'
_cell_volume   310.15338611
_cell_formula_units_Z   2
loop_
 _symmetry_equiv_pos_site_id
 _symmetry_equiv_pos_as_xyz
  1  'x, y, z'
loop_
 _atom_site_type_symbol
 _atom_site_label
 _atom_site_symmetry_multiplicity
 _atom_site_fract_x
 _atom_site_fract_y
 _atom_site_fract_z
 _atom_site_occupancy
  Hf  Hf0  1  0.33333300  0.66666700  0.00000000  1
  Hf  Hf1  1  0.66666700  0.33333300  0.50000000  1
  Hf  Hf2  1  0.66666700  0.33333300  0.00000000  1
  Hf  Hf3  1  0.33333300  0.66666700  0.50000000  1
  Hf  Hf4  1  0.24203489  0.00000000  0.25000000  1
  Hf  Hf5  1  0.24203489  0.24203489  0.75000000  1
  Hf  Hf6  1  -0.00000000  0.75796511  0.75000000  1
  Hf  Hf7  1  0.00000000  0.24203489  0.25000000  1
  Hf  Hf8  1  0.75796511  0.75796511  0.25000000  1
  Hf  Hf9  1  0.75796511  -0.00000000  0.75000000  1
  Ga  Ga0  1  0.60714760  0.00000000  0.25000000  1
  Ga  Ga1  1  0.60714760  0.60714760  0.75000000  1
  Ga  Ga2  1  -0.00000000  0.39285240  0.75000000  1
  Ga  Ga3  1  0.00000000  0.60714760  0.25000000  1
  Ga  Ga4  1  0.39285240  0.39285240  0.25000000  1
  Ga  Ga5  1  0.39285240  -0.00000000  0.75000000  1
loop_
_geom_bond_atom_site_label_1
_geom_bond_atom_site_label_2
_geom_bond_distance
_geom_bond_site_symmetry_2
Ga0 Hf8 2.730103 1_545
Ga0 Hf7 2.730103 1_655
Ga0 Hf1 2.828593 1_555
Ga0 Hf2 2.828593 1_555
Ga0 Hf3 2.828596 1_545
Ga0 Hf0 2.828596 1_545
Ga0 Hf4 2.903877 1_555
Ga0 Hf9 3.074476 1_555
Ga0 Hf9 3.074476 1_554
Ga1 Hf9 2.730103 1_565
Ga1 Hf6 2.730103 1_655
Ga1 Hf1 2.828600 1_555
Ga1 Hf2 2.828600 1_556
Ga1 Hf3 2.828600 1_555
Ga1 Hf0 2.828600 1_556
Ga1 Hf5 2.903877 1_555
Ga1 Hf8 3.074476 1_556
Ga1 Hf8 3.074476 1_555
Ga2 Hf5 2.730103 1_555
Ga2 Hf9 2.730103 1_455
Ga2 Hf1 2.828593 1_455
Ga2 Hf2 2.828593 1_456
Ga2 Hf3 2.828596 1_555
Ga2 Hf0 2.828596 1_556
Ga2 Hf6 2.903877 1_555
Ga2 Hf7 3.074476 1_556
Ga2 Hf7 3.074476 1_555
Ga3 Hf8 2.730103 1_455
Ga3 Hf4 2.730103 1_565
Ga3 Hf3 2.828593 1_555
Ga3 Hf0 2.828593 1_555
Ga3 Hf2 2.828596 1_455
Ga3 Hf1 2.828596 1_455
Ga3 Hf7 2.903877 1_555
Ga3 Hf6 3.074476 1_555
Ga3 Hf6 3.074476 1_554
Ga4 Hf4 2.730103 1_555
Ga4 Hf7 2.730103 1_555
Ga4 Hf3 2.828600 1_555
Ga4 Hf0 2.828600 1_555
Ga4 Hf1 2.828600 1_555
Ga4 Hf2 2.828600 1_555
Ga4 Hf8 2.903877 1_555
Ga4 Hf5 3.074476 1_554
Ga4 Hf5 3.074476 1_555
Ga5 Hf5 2.730103 1_555
Ga5 Hf6 2.730103 1_545
Ga5 Hf0 2.828593 1_546
Ga5 Hf3 2.828593 1_545
Ga5 Hf1 2.828596 1_555
Ga5 Hf2 2.828596 1_556
Ga5 Hf9 2.903877 1_555
Ga5 Hf4 3.074476 1_555
Ga5 Hf4 3.074476 1_556
