# generated using pymatgen
data_MnPO4F
_symmetry_space_group_name_H-M   'P 1'
_cell_length_a   5.15105366
_cell_length_b   5.18814076
_cell_length_c   7.22814587
_cell_angle_alpha   109.28011583
_cell_angle_beta   106.98411229
_cell_angle_gamma   96.64113399
_symmetry_Int_Tables_number   1
_chemical_formula_structural   MnPO4F
_chemical_formula_sum   'Mn2 P2 O8 F2'
_cell_volume   169.50037695
_cell_formula_units_Z   2
loop_
 _symmetry_equiv_pos_site_id
 _symmetry_equiv_pos_as_xyz
  1  'x, y, z'
loop_
 _atom_site_type_symbol
 _atom_site_label
 _atom_site_symmetry_multiplicity
 _atom_site_fract_x
 _atom_site_fract_y
 _atom_site_fract_z
 _atom_site_occupancy
  Mn  Mn0  1  0.00000000  0.00000000  0.00000000  1
  Mn  Mn1  1  0.50000000  0.50000000  0.50000000  1
  P  P0  1  0.43551500  0.11229800  0.76163400  1
  P  P1  1  0.56448500  0.88770200  0.23836600  1
  O  O0  1  0.24381500  0.80166200  0.12103000  1
  O  O1  1  0.71421800  0.84516900  0.07757400  1
  O  O2  1  0.66373600  0.19304700  0.40272200  1
  O  O3  1  0.64465600  0.67875600  0.34425900  1
  O  O4  1  0.28578200  0.15483100  0.92242600  1
  O  O5  1  0.33626400  0.80695300  0.59727800  1
  O  O6  1  0.35534400  0.32124400  0.65574100  1
  O  O7  1  0.75618500  0.19833800  0.87897000  1
  F  F0  1  0.14912000  0.31950000  0.26500900  1
  F  F1  1  0.85088000  0.68050000  0.73499100  1
loop_
_geom_bond_atom_site_label_1
_geom_bond_atom_site_label_2
_geom_bond_distance
_geom_bond_site_symmetry_2
Mn0 O1 1.905999 1_445
Mn0 O4 1.905999 1_554
Mn0 O0 1.911276 1_545
Mn0 O7 1.911276 1_454
Mn1 O5 1.912989 1_555
Mn1 O2 1.912989 1_555
Mn1 O3 1.924108 1_555
Mn1 O6 1.924108 1_555
O0 P1 1.551768 1_555
O1 P1 1.545329 1_555
O2 P1 1.548331 1_545
O3 P1 1.548663 1_555
O4 P0 1.545329 1_555
O5 P0 1.548331 1_565
O6 P0 1.548663 1_555
O7 P0 1.551768 1_555
F0 Mn0 1.938044 1_555
F0 Mn1 1.947645 1_555
F1 Mn0 1.938044 1_666
F1 Mn1 1.947645 1_555
