# generated using pymatgen
data_LiCr(PO3)4
_symmetry_space_group_name_H-M   'P 1'
_cell_length_a   7.29552782
_cell_length_b   7.29552782
_cell_length_c   9.85953602
_cell_angle_alpha   67.78851912
_cell_angle_beta   67.78851912
_cell_angle_gamma   70.03864472
_symmetry_Int_Tables_number   1
_chemical_formula_structural   LiCr(PO3)4
_chemical_formula_sum   'Li2 Cr2 P8 O24'
_cell_volume   437.55290550
_cell_formula_units_Z   2
loop_
 _symmetry_equiv_pos_site_id
 _symmetry_equiv_pos_as_xyz
  1  'x, y, z'
loop_
 _atom_site_type_symbol
 _atom_site_label
 _atom_site_symmetry_multiplicity
 _atom_site_fract_x
 _atom_site_fract_y
 _atom_site_fract_z
 _atom_site_occupancy
  Li  Li0  1  0.03872800  0.96127200  0.25000000  1
  Li  Li1  1  0.96127200  0.03872800  0.75000000  1
  Cr  Cr0  1  0.50000000  0.00000000  0.00000000  1
  Cr  Cr1  1  0.00000000  0.50000000  0.50000000  1
  P  P0  1  0.31755400  0.30387500  0.69579300  1
  P  P1  1  0.73145500  0.25960900  0.47137100  1
  P  P2  1  0.69612500  0.68244600  0.80420700  1
  P  P3  1  0.25960900  0.73145500  0.97137100  1
  P  P4  1  0.30387500  0.31755300  0.19579300  1
  P  P5  1  0.26854500  0.74039100  0.52862900  1
  P  P6  1  0.68244600  0.69612500  0.30420700  1
  P  P7  1  0.74039100  0.26854500  0.02862900  1
  O  O0  1  0.49285500  0.78049900  0.43170800  1
  O  O1  1  0.18870300  0.34065200  0.35199100  1
  O  O2  1  0.81129700  0.65934800  0.64800900  1
  O  O3  1  0.31899000  0.80656000  0.07114000  1
  O  O4  1  0.46588500  0.67706300  0.83648600  1
  O  O5  1  0.08953100  0.85073300  0.90663800  1
  O  O6  1  0.87292600  0.69871500  0.33195100  1
  O  O7  1  0.80656000  0.31899000  0.57114000  1
  O  O8  1  0.21950100  0.50714500  0.06829200  1
  O  O9  1  0.14926700  0.91046900  0.59336200  1
  O  O10  1  0.67706300  0.46588500  0.33648600  1
  O  O11  1  0.32293700  0.53411500  0.66351400  1
  O  O12  1  0.65934800  0.81129700  0.14800900  1
  O  O13  1  0.30128500  0.12707400  0.16804900  1
  O  O14  1  0.53411500  0.32293700  0.16351400  1
  O  O15  1  0.34065200  0.18870300  0.85199100  1
  O  O16  1  0.68101000  0.19344000  0.92886000  1
  O  O17  1  0.50714500  0.21950100  0.56829200  1
  O  O18  1  0.85073300  0.08953100  0.40663800  1
  O  O19  1  0.78049900  0.49285500  0.93170800  1
  O  O20  1  0.19344000  0.68101000  0.42886000  1
  O  O21  1  0.12707400  0.30128500  0.66804900  1
  O  O22  1  0.91046900  0.14926700  0.09336200  1
  O  O23  1  0.69871500  0.87292600  0.83195100  1
loop_
_geom_bond_atom_site_label_1
_geom_bond_atom_site_label_2
_geom_bond_distance
_geom_bond_site_symmetry_2
Li0 O22 1.938206 1_465
Li0 O18 1.938206 1_465
Li0 O6 2.336242 1_455
Li0 O13 2.336242 1_565
Li0 O3 2.401566 1_555
Li0 O20 2.401566 1_555
Li1 O5 1.938206 1_645
Li1 O9 1.938206 1_645
Li1 O23 2.336242 1_545
Li1 O21 2.336242 1_655
Li1 O7 2.401566 1_555
Li1 O16 2.401566 1_555
Cr0 O12 2.011785 1_545
Cr0 O15 2.011785 1_554
Cr0 O3 2.012769 1_545
Cr0 O16 2.012769 1_554
Cr0 O23 2.033241 1_544
Cr0 O13 2.033241 1_555
Cr1 O2 2.011785 1_455
Cr1 O1 2.011785 1_555
Cr1 O7 2.012769 1_455
Cr1 O20 2.012769 1_555
Cr1 O6 2.033241 1_455
Cr1 O21 2.033241 1_555
O0 P6 1.600459 1_555
O0 P5 1.615553 1_555
O1 P4 1.492423 1_555
O2 P2 1.492421 1_555
O3 P3 1.532084 1_554
O4 P2 1.598660 1_555
O4 P3 1.633688 1_555
O5 P3 1.464858 1_555
O6 P6 1.521693 1_555
O7 P1 1.532084 1_555
O8 P4 1.600462 1_555
O8 P3 1.615553 1_554
O9 P5 1.464858 1_555
O10 P6 1.598660 1_555
O10 P1 1.633688 1_555
O11 P0 1.598660 1_555
O11 P5 1.633688 1_555
O12 P6 1.492421 1_555
O13 P4 1.521686 1_555
O14 P4 1.598662 1_555
O14 P7 1.633688 1_555
O15 P0 1.492421 1_555
O16 P7 1.532084 1_556
O17 P0 1.600459 1_555
O17 P1 1.615553 1_555
O18 P1 1.464858 1_555
O19 P2 1.600459 1_555
O19 P7 1.615553 1_556
O20 P5 1.532084 1_555
O21 P0 1.521693 1_555
O22 P7 1.464858 1_555
O23 P2 1.521693 1_555
