# generated using pymatgen
data_Na10Zn6Si3Ge2(S3O16)3
_symmetry_space_group_name_H-M   'P 1'
_cell_length_a   17.74794144
_cell_length_b   8.94548733
_cell_length_c   22.02300083
_cell_angle_alpha   90.46202992
_cell_angle_beta   89.55727158
_cell_angle_gamma   120.36535893
_symmetry_Int_Tables_number   1
_chemical_formula_structural   Na10Zn6Si3Ge2(S3O16)3
_chemical_formula_sum   'Na30 Zn18 Si9 Ge6 S27 O144'
_cell_volume   3016.68810176
_cell_formula_units_Z   3
loop_
 _symmetry_equiv_pos_site_id
 _symmetry_equiv_pos_as_xyz
  1  'x, y, z'
loop_
 _atom_site_type_symbol
 _atom_site_label
 _atom_site_symmetry_multiplicity
 _atom_site_fract_x
 _atom_site_fract_y
 _atom_site_fract_z
 _atom_site_occupancy
  Na  Na0  1  0.31599952  0.00334823  0.24536698  1
  Na  Na1  1  0.18636717  0.35597688  0.25178920  1
  Na  Na2  1  0.49560512  0.63156253  0.25343647  1
  Na  Na3  1  0.31145623  0.62184044  0.74184061  1
  Na  Na4  1  0.81553312  0.62966148  0.74530771  1
  Na  Na5  1  0.99852674  0.35625221  0.75192626  1
  Na  Na6  1  0.18478775  0.01457313  0.75541375  1
  Na  Na7  1  0.68633742  0.01816044  0.75131664  1
  Na  Na8  1  0.16363503  0.35192266  0.58777839  1
  Na  Na9  1  0.83044959  0.68871522  0.08155213  1
  Na  Na10  1  0.48401806  0.66218919  0.91702227  1
  Na  Na11  1  0.35373531  0.04244349  0.91741160  1
  Na  Na12  1  0.85169380  0.03208203  0.91990201  1
  Na  Na13  1  0.66263143  0.29961722  0.91856710  1
  Na  Na14  1  0.98239769  0.30314487  0.41547749  1
  Na  Na15  1  0.16179654  0.02591450  0.41700133  1
  Na  Na16  1  0.35249741  0.67000014  0.42095869  1
  Na  Na17  1  0.85318843  0.66334381  0.41577504  1
  Na  Na18  1  0.99496091  0.97369482  0.50000702  1
  Na  Na19  1  0.50577779  0.00520111  0.49993960  1
  Na  Na20  1  0.01208104  0.02055412  0.99933537  1
  Na  Na21  1  0.50171529  0.01579753  0.00066841  1
  Na  Na22  1  0.32833902  0.33048513  0.83353293  1
  Na  Na23  1  0.83451460  0.33545082  0.83120130  1
  Na  Na24  1  0.33388597  0.33204936  0.33112336  1
  Na  Na25  1  0.82809715  0.32814784  0.33131076  1
  Na  Na26  1  0.16022428  0.66435373  0.16103889  1
  Na  Na27  1  0.67503433  0.68990576  0.16367345  1
  Na  Na28  1  0.17274448  0.67213282  0.66204369  1
  Na  Na29  1  0.66130324  0.65583205  0.66139937  1
  Zn  Zn0  1  0.00127079  0.97885524  0.34702802  1
  Zn  Zn1  1  0.50267545  0.00065240  0.34955529  1
  Zn  Zn2  1  0.00459956  0.01722749  0.84728436  1
  Zn  Zn3  1  0.50425530  0.02450741  0.84818778  1
  Zn  Zn4  1  0.33202860  0.34903578  0.67692211  1
  Zn  Zn5  1  0.82615682  0.31700467  0.68264312  1
  Zn  Zn6  1  0.32645353  0.33492821  0.18268591  1
  Zn  Zn7  1  0.83330026  0.32012639  0.17768886  1
  Zn  Zn8  1  0.33500140  0.33133572  0.98345820  1
  Zn  Zn9  1  0.84440506  0.31980257  0.99699047  1
  Zn  Zn10  1  0.34930184  0.36806479  0.49571807  1
  Zn  Zn11  1  0.83449869  0.33891300  0.48305389  1
  Zn  Zn12  1  0.16535391  0.66449267  0.01587057  1
  Zn  Zn13  1  0.66558980  0.66910501  0.02067683  1
  Zn  Zn14  1  0.17132053  0.68297951  0.51923783  1
  Zn  Zn15  1  0.66403279  0.66393363  0.51576538  1
  Zn  Zn16  1  0.67129461  0.66521475  0.31826268  1
  Zn  Zn17  1  0.16489310  0.64810878  0.81769064  1
  Si  Si0  1  0.14344155  0.99757997  0.24933748  1
  Si  Si1  1  0.35154625  0.70945151  0.25573718  1
  Si  Si2  1  0.14888466  0.29269345  0.74945496  1
  Si  Si3  1  0.64396739  0.29103419  0.74946913  1
  Si  Si4  1  0.84908534  0.99316485  0.75675218  1
  Si  Si5  1  0.33707422  0.65290402  0.58430935  1
  Si  Si6  1  0.83446665  0.02664646  0.08511996  1
  Si  Si7  1  0.52279043  0.38133155  0.91882105  1
  Si  Si8  1  0.02193047  0.66410227  0.41803085  1
  Ge  Ge0  1  0.99090477  0.00167543  0.65519017  1
  Ge  Ge1  1  0.50219668  0.01559428  0.64512531  1
  Ge  Ge2  1  0.00040977  -0.00053206  0.14902396  1
  Ge  Ge3  1  0.49332849  0.99183647  0.15267540  1
  Ge  Ge4  1  0.15990973  0.67741701  0.30758816  1
  Ge  Ge5  1  0.66055118  0.64460723  0.80937610  1
  S  S0  1  0.64581881  0.00270326  0.24902764  1
  S  S1  1  0.84854995  0.69710895  0.24793619  1
  S  S2  1  -0.00033591  0.29315358  0.25300815  1
  S  S3  1  0.50582937  0.29501588  0.24788549  1
  S  S4  1  0.00138674  0.71467117  0.74769293  1
  S  S5  1  0.50238930  0.71058250  0.75227409  1
  S  S6  1  0.35368476  0.00214762  0.74892407  1
  S  S7  1  0.48347054  0.33060563  0.58528163  1
  S  S8  1  0.97767405  0.31676990  0.58599164  1
  S  S9  1  0.17745329  0.03332871  0.58649645  1
  S  S10  1  0.68168720  0.03235045  0.58349186  1
  S  S11  1  0.83838657  0.64551462  0.58603031  1
  S  S12  1  0.48027169  0.64243631  0.08805327  1
  S  S13  1  0.98470603  0.63854984  0.08563266  1
  S  S14  1  0.33818548  0.03211736  0.08542919  1
  S  S15  1  0.18221856  0.33231190  0.08404992  1
  S  S16  1  0.67710613  0.31545696  0.08710243  1
  S  S17  1  0.31434492  0.66515343  0.91637479  1
  S  S18  1  0.81596925  0.66243098  0.91477179  1
  S  S19  1  0.01610802  0.37149876  0.91717735  1
  S  S20  1  0.16410307  0.95592338  0.91652163  1
  S  S21  1  0.66757884  0.95915319  0.91425055  1
  S  S22  1  0.31541633  0.96868980  0.41413859  1
  S  S23  1  0.81199271  0.95984705  0.41668057  1
  S  S24  1  0.16725981  0.37446137  0.41507459  1
  S  S25  1  0.66407979  0.36776550  0.41749043  1
  S  S26  1  0.51949163  0.66450590  0.41483573  1
  O  O0  1  0.11261138  0.04994891  0.31059192  1
  O  O1  1  0.60640870  0.02279940  0.30478877  1
  O  O2  1  0.40898241  0.78628350  0.31575489  1
  O  O3  1  0.89664349  0.77744234  0.30486113  1
  O  O4  1  0.49259875  0.18933690  0.30140969  1
  O  O5  1  0.98923313  0.19766106  0.30940254  1
  O  O6  1  0.10862468  0.16009430  0.80479865  1
  O  O7  1  0.61362674  0.17565845  0.80998906  1
  O  O8  1  0.48771483  0.78187466  0.80923432  1
  O  O9  1  0.98247483  0.78378744  0.80232741  1
  O  O10  1  0.39834878  0.01518751  0.80671836  1
  O  O11  1  0.90413443  0.02857744  0.81772335  1
  O  O12  1  0.39840184  0.96803385  0.69611963  1
  O  O13  1  0.89218439  0.93861658  0.69789175  1
  O  O14  1  0.07878081  0.19800885  0.68759436  1
  O  O15  1  0.57832923  0.18661240  0.69070550  1
  O  O16  1  0.01657068  0.82981946  0.69249912  1
  O  O17  1  0.51597844  0.82387463  0.69930506  1
  O  O18  1  0.39688527  0.85182790  0.19753510  1
  O  O19  1  0.89415746  0.81008415  0.19279653  1
  O  O20  1  0.01363499  0.20518929  0.19881969  1
  O  O21  1  0.51957184  0.21136014  0.19086261  1
  O  O22  1  0.07807297  0.97435970  0.19120627  1
  O  O23  1  0.58374885  0.96850276  0.19428112  1
  O  O24  1  0.43970704  0.34368021  0.63999330  1
  O  O25  1  0.93494934  0.33442264  0.64103923  1
  O  O26  1  0.22834061  0.11859846  0.64178319  1
  O  O27  1  0.72855350  0.10147963  0.64139658  1
  O  O28  1  0.31784183  0.53046154  0.64292933  1
  O  O29  1  0.83041594  0.54317634  0.64015741  1
  O  O30  1  0.43609680  0.53770928  0.14245435  1
  O  O31  1  0.94344238  0.53945604  0.14083006  1
  O  O32  1  0.33066213  0.11882574  0.14034568  1
  O  O33  1  0.82008403  0.11773262  0.14260075  1
  O  O34  1  0.22981813  0.35830347  0.14165404  1
  O  O35  1  0.73448704  0.34352058  0.13894182  1
  O  O36  1  0.22644910  0.30759080  0.03128683  1
  O  O37  1  0.71436946  0.29237468  0.02875488  1
  O  O38  1  0.43055922  0.56864542  0.03129997  1
  O  O39  1  0.92767032  0.56001845  0.03098801  1
  O  O40  1  0.34976169  0.13103008  0.02902019  1
  O  O41  1  0.85641673  0.12892739  0.02069957  1
  O  O42  1  0.22048431  0.13949881  0.53102357  1
  O  O43  1  0.72689092  0.14433712  0.53127003  1
  O  O44  1  0.35621760  0.57840793  0.52148052  1
  O  O45  1  0.85067019  0.57042097  0.52896451  1
  O  O46  1  0.43207674  0.30080448  0.52917179  1
  O  O47  1  0.92906675  0.29765830  0.52958460  1
  O  O48  1  0.27094775  0.69470631  0.96854063  1
  O  O49  1  0.77691790  0.69229810  0.96951406  1
  O  O50  1  0.06895052  0.46773788  0.96973273  1
  O  O51  1  0.58789957  0.47033263  0.97382287  1
  O  O52  1  0.15945129  0.85477589  0.97044724  1
  O  O53  1  0.66118684  0.85803632  0.96805542  1
  O  O54  1  0.27599815  0.85385611  0.46606264  1
  O  O55  1  0.77159213  0.84753893  0.47015555  1
  O  O56  1  0.16125710  0.45967431  0.47074464  1
  O  O57  1  0.65477539  0.45111451  0.47283172  1
  O  O58  1  0.08723131  0.70654302  0.47316479  1
  O  O59  1  0.57059470  0.67312598  0.46788637  1
  O  O60  1  0.06892343  0.62418729  0.35541956  1
  O  O61  1  0.56017646  0.65457764  0.35611733  1
  O  O62  1  0.26069890  0.88666842  0.35601727  1
  O  O63  1  0.76268922  0.88147617  0.36004836  1
  O  O64  1  0.18170517  0.48321972  0.35919268  1
  O  O65  1  0.67856091  0.47496822  0.36215940  1
  O  O66  1  0.05502584  0.45957070  0.85817865  1
  O  O67  1  0.56845746  0.51366285  0.85647483  1
  O  O68  1  0.17667496  0.87647141  0.85902752  1
  O  O69  1  0.68168505  0.88132690  0.85710934  1
  O  O70  1  0.26896482  0.64951004  0.85796772  1
  O  O71  1  0.75920864  0.63603518  0.85816705  1
  O  O72  1  0.00709246  0.82988239  0.41210009  1
  O  O73  1  0.50963825  0.82081017  0.41664338  1
  O  O74  1  0.40400749  0.99358830  0.40779568  1
  O  O75  1  0.90230524  0.98344264  0.41250644  1
  O  O76  1  0.08417934  0.20385397  0.41196826  1
  O  O77  1  0.58555233  0.19331725  0.41229810  1
  O  O78  1  0.00698007  0.19640208  0.91854503  1
  O  O79  1  0.50754315  0.18456658  0.91280973  1
  O  O80  1  0.08499049  0.96964484  0.91474065  1
  O  O81  1  0.58488513  0.96449508  0.91213010  1
  O  O82  1  0.40480633  0.82173268  0.91422033  1
  O  O83  1  0.90364647  0.81647293  0.90825721  1
  O  O84  1  0.49358506  0.17175726  0.58775800  1
  O  O85  1  0.98237965  0.14958813  0.58904800  1
  O  O86  1  0.08989922  0.02793396  0.58887769  1
  O  O87  1  0.59366118  0.02254731  0.58743514  1
  O  O88  1  0.42952999  0.84665486  0.59518339  1
  O  O89  1  0.92318195  0.82379678  0.59056151  1
  O  O90  1  0.48567199  0.82019321  0.09346997  1
  O  O91  1  0.99248177  0.81554458  0.08861792  1
  O  O92  1  0.42271397  0.02292132  0.08931035  1
  O  O93  1  0.92660843  0.00631538  0.09599166  1
  O  O94  1  0.09339391  0.16758633  0.08861820  1
  O  O95  1  0.58810777  0.14825190  0.09299457  1
  O  O96  1  0.34670924  0.15732098  0.74142350  1
  O  O97  1  0.84003187  0.16214552  0.74518188  1
  O  O98  1  0.24668112  0.31893496  0.74348479  1
  O  O99  1  0.74377074  0.33220198  0.73960926  1
  O  O100  1  0.42899836  0.53288611  0.74525696  1
  O  O101  1  0.92657447  0.53676572  0.73867217  1
  O  O102  1  0.34062868  0.51947364  0.24506942  1
  O  O103  1  0.84096571  0.52621886  0.24102583  1
  O  O104  1  0.42619477  0.30889419  0.24129614  1
  O  O105  1  0.92780892  0.32678978  0.24623188  1
  O  O106  1  0.24348978  0.15642357  0.23984354  1
  O  O107  1  0.73132422  0.15796924  0.24186978  1
  O  O108  1  0.32191929  0.50859016  0.92233131  1
  O  O109  1  0.81816972  0.49939653  0.91851962  1
  O  O110  1  0.42570683  0.36405837  0.92045786  1
  O  O111  1  0.92751887  0.35355008  0.91916098  1
  O  O112  1  0.24554867  0.13185652  0.91992620  1
  O  O113  1  0.74374459  0.13939851  0.91671832  1
  O  O114  1  0.31748910  0.13590628  0.42005417  1
  O  O115  1  0.82130768  0.13339006  0.42288201  1
  O  O116  1  0.24328180  0.34605712  0.41647859  1
  O  O117  1  0.74509623  0.35480911  0.42130109  1
  O  O118  1  0.43002104  0.50491066  0.41616792  1
  O  O119  1  0.92538277  0.48722562  0.41933247  1
  O  O120  1  0.16864341  0.48171832  0.07721547  1
  O  O121  1  0.66446688  0.46624772  0.08480047  1
  O  O122  1  0.07265042  0.66065500  0.07873533  1
  O  O123  1  0.56935704  0.67136894  0.08503314  1
  O  O124  1  0.26224754  0.85384195  0.08184410  1
  O  O125  1  0.75498887  0.82645614  0.07914592  1
  O  O126  1  0.16334460  0.85772566  0.58419615  1
  O  O127  1  0.66692109  0.85503373  0.57651777  1
  O  O128  1  0.24904468  0.66586852  0.57827622  1
  O  O129  1  0.76246310  0.67115191  0.58227911  1
  O  O130  1  0.06812744  0.46404574  0.58348850  1
  O  O131  1  0.57184847  0.48586657  0.58087009  1
  O  O132  1  0.14971805  0.81704144  0.25196660  1
  O  O133  1  0.64995381  0.84048560  0.24918571  1
  O  O134  1  0.25080289  0.68728881  0.25976757  1
  O  O135  1  0.76145898  0.68337919  0.24954628  1
  O  O136  1  0.08753679  0.46526567  0.25300490  1
  O  O137  1  0.58265751  0.47203013  0.25019821  1
  O  O138  1  0.15353986  0.48090182  0.75074284  1
  O  O139  1  0.64949449  0.48270344  0.75323374  1
  O  O140  1  0.08304849  0.70675345  0.75064470  1
  O  O141  1  0.58831736  0.71036030  0.75447058  1
  O  O142  1  0.26451425  0.84478092  0.74931045  1
  O  O143  1  0.74889473  0.81201818  0.76015257  1
loop_
_geom_bond_atom_site_label_1
_geom_bond_atom_site_label_2
_geom_bond_distance
_geom_bond_site_symmetry_2
Na0 O106 2.309265 1_555
Na0 O104 2.429078 1_555
Na0 O134 2.476765 1_545
Na0 O32 2.498339 1_555
Na0 O132 2.555906 1_545
Na0 O18 2.632202 1_545
Na0 O62 2.638050 1_545
Na1 O102 2.367597 1_555
Na1 O136 2.401191 1_555
Na1 O106 2.470145 1_555
Na1 O34 2.536512 1_555
Na1 O134 2.586598 1_555
Na1 O64 2.635545 1_555
Na1 O0 2.700521 1_555
Na1 O20 2.903031 1_555
Na2 O102 2.412716 1_555
Na2 O133 2.414235 1_555
Na2 O61 2.502675 1_555
Na2 O104 2.513598 1_555
Na2 O137 2.579639 1_555
Na2 O30 2.627652 1_555
Na2 O2 2.872410 1_555
Na2 O23 2.914437 1_555
Na3 O28 2.342489 1_555
Na3 O98 2.348747 1_555
Na3 O138 2.430236 1_555
Na3 O142 2.524054 1_555
Na3 O100 2.583121 1_555
Na3 O70 2.705426 1_555
Na3 O12 2.860148 1_555
Na4 O99 2.299799 1_555
Na4 O143 2.470359 1_555
Na4 O29 2.489809 1_555
Na4 O101 2.499025 1_555
Na4 O139 2.553752 1_555
Na4 O13 2.608217 1_555
Na4 O71 2.682759 1_555
Na4 O9 2.855861 1_555
Na5 O138 2.389722 1_655
Na5 O97 2.452324 1_555
Na5 O66 2.529759 1_655
Na5 O101 2.534096 1_555
Na5 O25 2.662170 1_555
Na5 O140 2.706910 1_655
Na5 O14 2.831042 1_655
Na5 O11 2.926525 1_555
Na6 O98 2.381573 1_555
Na6 O140 2.413531 1_545
Na6 O96 2.503327 1_555
Na6 O6 2.537347 1_555
Na6 O142 2.548305 1_545
Na6 O68 2.571860 1_545
Na6 O26 2.646941 1_555
Na7 O97 2.358579 1_555
Na7 O141 2.402283 1_545
Na7 O99 2.471825 1_555
Na7 O27 2.532487 1_555
Na7 O143 2.598099 1_545
Na7 O69 2.621878 1_545
Na7 O7 2.665139 1_555
Na7 O17 2.860591 1_545
Na8 O130 2.368766 1_555
Na8 O128 2.435001 1_555
Na8 O86 2.505789 1_555
Na8 O14 2.626263 1_555
Na8 O28 2.667808 1_555
Na8 O56 2.767112 1_555
Na8 O85 2.781728 1_455
Na8 O42 2.841085 1_555
Na9 O125 2.232760 1_555
Na9 O93 2.485390 1_565
Na9 O91 2.507332 1_555
Na9 O121 2.591429 1_555
Na9 O49 2.657084 1_554
Na9 O19 2.686666 1_555
Na9 O39 2.738733 1_555
Na9 O35 2.957357 1_555
Na10 O110 2.323972 1_555
Na10 O81 2.374165 1_555
Na10 O82 2.459347 1_555
Na10 O108 2.485787 1_555
Na10 O8 2.598681 1_555
Na10 O38 2.669974 1_556
Na10 O67 2.782597 1_555
Na10 O53 2.944987 1_555
Na11 O79 2.359514 1_555
Na11 O112 2.424852 1_555
Na11 O110 2.489181 1_555
Na11 O82 2.555526 1_545
Na11 O40 2.587839 1_556
Na11 O10 2.604806 1_555
Na12 O41 2.363005 1_556
Na12 O78 2.379247 1_655
Na12 O11 2.434537 1_555
Na12 O111 2.483685 1_555
Na12 O83 2.534227 1_545
Na12 O113 2.541608 1_555
Na12 O49 2.854234 1_545
Na12 O69 2.958992 1_545
Na13 O79 2.406402 1_555
Na13 O109 2.413785 1_555
Na13 O113 2.492472 1_555
Na13 O7 2.591960 1_555
Na13 O81 2.593277 1_545
Na13 O37 2.614038 1_556
Na13 O51 2.750464 1_555
Na13 O71 2.928849 1_555
Na14 O119 2.328907 1_555
Na14 O76 2.382626 1_655
Na14 O75 2.468237 1_545
Na14 O115 2.472635 1_555
Na14 O5 2.537365 1_555
Na14 O47 2.670512 1_555
Na14 O60 2.815384 1_655
Na15 O72 2.399821 1_545
Na15 O114 2.420961 1_555
Na15 O116 2.471053 1_555
Na15 O0 2.555290 1_555
Na15 O76 2.581801 1_555
Na15 O42 2.711505 1_555
Na15 O58 2.766315 1_545
Na15 O62 2.929786 1_545
Na16 O44 2.379654 1_555
Na16 O73 2.408561 1_555
Na16 O118 2.476834 1_555
Na16 O2 2.530562 1_555
Na16 O116 2.546323 1_555
Na16 O74 2.575421 1_555
Na16 O54 2.783065 1_555
Na16 O64 2.955816 1_555
Na17 O72 2.360368 1_655
Na17 O117 2.441580 1_555
Na17 O119 2.484832 1_555
Na17 O75 2.538323 1_555
Na17 O3 2.611203 1_555
Na17 O45 2.626976 1_555
Na17 O65 2.929782 1_555
Na17 O55 2.932626 1_555
Na18 O89 2.382206 1_555
Na18 O72 2.383863 1_655
Na18 O86 2.472697 1_665
Na18 O75 2.573304 1_555
Na18 O85 2.582560 1_565
Na18 O76 2.688199 1_665
Na19 O87 2.442708 1_555
Na19 O73 2.480745 1_545
Na19 O77 2.482559 1_555
Na19 O84 2.506030 1_555
Na19 O88 2.511211 1_545
Na19 O74 2.693462 1_545
Na20 O94 2.400401 1_556
Na20 O78 2.416608 1_555
Na20 O80 2.428486 1_545
Na20 O93 2.570549 1_456
Na20 O91 2.598668 1_446
Na20 O83 2.740127 1_445
Na21 O92 2.413905 1_555
Na21 O79 2.433102 1_554
Na21 O95 2.462061 1_555
Na21 O82 2.564193 1_544
Na21 O81 2.611028 1_544
Na21 O90 2.620066 1_545
Na22 O98 2.435889 1_555
Na22 O110 2.501663 1_555
Na22 O112 2.511555 1_555
Na22 O108 2.550611 1_555
Na22 O100 2.642373 1_555
Na22 O96 2.659030 1_555
Na23 O97 2.470838 1_555
Na23 O111 2.505487 1_555
Na23 O109 2.511769 1_555
Na23 O113 2.523472 1_555
Na23 O99 2.581737 1_555
Na23 O101 2.664218 1_555
Na24 O118 2.478989 1_555
Na24 O102 2.502370 1_555
Na24 O116 2.507640 1_555
Na24 O114 2.555286 1_555
Na24 O106 2.556145 1_555
Na24 O104 2.631887 1_555
Na25 O119 2.507416 1_555
Na25 O117 2.541085 1_555
Na25 O107 2.551035 1_555
Na25 O105 2.571528 1_555
Na25 O103 2.604951 1_555
Na25 O115 2.637693 1_555
Na26 O122 2.385958 1_555
Na26 O124 2.467707 1_555
Na26 O132 2.473455 1_555
Na26 O120 2.508643 1_555
Na26 O136 2.575472 1_555
Na26 O134 2.658453 1_555
Na27 O125 2.283523 1_555
Na27 O135 2.463703 1_555
Na27 O133 2.472143 1_555
Na27 O123 2.505154 1_555
Na27 O121 2.573897 1_555
Na27 O137 2.626525 1_555
Na28 O128 2.297106 1_555
Na28 O126 2.460447 1_555
Na28 O142 2.487755 1_555
Na28 O138 2.512465 1_555
Na28 O130 2.531561 1_555
Na28 O140 2.622639 1_555
Na29 O131 2.353105 1_555
Na29 O129 2.446447 1_555
Na29 O139 2.499728 1_555
Na29 O127 2.559489 1_555
Na29 O141 2.588207 1_555
Na29 O143 2.627926 1_555
Ge0 O14 1.803859 1_655
Ge0 O13 1.804506 1_545
Ge0 O16 1.995037 1_645
Ge0 O89 2.014629 1_545
Ge0 O85 2.032816 1_555
Ge0 O86 2.196233 1_655
Ge1 O15 1.755014 1_555
Ge1 O88 1.783665 1_545
Ge1 O84 1.954055 1_555
Ge1 O12 2.004768 1_545
Ge1 O87 2.029904 1_555
Ge1 O17 2.210543 1_545
Ge2 O22 1.774680 1_545
Ge2 O93 1.785877 1_455
Ge2 O19 2.030707 1_445
Ge2 O20 2.044279 1_555
Ge2 O91 2.056710 1_445
Ge2 O94 2.060097 1_555
Ge3 O18 1.816833 1_555
Ge3 O23 1.955228 1_555
Ge3 O21 1.958367 1_565
Ge3 O90 1.958476 1_555
Ge3 O92 1.995244 1_565
Ge3 O95 2.032431 1_565
Ge4 O60 1.774376 1_555
Ge4 O132 1.830236 1_555
Ge4 O134 1.884265 1_555
Ge4 O136 2.054031 1_555
Ge4 O62 2.110257 1_555
Ge4 O64 2.275322 1_555
Ge5 O67 1.782476 1_555
Ge5 O139 1.830950 1_555
Ge5 O143 1.871419 1_555
Ge5 O141 2.061415 1_555
Ge5 O71 2.095833 1_555
Ge5 O69 2.212929 1_555
O0 Si0 1.605065 1_545
O0 Zn0 1.914771 1_545
O1 S0 1.462836 1_555
O1 Zn1 2.001760 1_555
O2 Si1 1.598878 1_555
O2 Zn1 1.941322 1_565
O3 S1 1.482734 1_555
O3 Zn0 2.043008 1_655
O4 S3 1.458620 1_555
O4 Zn1 2.083782 1_555
O5 S2 1.469744 1_655
O5 Zn0 2.239432 1_645
O6 Si2 1.598768 1_555
O6 Zn2 1.877345 1_555
O7 Si3 1.606493 1_555
O7 Zn3 1.908774 1_555
O8 S5 1.482609 1_555
O8 Zn3 2.205160 1_565
O9 S4 1.460899 1_655
O9 Zn2 2.153793 1_665
O10 S6 1.477062 1_555
O10 Zn3 2.059340 1_555
O11 Si4 1.599508 1_545
O11 Zn2 1.953315 1_655
O12 S6 1.516648 1_565
O13 Si4 1.689793 1_555
O14 Si2 1.750310 1_555
O15 Si3 1.675738 1_555
O16 S4 1.531551 1_555
O17 S5 1.487839 1_555
O18 Si1 1.699068 1_555
O19 S1 1.526013 1_555
O20 S2 1.510761 1_555
O21 S3 1.536625 1_555
O22 Si0 1.674249 1_555
O23 S0 1.560339 1_565
O24 S7 1.464203 1_555
O24 Zn4 2.093761 1_555
O25 S8 1.474242 1_555
O25 Zn5 2.064638 1_555
O26 S9 1.478352 1_555
O26 Zn4 2.096584 1_555
O27 S10 1.477881 1_555
O27 Zn5 2.040209 1_555
O28 Si5 1.618908 1_555
O28 Zn4 1.921827 1_555
O29 S11 1.470753 1_555
O29 Zn5 2.202135 1_555
O30 S12 1.479431 1_555
O30 Zn6 2.071883 1_555
O31 S13 1.465300 1_555
O31 Zn7 2.110258 1_555
O32 S14 1.472839 1_555
O32 Zn6 2.174381 1_555
O33 Si6 1.587523 1_555
O33 Zn7 1.865740 1_555
O34 S15 1.479980 1_555
O34 Zn6 2.047285 1_555
O35 S16 1.469149 1_555
O35 Zn7 2.060241 1_555
O36 S15 1.473990 1_555
O36 Zn8 2.103531 1_554
O37 S16 1.500620 1_555
O37 Zn9 2.298071 1_554
O38 S12 1.480298 1_555
O38 Zn8 2.201014 1_554
O39 S13 1.500897 1_555
O39 Zn9 2.035338 1_554
O40 S14 1.482703 1_555
O40 Zn8 2.189464 1_554
O41 Si6 1.629026 1_555
O41 Zn9 1.902014 1_554
O42 S9 1.499579 1_555
O42 Zn10 2.298718 1_555
O43 S10 1.470254 1_555
O43 Zn11 2.107653 1_555
O44 Si5 1.637336 1_555
O44 Zn10 1.904687 1_555
O45 S11 1.486080 1_555
O45 Zn11 2.182497 1_555
O46 S7 1.481989 1_555
O46 Zn10 1.995134 1_555
O47 S8 1.476706 1_555
O47 Zn11 2.159211 1_555
O48 S17 1.473178 1_555
O48 Zn12 2.033210 1_556
O49 S18 1.474550 1_555
O49 Zn13 2.184376 1_556
O50 S19 1.464499 1_555
O50 Zn12 2.002771 1_556
O51 Si7 1.585044 1_555
O51 Zn13 1.908212 1_556
O52 S20 1.475194 1_555
O52 Zn12 2.029399 1_556
O53 S21 1.465134 1_555
O53 Zn13 2.090934 1_556
O54 S22 1.460244 1_555
O54 Zn14 2.069677 1_555
O55 S23 1.479226 1_555
O55 Zn15 2.043951 1_555
O56 S24 1.469881 1_555
O56 Zn14 2.184166 1_555
O57 S25 1.474899 1_555
O57 Zn15 2.049998 1_555
O58 Si8 1.590941 1_555
O58 Zn14 1.909494 1_555
O59 S26 1.462111 1_555
O59 Zn15 2.008722 1_555
O60 Si8 1.731992 1_555
O61 S26 1.500027 1_555
O61 Zn16 2.092717 1_555
O62 S22 1.550327 1_555
O63 S23 1.481641 1_555
O63 Zn16 2.010537 1_555
O64 S24 1.512979 1_555
O65 S25 1.495124 1_555
O65 Zn16 2.024315 1_555
O66 S19 1.496163 1_555
O66 Zn17 2.028353 1_555
O67 Si7 1.726985 1_555
O68 S20 1.516452 1_555
O68 Zn17 2.141648 1_555
O69 S21 1.512682 1_555
O70 S17 1.490631 1_555
O70 Zn17 2.049469 1_555
O71 S18 1.548798 1_555
O72 Si8 1.638337 1_555
O72 Zn0 2.003151 1_555
O73 S26 1.494452 1_555
O73 Zn1 2.242440 1_565
O74 S22 1.477948 1_555
O74 Zn1 2.137846 1_565
O75 S23 1.509355 1_555
O75 Zn0 2.280127 1_655
O76 S24 1.494242 1_555
O76 Zn0 2.292043 1_545
O77 S25 1.480344 1_555
O77 Zn1 2.115004 1_555
O78 S19 1.491531 1_555
O78 Zn2 2.219390 1_555
O79 Si7 1.644428 1_555
O79 Zn3 1.990688 1_555
O80 S20 1.470794 1_555
O80 Zn2 2.254062 1_565
O81 S21 1.493466 1_555
O81 Zn3 2.266949 1_565
O82 S17 1.506022 1_555
O82 Zn3 2.299210 1_565
O83 S18 1.473997 1_555
O83 Zn2 2.233163 1_665
O84 S7 1.521074 1_555
O85 S8 1.541453 1_555
O86 S9 1.530576 1_555
O87 S10 1.521666 1_555
O88 Si5 1.696436 1_555
O89 S11 1.546430 1_555
O90 S12 1.547559 1_555
O91 S13 1.519135 1_555
O92 S14 1.546467 1_555
O93 Si6 1.752754 1_555
O94 S15 1.522507 1_555
O95 S16 1.536340 1_555
O96 S6 1.465331 1_555
O96 Zn4 2.350253 1_555
O97 Si4 1.621152 1_545
O97 Zn5 2.063373 1_555
O98 Si2 1.634024 1_555
O98 Zn4 2.018793 1_555
O99 Si3 1.629765 1_555
O99 Zn5 1.974910 1_555
O100 S5 1.467341 1_555
O100 Zn4 2.251669 1_555
O101 S4 1.482482 1_655
O101 Zn5 2.239673 1_555
O102 Si1 1.625483 1_555
O102 Zn6 2.055476 1_555
O103 S1 1.471976 1_555
O103 Zn7 2.251867 1_555
O104 S3 1.488251 1_555
O104 Zn6 2.304540 1_555
O105 S2 1.459715 1_655
O105 Zn7 2.243269 1_555
O106 Si0 1.632133 1_545
O106 Zn6 1.982185 1_555
O107 S0 1.457996 1_555
O107 Zn7 2.171839 1_555
O108 S17 1.479987 1_555
O108 Zn8 2.189026 1_555
O109 S18 1.481523 1_555
O109 Zn9 2.568635 1_555
O110 Si7 1.650448 1_555
O110 Zn8 2.024326 1_555
O111 S19 1.497852 1_655
O111 Zn9 2.173484 1_555
O112 S20 1.507218 1_545
O112 Zn8 2.189113 1_555
O113 S21 1.492030 1_545
O113 Zn9 2.451359 1_555
O114 S22 1.482275 1_545
O114 Zn10 2.486304 1_555
O115 S23 1.481035 1_545
O115 Zn11 2.172856 1_555
O116 S24 1.494432 1_555
O116 Zn10 2.509052 1_555
O117 S25 1.502821 1_555
O117 Zn11 2.156850 1_555
O118 S26 1.506158 1_555
O118 Zn10 2.200661 1_555
O119 Si8 1.642972 1_655
O119 Zn11 2.040290 1_555
O120 S15 1.482003 1_555
O120 Zn12 2.152951 1_555
O121 S16 1.476351 1_555
O121 Zn13 2.300436 1_555
O122 S13 1.477548 1_455
O122 Zn12 2.129177 1_555
O123 S12 1.468387 1_555
O123 Zn13 2.218860 1_555
O124 S14 1.480708 1_565
O124 Zn12 2.234122 1_555
O125 Si6 1.630690 1_565
O125 Zn13 1.975147 1_555
O126 S9 1.460851 1_565
O126 Zn14 2.166720 1_555
O127 S10 1.478064 1_565
O127 Zn15 2.142580 1_555
O128 Si5 1.630541 1_555
O128 Zn14 1.964999 1_555
O129 S11 1.479730 1_555
O129 Zn15 2.263992 1_555
O130 S8 1.475604 1_455
O130 Zn14 2.360149 1_555
O131 S7 1.481896 1_555
O131 Zn15 2.153047 1_555
O132 Si0 1.675559 1_555
O133 S0 1.489594 1_565
O133 Zn16 2.358766 1_555
O134 Si1 1.698095 1_555
O135 S1 1.487540 1_555
O135 Zn16 2.140327 1_555
O136 S2 1.541125 1_555
O137 S3 1.478538 1_555
O137 Zn16 2.225812 1_555
O138 Si2 1.643418 1_555
O138 Zn17 2.028794 1_555
O139 Si3 1.668548 1_555
O140 S4 1.488324 1_555
O140 Zn17 2.319796 1_555
O141 S5 1.527192 1_555
O142 S6 1.494633 1_565
O142 Zn17 2.312105 1_555
O143 Si4 1.697074 1_555
