# generated using pymatgen
data_Y2Hf2SiS5O24
_symmetry_space_group_name_H-M   'P 1'
_cell_length_a   9.10420021
_cell_length_b   9.12874253
_cell_length_c   23.50729819
_cell_angle_alpha   90.16208514
_cell_angle_beta   90.09058254
_cell_angle_gamma   119.92232859
_symmetry_Int_Tables_number   1
_chemical_formula_structural   Y2Hf2SiS5O24
_chemical_formula_sum   'Y6 Hf6 Si3 S15 O72'
_cell_volume   1693.25028340
_cell_formula_units_Z   3
loop_
 _symmetry_equiv_pos_site_id
 _symmetry_equiv_pos_as_xyz
  1  'x, y, z'
loop_
 _atom_site_type_symbol
 _atom_site_label
 _atom_site_symmetry_multiplicity
 _atom_site_fract_x
 _atom_site_fract_y
 _atom_site_fract_z
 _atom_site_occupancy
  Y  Y0  1  0.99428867  0.00166929  0.36108977  1
  Y  Y1  1  0.00135956  0.00131541  0.85846764  1
  Y  Y2  1  0.67783871  0.33659182  0.68516887  1
  Y  Y3  1  0.65859560  0.33555524  0.18543037  1
  Y  Y4  1  0.65547880  0.33013483  0.98215231  1
  Y  Y5  1  0.33186233  0.66527706  0.80767956  1
  Hf  Hf0  1  0.99955746  0.00700775  0.64151077  1
  Hf  Hf1  1  0.00731999  0.00770240  0.14596067  1
  Hf  Hf2  1  0.67596197  0.32397568  0.47786283  1
  Hf  Hf3  1  0.33321287  0.66080607  0.02273165  1
  Hf  Hf4  1  0.33789124  0.66839479  0.52241745  1
  Hf  Hf5  1  0.34055271  0.67486999  0.31342456  1
  Si  Si0  1  0.96174938  0.33616009  0.58183294  1
  Si  Si1  1  0.36866488  0.33293768  0.08351552  1
  Si  Si2  1  0.61192254  0.95216990  0.41844288  1
  S  S0  1  0.28323107  0.99025957  0.25063799  1
  S  S1  1  0.70845887  0.71519720  0.25065119  1
  S  S2  1  0.00706210  0.29214707  0.25010668  1
  S  S3  1  0.28297585  0.28156579  0.74792858  1
  S  S4  1  0.99936453  0.71857552  0.74830213  1
  S  S5  1  0.71698691  0.99889046  0.74831368  1
  S  S6  1  0.37298809  0.04166830  0.58171073  1
  S  S7  1  0.66828985  0.62625931  0.58207680  1
  S  S8  1  0.96684654  0.63448136  0.08365452  1
  S  S9  1  0.66785525  0.03329227  0.08346631  1
  S  S10  1  0.61723529  0.66764815  0.91787290  1
  S  S11  1  0.04884351  0.38410322  0.91815726  1
  S  S12  1  0.33443433  0.94946451  0.91781319  1
  S  S13  1  0.34407892  0.39191431  0.41799956  1
  S  S14  1  0.04901695  0.65880772  0.41776305  1
  O  O0  1  0.20739531  0.01874421  0.30098501  1
  O  O1  1  0.81337010  0.79447063  0.30107095  1
  O  O2  1  0.98048541  0.18743442  0.30035653  1
  O  O3  1  0.20506326  0.18244765  0.79972661  1
  O  O4  1  0.97991594  0.79815705  0.80045623  1
  O  O5  1  0.81815588  0.02305321  0.80010224  1
  O  O6  1  0.80585594  0.97903433  0.69775348  1
  O  O7  1  0.17328503  0.19165438  0.69735031  1
  O  O8  1  0.01893626  0.82424599  0.69769222  1
  O  O9  1  0.78712534  0.82143317  0.19946715  1
  O  O10  1  0.03054650  0.20469069  0.19911237  1
  O  O11  1  0.17348862  0.96577140  0.19946361  1
  O  O12  1  0.88159808  0.36999289  0.63762632  1
  O  O13  1  0.47641628  0.11186136  0.63306005  1
  O  O14  1  0.63201720  0.52183824  0.63316700  1
  O  O15  1  0.89669506  0.52427347  0.13352885  1
  O  O16  1  0.63349456  0.10708505  0.13372491  1
  O  O17  1  0.48715646  0.37080865  0.13880226  1
  O  O18  1  0.44762796  0.29395546  0.02820241  1
  O  O19  1  0.85968018  0.56108002  0.03324531  1
  O  O20  1  0.70736564  0.14225724  0.03348741  1
  O  O21  1  0.45257628  0.15478079  0.53215251  1
  O  O22  1  0.69669341  0.54598588  0.53196227  1
  O  O23  1  0.83216358  0.30400121  0.52744314  1
  O  O24  1  0.52848671  0.68780910  0.96833363  1
  O  O25  1  0.15850258  0.47406369  0.96860539  1
  O  O26  1  0.31459011  0.84378924  0.96842406  1
  O  O27  1  0.51257402  0.83277872  0.47195982  1
  O  O28  1  0.31409867  0.47134624  0.46822528  1
  O  O29  1  0.15472078  0.68147665  0.46802284  1
  O  O30  1  0.12614249  0.62909300  0.36564203  1
  O  O31  1  0.49155213  0.85566164  0.36114299  1
  O  O32  1  0.36355723  0.49532491  0.36588514  1
  O  O33  1  0.12738710  0.48371845  0.86650324  1
  O  O34  1  0.35355061  0.86893825  0.86590524  1
  O  O35  1  0.51550527  0.64358662  0.86624730  1
  O  O36  1  0.03382879  0.80969361  0.41015765  1
  O  O37  1  0.79631690  0.97450160  0.41040049  1
  O  O38  1  0.19625943  0.22325538  0.41013365  1
  O  O39  1  0.03743225  0.21759647  0.91350226  1
  O  O40  1  0.18148463  0.96586742  0.91296746  1
  O  O41  1  0.78377324  0.82269507  0.91340517  1
  O  O42  1  0.98040604  0.16684471  0.59473789  1
  O  O43  1  0.20098462  0.02052432  0.59178463  1
  O  O44  1  0.82058263  0.79647413  0.59275234  1
  O  O45  1  0.98531127  0.80363615  0.09639522  1
  O  O46  1  0.81403486  0.00632958  0.09599983  1
  O  O47  1  0.17941639  0.16928462  0.09879143  1
  O  O48  1  0.69432844  0.14593165  0.74132243  1
  O  O49  1  0.45105774  0.30120964  0.73975803  1
  O  O50  1  0.84779436  0.55069598  0.74268491  1
  O  O51  1  0.68816221  0.54643520  0.24294262  1
  O  O52  1  0.86084024  0.31415021  0.23956460  1
  O  O53  1  0.45432200  0.13240952  0.24110728  1
  O  O54  1  0.63953626  0.52044287  0.92520715  1
  O  O55  1  0.88099690  0.36463206  0.92670468  1
  O  O56  1  0.48645864  0.11684967  0.92380093  1
  O  O57  1  0.62423026  0.13719225  0.42809703  1
  O  O58  1  0.49825098  0.38007677  0.42717661  1
  O  O59  1  0.87728617  0.50891168  0.42601530  1
  O  O60  1  0.34205705  0.49545859  0.06903761  1
  O  O61  1  0.14006937  0.66185754  0.07160688  1
  O  O62  1  0.51743932  0.86401163  0.07127651  1
  O  O63  1  0.34873240  0.87092297  0.57062285  1
  O  O64  1  0.52138346  0.65209899  0.57188994  1
  O  O65  1  0.14717310  0.49283219  0.56613405  1
  O  O66  1  0.29337233  0.83152275  0.25808459  1
  O  O67  1  0.53521174  0.69571027  0.25941537  1
  O  O68  1  0.16235959  0.46020156  0.25831052  1
  O  O69  1  0.29483221  0.44828671  0.75283099  1
  O  O70  1  0.15233988  0.70202006  0.75342999  1
  O  O71  1  0.55023356  0.84394953  0.75297261  1
loop_
_geom_bond_atom_site_label_1
_geom_bond_atom_site_label_2
_geom_bond_distance
_geom_bond_site_symmetry_2
Hf0 O42 1.905412 1_555
Hf0 O7 2.094520 1_655
Hf0 O6 2.117340 1_545
Hf0 O44 2.125996 1_545
Hf0 O43 2.127536 1_655
Hf0 O8 2.205494 1_645
Hf1 O47 1.889226 1_555
Hf1 O10 2.108710 1_555
Hf1 O46 2.108892 1_455
Hf1 O45 2.117213 1_445
Hf1 O11 2.142764 1_545
Hf1 O9 2.260865 1_445
Hf2 O23 1.915369 1_555
Hf2 O57 1.919257 1_555
Hf2 O59 2.150981 1_555
Hf2 O21 2.244094 1_555
Hf2 O58 2.263536 1_555
Hf2 O22 2.315895 1_555
Hf3 O60 1.897361 1_555
Hf3 O25 2.081143 1_554
Hf3 O24 2.104364 1_554
Hf3 O62 2.105805 1_555
Hf3 O61 2.106019 1_555
Hf3 O26 2.177774 1_554
Hf4 O27 1.955271 1_555
Hf4 O65 1.969318 1_555
Hf4 O64 2.099552 1_555
Hf4 O28 2.122005 1_555
Hf4 O63 2.125498 1_555
Hf4 O29 2.150121 1_555
Hf5 O31 1.895550 1_555
Hf5 O67 2.112100 1_555
Hf5 O66 2.131531 1_555
Hf5 O32 2.145725 1_555
Hf5 O30 2.165287 1_555
Hf5 O68 2.226645 1_555
O0 S0 1.457730 1_545
O0 Y0 2.343722 1_455
O1 S1 1.463811 1_555
O1 Y0 2.269499 1_565
O2 S2 1.464292 1_655
O2 Y0 2.270579 1_555
O3 S3 1.474156 1_555
O3 Y1 2.245417 1_555
O4 S4 1.478575 1_555
O4 Y1 2.227301 1_665
O5 S5 1.473548 1_545
O5 Y1 2.242381 1_655
O6 S5 1.499404 1_555
O7 S3 1.502524 1_555
O8 S4 1.487734 1_455
O9 S1 1.489136 1_555
O10 S2 1.511876 1_555
O11 S0 1.505723 1_555
O12 Si0 1.604249 1_555
O12 Y2 2.056076 1_555
O13 S6 1.464372 1_555
O13 Y2 2.301613 1_555
O14 S7 1.467573 1_555
O14 Y2 2.289529 1_555
O15 S8 1.470583 1_555
O15 Y3 2.334523 1_555
O16 S9 1.467773 1_555
O16 Y3 2.321368 1_555
O17 Si1 1.610369 1_555
O17 Y3 2.058849 1_555
O18 Si1 1.609251 1_555
O18 Y4 2.060767 1_554
O19 S8 1.464487 1_555
O19 Y4 2.326337 1_554
O20 S9 1.466337 1_555
O20 Y4 2.332189 1_554
O21 S6 1.487097 1_555
O22 S7 1.475400 1_555
O23 Si0 1.661426 1_555
O24 S10 1.497973 1_555
O25 S11 1.500094 1_555
O26 S12 1.487278 1_555
O27 Si2 1.617560 1_555
O28 S13 1.479155 1_555
O29 S14 1.470087 1_555
O30 S14 1.502882 1_555
O31 Si2 1.678345 1_555
O32 S13 1.504531 1_555
O33 S11 1.474084 1_555
O33 Y5 2.251118 1_555
O34 S12 1.477439 1_555
O34 Y5 2.233255 1_555
O35 S10 1.473361 1_555
O35 Y5 2.248235 1_555
O36 S14 1.462750 1_555
O36 Y0 2.273938 1_465
O37 Si2 1.598543 1_555
O37 Y0 2.053290 1_565
O38 S13 1.465013 1_555
O38 Y0 2.251966 1_455
O39 S11 1.474666 1_555
O39 Y1 2.239872 1_555
O40 S12 1.477167 1_555
O40 Y1 2.227199 1_565
O41 S10 1.474305 1_555
O41 Y1 2.246830 1_665
O42 Si0 1.665616 1_555
O43 S6 1.498476 1_555
O44 S7 1.499050 1_555
O45 S8 1.496887 1_555
O46 S9 1.498171 1_555
O47 Si1 1.663261 1_555
O48 S5 1.465853 1_545
O48 Y2 2.251074 1_555
O49 S3 1.462215 1_555
O49 Y2 2.315010 1_555
O50 S4 1.469267 1_555
O50 Y2 2.236871 1_555
O51 S1 1.467886 1_555
O51 Y3 2.252396 1_555
O52 S2 1.462854 1_655
O52 Y3 2.323962 1_555
O53 S0 1.465117 1_545
O53 Y3 2.278462 1_555
O54 S10 1.466335 1_555
O54 Y4 2.257258 1_555
O55 S11 1.461943 1_655
O55 Y4 2.319329 1_555
O56 S12 1.469196 1_545
O56 Y4 2.242653 1_555
O57 Si2 1.650996 1_545
O58 S13 1.476090 1_555
O59 S14 1.490832 1_655
O60 Si1 1.654316 1_555
O61 S8 1.496122 1_455
O62 S9 1.493474 1_565
O63 S6 1.483355 1_565
O64 S7 1.488573 1_555
O65 Si0 1.621030 1_455
O66 S0 1.507920 1_555
O67 S1 1.511027 1_555
O68 S2 1.491058 1_555
O69 S3 1.475243 1_555
O69 Y5 2.240036 1_555
O70 S4 1.478714 1_455
O70 Y5 2.225497 1_555
O71 S5 1.475299 1_555
O71 Y5 2.247569 1_555
