# generated using pymatgen
data_PuNi5
_symmetry_space_group_name_H-M   'P 1'
_cell_length_a   4.85364904
_cell_length_b   4.85363975
_cell_length_c   3.90607642
_cell_angle_alpha   90.00000000
_cell_angle_beta   90.00000000
_cell_angle_gamma   119.99583989
_symmetry_Int_Tables_number   1
_chemical_formula_structural   PuNi5
_chemical_formula_sum   'Pu1 Ni5'
_cell_volume   79.69397335
_cell_formula_units_Z   1
loop_
 _symmetry_equiv_pos_site_id
 _symmetry_equiv_pos_as_xyz
  1  'x, y, z'
loop_
 _atom_site_type_symbol
 _atom_site_label
 _atom_site_symmetry_multiplicity
 _atom_site_fract_x
 _atom_site_fract_y
 _atom_site_fract_z
 _atom_site_occupancy
  Pu  Pu0  1  -0.00000000  -0.00000000  -0.00000000  1
  Ni  Ni0  1  0.33334458  0.66666139  0.00000000  1
  Ni  Ni1  1  0.66665542  0.33333861  0.00000000  1
  Ni  Ni2  1  0.50000000  -0.00000000  0.50000000  1
  Ni  Ni3  1  0.50000000  0.50000000  0.50000000  1
  Ni  Ni4  1  -0.00000000  0.50000000  0.50000000  1
loop_
_geom_bond_atom_site_label_1
_geom_bond_atom_site_label_2
_geom_bond_distance
_geom_bond_site_symmetry_2
Ni0 Ni3 2.403588 1_554
Ni0 Ni3 2.403588 1_555
Ni0 Ni2 2.403692 1_565
Ni0 Ni2 2.403692 1_564
Ni0 Ni4 2.403708 1_554
Ni0 Ni4 2.403708 1_555
Ni0 Pu0 2.802264 1_565
Ni0 Pu0 2.802326 1_665
Ni0 Pu0 2.802346 1_555
Ni1 Ni3 2.403588 1_554
Ni1 Ni3 2.403588 1_555
Ni1 Ni2 2.403692 1_554
Ni1 Ni2 2.403692 1_555
Ni1 Ni4 2.403708 1_655
Ni1 Ni4 2.403708 1_654
Ni1 Pu0 2.802264 1_655
Ni1 Pu0 2.802326 1_555
Ni1 Pu0 2.802346 1_665
Ni2 Ni3 2.426820 1_545
Ni2 Ni3 2.426820 1_555
Ni2 Ni4 2.426975 1_545
Ni2 Ni4 2.426975 1_655
Ni2 Pu0 3.115098 1_556
Ni2 Pu0 3.115098 1_555
Ni2 Pu0 3.115098 1_655
Ni2 Pu0 3.115098 1_656
Ni3 Ni4 2.426825 1_655
Ni3 Ni4 2.426825 1_555
Ni3 Pu0 3.115215 1_556
Ni3 Pu0 3.115215 1_555
Ni3 Pu0 3.115215 1_665
Ni3 Pu0 3.115215 1_666
Ni4 Pu0 3.115094 1_555
Ni4 Pu0 3.115094 1_556
Ni4 Pu0 3.115094 1_565
Ni4 Pu0 3.115094 1_566
