# generated using pymatgen
data_Ba2Pr4Mg(CuO5)2
_symmetry_space_group_name_H-M   'P 1'
_cell_length_a   6.14282300
_cell_length_b   6.93440558
_cell_length_c   6.93440558
_cell_angle_alpha   92.97421913
_cell_angle_beta   90.00000000
_cell_angle_gamma   90.00000000
_symmetry_Int_Tables_number   1
_chemical_formula_structural   Ba2Pr4Mg(CuO5)2
_chemical_formula_sum   'Ba2 Pr4 Mg1 Cu2 O10'
_cell_volume   294.98578199
_cell_formula_units_Z   1
loop_
 _symmetry_equiv_pos_site_id
 _symmetry_equiv_pos_as_xyz
  1  'x, y, z'
loop_
 _atom_site_type_symbol
 _atom_site_label
 _atom_site_symmetry_multiplicity
 _atom_site_fract_x
 _atom_site_fract_y
 _atom_site_fract_z
 _atom_site_occupancy
  Ba  Ba0  1  0.00000000  0.45290600  0.54594000  1
  Ba  Ba1  1  0.00000000  0.04594000  0.95290600  1
  Pr  Pr0  1  0.50000000  0.83851300  0.33851300  1
  Pr  Pr1  1  0.50000000  0.68041800  0.82341600  1
  Pr  Pr2  1  0.50000000  0.32341600  0.18041800  1
  Pr  Pr3  1  0.50000000  0.17346600  0.67346600  1
  Mg  Mg0  1  0.00000000  0.77125600  0.27125600  1
  Cu  Cu0  1  0.00000000  0.49458000  0.99458000  1
  Cu  Cu1  1  0.00000000  0.01619500  0.51619500  1
  O  O0  1  0.24785800  0.65326800  0.15326800  1
  O  O1  1  0.24974800  0.35585900  0.85585900  1
  O  O2  1  0.25020100  0.13466900  0.35345000  1
  O  O3  1  0.25020100  0.85345000  0.63466900  1
  O  O4  1  0.75214200  0.65326800  0.15326800  1
  O  O5  1  0.74979900  0.85345000  0.63466900  1
  O  O6  1  0.74979900  0.13466900  0.35345000  1
  O  O7  1  0.75025200  0.35585900  0.85585900  1
  O  O8  1  0.50000000  0.00424800  0.99160500  1
  O  O9  1  0.50000000  0.49160500  0.50424800  1
loop_
_geom_bond_atom_site_label_1
_geom_bond_atom_site_label_2
_geom_bond_distance
_geom_bond_site_symmetry_2
Ba0 O1 2.752318 1_555
Ba0 O7 2.752318 1_455
Ba0 O6 2.950950 1_455
Ba0 O2 2.950950 1_555
Ba0 Mg0 2.989626 1_555
Ba0 Cu1 3.024651 1_555
Ba0 O9 3.097938 1_555
Ba0 O9 3.097938 1_455
Ba0 O3 3.205949 1_555
Ba0 O5 3.205949 1_455
Ba1 O1 2.752318 1_555
Ba1 O7 2.752318 1_455
Ba1 O5 2.950950 1_445
Ba1 O3 2.950950 1_545
Ba1 Mg0 2.989626 1_546
Ba1 Cu1 3.024651 1_555
Ba1 O8 3.097938 1_555
Ba1 O8 3.097938 1_455
Ba1 O2 3.205949 1_556
Ba1 O6 3.205949 1_456
Mg0 O0 1.894073 1_555
Mg0 O4 1.894073 1_455
Cu0 O7 2.026894 1_455
Cu0 O1 2.026894 1_555
Cu0 O0 2.148089 1_556
Cu0 O4 2.148089 1_456
Cu1 O2 2.099271 1_555
Cu1 O6 2.099271 1_455
Cu1 O5 2.099271 1_445
Cu1 O3 2.099271 1_545
Cu1 Mg0 2.338904 1_545
O0 Pr0 2.351160 1_555
O0 Pr2 2.776865 1_555
O0 Pr1 2.776865 1_554
O1 Pr3 2.323040 1_555
O1 Pr2 2.744378 1_556
O1 Pr1 2.744378 1_555
O2 Pr2 2.381250 1_555
O2 Pr0 2.561406 1_545
O2 Pr3 2.699912 1_555
O3 Pr1 2.381250 1_555
O3 Pr0 2.561406 1_555
O3 Pr3 2.699912 1_565
O4 Pr0 2.351160 1_555
O4 Pr2 2.776865 1_555
O4 Pr1 2.776865 1_554
O5 Pr1 2.381250 1_555
O5 Pr0 2.561406 1_555
O5 Pr3 2.699912 1_565
O6 Pr2 2.381250 1_555
O6 Pr0 2.561406 1_545
O6 Pr3 2.699912 1_555
O7 Pr3 2.323040 1_555
O7 Pr2 2.744378 1_556
O7 Pr1 2.744378 1_555
O8 Pr1 2.476092 1_545
O8 Pr2 2.512369 1_556
O8 Pr3 2.551953 1_555
O8 Pr0 2.719310 1_546
O9 Pr2 2.476092 1_555
O9 Pr1 2.512369 1_555
O9 Pr3 2.551953 1_555
O9 Pr0 2.719310 1_555
