# generated using pymatgen
data_MgMn6O7F5
_symmetry_space_group_name_H-M   'P 1'
_cell_length_a   7.75417377
_cell_length_b   5.74424280
_cell_length_c   5.85005875
_cell_angle_alpha   67.92652468
_cell_angle_beta   69.99216360
_cell_angle_gamma   70.93424067
_symmetry_Int_Tables_number   1
_chemical_formula_structural   MgMn6O7F5
_chemical_formula_sum   'Mg1 Mn6 O7 F5'
_cell_volume   220.95111880
_cell_formula_units_Z   1
loop_
 _symmetry_equiv_pos_site_id
 _symmetry_equiv_pos_as_xyz
  1  'x, y, z'
loop_
 _atom_site_type_symbol
 _atom_site_label
 _atom_site_symmetry_multiplicity
 _atom_site_fract_x
 _atom_site_fract_y
 _atom_site_fract_z
 _atom_site_occupancy
  Mg  Mg0  1  0.49522054  0.50574253  0.97640496  1
  Mn  Mn0  1  0.84928207  0.71147695  0.68786963  1
  Mn  Mn1  1  0.67959227  0.32709381  0.36943828  1
  Mn  Mn2  1  0.23935477  0.62167824  0.56548235  1
  Mn  Mn3  1  0.14892972  0.23598106  0.39596132  1
  Mn  Mn4  1  0.51075597  0.96629612  0.01600182  1
  Mn  Mn5  1  0.00950292  0.04297563  0.98954228  1
  O  O0  1  0.66013795  0.02200248  0.66141838  1
  O  O1  1  0.95337975  0.21329406  0.24785307  1
  O  O2  1  0.03443850  0.86254037  0.72548393  1
  O  O3  1  0.39848780  0.39632957  0.37505907  1
  O  O4  1  0.34821320  0.90990537  0.34950688  1
  O  O5  1  0.67617554  0.62817607  0.06077495  1
  O  O6  1  0.04490098  0.38173092  0.70879515  1
  F  F0  1  0.33981168  0.33353415  0.92878924  1
  F  F1  1  0.31837492  0.84611008  0.91129903  1
  F  F2  1  0.66504513  0.54566928  0.62343502  1
  F  F3  1  0.68886608  0.15054843  0.06652533  1
  F  F4  1  0.00203022  0.71558489  0.28083831  1
loop_
_geom_bond_atom_site_label_1
_geom_bond_atom_site_label_2
_geom_bond_distance
_geom_bond_site_symmetry_2
Mg0 O5 2.021528 1_556
Mg0 O3 2.099012 1_556
Mn0 O0 1.896168 1_565
Mn0 O6 1.994837 1_655
Mn0 O2 2.009069 1_655
Mn0 O5 2.102621 1_556
Mn1 O0 1.938610 1_555
Mn1 O1 1.962099 1_555
Mn1 O5 1.976870 1_555
Mn1 O3 2.074831 1_555
Mn2 O3 1.881185 1_555
Mn2 O4 1.913383 1_555
Mn2 O2 1.958195 1_555
Mn2 O6 2.121409 1_555
Mn3 O4 2.043127 1_545
Mn3 O1 2.044494 1_455
Mn3 O6 2.097871 1_555
Mn3 O3 2.350723 1_555
Mn3 O2 2.463929 1_545
Mn4 O4 1.899739 1_555
Mn4 O5 1.925145 1_555
Mn4 O0 1.961136 1_564
Mn5 O1 1.952710 1_456
Mn5 O6 2.048832 1_555
Mn5 O2 2.089488 1_545
F0 Mg0 1.929739 1_555
F0 Mn4 2.072300 1_546
F0 Mn2 2.347374 1_555
F0 Mn3 2.568408 1_556
F1 Mg0 1.973393 1_555
F1 Mn4 2.166343 1_556
F1 Mn5 2.256989 1_565
F2 Mg0 2.007771 1_555
F2 Mn0 2.148815 1_555
F2 Mn1 2.234273 1_555
F3 Mg0 2.104110 1_554
F3 Mn4 2.141118 1_545
F3 Mn5 2.281547 1_654
F3 Mn1 2.321557 1_555
F4 Mn5 2.009720 1_564
F4 Mn0 2.262618 1_455
F4 Mn3 2.534006 1_555
F4 Mn2 2.687688 1_555
