# generated using pymatgen
data_Na2ScNb3Si2(PO6)4
_symmetry_space_group_name_H-M   'P 1'
_cell_length_a   8.84423652
_cell_length_b   8.84207037
_cell_length_c   22.95803567
_cell_angle_alpha   90.05983821
_cell_angle_beta   90.02342913
_cell_angle_gamma   119.97119191
_symmetry_Int_Tables_number   1
_chemical_formula_structural   Na2ScNb3Si2(PO6)4
_chemical_formula_sum   'Na6 Sc3 Nb9 Si6 P12 O72'
_cell_volume   1555.26781244
_cell_formula_units_Z   3
loop_
 _symmetry_equiv_pos_site_id
 _symmetry_equiv_pos_as_xyz
  1  'x, y, z'
loop_
 _atom_site_type_symbol
 _atom_site_label
 _atom_site_symmetry_multiplicity
 _atom_site_fract_x
 _atom_site_fract_y
 _atom_site_fract_z
 _atom_site_occupancy
  Na  Na0  1  0.99821840  0.99961000  0.49644845  1
  Na  Na1  1  -0.00001601  0.99983128  0.00077596  1
  Na  Na2  1  0.66725631  0.33352511  0.83256268  1
  Na  Na3  1  0.66654581  0.33358749  0.32995066  1
  Na  Na4  1  0.33332917  0.66539859  0.16567361  1
  Na  Na5  1  0.33182040  0.66562153  0.66705433  1
  Sc  Sc0  1  0.99648487  -0.00012107  0.35316131  1
  Sc  Sc1  1  0.67114563  0.33535527  0.68616396  1
  Sc  Sc2  1  0.66420837  0.33486484  0.18547437  1
  Nb  Nb0  1  0.00025776  0.99963761  0.85658286  1
  Nb  Nb1  1  0.99953445  0.00241831  0.64551450  1
  Nb  Nb2  1  0.00309726  0.00340179  0.14616730  1
  Nb  Nb3  1  0.66169159  0.33169348  0.97861792  1
  Nb  Nb4  1  0.67032274  0.32940006  0.47846239  1
  Nb  Nb5  1  0.33331476  0.66388388  0.02035300  1
  Nb  Nb6  1  0.33507571  0.66642003  0.51981635  1
  Nb  Nb7  1  0.33770811  0.67184299  0.31087330  1
  Nb  Nb8  1  0.33259704  0.66667221  0.81450572  1
  Si  Si0  1  0.95667164  0.33567012  0.58464360  1
  Si  Si1  1  0.37867058  0.33441577  0.08460920  1
  Si  Si2  1  0.62030290  0.66529047  0.91688857  1
  Si  Si3  1  0.04339764  0.37944474  0.91692878  1
  Si  Si4  1  0.33488342  0.95434683  0.91741947  1
  Si  Si5  1  0.62638075  0.95485008  0.41650503  1
  P  P0  1  0.28966716  0.00345084  0.25133471  1
  P  P1  1  0.71417948  0.71009953  0.25069935  1
  P  P2  1  0.99727002  0.28835130  0.25123288  1
  P  P3  1  0.28962791  0.28856514  0.75052290  1
  P  P4  1  0.99926592  0.71118006  0.75016939  1
  P  P5  1  0.71111925  0.00052556  0.75053170  1
  P  P6  1  0.37936172  0.04528554  0.58377526  1
  P  P7  1  0.66631050  0.62004035  0.58366559  1
  P  P8  1  0.95494369  0.62140170  0.08383539  1
  P  P9  1  0.66594761  0.04469146  0.08381350  1
  P  P10  1  0.33285600  0.37825052  0.41634327  1
  P  P11  1  0.04701566  0.66874035  0.41643683  1
  O  O0  1  0.20573905  0.02624813  0.30486900  1
  O  O1  1  0.82055366  0.79398872  0.30464539  1
  O  O2  1  0.97363211  0.17920255  0.30439343  1
  O  O3  1  0.19654114  0.17293559  0.80399459  1
  O  O4  1  0.97671123  0.80386153  0.80410986  1
  O  O5  1  0.82725366  0.02404403  0.80403669  1
  O  O6  1  0.80157159  0.97131458  0.69574801  1
  O  O7  1  0.16974088  0.19820584  0.69563817  1
  O  O8  1  0.02876005  0.82948533  0.69570703  1
  O  O9  1  0.79647505  0.82808255  0.19555852  1
  O  O10  1  0.03023354  0.20104556  0.19553928  1
  O  O11  1  0.17079642  0.96905941  0.19560469  1
  O  O12  1  0.87381254  0.36862014  0.64079467  1
  O  O13  1  0.48743509  0.12134168  0.63788468  1
  O  O14  1  0.63190468  0.51212779  0.63797155  1
  O  O15  1  0.87959427  0.51222209  0.13809218  1
  O  O16  1  0.63524149  0.12224777  0.13814255  1
  O  O17  1  0.49424140  0.36844674  0.14097579  1
  O  O18  1  0.46730184  0.30169872  0.02602034  1
  O  O19  1  0.84182274  0.53826332  0.02851674  1
  O  O20  1  0.69856308  0.15841090  0.02847553  1
  O  O21  1  0.46187552  0.15990207  0.52845877  1
  O  O22  1  0.69586519  0.53738238  0.52837016  1
  O  O23  1  0.83277419  0.30244199  0.52608411  1
  O  O24  1  0.53266268  0.70075653  0.97345529  1
  O  O25  1  0.16803885  0.46766807  0.97332555  1
  O  O26  1  0.29961133  0.83264728  0.97381055  1
  O  O27  1  0.52390583  0.83411253  0.47318034  1
  O  O28  1  0.30835038  0.46916622  0.47118986  1
  O  O29  1  0.15997184  0.68921086  0.47113906  1
  O  O30  1  0.13049583  0.63316521  0.36244932  1
  O  O31  1  0.49441703  0.86024880  0.36023237  1
  O  O32  1  0.36353307  0.49722246  0.36259237  1
  O  O33  1  0.13658375  0.50063921  0.85913498  1
  O  O34  1  0.36446055  0.86384026  0.85910442  1
  O  O35  1  0.49918109  0.63510017  0.85903621  1
  O  O36  1  0.02737071  0.82823822  0.41179335  1
  O  O37  1  0.81523222  0.97772237  0.41236228  1
  O  O38  1  0.17403640  0.19845836  0.41172545  1
  O  O39  1  0.02520741  0.18807210  0.90688304  1
  O  O40  1  0.16407278  0.97609443  0.90690612  1
  O  O41  1  0.81224124  0.83692955  0.90706442  1
  O  O42  1  0.97797417  0.16011664  0.59186363  1
  O  O43  1  0.19256562  0.02202476  0.59094086  1
  O  O44  1  0.83071532  0.80644141  0.59119389  1
  O  O45  1  0.97492518  0.80718749  0.09096255  1
  O  O46  1  0.83004313  0.02179811  0.09092898  1
  O  O47  1  0.18099008  0.15943921  0.09162271  1
  O  O48  1  0.69152420  0.16034809  0.74463567  1
  O  O49  1  0.46805544  0.30686893  0.74421418  1
  O  O50  1  0.83789528  0.53228316  0.74519038  1
  O  O51  1  0.68758801  0.52737400  0.24377594  1
  O  O52  1  0.84065954  0.31285859  0.24268301  1
  O  O53  1  0.47293452  0.15720124  0.24321005  1
  O  O54  1  0.64453225  0.49636964  0.92468664  1
  O  O55  1  0.85228831  0.35705095  0.92501112  1
  O  O56  1  0.50611073  0.14664942  0.92419972  1
  O  O57  1  0.63483016  0.14555522  0.42527262  1
  O  O58  1  0.50059598  0.36588970  0.42558417  1
  O  O59  1  0.86306824  0.50215069  0.42539612  1
  O  O60  1  0.35171197  0.50284901  0.07452258  1
  O  O61  1  0.14027054  0.64759998  0.07471989  1
  O  O62  1  0.50510820  0.86081943  0.07470354  1
  O  O63  1  0.35391405  0.85977314  0.57366621  1
  O  O64  1  0.50611299  0.64628253  0.57404194  1
  O  O65  1  0.15105829  0.50246175  0.57293300  1
  O  O66  1  0.30292040  0.83097328  0.25726072  1
  O  O67  1  0.52665607  0.69294436  0.25788211  1
  O  O68  1  0.16735147  0.47227577  0.25774086  1
  O  O69  1  0.30238453  0.46981005  0.75613157  1
  O  O70  1  0.16694373  0.69679854  0.75641667  1
  O  O71  1  0.52999395  0.83228910  0.75607782  1
loop_
_geom_bond_atom_site_label_1
_geom_bond_atom_site_label_2
_geom_bond_distance
_geom_bond_site_symmetry_2
Na0 O37 2.463121 1_555
Na0 O36 2.554292 1_655
Na0 O38 2.563324 1_665
Na0 O42 2.663158 1_565
Na0 O44 2.706586 1_555
Na0 O43 2.712110 1_665
Na1 O47 2.576483 1_565
Na1 O45 2.620715 1_455
Na1 O46 2.621815 1_465
Na1 O41 2.657340 1_454
Na1 O40 2.664658 1_554
Na1 O39 2.665263 1_564
Na2 O50 2.598013 1_555
Na2 O48 2.605362 1_555
Na2 O56 2.616168 1_555
Na2 O49 2.618139 1_555
Na2 O54 2.621056 1_555
Na2 O55 2.623384 1_555
Na3 O51 2.563880 1_555
Na3 O53 2.579269 1_555
Na3 O52 2.588945 1_555
Na3 O57 2.678463 1_555
Na3 O59 2.728684 1_555
Na3 O58 2.734292 1_555
Na4 O60 2.588211 1_555
Na4 O66 2.650340 1_555
Na4 O61 2.651100 1_555
Na4 O62 2.653851 1_555
Na4 O68 2.654058 1_555
Na4 O67 2.654070 1_555
Na5 O69 2.608661 1_555
Na5 O70 2.610414 1_555
Na5 O71 2.613605 1_555
Na5 O65 2.644362 1_555
Na5 O64 2.688970 1_555
Na5 O63 2.693491 1_555
Nb0 O40 1.943619 1_555
Nb0 O39 1.945954 1_565
Nb0 O41 1.947538 1_455
Nb0 O4 2.031369 1_455
Nb0 O3 2.041339 1_565
Nb0 O5 2.042544 1_465
Nb1 O42 1.940834 1_555
Nb1 O7 1.994467 1_655
Nb1 O6 1.998068 1_545
Nb1 O8 2.032508 1_645
Nb1 O44 2.048466 1_545
Nb1 O43 2.054482 1_655
Nb2 O47 1.945099 1_555
Nb2 O10 1.993241 1_555
Nb2 O11 2.007367 1_545
Nb2 O9 2.050197 1_445
Nb2 O46 2.055434 1_455
Nb2 O45 2.059522 1_445
Nb3 O18 1.938292 1_556
Nb3 O56 1.968802 1_555
Nb3 O54 1.974999 1_555
Nb3 O55 2.007757 1_555
Nb3 O20 2.065589 1_556
Nb3 O19 2.067205 1_556
Nb4 O23 1.912547 1_555
Nb4 O57 1.928182 1_555
Nb4 O59 2.031593 1_555
Nb4 O21 2.051121 1_555
Nb4 O58 2.077110 1_555
Nb4 O22 2.079920 1_555
Nb5 O25 1.942515 1_554
Nb5 O24 1.949860 1_554
Nb5 O60 1.958451 1_555
Nb5 O26 1.976055 1_554
Nb5 O62 2.061106 1_555
Nb5 O61 2.061578 1_555
Nb6 O27 1.914323 1_555
Nb6 O65 1.971158 1_555
Nb6 O28 1.981910 1_555
Nb6 O29 1.999677 1_555
Nb6 O64 2.034156 1_555
Nb6 O63 2.046915 1_555
Nb7 O31 1.915239 1_555
Nb7 O67 1.999514 1_555
Nb7 O66 2.006297 1_555
Nb7 O32 2.049859 1_555
Nb7 O68 2.051694 1_555
Nb7 O30 2.062519 1_555
Nb8 O33 1.916286 1_555
Nb8 O34 1.916325 1_555
Nb8 O35 1.924586 1_555
Nb8 O70 2.094038 1_555
Nb8 O69 2.104155 1_555
Nb8 O71 2.107926 1_555
O0 P0 1.500627 1_555
O0 Sc0 2.068750 1_455
O1 P1 1.506342 1_555
O1 Sc0 2.034712 1_565
O2 P2 1.505236 1_555
O2 Sc0 2.032783 1_555
O3 P3 1.546794 1_555
O4 P4 1.551235 1_555
O5 P5 1.546655 1_555
O6 P5 1.579603 1_565
O7 P3 1.581362 1_555
O8 P4 1.567174 1_455
O9 P1 1.570189 1_555
O10 P2 1.593387 1_455
O11 P0 1.585374 1_565
O12 Si0 1.580206 1_555
O12 Sc1 1.964601 1_555
O13 P6 1.504687 1_555
O13 Sc1 2.090827 1_555
O14 P7 1.506699 1_555
O14 Sc1 2.081572 1_555
O15 P8 1.512632 1_555
O15 Sc2 2.071681 1_555
O16 P9 1.511392 1_555
O16 Sc2 2.072446 1_555
O17 Si1 1.581366 1_555
O17 Sc2 1.958795 1_555
O18 Si1 1.653487 1_555
O19 P8 1.554491 1_555
O20 P9 1.556113 1_555
O21 P6 1.561070 1_555
O22 P7 1.550247 1_555
O23 Si0 1.664571 1_555
O24 Si2 1.621261 1_555
O25 Si3 1.624087 1_555
O26 Si4 1.612192 1_555
O27 Si5 1.640508 1_555
O28 P10 1.565534 1_555
O29 P11 1.557496 1_555
O30 P11 1.553147 1_555
O31 Si5 1.658909 1_555
O32 P10 1.555906 1_555
O33 Si3 1.646064 1_555
O34 Si4 1.645734 1_555
O35 Si2 1.641716 1_555
O36 P11 1.508506 1_555
O36 Sc0 2.146625 1_465
O37 Si5 1.581881 1_555
O37 Sc0 2.035667 1_565
O38 P10 1.509958 1_555
O38 Sc0 2.143625 1_455
O39 Si3 1.633873 1_555
O40 Si4 1.633236 1_555
O41 Si2 1.631803 1_555
O42 Si0 1.662883 1_555
O43 P6 1.568279 1_555
O44 P7 1.570142 1_555
O45 P8 1.570328 1_555
O46 P9 1.570774 1_555
O47 Si1 1.665667 1_555
O48 P5 1.513425 1_555
O48 Sc1 2.124107 1_555
O49 P3 1.510791 1_555
O49 Sc1 2.148598 1_555
O50 P4 1.515256 1_555
O50 Sc1 2.114477 1_555
O51 P1 1.520118 1_555
O51 Sc2 2.091669 1_555
O52 P2 1.517807 1_555
O52 Sc2 2.121444 1_555
O53 P0 1.519646 1_555
O53 Sc2 2.106536 1_555
O54 Si2 1.621467 1_555
O55 Si3 1.611340 1_655
O56 Si4 1.623357 1_545
O57 Si5 1.662181 1_545
O58 P10 1.555511 1_555
O59 P11 1.570147 1_655
O60 Si1 1.638273 1_555
O61 P8 1.550821 1_455
O62 P9 1.548823 1_565
O63 P6 1.557386 1_565
O64 P7 1.561526 1_555
O65 Si0 1.634285 1_455
O66 P0 1.592820 1_565
O67 P1 1.596794 1_555
O68 P2 1.576376 1_455
O69 P3 1.554503 1_555
O70 P4 1.557003 1_455
O71 P5 1.553985 1_565
