# generated using pymatgen
data_U6Fe
_symmetry_space_group_name_H-M   'P 1'
_cell_length_a   7.63695450
_cell_length_b   7.63695450
_cell_length_c   7.63695450
_cell_angle_alpha   96.79352425
_cell_angle_beta   96.79352425
_cell_angle_gamma   139.76632370
_symmetry_Int_Tables_number   1
_chemical_formula_structural   U6Fe
_chemical_formula_sum   'U12 Fe2'
_cell_volume   270.14238109
_cell_formula_units_Z   2
loop_
 _symmetry_equiv_pos_site_id
 _symmetry_equiv_pos_as_xyz
  1  'x, y, z'
loop_
 _atom_site_type_symbol
 _atom_site_label
 _atom_site_symmetry_multiplicity
 _atom_site_fract_x
 _atom_site_fract_y
 _atom_site_fract_z
 _atom_site_occupancy
  U  U0  1  0.09390900  0.59390900  0.68781900  1
  U  U1  1  0.59390900  0.90609100  0.50000000  1
  U  U2  1  0.40609100  0.09390900  0.50000000  1
  U  U3  1  0.90609100  0.40609100  0.31218100  1
  U  U4  1  0.89927900  0.78243300  0.68171100  1
  U  U5  1  0.78243300  0.10072100  0.88315400  1
  U  U6  1  0.21756700  0.89927900  0.11684600  1
  U  U7  1  0.10072100  0.21756700  0.31828900  1
  U  U8  1  0.71756700  0.60072100  0.31828900  1
  U  U9  1  0.28243300  0.39927900  0.68171100  1
  U  U10  1  0.39927900  0.71756700  0.11684600  1
  U  U11  1  0.60072100  0.28243300  0.88315400  1
  Fe  Fe0  1  0.75000000  0.75000000  0.00000000  1
  Fe  Fe1  1  0.25000000  0.25000000  0.00000000  1
loop_
_geom_bond_atom_site_label_1
_geom_bond_atom_site_label_2
_geom_bond_distance
_geom_bond_site_symmetry_2
U0 U3 2.693718 1_455
U0 U4 2.747965 1_455
U0 U9 2.747965 1_555
U0 U2 3.244559 1_455
U0 U1 3.244559 1_445
U0 U2 3.244563 1_565
U0 U1 3.244563 1_555
U0 U11 3.249496 1_455
U0 U5 3.249496 1_455
U0 U11 3.249500 1_565
U0 U5 3.249500 1_565
U0 U6 3.341150 1_556
U0 U10 3.341150 1_556
U1 U2 2.693704 1_565
U1 U5 2.747965 1_565
U1 U10 2.747965 1_555
U1 U3 3.244559 1_455
U1 U3 3.244563 1_565
U1 U7 3.249496 1_665
U1 U9 3.249496 1_555
U1 U9 3.249500 1_665
U1 U7 3.249500 1_555
U1 U4 3.341154 1_555
U1 U8 3.341154 1_555
U2 U6 2.747965 1_545
U2 U3 3.244559 1_445
U2 U3 3.244563 1_555
U2 U4 3.249496 1_445
U2 U8 3.249496 1_555
U2 U4 3.249500 1_555
U2 U8 3.249500 1_445
U2 U9 3.341154 1_555
U2 U7 3.341154 1_555
U3 U7 2.747965 1_655
U3 U8 2.747965 1_555
U3 U6 3.249496 1_655
U3 U6 3.249500 1_545
U3 U5 3.341150 1_554
U4 U8 2.606117 1_555
U7 U9 2.606117 1_555
U10 U6 2.606131 1_555
U10 U3 3.249496 1_455
U10 U3 3.249500 1_565
U11 U5 2.606131 1_555
U11 U2 2.747965 1_555
U11 U3 3.341150 1_556
Fe0 Fe1 2.626621 1_555
Fe0 Fe1 2.626621 1_665
Fe0 U6 2.763420 1_655
Fe0 U10 2.763420 1_555
Fe0 U5 2.763420 1_564
Fe0 U11 2.763420 1_554
Fe0 U7 2.763425 1_665
Fe0 U9 2.763425 1_554
Fe0 U4 2.763428 1_554
Fe0 U8 2.763428 1_555
Fe1 U6 2.763420 1_545
Fe1 U10 2.763420 1_555
Fe1 U11 2.763420 1_554
Fe1 U5 2.763420 1_454
Fe1 U8 2.763425 1_555
Fe1 U4 2.763425 1_444
Fe1 U9 2.763428 1_554
Fe1 U7 2.763428 1_555
