# generated using pymatgen
data_Na3MgTi(PO4)3
_symmetry_space_group_name_H-M   'P 1'
_cell_length_a   15.34022489
_cell_length_b   8.88454288
_cell_length_c   8.83239704
_cell_angle_alpha   90.00000000
_cell_angle_beta   124.89440339
_cell_angle_gamma   90.00000000
_symmetry_Int_Tables_number   1
_chemical_formula_structural   Na3MgTi(PO4)3
_chemical_formula_sum   'Na12 Mg4 Ti4 P12 O48'
_cell_volume   987.34577173
_cell_formula_units_Z   4
loop_
 _symmetry_equiv_pos_site_id
 _symmetry_equiv_pos_as_xyz
  1  'x, y, z'
loop_
 _atom_site_type_symbol
 _atom_site_label
 _atom_site_symmetry_multiplicity
 _atom_site_fract_x
 _atom_site_fract_y
 _atom_site_fract_z
 _atom_site_occupancy
  Na  Na0  1  0.25217934  0.72332720  0.98966788  1
  Na  Na1  1  0.75217934  0.77667280  0.48966788  1
  Na  Na2  1  0.75217934  0.22332720  0.98966788  1
  Na  Na3  1  0.25217934  0.27667280  0.48966788  1
  Na  Na4  1  0.50125536  0.11300444  0.74522376  1
  Na  Na5  1  0.50125536  0.88699556  0.24522376  1
  Na  Na6  1  0.00125536  0.61300444  0.74522376  1
  Na  Na7  1  0.00125536  0.38699556  0.24522376  1
  Na  Na8  1  0.18542217  0.94139971  0.28154290  1
  Na  Na9  1  0.18542217  0.05860029  0.78154290  1
  Na  Na10  1  0.68542217  0.44139971  0.28154290  1
  Na  Na11  1  0.68542217  0.55860029  0.78154290  1
  Mg  Mg0  1  0.10289678  0.74894482  0.56071846  1
  Mg  Mg1  1  0.10289678  0.25105518  0.06071846  1
  Mg  Mg2  1  0.60289678  0.24894482  0.56071846  1
  Mg  Mg3  1  0.60289678  0.75105518  0.06071846  1
  Ti  Ti0  1  0.89504632  0.75778391  0.94388532  1
  Ti  Ti1  1  0.89504632  0.24221609  0.44388532  1
  Ti  Ti2  1  0.39504632  0.25778391  0.94388532  1
  Ti  Ti3  1  0.39504632  0.74221609  0.44388532  1
  P  P0  1  0.99918351  0.95670420  0.76193498  1
  P  P1  1  0.99918351  0.04329580  0.26193498  1
  P  P2  1  0.49918351  0.45670420  0.76193498  1
  P  P3  1  0.49918351  0.54329580  0.26193498  1
  P  P4  1  0.35485123  0.89924536  0.76014471  1
  P  P5  1  0.64530530  0.88991060  0.74621692  1
  P  P6  1  0.64530530  0.11008940  0.24621692  1
  P  P7  1  0.35485123  0.10075464  0.26014471  1
  P  P8  1  0.85485123  0.39924536  0.76014471  1
  P  P9  1  0.14530530  0.38991060  0.74621692  1
  P  P10  1  0.14530530  0.61008940  0.24621692  1
  P  P11  1  0.85485123  0.60075464  0.26014471  1
  O  O0  1  0.15228404  0.56016690  0.73778302  1
  O  O1  1  0.84888014  0.57685761  0.75367654  1
  O  O2  1  0.84888014  0.42314239  0.25367654  1
  O  O3  1  0.15228404  0.43983310  0.23778302  1
  O  O4  1  0.65228404  0.06016690  0.73778302  1
  O  O5  1  0.34888014  0.07685761  0.75367654  1
  O  O6  1  0.34888014  0.92314239  0.25367654  1
  O  O7  1  0.65228404  0.93983310  0.23778302  1
  O  O8  1  0.43809274  0.56877742  0.58995227  1
  O  O9  1  0.56577104  0.54775004  0.93693174  1
  O  O10  1  0.56577104  0.45224996  0.43693174  1
  O  O11  1  0.43809274  0.43122258  0.08995227  1
  O  O12  1  0.93809274  0.06877742  0.58995227  1
  O  O13  1  0.06577104  0.04775004  0.93693174  1
  O  O14  1  0.06577104  0.95224996  0.43693174  1
  O  O15  1  0.93809274  0.93122258  0.08995227  1
  O  O16  1  0.25692114  0.83855555  0.74598965  1
  O  O17  1  0.73923659  0.80889691  0.75354036  1
  O  O18  1  0.73923659  0.19110309  0.25354036  1
  O  O19  1  0.25692114  0.16144445  0.24598965  1
  O  O20  1  0.75692114  0.33855555  0.74598965  1
  O  O21  1  0.23923659  0.30889691  0.75354036  1
  O  O22  1  0.23923659  0.69110309  0.25354036  1
  O  O23  1  0.75692114  0.66144445  0.24598965  1
  O  O24  1  0.35521782  0.85679986  0.58446759  1
  O  O25  1  0.64611449  0.84096829  0.91093057  1
  O  O26  1  0.64611449  0.15903171  0.41093057  1
  O  O27  1  0.35521782  0.14320014  0.08446759  1
  O  O28  1  0.85521782  0.35679986  0.58446759  1
  O  O29  1  0.14611449  0.34096829  0.91093057  1
  O  O30  1  0.14611449  0.65903171  0.41093057  1
  O  O31  1  0.85521782  0.64320014  0.08446759  1
  O  O32  1  0.45736177  0.84751220  0.93489133  1
  O  O33  1  0.53948308  0.82686986  0.56424169  1
  O  O34  1  0.53948308  0.17313014  0.06424169  1
  O  O35  1  0.45736177  0.15248780  0.43489133  1
  O  O36  1  0.95736177  0.34751220  0.93489133  1
  O  O37  1  0.03948308  0.32686986  0.56424169  1
  O  O38  1  0.03948308  0.67313014  0.06424169  1
  O  O39  1  0.95736177  0.65248780  0.43489133  1
  O  O40  1  0.07216808  0.85201331  0.74284216  1
  O  O41  1  0.91232907  0.85921323  0.75541817  1
  O  O42  1  0.91232907  0.14078677  0.25541817  1
  O  O43  1  0.07216808  0.14798669  0.24284216  1
  O  O44  1  0.57216808  0.35201331  0.74284216  1
  O  O45  1  0.41232907  0.35921323  0.75541817  1
  O  O46  1  0.41232907  0.64078677  0.25541817  1
  O  O47  1  0.57216808  0.64798669  0.24284216  1
loop_
_geom_bond_atom_site_label_1
_geom_bond_atom_site_label_2
_geom_bond_distance
_geom_bond_site_symmetry_2
Na0 O46 2.342032 1_556
Na0 O0 2.344896 1_555
Na0 O16 2.421717 1_555
Na0 O22 2.466300 1_556
Na0 O40 2.607205 1_555
Na0 O6 2.613788 1_556
Na1 O41 2.342032 1_555
Na1 O7 2.344896 1_555
Na1 O23 2.421717 1_555
Na1 O17 2.466300 1_555
Na1 O47 2.607205 1_555
Na1 O1 2.613788 1_555
Na2 O42 2.342032 1_556
Na2 O4 2.344896 1_555
Na2 O20 2.421717 1_555
Na2 O18 2.466300 1_556
Na2 O44 2.607205 1_555
Na2 O2 2.613788 1_556
Na3 O45 2.342032 1_555
Na3 O3 2.344896 1_555
Na3 O19 2.421717 1_555
Na3 O21 2.466300 1_555
Na3 O43 2.607205 1_555
Na3 O5 2.613788 1_555
Na4 O44 2.391476 1_555
Na4 O4 2.401359 1_555
Na4 O5 2.402528 1_555
Na4 O35 2.444952 1_555
Na4 O34 2.584208 1_556
Na4 O45 2.606625 1_555
Na5 O47 2.391476 1_555
Na5 O7 2.401359 1_555
Na5 O6 2.402528 1_555
Na5 O32 2.444952 1_554
Na5 O33 2.584208 1_555
Na5 O46 2.606625 1_555
Na6 O40 2.391476 1_555
Na6 O0 2.401359 1_555
Na6 O1 2.402528 1_455
Na6 O39 2.444952 1_455
Na6 O38 2.584208 1_556
Na6 O41 2.606625 1_455
Na7 O43 2.391476 1_555
Na7 O3 2.401359 1_555
Na7 O2 2.402528 1_455
Na7 O36 2.444952 1_454
Na7 O37 2.584208 1_555
Na7 O42 2.606625 1_455
Na8 O19 2.348974 1_565
Na8 O43 2.413412 1_565
Na8 O22 2.433398 1_555
Na8 O24 2.556273 1_555
Na8 O6 2.660915 1_555
Na8 O13 2.670990 1_564
Na8 O14 2.853785 1_555
Na9 O16 2.348974 1_545
Na9 O40 2.413412 1_545
Na9 O21 2.433398 1_555
Na9 O27 2.556273 1_556
Na9 O5 2.660915 1_555
Na9 O14 2.670990 1_545
Na9 O13 2.853785 1_555
Na10 O23 2.348974 1_555
Na10 O47 2.413412 1_555
Na10 O18 2.433398 1_555
Na10 O28 2.556273 1_555
Na10 O2 2.660915 1_555
Na10 O9 2.670990 1_554
Na10 O10 2.853785 1_555
Na11 O20 2.348974 1_555
Na11 O44 2.413412 1_555
Na11 O17 2.433398 1_555
Na11 O31 2.556273 1_556
Na11 O1 2.660915 1_555
Na11 O10 2.670990 1_555
Na11 O9 2.853785 1_555
Mg0 O30 1.957416 1_555
Mg0 O14 2.017407 1_555
Mg0 O39 2.028546 1_455
Mg0 O16 2.114384 1_555
Mg0 O0 2.115936 1_555
Mg0 O40 2.125054 1_555
Mg1 O29 1.957416 1_554
Mg1 O13 2.017407 1_554
Mg1 O36 2.028546 1_454
Mg1 O19 2.114384 1_555
Mg1 O3 2.115936 1_555
Mg1 O43 2.125054 1_555
Mg2 O26 1.957416 1_555
Mg2 O10 2.017407 1_555
Mg2 O35 2.028546 1_555
Mg2 O20 2.114384 1_555
Mg2 O4 2.115936 1_555
Mg2 O44 2.125054 1_555
Mg3 O25 1.957416 1_554
Mg3 O9 2.017407 1_554
Mg3 O32 2.028546 1_554
Mg3 O23 2.114384 1_555
Mg3 O7 2.115936 1_555
Mg3 O47 2.125054 1_555
O0 P9 1.521263 1_555
O1 P8 1.579798 1_555
O1 Ti0 2.132270 1_555
O2 P11 1.579798 1_555
O2 Ti1 2.132270 1_555
O3 P10 1.521263 1_555
O4 P5 1.521263 1_545
O5 P4 1.579798 1_545
O5 Ti2 2.132270 1_555
O6 P7 1.579798 1_565
O6 Ti3 2.132270 1_555
O7 P6 1.521263 1_565
O8 P2 1.596371 1_555
O8 Ti3 1.870882 1_555
O9 P2 1.510080 1_555
O10 P3 1.510080 1_555
O11 P3 1.596371 1_555
O11 Ti2 1.870882 1_554
O12 P0 1.596371 1_545
O12 Ti1 1.870882 1_555
O13 P0 1.510080 1_445
O14 P1 1.510080 1_465
O15 P1 1.596371 1_565
O15 Ti0 1.870882 1_554
O16 P4 1.532414 1_555
O17 P5 1.578571 1_555
O17 Ti0 2.036665 1_555
O18 P6 1.578571 1_555
O18 Ti1 2.036665 1_555
O19 P7 1.532414 1_555
O20 P8 1.532414 1_555
O21 P9 1.578571 1_555
O21 Ti2 2.036665 1_555
O22 P10 1.578571 1_555
O22 Ti3 2.036665 1_555
O23 P11 1.532414 1_555
O24 P4 1.599951 1_555
O24 Ti3 1.954332 1_555
O25 P5 1.511642 1_555
O26 P6 1.511642 1_555
O27 P7 1.599951 1_555
O27 Ti2 1.954332 1_554
O28 P8 1.599951 1_555
O28 Ti1 1.954332 1_555
O29 P9 1.511642 1_555
O30 P10 1.511642 1_555
O31 P11 1.599951 1_555
O31 Ti0 1.954332 1_554
O32 P4 1.513070 1_555
O33 P5 1.595947 1_555
O33 Ti3 1.977414 1_555
O34 P6 1.595947 1_555
O34 Ti2 1.977414 1_554
O35 P7 1.513070 1_555
O36 P8 1.513070 1_555
O37 P9 1.595947 1_555
O37 Ti1 1.977414 1_455
O38 P10 1.595947 1_555
O38 Ti0 1.977414 1_454
O39 P11 1.513070 1_555
O40 P0 1.537238 1_455
O41 P0 1.562373 1_555
O41 Ti0 2.039179 1_555
O42 P1 1.562373 1_555
O42 Ti1 2.039179 1_555
O43 P1 1.537238 1_455
O44 P2 1.537238 1_555
O45 P2 1.562373 1_555
O45 Ti2 2.039179 1_555
O46 P3 1.562373 1_555
O46 Ti3 2.039179 1_555
O47 P3 1.537238 1_555
