# generated using pymatgen
data_MgMn12O17F7
_symmetry_space_group_name_H-M   'P 1'
_cell_length_a   4.79004058
_cell_length_b   5.73261842
_cell_length_c   15.04273553
_cell_angle_alpha   88.15661891
_cell_angle_beta   87.76211759
_cell_angle_gamma   90.96609187
_symmetry_Int_Tables_number   1
_chemical_formula_structural   MgMn12O17F7
_chemical_formula_sum   'Mg1 Mn12 O17 F7'
_cell_volume   412.46909830
_cell_formula_units_Z   1
loop_
 _symmetry_equiv_pos_site_id
 _symmetry_equiv_pos_as_xyz
  1  'x, y, z'
loop_
 _atom_site_type_symbol
 _atom_site_label
 _atom_site_symmetry_multiplicity
 _atom_site_fract_x
 _atom_site_fract_y
 _atom_site_fract_z
 _atom_site_occupancy
  Mg  Mg0  1  0.50999300  0.90393300  0.57793400  1
  Mn  Mn0  1  0.01774600  0.15095000  0.41117100  1
  Mn  Mn1  1  0.00803500  0.82318600  0.24417800  1
  Mn  Mn2  1  0.00090400  0.17487700  0.08088000  1
  Mn  Mn3  1  0.06000200  0.18348100  0.74362400  1
  Mn  Mn4  1  0.03161800  0.63035600  0.57507000  1
  Mn  Mn5  1  0.99732300  0.86822000  0.91405000  1
  Mn  Mn6  1  0.50081800  0.36379700  0.92246600  1
  Mn  Mn7  1  0.52706300  0.38117800  0.59050000  1
  Mn  Mn8  1  0.46856400  0.34561000  0.25337900  1
  Mn  Mn9  1  0.48667400  0.63928900  0.09344400  1
  Mn  Mn10  1  0.46467800  0.60916500  0.41281100  1
  Mn  Mn11  1  0.51361900  0.67799500  0.76703600  1
  O  O0  1  0.21938900  0.08672500  0.29763300  1
  O  O1  1  0.31737300  0.14576000  0.64491000  1
  O  O2  1  0.19934700  0.13482600  0.96966100  1
  O  O3  1  0.20859100  0.88228500  0.13403700  1
  O  O4  1  0.22500500  0.84194600  0.48306600  1
  O  O5  1  0.22275000  0.91693100  0.80556100  1
  O  O6  1  0.26258300  0.38562900  0.49040500  1
  O  O7  1  0.26245100  0.39758600  0.14723500  1
  O  O8  1  0.24027400  0.56636100  0.31506900  1
  O  O9  1  0.34331400  0.62573000  0.64877500  1
  O  O10  1  0.30880100  0.41546900  0.81375400  1
  O  O11  1  0.70906700  0.39564500  0.03084000  1
  O  O12  1  0.69509100  0.61227000  0.19635800  1
  O  O13  1  0.67812000  0.36496000  0.35935400  1
  O  O14  1  0.69753800  0.63149100  0.51613700  1
  O  O15  1  0.73458800  0.63861800  0.86714100  1
  O  O16  1  0.83141700  0.41868900  0.66680000  1
  F  F0  1  0.25768300  0.63380400  0.98650700  1
  F  F1  1  0.74569000  0.12962300  0.19227100  1
  F  F2  1  0.74939700  0.14674800  0.52512700  1
  F  F3  1  0.74112300  0.85064700  0.35651200  1
  F  F4  1  0.73732300  0.88490800  0.02607400  1
  F  F5  1  0.77282800  0.14809700  0.84182200  1
  F  F6  1  0.78100300  0.88607300  0.68174400  1
loop_
_geom_bond_atom_site_label_1
_geom_bond_atom_site_label_2
_geom_bond_distance
_geom_bond_site_symmetry_2
Mg0 O1 1.961781 1_565
Mg0 O9 2.024303 1_555
Mg0 O14 2.045951 1_555
Mg0 O4 2.048104 1_555
Mn0 O0 1.977141 1_555
Mn0 O6 2.182899 1_555
Mn0 O13 2.205463 1_455
Mn0 O4 2.304998 1_545
Mn1 O3 1.900352 1_555
Mn1 O0 2.010998 1_565
Mn1 O12 2.074964 1_455
Mn1 O8 2.142238 1_555
Mn2 O2 1.913946 1_554
Mn2 O11 2.050124 1_455
Mn2 O7 2.078839 1_555
Mn2 O3 2.115323 1_545
Mn3 O1 1.912666 1_555
Mn3 O5 1.953451 1_545
Mn3 O16 2.097811 1_455
Mn3 O10 2.106379 1_555
Mn4 O14 1.859447 1_455
Mn4 O9 1.894163 1_555
Mn4 O4 1.999698 1_555
Mn4 O16 2.011398 1_455
Mn4 O6 2.207139 1_555
Mn5 O5 1.931366 1_655
Mn5 O15 1.971665 1_555
Mn5 O2 2.016856 1_665
Mn6 O10 1.924448 1_555
Mn6 O11 1.956036 1_556
Mn6 O2 2.026898 1_555
Mn6 O15 2.052292 1_555
Mn7 O1 1.821842 1_555
Mn7 O9 1.889167 1_555
Mn7 O16 1.903933 1_555
Mn7 O14 1.939867 1_555
Mn7 O6 2.005079 1_555
Mn8 O13 1.921926 1_555
Mn8 O8 1.923889 1_555
Mn8 O7 1.927533 1_555
Mn8 O0 1.971019 1_555
Mn8 O12 2.009215 1_555
Mn9 O12 1.878236 1_555
Mn9 O7 1.880952 1_555
Mn9 O11 2.007222 1_555
Mn9 O3 2.035043 1_555
Mn10 O8 1.874881 1_555
Mn10 O13 1.925677 1_555
Mn10 O6 1.927518 1_555
Mn10 O14 1.954422 1_555
Mn10 O4 2.064768 1_555
Mn11 O15 1.884020 1_555
Mn11 O10 1.884049 1_555
Mn11 O9 2.014786 1_555
Mn11 O5 2.050751 1_555
Mn11 O16 2.615676 1_555
F0 Mn9 1.982849 1_556
F0 Mn5 2.148866 1_455
F0 Mn6 2.179296 1_555
F1 Mn2 2.042267 1_655
F1 Mn8 2.042919 1_555
F1 Mn1 2.310327 1_645
F2 Mg0 1.920292 1_545
F2 Mn7 1.989676 1_555
F2 Mn0 2.101326 1_655
F3 Mn10 2.040151 1_555
F3 Mn1 2.090462 1_655
F3 Mn0 2.344063 1_665
F4 Mn9 2.051162 1_555
F4 Mn5 2.061652 1_554
F4 Mn2 2.266191 1_665
F5 Mn3 1.981918 1_655
F5 Mn6 2.173860 1_555
F5 Mn5 2.224481 1_545
F6 Mg0 2.070444 1_555
F6 Mn11 2.105014 1_555
F6 Mn3 2.383626 1_665
F6 Mn4 2.495043 1_655
