# generated using pymatgen
data_Na6NbIn3Si2(PO6)4
_symmetry_space_group_name_H-M   'P 1'
_cell_length_a   9.16162429
_cell_length_b   9.17428635
_cell_length_c   22.54680504
_cell_angle_alpha   90.00686908
_cell_angle_beta   89.94995487
_cell_angle_gamma   120.20011542
_symmetry_Int_Tables_number   1
_chemical_formula_structural   Na6NbIn3Si2(PO6)4
_chemical_formula_sum   'Na18 Nb3 In9 Si6 P12 O72'
_cell_volume   1637.87564682
_cell_formula_units_Z   3
loop_
 _symmetry_equiv_pos_site_id
 _symmetry_equiv_pos_as_xyz
  1  'x, y, z'
loop_
 _atom_site_type_symbol
 _atom_site_label
 _atom_site_symmetry_multiplicity
 _atom_site_fract_x
 _atom_site_fract_y
 _atom_site_fract_z
 _atom_site_occupancy
  Na  Na0  1  0.99592182  0.98613131  0.50366726  1
  Na  Na1  1  0.97132818  0.98785637  0.99372439  1
  Na  Na2  1  0.66142877  0.33563145  0.82695644  1
  Na  Na3  1  0.65996951  0.33731988  0.32683639  1
  Na  Na4  1  0.33411686  0.65222368  0.16153508  1
  Na  Na5  1  0.33198464  0.66435032  0.66575531  1
  Na  Na6  1  0.64907870  0.01213697  0.24487165  1
  Na  Na7  1  0.99766442  0.35045369  0.74560885  1
  Na  Na8  1  0.36122501  0.00815539  0.75123213  1
  Na  Na9  1  0.30055609  0.33297420  0.58930181  1
  Na  Na10  1  0.66642000  0.96668048  0.58424346  1
  Na  Na11  1  0.29151769  0.95826149  0.08278878  1
  Na  Na12  1  0.03989530  0.33820635  0.08009140  1
  Na  Na13  1  0.98443885  0.68484423  0.91561003  1
  Na  Na14  1  0.31553051  0.28821120  0.91376718  1
  Na  Na15  1  0.95986692  0.28892593  0.41600668  1
  Na  Na16  1  0.33430396  0.03970776  0.41160505  1
  Na  Na17  1  0.70390289  0.67671427  0.41848823  1
  Nb  Nb0  1  0.66659979  0.33202260  0.97701592  1
  Nb  Nb1  1  0.33199292  0.67145978  0.31217551  1
  Nb  Nb2  1  0.33941167  0.66363340  0.81851525  1
  In  In0  1  0.00290232  0.00138464  0.34516815  1
  In  In1  1  0.99621355  0.99931137  0.84962023  1
  In  In2  1  0.99824109  0.99491513  0.65351593  1
  In  In3  1  0.99795723  0.99187070  0.14962299  1
  In  In4  1  0.66946494  0.34348542  0.68231535  1
  In  In5  1  0.66202974  0.33877836  0.18578382  1
  In  In6  1  0.66752092  0.33410820  0.48269115  1
  In  In7  1  0.34281051  0.66982404  0.01537082  1
  In  In8  1  0.33161595  0.66935842  0.51734146  1
  Si  Si0  1  0.30043706  0.00282235  0.24995116  1
  Si  Si1  1  0.30180341  0.30275014  0.74999790  1
  Si  Si2  1  0.63296227  0.66844320  0.91987517  1
  Si  Si3  1  0.03706213  0.37050527  0.91993777  1
  Si  Si4  1  0.33455978  0.95946012  0.91947568  1
  Si  Si5  1  0.63254880  0.96323631  0.41768783  1
  P  P0  1  0.69768630  0.70170694  0.25327701  1
  P  P1  1  0.00321585  0.30231993  0.24930965  1
  P  P2  1  0.00669598  0.69897739  0.75287069  1
  P  P3  1  0.69577436  0.99530127  0.74770439  1
  P  P4  1  0.96684888  0.33089644  0.58321207  1
  P  P5  1  0.36561431  0.03430427  0.58322098  1
  P  P6  1  0.66791404  0.63545818  0.57987755  1
  P  P7  1  0.95714371  0.62490575  0.08242796  1
  P  P8  1  0.66826297  0.04329968  0.08518072  1
  P  P9  1  0.37192946  0.33355390  0.08248525  1
  P  P10  1  0.33190182  0.37557955  0.41762762  1
  P  P11  1  0.04066530  0.66709760  0.41608933  1
  O  O0  1  0.22284973  0.02640404  0.31161746  1
  O  O1  1  0.79189388  0.77552355  0.31212156  1
  O  O2  1  0.96714575  0.19078509  0.30542582  1
  O  O3  1  0.21744667  0.18537703  0.80799389  1
  O  O4  1  0.97910031  0.77141030  0.81000957  1
  O  O5  1  0.81578113  0.02751454  0.79924395  1
  O  O6  1  0.76217765  0.96414587  0.68853933  1
  O  O7  1  0.18040179  0.22922014  0.69093100  1
  O  O8  1  0.03873805  0.81434890  0.69865350  1
  O  O9  1  0.77508659  0.82741180  0.20131701  1
  O  O10  1  0.03292483  0.22421132  0.19322689  1
  O  O11  1  0.19013997  0.96749903  0.18987404  1
  O  O12  1  0.88132935  0.34684679  0.63984784  1
  O  O13  1  0.47731081  0.12089950  0.63807374  1
  O  O14  1  0.64118222  0.51797986  0.63210275  1
  O  O15  1  0.87220876  0.51563110  0.13717540  1
  O  O16  1  0.64957625  0.12049648  0.14341888  1
  O  O17  1  0.47159706  0.35029455  0.13878583  1
  O  O18  1  0.47245861  0.32402688  0.02657633  1
  O  O19  1  0.85093411  0.52784004  0.02547995  1
  O  O20  1  0.68038323  0.16353173  0.03199538  1
  O  O21  1  0.44490605  0.13993436  0.52537265  1
  O  O22  1  0.68876493  0.56190614  0.52001795  1
  O  O23  1  0.86352720  0.31166130  0.52573889  1
  O  O24  1  0.56001179  0.70242529  0.97884107  1
  O  O25  1  0.14437094  0.44627836  0.97996735  1
  O  O26  1  0.29282676  0.84925711  0.97933958  1
  O  O27  1  0.55720341  0.85207031  0.47764048  1
  O  O28  1  0.30189401  0.44362318  0.47621385  1
  O  O29  1  0.14553381  0.69635499  0.47219923  1
  O  O30  1  0.13813414  0.64850735  0.36192613  1
  O  O31  1  0.50263345  0.85249489  0.36122510  1
  O  O32  1  0.34423041  0.49275843  0.36540231  1
  O  O33  1  0.13869470  0.50350244  0.86313279  1
  O  O34  1  0.36196297  0.86227310  0.86179033  1
  O  O35  1  0.50031170  0.63621331  0.86337444  1
  O  O36  1  0.01767154  0.82208751  0.41049362  1
  O  O37  1  0.82183807  0.98815156  0.41054394  1
  O  O38  1  0.17815690  0.19532806  0.41131173  1
  O  O39  1  0.01513595  0.18772543  0.91043764  1
  O  O40  1  0.17863146  0.99241475  0.91092437  1
  O  O41  1  0.82475153  0.81253205  0.90929080  1
  O  O42  1  0.97764655  0.16607809  0.58509202  1
  O  O43  1  0.19068226  0.02162072  0.58809280  1
  O  O44  1  0.82178603  0.81633080  0.58613228  1
  O  O45  1  0.97178994  0.80044877  0.08224987  1
  O  O46  1  0.83688594  0.04167997  0.08358514  1
  O  O47  1  0.19854760  0.16458868  0.08092650  1
  O  O48  1  0.67483674  0.15362354  0.74453245  1
  O  O49  1  0.48625609  0.31714758  0.74485450  1
  O  O50  1  0.86159405  0.51353515  0.74608684  1
  O  O51  1  0.67491035  0.52594645  0.24612874  1
  O  O52  1  0.84897733  0.32659887  0.24497435  1
  O  O53  1  0.49825019  0.15259293  0.24793020  1
  O  O54  1  0.63102251  0.48424258  0.92305261  1
  O  O55  1  0.85474747  0.37007621  0.92320102  1
  O  O56  1  0.50945230  0.14807416  0.92536030  1
  O  O57  1  0.63758700  0.14537913  0.41667936  1
  O  O58  1  0.49977280  0.37098693  0.41691899  1
  O  O59  1  0.86628482  0.50167058  0.41666483  1
  O  O60  1  0.33941182  0.48321064  0.08070678  1
  O  O61  1  0.13602741  0.64423415  0.08045193  1
  O  O62  1  0.50585886  0.86976923  0.08038428  1
  O  O63  1  0.35449155  0.86005847  0.58050966  1
  O  O64  1  0.50387331  0.64840359  0.58040746  1
  O  O65  1  0.14953400  0.48418580  0.58110391  1
  O  O66  1  0.31876480  0.82700887  0.25859596  1
  O  O67  1  0.51562414  0.68161082  0.25944504  1
  O  O68  1  0.16551752  0.47861885  0.25931889  1
  O  O69  1  0.31357810  0.49006722  0.75943835  1
  O  O70  1  0.17420796  0.68979840  0.75732891  1
  O  O71  1  0.51401794  0.84002609  0.75748322  1
loop_
_geom_bond_atom_site_label_1
_geom_bond_atom_site_label_2
_geom_bond_distance
_geom_bond_site_symmetry_2
Na0 O44 2.433977 1_555
Na0 O43 2.516852 1_665
Na0 O42 2.529956 1_565
Na0 O37 2.643497 1_555
Na0 O36 2.649174 1_655
Na0 O38 2.752854 1_665
Na1 O41 2.417708 1_555
Na1 O39 2.511737 1_665
Na1 O46 2.544248 1_566
Na1 O45 2.635935 1_556
Na1 O40 2.647260 1_655
Na1 O47 2.727413 1_666
Na2 O49 2.400496 1_555
Na2 O50 2.516974 1_555
Na2 O48 2.542076 1_555
Na2 O54 2.647871 1_555
Na2 O55 2.718294 1_555
Na2 O56 2.721631 1_555
Na3 O53 2.389604 1_555
Na3 O51 2.467131 1_555
Na3 O52 2.565269 1_555
Na3 O58 2.612546 1_555
Na3 O57 2.623564 1_555
Na3 O59 2.662140 1_555
Na4 O60 2.408877 1_555
Na4 O61 2.552073 1_555
Na4 O62 2.577470 1_555
Na4 O67 2.695639 1_555
Na4 O68 2.702452 1_555
Na4 O66 2.757854 1_555
Na5 O65 2.528667 1_555
Na5 O64 2.535896 1_555
Na5 O63 2.566728 1_555
Na5 O70 2.596361 1_555
Na5 O69 2.602985 1_555
Na5 O71 2.637673 1_555
Na6 O53 2.316430 1_555
Na6 O16 2.493317 1_555
Na6 O52 2.522220 1_555
Na6 O66 2.639316 1_545
Na6 O67 2.658490 1_545
Na6 O9 2.671153 1_545
Na6 O2 2.871116 1_555
Na6 O31 2.974097 1_545
Na7 O50 2.380980 1_555
Na7 O69 2.527174 1_655
Na7 O48 2.576043 1_555
Na7 O12 2.606183 1_555
Na7 O70 2.704231 1_655
Na7 O7 2.725640 1_655
Na7 O5 2.836808 1_555
Na7 O33 2.973596 1_655
Na8 O49 2.470180 1_555
Na8 O48 2.490135 1_555
Na8 O70 2.539729 1_545
Na8 O71 2.555628 1_545
Na8 O13 2.756737 1_555
Na8 O34 2.831064 1_545
Na8 O8 2.831346 1_545
Na8 O3 2.857916 1_555
Na9 O65 2.409263 1_555
Na9 O43 2.506114 1_555
Na9 O7 2.512045 1_555
Na9 O64 2.541799 1_555
Na9 O42 2.559059 1_455
Na9 O28 2.742265 1_555
Na9 O14 2.868259 1_555
Na10 O44 2.430199 1_555
Na10 O42 2.495893 1_565
Na10 O63 2.513736 1_555
Na10 O6 2.514769 1_555
Na10 O64 2.525244 1_555
Na10 O27 2.613237 1_555
Na11 O47 2.435664 1_565
Na11 O62 2.474247 1_555
Na11 O61 2.490651 1_555
Na11 O45 2.531823 1_455
Na11 O26 2.540078 1_554
Na11 O11 2.602791 1_555
Na12 O60 2.372198 1_555
Na12 O46 2.403251 1_455
Na12 O25 2.457117 1_554
Na12 O61 2.484076 1_555
Na12 O47 2.641846 1_555
Na12 O10 2.745504 1_555
Na13 O41 2.292928 1_555
Na13 O40 2.467354 1_655
Na13 O55 2.515576 1_555
Na13 O4 2.518291 1_555
Na13 O54 2.811254 1_555
Na13 O19 2.816116 1_556
Na13 O26 2.835760 1_655
Na13 O33 2.920103 1_655
Na14 O40 2.348912 1_545
Na14 O39 2.424348 1_555
Na14 O54 2.530623 1_555
Na14 O3 2.556437 1_555
Na14 O56 2.678904 1_555
Na14 O18 2.859237 1_556
Na14 O35 2.984957 1_555
Na14 O25 3.012119 1_555
Na15 O37 2.391276 1_545
Na15 O59 2.495638 1_555
Na15 O38 2.544681 1_655
Na15 O57 2.557435 1_555
Na15 O2 2.662886 1_555
Na15 O23 2.669276 1_555
Na16 O57 2.442112 1_555
Na16 O0 2.453251 1_555
Na16 O38 2.477836 1_555
Na16 O36 2.564218 1_545
Na16 O58 2.629550 1_555
Na16 O21 2.742005 1_555
Na17 O58 2.467536 1_555
Na17 O36 2.493358 1_655
Na17 O22 2.494395 1_555
Na17 O37 2.501432 1_555
Na17 O1 2.546580 1_555
Na17 O59 2.682758 1_555
Na17 O27 2.888742 1_555
Nb0 O56 1.958403 1_555
Nb0 O55 1.989073 1_555
Nb0 O54 1.998969 1_555
Nb0 O20 2.034488 1_556
Nb0 O19 2.055221 1_556
Nb0 O18 2.069518 1_556
Nb1 O66 1.919688 1_555
Nb1 O31 1.953445 1_555
Nb1 O30 2.019235 1_555
Nb1 O67 2.022724 1_555
Nb1 O68 2.040706 1_555
Nb1 O32 2.079962 1_555
Nb2 O35 1.906566 1_555
Nb2 O33 1.957307 1_555
Nb2 O34 1.984162 1_555
Nb2 O69 1.996669 1_555
Nb2 O71 2.112747 1_555
Nb2 O70 2.149610 1_555
In0 O0 2.053656 1_555
In0 O2 2.122049 1_455
In0 O1 2.134989 1_445
In0 O37 2.175404 1_445
In0 O38 2.257734 1_555
In0 O36 2.262368 1_545
In1 O3 2.102186 1_665
In1 O41 2.121979 1_555
In1 O5 2.126802 1_565
In1 O39 2.143981 1_665
In1 O40 2.194997 1_655
In1 O4 2.205396 1_555
In2 O7 2.123786 1_665
In2 O8 2.130021 1_655
In2 O6 2.182546 1_555
In2 O43 2.214790 1_665
In2 O44 2.223742 1_555
In2 O42 2.276103 1_565
In3 O11 2.091075 1_655
In3 O9 2.168182 1_555
In3 O10 2.219408 1_665
In3 O45 2.241767 1_555
In3 O46 2.299085 1_565
In3 O47 2.313691 1_665
In4 O14 2.080839 1_555
In4 O49 2.109953 1_555
In4 O12 2.149855 1_555
In4 O13 2.156416 1_555
In4 O50 2.200186 1_555
In4 O48 2.256378 1_555
In5 O17 2.089644 1_555
In5 O15 2.096451 1_555
In5 O53 2.133284 1_555
In5 O51 2.146981 1_555
In5 O16 2.169242 1_555
In5 O52 2.218915 1_555
In6 O23 2.141086 1_555
In6 O21 2.144978 1_555
In6 O22 2.168972 1_555
In6 O57 2.193338 1_555
In6 O59 2.252762 1_555
In6 O58 2.280948 1_555
In7 O24 2.031260 1_554
In7 O26 2.083007 1_554
In7 O25 2.097510 1_554
In7 O62 2.234155 1_555
In7 O60 2.247006 1_555
In7 O61 2.311944 1_555
In8 O27 2.096265 1_555
In8 O29 2.105127 1_555
In8 O28 2.157672 1_555
In8 O63 2.182730 1_555
In8 O64 2.204236 1_555
In8 O65 2.209286 1_555
O0 Si0 1.624237 1_555
O1 P0 1.541943 1_555
O2 P1 1.554502 1_655
O3 Si1 1.621121 1_555
O4 P2 1.527569 1_655
O5 P3 1.523736 1_545
O6 P3 1.550723 1_555
O7 Si1 1.647205 1_555
O8 P2 1.545285 1_555
O9 P0 1.543199 1_555
O10 P1 1.543346 1_555
O11 Si0 1.622888 1_565
O12 P4 1.542547 1_555
O13 P5 1.546604 1_555
O14 P6 1.530481 1_555
O15 P7 1.532332 1_555
O16 P8 1.541574 1_555
O17 P9 1.526314 1_555
O18 P9 1.588667 1_555
O19 P7 1.587023 1_555
O20 P8 1.594954 1_555
O21 P5 1.567939 1_555
O22 P6 1.562811 1_555
O23 P4 1.562181 1_555
O24 Si2 1.587263 1_555
O25 Si3 1.611278 1_555
O26 Si4 1.612669 1_555
O27 Si5 1.623045 1_555
O28 P10 1.543359 1_555
O29 P11 1.529115 1_555
O30 P11 1.571337 1_555
O31 Si5 1.689767 1_555
O32 P10 1.559777 1_555
O33 Si3 1.688624 1_555
O34 Si4 1.665528 1_555
O35 Si2 1.681760 1_555
O36 P11 1.543891 1_555
O37 Si5 1.639011 1_555
O38 P10 1.547862 1_555
O39 Si3 1.599764 1_555
O40 Si4 1.613804 1_555
O41 Si2 1.598243 1_555
O42 P4 1.564772 1_555
O43 P5 1.551196 1_555
O44 P6 1.551652 1_555
O45 P7 1.547342 1_555
O46 P8 1.552774 1_555
O47 P9 1.565323 1_555
O48 P3 1.559488 1_545
O49 Si1 1.631475 1_555
O50 P2 1.552420 1_655
O51 P0 1.526792 1_555
O52 P1 1.540406 1_655
O53 Si0 1.633743 1_555
O54 Si2 1.682574 1_555
O55 Si3 1.669879 1_655
O56 Si4 1.670387 1_545
O57 Si5 1.648454 1_545
O58 P10 1.559658 1_555
O59 P11 1.554517 1_655
O60 P9 1.544996 1_555
O61 P7 1.557824 1_455
O62 P8 1.541818 1_565
O63 P5 1.551027 1_565
O64 P6 1.566024 1_555
O65 P4 1.553431 1_455
O66 Si0 1.714771 1_565
O67 P0 1.589253 1_555
O68 P1 1.568097 1_555
O69 Si1 1.680368 1_555
O70 P2 1.582003 1_555
O71 P3 1.569631 1_555
