# generated using pymatgen
data_K4Mg(MoO4)2
_symmetry_space_group_name_H-M   'P 1'
_cell_length_a   6.03906593
_cell_length_b   6.90935189
_cell_length_c   8.25968540
_cell_angle_alpha   101.28427538
_cell_angle_beta   88.74712713
_cell_angle_gamma   114.34088618
_symmetry_Int_Tables_number   1
_chemical_formula_structural   K4Mg(MoO4)2
_chemical_formula_sum   'K4 Mg1 Mo2 O8'
_cell_volume   307.27078553
_cell_formula_units_Z   1
loop_
 _symmetry_equiv_pos_site_id
 _symmetry_equiv_pos_as_xyz
  1  'x, y, z'
loop_
 _atom_site_type_symbol
 _atom_site_label
 _atom_site_symmetry_multiplicity
 _atom_site_fract_x
 _atom_site_fract_y
 _atom_site_fract_z
 _atom_site_occupancy
  K  K0  1  0.47005623  0.90223018  0.08828063  1
  K  K1  1  0.49659041  0.95909387  0.58725849  1
  K  K2  1  0.14886559  0.29012361  0.72760403  1
  K  K3  1  0.88134478  0.74860678  0.33929907  1
  Mg  Mg0  1  0.63402549  0.39510059  0.00891350  1
  Mo  Mo0  1  0.12836433  0.35275791  0.23630195  1
  Mo  Mo1  1  0.90307431  0.68157597  0.79685414  1
  O  O0  1  0.29189917  0.27271852  0.05162692  1
  O  O1  1  0.21704963  0.71444884  0.79697495  1
  O  O2  1  0.79177037  0.71414070  0.01611816  1
  O  O3  1  0.81397501  0.32125278  0.16347494  1
  O  O4  1  0.82662598  0.83445545  0.66805585  1
  O  O5  1  0.08260674  0.17262069  0.38161134  1
  O  O6  1  0.29923572  0.64972394  0.31087971  1
  O  O7  1  0.70201624  0.37078018  0.76841331  1
loop_
_geom_bond_atom_site_label_1
_geom_bond_atom_site_label_2
_geom_bond_distance
_geom_bond_site_symmetry_2
K0 O1 2.666852 1_554
K0 O6 2.679040 1_555
K0 O3 2.734483 1_565
K0 O2 2.747070 1_555
K0 O0 3.223325 1_565
K1 O4 2.618668 1_555
K1 O6 2.703706 1_555
K1 O1 2.715393 1_555
K1 O7 2.715807 1_565
K2 O1 2.729675 1_555
K2 O5 2.803645 1_555
K2 O0 2.869843 1_556
K2 O4 2.885568 1_445
K2 O7 2.971995 1_455
K2 O7 3.166126 1_555
K3 O5 2.620102 1_665
K3 O2 2.680124 1_555
K3 O4 2.706764 1_555
K3 O6 2.867656 1_655
K3 O3 2.889742 1_555
K3 O6 3.297477 1_555
Mg0 O0 1.937279 1_555
Mg0 O3 1.960556 1_555
Mg0 O2 1.997586 1_555
Mg0 O7 2.008335 1_554
Mo0 O5 1.831001 1_555
Mo0 O6 1.855298 1_555
Mo0 O0 1.913664 1_555
Mo0 O3 1.916241 1_455
Mo1 O1 1.814341 1_655
Mo1 O4 1.823158 1_555
Mo1 O2 1.922060 1_556
Mo1 O7 1.951027 1_555
