# generated using pymatgen
data_NaMg2Ge2PS5O24
_symmetry_space_group_name_H-M   'P 1'
_cell_length_a   8.48592902
_cell_length_b   8.51393347
_cell_length_c   22.09220221
_cell_angle_alpha   89.81253107
_cell_angle_beta   89.78548878
_cell_angle_gamma   120.06674687
_symmetry_Int_Tables_number   1
_chemical_formula_structural   NaMg2Ge2PS5O24
_chemical_formula_sum   'Na3 Mg6 Ge6 P3 S15 O72'
_cell_volume   1381.32562611
_cell_formula_units_Z   3
loop_
 _symmetry_equiv_pos_site_id
 _symmetry_equiv_pos_as_xyz
  1  'x, y, z'
loop_
 _atom_site_type_symbol
 _atom_site_label
 _atom_site_symmetry_multiplicity
 _atom_site_fract_x
 _atom_site_fract_y
 _atom_site_fract_z
 _atom_site_occupancy
  Na  Na0  1  0.67077361  0.33338651  0.82948871  1
  Na  Na1  1  0.65988503  0.33423937  0.33240669  1
  Na  Na2  1  0.33744954  0.67064935  0.16477340  1
  Mg  Mg0  1  0.00006057  0.00357526  0.85607288  1
  Mg  Mg1  1  0.66612660  0.33236112  0.68376299  1
  Mg  Mg2  1  0.66219749  0.33353895  0.19016540  1
  Mg  Mg3  1  0.66753409  0.33503461  0.48661929  1
  Mg  Mg4  1  0.33143786  0.66365954  0.01891125  1
  Mg  Mg5  1  0.33426416  0.66717019  0.52487917  1
  Ge  Ge0  1  0.00184691  0.99442733  0.35316799  1
  Ge  Ge1  1  0.99869383  0.99942330  0.64631800  1
  Ge  Ge2  1  0.99746110  0.98940678  0.14727696  1
  Ge  Ge3  1  0.67304716  0.33363352  0.97862792  1
  Ge  Ge4  1  0.34175934  0.67717866  0.31416869  1
  Ge  Ge5  1  0.32199429  0.65890914  0.81390830  1
  P  P0  1  0.28299703  0.99403485  0.25154278  1
  P  P1  1  0.71244312  0.71692244  0.25189432  1
  P  P2  1  0.04272088  0.37867452  0.91856082  1
  S  S0  1  0.00616609  0.28855777  0.25103474  1
  S  S1  1  0.28924206  0.29463157  0.75121333  1
  S  S2  1  0.00577207  0.71272352  0.75165171  1
  S  S3  1  0.70169317  0.99073502  0.75210390  1
  S  S4  1  0.95898266  0.32569507  0.58544019  1
  S  S5  1  0.36702542  0.04069749  0.58538925  1
  S  S6  1  0.67419575  0.63320440  0.58539446  1
  S  S7  1  0.95395783  0.62631194  0.08504838  1
  S  S8  1  0.67497812  0.04583692  0.08551856  1
  S  S9  1  0.37193500  0.32551523  0.08487449  1
  S  S10  1  0.61988728  0.66049978  0.91752810  1
  S  S11  1  0.33852544  0.95902287  0.91767195  1
  S  S12  1  0.63063100  0.95973007  0.41458008  1
  S  S13  1  0.32671699  0.37325726  0.41328848  1
  S  S14  1  0.04518468  0.66933652  0.41449442  1
  O  O0  1  0.19755365  0.03063654  0.30809612  1
  O  O1  1  0.82941129  0.80655677  0.30859084  1
  O  O2  1  0.97315053  0.17583569  0.30636096  1
  O  O3  1  0.20707909  0.18324606  0.80438976  1
  O  O4  1  0.97834662  0.79486870  0.80492237  1
  O  O5  1  0.81319486  0.01842246  0.80470099  1
  O  O6  1  0.78008114  0.95485107  0.69564255  1
  O  O7  1  0.17391815  0.21633686  0.69538171  1
  O  O8  1  0.04048287  0.82739511  0.69539289  1
  O  O9  1  0.79156647  0.84103412  0.19405371  1
  O  O10  1  0.04413209  0.21070682  0.19583937  1
  O  O11  1  0.16068568  0.95392213  0.19403562  1
  O  O12  1  0.87737291  0.35227476  0.63957614  1
  O  O13  1  0.47552272  0.12155222  0.63922508  1
  O  O14  1  0.64638398  0.52409777  0.63941302  1
  O  O15  1  0.87046611  0.51573018  0.13844329  1
  O  O16  1  0.64686192  0.12883842  0.13858286  1
  O  O17  1  0.48201847  0.35168670  0.13797864  1
  O  O18  1  0.45170604  0.29077987  0.02829486  1
  O  O19  1  0.84038935  0.54739688  0.02882047  1
  O  O20  1  0.70883273  0.15923728  0.02859335  1
  O  O21  1  0.44252732  0.15409340  0.53068501  1
  O  O22  1  0.71326741  0.55916302  0.53082963  1
  O  O23  1  0.84598683  0.28804803  0.53109216  1
  O  O24  1  0.54078550  0.68732692  0.97164233  1
  O  O25  1  0.14967795  0.46605250  0.97394596  1
  O  O26  1  0.32001198  0.85745429  0.97222672  1
  O  O27  1  0.54559078  0.84251467  0.46586008  1
  O  O28  1  0.29656240  0.45616747  0.46525415  1
  O  O29  1  0.15895669  0.69862929  0.46609429  1
  O  O30  1  0.12579617  0.63553341  0.35668690  1
  O  O31  1  0.51606459  0.88265283  0.35666661  1
  O  O32  1  0.36331759  0.48978923  0.35540741  1
  O  O33  1  0.12112946  0.50843033  0.85961863  1
  O  O34  1  0.38684305  0.88598675  0.86206160  1
  O  O35  1  0.50089521  0.61855792  0.86186092  1
  O  O36  1  0.03520878  0.84086536  0.40721904  1
  O  O37  1  0.81231658  0.97121815  0.40583650  1
  O  O38  1  0.15406402  0.19329250  0.40488397  1
  O  O39  1  0.01397044  0.19421321  0.90693494  1
  O  O40  1  0.18189637  0.97839701  0.90801165  1
  O  O41  1  0.80043511  0.81034520  0.90749624  1
  O  O42  1  0.97181017  0.15374603  0.59316749  1
  O  O43  1  0.18186640  0.02806815  0.59320094  1
  O  O44  1  0.84603398  0.81829150  0.59298011  1
  O  O45  1  0.96263356  0.80867501  0.08924501  1
  O  O46  1  0.84824294  0.03688107  0.09057557  1
  O  O47  1  0.18723364  0.15478530  0.09062503  1
  O  O48  1  0.67568529  0.14700039  0.74421380  1
  O  O49  1  0.47236505  0.32159317  0.74339839  1
  O  O50  1  0.85048518  0.52967960  0.74422343  1
  O  O51  1  0.69490062  0.53313252  0.24653168  1
  O  O52  1  0.84676228  0.30828638  0.24508611  1
  O  O53  1  0.47096656  0.15567989  0.24625436  1
  O  O54  1  0.62792984  0.48458816  0.92314861  1
  O  O55  1  0.84692659  0.36709046  0.92307824  1
  O  O56  1  0.50897456  0.14858319  0.92242910  1
  O  O57  1  0.65482885  0.14126582  0.41858504  1
  O  O58  1  0.48406334  0.34746897  0.41682648  1
  O  O59  1  0.86199569  0.51220365  0.41782474  1
  O  O60  1  0.34836477  0.48340101  0.07816649  1
  O  O61  1  0.13832926  0.65638158  0.07851655  1
  O  O62  1  0.51840585  0.86312343  0.07812147  1
  O  O63  1  0.33811480  0.85911751  0.57662440  1
  O  O64  1  0.52063328  0.66131621  0.57654956  1
  O  O65  1  0.14129393  0.47869866  0.57651900  1
  O  O66  1  0.28928494  0.81311127  0.25799468  1
  O  O67  1  0.52065470  0.70291578  0.25765238  1
  O  O68  1  0.17533247  0.46989097  0.25651289  1
  O  O69  1  0.30213143  0.47856761  0.75661621  1
  O  O70  1  0.18066892  0.70509490  0.75591136  1
  O  O71  1  0.51770105  0.81857605  0.75832694  1
loop_
_geom_bond_atom_site_label_1
_geom_bond_atom_site_label_2
_geom_bond_distance
_geom_bond_site_symmetry_2
Na0 O50 2.463959 1_555
Na0 O48 2.480784 1_555
Na0 O55 2.487773 1_555
Na0 O49 2.513566 1_555
Na0 O56 2.523831 1_555
Na0 O54 2.559599 1_555
Na1 O58 2.421985 1_555
Na1 O51 2.454708 1_555
Na1 O53 2.470515 1_555
Na1 O57 2.496833 1_555
Na1 O59 2.497477 1_555
Na1 O52 2.572180 1_555
Na2 O62 2.478722 1_555
Na2 O67 2.510454 1_555
Na2 O61 2.514198 1_555
Na2 O60 2.525386 1_555
Na2 O66 2.527129 1_555
Na2 O68 2.553822 1_555
Mg0 O39 1.931806 1_555
Mg0 O3 2.002666 1_555
Mg0 O5 2.007970 1_455
Mg0 O41 2.011875 1_445
Mg0 O40 2.021548 1_545
Mg0 O4 2.038371 1_445
Mg1 O12 1.968869 1_555
Mg1 O14 1.979317 1_555
Mg1 O13 1.979959 1_555
Mg1 O49 2.068730 1_555
Mg1 O48 2.096654 1_555
Mg1 O50 2.109666 1_555
Mg2 O17 1.984855 1_555
Mg2 O53 1.993050 1_555
Mg2 O51 2.014765 1_555
Mg2 O15 2.015342 1_555
Mg2 O16 2.034645 1_555
Mg2 O52 2.078773 1_555
Mg3 O21 1.998894 1_555
Mg3 O22 2.004702 1_555
Mg3 O23 2.008519 1_555
Mg3 O59 2.186393 1_555
Mg3 O57 2.198079 1_555
Mg3 O58 2.234872 1_555
Mg4 O25 1.902247 1_554
Mg4 O24 1.978165 1_554
Mg4 O26 1.986298 1_554
Mg4 O60 2.073356 1_555
Mg4 O61 2.074790 1_555
Mg4 O62 2.107743 1_555
Mg5 O64 1.974551 1_555
Mg5 O65 1.974579 1_555
Mg5 O63 1.984336 1_555
Mg5 O29 2.093530 1_555
Mg5 O27 2.105193 1_555
Mg5 O28 2.123090 1_555
Ge0 O0 1.821326 1_565
Ge0 O1 1.829022 1_455
Ge0 O36 1.891713 1_555
Ge0 O37 1.909376 1_455
Ge0 O38 1.916456 1_565
Ge0 O2 1.970376 1_465
Ge1 O42 1.857254 1_565
Ge1 O43 1.859371 1_665
Ge1 O44 1.861839 1_555
Ge1 O8 1.989791 1_655
Ge1 O6 2.012383 1_555
Ge1 O7 2.017443 1_665
Ge2 O9 1.866217 1_555
Ge2 O11 1.872132 1_655
Ge2 O45 1.912796 1_555
Ge2 O47 1.960522 1_665
Ge2 O46 1.964010 1_565
Ge2 O10 2.031384 1_665
Ge3 O55 1.824111 1_555
Ge3 O54 1.945988 1_555
Ge3 O56 1.946775 1_555
Ge3 O20 1.989700 1_556
Ge3 O19 1.998436 1_556
Ge3 O18 2.039682 1_556
Ge4 O31 1.886278 1_555
Ge4 O67 1.887391 1_555
Ge4 O66 1.894441 1_555
Ge4 O32 1.921731 1_555
Ge4 O30 1.923660 1_555
Ge4 O68 2.064538 1_555
Ge5 O33 1.832221 1_555
Ge5 O70 1.927514 1_555
Ge5 O69 1.934663 1_555
Ge5 O71 1.955879 1_555
Ge5 O35 2.019239 1_555
Ge5 O34 2.030777 1_555
O0 P0 1.551119 1_545
O1 P1 1.546947 1_555
O2 S0 1.487896 1_655
O3 S1 1.445550 1_555
O4 S2 1.447321 1_655
O5 S3 1.444851 1_545
O6 S3 1.513815 1_555
O7 S1 1.511358 1_555
O8 S2 1.511904 1_555
O9 P1 1.572912 1_555
O10 S0 1.498784 1_555
O11 P0 1.570197 1_555
O12 S4 1.453889 1_555
O13 S5 1.454169 1_555
O14 S6 1.453871 1_555
O15 S7 1.448426 1_555
O16 S8 1.450133 1_555
O17 S9 1.449145 1_555
O18 S9 1.518155 1_555
O19 S7 1.512900 1_555
O20 S8 1.519104 1_555
O21 S5 1.473059 1_555
O22 S6 1.473721 1_555
O23 S4 1.472058 1_555
O24 S10 1.442698 1_555
O25 P2 1.487303 1_555
O26 S11 1.442461 1_555
O27 S12 1.437008 1_555
O28 S13 1.437306 1_555
O29 S14 1.436191 1_555
O30 S14 1.541063 1_555
O31 S12 1.545414 1_555
O32 S13 1.547868 1_555
O33 P2 1.614416 1_555
O34 S11 1.523428 1_555
O35 S10 1.520010 1_555
O36 S14 1.512669 1_555
O37 S12 1.506811 1_555
O38 S13 1.511031 1_555
O39 P2 1.486980 1_555
O40 S11 1.435603 1_555
O41 S10 1.435663 1_555
O42 S4 1.530477 1_555
O43 S5 1.529287 1_555
O44 S6 1.529284 1_555
O45 S7 1.520238 1_555
O46 S8 1.514472 1_555
O47 S9 1.516602 1_555
O48 S3 1.463604 1_545
O49 S1 1.462060 1_555
O50 S2 1.462061 1_655
O51 P1 1.500884 1_555
O52 S0 1.450554 1_655
O53 P0 1.499967 1_545
O54 S10 1.537677 1_555
O55 P2 1.617020 1_655
O56 S11 1.539811 1_545
O57 S12 1.456654 1_545
O58 S13 1.459993 1_555
O59 S14 1.458204 1_655
O60 S9 1.461932 1_555
O61 S7 1.459773 1_455
O62 S8 1.464312 1_565
O63 S5 1.452566 1_565
O64 S6 1.451796 1_555
O65 S4 1.451165 1_455
O66 P0 1.573813 1_555
O67 P1 1.575768 1_555
O68 S0 1.496895 1_555
O69 S1 1.519314 1_555
O70 S2 1.520989 1_555
O71 S3 1.519552 1_555
