# generated using pymatgen
data_Na3La2Ta2SiP5O24
_symmetry_space_group_name_H-M   'P 1'
_cell_length_a   9.28053577
_cell_length_b   9.25159634
_cell_length_c   23.15320252
_cell_angle_alpha   90.00215632
_cell_angle_beta   90.09589410
_cell_angle_gamma   120.06678002
_symmetry_Int_Tables_number   1
_chemical_formula_structural   Na3La2Ta2SiP5O24
_chemical_formula_sum   'Na9 La6 Ta6 Si3 P15 O72'
_cell_volume   1720.43376489
_cell_formula_units_Z   3
loop_
 _symmetry_equiv_pos_site_id
 _symmetry_equiv_pos_as_xyz
  1  'x, y, z'
loop_
 _atom_site_type_symbol
 _atom_site_label
 _atom_site_symmetry_multiplicity
 _atom_site_fract_x
 _atom_site_fract_y
 _atom_site_fract_z
 _atom_site_occupancy
  Na  Na0  1  0.34380673  0.98621621  0.75299007  1
  Na  Na1  1  0.67640172  0.98608705  0.58732619  1
  Na  Na2  1  0.68729865  0.69561122  0.08149102  1
  Na  Na3  1  0.02903404  0.99936114  0.49990119  1
  Na  Na4  1  0.02063693  0.00541538  -0.00106495  1
  Na  Na5  1  0.68073393  0.35464143  0.83291023  1
  Na  Na6  1  0.66248797  0.33099449  0.33138392  1
  Na  Na7  1  0.32384243  0.66685898  0.16653580  1
  Na  Na8  1  0.33083845  0.64284274  0.66707211  1
  La  La0  1  0.00167894  0.99640176  0.64722755  1
  La  La1  1  0.01121372  0.01018806  0.14847147  1
  La  La2  1  0.66683904  0.32844704  0.97796057  1
  La  La3  1  0.66209834  0.33542710  0.47595696  1
  La  La4  1  0.33639814  0.66719380  0.31090715  1
  La  La5  1  0.34010934  0.66196089  0.81469659  1
  Ta  Ta0  1  0.00033214  0.00039420  0.35200747  1
  Ta  Ta1  1  0.99177942  0.99824661  0.85200712  1
  Ta  Ta2  1  0.66923356  0.33251692  0.68447505  1
  Ta  Ta3  1  0.67107318  0.33411805  0.18620251  1
  Ta  Ta4  1  0.32564369  0.66785467  0.01809193  1
  Ta  Ta5  1  0.33039620  0.66586580  0.51825933  1
  Si  Si0  1  0.71129224  0.01972947  0.74649737  1
  Si  Si1  1  0.37498911  0.02587843  0.58211230  1
  Si  Si2  1  0.96671817  0.61834365  0.08335430  1
  P  P0  1  0.30913198  0.02729519  0.25183773  1
  P  P1  1  0.72050184  0.69374497  0.24831462  1
  P  P2  1  0.97175280  0.28191893  0.25155642  1
  P  P3  1  0.30768261  0.28352031  0.75109131  1
  P  P4  1  0.97816962  0.69527430  0.75316167  1
  P  P5  1  0.96828252  0.35659535  0.58309219  1
  P  P6  1  0.64082861  0.61481487  0.58360840  1
  P  P7  1  0.64140770  0.02551057  0.08524067  1
  P  P8  1  0.38592643  0.35855137  0.08366625  1
  P  P9  1  0.64438551  0.69149432  0.91919395  1
  P  P10  1  0.05253288  0.35750262  0.91675854  1
  P  P11  1  0.30471983  0.94722866  0.91426341  1
  P  P12  1  0.64202800  0.94653981  0.41761712  1
  P  P13  1  0.30457424  0.35983711  0.41602836  1
  P  P14  1  0.05584587  0.69466213  0.41599027  1
  O  O0  1  0.19812289  0.03812073  0.30385751  1
  O  O1  1  0.84194225  0.80356755  0.30039700  1
  O  O2  1  0.96075925  0.16114571  0.30363867  1
  O  O3  1  0.20388383  0.16270075  0.80367936  1
  O  O4  1  0.96365551  0.80207019  0.80564046  1
  O  O5  1  0.84319201  0.03051541  0.80255075  1
  O  O6  1  0.77291193  0.98927207  0.68644394  1
  O  O7  1  0.21485553  0.20974075  0.69571103  1
  O  O8  1  0.02131620  0.80111050  0.69950621  1
  O  O9  1  0.78569842  0.78118291  0.19119857  1
  O  O10  1  -0.00350134  0.21553684  0.19558121  1
  O  O11  1  0.21326453  0.99677015  0.19639469  1
  O  O12  1  0.86855229  0.37726158  0.63697538  1
  O  O13  1  0.50523716  0.13824204  0.64080834  1
  O  O14  1  0.63099118  0.50225402  0.63757170  1
  O  O15  1  0.85793901  0.48732039  0.14042963  1
  O  O16  1  0.62633299  0.12869241  0.13845900  1
  O  O17  1  0.50491828  0.37289647  0.13694121  1
  O  O18  1  0.45676131  0.33198683  0.02905713  1
  O  O19  1  0.85030990  0.54096276  0.02910668  1
  O  O20  1  0.67619163  0.12510662  0.03094230  1
  O  O21  1  0.47097900  0.13140618  0.52760963  1
  O  O22  1  0.67605741  0.54882571  0.52961712  1
  O  O23  1  0.86479947  0.32577130  0.52992017  1
  O  O24  1  0.54670007  0.70588061  0.97350392  1
  O  O25  1  0.17405017  0.46643190  0.96959973  1
  O  O26  1  0.29891743  0.82422261  0.96643622  1
  O  O27  1  0.53981219  0.83037682  0.47233962  1
  O  O28  1  0.29207366  0.46326061  0.46953957  1
  O  O29  1  0.17404799  0.70615587  0.46996379  1
  O  O30  1  0.12917063  0.66980832  0.36206521  1
  O  O31  1  0.53979055  0.87318756  0.36416705  1
  O  O32  1  0.32760910  0.45549344  0.36139276  1
  O  O33  1  0.12009205  0.45428877  0.86192594  1
  O  O34  1  0.32714851  0.88079405  0.85750711  1
  O  O35  1  0.54973422  0.67170016  0.86421567  1
  O  O36  1  0.05288902  0.86492732  0.41008111  1
  O  O37  1  0.81304322  0.94641016  0.40921371  1
  O  O38  1  0.13471476  0.18589184  0.40971458  1
  O  O39  1  0.05406163  0.18724474  0.91067442  1
  O  O40  1  0.13612522  0.94766250  0.91297014  1
  O  O41  1  0.81758948  0.86276490  0.91180704  1
  O  O42  1  0.99326678  0.20808531  0.59235678  1
  O  O43  1  0.18651344  0.98303102  0.58410015  1
  O  O44  1  0.77261754  0.79891618  0.59043487  1
  O  O45  1  0.99545065  0.80354375  0.08948305  1
  O  O46  1  0.77375039  0.97600629  0.09445845  1
  O  O47  1  0.20533893  0.22382481  0.08998340  1
  O  O48  1  0.71449530  0.20425502  0.74089849  1
  O  O49  1  0.47869341  0.28311267  0.74746946  1
  O  O50  1  0.80942839  0.52843474  0.74582594  1
  O  O51  1  0.71569902  0.51958001  0.24458382  1
  O  O52  1  0.79928651  0.27978218  0.24613358  1
  O  O53  1  0.47798988  0.19780809  0.24640791  1
  O  O54  1  0.68281857  0.55076988  0.92294020  1
  O  O55  1  0.87445907  0.31623179  0.92504330  1
  O  O56  1  0.44776157  0.12259488  0.92330141  1
  O  O57  1  0.68516990  0.12625722  0.42507236  1
  O  O58  1  0.44326309  0.31988220  0.42214411  1
  O  O59  1  0.87826448  0.55600387  0.42387075  1
  O  O60  1  0.39232913  0.53438659  0.07856104  1
  O  O61  1  0.15043298  0.62503811  0.07213946  1
  O  O62  1  0.47054769  0.85311468  0.07708940  1
  O  O63  1  0.37998006  0.84400569  0.57525733  1
  O  O64  1  0.46863967  0.61305426  0.57653677  1
  O  O65  1  0.14266409  0.52105756  0.57644152  1
  O  O66  1  0.34730329  0.88745864  0.25972303  1
  O  O67  1  0.54325761  0.65684901  0.25647445  1
  O  O68  1  0.10913452  0.46122742  0.25910616  1
  O  O69  1  0.34511177  0.46241881  0.75585444  1
  O  O70  1  0.12213611  0.66357339  0.76282303  1
  O  O71  1  0.51744308  0.88231430  0.75480188  1
loop_
_geom_bond_atom_site_label_1
_geom_bond_atom_site_label_2
_geom_bond_distance
_geom_bond_site_symmetry_2
Na0 O71 2.252648 1_555
Na0 O49 2.383963 1_565
Na0 O34 2.584847 1_555
Na0 O70 2.653768 1_555
Na0 O3 2.803397 1_565
Na0 O8 2.876673 1_555
Na0 O13 2.978406 1_565
Na1 O44 2.313050 1_555
Na1 O63 2.397438 1_555
Na1 O6 2.456887 1_555
Na1 O42 2.612733 1_565
Na2 O46 2.318806 1_555
Na2 O60 2.373005 1_555
Na2 O45 2.519260 1_555
Na2 O9 2.679620 1_555
Na2 O19 2.825171 1_555
Na2 O24 2.841859 1_554
Na2 O17 2.893271 1_555
Na3 O43 2.484145 1_555
Na3 O36 2.489568 1_555
Na3 O38 2.571257 1_565
Na3 O37 2.769240 1_455
Na3 O42 3.010941 1_465
Na3 O44 3.015089 1_455
Na4 O40 2.444719 1_544
Na4 O39 2.565448 1_554
Na4 O41 2.618637 1_444
Na4 O45 2.739054 1_445
Na4 O47 2.825261 1_555
Na5 O50 2.482170 1_555
Na5 O49 2.571236 1_555
Na5 O48 2.647869 1_555
Na5 O54 2.757220 1_555
Na5 O55 2.921719 1_555
Na5 O56 3.004658 1_555
Na6 O53 2.489068 1_555
Na6 O52 2.518587 1_555
Na6 O51 2.543041 1_555
Na6 O58 2.893171 1_555
Na6 O57 2.955635 1_555
Na6 O59 2.955885 1_555
Na7 O62 2.602072 1_555
Na7 O60 2.615276 1_555
Na7 O61 2.623097 1_555
Na7 O68 2.898205 1_555
Na7 O66 2.901840 1_555
Na7 O67 2.943822 1_555
Na8 O64 2.543133 1_555
Na8 O65 2.595847 1_555
Na8 O69 2.692616 1_555
Na8 O63 2.709930 1_555
Na8 O71 2.859504 1_555
Na8 O70 3.014903 1_555
La0 O8 2.256558 1_555
La0 O7 2.269242 1_565
La0 O6 2.280875 1_455
La0 O43 2.305439 1_555
La0 O42 2.368233 1_465
La0 O44 2.384304 1_455
La1 O11 2.233609 1_545
La1 O10 2.253427 1_555
La1 O45 2.293592 1_445
La1 O9 2.326287 1_445
La1 O47 2.329461 1_555
La1 O46 2.411025 1_445
La2 O19 2.192198 1_556
La2 O20 2.283583 1_556
La2 O18 2.296398 1_556
La2 O55 2.335088 1_555
La2 O56 2.339572 1_555
La2 O54 2.360210 1_555
La3 O21 2.188968 1_555
La3 O22 2.280597 1_555
La3 O23 2.295295 1_555
La3 O58 2.323034 1_555
La3 O59 2.355729 1_555
La3 O57 2.365279 1_555
La4 O32 2.247084 1_555
La4 O31 2.258992 1_555
La4 O30 2.270777 1_555
La4 O66 2.315429 1_555
La4 O67 2.339913 1_555
La4 O68 2.341399 1_555
La5 O35 2.219059 1_555
La5 O33 2.265630 1_555
La5 O34 2.310851 1_555
La5 O69 2.313475 1_555
La5 O71 2.331004 1_555
La5 O70 2.357325 1_555
O0 P0 1.621593 1_555
O0 Ta0 2.024600 1_555
O1 P1 1.613878 1_555
O1 Ta0 2.053382 1_665
O2 P2 1.612228 1_555
O2 Ta0 2.036385 1_655
O3 P3 1.607788 1_555
O3 Ta1 2.109074 1_445
O4 P4 1.613851 1_555
O4 Ta1 2.009696 1_555
O5 Si0 1.750709 1_555
O5 Ta1 1.925909 1_545
O6 Si0 1.582346 1_565
O7 P3 1.503065 1_555
O8 P4 1.507073 1_455
O9 P1 1.510493 1_555
O10 P2 1.500600 1_455
O11 P0 1.504511 1_565
O12 P5 1.621971 1_555
O12 Ta2 2.010503 1_555
O13 Si1 1.767470 1_555
O13 Ta2 1.955178 1_555
O14 P6 1.599704 1_555
O14 Ta2 2.080513 1_555
O15 Si2 1.735859 1_555
O15 Ta3 1.919080 1_555
O16 P7 1.607293 1_555
O16 Ta3 2.052778 1_555
O17 P8 1.614674 1_555
O17 Ta3 2.087065 1_555
O18 P8 1.501949 1_555
O19 Si2 1.574039 1_555
O20 P7 1.495704 1_555
O21 Si1 1.572116 1_555
O22 P6 1.497865 1_555
O23 P5 1.496948 1_555
O24 P9 1.595455 1_555
O24 Ta4 2.163838 1_556
O25 P10 1.625026 1_555
O25 Ta4 2.019902 1_556
O26 P11 1.641966 1_555
O26 Ta4 1.985802 1_556
O27 P12 1.625647 1_555
O27 Ta5 2.065691 1_555
O28 P13 1.604873 1_555
O28 Ta5 2.059825 1_555
O29 P14 1.629367 1_555
O29 Ta5 2.007794 1_555
O30 P14 1.494790 1_555
O31 P12 1.497701 1_555
O32 P13 1.496829 1_555
O33 P10 1.498951 1_555
O34 P11 1.508964 1_555
O35 P9 1.503507 1_555
O36 P14 1.595030 1_555
O36 Ta0 2.055971 1_565
O37 P12 1.599914 1_555
O37 Ta0 2.040295 1_665
O38 P13 1.597929 1_555
O38 Ta0 2.033557 1_555
O39 P10 1.588568 1_555
O39 Ta1 2.054514 1_445
O40 P11 1.566899 1_555
O40 Ta1 2.151222 1_455
O41 P9 1.603928 1_555
O41 Ta1 2.019572 1_555
O42 P5 1.518750 1_555
O43 Si1 1.588803 1_565
O44 P6 1.527690 1_555
O45 Si2 1.602816 1_555
O46 P7 1.525315 1_565
O47 P8 1.513755 1_555
O48 Si0 1.697424 1_555
O48 Ta2 1.946509 1_555
O49 P3 1.591316 1_555
O49 Ta2 2.159154 1_555
O50 P4 1.562290 1_555
O50 Ta2 2.150925 1_555
O51 P1 1.591779 1_555
O51 Ta3 2.056355 1_555
O52 P2 1.595504 1_555
O52 Ta3 2.046421 1_555
O53 P0 1.575980 1_555
O53 Ta3 2.118623 1_555
O54 P9 1.514915 1_555
O55 P10 1.510802 1_655
O56 P11 1.509711 1_545
O57 P12 1.512377 1_545
O58 P13 1.513097 1_555
O59 P14 1.509167 1_655
O60 P8 1.602192 1_555
O60 Ta4 2.151936 1_555
O61 Si2 1.695247 1_455
O61 Ta4 1.930886 1_555
O62 P7 1.599570 1_565
O62 Ta4 2.072705 1_555
O63 Si1 1.713657 1_565
O63 Ta5 1.976707 1_555
O64 P6 1.598042 1_555
O64 Ta5 2.080324 1_555
O65 P5 1.578403 1_455
O65 Ta5 2.077048 1_555
O66 P0 1.513783 1_565
O67 P1 1.515388 1_555
O68 P2 1.512598 1_455
O69 P3 1.515238 1_555
O70 P4 1.520798 1_455
O71 Si0 1.612182 1_565
