# generated using pymatgen
data_Sr4MgV2Fe2(AsO3)2
_symmetry_space_group_name_H-M   'P 1'
_cell_length_a   4.12946600
_cell_length_b   4.12711300
_cell_length_c   16.20195100
_cell_angle_alpha   90.00000000
_cell_angle_beta   90.00000000
_cell_angle_gamma   90.00000000
_symmetry_Int_Tables_number   1
_chemical_formula_structural   Sr4MgV2Fe2(AsO3)2
_chemical_formula_sum   'Sr4 Mg1 V2 Fe2 As2 O6'
_cell_volume   276.12617000
_cell_formula_units_Z   1
loop_
 _symmetry_equiv_pos_site_id
 _symmetry_equiv_pos_as_xyz
  1  'x, y, z'
loop_
 _atom_site_type_symbol
 _atom_site_label
 _atom_site_symmetry_multiplicity
 _atom_site_fract_x
 _atom_site_fract_y
 _atom_site_fract_z
 _atom_site_occupancy
  Sr  Sr0  1  0.25000000  0.25000000  0.81510600  1
  Sr  Sr1  1  0.75000000  0.75000000  0.18490800  1
  Sr  Sr2  1  0.25000000  0.25000000  0.61729900  1
  Sr  Sr3  1  0.75000000  0.75000000  0.38264200  1
  Mg  Mg0  1  0.25000000  0.75000000  0.50005500  1
  V  V0  1  0.75000000  0.75000000  0.69698800  1
  V  V1  1  0.25000000  0.25000000  0.30299500  1
  Fe  Fe0  1  0.25000000  0.75000000  0.99996700  1
  Fe  Fe1  1  0.75000000  0.25000000  0.99996700  1
  As  As0  1  0.75000000  0.75000000  0.89815100  1
  As  As1  1  0.25000000  0.25000000  0.10181600  1
  O  O0  1  0.25000000  0.75000000  0.69653500  1
  O  O1  1  0.75000000  0.25000000  0.70766100  1
  O  O2  1  0.75000000  0.25000000  0.29235400  1
  O  O3  1  0.25000000  0.75000000  0.30346200  1
  O  O4  1  0.75000000  0.75000000  0.54862700  1
  O  O5  1  0.25000000  0.25000000  0.45146500  1
loop_
_geom_bond_atom_site_label_1
_geom_bond_atom_site_label_2
_geom_bond_distance
_geom_bond_site_symmetry_2
Mg0 O5 2.208627 1_555
Mg0 O5 2.208627 1_565
Mg0 O4 2.209622 1_455
Mg0 O4 2.209622 1_555
As0 Fe1 2.641875 1_565
As0 Fe1 2.641875 1_555
As0 Fe0 2.642794 1_555
As0 Fe0 2.642794 1_655
As0 Sr0 3.214301 1_565
As0 Sr0 3.214301 1_665
As0 Sr0 3.214301 1_655
As0 Sr0 3.214301 1_555
As0 V0 3.259233 1_555
As1 Fe0 2.642209 1_544
As1 Fe0 2.642209 1_554
As1 Fe1 2.643128 1_454
As1 Fe1 2.643128 1_554
As1 Sr1 3.214620 1_545
As1 Sr1 3.214620 1_455
As1 Sr1 3.214620 1_555
As1 Sr1 3.214620 1_445
As1 V1 3.259492 1_555
O0 V0 2.064746 1_555
O0 V0 2.064746 1_455
O0 Sr2 2.430299 1_555
O0 Sr2 2.430299 1_565
O0 Sr0 2.819365 1_555
O0 Sr0 2.819365 1_565
O1 V0 2.070789 1_555
O1 V0 2.070789 1_545
O1 Sr2 2.531114 1_555
O1 Sr2 2.531114 1_655
O1 Sr0 2.700661 1_655
O1 Sr0 2.700661 1_555
O2 V1 2.071918 1_655
O2 V1 2.071918 1_555
O2 Sr3 2.529461 1_545
O2 Sr3 2.529461 1_555
O2 Sr1 2.699772 1_545
O2 Sr1 2.699772 1_555
O3 V1 2.063570 1_565
O3 V1 2.063570 1_555
O3 Sr3 2.430819 1_455
O3 Sr3 2.430819 1_555
O3 Sr1 2.820039 1_455
O3 Sr1 2.820039 1_555
O4 V0 2.403738 1_555
O4 Sr3 2.689281 1_555
O5 V1 2.405504 1_555
O5 Sr2 2.686834 1_555
