# generated using pymatgen
data_CoH9(CN2)3
_symmetry_space_group_name_H-M   'P 1'
_cell_length_a   7.31426469
_cell_length_b   7.31426469
_cell_length_c   7.31426492
_cell_angle_alpha   97.40594456
_cell_angle_beta   97.40594456
_cell_angle_gamma   97.40594109
_symmetry_Int_Tables_number   1
_chemical_formula_structural   CoH9(CN2)3
_chemical_formula_sum   'Co2 H18 C6 N12'
_cell_volume   380.56451204
_cell_formula_units_Z   2
loop_
 _symmetry_equiv_pos_site_id
 _symmetry_equiv_pos_as_xyz
  1  'x, y, z'
loop_
 _atom_site_type_symbol
 _atom_site_label
 _atom_site_symmetry_multiplicity
 _atom_site_fract_x
 _atom_site_fract_y
 _atom_site_fract_z
 _atom_site_occupancy
  Co  Co0  1  0.50000000  0.50000000  0.50000000  1
  Co  Co1  1  0.00000000  0.00000000  0.00000000  1
  H  H0  1  0.64939900  0.45237200  0.20103400  1
  H  H1  1  0.20103400  0.64939900  0.45237200  1
  H  H2  1  0.79896600  0.35060100  0.54762800  1
  H  H3  1  0.54762800  0.79896600  0.35060100  1
  H  H4  1  0.43493400  0.33992300  0.16070400  1
  H  H5  1  0.16070400  0.43493400  0.33992300  1
  H  H6  1  0.33992300  0.16070400  0.43493400  1
  H  H7  1  0.56506600  0.66007700  0.83929600  1
  H  H8  1  0.83929600  0.56506600  0.66007700  1
  H  H9  1  0.66007700  0.83929600  0.56506600  1
  H  H10  1  0.60197900  0.24930600  0.27399000  1
  H  H11  1  0.35060100  0.54762800  0.79896600  1
  H  H12  1  0.24930600  0.27399000  0.60197900  1
  H  H13  1  0.39802100  0.75069400  0.72601000  1
  H  H14  1  0.72601000  0.39802100  0.75069400  1
  H  H15  1  0.75069400  0.72601000  0.39802100  1
  H  H16  1  0.45237200  0.20103400  0.64939900  1
  H  H17  1  0.27399000  0.60197900  0.24930600  1
  C  C0  1  0.22573200  0.95031800  0.12244200  1
  C  C1  1  0.77426800  0.04968200  0.87755800  1
  C  C2  1  0.95031800  0.12244200  0.22573200  1
  C  C3  1  0.87755800  0.77426800  0.04968200  1
  C  C4  1  0.04968200  0.87755800  0.77426800  1
  C  C5  1  0.12244200  0.22573200  0.95031800  1
  N  N0  1  0.25993200  0.55185100  0.37223100  1
  N  N1  1  0.74006800  0.44814900  0.62776900  1
  N  N2  1  0.62776900  0.74006800  0.44814900  1
  N  N3  1  0.44814900  0.62776900  0.74006800  1
  N  N4  1  0.07716500  0.79608400  0.63342000  1
  N  N5  1  0.63342000  0.07716500  0.79608400  1
  N  N6  1  0.79608400  0.63342000  0.07716500  1
  N  N7  1  0.55185100  0.37223100  0.25993200  1
  N  N8  1  0.36658000  0.92283500  0.20391600  1
  N  N9  1  0.20391600  0.36658000  0.92283500  1
  N  N10  1  0.37223100  0.25993200  0.55185100  1
  N  N11  1  0.92283500  0.20391600  0.36658000  1
loop_
_geom_bond_atom_site_label_1
_geom_bond_atom_site_label_2
_geom_bond_distance
_geom_bond_site_symmetry_2
Co0 N0 1.985058 1_555
Co0 N1 1.985058 1_555
Co0 N7 1.985058 1_555
Co0 N3 1.985058 1_555
Co0 N10 1.985058 1_555
Co0 N2 1.985058 1_555
H0 N7 1.036713 1_555
H1 N0 1.036713 1_555
H2 N1 1.036713 1_555
H3 N2 1.036713 1_555
H4 N7 1.028390 1_555
H5 N0 1.028390 1_555
H6 N10 1.028390 1_555
H7 N3 1.028390 1_555
H8 N1 1.028390 1_555
H9 N2 1.028390 1_555
H10 N7 1.025912 1_555
H11 N3 1.036713 1_555
H12 N10 1.025912 1_555
H13 N3 1.025912 1_555
H14 N1 1.025912 1_555
H15 N2 1.025912 1_555
H16 N10 1.036713 1_555
H17 N0 1.025912 1_555
C0 N8 1.175944 1_555
C0 Co1 1.875498 1_565
C1 N5 1.175944 1_555
C1 Co1 1.875498 1_656
C2 N11 1.175944 1_555
C2 Co1 1.875498 1_655
C3 N6 1.175944 1_555
C3 Co1 1.875498 1_665
C4 N4 1.175944 1_555
C4 Co1 1.875498 1_566
C5 N9 1.175944 1_555
C5 Co1 1.875498 1_556
