# generated using pymatgen
data_LiBe
_symmetry_space_group_name_H-M   'P 1'
_cell_length_a   7.22554596
_cell_length_b   4.59197231
_cell_length_c   11.65969602
_cell_angle_alpha   71.03917386
_cell_angle_beta   90.00000000
_cell_angle_gamma   90.00000000
_symmetry_Int_Tables_number   1
_chemical_formula_structural   LiBe
_chemical_formula_sum   'Li16 Be16'
_cell_volume   365.87214807
_cell_formula_units_Z   16
loop_
 _symmetry_equiv_pos_site_id
 _symmetry_equiv_pos_as_xyz
  1  'x, y, z'
loop_
 _atom_site_type_symbol
 _atom_site_label
 _atom_site_symmetry_multiplicity
 _atom_site_fract_x
 _atom_site_fract_y
 _atom_site_fract_z
 _atom_site_occupancy
  Li  Li0_0  1  0.37500000  0.29099491  0.07742887  1
  Li  Li0_1  1  0.37500000  0.29099491  0.57742887  1
  Li  Li0_2  1  0.37500000  0.79099491  0.07742887  1
  Li  Li0_3  1  0.37500000  0.79099491  0.57742887  1
  Li  Li0_4  1  0.87500000  0.29099491  0.07742887  1
  Li  Li0_5  1  0.87500000  0.29099491  0.57742887  1
  Li  Li0_6  1  0.87500000  0.79099491  0.07742887  1
  Li  Li0_7  1  0.87500000  0.79099491  0.57742887  1
  Li  Li1_0  1  0.12500000  0.20900509  0.42257113  1
  Li  Li1_1  1  0.12500000  0.20900509  0.92257113  1
  Li  Li1_2  1  0.12500000  0.70900509  0.42257113  1
  Li  Li1_3  1  0.12500000  0.70900509  0.92257113  1
  Li  Li1_4  1  0.62500000  0.20900509  0.42257113  1
  Li  Li1_5  1  0.62500000  0.20900509  0.92257113  1
  Li  Li1_6  1  0.62500000  0.70900509  0.42257113  1
  Li  Li1_7  1  0.62500000  0.70900509  0.92257113  1
  Be  Be0_0  1  0.37500000  0.09012322  0.28808582  1
  Be  Be0_1  1  0.37500000  0.09012322  0.78808582  1
  Be  Be0_2  1  0.37500000  0.59012322  0.28808582  1
  Be  Be0_3  1  0.37500000  0.59012322  0.78808582  1
  Be  Be0_4  1  0.87500000  0.09012322  0.28808582  1
  Be  Be0_5  1  0.87500000  0.09012322  0.78808582  1
  Be  Be0_6  1  0.87500000  0.59012322  0.28808582  1
  Be  Be0_7  1  0.87500000  0.59012322  0.78808582  1
  Be  Be1_0  1  0.12500000  0.40987678  0.21191418  1
  Be  Be1_1  1  0.12500000  0.40987678  0.71191418  1
  Be  Be1_2  1  0.12500000  0.90987678  0.21191418  1
  Be  Be1_3  1  0.12500000  0.90987678  0.71191418  1
  Be  Be1_4  1  0.62500000  0.40987678  0.21191418  1
  Be  Be1_5  1  0.62500000  0.40987678  0.71191418  1
  Be  Be1_6  1  0.62500000  0.90987678  0.21191418  1
  Be  Be1_7  1  0.62500000  0.90987678  0.71191418  1
loop_
_geom_bond_atom_site_label_1
_geom_bond_atom_site_label_2
_geom_bond_distance
_geom_bond_site_symmetry_2
Li0_0 Li0_2 2.295986 1_545
Li0_0 Li0_2 2.295986 1_555
Li0_0 Li1_5 2.665842 1_554
Li0_0 Li1_1 2.665842 1_554
Li0_0 Li1_7 2.820533 1_554
Li0_0 Li1_3 2.820533 1_554
Li0_1 Li0_3 2.295986 1_545
Li0_1 Li0_3 2.295986 1_555
Li0_1 Li1_4 2.665842 1_555
Li0_1 Li1_0 2.665842 1_555
Li0_1 Li1_6 2.820533 1_555
Li0_1 Li1_2 2.820533 1_555
Li0_2 Li1_7 2.665842 1_554
Li0_2 Li1_3 2.665842 1_554
Li0_2 Li1_5 2.820533 1_564
Li0_2 Li1_1 2.820533 1_564
Li0_3 Li1_6 2.665842 1_555
Li0_3 Li1_2 2.665842 1_555
Li0_3 Li1_4 2.820533 1_565
Li0_3 Li1_0 2.820533 1_565
Li0_4 Li0_6 2.295986 1_545
Li0_4 Li0_6 2.295986 1_555
Li0_4 Li1_1 2.665842 1_654
Li0_4 Li1_5 2.665842 1_554
Li0_4 Li1_3 2.820533 1_654
Li0_4 Li1_7 2.820533 1_554
Li0_5 Li0_7 2.295986 1_545
Li0_5 Li0_7 2.295986 1_555
Li0_5 Li1_0 2.665842 1_655
Li0_5 Li1_4 2.665842 1_555
Li0_5 Li1_2 2.820533 1_655
Li0_5 Li1_6 2.820533 1_555
Li0_6 Li1_3 2.665842 1_654
Li0_6 Li1_7 2.665842 1_554
Li0_6 Li1_1 2.820533 1_664
Li0_6 Li1_5 2.820533 1_564
Li0_7 Li1_2 2.665842 1_655
Li0_7 Li1_6 2.665842 1_555
Li0_7 Li1_0 2.820533 1_665
Li0_7 Li1_4 2.820533 1_565
Li1_0 Li1_2 2.295986 1_555
Li1_0 Li1_2 2.295986 1_545
Li1_1 Li1_3 2.295986 1_555
Li1_1 Li1_3 2.295986 1_545
Li1_4 Li1_6 2.295986 1_555
Li1_4 Li1_6 2.295986 1_545
Li1_5 Li1_7 2.295986 1_555
Li1_5 Li1_7 2.295986 1_545
Be0_0 Be1_6 2.283547 1_545
Be0_0 Be1_2 2.283547 1_545
Be0_0 Be0_2 2.295986 1_545
Be0_0 Be0_2 2.295986 1_555
Be0_0 Be1_4 2.315231 1_555
Be0_0 Be1_0 2.315231 1_555
Be0_0 Li0_0 2.326250 1_555
Be0_0 Li1_4 2.564394 1_555
Be0_0 Li1_0 2.564394 1_555
Be0_0 Li1_6 2.645999 1_545
Be0_0 Li1_2 2.645999 1_545
Be0_1 Be1_7 2.283547 1_545
Be0_1 Be1_3 2.283547 1_545
Be0_1 Be0_3 2.295986 1_545
Be0_1 Be0_3 2.295986 1_555
Be0_1 Be1_5 2.315231 1_555
Be0_1 Be1_1 2.315231 1_555
Be0_1 Li0_1 2.326250 1_555
Be0_1 Li1_5 2.564394 1_555
Be0_1 Li1_1 2.564394 1_555
Be0_1 Li1_7 2.645999 1_545
Be0_1 Li1_3 2.645999 1_545
Be0_2 Be1_4 2.283547 1_555
Be0_2 Be1_0 2.283547 1_555
Be0_2 Be1_6 2.315231 1_555
Be0_2 Be1_2 2.315231 1_555
Be0_2 Li0_2 2.326250 1_555
Be0_2 Li1_6 2.564394 1_555
Be0_2 Li1_2 2.564394 1_555
Be0_2 Li1_4 2.645999 1_555
Be0_2 Li1_0 2.645999 1_555
Be0_3 Be1_5 2.283547 1_555
Be0_3 Be1_1 2.283547 1_555
Be0_3 Be1_7 2.315231 1_555
Be0_3 Be1_3 2.315231 1_555
Be0_3 Li0_3 2.326250 1_555
Be0_3 Li1_7 2.564394 1_555
Be0_3 Li1_3 2.564394 1_555
Be0_3 Li1_5 2.645999 1_555
Be0_3 Li1_1 2.645999 1_555
Be0_4 Be1_2 2.283547 1_645
Be0_4 Be1_6 2.283547 1_545
Be0_4 Be0_6 2.295986 1_545
Be0_4 Be0_6 2.295986 1_555
Be0_4 Be1_0 2.315231 1_655
Be0_4 Be1_4 2.315231 1_555
Be0_4 Li0_4 2.326250 1_555
Be0_4 Li1_0 2.564394 1_655
Be0_4 Li1_4 2.564394 1_555
Be0_4 Li1_2 2.645999 1_645
Be0_4 Li1_6 2.645999 1_545
Be0_5 Be1_3 2.283547 1_645
Be0_5 Be1_7 2.283547 1_545
Be0_5 Be0_7 2.295986 1_545
Be0_5 Be0_7 2.295986 1_555
Be0_5 Be1_1 2.315231 1_655
Be0_5 Be1_5 2.315231 1_555
Be0_5 Li0_5 2.326250 1_555
Be0_5 Li1_1 2.564394 1_655
Be0_5 Li1_5 2.564394 1_555
Be0_5 Li1_3 2.645999 1_645
Be0_5 Li1_7 2.645999 1_545
Be0_6 Be1_0 2.283547 1_655
Be0_6 Be1_4 2.283547 1_555
Be0_6 Be1_2 2.315231 1_655
Be0_6 Be1_6 2.315231 1_555
Be0_6 Li0_6 2.326250 1_555
Be0_6 Li1_2 2.564394 1_655
Be0_6 Li1_6 2.564394 1_555
Be0_6 Li1_0 2.645999 1_655
Be0_6 Li1_4 2.645999 1_555
Be0_7 Be1_1 2.283547 1_655
Be0_7 Be1_5 2.283547 1_555
Be0_7 Be1_3 2.315231 1_655
Be0_7 Be1_7 2.315231 1_555
Be0_7 Li0_7 2.326250 1_555
Be0_7 Li1_3 2.564394 1_655
Be0_7 Li1_7 2.564394 1_555
Be0_7 Li1_1 2.645999 1_655
Be0_7 Li1_5 2.645999 1_555
Be1_0 Be1_2 2.295986 1_545
Be1_0 Be1_2 2.295986 1_555
Be1_0 Li1_0 2.326250 1_555
Be1_0 Li0_4 2.564394 1_455
Be1_0 Li0_0 2.564394 1_555
Be1_0 Li0_6 2.645999 1_455
Be1_0 Li0_2 2.645999 1_555
Be1_1 Be1_3 2.295986 1_545
Be1_1 Be1_3 2.295986 1_555
Be1_1 Li1_1 2.326250 1_555
Be1_1 Li0_5 2.564394 1_455
Be1_1 Li0_1 2.564394 1_555
Be1_1 Li0_7 2.645999 1_455
Be1_1 Li0_3 2.645999 1_555
Be1_2 Li1_2 2.326250 1_555
Be1_2 Li0_6 2.564394 1_455
Be1_2 Li0_2 2.564394 1_555
Be1_2 Li0_4 2.645999 1_465
Be1_2 Li0_0 2.645999 1_565
Be1_3 Li1_3 2.326250 1_555
Be1_3 Li0_7 2.564394 1_455
Be1_3 Li0_3 2.564394 1_555
Be1_3 Li0_5 2.645999 1_465
Be1_3 Li0_1 2.645999 1_565
Be1_4 Be1_6 2.295986 1_545
Be1_4 Be1_6 2.295986 1_555
Be1_4 Li1_4 2.326250 1_555
Be1_4 Li0_0 2.564394 1_555
Be1_4 Li0_4 2.564394 1_555
Be1_4 Li0_2 2.645999 1_555
Be1_4 Li0_6 2.645999 1_555
Be1_5 Be1_7 2.295986 1_545
Be1_5 Be1_7 2.295986 1_555
Be1_5 Li1_5 2.326250 1_555
Be1_5 Li0_1 2.564394 1_555
Be1_5 Li0_5 2.564394 1_555
Be1_5 Li0_3 2.645999 1_555
Be1_5 Li0_7 2.645999 1_555
Be1_6 Li1_6 2.326250 1_555
Be1_6 Li0_2 2.564394 1_555
Be1_6 Li0_6 2.564394 1_555
Be1_6 Li0_0 2.645999 1_565
Be1_6 Li0_4 2.645999 1_565
Be1_7 Li1_7 2.326250 1_555
Be1_7 Li0_3 2.564394 1_555
Be1_7 Li0_7 2.564394 1_555
Be1_7 Li0_1 2.645999 1_565
Be1_7 Li0_5 2.645999 1_565
