# generated using pymatgen
data_MgTe2Mo3W(Se2S)2
_symmetry_space_group_name_H-M   'P 1'
_cell_length_a   6.67521201
_cell_length_b   6.67578956
_cell_length_c   76.13547400
_cell_angle_alpha   89.99969305
_cell_angle_beta   90.00006294
_cell_angle_gamma   120.00407441
_symmetry_Int_Tables_number   1
_chemical_formula_structural   MgTe2Mo3W(Se2S)2
_chemical_formula_sum   'Mg8 Te16 Mo24 W8 Se32 S16'
_cell_volume   2938.10665773
_cell_formula_units_Z   8
loop_
 _symmetry_equiv_pos_site_id
 _symmetry_equiv_pos_as_xyz
  1  'x, y, z'
loop_
 _atom_site_type_symbol
 _atom_site_label
 _atom_site_symmetry_multiplicity
 _atom_site_fract_x
 _atom_site_fract_y
 _atom_site_fract_z
 _atom_site_occupancy
  Mg  Mg0_0  1  0.31515100  0.16290650  0.43402050  1
  Mg  Mg0_1  1  0.31515100  0.16290650  0.93402050  1
  Mg  Mg0_2  1  0.31515100  0.66290650  0.43402050  1
  Mg  Mg0_3  1  0.31515100  0.66290650  0.93402050  1
  Mg  Mg0_4  1  0.81515100  0.16290650  0.43402050  1
  Mg  Mg0_5  1  0.81515100  0.16290650  0.93402050  1
  Mg  Mg0_6  1  0.81515100  0.66290650  0.43402050  1
  Mg  Mg0_7  1  0.81515100  0.66290650  0.93402050  1
  Te  Te0_0  1  0.33330600  0.16663700  0.02197700  1
  Te  Te0_1  1  0.33330600  0.16663700  0.52197700  1
  Te  Te0_2  1  0.33330600  0.66663700  0.02197700  1
  Te  Te0_3  1  0.33330600  0.66663700  0.52197700  1
  Te  Te0_4  1  0.83330600  0.16663700  0.02197700  1
  Te  Te0_5  1  0.83330600  0.16663700  0.52197700  1
  Te  Te0_6  1  0.83330600  0.66663700  0.02197700  1
  Te  Te0_7  1  0.83330600  0.66663700  0.52197700  1
  Te  Te1_0  1  0.33330650  0.16663250  0.07186300  1
  Te  Te1_1  1  0.33330650  0.16663250  0.57186300  1
  Te  Te1_2  1  0.33330650  0.66663250  0.07186300  1
  Te  Te1_3  1  0.33330650  0.66663250  0.57186300  1
  Te  Te1_4  1  0.83330650  0.16663250  0.07186300  1
  Te  Te1_5  1  0.83330650  0.16663250  0.57186300  1
  Te  Te1_6  1  0.83330650  0.66663250  0.07186300  1
  Te  Te1_7  1  0.83330650  0.66663250  0.57186300  1
  Mo  Mo0_0  1  0.16666300  0.33330850  0.04689650  1
  Mo  Mo0_1  1  0.16666300  0.33330850  0.54689650  1
  Mo  Mo0_2  1  0.16666300  0.83330850  0.04689650  1
  Mo  Mo0_3  1  0.16666300  0.83330850  0.54689650  1
  Mo  Mo0_4  1  0.66666300  0.33330850  0.04689650  1
  Mo  Mo0_5  1  0.66666300  0.33330850  0.54689650  1
  Mo  Mo0_6  1  0.66666300  0.83330850  0.04689650  1
  Mo  Mo0_7  1  0.66666300  0.83330850  0.54689650  1
  Mo  Mo1_0  1  0.16666050  0.33330750  0.23482300  1
  Mo  Mo1_1  1  0.16666050  0.33330750  0.73482300  1
  Mo  Mo1_2  1  0.16666050  0.83330750  0.23482300  1
  Mo  Mo1_3  1  0.16666050  0.83330750  0.73482300  1
  Mo  Mo1_4  1  0.66666050  0.33330750  0.23482300  1
  Mo  Mo1_5  1  0.66666050  0.33330750  0.73482300  1
  Mo  Mo1_6  1  0.66666050  0.83330750  0.23482300  1
  Mo  Mo1_7  1  0.66666050  0.83330750  0.73482300  1
  Mo  Mo2_0  1  0.33331850  0.16667000  0.14092850  1
  Mo  Mo2_1  1  0.33331850  0.16667000  0.64092850  1
  Mo  Mo2_2  1  0.33331850  0.66667000  0.14092850  1
  Mo  Mo2_3  1  0.33331850  0.66667000  0.64092850  1
  Mo  Mo2_4  1  0.83331850  0.16667000  0.14092850  1
  Mo  Mo2_5  1  0.83331850  0.16667000  0.64092850  1
  Mo  Mo2_6  1  0.83331850  0.66667000  0.14092850  1
  Mo  Mo2_7  1  0.83331850  0.66667000  0.64092850  1
  W  W0_0  1  0.33331750  0.16667300  0.32876650  1
  W  W0_1  1  0.33331750  0.16667300  0.82876650  1
  W  W0_2  1  0.33331750  0.66667300  0.32876650  1
  W  W0_3  1  0.33331750  0.66667300  0.82876650  1
  W  W0_4  1  0.83331750  0.16667300  0.32876650  1
  W  W0_5  1  0.83331750  0.16667300  0.82876650  1
  W  W0_6  1  0.83331750  0.66667300  0.32876650  1
  W  W0_7  1  0.83331750  0.66667300  0.82876650  1
  Se  Se0_0  1  0.16667200  0.33334150  0.16283800  1
  Se  Se0_1  1  0.16667200  0.33334150  0.66283800  1
  Se  Se0_2  1  0.16667200  0.83334150  0.16283800  1
  Se  Se0_3  1  0.16667200  0.83334150  0.66283800  1
  Se  Se0_4  1  0.66667200  0.33334150  0.16283800  1
  Se  Se0_5  1  0.66667200  0.33334150  0.66283800  1
  Se  Se0_6  1  0.66667200  0.83334150  0.16283800  1
  Se  Se0_7  1  0.66667200  0.83334150  0.66283800  1
  Se  Se1_0  1  0.16667450  0.33334750  0.35078300  1
  Se  Se1_1  1  0.16667450  0.33334750  0.85078300  1
  Se  Se1_2  1  0.16667450  0.83334750  0.35078300  1
  Se  Se1_3  1  0.16667450  0.83334750  0.85078300  1
  Se  Se1_4  1  0.66667450  0.33334750  0.35078300  1
  Se  Se1_5  1  0.66667450  0.33334750  0.85078300  1
  Se  Se1_6  1  0.66667450  0.83334750  0.35078300  1
  Se  Se1_7  1  0.66667450  0.83334750  0.85078300  1
  Se  Se2_0  1  0.16667600  0.33334700  0.11898350  1
  Se  Se2_1  1  0.16667600  0.33334700  0.61898350  1
  Se  Se2_2  1  0.16667600  0.83334700  0.11898350  1
  Se  Se2_3  1  0.16667600  0.83334700  0.61898350  1
  Se  Se2_4  1  0.66667600  0.33334700  0.11898350  1
  Se  Se2_5  1  0.66667600  0.33334700  0.61898350  1
  Se  Se2_6  1  0.66667600  0.83334700  0.11898350  1
  Se  Se2_7  1  0.66667600  0.83334700  0.61898350  1
  Se  Se3_0  1  0.16667350  0.33335400  0.30671750  1
  Se  Se3_1  1  0.16667350  0.33335400  0.80671750  1
  Se  Se3_2  1  0.16667350  0.83335400  0.30671750  1
  Se  Se3_3  1  0.16667350  0.83335400  0.80671750  1
  Se  Se3_4  1  0.66667350  0.33335400  0.30671750  1
  Se  Se3_5  1  0.66667350  0.33335400  0.80671750  1
  Se  Se3_6  1  0.66667350  0.83335400  0.30671750  1
  Se  Se3_7  1  0.66667350  0.83335400  0.80671750  1
  S  S0_0  1  0.33331350  0.16663350  0.21485150  1
  S  S0_1  1  0.33331350  0.16663350  0.71485150  1
  S  S0_2  1  0.33331350  0.66663350  0.21485150  1
  S  S0_3  1  0.33331350  0.66663350  0.71485150  1
  S  S0_4  1  0.83331350  0.16663350  0.21485150  1
  S  S0_5  1  0.83331350  0.16663350  0.71485150  1
  S  S0_6  1  0.83331350  0.66663350  0.21485150  1
  S  S0_7  1  0.83331350  0.66663350  0.71485150  1
  S  S1_0  1  0.33331050  0.16663000  0.25476900  1
  S  S1_1  1  0.33331050  0.16663000  0.75476900  1
  S  S1_2  1  0.33331050  0.66663000  0.25476900  1
  S  S1_3  1  0.33331050  0.66663000  0.75476900  1
  S  S1_4  1  0.83331050  0.16663000  0.25476900  1
  S  S1_5  1  0.83331050  0.16663000  0.75476900  1
  S  S1_6  1  0.83331050  0.66663000  0.25476900  1
  S  S1_7  1  0.83331050  0.66663000  0.75476900  1
loop_
_geom_bond_atom_site_label_1
_geom_bond_atom_site_label_2
_geom_bond_distance
_geom_bond_site_symmetry_2
Mg0_0 Mg0_6 3.337545 1_555
Mg0_0 Mg0_6 3.337545 1_445
Mg0_0 Mg0_4 3.337606 1_555
Mg0_0 Mg0_4 3.337606 1_455
Mg0_0 Mg0_2 3.337895 1_545
Mg0_0 Mg0_2 3.337895 1_555
Mg0_1 Mg0_7 3.337545 1_445
Mg0_1 Mg0_7 3.337545 1_555
Mg0_1 Mg0_5 3.337606 1_555
Mg0_1 Mg0_5 3.337606 1_455
Mg0_1 Mg0_3 3.337895 1_555
Mg0_1 Mg0_3 3.337895 1_545
Mg0_2 Mg0_4 3.337545 1_565
Mg0_2 Mg0_4 3.337545 1_455
Mg0_2 Mg0_6 3.337606 1_555
Mg0_2 Mg0_6 3.337606 1_455
Mg0_3 Mg0_5 3.337545 1_565
Mg0_3 Mg0_5 3.337545 1_455
Mg0_3 Mg0_7 3.337606 1_555
Mg0_3 Mg0_7 3.337606 1_455
Mg0_4 Mg0_6 3.337895 1_555
Mg0_4 Mg0_6 3.337895 1_545
Mg0_5 Mg0_7 3.337895 1_545
Mg0_5 Mg0_7 3.337895 1_555
Mo0_0 Te0_0 2.704233 1_555
Mo0_0 Te0_2 2.704253 1_555
Mo0_0 Te0_4 2.704261 1_455
Mo0_0 Te1_0 2.706755 1_555
Mo0_0 Te1_2 2.706761 1_555
Mo0_0 Te1_4 2.706766 1_455
Mo0_1 Te0_1 2.704233 1_555
Mo0_1 Te0_3 2.704253 1_555
Mo0_1 Te0_5 2.704261 1_455
Mo0_1 Te1_1 2.706755 1_555
Mo0_1 Te1_3 2.706761 1_555
Mo0_1 Te1_5 2.706766 1_455
Mo0_2 Te0_2 2.704233 1_555
Mo0_2 Te0_0 2.704253 1_565
Mo0_2 Te0_6 2.704261 1_455
Mo0_2 Te1_2 2.706755 1_555
Mo0_2 Te1_0 2.706761 1_565
Mo0_2 Te1_6 2.706766 1_455
Mo0_3 Te0_3 2.704233 1_555
Mo0_3 Te0_1 2.704253 1_565
Mo0_3 Te0_7 2.704261 1_455
Mo0_3 Te1_3 2.706755 1_555
Mo0_3 Te1_1 2.706761 1_565
Mo0_3 Te1_7 2.706766 1_455
Mo0_4 Te0_4 2.704233 1_555
Mo0_4 Te0_6 2.704253 1_555
Mo0_4 Te0_0 2.704261 1_555
Mo0_4 Te1_4 2.706755 1_555
Mo0_4 Te1_6 2.706761 1_555
Mo0_4 Te1_0 2.706766 1_555
Mo0_5 Te0_5 2.704233 1_555
Mo0_5 Te0_7 2.704253 1_555
Mo0_5 Te0_1 2.704261 1_555
Mo0_5 Te1_5 2.706755 1_555
Mo0_5 Te1_7 2.706761 1_555
Mo0_5 Te1_1 2.706766 1_555
Mo0_6 Te0_6 2.704233 1_555
Mo0_6 Te0_4 2.704253 1_565
Mo0_6 Te0_2 2.704261 1_555
Mo0_6 Te1_6 2.706755 1_555
Mo0_6 Te1_4 2.706761 1_565
Mo0_6 Te1_2 2.706766 1_555
Mo0_7 Te0_7 2.704233 1_555
Mo0_7 Te0_5 2.704253 1_565
Mo0_7 Te0_3 2.704261 1_555
Mo0_7 Te1_7 2.706755 1_555
Mo0_7 Te1_5 2.706761 1_565
Mo0_7 Te1_3 2.706766 1_555
Mo1_0 S1_4 2.453447 1_455
Mo1_0 S1_2 2.453462 1_555
Mo1_0 S1_0 2.453501 1_555
Mo1_0 S0_4 2.454640 1_455
Mo1_0 S0_2 2.454666 1_555
Mo1_0 S0_0 2.454710 1_555
Mo1_1 S1_5 2.453447 1_455
Mo1_1 S1_3 2.453462 1_555
Mo1_1 S1_1 2.453501 1_555
Mo1_1 S0_5 2.454640 1_455
Mo1_1 S0_3 2.454666 1_555
Mo1_1 S0_1 2.454710 1_555
Mo1_2 S1_6 2.453447 1_455
Mo1_2 S1_0 2.453462 1_565
Mo1_2 S1_2 2.453501 1_555
Mo1_2 S0_6 2.454640 1_455
Mo1_2 S0_0 2.454666 1_565
Mo1_2 S0_2 2.454710 1_555
Mo1_3 S1_7 2.453447 1_455
Mo1_3 S1_1 2.453462 1_565
Mo1_3 S1_3 2.453501 1_555
Mo1_3 S0_7 2.454640 1_455
Mo1_3 S0_1 2.454666 1_565
Mo1_3 S0_3 2.454710 1_555
Mo1_4 S1_0 2.453447 1_555
Mo1_4 S1_6 2.453462 1_555
Mo1_4 S1_4 2.453501 1_555
Mo1_4 S0_0 2.454640 1_555
Mo1_4 S0_6 2.454666 1_555
Mo1_4 S0_4 2.454710 1_555
Mo1_5 S1_1 2.453447 1_555
Mo1_5 S1_7 2.453462 1_555
Mo1_5 S1_5 2.453501 1_555
Mo1_5 S0_1 2.454640 1_555
Mo1_5 S0_7 2.454666 1_555
Mo1_5 S0_5 2.454710 1_555
Mo1_6 S1_2 2.453447 1_555
Mo1_6 S1_4 2.453462 1_565
Mo1_6 S1_6 2.453501 1_555
Mo1_6 S0_2 2.454640 1_555
Mo1_6 S0_4 2.454666 1_565
Mo1_6 S0_6 2.454710 1_555
Mo1_7 S1_3 2.453447 1_555
Mo1_7 S1_5 2.453462 1_565
Mo1_7 S1_7 2.453501 1_555
Mo1_7 S0_3 2.454640 1_555
Mo1_7 S0_5 2.454666 1_565
Mo1_7 S0_7 2.454710 1_555
Mo2_0 Se0_0 2.548703 1_555
Mo2_0 Se0_4 2.548703 1_555
Mo2_0 Se0_2 2.548710 1_545
Mo2_0 Se2_0 2.550470 1_555
Mo2_0 Se2_2 2.550470 1_545
Mo2_0 Se2_4 2.550485 1_555
Mo2_1 Se0_1 2.548703 1_555
Mo2_1 Se0_5 2.548703 1_555
Mo2_1 Se0_3 2.548710 1_545
Mo2_1 Se2_1 2.550470 1_555
Mo2_1 Se2_3 2.550470 1_545
Mo2_1 Se2_5 2.550485 1_555
Mo2_2 Se0_2 2.548703 1_555
Mo2_2 Se0_6 2.548703 1_555
Mo2_2 Se0_0 2.548710 1_555
Mo2_2 Se2_2 2.550470 1_555
Mo2_2 Se2_0 2.550470 1_555
Mo2_2 Se2_6 2.550485 1_555
Mo2_3 Se0_3 2.548703 1_555
Mo2_3 Se0_7 2.548703 1_555
Mo2_3 Se0_1 2.548710 1_555
Mo2_3 Se2_3 2.550470 1_555
Mo2_3 Se2_1 2.550470 1_555
Mo2_3 Se2_7 2.550485 1_555
Mo2_4 Se0_4 2.548703 1_555
Mo2_4 Se0_0 2.548703 1_655
Mo2_4 Se0_6 2.548710 1_545
Mo2_4 Se2_4 2.550470 1_555
Mo2_4 Se2_6 2.550470 1_545
Mo2_4 Se2_0 2.550485 1_655
Mo2_5 Se0_5 2.548703 1_555
Mo2_5 Se0_1 2.548703 1_655
Mo2_5 Se0_7 2.548710 1_545
Mo2_5 Se2_5 2.550470 1_555
Mo2_5 Se2_7 2.550470 1_545
Mo2_5 Se2_1 2.550485 1_655
Mo2_6 Se0_6 2.548703 1_555
Mo2_6 Se0_2 2.548703 1_655
Mo2_6 Se0_4 2.548710 1_555
Mo2_6 Se2_6 2.550470 1_555
Mo2_6 Se2_4 2.550470 1_555
Mo2_6 Se2_2 2.550485 1_655
Mo2_7 Se0_7 2.548703 1_555
Mo2_7 Se0_3 2.548703 1_655
Mo2_7 Se0_5 2.548710 1_555
Mo2_7 Se2_7 2.550470 1_555
Mo2_7 Se2_5 2.550470 1_555
Mo2_7 Se2_3 2.550485 1_655
Se1_0 W0_2 2.554036 1_555
Se1_0 W0_0 2.554040 1_555
Se1_0 W0_4 2.554057 1_455
Se1_1 W0_3 2.554036 1_555
Se1_1 W0_1 2.554040 1_555
Se1_1 W0_5 2.554057 1_455
Se1_2 W0_0 2.554036 1_565
Se1_2 W0_2 2.554040 1_555
Se1_2 W0_6 2.554057 1_455
Se1_3 W0_1 2.554036 1_565
Se1_3 W0_3 2.554040 1_555
Se1_3 W0_7 2.554057 1_455
Se1_4 W0_6 2.554036 1_555
Se1_4 W0_4 2.554040 1_555
Se1_4 W0_0 2.554057 1_555
Se1_5 W0_7 2.554036 1_555
Se1_5 W0_5 2.554040 1_555
Se1_5 W0_1 2.554057 1_555
Se1_6 W0_4 2.554036 1_565
Se1_6 W0_6 2.554040 1_555
Se1_6 W0_2 2.554057 1_555
Se1_7 W0_5 2.554036 1_565
Se1_7 W0_7 2.554040 1_555
Se1_7 W0_3 2.554057 1_555
Se3_0 W0_2 2.555647 1_555
Se3_0 W0_4 2.555673 1_455
Se3_0 W0_0 2.555688 1_555
Se3_1 W0_3 2.555647 1_555
Se3_1 W0_5 2.555673 1_455
Se3_1 W0_1 2.555688 1_555
Se3_2 W0_0 2.555647 1_565
Se3_2 W0_6 2.555673 1_455
Se3_2 W0_2 2.555688 1_555
Se3_3 W0_1 2.555647 1_565
Se3_3 W0_7 2.555673 1_455
Se3_3 W0_3 2.555688 1_555
Se3_4 W0_6 2.555647 1_555
Se3_4 W0_0 2.555673 1_555
Se3_4 W0_4 2.555688 1_555
Se3_5 W0_7 2.555647 1_555
Se3_5 W0_1 2.555673 1_555
Se3_5 W0_5 2.555688 1_555
Se3_6 W0_4 2.555647 1_565
Se3_6 W0_2 2.555673 1_555
Se3_6 W0_6 2.555688 1_555
Se3_7 W0_5 2.555647 1_565
Se3_7 W0_3 2.555673 1_555
Se3_7 W0_7 2.555688 1_555
