# generated using pymatgen
data_Ba3Cr2O8
_symmetry_space_group_name_H-M   'P 1'
_cell_length_a   5.76720639
_cell_length_b   7.90570926
_cell_length_c   9.98103899
_cell_angle_alpha   102.11102920
_cell_angle_beta   89.99441910
_cell_angle_gamma   68.61560724
_symmetry_Int_Tables_number   1
_chemical_formula_structural   Ba3Cr2O8
_chemical_formula_sum   'Ba6 Cr4 O16'
_cell_volume   412.84427386
_cell_formula_units_Z   2
loop_
 _symmetry_equiv_pos_site_id
 _symmetry_equiv_pos_as_xyz
  1  'x, y, z'
loop_
 _atom_site_type_symbol
 _atom_site_label
 _atom_site_symmetry_multiplicity
 _atom_site_fract_x
 _atom_site_fract_y
 _atom_site_fract_z
 _atom_site_occupancy
  Ba  Ba0  1  0.49890957  1.00014604  0.50980227  1
  Ba  Ba1  1  0.00276444  1.00017511  0.01000909  1
  Ba  Ba2  1  0.30827815  0.38154324  0.89781727  1
  Ba  Ba3  1  0.81038425  0.38149023  0.39774123  1
  Ba  Ba4  1  0.19181721  0.61825064  0.60393207  1
  Ba  Ba5  1  0.69003350  0.61836059  0.10399068  1
  Cr  Cr0  1  0.61116034  0.77799539  0.79678061  1
  Cr  Cr1  1  0.39075712  0.22203638  0.20425923  1
  Cr  Cr2  1  0.11081911  0.77794594  0.29679789  1
  Cr  Cr3  1  0.88727615  0.22191948  0.70429877  1
  O  O0  1  0.47994238  0.01247115  0.82300780  1
  O  O1  1  0.00563744  0.01245614  0.32305475  1
  O  O2  1  0.99874938  0.98749706  0.65027107  1
  O  O3  1  0.51154679  0.98757680  0.15019786  1
  O  O4  1  0.84822470  0.30163832  0.87853609  1
  O  O5  1  0.35090224  0.30166564  0.37848073  1
  O  O6  1  0.60197251  0.30634877  0.64098543  1
  O  O7  1  0.10541742  0.30503972  0.14083032  1
  O  O8  1  0.09001015  0.30438293  0.64053662  1
  O  O9  1  0.59214290  0.30591225  0.14078151  1
  O  O10  1  0.89172846  0.69720885  0.86393615  1
  O  O11  1  0.38989757  0.69896839  0.36744680  1
  O  O12  1  0.66040038  0.69197975  0.62263759  1
  O  O13  1  0.14808618  0.69197177  0.12264381  1
  O  O14  1  0.41158442  0.69847985  0.86738174  1
  O  O15  1  0.91155423  0.69653957  0.36384460  1
loop_
_geom_bond_atom_site_label_1
_geom_bond_atom_site_label_2
_geom_bond_distance
_geom_bond_site_symmetry_2
Ba0 O12 2.751008 1_555
Ba0 O8 2.755907 1_565
Ba0 O6 2.765345 1_565
Ba0 O11 2.784884 1_555
Ba0 O15 2.813080 1_555
Ba0 O5 2.820676 1_565
Ba1 O13 2.750187 1_555
Ba1 O7 2.753997 1_565
Ba1 O9 2.766834 1_465
Ba1 O14 2.783520 1_554
Ba1 O10 2.815297 1_454
Ba1 O4 2.821324 1_464
Ba2 O0 2.651455 1_555
Ba2 O13 2.819089 1_556
Ba2 O10 2.845293 1_455
Ba2 O14 2.851894 1_555
Ba2 O6 2.901557 1_555
Ba2 O8 2.907615 1_555
Ba2 O4 2.940582 1_455
Ba2 O4 2.940635 1_555
Ba2 O7 2.957828 1_556
Ba2 O9 2.968804 1_556
Ba3 O1 2.650823 1_655
Ba3 O12 2.819815 1_555
Ba3 O15 2.841082 1_555
Ba3 O11 2.855127 1_555
Ba3 O9 2.902589 1_555
Ba3 O7 2.904247 1_655
Ba3 O5 2.937010 1_555
Ba3 O5 2.943980 1_655
Ba3 O8 2.957810 1_655
Ba3 O6 2.969386 1_555
Ba4 O2 2.652965 1_455
Ba4 O6 2.818094 1_555
Ba4 O8 2.842201 1_555
Ba4 O5 2.851540 1_555
Ba4 O12 2.901558 1_455
Ba4 O11 2.906317 1_555
Ba4 O15 2.937949 1_455
Ba4 O10 2.941266 1_455
Ba4 O12 2.963240 1_555
Ba4 O14 2.968171 1_555
Ba5 O3 2.652598 1_555
Ba5 O9 2.820037 1_555
Ba5 O7 2.839859 1_655
Ba5 O4 2.852202 1_554
Ba5 O13 2.903023 1_655
Ba5 O14 2.905830 1_554
Ba5 O10 2.938939 1_554
Ba5 O15 2.940202 1_555
Ba5 O13 2.961455 1_555
Ba5 O11 2.967902 1_555
Cr0 O0 1.688419 1_565
Cr0 O10 1.703417 1_555
Cr0 O12 1.710927 1_555
Cr0 O14 1.711692 1_555
Cr1 O3 1.688423 1_545
Cr1 O5 1.705287 1_555
Cr1 O7 1.710697 1_555
Cr1 O9 1.711085 1_555
Cr2 O1 1.688139 1_565
Cr2 O15 1.703700 1_455
Cr2 O13 1.710930 1_555
Cr2 O11 1.711638 1_555
Cr3 O2 1.688327 1_545
Cr3 O4 1.705518 1_555
Cr3 O8 1.710819 1_655
Cr3 O6 1.711288 1_555
