# generated using pymatgen
data_MgCd2(Cu2O3)2
_symmetry_space_group_name_H-M   'P 1'
_cell_length_a   4.42120470
_cell_length_b   10.51365221
_cell_length_c   3.57224698
_cell_angle_alpha   82.72436807
_cell_angle_beta   94.95855409
_cell_angle_gamma   89.75857097
_symmetry_Int_Tables_number   1
_chemical_formula_structural   MgCd2(Cu2O3)2
_chemical_formula_sum   'Mg1 Cd2 Cu4 O6'
_cell_volume   164.07608114
_cell_formula_units_Z   1
loop_
 _symmetry_equiv_pos_site_id
 _symmetry_equiv_pos_as_xyz
  1  'x, y, z'
loop_
 _atom_site_type_symbol
 _atom_site_label
 _atom_site_symmetry_multiplicity
 _atom_site_fract_x
 _atom_site_fract_y
 _atom_site_fract_z
 _atom_site_occupancy
  Mg  Mg0  1  0.04785428  0.54762428  0.53110399  1
  Cd  Cd0  1  0.18333961  0.23749980  0.36969318  1
  Cd  Cd1  1  0.79999222  0.80474941  0.70036391  1
  Cu  Cu0  1  0.49675210  0.64879338  0.16426602  1
  Cu  Cu1  1  0.23508519  0.91194736  0.17544147  1
  Cu  Cu2  1  0.70945680  0.09371088  0.90477221  1
  Cu  Cu3  1  0.68228940  0.38638581  0.85472013  1
  O  O0  1  0.22474754  0.73080185  0.42257218  1
  O  O1  1  0.20637001  0.08472617  0.94693887  1
  O  O2  1  0.22382469  0.39014182  0.81881003  1
  O  O3  1  0.69426851  0.24620259  0.56941826  1
  O  O4  1  0.80396996  0.55757409  0.00189953  1
  O  O5  1  0.70871669  0.92234257  0.14714321  1
loop_
_geom_bond_atom_site_label_1
_geom_bond_atom_site_label_2
_geom_bond_distance
_geom_bond_site_symmetry_2
Mg0 O2 1.955217 1_555
Mg0 O4 2.084220 1_455
Mg0 O0 2.084925 1_555
Mg0 O4 2.087854 1_456
Cd0 O3 2.315124 1_555
Cd0 O3 2.339751 1_455
Cd0 O1 2.347449 1_554
Cd0 O2 2.396560 1_554
Cd0 O2 2.405489 1_555
Cd0 O1 2.442499 1_555
Cd1 O5 2.199086 1_555
Cd1 O5 2.201255 1_556
Cd1 O0 2.370878 1_655
Cu0 O4 1.834993 1_555
Cu0 O0 1.850854 1_555
Cu1 O1 1.893882 1_564
Cu1 O0 1.997605 1_555
Cu1 O5 2.107799 1_555
Cu1 O5 2.322140 1_455
Cu2 O3 1.873165 1_555
Cu2 O5 1.897687 1_546
Cu2 O1 2.189900 1_655
Cu2 O1 2.243877 1_555
Cu3 O3 1.898114 1_555
Cu3 O4 2.001028 1_556
Cu3 O2 2.019827 1_555
Cu3 O2 2.408942 1_655
