# generated using pymatgen
data_MgCd2(NiO2)4
_symmetry_space_group_name_H-M   'P 1'
_cell_length_a   5.91547825
_cell_length_b   7.08596227
_cell_length_c   5.91509124
_cell_angle_alpha   65.34585421
_cell_angle_beta   89.96760983
_cell_angle_gamma   114.64792952
_symmetry_Int_Tables_number   1
_chemical_formula_structural   MgCd2(NiO2)4
_chemical_formula_sum   'Mg1 Cd2 Ni4 O8'
_cell_volume   200.18519338
_cell_formula_units_Z   1
loop_
 _symmetry_equiv_pos_site_id
 _symmetry_equiv_pos_as_xyz
  1  'x, y, z'
loop_
 _atom_site_type_symbol
 _atom_site_label
 _atom_site_symmetry_multiplicity
 _atom_site_fract_x
 _atom_site_fract_y
 _atom_site_fract_z
 _atom_site_occupancy
  Mg  Mg0  1  0.49983800  0.99978000  0.50010100  1
  Cd  Cd0  1  0.99990600  0.00007300  0.99996900  1
  Cd  Cd1  1  0.75010700  0.50004300  0.74999300  1
  Ni  Ni0  1  0.41504800  0.34091400  0.32953000  1
  Ni  Ni1  1  0.92573900  0.34046100  0.32975700  1
  Ni  Ni2  1  0.32962600  0.65933400  0.41505000  1
  Ni  Ni3  1  0.32967000  0.65942700  0.92558000  1
  O  O0  1  0.15080700  0.30171000  0.12177700  1
  O  O1  1  0.63116500  0.26137400  0.15780100  1
  O  O2  1  0.57658900  0.69837500  0.15060500  1
  O  O3  1  0.12164800  0.69821200  0.15101800  1
  O  O4  1  0.63084400  0.26137500  0.58082500  1
  O  O5  1  0.15046900  0.30168500  0.57654100  1
  O  O6  1  0.15778500  0.73868100  0.63085400  1
  O  O7  1  0.58076200  0.73855700  0.63060000  1
loop_
_geom_bond_atom_site_label_1
_geom_bond_atom_site_label_2
_geom_bond_distance
_geom_bond_site_symmetry_2
Mg0 O6 1.948676 1_555
Mg0 O7 1.949030 1_555
Mg0 O1 1.950646 1_565
Mg0 O4 1.950708 1_565
Cd0 O2 2.361775 1_546
Cd0 O5 2.361782 1_655
Cd0 O0 2.361889 1_656
Cd0 O3 2.362900 1_646
Cd1 O6 2.185046 1_655
Cd1 O7 2.185379 1_555
Cd1 O1 2.185434 1_556
Cd1 O4 2.185546 1_555
Ni0 O0 1.988825 1_555
Ni0 O5 1.989304 1_555
Ni0 O4 2.014942 1_555
Ni0 O1 2.015209 1_555
Ni0 O2 2.047586 1_555
Ni1 O5 1.986421 1_655
Ni1 O0 1.986536 1_655
Ni1 O1 2.011996 1_555
Ni1 O4 2.012458 1_555
Ni1 O3 2.049230 1_655
Ni2 O3 1.988608 1_555
Ni2 O2 1.989183 1_555
Ni2 O7 2.012812 1_555
Ni2 O6 2.013184 1_555
Ni2 O5 2.048719 1_555
Ni3 O2 1.988407 1_556
Ni3 O3 1.988452 1_556
Ni3 O6 2.012441 1_555
Ni3 O7 2.012769 1_555
Ni3 O0 2.049109 1_556
