# generated using pymatgen
data_Na7La2Ta2Si5PO24
_symmetry_space_group_name_H-M   'P 1'
_cell_length_a   9.47730461
_cell_length_b   9.49154013
_cell_length_c   22.49923009
_cell_angle_alpha   90.22823490
_cell_angle_beta   89.79552132
_cell_angle_gamma   119.91817524
_symmetry_Int_Tables_number   1
_chemical_formula_structural   Na7La2Ta2Si5PO24
_chemical_formula_sum   'Na21 La6 Ta6 Si15 P3 O72'
_cell_volume   1754.17590871
_cell_formula_units_Z   3
loop_
 _symmetry_equiv_pos_site_id
 _symmetry_equiv_pos_as_xyz
  1  'x, y, z'
loop_
 _atom_site_type_symbol
 _atom_site_label
 _atom_site_symmetry_multiplicity
 _atom_site_fract_x
 _atom_site_fract_y
 _atom_site_fract_z
 _atom_site_occupancy
  Na  Na0  1  0.65685097  0.01895485  0.24885604  1
  Na  Na1  1  0.36808861  0.35812382  0.24654966  1
  Na  Na2  1  0.98467184  0.63221518  0.24602536  1
  Na  Na3  1  0.63946832  0.62877871  0.74757926  1
  Na  Na4  1  0.98398222  0.34867785  0.74668746  1
  Na  Na5  1  0.36506199  0.01699529  0.74599146  1
  Na  Na6  1  0.31470020  0.34379067  0.58098166  1
  Na  Na7  1  0.03482437  0.69370133  0.57852486  1
  Na  Na8  1  0.65318624  0.96205782  0.57925972  1
  Na  Na9  1  0.30131324  0.96453273  0.07435316  1
  Na  Na10  1  0.03198578  0.34630173  0.07952625  1
  Na  Na11  1  0.98855635  0.68036679  0.91267831  1
  Na  Na12  1  0.31541080  0.29060719  0.91166521  1
  Na  Na13  1  0.32207171  0.01902056  0.41217499  1
  Na  Na14  1  0.70776724  0.68097622  0.41128917  1
  Na  Na15  1  0.98876531  0.00226031  0.49740664  1
  Na  Na16  1  0.98341452  0.00077392  0.99906778  1
  Na  Na17  1  0.66760028  0.31976938  0.83124282  1
  Na  Na18  1  0.67887145  0.33315479  0.33204427  1
  Na  Na19  1  0.33790278  0.65240126  0.16313394  1
  Na  Na20  1  0.33611959  0.66622080  0.66215540  1
  La  La0  1  0.99984274  0.00877277  0.34723507  1
  La  La1  1  0.99168478  0.00092152  0.84907030  1
  La  La2  1  0.66677948  0.33410598  0.67627225  1
  La  La3  1  0.66551674  0.34141796  0.17519510  1
  La  La4  1  0.34191365  0.66731116  0.01436154  1
  La  La5  1  0.32895877  0.66334410  0.50866789  1
  Ta  Ta0  1  0.99869248  0.99864845  0.64788066  1
  Ta  Ta1  1  0.00283257  0.99597387  0.14897970  1
  Ta  Ta2  1  0.66542432  0.33331123  0.98198219  1
  Ta  Ta3  1  0.67528256  0.33257148  0.48285345  1
  Ta  Ta4  1  0.32824413  0.66937352  0.31439012  1
  Ta  Ta5  1  0.32879929  0.67047426  0.81339587  1
  Si  Si0  1  0.29750732  0.98696610  0.25140815  1
  Si  Si1  1  0.69251635  0.70794211  0.25188531  1
  Si  Si2  1  0.01181184  0.30915936  0.24657923  1
  Si  Si3  1  0.29272458  0.30753919  0.75124306  1
  Si  Si4  1  0.01278375  0.70576095  0.75139259  1
  Si  Si5  1  0.68924721  0.98637868  0.74775491  1
  Si  Si6  1  0.96537071  0.31730872  0.58529327  1
  Si  Si7  1  0.35574704  0.03652375  0.58330321  1
  Si  Si8  1  0.68052300  0.64320952  0.58402643  1
  Si  Si9  1  0.96163291  0.64536003  0.08361952  1
  Si  Si10  1  0.35040075  0.31526065  0.08583516  1
  Si  Si11  1  0.02453972  0.37627212  0.91943479  1
  Si  Si12  1  0.35132482  0.97570618  0.91884760  1
  Si  Si13  1  0.62604421  0.97696976  0.41934507  1
  Si  Si14  1  0.02040416  0.64998897  0.41836647  1
  P  P0  1  0.68834348  0.04787319  0.08406288  1
  P  P1  1  0.62252049  0.64058079  0.91471671  1
  P  P2  1  0.35863358  0.37587766  0.41659866  1
  O  O0  1  0.23566807  0.02301474  0.31228998  1
  O  O1  1  0.79246040  0.76838131  0.31241681  1
  O  O2  1  0.96137438  0.19286326  0.30294642  1
  O  O3  1  0.22847863  0.20504555  0.81101078  1
  O  O4  1  0.98491811  0.77187288  0.81261759  1
  O  O5  1  0.80714124  0.03677743  0.80353386  1
  O  O6  1  0.79868535  0.96503988  0.69031702  1
  O  O7  1  0.15959489  0.19247502  0.69491393  1
  O  O8  1  0.03055186  0.83718034  0.69546605  1
  O  O9  1  0.81126303  0.84479649  0.19769453  1
  O  O10  1  0.03376716  0.20007028  0.18945249  1
  O  O11  1  0.16197962  0.96836974  0.19612360  1
  O  O12  1  0.90701572  0.35566417  0.64695572  1
  O  O13  1  0.45129862  0.09845866  0.64490174  1
  O  O14  1  0.64616479  0.55064421  0.64626733  1
  O  O15  1  0.90517212  0.54866269  0.14516948  1
  O  O16  1  0.66806373  0.10726370  0.14447952  1
  O  O17  1  0.43107916  0.32922693  0.14937063  1
  O  O18  1  0.47419556  0.30492733  0.03091768  1
  O  O19  1  0.82911483  0.52550533  0.02861445  1
  O  O20  1  0.70025801  0.17686587  0.03412466  1
  O  O21  1  0.47303124  0.17141318  0.52852324  1
  O  O22  1  0.69556320  0.52328166  0.52941096  1
  O  O23  1  0.82715651  0.30340015  0.53156825  1
  O  O24  1  0.55881012  0.66809154  0.97146129  1
  O  O25  1  0.11498872  0.45138290  0.98059325  1
  O  O26  1  0.31831452  0.87719231  0.97904933  1
  O  O27  1  0.55615926  0.89075686  0.48183364  1
  O  O28  1  0.33619924  0.43456114  0.47679901  1
  O  O29  1  0.11188850  0.68056193  0.48054109  1
  O  O30  1  0.13993068  0.63647574  0.36284297  1
  O  O31  1  0.48873322  0.85533976  0.36426780  1
  O  O32  1  0.36297255  0.49446996  0.36477383  1
  O  O33  1  0.14332290  0.51046160  0.86309964  1
  O  O34  1  0.36536846  0.85878245  0.86208122  1
  O  O35  1  0.51062313  0.62937532  0.85996475  1
  O  O36  1  0.99137206  0.80246123  0.41092280  1
  O  O37  1  0.80185442  0.99287856  0.41321403  1
  O  O38  1  0.22339646  0.19889098  0.40976294  1
  O  O39  1  0.00896720  0.20038432  0.91438647  1
  O  O40  1  0.20008780  0.00772052  0.91152047  1
  O  O41  1  0.80302854  0.77095051  0.90896096  1
  O  O42  1  0.95278417  0.13542652  0.58738351  1
  O  O43  1  0.18206526  0.04479679  0.58799231  1
  O  O44  1  0.86258381  0.81526689  0.58740924  1
  O  O45  1  0.95976904  0.82141980  0.09010735  1
  O  O46  1  0.85533780  0.05051952  0.08265467  1
  O  O47  1  0.17629993  0.13314463  0.08604175  1
  O  O48  1  0.64228178  0.12764656  0.74279982  1
  O  O49  1  0.47856599  0.34755796  0.74383548  1
  O  O50  1  0.86988498  0.51953529  0.74485893  1
  O  O51  1  0.65131457  0.52223064  0.24369286  1
  O  O52  1  0.86973934  0.35517563  0.24155259  1
  O  O53  1  0.48441410  0.12503634  0.24192094  1
  O  O54  1  0.61373565  0.46760762  0.91892372  1
  O  O55  1  0.84718048  0.37784224  0.92205600  1
  O  O56  1  0.52435349  0.15564608  0.92525779  1
  O  O57  1  0.62160777  0.15228285  0.42128611  1
  O  O58  1  0.52981649  0.38536967  0.41615563  1
  O  O59  1  0.84202793  0.47580786  0.42294023  1
  O  O60  1  0.30806868  0.45918357  0.08103237  1
  O  O61  1  0.14814780  0.68675849  0.07653457  1
  O  O62  1  0.54153761  0.88148384  0.07438034  1
  O  O63  1  0.31543034  0.85066749  0.57698928  1
  O  O64  1  0.53366611  0.68097866  0.57595348  1
  O  O65  1  0.15090358  0.45952571  0.57625561  1
  O  O66  1  0.28517383  0.80227135  0.25663514  1
  O  O67  1  0.51690670  0.71289392  0.25716848  1
  O  O68  1  0.19470479  0.48030493  0.25678724  1
  O  O69  1  0.28653997  0.48208943  0.75637265  1
  O  O70  1  0.19645291  0.71313605  0.75562451  1
  O  O71  1  0.51869692  0.80390301  0.75637765  1
loop_
_geom_bond_atom_site_label_1
_geom_bond_atom_site_label_2
_geom_bond_distance
_geom_bond_site_symmetry_2
Na0 O53 2.313731 1_555
Na0 O16 2.480694 1_555
Na0 O67 2.528284 1_545
Na0 O2 2.791423 1_555
Na0 O52 2.803727 1_555
Na1 O17 2.315476 1_555
Na1 O51 2.337577 1_555
Na1 O68 2.448293 1_555
Na1 O53 2.924228 1_555
Na2 O52 2.291850 1_555
Na2 O15 2.397416 1_555
Na2 O66 2.487850 1_655
Na2 O51 2.790107 1_555
Na3 O49 2.322941 1_555
Na3 O14 2.404646 1_555
Na3 O71 2.450665 1_555
Na3 O50 2.846889 1_555
Na3 O69 2.918459 1_555
Na4 O50 2.356056 1_555
Na4 O12 2.373314 1_555
Na4 O69 2.500678 1_655
Na4 O48 2.849496 1_555
Na5 O48 2.292953 1_555
Na5 O13 2.410243 1_555
Na5 O70 2.514694 1_545
Na5 O49 2.763660 1_555
Na6 O65 2.308887 1_555
Na6 O43 2.470302 1_555
Na6 O28 2.473021 1_555
Na6 O64 2.817470 1_555
Na7 O63 2.310987 1_555
Na7 O29 2.342272 1_555
Na7 O44 2.431182 1_455
Na7 O43 2.907837 1_565
Na7 O65 2.931052 1_555
Na8 O64 2.321784 1_555
Na8 O27 2.343137 1_555
Na8 O42 2.478679 1_565
Na8 O63 2.826961 1_555
Na9 O61 2.289880 1_555
Na9 O26 2.329736 1_554
Na9 O47 2.433100 1_565
Na9 O62 2.755870 1_555
Na9 O45 2.838670 1_455
Na9 O18 2.968381 1_565
Na9 O11 3.045095 1_555
Na10 O60 2.280167 1_555
Na10 O25 2.406414 1_554
Na10 O46 2.449835 1_455
Na10 O61 2.848040 1_555
Na11 O41 2.312462 1_555
Na11 O4 2.422777 1_555
Na11 O55 2.499968 1_555
Na11 O40 2.731384 1_665
Na11 O33 2.886162 1_655
Na11 O19 3.005800 1_556
Na12 O40 2.340203 1_555
Na12 O3 2.407939 1_555
Na12 O54 2.470984 1_555
Na12 O39 2.586512 1_555
Na12 O56 2.862430 1_555
Na13 O38 2.320758 1_555
Na13 O0 2.401518 1_555
Na13 O57 2.474054 1_555
Na13 O36 2.760902 1_445
Na14 O36 2.337158 1_555
Na14 O1 2.370413 1_555
Na14 O58 2.451425 1_555
Na14 O37 2.631948 1_555
Na14 O59 2.821031 1_555
Na14 O32 3.024296 1_555
Na14 O22 3.028793 1_555
Na15 O42 2.493337 1_555
Na15 O44 2.564156 1_545
Na15 O37 2.568918 1_545
Na15 O43 2.637284 1_655
Na15 O36 2.720323 1_545
Na15 O38 2.859115 1_655
Na16 O46 2.404464 1_556
Na16 O47 2.542516 1_656
Na16 O45 2.605337 1_546
Na16 O39 2.616488 1_655
Na16 O40 2.817469 1_655
Na16 O41 2.839127 1_545
Na17 O55 2.540717 1_555
Na17 O56 2.576867 1_555
Na17 O54 2.608960 1_555
Na17 O48 2.623090 1_555
Na17 O50 2.724827 1_555
Na17 O49 2.765378 1_555
Na18 O59 2.513706 1_555
Na18 O57 2.522622 1_555
Na18 O58 2.548395 1_555
Na18 O52 2.657268 1_555
Na18 O51 2.782092 1_555
Na18 O53 2.788075 1_555
Na19 O60 2.512960 1_555
Na19 O67 2.593876 1_555
Na19 O68 2.597240 1_555
Na19 O66 2.715983 1_555
Na19 O61 2.784219 1_555
Na19 O62 2.874208 1_555
Na20 O70 2.633164 1_555
Na20 O71 2.635225 1_555
Na20 O69 2.640466 1_555
Na20 O64 2.645941 1_555
Na20 O63 2.673365 1_555
Na20 O65 2.687780 1_555
La0 O2 2.197914 1_555
La0 O1 2.281675 1_545
La0 O0 2.306197 1_655
La0 O37 2.333842 1_545
La0 O36 2.399800 1_545
La0 O38 2.431375 1_655
La1 O5 2.198574 1_555
La1 O3 2.277184 1_655
La1 O4 2.291342 1_545
La1 O39 2.332577 1_655
La1 O40 2.402368 1_655
La1 O41 2.426979 1_545
La2 O13 2.261118 1_555
La2 O14 2.265092 1_555
La2 O12 2.277357 1_555
La2 O48 2.387785 1_555
La2 O49 2.390636 1_555
La2 O50 2.409205 1_555
La3 O15 2.242185 1_555
La3 O17 2.244942 1_555
La3 O16 2.336400 1_555
La3 O51 2.355087 1_555
La3 O52 2.399817 1_555
La3 O53 2.430567 1_555
La4 O25 2.237262 1_554
La4 O26 2.260091 1_554
La4 O24 2.264483 1_554
La4 O60 2.375609 1_555
La4 O61 2.383456 1_555
La4 O62 2.386454 1_555
La5 O29 2.237166 1_555
La5 O27 2.241635 1_555
La5 O28 2.317357 1_555
La5 O65 2.377226 1_555
La5 O63 2.396834 1_555
La5 O64 2.403900 1_555
O0 Si0 1.589796 1_545
O1 Si1 1.594376 1_555
O2 Si2 1.592420 1_655
O3 Si3 1.593462 1_555
O4 Si4 1.586467 1_655
O5 Si5 1.588798 1_545
O6 Si5 1.727634 1_555
O6 Ta0 1.998184 1_555
O7 Si3 1.736870 1_555
O7 Ta0 2.006807 1_445
O8 Si4 1.723104 1_555
O8 Ta0 2.015742 1_455
O9 Si1 1.727710 1_555
O9 Ta1 1.989008 1_655
O10 Si2 1.723316 1_555
O10 Ta1 2.022172 1_545
O11 Si0 1.735403 1_555
O11 Ta1 1.968881 1_555
O12 Si6 1.598279 1_555
O13 Si7 1.599327 1_555
O14 Si8 1.600049 1_555
O15 Si9 1.600431 1_555
O16 P0 1.517427 1_555
O17 Si10 1.597141 1_555
O18 Si10 1.736749 1_555
O18 Ta2 2.017531 1_554
O19 Si9 1.725610 1_555
O19 Ta2 2.002155 1_554
O20 P0 1.626750 1_555
O20 Ta2 2.048388 1_554
O21 Si7 1.725394 1_555
O21 Ta3 2.035546 1_555
O22 Si8 1.724954 1_555
O22 Ta3 2.012479 1_555
O23 Si6 1.741242 1_555
O23 Ta3 1.939316 1_555
O24 P1 1.487234 1_555
O25 Si11 1.589807 1_555
O26 Si12 1.588112 1_555
O27 Si13 1.595883 1_555
O28 P2 1.516603 1_555
O29 Si14 1.596013 1_555
O30 Si14 1.730263 1_555
O30 Ta4 1.975861 1_555
O31 Si13 1.750243 1_555
O31 Ta4 2.001679 1_555
O32 P2 1.610050 1_555
O32 Ta4 2.170716 1_555
O33 Si11 1.751707 1_555
O33 Ta5 1.995884 1_555
O34 Si12 1.736495 1_555
O34 Ta5 1.970721 1_555
O35 P1 1.596631 1_555
O35 Ta5 2.214969 1_555
O36 Si14 1.611706 1_655
O37 Si13 1.601757 1_555
O38 P2 1.529692 1_555
O39 Si11 1.604545 1_555
O40 Si12 1.615692 1_545
O41 P1 1.537078 1_555
O42 Si6 1.670894 1_555
O42 Ta0 2.075853 1_545
O43 Si7 1.689484 1_555
O43 Ta0 2.063088 1_445
O44 Si8 1.684948 1_555
O44 Ta0 2.073318 1_555
O45 Si9 1.685707 1_555
O45 Ta1 1.994467 1_655
O46 P0 1.570487 1_555
O46 Ta1 2.278558 1_645
O47 Si10 1.692748 1_555
O47 Ta1 2.065430 1_545
O48 Si5 1.614099 1_545
O49 Si3 1.614066 1_555
O50 Si4 1.609810 1_655
O51 Si1 1.613955 1_555
O52 Si2 1.613888 1_655
O53 Si0 1.607676 1_545
O54 P1 1.605045 1_555
O54 Ta2 2.126013 1_555
O55 Si11 1.689188 1_655
O55 Ta2 2.055589 1_555
O56 Si12 1.683090 1_545
O56 Ta2 2.001509 1_555
O57 Si13 1.685746 1_545
O57 Ta3 2.055158 1_555
O58 P2 1.579346 1_555
O58 Ta3 2.261333 1_555
O59 Si14 1.677458 1_655
O59 Ta3 2.004750 1_555
O60 Si10 1.608386 1_555
O61 Si9 1.615567 1_455
O62 P0 1.511607 1_565
O63 Si7 1.613727 1_565
O64 Si8 1.612038 1_555
O65 Si6 1.608492 1_455
O66 Si0 1.702286 1_555
O66 Ta4 1.994186 1_555
O67 Si1 1.691989 1_555
O67 Ta4 2.067892 1_555
O68 Si2 1.699156 1_555
O68 Ta4 2.056560 1_555
O69 Si3 1.690229 1_555
O69 Ta5 2.067520 1_555
O70 Si4 1.709837 1_555
O70 Ta5 1.987254 1_555
O71 Si5 1.690521 1_555
O71 Ta5 2.052187 1_555
