# generated using pymatgen
data_Na6Hf2Mg2Si3(SO8)3
_symmetry_space_group_name_H-M   'P 1'
_cell_length_a   9.07530064
_cell_length_b   9.08004567
_cell_length_c   22.53395848
_cell_angle_alpha   89.90941443
_cell_angle_beta   90.71892269
_cell_angle_gamma   119.57908928
_symmetry_Int_Tables_number   1
_chemical_formula_structural   Na6Hf2Mg2Si3(SO8)3
_chemical_formula_sum   'Na18 Hf6 Mg6 Si9 S9 O72'
_cell_volume   1614.74259412
_cell_formula_units_Z   3
loop_
 _symmetry_equiv_pos_site_id
 _symmetry_equiv_pos_as_xyz
  1  'x, y, z'
loop_
 _atom_site_type_symbol
 _atom_site_label
 _atom_site_symmetry_multiplicity
 _atom_site_fract_x
 _atom_site_fract_y
 _atom_site_fract_z
 _atom_site_occupancy
  Na  Na0  1  0.37305754  0.34921694  0.24459085  1
  Na  Na1  1  0.00014564  0.64130316  0.23448928  1
  Na  Na2  1  0.98698001  0.34504327  0.74070390  1
  Na  Na3  1  0.38886201  0.03072646  0.74476207  1
  Na  Na4  1  0.29685165  0.33288788  0.58222462  1
  Na  Na5  1  0.65622277  0.98479745  0.59567563  1
  Na  Na6  1  0.29950107  0.95792259  0.06977780  1
  Na  Na7  1  0.65785474  0.67675505  0.07960452  1
  Na  Na8  1  0.99074983  0.68738654  0.91795905  1
  Na  Na9  1  0.31872027  0.27777328  0.90501749  1
  Na  Na10  1  0.99147879  0.30353873  0.43123960  1
  Na  Na11  1  0.32108310  0.04189171  0.41543778  1
  Na  Na12  1  0.01260852  0.00285967  0.50480604  1
  Na  Na13  1  0.00924395  0.01041363  0.99122274  1
  Na  Na14  1  0.64725866  0.30926788  0.82141535  1
  Na  Na15  1  0.64081706  0.32020187  0.32934552  1
  Na  Na16  1  0.31730047  0.65357579  0.15341741  1
  Na  Na17  1  0.32154562  0.66503176  0.65889232  1
  Hf  Hf0  1  0.00387064  0.01330667  0.64918546  1
  Hf  Hf1  1  0.01627609  0.00209521  0.14443148  1
  Hf  Hf2  1  0.65645717  0.32598650  0.98331403  1
  Hf  Hf3  1  0.65259274  0.33019600  0.48623031  1
  Hf  Hf4  1  0.34047416  0.66831981  0.31512729  1
  Hf  Hf5  1  0.35117472  0.68414841  0.81044778  1
  Mg  Mg0  1  0.01876855  0.01239627  0.35046481  1
  Mg  Mg1  1  0.01583933  0.01099047  0.84533501  1
  Mg  Mg2  1  0.65904440  0.31672554  0.68440657  1
  Mg  Mg3  1  0.65627257  0.32739008  0.18058088  1
  Mg  Mg4  1  0.30690657  0.65717720  0.02016381  1
  Mg  Mg5  1  0.31230917  0.64890031  0.52293168  1
  Si  Si0  1  0.30715870  0.00262866  0.25309906  1
  Si  Si1  1  0.30624915  0.30364338  0.75343133  1
  Si  Si2  1  0.71334118  0.00252022  0.75149945  1
  Si  Si3  1  0.96023586  0.33652912  0.58575422  1
  Si  Si4  1  0.36274168  0.02376573  0.58452413  1
  Si  Si5  1  0.95784086  0.62009206  0.08832369  1
  Si  Si6  1  0.37139679  0.34368390  0.08616044  1
  Si  Si7  1  0.32942906  0.96124208  0.91976821  1
  Si  Si8  1  0.33442882  0.37068895  0.41744100  1
  S  S0  1  0.71084394  0.71614015  0.25238041  1
  S  S1  1  0.99560312  0.29138798  0.25329090  1
  S  S2  1  0.99705508  0.70632287  0.75346303  1
  S  S3  1  0.67012983  0.62753472  0.58499446  1
  S  S4  1  0.66971398  0.04211766  0.08555950  1
  S  S5  1  0.62805634  0.66801862  0.92032256  1
  S  S6  1  0.03869850  0.37377312  0.91756863  1
  S  S7  1  0.63230884  0.96045583  0.41739896  1
  S  S8  1  0.03964298  0.66665896  0.41460209  1
  O  O0  1  0.21612020  0.02533999  0.31081442  1
  O  O1  1  0.81449252  0.81094106  0.30360502  1
  O  O2  1  0.97986689  0.19685916  0.30789912  1
  O  O3  1  0.22855343  0.18828211  0.81172669  1
  O  O4  1  0.98310048  0.78277147  0.80881925  1
  O  O5  1  0.82967845  0.01585442  0.80670068  1
  O  O6  1  0.79187542  0.97260974  0.68894326  1
  O  O7  1  0.17490273  0.20688187  0.69460814  1
  O  O8  1  0.02601475  0.82029806  0.70176011  1
  O  O9  1  0.78198625  0.81081868  0.19618204  1
  O  O10  1  0.01802265  0.20426779  0.20109145  1
  O  O11  1  0.17651479  0.97110148  0.19434402  1
  O  O12  1  0.86589931  0.35291791  0.64222597  1
  O  O13  1  0.47776317  0.11461217  0.64193671  1
  O  O14  1  0.64765077  0.52243182  0.63609349  1
  O  O15  1  0.86902516  0.51734173  0.14761263  1
  O  O16  1  0.64481942  0.12339165  0.13743795  1
  O  O17  1  0.47708566  0.36727663  0.14690589  1
  O  O18  1  0.46352521  0.29973302  0.02977204  1
  O  O19  1  0.83816156  0.52712399  0.02863642  1
  O  O20  1  0.69586619  0.14663401  0.03108398  1
  O  O21  1  0.45261737  0.15760547  0.52474162  1
  O  O22  1  0.68977549  0.54297959  0.52929952  1
  O  O23  1  0.84587129  0.31391161  0.52245396  1
  O  O24  1  0.54978686  0.68435808  0.97411072  1
  O  O25  1  0.14786356  0.45717497  0.96935853  1
  O  O26  1  0.31084728  0.85113345  0.97826010  1
  O  O27  1  0.55617230  0.86659744  0.47113483  1
  O  O28  1  0.31311395  0.46962895  0.47262551  1
  O  O29  1  0.14951767  0.69576701  0.46635012  1
  O  O30  1  0.12621675  0.64499746  0.36007862  1
  O  O31  1  0.51524578  0.87263040  0.36433883  1
  O  O32  1  0.35304627  0.48139370  0.35524737  1
  O  O33  1  0.11474965  0.47663447  0.86297147  1
  O  O34  1  0.34505191  0.86140353  0.86073429  1
  O  O35  1  0.51521643  0.63983713  0.86714480  1
  O  O36  1  0.01350803  0.81248112  0.40683681  1
  O  O37  1  0.80207747  0.98446436  0.40732481  1
  O  O38  1  0.16409234  0.18122908  0.41433109  1
  O  O39  1  0.01676968  0.20285037  0.91304334  1
  O  O40  1  0.15940116  0.98208736  0.91498568  1
  O  O41  1  0.79985459  0.80930951  0.91311677  1
  O  O42  1  0.96227670  0.15030927  0.58541521  1
  O  O43  1  0.17538661  0.01214190  0.58750487  1
  O  O44  1  0.82489188  0.79635552  0.58721832  1
  O  O45  1  0.95882603  0.80995535  0.08957965  1
  O  O46  1  0.82363762  0.02402134  0.09188871  1
  O  O47  1  0.18220671  0.16621530  0.08888950  1
  O  O48  1  0.69210222  0.16972965  0.74776656  1
  O  O49  1  0.49120847  0.32873884  0.74234578  1
  O  O50  1  0.85380628  0.53700338  0.74537927  1
  O  O51  1  0.69628851  0.54629859  0.25085428  1
  O  O52  1  0.85409684  0.32410740  0.24719940  1
  O  O53  1  0.49035065  0.16975436  0.24509835  1
  O  O54  1  0.63999810  0.50511740  0.92231972  1
  O  O55  1  0.86977720  0.36659341  0.92387821  1
  O  O56  1  0.49997944  0.15547884  0.92148091  1
  O  O57  1  0.64388921  0.13366395  0.41809282  1
  O  O58  1  0.50503043  0.34536547  0.41787249  1
  O  O59  1  0.87499100  0.50485879  0.41767530  1
  O  O60  1  0.36358052  0.51389432  0.07399854  1
  O  O61  1  0.15307634  0.66922353  0.08278314  1
  O  O62  1  0.52279359  0.87171460  0.07813814  1
  O  O63  1  0.36370409  0.85005078  0.57167375  1
  O  O64  1  0.52081625  0.65002584  0.57654815  1
  O  O65  1  0.15633045  0.48369766  0.58154560  1
  O  O66  1  0.30648894  0.81765177  0.25549378  1
  O  O67  1  0.53242246  0.68928562  0.25593465  1
  O  O68  1  0.15898821  0.46378129  0.25546119  1
  O  O69  1  0.29464437  0.48035605  0.75915010  1
  O  O70  1  0.15752904  0.69102798  0.75594588  1
  O  O71  1  0.51341847  0.83688788  0.75339645  1
loop_
_geom_bond_atom_site_label_1
_geom_bond_atom_site_label_2
_geom_bond_distance
_geom_bond_site_symmetry_2
Na0 O53 2.345356 1_555
Na0 O17 2.379447 1_555
Na0 O51 2.575883 1_555
Na0 O68 2.631404 1_555
Na0 O67 2.697425 1_555
Na0 O32 2.815509 1_555
Na0 O0 2.967861 1_555
Na0 O10 2.968647 1_555
Na1 O15 2.267512 1_455
Na1 O66 2.468140 1_555
Na1 O51 2.482034 1_455
Na1 O52 2.524326 1_455
Na1 O68 2.678456 1_555
Na1 O11 2.764700 1_555
Na2 O48 2.350554 1_555
Na2 O69 2.462540 1_655
Na2 O12 2.480492 1_555
Na2 O50 2.567755 1_555
Na2 O70 2.751836 1_655
Na2 O7 2.778871 1_655
Na3 O49 2.389020 1_555
Na3 O48 2.395316 1_555
Na3 O13 2.456525 1_555
Na3 O71 2.524091 1_545
Na3 O70 2.757327 1_545
Na3 O3 2.925227 1_555
Na3 O34 2.959924 1_545
Na3 O8 3.024471 1_545
Na4 O65 2.285866 1_555
Na4 O43 2.558126 1_555
Na4 O64 2.582029 1_555
Na4 O42 2.647377 1_455
Na4 O28 2.735207 1_555
Na4 O7 2.785362 1_555
Na4 O21 2.912549 1_555
Na4 O14 3.011847 1_555
Na5 O63 2.365659 1_555
Na5 O42 2.433254 1_565
Na5 O6 2.452297 1_555
Na5 O13 2.651423 1_565
Na5 O64 2.690533 1_555
Na5 O44 2.810921 1_555
Na5 O27 2.972490 1_555
Na6 O61 2.300387 1_555
Na6 O26 2.305200 1_554
Na6 O62 2.512108 1_555
Na6 O47 2.626272 1_565
Na6 O45 2.737666 1_455
Na6 O18 2.850425 1_565
Na7 O60 2.329852 1_555
Na7 O45 2.387036 1_555
Na7 O24 2.574004 1_554
Na7 O62 2.603496 1_555
Na7 O46 2.755284 1_565
Na7 O19 2.844223 1_555
Na7 O9 2.869457 1_555
Na7 O17 2.895786 1_555
Na8 O40 2.337977 1_655
Na8 O41 2.475309 1_555
Na8 O55 2.559871 1_555
Na8 O4 2.617575 1_555
Na8 O54 2.772661 1_555
Na8 O26 2.852922 1_655
Na8 O19 2.888079 1_556
Na8 O33 2.938069 1_655
Na9 O3 2.248325 1_555
Na9 O40 2.350145 1_545
Na9 O56 2.421448 1_555
Na9 O39 2.485219 1_555
Na9 O54 2.635622 1_555
Na10 O38 2.359325 1_655
Na10 O23 2.484241 1_555
Na10 O59 2.539794 1_555
Na10 O37 2.589211 1_545
Na10 O28 2.693417 1_655
Na10 O57 2.755370 1_555
Na10 O2 2.928236 1_555
Na11 O38 2.325897 1_555
Na11 O58 2.416545 1_555
Na11 O0 2.508302 1_555
Na11 O36 2.532899 1_545
Na11 O57 2.620304 1_555
Na11 O21 2.700310 1_555
Na12 O43 2.338941 1_555
Na12 O42 2.435754 1_455
Na12 O38 2.555648 1_555
Na12 O44 2.604147 1_445
Na12 O36 2.808627 1_545
Na12 O37 2.843310 1_445
Na13 O40 2.297955 1_545
Na13 O39 2.457003 1_555
Na13 O41 2.558062 1_445
Na13 O47 2.653246 1_556
Na13 O45 2.761369 1_446
Na13 O46 2.881055 1_456
Na14 O48 2.248972 1_555
Na14 O49 2.322583 1_555
Na14 O50 2.639711 1_555
Na14 O56 2.654045 1_555
Na14 O54 2.910164 1_555
Na14 O55 2.920453 1_555
Na15 O53 2.331597 1_555
Na15 O58 2.427213 1_555
Na15 O51 2.566517 1_555
Na15 O57 2.627445 1_555
Na15 O52 2.682563 1_555
Na15 O59 2.770573 1_555
Na16 O61 2.218931 1_555
Na16 O60 2.353660 1_555
Na16 O62 2.588569 1_555
Na16 O66 2.771434 1_555
Na16 O68 2.819139 1_555
Na16 O67 2.918473 1_555
Na17 O65 2.345886 1_555
Na17 O63 2.491044 1_555
Na17 O64 2.657127 1_555
Na17 O71 2.690174 1_555
Na17 O70 2.735785 1_555
Na17 O69 2.751941 1_555
Hf0 O7 1.954150 1_555
Hf0 O6 1.995241 1_445
Hf0 O42 2.049215 1_455
Hf0 O43 2.103669 1_555
Hf0 O8 2.202374 1_545
Hf0 O44 2.293819 1_445
Hf1 O11 1.954722 1_545
Hf1 O47 1.969971 1_555
Hf1 O45 1.983935 1_445
Hf1 O46 2.188333 1_455
Hf1 O10 2.231257 1_555
Hf1 O9 2.303767 1_445
Hf2 O18 1.962559 1_556
Hf2 O19 2.021927 1_556
Hf2 O56 2.035099 1_555
Hf2 O20 2.120982 1_556
Hf2 O54 2.187372 1_555
Hf2 O55 2.244196 1_555
Hf3 O21 1.931328 1_555
Hf3 O23 1.996151 1_555
Hf3 O22 2.035382 1_555
Hf3 O58 2.077202 1_555
Hf3 O57 2.326949 1_555
Hf3 O59 2.426044 1_555
Hf4 O32 1.973554 1_555
Hf4 O66 2.033755 1_555
Hf4 O31 2.060209 1_555
Hf4 O30 2.119903 1_555
Hf4 O67 2.140097 1_555
Hf4 O68 2.214076 1_555
Hf5 O71 1.941655 1_555
Hf5 O34 1.993290 1_555
Hf5 O69 2.019454 1_555
Hf5 O35 2.133652 1_555
Hf5 O70 2.157462 1_555
Hf5 O33 2.370707 1_555
Mg0 O0 1.962627 1_555
Mg0 O38 2.030761 1_555
Mg0 O2 2.102441 1_455
Mg0 O1 2.122962 1_445
Mg0 O36 2.195374 1_545
Mg0 O37 2.267835 1_445
Mg1 O5 1.910705 1_455
Mg1 O3 1.963789 1_555
Mg1 O4 2.109725 1_445
Mg1 O40 2.124767 1_545
Mg1 O39 2.314391 1_555
Mg1 O41 2.459900 1_445
Mg2 O12 1.992565 1_555
Mg2 O13 1.993931 1_555
Mg2 O49 2.061770 1_555
Mg2 O48 2.070877 1_555
Mg2 O14 2.205925 1_555
Mg2 O50 2.338797 1_555
Mg3 O17 1.975107 1_555
Mg3 O15 1.999734 1_555
Mg3 O16 2.049413 1_555
Mg3 O53 2.085740 1_555
Mg3 O52 2.337229 1_555
Mg3 O51 2.423490 1_555
Mg4 O26 1.981891 1_554
Mg4 O60 2.017124 1_555
Mg4 O25 2.017243 1_554
Mg4 O61 2.037819 1_555
Mg4 O62 2.348592 1_555
Mg4 O24 2.348601 1_554
Mg5 O63 1.977957 1_555
Mg5 O65 1.985646 1_555
Mg5 O28 1.988110 1_555
Mg5 O29 2.135672 1_555
Mg5 O64 2.228020 1_555
Mg5 O27 2.430274 1_555
O0 Si0 1.616354 1_555
O1 S0 1.461057 1_555
O2 S1 1.466765 1_555
O3 Si1 1.615468 1_555
O4 S2 1.465393 1_555
O5 Si2 1.586813 1_555
O6 Si2 1.669232 1_565
O7 Si1 1.697030 1_555
O8 S2 1.494266 1_455
O9 S0 1.492887 1_555
O10 S1 1.489497 1_455
O11 Si0 1.693320 1_565
O12 Si3 1.590019 1_555
O13 Si4 1.601006 1_555
O14 S3 1.445151 1_555
O15 Si5 1.608020 1_555
O16 S4 1.461583 1_555
O17 Si6 1.613912 1_555
O18 Si6 1.682423 1_555
O19 Si5 1.662236 1_555
O20 S4 1.498364 1_555
O21 Si4 1.732266 1_555
O22 S3 1.529753 1_555
O23 Si3 1.705102 1_555
O24 S5 1.456664 1_555
O25 S6 1.466303 1_555
O26 Si7 1.612528 1_555
O27 S7 1.451327 1_555
O28 Si8 1.603744 1_555
O29 S8 1.461344 1_555
O30 S8 1.530708 1_555
O31 S7 1.526081 1_555
O32 Si8 1.684314 1_555
O33 S6 1.497856 1_555
O34 Si7 1.657397 1_555
O35 S5 1.503854 1_555
O36 S8 1.465711 1_555
O37 S7 1.466237 1_555
O38 Si8 1.651138 1_555
O39 S6 1.467560 1_555
O40 Si7 1.646984 1_555
O41 S5 1.460851 1_555
O42 Si3 1.700134 1_555
O43 Si4 1.652984 1_555
O44 S3 1.482532 1_555
O45 Si5 1.719847 1_555
O46 S4 1.490038 1_555
O47 Si6 1.679071 1_555
O48 Si2 1.624030 1_555
O49 Si1 1.601444 1_555
O50 S2 1.452125 1_555
O51 S0 1.481842 1_555
O52 S1 1.458911 1_555
O53 Si0 1.617174 1_555
O54 S5 1.536093 1_555
O55 S6 1.510419 1_655
O56 Si7 1.676733 1_545
O57 S7 1.523696 1_545
O58 Si8 1.673666 1_555
O59 S8 1.493653 1_655
O60 Si6 1.604734 1_555
O61 Si5 1.605918 1_455
O62 S4 1.469116 1_565
O63 Si4 1.608427 1_565
O64 S3 1.476734 1_555
O65 Si3 1.617956 1_455
O66 Si0 1.677392 1_565
O67 S0 1.516960 1_555
O68 S1 1.535664 1_455
O69 Si1 1.664372 1_555
O70 S2 1.530026 1_455
O71 Si2 1.692165 1_565
