# generated using pymatgen
data_HoGeRu
_symmetry_space_group_name_H-M   'P 1'
_cell_length_a   4.39799512
_cell_length_b   6.99631909
_cell_length_c   7.15935327
_cell_angle_alpha   90.00000000
_cell_angle_beta   90.00000000
_cell_angle_gamma   90.00000000
_symmetry_Int_Tables_number   1
_chemical_formula_structural   HoGeRu
_chemical_formula_sum   'Ho4 Ge4 Ru4'
_cell_volume   220.29170513
_cell_formula_units_Z   4
loop_
 _symmetry_equiv_pos_site_id
 _symmetry_equiv_pos_as_xyz
  1  'x, y, z'
loop_
 _atom_site_type_symbol
 _atom_site_label
 _atom_site_symmetry_multiplicity
 _atom_site_fract_x
 _atom_site_fract_y
 _atom_site_fract_z
 _atom_site_occupancy
  Ho  Ho0  1  0.25000000  0.48438738  0.80788266  1
  Ho  Ho1  1  0.75000000  0.51561262  0.19211734  1
  Ho  Ho2  1  0.25000000  0.98438738  0.69211734  1
  Ho  Ho3  1  0.75000000  0.01561262  0.30788266  1
  Ge  Ge0  1  0.25000000  0.79756710  0.10661677  1
  Ge  Ge1  1  0.75000000  0.20243290  0.89338323  1
  Ge  Ge2  1  0.25000000  0.29756710  0.39338323  1
  Ge  Ge3  1  0.75000000  0.70243290  0.60661677  1
  Ru  Ru0  1  0.75000000  0.84591207  0.93602888  1
  Ru  Ru1  1  0.25000000  0.15408793  0.06397112  1
  Ru  Ru2  1  0.75000000  0.34591207  0.56397112  1
  Ru  Ru3  1  0.25000000  0.65408793  0.43602988  1
loop_
_geom_bond_atom_site_label_1
_geom_bond_atom_site_label_2
_geom_bond_distance
_geom_bond_site_symmetry_2
Ho0 Ru3 2.914974 1_555
Ho0 Ru1 2.949852 1_556
Ho0 Ru2 2.970452 1_455
Ho0 Ru2 2.970452 1_555
Ho1 Ru2 2.914981 1_555
Ho1 Ru0 2.949852 1_554
Ho1 Ru3 2.970456 1_655
Ho1 Ru3 2.970456 1_555
Ho2 Ru1 2.914981 1_566
Ho2 Ru3 2.949847 1_555
Ho2 Ru0 2.970452 1_455
Ho2 Ru0 2.970452 1_555
Ho3 Ru0 2.914981 1_544
Ho3 Ru2 2.949852 1_555
Ho3 Ru1 2.970452 1_655
Ho3 Ru1 2.970452 1_555
Ge0 Ru1 2.512950 1_565
Ge0 Ru0 2.538024 1_454
Ge0 Ru0 2.538024 1_554
Ge0 Ru3 2.563132 1_555
Ge0 Ho1 3.016888 1_555
Ge0 Ho1 3.016888 1_455
Ge0 Ho3 3.039585 1_565
Ge0 Ho3 3.039585 1_465
Ge0 Ho0 3.061889 1_554
Ge0 Ho2 3.242643 1_554
Ge1 Ru0 2.512950 1_545
Ge1 Ru1 2.538024 1_656
Ge1 Ru1 2.538024 1_556
Ge1 Ru2 2.563125 1_555
Ge1 Ho0 3.016888 1_655
Ge1 Ho0 3.016888 1_555
Ge1 Ho2 3.039585 1_545
Ge1 Ho2 3.039585 1_645
Ge1 Ho1 3.061889 1_556
Ge1 Ho3 3.242643 1_556
Ge2 Ru3 2.512951 1_555
Ge2 Ru2 2.538024 1_455
Ge2 Ru2 2.538024 1_555
Ge2 Ru1 2.563125 1_555
Ge2 Ho3 3.016888 1_455
Ge2 Ho3 3.016888 1_555
Ge2 Ho1 3.039585 1_555
Ge2 Ho1 3.039585 1_455
Ge2 Ho2 3.061889 1_545
Ge2 Ho0 3.242643 1_555
Ge3 Ru2 2.512950 1_555
Ge3 Ru3 2.538021 1_655
Ge3 Ru3 2.538021 1_555
Ge3 Ru0 2.563125 1_555
Ge3 Ho2 3.016888 1_655
Ge3 Ho2 3.016888 1_555
Ge3 Ho0 3.039585 1_655
Ge3 Ho0 3.039585 1_555
Ge3 Ho3 3.061889 1_565
Ge3 Ho1 3.242643 1_555
