# generated using pymatgen
data_Mg2Ta10Si9(SO8)9
_symmetry_space_group_name_H-M   'P 1'
_cell_length_a   8.83228615
_cell_length_b   8.86103652
_cell_length_c   22.79532949
_cell_angle_alpha   90.28072556
_cell_angle_beta   89.83141932
_cell_angle_gamma   119.83691298
_symmetry_Int_Tables_number   1
_chemical_formula_structural   Mg2Ta10Si9(SO8)9
_chemical_formula_sum   'Mg2 Ta10 Si9 S9 O72'
_cell_volume   1547.53415042
_cell_formula_units_Z   1
loop_
 _symmetry_equiv_pos_site_id
 _symmetry_equiv_pos_as_xyz
  1  'x, y, z'
loop_
 _atom_site_type_symbol
 _atom_site_label
 _atom_site_symmetry_multiplicity
 _atom_site_fract_x
 _atom_site_fract_y
 _atom_site_fract_z
 _atom_site_occupancy
  Mg  Mg0  1  0.68147126  0.34207969  0.69240267  1
  Mg  Mg1  1  0.66217774  0.33683576  0.18823618  1
  Ta  Ta0  1  -0.00005591  0.00075382  0.36056350  1
  Ta  Ta1  1  -0.00023183  0.99001011  0.85962063  1
  Ta  Ta2  1  0.00204410  -0.00000770  0.64489022  1
  Ta  Ta3  1  0.00485627  0.00439680  0.14047441  1
  Ta  Ta4  1  0.65220162  0.33049077  0.97164279  1
  Ta  Ta5  1  0.67756757  0.33009644  0.47539641  1
  Ta  Ta6  1  0.33257704  0.65574471  0.01803812  1
  Ta  Ta7  1  0.32560184  0.65981774  0.52270450  1
  Ta  Ta8  1  0.33407286  0.66430314  0.31380923  1
  Ta  Ta9  1  0.32380240  0.66547804  0.81016995  1
  Si  Si0  1  0.99346590  0.70726734  0.74925566  1
  Si  Si1  1  0.94979902  0.33095220  0.58716180  1
  Si  Si2  1  0.39211287  0.34351387  0.08695678  1
  Si  Si3  1  0.61507401  0.66747151  0.91334584  1
  Si  Si4  1  0.04483933  0.37974699  0.91468191  1
  Si  Si5  1  0.33222533  0.94492400  0.91717622  1
  Si  Si6  1  0.61262740  0.94711283  0.41790828  1
  Si  Si7  1  0.33907473  0.38440524  0.41733498  1
  Si  Si8  1  0.05039178  0.66650444  0.41695705  1
  S  S0  1  0.28452882  0.99818451  0.24930536  1
  S  S1  1  0.71633990  0.71547759  0.24960490  1
  S  S2  1  0.99811223  0.28436296  0.24891392  1
  S  S3  1  0.28648445  0.28437798  0.74943913  1
  S  S4  1  0.71352624  -0.00153923  0.75029003  1
  S  S5  1  0.38273097  0.04907471  0.58476434  1
  S  S6  1  0.66539527  0.61916886  0.58471119  1
  S  S7  1  0.95429787  0.61811223  0.08581531  1
  S  S8  1  0.66387907  0.04600187  0.08558549  1
  O  O0  1  0.19497114  0.02193646  0.30123233  1
  O  O1  1  0.82559925  0.80746359  0.30204305  1
  O  O2  1  0.97578838  0.17440106  0.30093431  1
  O  O3  1  0.19926215  0.17857965  0.80170238  1
  O  O4  1  0.98682636  0.82435282  0.80522086  1
  O  O5  1  0.82528714  0.02699957  0.80227756  1
  O  O6  1  0.80343385  0.97305582  0.69677284  1
  O  O7  1  0.16827554  0.20162846  0.69590843  1
  O  O8  1  0.02921903  0.84101668  0.69226594  1
  O  O9  1  0.79936879  0.82814879  0.19739077  1
  O  O10  1  0.02566286  0.19588195  0.19642868  1
  O  O11  1  0.16870385  0.97042875  0.19694375  1
  O  O12  1  0.86402959  0.36491307  0.64119543  1
  O  O13  1  0.48348107  0.12522487  0.63688345  1
  O  O14  1  0.62893013  0.51322674  0.63596676  1
  O  O15  1  0.88116439  0.51528252  0.13813727  1
  O  O16  1  0.64324322  0.12532378  0.13836270  1
  O  O17  1  0.49630068  0.36670738  0.14479971  1
  O  O18  1  0.47735654  0.30492792  0.02827583  1
  O  O19  1  0.84600897  0.54685444  0.03327106  1
  O  O20  1  0.70502669  0.15515711  0.03307429  1
  O  O21  1  0.45930675  0.15744291  0.53105709  1
  O  O22  1  0.69693879  0.54211056  0.53091601  1
  O  O23  1  0.83194515  0.30423769  0.52611908  1
  O  O24  1  0.52781240  0.69703356  0.97316506  1
  O  O25  1  0.16989097  0.47031691  0.97261771  1
  O  O26  1  0.30194717  0.83075992  0.97601600  1
  O  O27  1  0.53000791  0.82786060  0.47424342  1
  O  O28  1  0.29949558  0.47329269  0.47270001  1
  O  O29  1  0.17373195  0.70445647  0.47323149  1
  O  O30  1  0.13981676  0.63401269  0.35783623  1
  O  O31  1  0.49381306  0.85676249  0.35808008  1
  O  O32  1  0.36598589  0.50403956  0.35801459  1
  O  O33  1  0.13535254  0.50622801  0.85846799  1
  O  O34  1  0.36691015  0.85792087  0.85954826  1
  O  O35  1  0.49427057  0.63141306  0.85680626  1
  O  O36  1  0.02920406  0.83569066  0.40171632  1
  O  O37  1  0.80604633  0.97440279  0.40172676  1
  O  O38  1  0.16720811  0.19610334  0.40095604  1
  O  O39  1  0.02647525  0.19392180  0.90096256  1
  O  O40  1  0.16876930  0.97660765  0.90683897  1
  O  O41  1  0.80572003  0.83839401  0.90612722  1
  O  O42  1  0.97879335  0.16083406  0.59458784  1
  O  O43  1  0.20168660  0.02670398  0.59079323  1
  O  O44  1  0.82409674  0.79787125  0.59215963  1
  O  O45  1  0.97137826  0.80006607  0.09617781  1
  O  O46  1  0.82477940  0.02023331  0.09548765  1
  O  O47  1  0.18732111  0.16384044  0.09629224  1
  O  O48  1  0.68676781  0.14383363  0.74199720  1
  O  O49  1  0.45198115  0.29580022  0.73899073  1
  O  O50  1  0.82258925  0.52749257  0.74632038  1
  O  O51  1  0.70251487  0.54670977  0.24431252  1
  O  O52  1  0.84654921  0.30306472  0.24022500  1
  O  O53  1  0.45559212  0.14777469  0.24238376  1
  O  O54  1  0.64143026  0.50080047  0.92742107  1
  O  O55  1  0.85984587  0.36176900  0.93413659  1
  O  O56  1  0.50579517  0.13627499  0.92693840  1
  O  O57  1  0.63236311  0.13763673  0.42644502  1
  O  O58  1  0.50263348  0.36001324  0.43131363  1
  O  O59  1  0.85845745  0.50141374  0.42734767  1
  O  O60  1  0.35001630  0.50043151  0.07327134  1
  O  O61  1  0.13395697  0.65293070  0.07657211  1
  O  O62  1  0.51461200  0.87035557  0.07674884  1
  O  O63  1  0.35814691  0.87129746  0.57417157  1
  O  O64  1  0.51532754  0.64993321  0.57333353  1
  O  O65  1  0.14662470  0.49859967  0.57137465  1
  O  O66  1  0.29215777  0.83423862  0.25582324  1
  O  O67  1  0.54110850  0.70181178  0.25702190  1
  O  O68  1  0.16099880  0.45634714  0.25536954  1
  O  O69  1  0.29897930  0.45762331  0.75562053  1
  O  O70  1  0.17843108  0.70261307  0.75789705  1
  O  O71  1  0.54548642  0.83204618  0.75607397  1
loop_
_geom_bond_atom_site_label_1
_geom_bond_atom_site_label_2
_geom_bond_distance
_geom_bond_site_symmetry_2
Mg0 O12 1.915715 1_555
Mg0 O50 1.927426 1_555
Mg0 O48 2.113691 1_555
Mg0 O49 2.137498 1_555
Mg0 O14 2.212054 1_555
Mg0 O13 2.235527 1_555
Mg1 O17 1.895754 1_555
Mg1 O16 2.121675 1_555
Mg1 O15 2.122943 1_555
Mg1 O51 2.130613 1_555
Mg1 O53 2.150505 1_555
Mg1 O52 2.155342 1_555
O0 S0 1.492920 1_545
O0 Ta0 2.120989 1_555
O1 S1 1.496335 1_555
O1 Ta0 2.109394 1_665
O2 S2 1.487695 1_555
O2 Ta0 2.146991 1_655
O3 S3 1.476001 1_555
O3 Ta1 2.172094 1_545
O4 Si0 1.659668 1_555
O4 Ta1 1.876584 1_655
O5 S4 1.482659 1_555
O5 Ta1 2.170169 1_645
O6 S4 1.529379 1_565
O6 Ta2 2.026521 1_665
O7 S3 1.534167 1_555
O7 Ta2 2.019860 1_555
O8 Si0 1.682927 1_455
O8 Ta2 1.887105 1_565
O9 S1 1.493047 1_555
O9 Ta3 2.145191 1_665
O10 S2 1.511381 1_455
O10 Ta3 2.051717 1_555
O11 S0 1.511835 1_555
O11 Ta3 2.071233 1_565
O12 Si1 1.548956 1_555
O13 S5 1.435114 1_555
O14 S6 1.434505 1_555
O15 S7 1.445842 1_555
O16 S8 1.446560 1_555
O17 Si2 1.563299 1_555
O18 Si2 1.648883 1_555
O18 Ta4 1.935400 1_554
O19 S7 1.465093 1_555
O19 Ta4 2.302504 1_554
O20 S8 1.469505 1_555
O20 Ta4 2.310611 1_554
O21 S5 1.496251 1_555
O21 Ta5 2.176364 1_555
O22 S6 1.492212 1_555
O22 Ta5 2.195109 1_555
O23 Si1 1.684012 1_555
O23 Ta5 1.889790 1_555
O24 Si3 1.647191 1_555
O24 Ta6 1.875942 1_556
O25 Si4 1.650547 1_555
O25 Ta6 1.865255 1_556
O26 Si5 1.623538 1_555
O26 Ta6 1.956876 1_556
O27 Si6 1.593333 1_555
O27 Ta7 2.006567 1_555
O28 Si7 1.611527 1_555
O28 Ta7 1.920442 1_555
O29 Si8 1.607746 1_555
O29 Ta7 1.941327 1_555
O30 Si8 1.655043 1_555
O30 Ta8 1.886069 1_555
O31 Si6 1.662492 1_555
O31 Ta8 1.874735 1_555
O32 Si7 1.664399 1_555
O32 Ta8 1.877643 1_555
O33 Si4 1.629020 1_555
O33 Ta9 1.908158 1_555
O34 Si5 1.623755 1_555
O34 Ta9 1.912444 1_555
O35 Si3 1.602013 1_555
O35 Ta9 1.988208 1_555
O36 Si8 1.639471 1_555
O36 Ta0 1.864696 1_565
O37 Si6 1.642873 1_555
O37 Ta0 1.860815 1_665
O38 Si7 1.644572 1_555
O38 Ta0 1.863975 1_555
O39 Si4 1.601534 1_555
O39 Ta1 1.941405 1_545
O40 Si5 1.620048 1_555
O40 Ta1 1.894150 1_555
O41 Si3 1.618454 1_555
O41 Ta1 1.891635 1_655
O42 Si1 1.659350 1_555
O42 Ta2 1.922733 1_655
O43 S5 1.516134 1_555
O43 Ta2 2.064145 1_555
O44 S6 1.513659 1_555
O44 Ta2 2.076470 1_665
O45 S7 1.559652 1_555
O45 Ta3 1.958663 1_665
O46 S8 1.564592 1_555
O46 Ta3 1.958079 1_655
O47 Si2 1.728366 1_555
O47 Ta3 1.829309 1_555
O48 S4 1.434057 1_555
O49 S3 1.433371 1_555
O50 Si0 1.557914 1_555
O51 S1 1.443078 1_555
O52 S2 1.442669 1_555
O53 S0 1.439614 1_545
O54 Si3 1.638745 1_555
O54 Ta4 1.860374 1_555
O55 Si4 1.621466 1_655
O55 Ta4 1.912732 1_555
O56 Si5 1.639029 1_545
O56 Ta4 1.856998 1_555
O57 Si6 1.619431 1_545
O57 Ta5 1.902462 1_555
O58 Si7 1.596619 1_555
O58 Ta5 1.971449 1_555
O59 Si8 1.613458 1_655
O59 Ta5 1.910314 1_555
O60 Si2 1.639600 1_555
O60 Ta6 1.931848 1_555
O61 S7 1.472764 1_455
O61 Ta6 2.191225 1_555
O62 S8 1.468937 1_565
O62 Ta6 2.222114 1_555
O63 S5 1.497736 1_565
O63 Ta7 2.101214 1_555
O64 S6 1.503538 1_555
O64 Ta7 2.075104 1_555
O65 Si1 1.670401 1_455
O65 Ta7 1.878468 1_555
O66 S0 1.495533 1_555
O66 Ta8 2.174574 1_555
O67 S1 1.500259 1_555
O67 Ta8 2.124960 1_555
O68 S2 1.493739 1_455
O68 Ta8 2.166086 1_555
O69 S3 1.489316 1_555
O69 Ta9 2.136328 1_555
O70 Si0 1.666848 1_455
O70 Ta9 1.899986 1_555
O71 S4 1.489161 1_565
O71 Ta9 2.158877 1_555
