# generated using pymatgen
data_PrSnPt
_symmetry_space_group_name_H-M   'P 1'
_cell_length_a   4.65028092
_cell_length_b   7.52921769
_cell_length_c   8.07780315
_cell_angle_alpha   90.00000000
_cell_angle_beta   90.00000000
_cell_angle_gamma   90.00000000
_symmetry_Int_Tables_number   1
_chemical_formula_structural   PrSnPt
_chemical_formula_sum   'Pr4 Sn4 Pt4'
_cell_volume   282.82793886
_cell_formula_units_Z   4
loop_
 _symmetry_equiv_pos_site_id
 _symmetry_equiv_pos_as_xyz
  1  'x, y, z'
loop_
 _atom_site_type_symbol
 _atom_site_label
 _atom_site_symmetry_multiplicity
 _atom_site_fract_x
 _atom_site_fract_y
 _atom_site_fract_z
 _atom_site_occupancy
  Pr  Pr0  1  0.75000000  0.48640748  0.19490104  1
  Pr  Pr1  1  0.25000000  0.01359252  0.69490104  1
  Pr  Pr2  1  0.75000000  0.98640748  0.30509896  1
  Pr  Pr3  1  0.25000000  0.51359252  0.80509896  1
  Sn  Sn0  1  0.25000000  0.67616395  0.41622933  1
  Sn  Sn1  1  0.25000000  0.17616395  0.08377067  1
  Sn  Sn2  1  0.75000000  0.32383605  0.58377067  1
  Sn  Sn3  1  0.75000000  0.82383605  0.91622933  1
  Pt  Pt0  1  0.25000000  0.79228569  0.09108934  1
  Pt  Pt1  1  0.25000000  0.29228569  0.40891066  1
  Pt  Pt2  1  0.75000000  0.70771431  0.59108934  1
  Pt  Pt3  1  0.75000000  0.20771431  0.90891066  1
loop_
_geom_bond_atom_site_label_1
_geom_bond_atom_site_label_2
_geom_bond_distance
_geom_bond_site_symmetry_2
Pr0 Pt3 3.120888 1_554
Pr0 Pt1 3.245152 1_555
Pr0 Pt1 3.245152 1_655
Pr0 Sn0 3.262500 1_655
Pr0 Sn0 3.262500 1_555
Pr0 Sn2 3.371272 1_555
Pr0 Pt0 3.378372 1_555
Pr0 Pt0 3.378372 1_655
Pr0 Sn3 3.394372 1_554
Pr0 Sn1 3.415920 1_555
Pr0 Sn1 3.415920 1_655
Pr0 Pt2 3.608125 1_555
Pr0 Pr2 3.868418 1_545
Pr0 Pr2 3.868418 1_555
Pr0 Pr3 3.919536 1_554
Pr0 Pr3 3.919536 1_654
Pr1 Pt1 3.120888 1_555
Pr1 Pt3 3.245152 1_555
Pr1 Pt3 3.245152 1_455
Pr1 Sn3 3.262500 1_445
Pr1 Sn3 3.262500 1_545
Pr1 Sn1 3.371272 1_556
Pr1 Pt2 3.378372 1_445
Pr1 Pt2 3.378372 1_545
Pr1 Sn0 3.394372 1_545
Pr1 Sn2 3.415920 1_555
Pr1 Sn2 3.415920 1_455
Pr1 Pt0 3.608125 1_546
Pr1 Pr3 3.868418 1_555
Pr1 Pr3 3.868418 1_545
Pr1 Pr2 3.919536 1_445
Pr1 Pr2 3.919536 1_545
Pr2 Pt2 3.120888 1_555
Pr2 Pt0 3.245152 1_655
Pr2 Pt0 3.245152 1_555
Pr2 Sn1 3.262500 1_565
Pr2 Sn1 3.262500 1_665
Pr2 Sn3 3.371272 1_554
Pr2 Pt1 3.378372 1_565
Pr2 Pt1 3.378372 1_665
Pr2 Sn2 3.394372 1_565
Pr2 Sn0 3.415920 1_555
Pr2 Sn0 3.415920 1_655
Pr2 Pt3 3.608125 1_564
Pr3 Pt0 3.120888 1_556
Pr3 Pt2 3.245152 1_455
Pr3 Pt2 3.245152 1_555
Pr3 Sn2 3.262500 1_555
Pr3 Sn2 3.262500 1_455
Pr3 Sn0 3.371272 1_555
Pr3 Pt3 3.378372 1_455
Pr3 Pt3 3.378372 1_555
Pr3 Sn1 3.394372 1_556
Pr3 Sn3 3.415920 1_455
Pr3 Sn3 3.415920 1_555
Pr3 Pt1 3.608125 1_555
Pt0 Sn3 2.730901 1_554
Pt0 Sn3 2.730901 1_454
Pt0 Sn0 2.768118 1_555
Pt0 Sn1 2.890908 1_565
Pt1 Sn2 2.730901 1_455
Pt1 Sn2 2.730901 1_555
Pt1 Sn1 2.768118 1_555
Pt1 Sn0 2.890908 1_555
Pt2 Sn0 2.730901 1_555
Pt2 Sn0 2.730901 1_655
Pt2 Sn3 2.768118 1_555
Pt2 Sn2 2.890908 1_555
Pt3 Sn1 2.730901 1_656
Pt3 Sn1 2.730901 1_556
Pt3 Sn2 2.768118 1_555
Pt3 Sn3 2.890908 1_545
