# generated using pymatgen
data_Sr2MnCuSO3
_symmetry_space_group_name_H-M   'P 1'
_cell_length_a   3.91260700
_cell_length_b   3.91260700
_cell_length_c   16.10308500
_cell_angle_alpha   90.00000000
_cell_angle_beta   90.00000000
_cell_angle_gamma   90.00000000
_symmetry_Int_Tables_number   1
_chemical_formula_structural   Sr2MnCuSO3
_chemical_formula_sum   'Sr4 Mn2 Cu2 S2 O6'
_cell_volume   246.51397264
_cell_formula_units_Z   2
loop_
 _symmetry_equiv_pos_site_id
 _symmetry_equiv_pos_as_xyz
  1  'x, y, z'
loop_
 _atom_site_type_symbol
 _atom_site_label
 _atom_site_symmetry_multiplicity
 _atom_site_fract_x
 _atom_site_fract_y
 _atom_site_fract_z
 _atom_site_occupancy
  Sr  Sr0  1  0.00000000  0.50000000  0.18748200  1
  Sr  Sr1  1  0.50000000  0.00000000  0.81251800  1
  Sr  Sr2  1  0.00000000  0.50000000  0.41729700  1
  Sr  Sr3  1  0.50000000  0.00000000  0.58270300  1
  Mn  Mn0  1  0.50000000  0.00000000  0.30580600  1
  Mn  Mn1  1  0.00000000  0.50000000  0.69419400  1
  Cu  Cu0  1  0.00000000  0.00000000  0.00000000  1
  Cu  Cu1  1  0.50000000  0.50000000  0.00000000  1
  S  S0  1  0.50000000  0.00000000  0.08641500  1
  S  S1  1  0.00000000  0.50000000  0.91358500  1
  O  O0  1  0.00000000  0.00000000  0.28538800  1
  O  O1  1  0.50000000  0.50000000  0.28538800  1
  O  O2  1  0.50000000  0.50000000  0.71461200  1
  O  O3  1  0.00000000  0.00000000  0.71461200  1
  O  O4  1  0.50000000  0.00000000  0.43178200  1
  O  O5  1  0.00000000  0.50000000  0.56821800  1
loop_
_geom_bond_atom_site_label_1
_geom_bond_atom_site_label_2
_geom_bond_distance
_geom_bond_site_symmetry_2
Mn0 O0 1.983741 1_555
Mn0 O1 1.983741 1_555
Mn0 O0 1.983741 1_655
Mn0 O1 1.983741 1_545
Mn0 O4 2.028602 1_555
Mn1 O3 1.983741 1_565
Mn1 O2 1.983741 1_455
Mn1 O2 1.983741 1_555
Mn1 O3 1.983741 1_555
Mn1 O5 2.028602 1_555
Cu0 S1 2.400735 1_544
Cu0 S0 2.400735 1_555
Cu0 S1 2.400735 1_554
Cu0 S0 2.400735 1_455
Cu1 S0 2.400735 1_565
Cu1 S1 2.400735 1_554
Cu1 S0 2.400735 1_555
Cu1 S1 2.400735 1_654
S0 Sr0 3.209824 1_645
S0 Sr0 3.209824 1_655
S0 Sr0 3.209824 1_545
S0 Sr0 3.209824 1_555
S1 Sr1 3.209824 1_465
S1 Sr1 3.209824 1_455
S1 Sr1 3.209824 1_555
S1 Sr1 3.209824 1_565
O0 Sr0 2.512520 1_545
O0 Sr0 2.512520 1_555
O0 Sr2 2.887750 1_545
O0 Sr2 2.887750 1_555
O1 Sr0 2.512520 1_655
O1 Sr0 2.512520 1_555
O1 Sr2 2.887750 1_555
O1 Sr2 2.887750 1_655
O2 Sr1 2.512520 1_565
O2 Sr1 2.512520 1_555
O2 Sr3 2.887750 1_565
O2 Sr3 2.887750 1_555
O3 Sr1 2.512520 1_455
O3 Sr1 2.512520 1_555
O3 Sr3 2.887750 1_455
O3 Sr3 2.887750 1_555
O4 Sr3 2.430294 1_555
O4 Sr2 2.776446 1_655
O4 Sr2 2.776446 1_645
O4 Sr2 2.776446 1_555
O4 Sr2 2.776446 1_545
O5 Sr2 2.430294 1_555
O5 Sr3 2.776446 1_465
O5 Sr3 2.776446 1_455
O5 Sr3 2.776446 1_555
O5 Sr3 2.776446 1_565
