# generated using pymatgen
data_ReH3O5
_symmetry_space_group_name_H-M   'P 1'
_cell_length_a   6.03393062
_cell_length_b   6.04778758
_cell_length_c   7.03469002
_cell_angle_alpha   112.42750750
_cell_angle_beta   116.06922725
_cell_angle_gamma   89.51716577
_symmetry_Int_Tables_number   1
_chemical_formula_structural   ReH3O5
_chemical_formula_sum   'Re2 H6 O10'
_cell_volume   209.19523578
_cell_formula_units_Z   2
loop_
 _symmetry_equiv_pos_site_id
 _symmetry_equiv_pos_as_xyz
  1  'x, y, z'
loop_
 _atom_site_type_symbol
 _atom_site_label
 _atom_site_symmetry_multiplicity
 _atom_site_fract_x
 _atom_site_fract_y
 _atom_site_fract_z
 _atom_site_occupancy
  Re  Re0  1  0.12033040  0.85268437  0.72034478  1
  Re  Re1  1  0.88865545  0.13413340  0.23905206  1
  H  H0  1  0.65339757  0.30137759  0.83848350  1
  H  H1  1  0.44436515  0.34466965  0.60711408  1
  H  H2  1  0.31040125  0.73774240  0.35315932  1
  H  H3  1  0.56499761  0.64284023  0.35225330  1
  H  H4  1  0.69943247  0.25066156  0.60725361  1
  H  H5  1  0.35482785  0.68541179  0.12080273  1
  O  O0  1  0.62773532  0.35134345  0.70968200  1
  O  O1  1  0.38141945  0.63652999  0.25038750  1
  O  O2  1  0.25402508  0.89786000  0.55865351  1
  O  O3  1  0.83194056  0.64873700  0.53199137  1
  O  O4  1  0.68223048  0.24561831  0.04562535  1
  O  O5  1  0.93592878  0.85629873  0.08403578  1
  O  O6  1  0.75602602  0.09113556  0.40234163  1
  O  O7  1  0.17724970  0.33791888  0.42571482  1
  O  O8  1  0.32567414  0.73930522  0.91248543  1
  O  O9  1  0.07245971  0.12945586  0.87674725  1
loop_
_geom_bond_atom_site_label_1
_geom_bond_atom_site_label_2
_geom_bond_distance
_geom_bond_site_symmetry_2
H0 O0 1.010488 1_555
H0 O4 1.555151 1_556
H1 O0 1.011592 1_555
H1 O7 1.543205 1_555
H2 O1 1.005582 1_555
H2 O2 1.581671 1_555
H3 O1 1.012002 1_555
H3 O3 1.539793 1_555
H4 O0 1.005920 1_555
H4 O6 1.578365 1_555
H5 O1 1.010152 1_555
H5 O8 1.556159 1_554
O2 Re0 1.751148 1_555
O3 Re0 1.751482 1_655
O4 Re1 1.747503 1_555
O5 Re1 1.720780 1_565
O6 Re1 1.751270 1_555
O7 Re1 1.751323 1_455
O8 Re0 1.747355 1_555
O9 Re0 1.720960 1_545
