# generated using pymatgen
data_KInBr4
_symmetry_space_group_name_H-M   'P 1'
_cell_length_a   7.93746873
_cell_length_b   10.51868933
_cell_length_c   10.49504329
_cell_angle_alpha   90.00000000
_cell_angle_beta   90.00000000
_cell_angle_gamma   90.00000000
_symmetry_Int_Tables_number   1
_chemical_formula_structural   KInBr4
_chemical_formula_sum   'K4 In4 Br16'
_cell_volume   876.24971571
_cell_formula_units_Z   4
loop_
 _symmetry_equiv_pos_site_id
 _symmetry_equiv_pos_as_xyz
  1  'x, y, z'
loop_
 _atom_site_type_symbol
 _atom_site_label
 _atom_site_symmetry_multiplicity
 _atom_site_fract_x
 _atom_site_fract_y
 _atom_site_fract_z
 _atom_site_occupancy
  K  K0  1  0.17899713  0.75000000  0.25000000  1
  K  K1  1  0.32100287  0.75000000  0.75000000  1
  K  K2  1  0.82100287  0.25000000  0.75000000  1
  K  K3  1  0.67899713  0.25000000  0.25000000  1
  In  In0  1  0.75000000  0.67980608  0.50000000  1
  In  In1  1  0.75000000  0.82019392  -0.00000000  1
  In  In2  1  0.25000000  0.32019392  0.50000000  1
  In  In3  1  0.25000000  0.17980608  -0.00000000  1
  Br  Br0  1  0.34426298  0.04811211  0.18832414  1
  Br  Br1  1  0.34426298  0.45188789  0.31167586  1
  Br  Br2  1  0.15573702  0.45188789  0.68832414  1
  Br  Br3  1  0.15573702  0.04811211  0.81167586  1
  Br  Br4  1  0.65573702  0.95188789  0.81167586  1
  Br  Br5  1  0.65573702  0.54811211  0.68832414  1
  Br  Br6  1  0.84426298  0.54811211  0.31167586  1
  Br  Br7  1  0.84426298  0.95188789  0.18832414  1
  Br  Br8  1  0.99513118  0.31815967  0.04222809  1
  Br  Br9  1  0.99513118  0.18184033  0.45777191  1
  Br  Br10  1  0.50486882  0.18184033  0.54222809  1
  Br  Br11  1  0.50486882  0.31815967  0.95777191  1
  Br  Br12  1  0.00486882  0.68184033  0.95777191  1
  Br  Br13  1  0.00486882  0.81815967  0.54222809  1
  Br  Br14  1  0.49513118  0.81815967  0.45777191  1
  Br  Br15  1  0.49513118  0.68184033  0.04222809  1
loop_
_geom_bond_atom_site_label_1
_geom_bond_atom_site_label_2
_geom_bond_distance
_geom_bond_site_symmetry_2
Br0 In3 2.526888 1_555
Br0 K0 3.460160 1_545
Br0 K3 3.462367 1_555
Br1 In2 2.526888 1_555
Br1 K0 3.460160 1_555
Br1 K3 3.462367 1_555
Br2 In2 2.526888 1_555
Br2 K1 3.460160 1_555
Br2 K2 3.462367 1_455
Br3 In3 2.526888 1_556
Br3 K1 3.460160 1_545
Br3 K2 3.462367 1_455
Br4 In1 2.526888 1_556
Br4 K2 3.460160 1_565
Br4 K1 3.462367 1_555
Br5 In0 2.526888 1_555
Br5 K2 3.460160 1_555
Br5 K1 3.462367 1_555
Br6 In0 2.526888 1_555
Br6 K3 3.460160 1_555
Br6 K0 3.462367 1_655
Br7 In1 2.526888 1_555
Br7 K3 3.460160 1_565
Br7 K0 3.462367 1_655
Br8 In3 2.531183 1_655
Br8 K3 3.400814 1_555
Br8 K2 3.439547 1_554
Br9 In2 2.531183 1_655
Br9 K3 3.400814 1_555
Br9 K2 3.439547 1_555
Br10 In2 2.531183 1_555
Br10 K2 3.400814 1_555
Br10 K3 3.439547 1_555
Br11 In3 2.531183 1_556
Br11 K2 3.400814 1_555
Br11 K3 3.439547 1_556
Br12 In1 2.531183 1_456
Br12 K1 3.400814 1_555
Br12 K0 3.439547 1_556
Br13 In0 2.531183 1_455
Br13 K1 3.400814 1_555
Br13 K0 3.439547 1_555
Br14 In0 2.531183 1_555
Br14 K0 3.400814 1_555
Br14 K1 3.439547 1_555
Br15 In1 2.531183 1_555
Br15 K0 3.400814 1_555
Br15 K1 3.439547 1_554
