# generated using pymatgen
data_MgVBO4
_symmetry_space_group_name_H-M   'P 1'
_cell_length_a   4.75702100
_cell_length_b   4.86276570
_cell_length_c   4.75702100
_cell_angle_alpha   60.71677526
_cell_angle_beta   90.00000000
_cell_angle_gamma   119.28319772
_symmetry_Int_Tables_number   1
_chemical_formula_structural   MgVBO4
_chemical_formula_sum   'Mg1 V1 B1 O4'
_cell_volume   79.46661252
_cell_formula_units_Z   1
loop_
 _symmetry_equiv_pos_site_id
 _symmetry_equiv_pos_as_xyz
  1  'x, y, z'
loop_
 _atom_site_type_symbol
 _atom_site_label
 _atom_site_symmetry_multiplicity
 _atom_site_fract_x
 _atom_site_fract_y
 _atom_site_fract_z
 _atom_site_occupancy
  Mg  Mg0  1  0.50000000  0.00000000  0.50000000  1
  V  V0  1  0.00000000  0.00000000  0.00000000  1
  B  B0  1  0.75000000  0.50000000  0.75000000  1
  O  O0  1  0.44382700  0.26501000  0.04730200  1
  O  O1  1  0.68768700  0.73499000  0.44382700  1
  O  O2  1  0.82118500  0.26501000  0.68768700  1
  O  O3  1  0.04730200  0.73499000  0.82118500  1
loop_
_geom_bond_atom_site_label_1
_geom_bond_atom_site_label_2
_geom_bond_distance
_geom_bond_site_symmetry_2
Mg0 O1 1.997917 1_545
Mg0 O0 1.997921 1_555
Mg0 O2 1.997922 1_555
Mg0 O3 1.997926 1_545
B0 O0 1.489354 1_556
B0 O1 1.489356 1_555
B0 O3 1.489359 1_655
B0 O2 1.489362 1_555
O0 V0 1.947036 1_555
O1 V0 1.947037 1_665
O2 V0 1.947030 1_656
O3 V0 1.947028 1_566
