# generated using pymatgen
data_Na7MgGa3Si3(SO8)3
_symmetry_space_group_name_H-M   'P 1'
_cell_length_a   8.96137513
_cell_length_b   8.93607276
_cell_length_c   21.99184968
_cell_angle_alpha   90.70767220
_cell_angle_beta   90.11975664
_cell_angle_gamma   119.94256334
_symmetry_Int_Tables_number   1
_chemical_formula_structural   Na7MgGa3Si3(SO8)3
_chemical_formula_sum   'Na21 Mg3 Ga9 Si9 S9 O72'
_cell_volume   1525.85045739
_cell_formula_units_Z   3
loop_
 _symmetry_equiv_pos_site_id
 _symmetry_equiv_pos_as_xyz
  1  'x, y, z'
loop_
 _atom_site_type_symbol
 _atom_site_label
 _atom_site_symmetry_multiplicity
 _atom_site_fract_x
 _atom_site_fract_y
 _atom_site_fract_z
 _atom_site_occupancy
  Na  Na0  1  0.63489653  0.99387183  0.24406225  1
  Na  Na1  1  0.38118497  0.37681100  0.24185141  1
  Na  Na2  1  0.98673727  0.63497821  0.25362199  1
  Na  Na3  1  0.62402697  0.62551669  0.74224209  1
  Na  Na4  1  0.99711129  0.35474240  0.75071794  1
  Na  Na5  1  0.38206850  0.01416005  0.75496658  1
  Na  Na6  1  0.02240109  0.69876582  0.57850773  1
  Na  Na7  1  0.66577471  0.95722125  0.58395988  1
  Na  Na8  1  0.31205361  0.97792246  0.08179466  1
  Na  Na9  1  0.65771363  0.69461291  0.08870299  1
  Na  Na10  1  0.69536052  0.03547531  0.91670580  1
  Na  Na11  1  0.33297263  0.29040297  0.91774954  1
  Na  Na12  1  0.96113735  0.29768619  0.41404455  1
  Na  Na13  1  0.33382736  0.02430349  0.41671137  1
  Na  Na14  1  0.72059706  0.68373803  0.41568219  1
  Na  Na15  1  0.99242710  0.98983129  0.49873355  1
  Na  Na16  1  0.00712255  0.00695901  0.00236808  1
  Na  Na17  1  0.65889783  0.32462657  0.83248718  1
  Na  Na18  1  0.67523715  0.34499998  0.33235636  1
  Na  Na19  1  0.34154899  0.66005014  0.16169784  1
  Na  Na20  1  0.34785249  0.65295787  0.66632745  1
  Mg  Mg0  1  0.98893740  0.98363650  0.35434063  1
  Mg  Mg1  1  0.65247934  0.33290153  0.68635482  1
  Mg  Mg2  1  0.65668270  0.33807253  0.17816485  1
  Ga  Ga0  1  0.01682176  0.00885373  0.84819867  1
  Ga  Ga1  1  0.98376800  0.99902715  0.65334254  1
  Ga  Ga2  1  0.98036340  0.00988036  0.14409674  1
  Ga  Ga3  1  0.62995125  0.29070626  0.98970181  1
  Ga  Ga4  1  0.69087149  0.35375698  0.48102557  1
  Ga  Ga5  1  0.33338456  0.67506147  0.02042150  1
  Ga  Ga6  1  0.35400291  0.67665176  0.51410918  1
  Ga  Ga7  1  0.35079777  0.68661069  0.32036530  1
  Ga  Ga8  1  0.35224999  0.67665440  0.81442458  1
  Si  Si0  1  0.70365834  0.70275849  0.25068553  1
  Si  Si1  1  0.28876754  0.29299420  0.75077762  1
  Si  Si2  1  0.70999908  0.99943053  0.75298443  1
  Si  Si3  1  0.66306214  0.62709884  0.58392541  1
  Si  Si4  1  0.66796572  0.03960093  0.08394023  1
  Si  Si5  1  0.35794448  0.33396872  0.08356158  1
  Si  Si6  1  0.32149679  0.94882608  0.91636352  1
  Si  Si7  1  0.63220533  0.97313628  0.41931130  1
  Si  Si8  1  0.05355151  0.66671569  0.41782298  1
  S  S0  1  0.28942043  0.99896802  0.25081778  1
  S  S1  1  0.00435497  0.29518868  0.25149635  1
  S  S2  1  0.00180058  0.70904913  0.74942852  1
  S  S3  1  0.96327670  0.33485469  0.58408634  1
  S  S4  1  0.37203049  0.04216772  0.58324435  1
  S  S5  1  0.95644820  0.61890298  0.08259136  1
  S  S6  1  0.63157292  0.66635365  0.91675847  1
  S  S7  1  0.04196614  0.38217826  0.91619213  1
  S  S8  1  0.33318097  0.37531227  0.41577346  1
  O  O0  1  0.21205974  0.02858227  0.30578740  1
  O  O1  1  0.81917711  0.78503150  0.31106965  1
  O  O2  1  0.98190787  0.19250115  0.30651774  1
  O  O3  1  0.21317890  0.17397668  0.81138689  1
  O  O4  1  0.96753354  0.78889556  0.80322287  1
  O  O5  1  0.83206286  0.02558354  0.81293146  1
  O  O6  1  0.78123354  0.95172786  0.69087149  1
  O  O7  1  0.15709175  0.19887655  0.69236883  1
  O  O8  1  0.03495680  0.81687602  0.69408875  1
  O  O9  1  0.79225729  0.83087271  0.19090391  1
  O  O10  1  0.03587398  0.21373688  0.19712726  1
  O  O11  1  0.18355160  0.97411673  0.19581033  1
  O  O12  1  0.88045932  0.35912452  0.63791449  1
  O  O13  1  0.48154798  0.12089737  0.63713695  1
  O  O14  1  0.64346776  0.52187321  0.64419421  1
  O  O15  1  0.88336263  0.52224282  0.13904314  1
  O  O16  1  0.63271831  0.12147676  0.14424115  1
  O  O17  1  0.48265459  0.38395027  0.14248096  1
  O  O18  1  0.44237061  0.29372858  0.02211100  1
  O  O19  1  0.84156558  0.53439375  0.02914184  1
  O  O20  1  0.70633624  0.15469007  0.02182483  1
  O  O21  1  0.45170994  0.14247698  0.52755848  1
  O  O22  1  0.70180473  0.54143526  0.52222559  1
  O  O23  1  0.85221660  0.30103840  0.52785213  1
  O  O24  1  0.54934565  0.69620367  0.97073467  1
  O  O25  1  0.15735582  0.46478531  0.96932037  1
  O  O26  1  0.30075950  0.83756356  0.97691750  1
  O  O27  1  0.55015927  0.84262281  0.47630945  1
  O  O28  1  0.29907891  0.45269789  0.47025246  1
  O  O29  1  0.16846162  0.68710509  0.47911594  1
  O  O30  1  0.13593367  0.62382349  0.35691803  1
  O  O31  1  0.50833441  0.89460666  0.35821561  1
  O  O32  1  0.36695054  0.48354349  0.36090854  1
  O  O33  1  0.12143149  0.47854652  0.85959497  1
  O  O34  1  0.36410968  0.86589564  0.85618845  1
  O  O35  1  0.51892155  0.62909961  0.86097911  1
  O  O36  1  0.04029259  0.84175409  0.41578875  1
  O  O37  1  0.82536412  0.00237548  0.41399863  1
  O  O38  1  0.17958915  0.20218046  0.40836722  1
  O  O39  1  0.02078939  0.20285202  0.91370847  1
  O  O40  1  0.15450488  0.98012903  0.91083517  1
  O  O41  1  0.79951805  0.82623995  0.91029953  1
  O  O42  1  0.97745031  0.17531345  0.58673144  1
  O  O43  1  0.19563766  0.01933018  0.58844103  1
  O  O44  1  0.84554381  0.82590801  0.58734328  1
  O  O45  1  0.97868893  0.79719116  0.08718990  1
  O  O46  1  0.83119304  0.00390856  0.08383218  1
  O  O47  1  0.17788782  0.14643955  0.09266127  1
  O  O48  1  0.69721865  0.17408346  0.74664896  1
  O  O49  1  0.48128454  0.31953282  0.74729738  1
  O  O50  1  0.84939674  0.53449024  0.74343639  1
  O  O51  1  0.68291225  0.50977937  0.24518961  1
  O  O52  1  0.84700450  0.31014125  0.24516138  1
  O  O53  1  0.46686810  0.15018985  0.24707002  1
  O  O54  1  0.64897939  0.51062754  0.92255589  1
  O  O55  1  0.86849763  0.36366432  0.92123202  1
  O  O56  1  0.50165862  0.14670697  0.92033404  1
  O  O57  1  0.63586642  0.16027099  0.42827397  1
  O  O58  1  0.48841691  0.35631838  0.42247805  1
  O  O59  1  0.85695010  0.49463865  0.42008308  1
  O  O60  1  0.34517357  0.50812349  0.07105026  1
  O  O61  1  0.13213611  0.64139946  0.07742040  1
  O  O62  1  0.49021158  0.84721314  0.07755068  1
  O  O63  1  0.35148265  0.86338680  0.57938064  1
  O  O64  1  0.49253933  0.65385022  0.57595514  1
  O  O65  1  0.13273307  0.49240856  0.57773570  1
  O  O66  1  0.30068195  0.83622865  0.25443444  1
  O  O67  1  0.50477558  0.68376849  0.25674518  1
  O  O68  1  0.15971997  0.47077268  0.25455826  1
  O  O69  1  0.29874761  0.48431843  0.75851531  1
  O  O70  1  0.15758037  0.69204422  0.75578231  1
  O  O71  1  0.51543374  0.82553589  0.75571562  1
loop_
_geom_bond_atom_site_label_1
_geom_bond_atom_site_label_2
_geom_bond_distance
_geom_bond_site_symmetry_2
Na0 O67 2.431318 1_555
Na0 O16 2.490710 1_565
Na0 O52 2.497288 1_565
Na0 O53 2.514118 1_565
Na0 O66 2.608765 1_555
Na0 O31 2.727290 1_555
Na0 O9 2.737176 1_555
Na1 O51 2.349056 1_555
Na1 O17 2.358063 1_555
Na1 O67 2.408638 1_555
Na1 O53 2.502282 1_555
Na1 O68 2.526238 1_555
Na1 O32 2.800452 1_555
Na1 O10 2.849030 1_555
Na2 O51 2.377196 1_555
Na2 O66 2.469382 1_655
Na2 O52 2.527021 1_555
Na2 O68 2.613016 1_655
Na2 O30 2.661568 1_655
Na2 O15 2.686702 1_555
Na2 O1 2.761312 1_555
Na2 O11 2.946223 1_655
Na3 O49 2.375195 1_555
Na3 O14 2.377158 1_555
Na3 O71 2.440091 1_555
Na3 O50 2.526157 1_555
Na3 O69 2.561442 1_555
Na3 O35 2.783004 1_555
Na3 O6 2.783331 1_555
Na3 O4 2.975543 1_555
Na4 O48 2.345425 1_555
Na4 O69 2.354880 1_655
Na4 O50 2.546742 1_555
Na4 O70 2.613347 1_655
Na4 O33 2.625135 1_655
Na4 O12 2.698313 1_555
Na4 O7 2.756595 1_655
Na4 O5 2.911402 1_555
Na5 O49 2.419808 1_555
Na5 O48 2.455884 1_555
Na5 O71 2.506254 1_545
Na5 O70 2.560013 1_545
Na5 O34 2.568674 1_545
Na5 O13 2.764265 1_555
Na5 O3 2.826929 1_555
Na6 O44 2.373569 1_455
Na6 O65 2.489509 1_555
Na6 O43 2.491465 1_565
Na6 O63 2.555295 1_555
Na6 O29 2.577661 1_555
Na6 O8 2.720580 1_555
Na6 O22 2.769955 1_455
Na6 O12 2.964359 1_455
Na7 O64 2.361372 1_555
Na7 O44 2.422075 1_555
Na7 O42 2.483031 1_565
Na7 O63 2.506995 1_555
Na7 O27 2.568576 1_555
Na7 O6 2.577674 1_555
Na7 O13 2.934069 1_565
Na7 O23 2.954903 1_565
Na8 O47 2.360093 1_565
Na8 O62 2.404462 1_555
Na8 O26 2.589194 1_554
Na8 O45 2.595542 1_455
Na8 O61 2.608469 1_555
Na8 O11 2.754896 1_555
Na8 O18 2.803324 1_565
Na8 O16 2.837122 1_565
Na9 O46 2.405425 1_565
Na9 O60 2.468280 1_555
Na9 O62 2.494574 1_555
Na9 O9 2.538405 1_555
Na9 O45 2.546374 1_555
Na9 O17 2.703307 1_555
Na9 O24 2.770931 1_554
Na9 O19 2.966063 1_555
Na10 O56 2.393423 1_555
Na10 O41 2.474516 1_545
Na10 O20 2.514443 1_556
Na10 O39 2.528860 1_655
Na10 O55 2.543197 1_555
Na10 O5 2.613758 1_555
Na10 O34 2.884882 1_545
Na10 O24 2.907034 1_545
Na11 O40 2.414616 1_545
Na11 O56 2.424120 1_555
Na11 O18 2.487830 1_556
Na11 O39 2.501763 1_555
Na11 O54 2.516691 1_555
Na11 O3 2.553576 1_555
Na11 O35 2.926303 1_555
Na11 O25 2.933127 1_555
Na12 O37 2.288882 1_555
Na12 O59 2.371078 1_555
Na12 O38 2.498497 1_655
Na12 O57 2.557828 1_555
Na12 O2 2.575187 1_555
Na12 O23 2.693582 1_555
Na12 O30 2.840264 1_655
Na12 O28 2.893522 1_655
Na13 O36 2.301359 1_545
Na13 O57 2.360849 1_555
Na13 O58 2.573856 1_555
Na13 O38 2.582641 1_555
Na13 O21 2.643044 1_555
Na13 O0 2.678769 1_555
Na13 O31 2.687853 1_545
Na14 O1 2.480786 1_555
Na14 O36 2.482565 1_655
Na14 O37 2.514845 1_565
Na14 O59 2.534290 1_555
Na14 O58 2.616683 1_555
Na14 O22 2.645170 1_555
Na14 O27 2.872787 1_555
Na14 O32 2.994345 1_555
Na15 O36 2.402613 1_655
Na15 O44 2.414989 1_555
Na15 O37 2.426415 1_565
Na15 O42 2.579597 1_565
Na15 O43 2.602057 1_665
Na15 O38 2.700606 1_665
Na16 O46 2.380350 1_455
Na16 O47 2.420845 1_555
Na16 O40 2.483795 1_544
Na16 O45 2.582617 1_445
Na16 O39 2.598512 1_554
Na16 O41 2.659520 1_444
Na17 O48 2.427423 1_555
Na17 O49 2.441001 1_555
Na17 O56 2.469096 1_555
Na17 O54 2.600174 1_555
Na17 O55 2.602396 1_555
Na17 O50 2.678682 1_555
Na18 O51 2.411811 1_555
Na18 O59 2.431314 1_555
Na18 O52 2.572884 1_555
Na18 O53 2.587440 1_555
Na18 O57 2.608980 1_555
Na18 O58 2.630421 1_555
Na19 O60 2.407430 1_555
Na19 O62 2.420559 1_555
Na19 O67 2.494097 1_555
Na19 O61 2.578811 1_555
Na19 O68 2.652236 1_555
Na19 O66 2.696554 1_555
Na20 O64 2.373191 1_555
Na20 O69 2.447877 1_555
Na20 O71 2.469577 1_555
Na20 O65 2.593217 1_555
Na20 O63 2.687231 1_555
Na20 O70 2.736990 1_555
Mg0 O1 1.904369 1_555
Mg0 O37 2.036098 1_565
Mg0 O36 2.065832 1_655
Mg0 O0 2.125378 1_665
Mg0 O38 2.178990 1_665
Mg0 O2 2.181562 1_565
Mg1 O14 1.972888 1_555
Mg1 O49 1.998423 1_555
Mg1 O13 2.037773 1_555
Mg1 O48 2.131993 1_555
Mg1 O50 2.167133 1_555
Mg1 O12 2.213825 1_555
Mg2 O17 1.963957 1_555
Mg2 O16 1.974246 1_555
Mg2 O51 2.040810 1_555
Mg2 O15 2.068848 1_555
Mg2 O53 2.287187 1_555
Mg2 O52 2.359144 1_555
Ga0 O3 1.836432 1_555
Ga0 O5 1.899948 1_455
Ga0 O40 1.950255 1_545
Ga0 O4 2.029861 1_445
Ga0 O39 2.226813 1_555
Ga0 O41 2.283454 1_445
Ga1 O6 1.844741 1_555
Ga1 O7 1.877756 1_665
Ga1 O44 2.014535 1_555
Ga1 O8 2.107732 1_655
Ga1 O42 2.185503 1_565
Ga1 O43 2.312750 1_665
Ga2 O46 1.861703 1_555
Ga2 O47 1.946293 1_655
Ga2 O9 1.953485 1_545
Ga2 O10 1.991620 1_655
Ga2 O45 2.256423 1_545
Ga2 O11 2.300488 1_645
Ga3 O20 1.815126 1_556
Ga3 O18 1.839640 1_556
Ga3 O56 1.942207 1_555
Ga3 O19 2.216885 1_556
Ga3 O54 2.410386 1_555
Ga3 O55 2.430766 1_555
Ga4 O22 1.855074 1_555
Ga4 O57 1.917173 1_555
Ga4 O59 1.943134 1_555
Ga4 O23 2.014622 1_555
Ga4 O58 2.232119 1_555
Ga4 O21 2.285324 1_555
Ga5 O26 1.888508 1_554
Ga5 O60 1.916796 1_555
Ga5 O62 1.925301 1_555
Ga5 O25 2.064846 1_554
Ga5 O61 2.095583 1_555
Ga5 O24 2.150362 1_554
Ga6 O27 1.847885 1_555
Ga6 O29 1.875372 1_555
Ga6 O64 1.919630 1_555
Ga6 O28 2.035830 1_555
Ga6 O63 2.196377 1_555
Ga6 O65 2.325934 1_555
Ga7 O31 1.864944 1_555
Ga7 O30 1.899373 1_555
Ga7 O67 1.975947 1_555
Ga7 O32 2.100104 1_555
Ga7 O66 2.176273 1_555
Ga7 O68 2.317398 1_555
Ga8 O34 1.869870 1_555
Ga8 O71 1.919279 1_555
Ga8 O69 1.954074 1_555
Ga8 O35 2.024257 1_555
Ga8 O33 2.189949 1_555
Ga8 O70 2.227082 1_555
O0 S0 1.480129 1_545
O1 Si0 1.608111 1_555
O2 S1 1.480145 1_655
O3 Si1 1.638977 1_555
O4 S2 1.484038 1_655
O5 Si2 1.649347 1_545
O6 Si2 1.648033 1_555
O7 Si1 1.651061 1_555
O8 S2 1.497511 1_555
O9 Si0 1.674412 1_555
O10 S1 1.491424 1_555
O11 S0 1.480224 1_555
O12 S3 1.468734 1_555
O13 S4 1.465649 1_555
O14 Si3 1.593325 1_555
O15 S5 1.476978 1_555
O16 Si4 1.613128 1_555
O17 Si5 1.615172 1_555
O18 Si5 1.670891 1_555
O19 S5 1.486194 1_555
O20 Si4 1.650947 1_555
O21 S4 1.484891 1_555
O22 Si3 1.670120 1_555
O23 S3 1.515470 1_555
O24 S6 1.488365 1_555
O25 S7 1.480188 1_555
O26 Si6 1.626583 1_555
O27 Si7 1.629722 1_555
O28 S8 1.482921 1_555
O29 Si8 1.646627 1_555
O30 Si8 1.661290 1_555
O31 Si7 1.650091 1_555
O32 S8 1.490301 1_555
O33 S7 1.488597 1_555
O34 Si6 1.645201 1_555
O35 S6 1.511277 1_555
O36 Si8 1.627863 1_555
O37 Si7 1.621198 1_545
O38 S8 1.477043 1_555
O39 S7 1.516948 1_555
O40 Si6 1.658441 1_555
O41 S6 1.478492 1_555
O42 S3 1.494939 1_555
O43 S4 1.494220 1_555
O44 Si3 1.712323 1_555
O45 S5 1.505714 1_555
O46 Si4 1.645318 1_555
O47 Si5 1.661988 1_555
O48 Si2 1.628525 1_545
O49 Si1 1.622050 1_555
O50 S2 1.477603 1_655
O51 Si0 1.642467 1_555
O52 S1 1.487717 1_655
O53 S0 1.489873 1_545
O54 S6 1.482589 1_555
O55 S7 1.483447 1_655
O56 Si6 1.699032 1_545
O57 Si7 1.665355 1_545
O58 S8 1.490387 1_555
O59 Si8 1.663971 1_655
O60 Si5 1.642860 1_555
O61 S5 1.489113 1_455
O62 Si4 1.664956 1_565
O63 S4 1.515376 1_565
O64 Si3 1.669610 1_555
O65 S3 1.476214 1_455
O66 S0 1.510194 1_555
O67 Si0 1.709576 1_555
O68 S1 1.490337 1_555
O69 Si1 1.673348 1_555
O70 S2 1.484220 1_555
O71 Si2 1.660247 1_555
