# generated using pymatgen
data_Cd3(PO4)2
_symmetry_space_group_name_H-M   'P 1'
_cell_length_a   7.66824277
_cell_length_b   9.53319772
_cell_length_c   9.53319793
_cell_angle_alpha   107.90645290
_cell_angle_beta   90.00000000
_cell_angle_gamma   90.00000000
_symmetry_Int_Tables_number   1
_chemical_formula_structural   Cd3(PO4)2
_chemical_formula_sum   'Cd12 P8 O32'
_cell_volume   663.14598172
_cell_formula_units_Z   4
loop_
 _symmetry_equiv_pos_site_id
 _symmetry_equiv_pos_as_xyz
  1  'x, y, z'
loop_
 _atom_site_type_symbol
 _atom_site_label
 _atom_site_symmetry_multiplicity
 _atom_site_fract_x
 _atom_site_fract_y
 _atom_site_fract_z
 _atom_site_occupancy
  Cd  Cd0  1  -0.00000000  0.10757837  0.89242163  1
  Cd  Cd1  1  0.50000000  0.39242163  0.60757837  1
  Cd  Cd2  1  -0.00000000  0.89242163  0.10757837  1
  Cd  Cd3  1  0.50000000  0.60757837  0.39242163  1
  Cd  Cd4  1  0.55631226  0.68556734  0.96828139  1
  Cd  Cd5  1  0.05631226  0.81443266  0.53171861  1
  Cd  Cd6  1  0.94368774  0.46828139  0.18556734  1
  Cd  Cd7  1  0.44368774  0.03171861  0.31443266  1
  Cd  Cd8  1  0.44368774  0.31443266  0.03171861  1
  Cd  Cd9  1  0.94368774  0.18556734  0.46828139  1
  Cd  Cd10  1  0.05631226  0.53171861  0.81443266  1
  Cd  Cd11  1  0.55631226  0.96828139  0.68556734  1
  P  P0  1  0.70359980  0.18307481  0.18307481  1
  P  P1  1  0.20359980  0.31692519  0.31692519  1
  P  P2  1  0.79640020  0.68307481  0.68307481  1
  P  P3  1  0.29640020  0.81692519  0.81692519  1
  P  P4  1  0.25000000  0.18521293  0.68521293  1
  P  P5  1  0.75000000  0.31478707  0.81478707  1
  P  P6  1  0.75000000  0.81478707  0.31478707  1
  P  P7  1  0.25000000  0.68521293  0.18521293  1
  O  O0  1  0.87018588  0.10375237  0.10375237  1
  O  O1  1  0.37018588  0.39624763  0.39624763  1
  O  O2  1  0.62981412  0.60375237  0.60375237  1
  O  O3  1  0.12981412  0.89624763  0.89624763  1
  O  O4  1  0.52992134  0.11739369  0.11739369  1
  O  O5  1  0.02992134  0.38260631  0.38260631  1
  O  O6  1  0.97007866  0.61739369  0.61739369  1
  O  O7  1  0.47007866  0.88260631  0.88260631  1
  O  O8  1  0.08518311  0.09218050  0.62680744  1
  O  O9  1  0.58518311  0.40781950  0.87319256  1
  O  O10  1  0.41481689  0.12680744  0.59218050  1
  O  O11  1  0.91481689  0.37319256  0.90781950  1
  O  O12  1  0.91481689  0.90781950  0.37319256  1
  O  O13  1  0.41481689  0.59218050  0.12680744  1
  O  O14  1  0.58518311  0.87319256  0.40781950  1
  O  O15  1  0.08518311  0.62680744  0.09218050  1
  O  O16  1  0.27412633  0.17889670  0.84324144  1
  O  O17  1  0.77412633  0.32110330  0.65675856  1
  O  O18  1  0.22587367  0.34324144  0.67889670  1
  O  O19  1  0.72587367  0.15675856  0.82110330  1
  O  O20  1  0.29688768  0.82506038  0.65721372  1
  O  O21  1  0.79688768  0.67493962  0.84278628  1
  O  O22  1  0.20311232  0.15721372  0.32506038  1
  O  O23  1  0.70311232  0.34278628  0.17493962  1
  O  O24  1  0.70311232  0.17493962  0.34278628  1
  O  O25  1  0.20311232  0.32506038  0.15721372  1
  O  O26  1  0.79688768  0.84278628  0.67493962  1
  O  O27  1  0.29688768  0.65721372  0.82506038  1
  O  O28  1  0.27412633  0.84324144  0.17889670  1
  O  O29  1  0.77412633  0.65675856  0.32110330  1
  O  O30  1  0.22587367  0.67889670  0.34324144  1
  O  O31  1  0.72587367  0.82110330  0.15675856  1
loop_
_geom_bond_atom_site_label_1
_geom_bond_atom_site_label_2
_geom_bond_distance
_geom_bond_site_symmetry_2
Cd0 O3 2.257493 1_545
Cd0 O0 2.257493 1_456
Cd0 O16 2.301472 1_555
Cd0 O19 2.301472 1_455
Cd0 O11 2.575161 1_455
Cd0 O8 2.575161 1_555
Cd1 O2 2.257493 1_555
Cd1 O1 2.257493 1_555
Cd1 O17 2.301472 1_555
Cd1 O18 2.301472 1_555
Cd1 O10 2.575161 1_555
Cd1 O9 2.575161 1_555
Cd2 O0 2.257493 1_465
Cd2 O3 2.257493 1_554
Cd2 O31 2.301472 1_455
Cd2 O28 2.301472 1_555
Cd2 O15 2.575161 1_555
Cd2 O12 2.575161 1_455
Cd3 O1 2.257493 1_555
Cd3 O2 2.257493 1_555
Cd3 O30 2.301472 1_555
Cd3 O29 2.301472 1_555
Cd3 O14 2.575161 1_555
Cd3 O13 2.575161 1_555
Cd4 O21 2.184098 1_555
Cd4 O13 2.254133 1_556
Cd4 O31 2.271772 1_556
Cd4 O7 2.361401 1_555
Cd4 O27 2.380703 1_555
Cd4 O9 2.530958 1_555
Cd5 O20 2.184098 1_555
Cd5 O12 2.254133 1_455
Cd5 O30 2.271772 1_555
Cd5 O6 2.361401 1_455
Cd5 O26 2.380703 1_455
Cd5 O8 2.530958 1_565
Cd6 O23 2.184097 1_555
Cd6 O15 2.254133 1_655
Cd6 O29 2.271772 1_555
Cd6 O5 2.361401 1_655
Cd6 O25 2.380703 1_655
Cd6 O11 2.530959 1_554
Cd7 O22 2.184097 1_555
Cd7 O14 2.254133 1_545
Cd7 O28 2.271772 1_545
Cd7 O4 2.361401 1_555
Cd7 O24 2.380703 1_555
Cd7 O10 2.530959 1_555
Cd8 O25 2.184098 1_555
Cd8 O9 2.254133 1_554
Cd8 O16 2.271772 1_554
Cd8 O4 2.361401 1_555
Cd8 O23 2.380703 1_555
Cd8 O13 2.530958 1_555
Cd9 O24 2.184098 1_555
Cd9 O8 2.254133 1_655
Cd9 O17 2.271772 1_555
Cd9 O5 2.361401 1_655
Cd9 O22 2.380703 1_655
Cd9 O12 2.530958 1_545
Cd10 O27 2.184097 1_555
Cd10 O11 2.254133 1_455
Cd10 O18 2.271772 1_555
Cd10 O6 2.361401 1_455
Cd10 O21 2.380703 1_455
Cd10 O15 2.530959 1_556
Cd11 O26 2.184097 1_555
Cd11 O10 2.254133 1_565
Cd11 O19 2.271772 1_565
Cd11 O7 2.361401 1_555
Cd11 O20 2.380703 1_555
Cd11 O14 2.530959 1_555
O0 P0 1.556868 1_555
O1 P1 1.556868 1_555
O2 P2 1.556868 1_555
O3 P3 1.556868 1_555
O4 P0 1.522088 1_555
O5 P1 1.522088 1_555
O6 P2 1.522088 1_555
O7 P3 1.522088 1_555
O8 P4 1.546051 1_555
O9 P5 1.546051 1_555
O10 P4 1.546051 1_555
O11 P5 1.546051 1_555
O12 P6 1.546051 1_555
O13 P7 1.546051 1_555
O14 P6 1.546051 1_555
O15 P7 1.546051 1_555
O16 P4 1.537280 1_555
O17 P5 1.537280 1_555
O18 P4 1.537280 1_555
O19 P5 1.537280 1_555
O20 P3 1.548171 1_555
O21 P2 1.548171 1_555
O22 P1 1.548171 1_555
O23 P0 1.548171 1_555
O24 P0 1.548171 1_555
O25 P1 1.548171 1_555
O26 P2 1.548171 1_555
O27 P3 1.548171 1_555
O28 P7 1.537280 1_555
O29 P6 1.537280 1_555
O30 P7 1.537280 1_555
O31 P6 1.537280 1_555
