# generated using pymatgen
data_Na3MgTi2P2O10F
_symmetry_space_group_name_H-M   'P 1'
_cell_length_a   6.62680494
_cell_length_b   6.64654207
_cell_length_c   6.94700572
_cell_angle_alpha   118.05912721
_cell_angle_beta   117.89845469
_cell_angle_gamma   91.09578356
_symmetry_Int_Tables_number   1
_chemical_formula_structural   Na3MgTi2P2O10F
_chemical_formula_sum   'Na3 Mg1 Ti2 P2 O10 F1'
_cell_volume   227.13364340
_cell_formula_units_Z   1
loop_
 _symmetry_equiv_pos_site_id
 _symmetry_equiv_pos_as_xyz
  1  'x, y, z'
loop_
 _atom_site_type_symbol
 _atom_site_label
 _atom_site_symmetry_multiplicity
 _atom_site_fract_x
 _atom_site_fract_y
 _atom_site_fract_z
 _atom_site_occupancy
  Na  Na0  1  0.28703900  0.24476800  0.00039700  1
  Na  Na1  1  0.75838100  0.24485800  0.00035900  1
  Na  Na2  1  0.29916200  0.72197800  0.99949900  1
  Mg  Mg0  1  0.77506600  0.70950900  0.00073500  1
  Ti  Ti0  1  0.24115800  0.20165500  0.42086600  1
  Ti  Ti1  1  0.82033100  0.78084200  0.57928300  1
  P  P0  1  0.26913700  0.73004300  0.49517400  1
  P  P1  1  0.77389500  0.23455900  0.50466400  1
  O  O0  1  0.18353200  0.82514900  0.68543700  1
  O  O1  1  0.17109200  0.82745400  0.31304000  1
  O  O2  1  0.17835100  0.45393900  0.31085000  1
  O  O3  1  0.45579700  0.41378700  0.75438800  1
  O  O4  1  0.54802700  0.82131400  0.66866200  1
  O  O5  1  0.49793000  0.13906100  0.31439100  1
  O  O6  1  0.70108000  0.65783700  0.24568700  1
  O  O7  1  0.85817400  0.51441000  0.68657400  1
  O  O8  1  0.86746500  0.14325100  0.68896200  1
  O  O9  1  0.87890000  0.15140000  0.33074600  1
  F  F0  1  0.00513300  0.96870100  0.00028500  1
loop_
_geom_bond_atom_site_label_1
_geom_bond_atom_site_label_2
_geom_bond_distance
_geom_bond_site_symmetry_2
Na0 O2 2.402959 1_555
Na0 O8 2.406748 1_454
Na0 O0 2.412042 1_544
Na0 O5 2.414834 1_555
Na1 O2 2.396586 1_655
Na1 O8 2.401266 1_554
Na1 O4 2.432926 1_544
Na1 O9 2.436488 1_555
Na1 O6 2.612985 1_555
Na1 O3 2.624091 1_554
Na2 O5 2.379935 1_566
Na2 O0 2.383417 1_555
Na2 O7 2.499692 1_455
Na2 O1 2.504462 1_556
Na2 O3 2.574263 1_555
Na2 O6 2.582091 1_556
Mg0 O3 2.134590 1_554
Mg0 O6 2.139672 1_555
Mg0 O1 2.280780 1_655
Mg0 O7 2.288610 1_554
Mg0 O9 2.543137 1_565
Mg0 O4 2.558355 1_554
O0 P0 1.548490 1_555
O0 Ti1 2.128641 1_455
O1 P0 1.568352 1_555
O1 Ti0 2.200055 1_565
O2 P0 1.547742 1_555
O2 Ti0 2.122199 1_555
O3 Ti0 1.773528 1_555
O4 P0 1.555977 1_555
O4 Ti1 2.150372 1_555
O5 P1 1.548755 1_555
O5 Ti0 2.128613 1_555
O6 Ti1 1.772755 1_555
O7 P1 1.567518 1_555
O7 Ti1 2.199577 1_555
O8 P1 1.547402 1_555
O8 Ti1 2.121829 1_545
O9 P1 1.556504 1_555
O9 Ti0 2.152348 1_655
F0 Ti0 2.180682 1_565
F0 Ti1 2.183316 1_454
F0 Mg0 2.280639 1_455
F0 Na1 2.481435 1_465
F0 Na2 2.570884 1_554
F0 Na0 2.592865 1_565
