# generated using pymatgen
data_Sr2CoO4
_symmetry_space_group_name_H-M   'P 1'
_cell_length_a   5.35485981
_cell_length_b   10.71076491
_cell_length_c   6.80486315
_cell_angle_alpha   89.94776560
_cell_angle_beta   66.82344458
_cell_angle_gamma   89.85936602
_symmetry_Int_Tables_number   1
_chemical_formula_structural   Sr2CoO4
_chemical_formula_sum   'Sr8 Co4 O16'
_cell_volume   358.79159912
_cell_formula_units_Z   4
loop_
 _symmetry_equiv_pos_site_id
 _symmetry_equiv_pos_as_xyz
  1  'x, y, z'
loop_
 _atom_site_type_symbol
 _atom_site_label
 _atom_site_symmetry_multiplicity
 _atom_site_fract_x
 _atom_site_fract_y
 _atom_site_fract_z
 _atom_site_occupancy
  Sr  Sr0  1  0.35372813  0.50000870  0.28729288  1
  Sr  Sr1  1  0.85645723  0.24994766  0.28692496  1
  Sr  Sr2  1  0.35889200  -0.00000463  0.28727182  1
  Sr  Sr3  1  0.85655613  0.75001520  0.28729537  1
  Sr  Sr4  1  0.14362826  0.75005825  0.71289384  1
  Sr  Sr5  1  0.64107060  0.50005344  0.71276368  1
  Sr  Sr6  1  0.14340745  0.24998158  0.71288444  1
  Sr  Sr7  1  0.64624096  -0.00005818  0.71267357  1
  Co  Co0  1  0.50007924  0.75001825  0.00012620  1
  Co  Co1  1  0.99773270  0.49984496  0.00001755  1
  Co  Co2  1  0.49996615  0.24996800  0.99987329  1
  Co  Co3  1  0.00224372  0.00017116  -0.00001284  1
  O  O0  1  0.15396870  0.49993946  0.68699921  1
  O  O1  1  0.65686177  0.24994932  0.68640349  1
  O  O2  1  0.15885740  0.00003093  0.68689109  1
  O  O3  1  0.65747399  0.75003155  0.68594372  1
  O  O4  1  0.34267856  0.75007011  0.31426577  1
  O  O5  1  0.84118399  0.49988632  0.31305877  1
  O  O6  1  0.34307296  0.24994337  0.31337435  1
  O  O7  1  0.84589886  0.00016497  0.31305926  1
  O  O8  1  0.73978426  0.62881443  0.00026977  1
  O  O9  1  0.25569413  0.37076669  0.99985341  1
  O  O10  1  0.74420061  0.12917091  0.99990407  1
  O  O11  1  0.26032978  0.87124206  0.99997364  1
  O  O12  1  0.23958778  0.62092816  0.99994877  1
  O  O13  1  0.75544218  0.37922571  0.00002556  1
  O  O14  1  0.24444099  0.12076906  0.99980741  1
  O  O15  1  0.76052250  0.87906153  0.00021694  1
loop_
_geom_bond_atom_site_label_1
_geom_bond_atom_site_label_2
_geom_bond_distance
_geom_bond_site_symmetry_2
Co0 O8 1.823646 1_555
Co0 O11 1.823983 1_554
Co0 O4 1.965159 1_555
Co0 O3 1.965428 1_554
Co0 O15 1.966087 1_555
Co0 O12 1.966790 1_554
Co1 O13 1.833186 1_555
Co1 O12 1.834935 1_654
Co1 O8 1.950606 1_555
Co1 O9 1.951644 1_654
Co1 O0 1.958146 1_654
Co1 O5 1.958288 1_555
Co2 O10 1.837485 1_555
Co2 O9 1.837619 1_555
Co2 O14 1.948585 1_555
Co2 O13 1.949011 1_556
Co2 O1 1.960969 1_555
Co2 O6 1.961164 1_556
Co3 O14 1.832344 1_554
Co3 O15 1.834324 1_445
Co3 O11 1.951272 1_544
Co3 O10 1.951826 1_454
Co3 O7 1.958481 1_455
Co3 O2 1.958631 1_554
O0 Sr0 2.500438 1_555
O0 Sr6 2.682141 1_555
O0 Sr5 2.682214 1_555
O0 Sr5 2.682340 1_455
O0 Sr4 2.683918 1_555
O1 Sr1 2.499013 1_555
O1 Sr6 2.681427 1_655
O1 Sr7 2.682820 1_555
O1 Sr6 2.683672 1_555
O1 Sr5 2.683869 1_555
O2 Sr2 2.499893 1_555
O2 Sr7 2.680798 1_455
O2 Sr6 2.682087 1_555
O2 Sr4 2.682401 1_545
O2 Sr7 2.683769 1_555
O3 Sr3 2.493820 1_555
O3 Sr4 2.680772 1_655
O3 Sr7 2.681990 1_565
O3 Sr5 2.682805 1_555
O3 Sr4 2.684693 1_555
O4 Sr4 2.493693 1_555
O4 Sr3 2.680665 1_455
O4 Sr2 2.682297 1_565
O4 Sr0 2.683713 1_555
O4 Sr3 2.684816 1_555
O5 Sr5 2.500429 1_555
O5 Sr0 2.680451 1_655
O5 Sr1 2.682009 1_555
O5 Sr3 2.683990 1_555
O5 Sr0 2.684104 1_555
O6 Sr6 2.499210 1_555
O6 Sr1 2.681704 1_455
O6 Sr2 2.682104 1_555
O6 Sr0 2.683365 1_555
O6 Sr1 2.683371 1_555
O7 Sr7 2.499863 1_555
O7 Sr1 2.680365 1_555
O7 Sr2 2.681778 1_555
O7 Sr2 2.682794 1_655
O7 Sr3 2.684185 1_545
O8 Sr0 2.612018 1_555
O8 Sr5 2.613732 1_554
O8 Sr3 2.619353 1_555
O8 Sr4 2.620599 1_654
O9 Sr6 2.604077 1_555
O9 Sr1 2.604387 1_456
O9 Sr5 2.613137 1_555
O9 Sr0 2.614276 1_556
O10 Sr6 2.604107 1_655
O10 Sr1 2.604245 1_556
O10 Sr7 2.612827 1_555
O10 Sr2 2.613150 1_556
O11 Sr7 2.611853 1_565
O11 Sr2 2.612112 1_566
O11 Sr4 2.619372 1_555
O11 Sr3 2.620153 1_456
O12 Sr4 2.602743 1_555
O12 Sr3 2.603100 1_456
O12 Sr5 2.607899 1_555
O12 Sr0 2.608929 1_556
O13 Sr0 2.608305 1_555
O13 Sr5 2.608626 1_554
O13 Sr1 2.616115 1_555
O13 Sr6 2.616452 1_654
O14 Sr7 2.608397 1_555
O14 Sr2 2.609724 1_556
O14 Sr6 2.615927 1_555
O14 Sr1 2.616061 1_456
O15 Sr3 2.602595 1_555
O15 Sr4 2.602749 1_654
O15 Sr2 2.608254 1_565
O15 Sr7 2.610262 1_564
