# generated using pymatgen
data_Cu4SiP8
_symmetry_space_group_name_H-M   'P 1'
_cell_length_a   9.06175365
_cell_length_b   9.06177587
_cell_length_c   9.06252755
_cell_angle_alpha   95.65932667
_cell_angle_beta   95.66107319
_cell_angle_gamma   143.39181720
_symmetry_Int_Tables_number   1
_chemical_formula_structural   Cu4SiP8
_chemical_formula_sum   'Cu8 Si2 P16'
_cell_volume   421.32932871
_cell_formula_units_Z   2
loop_
 _symmetry_equiv_pos_site_id
 _symmetry_equiv_pos_as_xyz
  1  'x, y, z'
loop_
 _atom_site_type_symbol
 _atom_site_label
 _atom_site_symmetry_multiplicity
 _atom_site_fract_x
 _atom_site_fract_y
 _atom_site_fract_z
 _atom_site_occupancy
  Cu  Cu0  1  0.36235467  0.57683997  0.81030536  1
  Cu  Cu1  1  0.80207461  0.11236526  0.28550343  1
  Cu  Cu2  1  0.82686151  0.51656250  0.71450275  1
  Cu  Cu3  1  0.76654593  0.55205898  0.18970184  1
  Cu  Cu4  1  0.88764141  0.17315533  0.68969427  1
  Cu  Cu5  1  0.44792988  0.63763724  0.21449681  1
  Cu  Cu6  1  0.42313531  0.23343616  0.78549717  1
  Cu  Cu7  1  0.48345452  0.19794346  0.31029816  1
  Si  Si0  1  0.25001737  0.75001463  0.50000723  1
  Si  Si1  1  -0.00001801  -0.00001520  -0.00000697  1
  P  P0  1  0.36042327  0.15726135  0.02554515  1
  P  P1  1  0.40729298  0.88173163  0.29686332  1
  P  P2  1  0.66511346  0.63955084  0.79682512  1
  P  P3  1  0.11829174  0.41511828  0.52553431  1
  P  P4  1  0.88957603  0.59273836  0.47445506  1
  P  P5  1  0.84270536  0.86826700  0.20313603  1
  P  P6  1  0.58488738  0.11045069  0.70317420  1
  P  P7  1  0.13171251  0.33488517  0.97446895  1
  P  P8  1  0.07502151  0.95628860  0.57355936  1
  P  P9  1  0.75144394  0.82501539  0.61874226  1
  P  P10  1  0.20623239  0.13266060  0.38121635  1
  P  P11  1  0.38270676  0.50143356  0.42642263  1
  P  P12  1  0.17497907  0.79371122  0.92643997  1
  P  P13  1  0.49855809  0.92498631  0.88125735  1
  P  P14  1  0.04376575  0.61733747  0.11878246  1
  P  P15  1  0.86729256  0.24856520  0.07357741  1
loop_
_geom_bond_atom_site_label_1
_geom_bond_atom_site_label_2
_geom_bond_distance
_geom_bond_site_symmetry_2
Cu0 P13 2.254258 1_555
Cu0 P7 2.299695 1_555
Cu0 P2 2.332719 1_555
Cu0 P3 2.573666 1_555
Cu1 P15 2.254241 1_555
Cu1 P1 2.299572 1_545
Cu1 P3 2.332722 1_655
Cu1 P5 2.573252 1_545
Cu2 P12 2.254244 1_655
Cu2 P6 2.299474 1_555
Cu2 P4 2.332867 1_555
Cu2 P2 2.573199 1_555
Cu3 P14 2.254199 1_655
Cu3 P0 2.299647 1_555
Cu3 P5 2.332689 1_555
Cu3 P4 2.573561 1_555
Cu4 P9 2.254237 1_545
Cu4 P3 2.299704 1_655
Cu4 P6 2.332715 1_555
Cu4 P7 2.573701 1_655
Cu5 P11 2.254249 1_555
Cu5 P5 2.299540 1_555
Cu5 P7 2.332703 1_554
Cu5 P1 2.573266 1_555
Cu6 P8 2.254234 1_545
Cu6 P2 2.299484 1_555
Cu6 P0 2.332865 1_556
Cu6 P6 2.573212 1_555
Cu7 P10 2.254190 1_555
Cu7 P4 2.299640 1_555
Cu7 P1 2.332709 1_545
Cu7 P0 2.573554 1_555
P0 P12 2.171263 1_544
P0 Si1 2.250615 1_555
P1 P14 2.171160 1_555
P1 Si0 2.250572 1_555
P2 P9 2.171260 1_555
P2 Si1 2.250715 1_666
P3 Si0 2.250616 1_555
P4 P8 2.171257 1_655
P4 Si0 2.250617 1_655
P5 Si1 2.250568 1_665
P6 Si0 2.250717 1_545
P7 Si1 2.250618 1_556
P8 P9 2.216631 1_455
P10 P5 2.171157 1_445
P10 P11 2.216647 1_555
P10 P8 2.216758 1_545
P11 P3 2.171171 1_555
P11 P9 2.216710 1_555
P12 P13 2.216633 1_555
P12 P14 2.216760 1_556
P13 P6 2.171263 1_565
P13 P15 2.216702 1_566
P14 P15 2.216647 1_455
P15 P7 2.171173 1_654
