# generated using pymatgen
data_Li3Fe(PO4)2
_symmetry_space_group_name_H-M   'P 1'
_cell_length_a   17.91483300
_cell_length_b   4.94419100
_cell_length_c   6.38431079
_cell_angle_alpha   87.00922049
_cell_angle_beta   90.00000000
_cell_angle_gamma   90.00000000
_symmetry_Int_Tables_number   1
_chemical_formula_structural   Li3Fe(PO4)2
_chemical_formula_sum   'Li12 Fe4 P8 O32'
_cell_volume   564.71599327
_cell_formula_units_Z   4
loop_
 _symmetry_equiv_pos_site_id
 _symmetry_equiv_pos_as_xyz
  1  'x, y, z'
loop_
 _atom_site_type_symbol
 _atom_site_label
 _atom_site_symmetry_multiplicity
 _atom_site_fract_x
 _atom_site_fract_y
 _atom_site_fract_z
 _atom_site_occupancy
  Li  Li0  1  0.30081900  0.18269700  0.18836100  1
  Li  Li1  1  0.69918100  0.81730300  0.81163900  1
  Li  Li2  1  0.88387800  0.78003800  0.49580600  1
  Li  Li3  1  0.38387800  0.71996200  0.00419400  1
  Li  Li4  1  0.05619000  0.72040600  0.28182600  1
  Li  Li5  1  0.11612200  0.21996200  0.50419400  1
  Li  Li6  1  0.61612200  0.28003800  0.99580600  1
  Li  Li7  1  0.94381000  0.27959400  0.71817400  1
  Li  Li8  1  0.44381000  0.22040600  0.78182600  1
  Li  Li9  1  0.80081900  0.31730300  0.31163900  1
  Li  Li10  1  0.19918100  0.68269700  0.68836100  1
  Li  Li11  1  0.55619000  0.77959400  0.21817400  1
  Fe  Fe0  1  0.87298800  0.80573800  0.01442800  1
  Fe  Fe1  1  0.37298800  0.69426200  0.48557200  1
  Fe  Fe2  1  0.62701200  0.30573800  0.51442800  1
  Fe  Fe3  1  0.12701200  0.19426200  0.98557200  1
  P  P0  1  0.78442600  0.33070100  0.78950500  1
  P  P1  1  0.21557400  0.66929900  0.21049500  1
  P  P2  1  0.03576500  0.71771600  0.76760800  1
  P  P3  1  0.53576500  0.78228400  0.73239200  1
  P  P4  1  0.28442600  0.16929900  0.71049500  1
  P  P5  1  0.46423500  0.21771600  0.26760800  1
  P  P6  1  0.71557400  0.83070100  0.28950500  1
  P  P7  1  0.96423500  0.28228400  0.23239200  1
  O  O0  1  0.06037500  0.41082200  0.77083500  1
  O  O1  1  0.67349600  0.94455400  0.09749000  1
  O  O2  1  0.69062700  0.97614300  0.48973700  1
  O  O3  1  0.19911000  0.98030700  0.17843100  1
  O  O4  1  0.80089000  0.01969300  0.82156900  1
  O  O5  1  0.30937300  0.02385700  0.51026300  1
  O  O6  1  0.32650400  0.05544600  0.90251000  1
  O  O7  1  0.56037500  0.08917800  0.72916500  1
  O  O8  1  0.93313100  0.14624000  0.03562800  1
  O  O9  1  0.93568100  0.13786900  0.43203600  1
  O  O10  1  0.19815400  0.11497900  0.73081900  1
  O  O11  1  0.55207300  0.21124800  0.27479800  1
  O  O12  1  0.05207300  0.28875200  0.22520200  1
  O  O13  1  0.06686900  0.85376000  0.96437200  1
  O  O14  1  0.43313100  0.35376000  0.46437200  1
  O  O15  1  0.69815400  0.38502100  0.76918100  1
  O  O16  1  0.43568100  0.36213100  0.06796400  1
  O  O17  1  0.82650400  0.44455400  0.59749000  1
  O  O18  1  0.69911000  0.51969300  0.32156900  1
  O  O19  1  0.80937300  0.47614300  0.98973700  1
  O  O20  1  0.19062700  0.52385700  0.01026300  1
  O  O21  1  0.30089000  0.48030700  0.67843100  1
  O  O22  1  0.17349600  0.55544600  0.40251000  1
  O  O23  1  0.93962500  0.58917800  0.22916500  1
  O  O24  1  0.30184600  0.61497900  0.23081900  1
  O  O25  1  0.56686900  0.64624000  0.53562800  1
  O  O26  1  0.56431900  0.63786900  0.93203600  1
  O  O27  1  0.94792700  0.71124800  0.77479800  1
  O  O28  1  0.44792700  0.78875200  0.72520200  1
  O  O29  1  0.80184600  0.88502100  0.26918100  1
  O  O30  1  0.06431900  0.86213100  0.56796400  1
  O  O31  1  0.43962500  0.91082200  0.27083500  1
loop_
_geom_bond_atom_site_label_1
_geom_bond_atom_site_label_2
_geom_bond_distance
_geom_bond_site_symmetry_2
Li0 O6 2.014414 1_554
Li0 O3 2.081345 1_545
Li0 O5 2.166875 1_555
Li0 O24 2.168469 1_555
Li1 O1 2.014414 1_556
Li1 O4 2.081345 1_565
Li1 O2 2.166875 1_555
Li1 O15 2.168469 1_555
Li2 O9 2.020363 1_565
Li2 O17 2.028994 1_555
Li2 O29 2.108105 1_555
Li2 O27 2.131108 1_555
Li2 O23 2.225621 1_555
Li3 O16 2.020363 1_555
Li3 O6 2.028994 1_564
Li3 O24 2.108105 1_555
Li3 O28 2.131108 1_554
Li3 O31 2.225621 1_555
Li4 O30 1.995736 1_555
Li4 O13 2.107009 1_554
Li4 O12 2.184344 1_555
Li4 O23 2.217547 1_455
Li4 O22 2.368468 1_555
Li5 O30 2.020363 1_545
Li5 O22 2.028994 1_555
Li5 O10 2.108105 1_555
Li5 O12 2.131108 1_555
Li5 O0 2.225621 1_555
Li6 O26 2.020363 1_555
Li6 O1 2.028994 1_546
Li6 O15 2.108105 1_555
Li6 O11 2.131108 1_556
Li6 O7 2.225621 1_555
Li7 O9 1.995736 1_555
Li7 O8 2.107009 1_556
Li7 O27 2.184344 1_555
Li7 O0 2.217547 1_655
Li7 O17 2.368468 1_555
Li8 O16 1.995736 1_556
Li8 O14 2.107009 1_555
Li8 O28 2.184344 1_545
Li8 O7 2.217547 1_555
Li8 O6 2.368468 1_555
Li9 O17 2.014414 1_555
Li9 O18 2.081345 1_555
Li9 O19 2.166875 1_554
Li9 O29 2.168469 1_545
Li10 O22 2.014414 1_555
Li10 O21 2.081345 1_555
Li10 O20 2.166875 1_556
Li10 O10 2.168469 1_565
Li11 O26 1.995736 1_554
Li11 O25 2.107009 1_555
Li11 O11 2.184344 1_565
Li11 O31 2.217547 1_555
Li11 O1 2.368468 1_555
Fe0 O19 2.001498 1_554
Fe0 O8 2.009277 1_565
Fe0 O4 2.041426 1_564
Fe0 O23 2.073135 1_555
Fe0 O27 2.106111 1_554
Fe0 O29 2.118909 1_555
Fe1 O5 2.001498 1_565
Fe1 O14 2.009277 1_555
Fe1 O21 2.041426 1_555
Fe1 O31 2.073135 1_555
Fe1 O28 2.106111 1_555
Fe1 O24 2.118909 1_555
Fe2 O2 2.001498 1_545
Fe2 O25 2.009277 1_555
Fe2 O18 2.041426 1_555
Fe2 O7 2.073135 1_555
Fe2 O11 2.106111 1_555
Fe2 O15 2.118909 1_555
Fe3 O20 2.001498 1_556
Fe3 O13 2.009277 1_545
Fe3 O3 2.041426 1_546
Fe3 O0 2.073135 1_555
Fe3 O12 2.106111 1_556
Fe3 O10 2.118909 1_555
O0 P2 1.579199 1_555
O1 P6 1.521807 1_555
O2 P6 1.564263 1_555
O3 P1 1.568605 1_555
O4 P0 1.568605 1_555
O5 P4 1.564263 1_555
O6 P4 1.521807 1_555
O7 P3 1.579199 1_545
O8 P7 1.558570 1_555
O9 P7 1.516938 1_555
O10 P4 1.572911 1_555
O11 P5 1.574549 1_555
O12 P7 1.574549 1_455
O13 P2 1.558570 1_555
O14 P5 1.558570 1_555
O15 P0 1.572911 1_555
O16 P5 1.516938 1_555
O17 P0 1.521807 1_555
O18 P6 1.568605 1_555
O19 P0 1.564263 1_555
O20 P1 1.564263 1_555
O21 P4 1.568605 1_555
O22 P1 1.521807 1_555
O23 P7 1.579199 1_555
O24 P1 1.572911 1_555
O25 P3 1.558570 1_555
O26 P3 1.516938 1_555
O27 P2 1.574549 1_655
O28 P3 1.574549 1_555
O29 P6 1.572911 1_555
O30 P2 1.516938 1_555
O31 P5 1.579199 1_565
