# generated using pymatgen
data_MgFe12(OF)12
_symmetry_space_group_name_H-M   'P 1'
_cell_length_a   9.71712857
_cell_length_b   14.52792766
_cell_length_c   3.10961500
_cell_angle_alpha   90.00000000
_cell_angle_beta   90.00000000
_cell_angle_gamma   86.72920160
_symmetry_Int_Tables_number   1
_chemical_formula_structural   MgFe12(OF)12
_chemical_formula_sum   'Mg1 Fe12 O12 F12'
_cell_volume   438.26845065
_cell_formula_units_Z   1
loop_
 _symmetry_equiv_pos_site_id
 _symmetry_equiv_pos_as_xyz
  1  'x, y, z'
loop_
 _atom_site_type_symbol
 _atom_site_label
 _atom_site_symmetry_multiplicity
 _atom_site_fract_x
 _atom_site_fract_y
 _atom_site_fract_z
 _atom_site_occupancy
  Mg  Mg0  1  0.28212900  0.31476800  0.50000000  1
  Fe  Fe0  1  0.97811900  0.99012600  0.00000000  1
  Fe  Fe1  1  0.00554600  0.32283100  0.00000000  1
  Fe  Fe2  1  0.01440400  0.67754800  0.00000000  1
  Fe  Fe3  1  0.19332600  0.13128300  0.50000000  1
  Fe  Fe4  1  0.26381200  0.49340700  0.50000000  1
  Fe  Fe5  1  0.24963000  0.85864200  0.50000000  1
  Fe  Fe6  1  0.55076500  0.35953300  0.00000000  1
  Fe  Fe7  1  0.50067100  0.99250500  0.00000000  1
  Fe  Fe8  1  0.51970000  0.67133300  0.00000000  1
  Fe  Fe9  1  0.72446200  0.13895000  0.50000000  1
  Fe  Fe10  1  0.74935100  0.51316500  0.50000000  1
  Fe  Fe11  1  0.71953600  0.83037700  0.50000000  1
  O  O0  1  0.10099400  0.25809000  0.50000000  1
  O  O1  1  0.07477900  0.92548500  0.50000000  1
  O  O2  1  0.12658400  0.08350200  0.00000000  1
  O  O3  1  0.18424500  0.41273100  0.00000000  1
  O  O4  1  0.34284400  0.90865600  0.00000000  1
  O  O5  1  0.42213300  0.40598800  0.50000000  1
  O  O6  1  0.59090600  0.93705200  0.50000000  1
  O  O7  1  0.59411300  0.60467400  0.50000000  1
  O  O8  1  0.62414800  0.10227000  0.00000000  1
  O  O9  1  0.70213600  0.44548200  0.00000000  1
  O  O10  1  0.64847200  0.76766600  0.00000000  1
  O  O11  1  0.88199600  0.05722200  0.50000000  1
  F  F0  1  0.11195800  0.59633000  0.50000000  1
  F  F1  1  0.17178400  0.77016900  0.00000000  1
  F  F2  1  0.33110000  0.23245500  0.00000000  1
  F  F3  1  0.33945200  0.56911900  0.00000000  1
  F  F4  1  0.38230300  0.07185000  0.50000000  1
  F  F5  1  0.40072600  0.73279000  0.50000000  1
  F  F6  1  0.62386600  0.26818100  0.50000000  1
  F  F7  1  0.85517400  0.24027700  0.00000000  1
  F  F8  1  0.82989900  0.89007700  0.00000000  1
  F  F9  1  0.86367300  0.57694400  0.00000000  1
  F  F10  1  0.93383900  0.40286300  0.50000000  1
  F  F11  1  0.90428500  0.74195100  0.50000000  1
loop_
_geom_bond_atom_site_label_1
_geom_bond_atom_site_label_2
_geom_bond_distance
_geom_bond_site_symmetry_2
Mg0 O5 1.952632 1_555
Mg0 O0 1.985292 1_555
Mg0 O3 2.278847 1_555
Mg0 O3 2.278847 1_556
Fe0 O1 2.020121 1_655
Fe0 O1 2.020121 1_654
Fe0 O11 2.033748 1_565
Fe0 O11 2.033748 1_564
Fe0 O2 2.035884 1_665
Fe1 O0 2.015624 1_554
Fe1 O0 2.015624 1_555
Fe1 O3 2.231549 1_555
Fe3 O2 1.836099 1_555
Fe3 O2 1.836099 1_556
Fe3 O0 2.002554 1_555
Fe4 O5 1.938232 1_555
Fe4 O3 2.119511 1_555
Fe4 O3 2.119511 1_556
Fe5 O1 1.908275 1_555
Fe5 O4 1.959821 1_555
Fe5 O4 1.959821 1_556
Fe6 O9 1.982992 1_555
Fe6 O5 2.083023 1_555
Fe6 O5 2.083023 1_554
Fe7 O6 1.937695 1_554
Fe7 O6 1.937695 1_555
Fe7 O4 2.012233 1_555
Fe7 O8 2.049606 1_565
Fe8 O10 1.929824 1_555
Fe8 O7 1.948897 1_555
Fe8 O7 1.948897 1_554
Fe9 O11 1.882990 1_555
Fe9 O8 1.926352 1_555
Fe9 O8 1.926352 1_556
Fe10 O9 1.909519 1_556
Fe10 O9 1.909519 1_555
Fe10 O7 1.952956 1_555
Fe11 O6 1.934689 1_555
Fe11 O10 1.948356 1_555
Fe11 O10 1.948356 1_556
F0 Fe4 2.039945 1_555
F0 Fe2 2.140240 1_555
F0 Fe2 2.140240 1_556
F1 Fe2 2.093832 1_555
F1 Fe5 2.180056 1_555
F1 Fe5 2.180056 1_554
F2 Mg0 2.002239 1_554
F2 Mg0 2.002239 1_555
F3 Fe4 2.063922 1_554
F3 Fe4 2.063922 1_555
F3 Fe8 2.360003 1_555
F4 Fe3 1.984099 1_555
F4 Fe7 2.217622 1_546
F4 Fe7 2.217622 1_545
F5 Fe8 2.105551 1_555
F5 Fe8 2.105551 1_556
F5 Fe5 2.278657 1_555
F6 Fe9 2.066627 1_555
F6 Fe6 2.139104 1_556
F6 Fe6 2.139104 1_555
F7 Fe1 1.942536 1_655
F7 Fe9 2.532004 1_555
F7 Fe9 2.532004 1_554
F8 Fe11 2.103775 1_554
F8 Fe11 2.103775 1_555
F8 Fe0 2.103793 1_555
F9 Fe2 2.127375 1_655
F9 Fe10 2.151159 1_555
F9 Fe10 2.151159 1_554
F10 Fe1 2.040186 1_655
F10 Fe1 2.040186 1_656
F10 Fe10 2.335341 1_555
F11 Fe2 2.079326 1_655
F11 Fe2 2.079326 1_656
F11 Fe11 2.147091 1_555
