# generated using pymatgen
data_BaMgMn2O5
_symmetry_space_group_name_H-M   'P 1'
_cell_length_a   4.09063254
_cell_length_b   5.76128426
_cell_length_c   6.42611892
_cell_angle_alpha   90.00000000
_cell_angle_beta   108.55904321
_cell_angle_gamma   90.00000000
_symmetry_Int_Tables_number   1
_chemical_formula_structural   BaMgMn2O5
_chemical_formula_sum   'Ba1 Mg1 Mn2 O5'
_cell_volume   143.57046703
_cell_formula_units_Z   1
loop_
 _symmetry_equiv_pos_site_id
 _symmetry_equiv_pos_as_xyz
  1  'x, y, z'
loop_
 _atom_site_type_symbol
 _atom_site_label
 _atom_site_symmetry_multiplicity
 _atom_site_fract_x
 _atom_site_fract_y
 _atom_site_fract_z
 _atom_site_occupancy
  Ba  Ba0  1  0.99314857  0.00000000  -0.00000000  1
  Mg  Mg0  1  0.99208973  0.50000000  -0.00000000  1
  Mn  Mn0  1  0.65877305  0.50000000  0.33305305  1
  Mn  Mn1  1  0.32572000  0.50000000  0.66694695  1
  O  O0  1  0.49208522  0.50000000  -0.00000000  1
  O  O1  1  0.83119778  0.50000000  0.67781413  1
  O  O2  1  0.15338365  0.50000000  0.32218587  1
  O  O3  1  0.61724496  0.00000000  0.24869991  1
  O  O4  1  0.36854504  0.00000000  0.75130009  1
loop_
_geom_bond_atom_site_label_1
_geom_bond_atom_site_label_2
_geom_bond_distance
_geom_bond_site_symmetry_2
Ba0 O4 2.544503 1_654
Ba0 O3 2.544503 1_655
Ba0 O3 2.546170 1_555
Ba0 O4 2.546170 1_554
Mg0 O1 1.962736 1_554
Mg0 O2 1.962736 1_655
Mg0 O0 2.045298 1_655
Mg0 O0 2.045335 1_555
Mn0 O0 2.028938 1_555
Mn0 O2 2.046207 1_555
Mn0 O2 2.046568 1_655
Mn0 O1 2.100262 1_555
Mn1 O0 2.028938 1_556
Mn1 O1 2.046207 1_455
Mn1 O1 2.046568 1_555
Mn1 O2 2.100262 1_555
