# generated using pymatgen
data_ZrCrSi2
_symmetry_space_group_name_H-M   'P 1'
_cell_length_a   8.02447900
_cell_length_b   9.13900000
_cell_length_c   9.80843200
_cell_angle_alpha   90.00000000
_cell_angle_beta   90.00000000
_cell_angle_gamma   90.00000000
_symmetry_Int_Tables_number   1
_chemical_formula_structural   ZrCrSi2
_chemical_formula_sum   'Zr12 Cr12 Si24'
_cell_volume   719.30835983
_cell_formula_units_Z   12
loop_
 _symmetry_equiv_pos_site_id
 _symmetry_equiv_pos_as_xyz
  1  'x, y, z'
loop_
 _atom_site_type_symbol
 _atom_site_label
 _atom_site_symmetry_multiplicity
 _atom_site_fract_x
 _atom_site_fract_y
 _atom_site_fract_z
 _atom_site_occupancy
  Zr  Zr0  1  0.50000000  0.83052300  0.32006600  1
  Zr  Zr1  1  0.50000000  0.16947700  0.67993400  1
  Zr  Zr2  1  0.50000000  0.33052300  0.17993400  1
  Zr  Zr3  1  0.50000000  0.66947700  0.82006600  1
  Zr  Zr4  1  0.74664400  0.17240300  0.95213800  1
  Zr  Zr5  1  0.74664400  0.82759700  0.04786200  1
  Zr  Zr6  1  0.25335600  0.67240300  0.54786200  1
  Zr  Zr7  1  0.25335600  0.32759700  0.45213800  1
  Zr  Zr8  1  0.25335600  0.82759700  0.04786200  1
  Zr  Zr9  1  0.25335600  0.17240300  0.95213800  1
  Zr  Zr10  1  0.74664400  0.32759700  0.45213800  1
  Zr  Zr11  1  0.74664400  0.67240300  0.54786200  1
  Cr  Cr0  1  0.74954300  0.92058700  0.74620200  1
  Cr  Cr1  1  0.25444100  0.50000000  0.00000000  1
  Cr  Cr2  1  0.25444100  0.00000000  0.50000000  1
  Cr  Cr3  1  0.74555900  0.50000000  0.00000000  1
  Cr  Cr4  1  0.74954300  0.42058700  0.75379800  1
  Cr  Cr5  1  0.74954300  0.57941300  0.24620200  1
  Cr  Cr6  1  0.25045700  0.92058700  0.74620200  1
  Cr  Cr7  1  0.25045700  0.07941300  0.25379800  1
  Cr  Cr8  1  0.25045700  0.57941300  0.24620200  1
  Cr  Cr9  1  0.25045700  0.42058700  0.75379800  1
  Cr  Cr10  1  0.74954300  0.07941300  0.25379800  1
  Cr  Cr11  1  0.74555900  0.00000000  0.50000000  1
  Si  Si0  1  0.00000000  0.60965900  0.09847500  1
  Si  Si1  1  0.00000000  0.39034100  0.90152500  1
  Si  Si2  1  0.00000000  0.10965900  0.40152500  1
  Si  Si3  1  0.00000000  0.89034100  0.59847500  1
  Si  Si4  1  0.50000000  0.62428900  0.10398500  1
  Si  Si5  1  0.50000000  0.37571100  0.89601500  1
  Si  Si6  1  0.50000000  0.12428900  0.39601500  1
  Si  Si7  1  0.50000000  0.87571100  0.60398500  1
  Si  Si8  1  0.00000000  0.54032700  0.37466700  1
  Si  Si9  1  0.00000000  0.45967300  0.62533300  1
  Si  Si10  1  0.00000000  0.04032700  0.12533300  1
  Si  Si11  1  0.00000000  0.95967300  0.87466700  1
  Si  Si12  1  0.50000000  0.53938500  0.37936500  1
  Si  Si13  1  0.50000000  0.46061500  0.62063500  1
  Si  Si14  1  0.50000000  0.03938500  0.12063500  1
  Si  Si15  1  0.50000000  0.96061500  0.87936500  1
  Si  Si16  1  0.85098200  0.17081400  0.68111800  1
  Si  Si17  1  0.85098200  0.67081400  0.81888200  1
  Si  Si18  1  0.14901800  0.67081400  0.81888200  1
  Si  Si19  1  0.14901800  0.32918600  0.18111800  1
  Si  Si20  1  0.14901800  0.82918600  0.31888200  1
  Si  Si21  1  0.14901800  0.17081400  0.68111800  1
  Si  Si22  1  0.85098200  0.32918600  0.18111800  1
  Si  Si23  1  0.85098200  0.82918600  0.31888200  1
loop_
_geom_bond_atom_site_label_1
_geom_bond_atom_site_label_2
_geom_bond_distance
_geom_bond_site_symmetry_2
Cr0 Si11 2.398863 1_655
Cr0 Si15 2.418592 1_555
Cr0 Si7 2.474638 1_555
Cr0 Si3 2.493023 1_655
Cr0 Si16 2.509915 1_565
Cr0 Cr11 2.521759 1_565
Cr0 Si17 2.526141 1_555
Cr1 Si0 2.471043 1_555
Cr1 Si1 2.471043 1_554
Cr1 Si4 2.492645 1_555
Cr1 Si5 2.492645 1_554
Cr1 Si19 2.511670 1_555
Cr1 Si18 2.511670 1_554
Cr1 Cr8 2.521759 1_555
Cr1 Cr9 2.521759 1_554
Cr1 Zr8 3.030503 1_555
Cr1 Zr9 3.030503 1_554
Cr1 Zr2 3.065372 1_555
Cr1 Zr3 3.065372 1_554
Cr2 Si2 2.471043 1_555
Cr2 Si3 2.471043 1_545
Cr2 Si6 2.492645 1_555
Cr2 Si7 2.492645 1_545
Cr2 Si21 2.511670 1_555
Cr2 Si20 2.511670 1_545
Cr2 Cr6 2.521759 1_545
Cr2 Cr7 2.521759 1_555
Cr2 Zr7 3.030503 1_555
Cr2 Zr6 3.030503 1_545
Cr2 Zr1 3.065372 1_555
Cr2 Zr0 3.065372 1_545
Cr3 Si0 2.471043 1_655
Cr3 Si1 2.471043 1_654
Cr3 Si4 2.492645 1_555
Cr3 Si5 2.492645 1_554
Cr3 Si17 2.511670 1_554
Cr3 Si22 2.511670 1_555
Cr3 Cr5 2.521759 1_555
Cr3 Cr4 2.521759 1_554
Cr3 Zr5 3.030503 1_555
Cr3 Zr4 3.030503 1_554
Cr3 Zr2 3.065372 1_555
Cr3 Zr3 3.065372 1_554
Cr4 Si9 2.398863 1_655
Cr4 Si13 2.418592 1_555
Cr4 Si5 2.474638 1_555
Cr4 Si1 2.493023 1_655
Cr4 Si17 2.509915 1_555
Cr4 Si16 2.526141 1_555
Cr5 Si8 2.398863 1_655
Cr5 Si12 2.418592 1_555
Cr5 Si4 2.474638 1_555
Cr5 Si0 2.493023 1_655
Cr5 Si22 2.509915 1_555
Cr5 Si23 2.526141 1_555
Cr6 Si11 2.398863 1_555
Cr6 Si15 2.418592 1_555
Cr6 Si7 2.474638 1_555
Cr6 Si3 2.493023 1_555
Cr6 Si21 2.509915 1_565
Cr6 Si18 2.526141 1_555
Cr7 Si10 2.398863 1_555
Cr7 Si14 2.418592 1_555
Cr7 Si6 2.474638 1_555
Cr7 Si2 2.493023 1_555
Cr7 Si20 2.509915 1_545
Cr7 Si19 2.526141 1_555
Cr8 Si8 2.398863 1_555
Cr8 Si12 2.418592 1_555
Cr8 Si4 2.474638 1_555
Cr8 Si0 2.493023 1_555
Cr8 Si19 2.509915 1_555
Cr8 Si20 2.526141 1_555
Cr9 Si9 2.398863 1_555
Cr9 Si13 2.418592 1_555
Cr9 Si5 2.474638 1_555
Cr9 Si1 2.493023 1_555
Cr9 Si18 2.509915 1_555
Cr9 Si21 2.526141 1_555
Cr10 Si10 2.398863 1_655
Cr10 Si14 2.418592 1_555
Cr10 Si6 2.474638 1_555
Cr10 Si2 2.493023 1_655
Cr10 Si23 2.509915 1_545
Cr10 Cr11 2.521759 1_555
Cr10 Si22 2.526141 1_555
Cr11 Si2 2.471043 1_655
Cr11 Si3 2.471043 1_645
Cr11 Si6 2.492645 1_555
Cr11 Si7 2.492645 1_545
Cr11 Si16 2.511670 1_555
Cr11 Si23 2.511670 1_545
Cr11 Zr10 3.030503 1_555
Cr11 Zr11 3.030503 1_545
Cr11 Zr1 3.065372 1_555
Cr11 Zr0 3.065372 1_545
Si0 Zr8 2.889074 1_555
Si0 Zr5 2.889074 1_455
Si1 Zr9 2.889074 1_555
Si1 Zr4 2.889074 1_455
Si2 Zr7 2.889074 1_555
Si2 Zr10 2.889074 1_455
Si3 Zr6 2.889074 1_555
Si3 Zr11 2.889074 1_455
Si4 Zr5 2.769928 1_555
Si4 Zr8 2.769928 1_555
Si4 Zr2 2.786162 1_555
Si4 Zr3 2.815255 1_554
Si4 Zr0 2.836246 1_555
Si5 Zr4 2.769928 1_555
Si5 Zr9 2.769928 1_555
Si5 Zr3 2.786162 1_555
Si5 Zr2 2.815255 1_556
Si5 Zr1 2.836246 1_555
Si6 Zr10 2.769928 1_555
Si6 Zr7 2.769928 1_555
Si6 Zr0 2.786162 1_545
Si6 Zr1 2.815255 1_555
Si6 Zr2 2.836246 1_555
Si7 Zr11 2.769928 1_555
Si7 Zr6 2.769928 1_555
Si7 Zr1 2.786162 1_565
Si7 Zr0 2.815255 1_555
Si7 Zr3 2.836246 1_555
Si8 Si9 2.566754 1_555
Si8 Zr6 2.911369 1_555
Si8 Zr11 2.911369 1_455
Si8 Zr7 2.913824 1_555
Si8 Zr10 2.913824 1_455
Si9 Zr7 2.911369 1_555
Si9 Zr10 2.911369 1_455
Si9 Zr6 2.913824 1_555
Si9 Zr11 2.913824 1_455
Si10 Si11 2.566754 1_544
Si10 Zr9 2.911369 1_554
Si10 Zr4 2.911369 1_454
Si10 Zr8 2.913824 1_545
Si10 Zr5 2.913824 1_445
Si11 Zr8 2.911369 1_556
Si11 Zr5 2.911369 1_456
Si11 Zr9 2.913824 1_565
Si11 Zr4 2.913824 1_465
Si12 Si13 2.473551 1_555
Si12 Zr0 2.723540 1_555
Si12 Zr2 2.733098 1_555
Si12 Zr11 2.850682 1_555
Si12 Zr6 2.850682 1_555
Si12 Zr10 2.858840 1_555
Si12 Zr7 2.858840 1_555
Si13 Zr1 2.723540 1_555
Si13 Zr3 2.733098 1_555
Si13 Zr10 2.850682 1_555
Si13 Zr7 2.850682 1_555
Si13 Zr11 2.858840 1_555
Si13 Zr6 2.858840 1_555
Si14 Si15 2.473551 1_544
Si14 Zr2 2.723540 1_555
Si14 Zr0 2.733098 1_545
Si14 Zr4 2.850682 1_554
Si14 Zr9 2.850682 1_554
Si14 Zr5 2.858840 1_545
Si14 Zr8 2.858840 1_545
Si15 Zr3 2.723540 1_555
Si15 Zr1 2.733098 1_565
Si15 Zr5 2.850682 1_556
Si15 Zr8 2.850682 1_556
Si15 Zr4 2.858840 1_565
Si15 Zr9 2.858840 1_565
Si16 Si21 2.391584 1_655
Si16 Zr4 2.787054 1_555
Si16 Zr10 2.792535 1_555
Si16 Zr1 2.816498 1_555
Si17 Si18 2.391584 1_655
Si17 Zr11 2.787054 1_555
Si17 Zr5 2.792535 1_556
Si17 Zr3 2.816498 1_555
Si18 Zr6 2.787054 1_555
Si18 Zr8 2.792535 1_556
Si18 Zr3 2.816498 1_555
Si19 Si22 2.391584 1_455
Si19 Zr7 2.787054 1_555
Si19 Zr9 2.792535 1_554
Si19 Zr2 2.816498 1_555
Si20 Si23 2.391584 1_455
Si20 Zr8 2.787054 1_555
Si20 Zr6 2.792535 1_555
Si20 Zr0 2.816498 1_555
Si21 Zr9 2.787054 1_555
Si21 Zr7 2.792535 1_555
Si21 Zr1 2.816498 1_555
Si22 Zr10 2.787054 1_555
Si22 Zr4 2.792535 1_554
Si22 Zr2 2.816498 1_555
Si23 Zr5 2.787054 1_555
Si23 Zr11 2.792535 1_555
Si23 Zr0 2.816498 1_555
