# generated using pymatgen
data_Ca2In
_symmetry_space_group_name_H-M   'P 1'
_cell_length_a   5.36490286
_cell_length_b   7.25647359
_cell_length_c   9.94008038
_cell_angle_alpha   90.00000000
_cell_angle_beta   90.00000000
_cell_angle_gamma   90.00000000
_symmetry_Int_Tables_number   1
_chemical_formula_structural   Ca2In
_chemical_formula_sum   'Ca8 In4'
_cell_volume   386.97007183
_cell_formula_units_Z   4
loop_
 _symmetry_equiv_pos_site_id
 _symmetry_equiv_pos_as_xyz
  1  'x, y, z'
loop_
 _atom_site_type_symbol
 _atom_site_label
 _atom_site_symmetry_multiplicity
 _atom_site_fract_x
 _atom_site_fract_y
 _atom_site_fract_z
 _atom_site_occupancy
  Ca  Ca0  1  0.75000000  0.96597605  0.29914905  1
  Ca  Ca1  1  0.25000000  0.03402395  0.70085095  1
  Ca  Ca2  1  0.75000000  0.46597605  0.20085095  1
  Ca  Ca3  1  0.25000000  0.53402395  0.79914905  1
  Ca  Ca4  1  0.75000000  0.82737221  0.93357277  1
  Ca  Ca5  1  0.25000000  0.17262779  0.06642723  1
  Ca  Ca6  1  0.75000000  0.32737221  0.56642723  1
  Ca  Ca7  1  0.25000000  0.67262779  0.43357277  1
  In  In0  1  0.75000000  0.77448233  0.61134538  1
  In  In1  1  0.25000000  0.22551767  0.38865462  1
  In  In2  1  0.75000000  0.27448233  0.88865462  1
  In  In3  1  0.25000000  0.72551767  0.11134538  1
loop_
_geom_bond_atom_site_label_1
_geom_bond_atom_site_label_2
_geom_bond_distance
_geom_bond_site_symmetry_2
Ca0 In1 3.396194 1_665
Ca0 In1 3.396194 1_565
Ca0 In0 3.400162 1_555
Ca0 In3 3.704731 1_555
Ca0 In3 3.704731 1_655
Ca1 In0 3.396194 1_545
Ca1 In0 3.396194 1_445
Ca1 In1 3.400162 1_555
Ca1 In2 3.704731 1_455
Ca1 In2 3.704731 1_555
Ca2 In3 3.396194 1_655
Ca2 In3 3.396194 1_555
Ca2 In2 3.400162 1_554
Ca2 In1 3.704731 1_555
Ca2 In1 3.704731 1_655
Ca3 In2 3.396194 1_455
Ca3 In2 3.396194 1_555
Ca3 In3 3.400162 1_556
Ca3 In0 3.704731 1_455
Ca3 In0 3.704731 1_555
Ca4 In0 3.225878 1_555
Ca4 In2 3.275021 1_565
Ca4 In3 3.296115 1_656
Ca4 In3 3.296115 1_556
Ca5 In1 3.225878 1_555
Ca5 In3 3.275021 1_545
Ca5 In2 3.296115 1_454
Ca5 In2 3.296115 1_554
Ca6 In2 3.225878 1_555
Ca6 In0 3.275021 1_555
Ca6 In1 3.296115 1_655
Ca6 In1 3.296115 1_555
Ca7 In3 3.225878 1_555
Ca7 In1 3.275021 1_555
Ca7 In0 3.296115 1_455
Ca7 In0 3.296115 1_555
