# generated using pymatgen
data_Na2Pr2MgTi2O8
_symmetry_space_group_name_H-M   'P 1'
_cell_length_a   3.91757600
_cell_length_b   3.91757600
_cell_length_c   12.21083400
_cell_angle_alpha   90.00000000
_cell_angle_beta   90.00000000
_cell_angle_gamma   90.00000000
_symmetry_Int_Tables_number   1
_chemical_formula_structural   Na2Pr2MgTi2O8
_chemical_formula_sum   'Na2 Pr2 Mg1 Ti2 O8'
_cell_volume   187.40457468
_cell_formula_units_Z   1
loop_
 _symmetry_equiv_pos_site_id
 _symmetry_equiv_pos_as_xyz
  1  'x, y, z'
loop_
 _atom_site_type_symbol
 _atom_site_label
 _atom_site_symmetry_multiplicity
 _atom_site_fract_x
 _atom_site_fract_y
 _atom_site_fract_z
 _atom_site_occupancy
  Na  Na0  1  0.75000000  0.75000000  0.36390400  1
  Na  Na1  1  0.25000000  0.25000000  0.63609600  1
  Pr  Pr0  1  0.75000000  0.75000000  0.11048000  1
  Pr  Pr1  1  0.25000000  0.25000000  0.88952000  1
  Mg  Mg0  1  0.25000000  0.75000000  0.50000000  1
  Ti  Ti0  1  0.75000000  0.75000000  0.73593400  1
  Ti  Ti1  1  0.25000000  0.25000000  0.26406600  1
  O  O0  1  0.75000000  0.25000000  0.75967100  1
  O  O1  1  0.25000000  0.75000000  0.74268300  1
  O  O2  1  0.25000000  0.75000000  0.25731700  1
  O  O3  1  0.75000000  0.25000000  0.24032900  1
  O  O4  1  0.75000000  0.75000000  0.92078800  1
  O  O5  1  0.25000000  0.25000000  0.07921200  1
  O  O6  1  0.75000000  0.75000000  0.56745200  1
  O  O7  1  0.25000000  0.25000000  0.43254800  1
loop_
_geom_bond_atom_site_label_1
_geom_bond_atom_site_label_2
_geom_bond_distance
_geom_bond_site_symmetry_2
Na0 O2 2.351764 1_655
Na0 O2 2.351764 1_555
Na0 O3 2.472608 1_555
Na0 O3 2.472608 1_565
Na0 O6 2.485491 1_555
Na1 O1 2.351764 1_545
Na1 O1 2.351764 1_555
Na1 O0 2.472608 1_555
Na1 O0 2.472608 1_455
Na1 O7 2.485491 1_555
Mg0 O6 2.124910 1_455
Mg0 O6 2.124910 1_555
Mg0 O7 2.124910 1_565
Mg0 O7 2.124910 1_555
O0 Ti0 1.980117 1_555
O0 Ti0 1.980117 1_545
O0 Pr1 2.520092 1_555
O0 Pr1 2.520092 1_655
O1 Ti0 1.960521 1_555
O1 Ti0 1.960521 1_455
O1 Pr1 2.655505 1_555
O1 Pr1 2.655505 1_565
O2 Ti1 1.960521 1_555
O2 Ti1 1.960521 1_565
O2 Pr0 2.655505 1_555
O2 Pr0 2.655505 1_455
O3 Ti1 1.980117 1_655
O3 Ti1 1.980117 1_555
O3 Pr0 2.520092 1_545
O3 Pr0 2.520092 1_555
O4 Ti0 2.257222 1_555
O4 Pr0 2.316298 1_556
O4 Pr1 2.796333 1_565
O4 Pr1 2.796333 1_665
O4 Pr1 2.796333 1_555
O4 Pr1 2.796333 1_655
O5 Ti1 2.257222 1_555
O5 Pr1 2.316298 1_554
O5 Pr0 2.796333 1_445
O5 Pr0 2.796333 1_545
O5 Pr0 2.796333 1_555
O5 Pr0 2.796333 1_455
O6 Ti0 2.057306 1_555
O7 Ti1 2.057306 1_555
