# generated using pymatgen
data_Cs3B12H12Cl
_symmetry_space_group_name_H-M   'P 1'
_cell_length_a   7.27033249
_cell_length_b   7.27033249
_cell_length_c   7.27033316
_cell_angle_alpha   92.65222166
_cell_angle_beta   92.65222166
_cell_angle_gamma   92.65222074
_symmetry_Int_Tables_number   1
_chemical_formula_structural   Cs3B12H12Cl
_chemical_formula_sum   'Cs3 B12 H12 Cl1'
_cell_volume   383.01885734
_cell_formula_units_Z   1
loop_
 _symmetry_equiv_pos_site_id
 _symmetry_equiv_pos_as_xyz
  1  'x, y, z'
loop_
 _atom_site_type_symbol
 _atom_site_label
 _atom_site_symmetry_multiplicity
 _atom_site_fract_x
 _atom_site_fract_y
 _atom_site_fract_z
 _atom_site_occupancy
  Cs  Cs0  1  0.00000000  0.50000000  0.50000000  1
  Cs  Cs1  1  0.50000000  0.00000000  0.50000000  1
  Cs  Cs2  1  0.50000000  0.50000000  0.00000000  1
  B  B0  1  0.11783200  0.84410700  0.11783200  1
  B  B1  1  0.88216800  0.15589300  0.88216800  1
  B  B2  1  0.15589300  0.88216800  0.88216800  1
  B  B3  1  0.88216800  0.88216800  0.15589300  1
  B  B4  1  0.05581600  0.05581600  0.22485700  1
  B  B5  1  0.22485700  0.05581600  0.05581600  1
  B  B6  1  0.05581600  0.22485700  0.05581600  1
  B  B7  1  0.94418400  0.77514300  0.94418400  1
  B  B8  1  0.94418400  0.94418400  0.77514300  1
  B  B9  1  0.77514300  0.94418400  0.94418400  1
  B  B10  1  0.11783200  0.11783200  0.84410700  1
  B  B11  1  0.84410700  0.11783200  0.11783200  1
  H  H0  1  0.79749800  0.79749800  0.26587000  1
  H  H1  1  0.26587000  0.79749800  0.79749800  1
  H  H2  1  0.79749800  0.26587000  0.79749800  1
  H  H3  1  0.20250200  0.73413000  0.20250200  1
  H  H4  1  0.90530700  0.90530700  0.61509300  1
  H  H5  1  0.61509300  0.90530700  0.90530700  1
  H  H6  1  0.90530700  0.61509300  0.90530700  1
  H  H7  1  0.09469300  0.38490700  0.09469300  1
  H  H8  1  0.09469300  0.09469300  0.38490700  1
  H  H9  1  0.38490700  0.09469300  0.09469300  1
  H  H10  1  0.20250200  0.20250200  0.73413000  1
  H  H11  1  0.73413000  0.20250200  0.20250200  1
  Cl  Cl0  1  0.50000000  0.50000000  0.50000000  1
loop_
_geom_bond_atom_site_label_1
_geom_bond_atom_site_label_2
_geom_bond_distance
_geom_bond_site_symmetry_2
Cs0 H4 3.141678 1_455
Cs0 H8 3.141678 1_555
Cs0 H6 3.141679 1_455
Cs0 H7 3.141679 1_555
Cs0 H0 3.185391 1_455
Cs0 H10 3.185391 1_555
Cs0 H2 3.185391 1_455
Cs0 H3 3.185391 1_555
Cs0 H1 3.447594 1_555
Cs0 H11 3.447594 1_455
Cs1 H8 3.141678 1_555
Cs1 H4 3.141678 1_545
Cs1 H9 3.141679 1_555
Cs1 H5 3.141679 1_545
Cs1 H0 3.185391 1_545
Cs1 H10 3.185391 1_555
Cs1 H1 3.185391 1_545
Cs1 H11 3.185391 1_555
Cs1 H2 3.447594 1_555
Cs1 H3 3.447594 1_545
Cs2 H7 3.141678 1_555
Cs2 H9 3.141678 1_555
Cs2 H6 3.141678 1_554
Cs2 H5 3.141678 1_554
Cs2 H1 3.185391 1_554
Cs2 H2 3.185391 1_554
Cs2 H11 3.185391 1_555
Cs2 H3 3.185391 1_555
Cs2 H0 3.447594 1_555
Cs2 H10 3.447594 1_554
B0 H3 1.205496 1_555
B1 H2 1.205496 1_555
B2 H1 1.205496 1_555
B3 H0 1.205496 1_555
B4 H8 1.202296 1_555
B5 H9 1.202295 1_555
B6 H7 1.202295 1_555
B7 H6 1.202295 1_555
B8 H4 1.202296 1_555
B9 H5 1.202295 1_555
B10 H10 1.205496 1_555
B11 H11 1.205496 1_555
Cl0 Cs0 3.635166 1_555
Cl0 Cs1 3.635166 1_565
Cl0 Cs0 3.635166 1_655
Cl0 Cs1 3.635166 1_555
Cl0 Cs2 3.635167 1_555
Cl0 Cs2 3.635167 1_556
