# generated using pymatgen
data_MgV4O7F5
_symmetry_space_group_name_H-M   'P 1'
_cell_length_a   5.18871912
_cell_length_b   7.41044658
_cell_length_c   5.44814785
_cell_angle_alpha   94.06723533
_cell_angle_beta   85.77138146
_cell_angle_gamma   90.71094101
_symmetry_Int_Tables_number   1
_chemical_formula_structural   MgV4O7F5
_chemical_formula_sum   'Mg1 V4 O7 F5'
_cell_volume   208.38339656
_cell_formula_units_Z   1
loop_
 _symmetry_equiv_pos_site_id
 _symmetry_equiv_pos_as_xyz
  1  'x, y, z'
loop_
 _atom_site_type_symbol
 _atom_site_label
 _atom_site_symmetry_multiplicity
 _atom_site_fract_x
 _atom_site_fract_y
 _atom_site_fract_z
 _atom_site_occupancy
  Mg  Mg0  1  0.50605000  0.79665700  0.89788700  1
  V  V0  1  0.43860400  0.49753200  0.47529600  1
  V  V1  1  0.50995200  0.02331300  0.48039600  1
  V  V2  1  0.02128800  0.51495200  0.01367800  1
  V  V3  1  0.00799400  0.00420000  0.00523700  1
  O  O0  1  0.69492100  0.93778100  0.16748400  1
  O  O1  1  0.58733800  0.24460400  0.49814500  1
  O  O2  1  0.43218100  0.73328700  0.52233100  1
  O  O3  1  0.29911200  0.44765400  0.20407800  1
  O  O4  1  0.28832500  0.02417800  0.80093500  1
  O  O5  1  0.20470100  0.44693000  0.70422100  1
  O  O6  1  0.12643000  0.74055100  0.01449900  1
  F  F0  1  0.89862900  0.25590400  0.00523100  1
  F  F1  1  0.80352000  0.53167900  0.32437800  1
  F  F2  1  0.79165300  0.94373400  0.69800900  1
  F  F3  1  0.70053900  0.56836500  0.85368300  1
  F  F4  1  0.18876500  0.04760900  0.30951600  1
loop_
_geom_bond_atom_site_label_1
_geom_bond_atom_site_label_2
_geom_bond_distance
_geom_bond_site_symmetry_2
Mg0 O0 2.044605 1_556
Mg0 O6 2.070984 1_556
Mg0 O2 2.128093 1_555
Mg0 O4 2.158602 1_565
O0 V3 1.868840 1_665
O0 V1 1.962066 1_565
O1 V1 1.681258 1_555
O1 V0 2.051164 1_555
O2 V0 1.748039 1_555
O2 V1 2.206519 1_565
O3 V0 1.708068 1_555
O3 V2 1.927324 1_555
O4 V3 1.776471 1_556
O4 V1 2.018565 1_555
O5 V0 1.732324 1_555
O5 V2 1.912328 1_556
O6 V2 1.751911 1_555
O6 V3 2.060513 1_565
F0 V3 1.956377 1_655
F0 V2 2.013392 1_655
F1 V2 1.961920 1_655
F1 V0 2.028117 1_555
F2 V1 2.065426 1_565
F2 V3 2.102560 1_666
F2 Mg0 2.111896 1_555
F3 Mg0 1.971577 1_555
F3 V2 1.991365 1_656
F3 V0 2.571867 1_555
F4 V3 1.969162 1_555
F4 V1 1.984075 1_555
