# generated using pymatgen
data_Na3Ti3InSi3(SO8)3
_symmetry_space_group_name_H-M   'P 1'
_cell_length_a   8.82735995
_cell_length_b   8.88181949
_cell_length_c   22.54062186
_cell_angle_alpha   89.78761261
_cell_angle_beta   90.35442655
_cell_angle_gamma   120.17767997
_symmetry_Int_Tables_number   1
_chemical_formula_structural   Na3Ti3InSi3(SO8)3
_chemical_formula_sum   'Na9 Ti9 In3 Si9 S9 O72'
_cell_volume   1527.70863339
_cell_formula_units_Z   3
loop_
 _symmetry_equiv_pos_site_id
 _symmetry_equiv_pos_as_xyz
  1  'x, y, z'
loop_
 _atom_site_type_symbol
 _atom_site_label
 _atom_site_symmetry_multiplicity
 _atom_site_fract_x
 _atom_site_fract_y
 _atom_site_fract_z
 _atom_site_occupancy
  Na  Na0  1  0.35602150  0.35766198  0.24352552  1
  Na  Na1  1  0.63398563  0.62741731  0.75310366  1
  Na  Na2  1  0.96858142  0.29017778  0.41478855  1
  Na  Na3  1  0.99534982  0.99898488  0.50052386  1
  Na  Na4  1  0.99677214  0.99197762  0.99960151  1
  Na  Na5  1  0.66638532  0.33091167  0.83369473  1
  Na  Na6  1  0.67316464  0.32688121  0.33079999  1
  Na  Na7  1  0.31286278  0.66422274  0.16368665  1
  Na  Na8  1  0.30417377  0.65553530  0.66510238  1
  Ti  Ti0  1  0.00550374  0.98656984  0.85392233  1
  Ti  Ti1  1  0.01589115  0.01889492  0.64764968  1
  Ti  Ti2  1  0.01529095  0.01820625  0.14133655  1
  Ti  Ti3  1  0.66479934  0.36229915  0.98155456  1
  Ti  Ti4  1  0.66036338  0.31162020  0.47832706  1
  Ti  Ti5  1  0.33852018  0.66081009  0.02147901  1
  Ti  Ti6  1  0.33384924  0.65132567  0.51840776  1
  Ti  Ti7  1  0.33957250  0.65814506  0.31517572  1
  Ti  Ti8  1  0.32090656  0.64871946  0.81179913  1
  In  In0  1  0.99530992  0.00289825  0.35499767  1
  In  In1  1  0.67722608  0.33832405  0.68706288  1
  In  In2  1  0.68713541  0.34575789  0.17893987  1
  Si  Si0  1  0.99633461  0.29588202  0.25115735  1
  Si  Si1  1  0.28609288  0.28460053  0.75298991  1
  Si  Si2  1  0.01128533  0.72005364  0.74894073  1
  Si  Si3  1  0.96162758  0.33247461  0.58273338  1
  Si  Si4  1  0.96995668  0.63941803  0.08197719  1
  Si  Si5  1  0.37857707  0.33878999  0.08461042  1
  Si  Si6  1  0.62302619  0.67451403  0.91523633  1
  Si  Si7  1  0.61239324  0.94572164  0.41817828  1
  Si  Si8  1  0.34667509  0.37736559  0.41773558  1
  S  S0  1  0.28824869  0.99199552  0.24888535  1
  S  S1  1  0.70645773  0.71117154  0.25039126  1
  S  S2  1  0.71382040  0.99593798  0.75208176  1
  S  S3  1  0.37159740  0.03647337  0.58243546  1
  S  S4  1  0.66767314  0.62893552  0.58220820  1
  S  S5  1  0.66572427  0.03894455  0.08036451  1
  S  S6  1  0.04189117  0.37528381  0.91721178  1
  S  S7  1  0.33887842  0.95582133  0.91605689  1
  S  S8  1  0.04685911  0.66270034  0.41762493  1
  O  O0  1  0.21007937  0.01808468  0.30342412  1
  O  O1  1  0.80802721  0.78148867  0.30579581  1
  O  O2  1  0.97862711  0.19968750  0.31417122  1
  O  O3  1  0.18118926  0.16663790  0.80983499  1
  O  O4  1  0.97884641  0.81288840  0.80794476  1
  O  O5  1  0.81912572  0.01599565  0.80580922  1
  O  O6  1  0.79504157  0.97226390  0.69747144  1
  O  O7  1  0.16640283  0.20050056  0.69214122  1
  O  O8  1  0.02850998  0.84217461  0.69126437  1
  O  O9  1  0.79454670  0.81362926  0.19754079  1
  O  O10  1  0.02861401  0.18916787  0.19525469  1
  O  O11  1  0.17829038  0.97196161  0.19537315  1
  O  O12  1  0.88804567  0.37330800  0.64157234  1
  O  O13  1  0.47409567  0.11168594  0.63711809  1
  O  O14  1  0.63124223  0.53138774  0.63929991  1
  O  O15  1  0.91552341  0.52153908  0.14057183  1
  O  O16  1  0.62846033  0.10225036  0.13592445  1
  O  O17  1  0.47809040  0.36828794  0.14725631  1
  O  O18  1  0.47705673  0.30799240  0.02818398  1
  O  O19  1  0.83261367  0.53316703  0.02559776  1
  O  O20  1  0.69335742  0.15151548  0.02880345  1
  O  O21  1  0.46039141  0.15104567  0.52971801  1
  O  O22  1  0.68554707  0.53288309  0.53211751  1
  O  O23  1  0.83465875  0.30630189  0.52353174  1
  O  O24  1  0.51941269  0.69238237  0.97169972  1
  O  O25  1  0.15226702  0.46358225  0.96973222  1
  O  O26  1  0.30983299  0.85015338  0.96983840  1
  O  O27  1  0.50669073  0.83325962  0.47564993  1
  O  O28  1  0.30914634  0.47656520  0.47222914  1
  O  O29  1  0.15019361  0.68536892  0.47177765  1
  O  O30  1  0.12733259  0.63380721  0.36374026  1
  O  O31  1  0.49281090  0.85486828  0.35831130  1
  O  O32  1  0.36545005  0.49528522  0.35714343  1
  O  O33  1  0.12465231  0.48558936  0.86262307  1
  O  O34  1  0.35395254  0.86812476  0.86254513  1
  O  O35  1  0.50077239  0.64483042  0.85567412  1
  O  O36  1  0.02709802  0.81677553  0.41231718  1
  O  O37  1  0.80753313  0.97325234  0.41905977  1
  O  O38  1  0.17228570  0.18802272  0.41706201  1
  O  O39  1  0.02895959  0.20404673  0.91161922  1
  O  O40  1  0.17851081  0.97662739  0.91100437  1
  O  O41  1  0.81883548  0.84684024  0.90926721  1
  O  O42  1  0.97662271  0.15392855  0.58940697  1
  O  O43  1  0.19655618  0.02471523  0.58574575  1
  O  O44  1  0.82646981  0.80324526  0.58650223  1
  O  O45  1  0.97566145  0.82560522  0.09194912  1
  O  O46  1  0.82482255  0.02057701  0.08770255  1
  O  O47  1  0.18154394  0.16337868  0.08835244  1
  O  O48  1  0.69060865  0.14825816  0.74904645  1
  O  O49  1  0.48093296  0.31337001  0.74763868  1
  O  O50  1  0.83300475  0.53260084  0.74991613  1
  O  O51  1  0.66700580  0.52748112  0.24783461  1
  O  O52  1  0.82465783  0.31506216  0.24717749  1
  O  O53  1  0.46225934  0.15302446  0.24390578  1
  O  O54  1  0.63955605  0.49612418  0.92270315  1
  O  O55  1  0.86608087  0.35668847  0.92203911  1
  O  O56  1  0.49703006  0.13107851  0.92087952  1
  O  O57  1  0.63720494  0.14567264  0.42408965  1
  O  O58  1  0.52660004  0.37362731  0.42729853  1
  O  O59  1  0.87136036  0.50036805  0.42216639  1
  O  O60  1  0.34990016  0.50476086  0.07274159  1
  O  O61  1  0.16278072  0.66945920  0.06456727  1
  O  O62  1  0.51206569  0.86038800  0.07269556  1
  O  O63  1  0.34700502  0.86126262  0.57479349  1
  O  O64  1  0.51110947  0.65222390  0.57465156  1
  O  O65  1  0.15649489  0.50424535  0.57216982  1
  O  O66  1  0.30444427  0.83514607  0.25330535  1
  O  O67  1  0.53040811  0.70183668  0.25447239  1
  O  O68  1  0.18376221  0.48917988  0.25564689  1
  O  O69  1  0.30533774  0.48076344  0.75907573  1
  O  O70  1  0.18702671  0.70603929  0.75922723  1
  O  O71  1  0.53881505  0.83260336  0.75565187  1
loop_
_geom_bond_atom_site_label_1
_geom_bond_atom_site_label_2
_geom_bond_distance
_geom_bond_site_symmetry_2
Na0 O68 2.354704 1_555
Na0 O51 2.378107 1_555
Na0 O17 2.409137 1_555
Na0 O53 2.428266 1_555
Na0 O67 2.654263 1_555
Na0 O10 2.720508 1_555
Na0 O32 2.824564 1_555
Na0 O0 2.943494 1_555
Na1 O50 2.300043 1_555
Na1 O71 2.360281 1_555
Na1 O49 2.415064 1_555
Na1 O69 2.517048 1_555
Na1 O35 2.640302 1_555
Na1 O14 2.702412 1_555
Na1 O4 2.904444 1_555
Na1 O6 2.930971 1_555
Na2 O38 2.387063 1_655
Na2 O59 2.421613 1_555
Na2 O2 2.425944 1_555
Na2 O37 2.435225 1_545
Na2 O57 2.545386 1_555
Na2 O23 2.763117 1_555
Na2 O30 2.880417 1_655
Na2 O28 2.901539 1_655
Na3 O37 2.399430 1_555
Na3 O38 2.484792 1_665
Na3 O42 2.487649 1_565
Na3 O44 2.530976 1_555
Na3 O43 2.539658 1_665
Na3 O36 2.671592 1_655
Na4 O41 2.493831 1_555
Na4 O45 2.501277 1_556
Na4 O47 2.542781 1_666
Na4 O46 2.596285 1_566
Na4 O40 2.615718 1_655
Na4 O39 2.646269 1_665
Na5 O49 2.484634 1_555
Na5 O50 2.509740 1_555
Na5 O56 2.567098 1_555
Na5 O54 2.571317 1_555
Na5 O55 2.584464 1_555
Na5 O48 2.587445 1_555
Na6 O52 2.350744 1_555
Na6 O57 2.565631 1_555
Na6 O51 2.597316 1_555
Na6 O53 2.602666 1_555
Na6 O59 2.635378 1_555
Na6 O58 2.675636 1_555
Na7 O68 2.497309 1_555
Na7 O66 2.555160 1_555
Na7 O61 2.602613 1_555
Na7 O60 2.609696 1_555
Na7 O62 2.696713 1_555
Na7 O67 2.701561 1_555
Na8 O65 2.473663 1_555
Na8 O70 2.504486 1_555
Na8 O69 2.624491 1_555
Na8 O63 2.629232 1_555
Na8 O64 2.755902 1_555
Na8 O71 2.761502 1_555
In0 O2 2.041739 1_555
In0 O37 2.118965 1_545
In0 O38 2.123382 1_655
In0 O1 2.134302 1_545
In0 O0 2.175511 1_655
In0 O36 2.219652 1_645
In1 O12 2.012736 1_555
In1 O50 2.117562 1_555
In1 O49 2.134674 1_555
In1 O13 2.213060 1_555
In1 O14 2.223720 1_555
In1 O48 2.235337 1_555
In2 O15 2.024119 1_555
In2 O52 2.054354 1_555
In2 O17 2.075849 1_555
In2 O16 2.183840 1_555
In2 O51 2.314866 1_555
In2 O53 2.369866 1_555
O0 S0 1.488107 1_545
O1 S1 1.477338 1_555
O2 Si0 1.622141 1_555
O3 Si1 1.620597 1_555
O3 Ti0 1.861232 1_545
O4 Si2 1.667618 1_655
O4 Ti0 1.775654 1_655
O5 S2 1.477721 1_545
O5 Ti0 2.087902 1_645
O6 S2 1.495961 1_555
O6 Ti1 2.108363 1_665
O7 Si1 1.658816 1_555
O7 Ti1 1.792670 1_555
O8 Si2 1.648012 1_555
O8 Ti1 1.898820 1_565
O9 S1 1.464217 1_555
O9 Ti2 2.270988 1_665
O10 Si0 1.688836 1_455
O10 Ti2 1.904985 1_555
O11 S0 1.497393 1_555
O11 Ti2 2.071557 1_565
O12 Si3 1.601084 1_555
O13 S3 1.472684 1_555
O14 S4 1.492271 1_555
O15 Si4 1.601024 1_555
O16 S5 1.479530 1_555
O17 Si5 1.609433 1_555
O18 Si5 1.644249 1_555
O18 Ti3 1.816054 1_554
O19 Si4 1.677796 1_555
O19 Ti3 1.793303 1_554
O20 S5 1.469564 1_555
O20 Ti3 2.271369 1_554
O21 S3 1.504186 1_555
O21 Ti4 1.993461 1_555
O22 S4 1.473836 1_555
O22 Ti4 2.226362 1_555
O23 Si3 1.677146 1_555
O23 Ti4 1.860371 1_555
O24 Si6 1.625851 1_555
O24 Ti5 1.859323 1_556
O25 S6 1.479947 1_555
O25 Ti5 2.056242 1_556
O26 S7 1.472972 1_555
O26 Ti5 2.158054 1_556
O27 Si7 1.617061 1_555
O27 Ti6 1.842790 1_555
O28 Si8 1.643566 1_555
O28 Ti6 1.791421 1_555
O29 S8 1.471717 1_555
O29 Ti6 2.072157 1_555
O30 S8 1.497324 1_555
O30 Ti7 2.090829 1_555
O31 Si7 1.649393 1_555
O31 Ti7 1.856933 1_555
O32 Si8 1.675543 1_555
O32 Ti7 1.832695 1_555
O33 S6 1.513341 1_555
O33 Ti8 1.975256 1_555
O34 S7 1.480690 1_555
O34 Ti8 2.152178 1_555
O35 Si6 1.653868 1_555
O35 Ti8 1.880328 1_555
O36 S8 1.468322 1_555
O37 Si7 1.613561 1_555
O38 Si8 1.610997 1_555
O39 S6 1.472667 1_555
O39 Ti0 2.253548 1_545
O40 S7 1.520513 1_555
O40 Ti0 2.026343 1_555
O41 Si6 1.640117 1_555
O41 Ti0 1.941567 1_655
O42 Si3 1.662521 1_555
O42 Ti1 1.919053 1_655
O43 S3 1.497700 1_555
O43 Ti1 2.106458 1_555
O44 S4 1.479452 1_555
O44 Ti1 2.266148 1_665
O45 Si4 1.645179 1_555
O45 Ti2 1.922400 1_665
O46 S5 1.501209 1_555
O46 Ti2 2.073434 1_655
O47 Si5 1.654098 1_555
O47 Ti2 1.830433 1_555
O48 S2 1.467917 1_545
O49 Si1 1.611979 1_555
O50 Si2 1.617114 1_655
O51 S1 1.488499 1_555
O52 Si0 1.609789 1_555
O53 S0 1.486560 1_545
O54 Si6 1.670382 1_555
O54 Ti3 1.863628 1_555
O55 S6 1.480506 1_655
O55 Ti3 2.253467 1_555
O56 S7 1.482706 1_545
O56 Ti3 2.284577 1_555
O57 Si7 1.682256 1_545
O57 Ti4 1.848290 1_555
O58 Si8 1.618293 1_555
O58 Ti4 1.911237 1_555
O59 S8 1.498174 1_655
O59 Ti4 2.180879 1_555
O60 Si5 1.637100 1_555
O60 Ti5 1.841987 1_555
O61 Si4 1.635029 1_455
O61 Ti5 1.869435 1_555
O62 S5 1.490391 1_565
O62 Ti5 2.021127 1_555
O63 S3 1.469834 1_565
O63 Ti6 2.214431 1_555
O64 S4 1.505347 1_555
O64 Ti6 2.004669 1_555
O65 Si3 1.645349 1_455
O65 Ti6 1.892528 1_555
O66 S0 1.473141 1_555
O66 Ti7 2.231821 1_555
O67 S1 1.517429 1_555
O67 Ti7 2.056200 1_555
O68 Si0 1.684812 1_455
O68 Ti7 1.965013 1_555
O69 Si1 1.669474 1_555
O69 Ti8 1.860529 1_555
O70 Si2 1.632592 1_555
O70 Ti8 1.908711 1_555
O71 S2 1.498361 1_555
O71 Ti8 2.196715 1_555
