# generated using pymatgen
data_Ce(MnGe)2
_symmetry_space_group_name_H-M   'P 1'
_cell_length_a   6.20293923
_cell_length_b   6.20293923
_cell_length_c   6.20293923
_cell_angle_alpha   140.46886523
_cell_angle_beta   140.46886523
_cell_angle_gamma   57.14208095
_symmetry_Int_Tables_number   1
_chemical_formula_structural   Ce(MnGe)2
_chemical_formula_sum   'Ce1 Mn2 Ge2'
_cell_volume   95.88146396
_cell_formula_units_Z   1
loop_
 _symmetry_equiv_pos_site_id
 _symmetry_equiv_pos_as_xyz
  1  'x, y, z'
loop_
 _atom_site_type_symbol
 _atom_site_label
 _atom_site_symmetry_multiplicity
 _atom_site_fract_x
 _atom_site_fract_y
 _atom_site_fract_z
 _atom_site_occupancy
  Ce  Ce0  1  0.00000000  0.00000000  -0.00000000  1
  Mn  Mn0  1  0.75000000  0.25000000  0.50000000  1
  Mn  Mn1  1  0.25000000  0.75000000  0.50000000  1
  Ge  Ge0  1  0.61667557  0.61667557  0.00000000  1
  Ge  Ge1  1  0.38332443  0.38332443  -0.00000000  1
loop_
_geom_bond_atom_site_label_1
_geom_bond_atom_site_label_2
_geom_bond_distance
_geom_bond_site_symmetry_2
Ce0 Ge1 3.227433 1_444
Ce0 Ge1 3.227433 1_545
Ce0 Ge0 3.227433 1_545
Ce0 Ge0 3.227433 1_455
Ce0 Ge0 3.227433 1_556
Ce0 Ge1 3.227433 1_556
Ce0 Ge0 3.227433 1_444
Ce0 Ge1 3.227433 1_455
Ce0 Mn0 3.437908 1_454
Ce0 Mn0 3.437908 1_444
Ce0 Mn0 3.437908 1_555
Ce0 Mn1 3.437908 1_544
Ce0 Mn1 3.437908 1_444
Ce0 Mn1 3.437908 1_555
Ce0 Mn1 3.437908 1_545
Ce0 Mn0 3.437908 1_455
Ge0 Ge1 2.542396 1_555
Ge0 Mn0 2.551511 1_554
Ge0 Mn0 2.551511 1_565
Ge0 Mn1 2.551511 1_655
Ge0 Mn1 2.551511 1_554
Ge1 Mn0 2.551511 1_454
Ge1 Mn0 2.551511 1_555
Ge1 Mn1 2.551511 1_544
Ge1 Mn1 2.551511 1_555
