# generated using pymatgen
data_LiNi(WO4)2
_symmetry_space_group_name_H-M   'P 1'
_cell_length_a   5.04317800
_cell_length_b   5.73947980
_cell_length_c   5.83359667
_cell_angle_alpha   110.12179597
_cell_angle_beta   89.63475833
_cell_angle_gamma   115.94110036
_symmetry_Int_Tables_number   1
_chemical_formula_structural   LiNi(WO4)2
_chemical_formula_sum   'Li1 Ni1 W2 O8'
_cell_volume   140.48170634
_cell_formula_units_Z   1
loop_
 _symmetry_equiv_pos_site_id
 _symmetry_equiv_pos_as_xyz
  1  'x, y, z'
loop_
 _atom_site_type_symbol
 _atom_site_label
 _atom_site_symmetry_multiplicity
 _atom_site_fract_x
 _atom_site_fract_y
 _atom_site_fract_z
 _atom_site_occupancy
  Li  Li0  1  0.96599600  0.93265000  0.29056900  1
  Ni  Ni0  1  0.50100300  0.00056900  0.99135400  1
  W  W0  1  0.26278000  0.52367500  0.33073200  1
  W  W1  1  0.74238200  0.48289200  0.66435300  1
  O  O0  1  0.26938500  0.22809600  0.07088400  1
  O  O1  1  0.72353600  0.76552700  0.93480900  1
  O  O2  1  0.67804400  0.71407900  0.45330600  1
  O  O3  1  0.24704500  0.75460900  0.18797400  1
  O  O4  1  0.17915800  0.70950700  0.67237400  1
  O  O5  1  0.32336300  0.28488100  0.52818300  1
  O  O6  1  0.73829100  0.25197600  0.80792800  1
  O  O7  1  0.82401700  0.27933800  0.32163100  1
loop_
_geom_bond_atom_site_label_1
_geom_bond_atom_site_label_2
_geom_bond_distance
_geom_bond_site_symmetry_2
Li0 O2 1.947262 1_555
Li0 O5 2.042704 1_665
Li0 O3 2.060809 1_655
Li0 O1 2.087798 1_554
Li0 O7 2.345558 1_565
Li0 O0 2.461526 1_665
Ni0 O6 2.048022 1_555
Ni0 O0 2.048370 1_556
Ni0 O1 2.049837 1_545
Ni0 O4 2.101254 1_545
Ni0 O3 2.112417 1_546
Ni0 O7 2.136475 1_556
O0 W0 1.859132 1_555
O1 W1 1.871305 1_555
O2 W0 1.889594 1_555
O2 W1 2.210755 1_555
O3 W0 1.819055 1_555
O4 W1 1.999704 1_455
O4 W0 2.051281 1_555
O5 W1 1.920228 1_555
O5 W0 2.180722 1_555
O6 W1 1.788311 1_555
O7 W0 2.025128 1_655
O7 W1 2.082029 1_555
