# generated using pymatgen
data_Mn2Sb
_symmetry_space_group_name_H-M   'P 1'
_cell_length_a   4.03784577
_cell_length_b   4.03784577
_cell_length_c   6.79105683
_cell_angle_alpha   90.00000000
_cell_angle_beta   90.00000000
_cell_angle_gamma   90.00000000
_symmetry_Int_Tables_number   1
_chemical_formula_structural   Mn2Sb
_chemical_formula_sum   'Mn4 Sb2'
_cell_volume   110.72273833
_cell_formula_units_Z   2
loop_
 _symmetry_equiv_pos_site_id
 _symmetry_equiv_pos_as_xyz
  1  'x, y, z'
loop_
 _atom_site_type_symbol
 _atom_site_label
 _atom_site_symmetry_multiplicity
 _atom_site_fract_x
 _atom_site_fract_y
 _atom_site_fract_z
 _atom_site_occupancy
  Mn  Mn0  1  0.25000000  0.75000000  -0.00000000  1
  Mn  Mn1  1  0.75000000  0.25000000  -0.00000000  1
  Mn  Mn2  1  0.25000000  0.25000000  0.30370248  1
  Mn  Mn3  1  0.75000000  0.75000000  0.69629752  1
  Sb  Sb0  1  0.25000000  0.25000000  0.71232275  1
  Sb  Sb1  1  0.75000000  0.75000000  0.28767725  1
loop_
_geom_bond_atom_site_label_1
_geom_bond_atom_site_label_2
_geom_bond_distance
_geom_bond_site_symmetry_2
Mn0 Sb1 2.809400 1_455
Mn0 Sb0 2.809400 1_564
Mn0 Sb1 2.809400 1_555
Mn0 Sb0 2.809400 1_554
Mn0 Mn1 2.855188 1_565
Mn0 Mn1 2.855188 1_455
Mn0 Mn1 2.855188 1_555
Mn0 Mn1 2.855188 1_465
Mn0 Mn3 2.886138 1_554
Mn0 Mn2 2.886138 1_555
Mn0 Mn2 2.886138 1_565
Mn0 Mn3 2.886138 1_454
Mn1 Sb0 2.809400 1_654
Mn1 Sb1 2.809400 1_555
Mn1 Sb0 2.809400 1_554
Mn1 Sb1 2.809400 1_545
Mn1 Mn3 2.886138 1_554
Mn1 Mn2 2.886138 1_555
Mn1 Mn2 2.886138 1_655
Mn1 Mn3 2.886138 1_544
Mn2 Sb0 2.774963 1_555
Mn2 Sb1 2.857261 1_555
Mn2 Sb1 2.857261 1_545
Mn2 Sb1 2.857261 1_445
Mn2 Sb1 2.857261 1_455
Mn3 Sb1 2.774963 1_555
Mn3 Sb0 2.857261 1_655
Mn3 Sb0 2.857261 1_665
Mn3 Sb0 2.857261 1_555
Mn3 Sb0 2.857261 1_565
