# generated using pymatgen
data_K2GeTe4
_symmetry_space_group_name_H-M   'P 1'
_cell_length_a   8.61675261
_cell_length_b   10.05298061
_cell_length_c   12.80128258
_cell_angle_alpha   75.75043050
_cell_angle_beta   90.00000000
_cell_angle_gamma   90.00000000
_symmetry_Int_Tables_number   1
_chemical_formula_structural   K2GeTe4
_chemical_formula_sum   'K8 Ge4 Te16'
_cell_volume   1074.78114319
_cell_formula_units_Z   4
loop_
 _symmetry_equiv_pos_site_id
 _symmetry_equiv_pos_as_xyz
  1  'x, y, z'
loop_
 _atom_site_type_symbol
 _atom_site_label
 _atom_site_symmetry_multiplicity
 _atom_site_fract_x
 _atom_site_fract_y
 _atom_site_fract_z
 _atom_site_occupancy
  K  K0  1  0.92542316  0.19450885  0.65339553  1
  K  K1  1  0.42542316  0.30549115  0.34660447  1
  K  K2  1  0.07457684  0.80549115  0.34660447  1
  K  K3  1  0.57457684  0.69450885  0.65339553  1
  K  K4  1  0.56393995  0.21264602  0.95453464  1
  K  K5  1  0.06393995  0.28735398  0.04546536  1
  K  K6  1  0.43606005  0.78735398  0.04546536  1
  K  K7  1  0.93606005  0.71264602  0.95453464  1
  Ge  Ge0  1  0.63766777  0.96272042  0.25667784  1
  Ge  Ge1  1  0.13766777  0.53727958  0.74332216  1
  Ge  Ge2  1  0.36233223  0.03727958  0.74332216  1
  Ge  Ge3  1  0.86233223  0.46272042  0.25667784  1
  Te  Te0  1  0.72921966  0.04529732  0.42905827  1
  Te  Te1  1  0.22921966  0.45470268  0.57094173  1
  Te  Te2  1  0.27078034  0.95470268  0.57094173  1
  Te  Te3  1  0.77078034  0.54529732  0.42905827  1
  Te  Te4  1  0.34386288  0.53000818  0.88379259  1
  Te  Te5  1  0.84386288  0.96999182  0.11620741  1
  Te  Te6  1  0.65613712  0.46999182  0.11620741  1
  Te  Te7  1  0.15613712  0.03000818  0.88379259  1
  Te  Te8  1  0.36042393  0.04170483  0.20221461  1
  Te  Te9  1  0.86042393  0.45829517  0.79778539  1
  Te  Te10  1  0.63957607  0.95829517  0.79778539  1
  Te  Te11  1  0.13957607  0.54170483  0.20221461  1
  Te  Te12  1  0.52724046  0.71840465  0.34951182  1
  Te  Te13  1  0.02724046  0.78159535  0.65048818  1
  Te  Te14  1  0.47275954  0.28159535  0.65048818  1
  Te  Te15  1  0.97275954  0.21840465  0.34951182  1
loop_
_geom_bond_atom_site_label_1
_geom_bond_atom_site_label_2
_geom_bond_distance
_geom_bond_site_symmetry_2
K0 Te10 3.600195 1_545
K0 Te7 3.603423 1_655
K0 Te9 3.629800 1_555
K0 Te1 3.667355 1_655
K0 Te15 3.859653 1_555
K0 Te0 3.933987 1_555
K0 Te14 3.995702 1_555
K1 Te11 3.600195 1_555
K1 Te6 3.603423 1_555
K1 Te8 3.629800 1_555
K1 Te0 3.667355 1_555
K1 Te14 3.859653 1_555
K1 Te1 3.933987 1_555
K1 Te15 3.995702 1_455
K2 Te8 3.600195 1_565
K2 Te5 3.603423 1_455
K2 Te11 3.629800 1_555
K2 Te3 3.667355 1_455
K2 Te13 3.859653 1_555
K2 Te2 3.933987 1_555
K2 Te12 3.995702 1_555
K3 Te9 3.600195 1_555
K3 Te4 3.603423 1_555
K3 Te10 3.629800 1_555
K3 Te2 3.667355 1_555
K3 Te12 3.859653 1_555
K3 Te3 3.933987 1_555
K3 Te13 3.995702 1_655
K4 Te4 3.629431 1_555
K4 Te8 3.660457 1_556
K4 Te10 3.676303 1_545
K4 Te5 3.683268 1_546
K4 Te9 3.769889 1_555
K4 Te6 3.774040 1_556
K4 Te14 3.862475 1_555
K5 Te5 3.629431 1_445
K5 Te9 3.660457 1_454
K5 Te11 3.676303 1_555
K5 Te4 3.683268 1_554
K5 Te8 3.769889 1_555
K5 Te7 3.774040 1_554
K5 Te15 3.862475 1_455
K6 Te6 3.629431 1_555
K6 Te10 3.660457 1_554
K6 Te8 3.676303 1_565
K6 Te7 3.683268 1_564
K6 Te11 3.769889 1_555
K6 Te4 3.774040 1_554
K6 Te12 3.862475 1_555
K7 Te7 3.629431 1_665
K7 Te11 3.660457 1_656
K7 Te9 3.676303 1_555
K7 Te6 3.683268 1_556
K7 Te10 3.769889 1_555
K7 Te5 3.774040 1_556
K7 Te13 3.862475 1_655
Ge0 Te5 2.516136 1_555
Ge0 Te8 2.559508 1_565
Ge0 Te12 2.629297 1_555
Ge0 Te0 2.661347 1_565
Ge1 Te4 2.516136 1_555
Ge1 Te9 2.559508 1_455
Ge1 Te13 2.629297 1_555
Ge1 Te1 2.661347 1_555
Ge2 Te7 2.516136 1_555
Ge2 Te10 2.559508 1_545
Ge2 Te14 2.629297 1_555
Ge2 Te2 2.661347 1_545
Ge3 Te6 2.516136 1_555
Ge3 Te11 2.559508 1_655
Ge3 Te15 2.629297 1_555
Ge3 Te3 2.661347 1_555
Te0 Te15 2.756228 1_555
Te1 Te14 2.756228 1_555
Te12 Te3 2.756228 1_555
Te13 Te2 2.756228 1_555
