# generated using pymatgen
data_MgTiV2CrO10
_symmetry_space_group_name_H-M   'P 1'
_cell_length_a   6.61467828
_cell_length_b   6.60976406
_cell_length_c   4.93829597
_cell_angle_alpha   94.10054173
_cell_angle_beta   85.77386716
_cell_angle_gamma   88.54259220
_symmetry_Int_Tables_number   1
_chemical_formula_structural   MgTiV2CrO10
_chemical_formula_sum   'Mg1 Ti1 V2 Cr1 O10'
_cell_volume   214.66892372
_cell_formula_units_Z   1
loop_
 _symmetry_equiv_pos_site_id
 _symmetry_equiv_pos_as_xyz
  1  'x, y, z'
loop_
 _atom_site_type_symbol
 _atom_site_label
 _atom_site_symmetry_multiplicity
 _atom_site_fract_x
 _atom_site_fract_y
 _atom_site_fract_z
 _atom_site_occupancy
  Mg  Mg0  1  0.49908100  0.99373800  0.99541300  1
  Ti  Ti0  1  0.75218700  0.24685900  0.49442600  1
  V  V0  1  0.25911400  0.24640500  0.60517500  1
  V  V1  1  0.75199800  0.75371400  0.38554700  1
  Cr  Cr0  1  0.25578000  0.75033600  0.49631200  1
  O  O0  1  0.02394200  0.75605200  0.32668600  1
  O  O1  1  0.30633000  0.19582500  0.27262600  1
  O  O2  1  0.26123600  0.51843900  0.66667900  1
  O  O3  1  0.26564500  0.96233400  0.73993000  1
  O  O4  1  0.46709700  0.76063700  0.25206900  1
  O  O5  1  0.52919900  0.22901900  0.73959900  1
  O  O6  1  0.73453400  0.02348200  0.24996700  1
  O  O7  1  0.73963400  0.47898600  0.32004400  1
  O  O8  1  0.70010400  0.79987900  0.71808300  1
  O  O9  1  0.98411900  0.23429500  0.66799900  1
loop_
_geom_bond_atom_site_label_1
_geom_bond_atom_site_label_2
_geom_bond_distance
_geom_bond_site_symmetry_2
Mg0 O4 2.069154 1_556
Mg0 O3 2.070044 1_555
Mg0 O6 2.076844 1_566
Mg0 O5 2.076947 1_565
Mg0 O1 2.162977 1_566
Mg0 O8 2.163236 1_555
Cr0 O4 1.783634 1_555
Cr0 O3 1.786129 1_555
Cr0 O2 1.801289 1_555
Cr0 O0 1.801594 1_555
O0 V1 1.801522 1_455
O1 V0 1.657345 1_555
O2 V0 1.802595 1_555
O3 V0 2.036922 1_565
O4 V1 2.042311 1_555
O5 Ti0 1.849717 1_555
O5 V0 1.954687 1_555
O6 Ti0 1.850835 1_555
O6 V1 1.952622 1_545
O7 Ti0 1.815374 1_555
O7 V1 1.826532 1_555
O8 V1 1.657577 1_555
O9 Ti0 1.814596 1_555
O9 V0 1.827352 1_655
