# generated using pymatgen
data_MgCu6OF11
_symmetry_space_group_name_H-M   'P 1'
_cell_length_a   5.59332528
_cell_length_b   5.25285532
_cell_length_c   8.19215622
_cell_angle_alpha   90.67229735
_cell_angle_beta   96.14737293
_cell_angle_gamma   90.03745795
_symmetry_Int_Tables_number   1
_chemical_formula_structural   MgCu6OF11
_chemical_formula_sum   'Mg1 Cu6 O1 F11'
_cell_volume   239.29219255
_cell_formula_units_Z   1
loop_
 _symmetry_equiv_pos_site_id
 _symmetry_equiv_pos_as_xyz
  1  'x, y, z'
loop_
 _atom_site_type_symbol
 _atom_site_label
 _atom_site_symmetry_multiplicity
 _atom_site_fract_x
 _atom_site_fract_y
 _atom_site_fract_z
 _atom_site_occupancy
  Mg  Mg0  1  0.01487000  0.00742300  0.50154700  1
  Cu  Cu0  1  0.99748600  0.99496100  0.00467600  1
  Cu  Cu1  1  0.50606900  0.50735700  0.01034900  1
  Cu  Cu2  1  0.44755600  0.94500700  0.25626400  1
  Cu  Cu3  1  0.86268500  0.50555000  0.30240600  1
  Cu  Cu4  1  0.14494000  0.52315500  0.69378100  1
  Cu  Cu5  1  0.61754000  0.02717100  0.69090700  1
  O  O0  1  0.56895800  0.62931500  0.22326700  1
  F  F0  1  0.28761900  0.17506300  0.08989000  1
  F  F1  1  0.06645700  0.83823000  0.29205900  1
  F  F2  1  0.81058300  0.27296700  0.08287100  1
  F  F3  1  0.12800700  0.33100400  0.42489700  1
  F  F4  1  0.66404500  0.11452700  0.43871900  1
  F  F5  1  0.31494400  0.85430900  0.61369600  1
  F  F6  1  0.86451600  0.69390700  0.58103900  1
  F  F7  1  0.44218000  0.35859900  0.78732200  1
  F  F8  1  0.18435500  0.70687900  0.93978200  1
  F  F9  1  0.94983900  0.18860900  0.71622000  1
  F  F10  1  0.70234800  0.83985400  0.90499500  1
loop_
_geom_bond_atom_site_label_1
_geom_bond_atom_site_label_2
_geom_bond_distance
_geom_bond_site_symmetry_2
Cu0 F10 1.936421 1_554
Cu0 F0 1.937965 1_665
Cu0 F2 1.938878 1_565
Cu0 F8 1.940937 1_654
Cu0 F1 2.494127 1_655
Cu0 F9 2.571331 1_564
Cu1 O0 1.848959 1_555
Cu1 F7 1.975546 1_554
Cu1 F8 2.112946 1_554
Cu1 F2 2.138479 1_555
Cu1 F0 2.271280 1_555
Cu1 F10 2.288329 1_554
Cu2 O0 1.820533 1_555
Cu2 F0 1.974138 1_565
Cu2 F4 2.018177 1_565
Cu2 F1 2.253999 1_555
Cu3 O0 1.823539 1_555
Cu3 F3 1.937619 1_655
Cu3 F1 2.093235 1_655
Cu3 F2 2.155861 1_555
Cu3 F6 2.476148 1_555
Cu4 F6 1.956718 1_455
Cu4 F7 1.960371 1_555
Cu4 F9 2.088268 1_455
Cu4 F5 2.125728 1_555
Cu4 F8 2.213650 1_555
Cu4 F3 2.404750 1_555
Cu5 F5 1.960722 1_545
Cu5 F9 2.031746 1_555
Cu5 F10 2.032747 1_545
Cu5 F4 2.164165 1_555
Cu5 F7 2.180066 1_555
Cu5 F6 2.452641 1_545
F1 Mg0 1.972036 1_565
F3 Mg0 1.947447 1_555
F4 Mg0 2.055213 1_655
F5 Mg0 1.999218 1_565
F6 Mg0 1.996021 1_665
F9 Mg0 2.056477 1_655
