# generated using pymatgen
data_TbInCu4
_symmetry_space_group_name_H-M   'P 1'
_cell_length_a   5.07580154
_cell_length_b   5.07580154
_cell_length_c   5.07580154
_cell_angle_alpha   60.00000000
_cell_angle_beta   60.00000000
_cell_angle_gamma   60.00000000
_symmetry_Int_Tables_number   1
_chemical_formula_structural   TbInCu4
_chemical_formula_sum   'Tb1 In1 Cu4'
_cell_volume   92.46958362
_cell_formula_units_Z   1
loop_
 _symmetry_equiv_pos_site_id
 _symmetry_equiv_pos_as_xyz
  1  'x, y, z'
loop_
 _atom_site_type_symbol
 _atom_site_label
 _atom_site_symmetry_multiplicity
 _atom_site_fract_x
 _atom_site_fract_y
 _atom_site_fract_z
 _atom_site_occupancy
  Tb  Tb0  1  0.00000000  0.00000000  0.00000000  1
  In  In0  1  0.25000000  0.25000000  0.25000000  1
  Cu  Cu0  1  0.62465705  0.62465705  0.62465705  1
  Cu  Cu1  1  0.62465705  0.62465705  0.12603084  1
  Cu  Cu2  1  0.12603084  0.62465705  0.62465705  1
  Cu  Cu3  1  0.62465705  0.12603084  0.62465705  1
loop_
_geom_bond_atom_site_label_1
_geom_bond_atom_site_label_2
_geom_bond_distance
_geom_bond_site_symmetry_2
In0 Tb0 3.108281 1_655
In0 Tb0 3.108281 1_555
In0 Tb0 3.108281 1_556
In0 Tb0 3.108281 1_565
Cu0 Cu2 2.530928 1_555
Cu0 Cu3 2.530928 1_555
Cu0 Cu1 2.530928 1_555
Cu0 Cu3 2.544874 1_565
Cu0 Cu2 2.544874 1_655
Cu0 Cu1 2.544874 1_556
Cu0 In0 2.975213 1_556
Cu0 In0 2.975213 1_565
Cu0 In0 2.975213 1_655
Cu0 Tb0 2.976698 1_665
Cu0 Tb0 2.976698 1_656
Cu0 Tb0 2.976698 1_566
Cu1 Cu2 2.530928 1_555
Cu1 Cu3 2.530928 1_555
Cu1 Cu2 2.544874 1_654
Cu1 Cu3 2.544874 1_564
Cu1 In0 2.975209 1_565
Cu1 In0 2.975209 1_655
Cu1 In0 2.975217 1_555
Cu1 Tb0 2.976693 1_665
Cu1 Tb0 2.976702 1_565
Cu1 Tb0 2.976702 1_655
Cu2 Cu3 2.530928 1_555
Cu2 Cu3 2.544874 1_465
Cu2 In0 2.975209 1_556
Cu2 In0 2.975209 1_565
Cu2 In0 2.975217 1_555
Cu2 Tb0 2.976693 1_566
Cu2 Tb0 2.976702 1_565
Cu2 Tb0 2.976702 1_556
Cu3 In0 2.975209 1_556
Cu3 In0 2.975209 1_655
Cu3 In0 2.975217 1_555
Cu3 Tb0 2.976693 1_656
Cu3 Tb0 2.976702 1_655
Cu3 Tb0 2.976702 1_556
