# generated using pymatgen
data_Na6Ta2Ga6Si5S7O48
_symmetry_space_group_name_H-M   'P 1'
_cell_length_a   17.43939278
_cell_length_b   8.79780371
_cell_length_c   22.41832257
_cell_angle_alpha   89.94939665
_cell_angle_beta   90.63701388
_cell_angle_gamma   120.38072641
_symmetry_Int_Tables_number   1
_chemical_formula_structural   Na6Ta2Ga6Si5S7O48
_chemical_formula_sum   'Na18 Ta6 Ga18 Si15 S21 O144'
_cell_volume   2967.06464400
_cell_formula_units_Z   3
loop_
 _symmetry_equiv_pos_site_id
 _symmetry_equiv_pos_as_xyz
  1  'x, y, z'
loop_
 _atom_site_type_symbol
 _atom_site_label
 _atom_site_symmetry_multiplicity
 _atom_site_fract_x
 _atom_site_fract_y
 _atom_site_fract_z
 _atom_site_occupancy
  Na  Na0  1  0.98740738  0.67289729  0.91102836  1
  Na  Na1  1  0.34861252  0.03516021  0.91465818  1
  Na  Na2  1  0.16757420  0.30339612  0.91195906  1
  Na  Na3  1  0.48707711  0.30316563  0.41951531  1
  Na  Na4  1  0.66691135  0.02945867  0.41595375  1
  Na  Na5  1  0.84662477  0.66003552  0.41825879  1
  Na  Na6  1  0.00068911  0.00573765  0.49459274  1
  Na  Na7  1  0.49493804  0.99057115  0.49735435  1
  Na  Na8  1  0.99548023  0.00502820  0.99507733  1
  Na  Na9  1  0.50017771  0.99499552  0.99260935  1
  Na  Na10  1  0.33787051  0.34446860  0.83358615  1
  Na  Na11  1  0.82933965  0.32338283  0.82413093  1
  Na  Na12  1  0.33049731  0.33735751  0.32780721  1
  Na  Na13  1  0.83617757  0.32825903  0.33871713  1
  Na  Na14  1  0.17281924  0.67483907  0.16425313  1
  Na  Na15  1  0.66496465  0.66829839  0.16842482  1
  Na  Na16  1  0.16738371  0.66316565  0.66722350  1
  Na  Na17  1  0.66436691  0.66120458  0.65938024  1
  Ta  Ta0  1  0.99793479  0.98822858  0.65042658  1
  Ta  Ta1  1  0.49921374  0.01380926  0.64003874  1
  Ta  Ta2  1  0.99883235  0.99485873  0.14393560  1
  Ta  Ta3  1  0.49708944  0.00700108  0.15034464  1
  Ta  Ta4  1  0.16493911  0.67178989  0.31128860  1
  Ta  Ta5  1  0.66288887  0.65503030  0.80886960  1
  Ga  Ga0  1  0.00490508  0.99025518  0.36023909  1
  Ga  Ga1  1  0.49831530  0.01272874  0.34695589  1
  Ga  Ga2  1  0.00111328  0.98521282  0.84382962  1
  Ga  Ga3  1  0.50354103  0.01845061  0.85690935  1
  Ga  Ga4  1  0.33986143  0.35352615  0.67448787  1
  Ga  Ga5  1  0.83335708  0.33140706  0.69543486  1
  Ga  Ga6  1  0.33425748  0.33575230  0.19710095  1
  Ga  Ga7  1  0.82788384  0.31355462  0.18092609  1
  Ga  Ga8  1  0.34089484  0.35279198  0.97104191  1
  Ga  Ga9  1  0.82933447  0.31077528  0.98360648  1
  Ga  Ga10  1  0.33797569  0.35137770  0.49038074  1
  Ga  Ga11  1  0.83865269  0.32469751  0.47266273  1
  Ga  Ga12  1  0.17457382  0.68923925  0.00627441  1
  Ga  Ga13  1  0.66662050  0.67298151  0.01954289  1
  Ga  Ga14  1  0.16633932  0.66115947  0.52040595  1
  Ga  Ga15  1  0.66516388  0.64415470  0.51314003  1
  Ga  Ga16  1  0.66749279  0.64865592  0.31958084  1
  Ga  Ga17  1  0.17306400  0.69315998  0.81544056  1
  Si  Si0  1  0.14247011  0.00749456  0.25319292  1
  Si  Si1  1  0.35750440  0.70930719  0.25435838  1
  Si  Si2  1  0.50595315  0.31037492  0.25409139  1
  Si  Si3  1  0.64292106  0.27430515  0.75289361  1
  Si  Si4  1  0.00538730  0.69958142  0.75338995  1
  Si  Si5  1  0.85881625  0.00698491  0.75446802  1
  Si  Si6  1  0.48274223  0.35398725  0.57959175  1
  Si  Si7  1  0.32441837  0.61709279  0.58286350  1
  Si  Si8  1  0.82584895  0.03504262  0.08189720  1
  Si  Si9  1  0.31252208  0.67293114  0.91229183  1
  Si  Si10  1  0.52685074  0.38224415  0.92216119  1
  Si  Si11  1  0.16318635  0.96112811  0.91798916  1
  Si  Si12  1  0.80891071  0.94404226  0.41450849  1
  Si  Si13  1  0.66360024  0.36376387  0.41644970  1
  Si  Si14  1  0.02560161  0.66754457  0.42235664  1
  S  S0  1  0.64996609  0.00641777  0.24960936  1
  S  S1  1  0.85428592  0.69863804  0.24787934  1
  S  S2  1  0.99538098  0.28415313  0.25050802  1
  S  S3  1  0.15093375  0.29419152  0.75008340  1
  S  S4  1  0.49511402  0.70920237  0.75118259  1
  S  S5  1  0.35471639  0.00708021  0.74868343  1
  S  S6  1  0.97600411  0.33165293  0.58430711  1
  S  S7  1  0.18879987  0.04487845  0.58348758  1
  S  S8  1  0.69278635  0.04729678  0.58372553  1
  S  S9  1  0.83321788  0.61740645  0.58339961  1
  S  S10  1  0.47590840  0.61997709  0.08418403  1
  S  S11  1  0.97841788  0.61698480  0.08301234  1
  S  S12  1  0.33061013  0.04371156  0.08298778  1
  S  S13  1  0.19036503  0.34182104  0.08321097  1
  S  S14  1  0.68961934  0.33436228  0.08313171  1
  S  S15  1  0.81072468  0.66057910  0.91986203  1
  S  S16  1  0.01776471  0.37610864  0.91880902  1
  S  S17  1  0.66879802  0.96015107  0.91718616  1
  S  S18  1  0.31062942  0.95921863  0.41882356  1
  S  S19  1  0.16979145  0.37749084  0.41756153  1
  S  S20  1  0.51712574  0.66299203  0.41618042  1
  O  O0  1  0.09430859  0.03560065  0.30851630  1
  O  O1  1  0.61100879  0.02999509  0.30417579  1
  O  O2  1  0.41998113  0.80549723  0.31090457  1
  O  O3  1  0.90671122  0.77384401  0.30224961  1
  O  O4  1  0.48804311  0.19087174  0.31260161  1
  O  O5  1  0.98179593  0.18248665  0.30361097  1
  O  O6  1  0.11098929  0.19179081  0.80554142  1
  O  O7  1  0.59796889  0.15746198  0.81042782  1
  O  O8  1  0.48481578  0.78656338  0.80547494  1
  O  O9  1  0.98784387  0.78119735  0.81319525  1
  O  O10  1  0.40635395  0.03385865  0.80417893  1
  O  O11  1  0.92092985  0.03639428  0.81190127  1
  O  O12  1  0.40034348  0.98385462  0.69559801  1
  O  O13  1  0.90407927  0.96915942  0.69475619  1
  O  O14  1  0.09075280  0.19647419  0.69684441  1
  O  O15  1  0.58091990  0.18898986  0.69345072  1
  O  O16  1  0.01902623  0.83718686  0.69575603  1
  O  O17  1  0.50826006  0.81401049  0.69721639  1
  O  O18  1  0.40387183  0.83824367  0.19424326  1
  O  O19  1  0.90150720  0.81733362  0.19412413  1
  O  O20  1  0.00731422  0.19870146  0.19578646  1
  O  O21  1  0.51920769  0.20154577  0.19483199  1
  O  O22  1  0.08092625  0.97091301  0.19241389  1
  O  O23  1  0.59181395  0.98703871  0.19544358  1
  O  O24  1  0.43685974  0.36820986  0.63987956  1
  O  O25  1  0.93462641  0.35397796  0.63737109  1
  O  O26  1  0.24171613  0.12763259  0.63816670  1
  O  O27  1  0.74611082  0.13530189  0.63692789  1
  O  O28  1  0.30633290  0.49964924  0.64217006  1
  O  O29  1  0.82522968  0.51524240  0.63643860  1
  O  O30  1  0.43415434  0.51402811  0.13722267  1
  O  O31  1  0.93401426  0.51449989  0.13661700  1
  O  O32  1  0.32201578  0.12791451  0.13620493  1
  O  O33  1  0.81299059  0.12151519  0.14177535  1
  O  O34  1  0.24383829  0.36341862  0.13632797  1
  O  O35  1  0.74356202  0.35982157  0.13785731  1
  O  O36  1  0.22298265  0.30476436  0.02812476  1
  O  O37  1  0.72998705  0.30946914  0.02888732  1
  O  O38  1  0.42149381  0.54488716  0.02913201  1
  O  O39  1  0.92526248  0.54579010  0.02749184  1
  O  O40  1  0.34483111  0.14267830  0.02754051  1
  O  O41  1  0.85242149  0.16273029  0.02463230  1
  O  O42  1  0.22721909  0.14965134  0.52879700  1
  O  O43  1  0.72594699  0.15147486  0.52852748  1
  O  O44  1  0.34845990  0.54557862  0.52380061  1
  O  O45  1  0.84726427  0.54743772  0.52779066  1
  O  O46  1  0.42157815  0.30026460  0.51884966  1
  O  O47  1  0.92194004  0.29784163  0.52922626  1
  O  O48  1  0.27584147  0.72149283  0.97305995  1
  O  O49  1  0.77173191  0.68717042  0.97361002  1
  O  O50  1  0.07492188  0.45671365  0.97371642  1
  O  O51  1  0.58815457  0.47726110  0.97967169  1
  O  O52  1  0.13180136  0.82473741  0.97485976  1
  O  O53  1  0.66050834  0.86127285  0.97217433  1
  O  O54  1  0.27124326  0.85510646  0.47189379  1
  O  O55  1  0.76632841  0.81656845  0.47310489  1
  O  O56  1  0.15931849  0.46058147  0.47107807  1
  O  O57  1  0.63284236  0.43778621  0.47187906  1
  O  O58  1  0.08874049  0.69718350  0.47854549  1
  O  O59  1  0.57343762  0.69625979  0.47025686  1
  O  O60  1  0.07248422  0.63748258  0.36213973  1
  O  O61  1  0.55603851  0.63078777  0.36255316  1
  O  O62  1  0.25622557  0.86549740  0.36336136  1
  O  O63  1  0.74235718  0.86342297  0.35591172  1
  O  O64  1  0.18220428  0.48711293  0.36291481  1
  O  O65  1  0.69031953  0.49277778  0.35919168  1
  O  O66  1  0.05619536  0.48429034  0.86554170  1
  O  O67  1  0.57415729  0.50827676  0.86311101  1
  O  O68  1  0.18869697  0.88015310  0.86225784  1
  O  O69  1  0.68273996  0.87788559  0.86391918  1
  O  O70  1  0.24134661  0.61983599  0.85713172  1
  O  O71  1  0.75640836  0.63740191  0.86515992  1
  O  O72  1  0.01352703  0.83789015  0.41490361  1
  O  O73  1  0.50901630  0.82164804  0.41056819  1
  O  O74  1  0.40026027  0.98143680  0.41296909  1
  O  O75  1  0.90751574  0.96571349  0.40508376  1
  O  O76  1  0.08704283  0.20502104  0.41163080  1
  O  O77  1  0.57730600  0.16103361  0.40804178  1
  O  O78  1  0.00746081  0.19997908  0.91445844  1
  O  O79  1  0.51335661  0.18700169  0.91446048  1
  O  O80  1  0.07725348  0.99206607  0.90868663  1
  O  O81  1  0.58765495  0.97088949  0.91227800  1
  O  O82  1  0.40985691  0.84760551  0.90378966  1
  O  O83  1  0.90073784  0.81738483  0.91405313  1
  O  O84  1  0.49142818  0.17107897  0.58818557  1
  O  O85  1  0.98785831  0.17219018  0.59095620  1
  O  O86  1  0.09854909  0.03088902  0.58901381  1
  O  O87  1  0.59911413  0.02197410  0.59110904  1
  O  O88  1  0.41539491  0.81324753  0.59433692  1
  O  O89  1  0.91743985  0.80342824  0.59002356  1
  O  O90  1  0.48784736  0.80323418  0.09071711  1
  O  O91  1  0.98773434  0.79986107  0.08889490  1
  O  O92  1  0.41395568  0.02448577  0.08958027  1
  O  O93  1  0.91560777  0.01395002  0.09259424  1
  O  O94  1  0.09645081  0.17567067  0.09152653  1
  O  O95  1  0.60055756  0.16749623  0.08851689  1
  O  O96  1  0.34367856  0.16151818  0.74058960  1
  O  O97  1  0.84483087  0.16898960  0.74291180  1
  O  O98  1  0.23713444  0.30262909  0.74336606  1
  O  O99  1  0.74096410  0.31180975  0.74319151  1
  O  O100  1  0.41885662  0.52635122  0.74511963  1
  O  O101  1  0.91659287  0.51780607  0.74072999  1
  O  O102  1  0.34464868  0.52012643  0.24284148  1
  O  O103  1  0.84691690  0.52465646  0.23710720  1
  O  O104  1  0.41694323  0.31340544  0.24053231  1
  O  O105  1  0.92036533  0.31686868  0.24127936  1
  O  O106  1  0.23983401  0.16873923  0.24254469  1
  O  O107  1  0.73743212  0.17388270  0.24328881  1
  O  O108  1  0.31753550  0.49494232  0.92185579  1
  O  O109  1  0.82097847  0.50107106  0.92426640  1
  O  O110  1  0.42712074  0.35377363  0.92326750  1
  O  O111  1  0.92912208  0.36690993  0.92497435  1
  O  O112  1  0.25121286  0.15245836  0.92927350  1
  O  O113  1  0.74888463  0.14313242  0.92084493  1
  O  O114  1  0.31714027  0.13348715  0.41905144  1
  O  O115  1  0.81725107  0.13587629  0.42317789  1
  O  O116  1  0.24861367  0.35509741  0.42161558  1
  O  O117  1  0.75160718  0.34739055  0.42721030  1
  O  O118  1  0.42771531  0.49876628  0.42122355  1
  O  O119  1  0.92610961  0.49702354  0.42382982  1
  O  O120  1  0.17517817  0.49245444  0.07757363  1
  O  O121  1  0.67761882  0.48678471  0.07988391  1
  O  O122  1  0.06757148  0.63930657  0.08005089  1
  O  O123  1  0.56547664  0.64272916  0.07892870  1
  O  O124  1  0.25214067  0.86097420  0.07886283  1
  O  O125  1  0.74168267  0.83664828  0.07461650  1
  O  O126  1  0.17560616  0.86711643  0.57985883  1
  O  O127  1  0.68131253  0.87089230  0.57830330  1
  O  O128  1  0.24145989  0.65100671  0.57535576  1
  O  O129  1  0.75698581  0.64636210  0.58002846  1
  O  O130  1  0.06549530  0.48843145  0.57894730  1
  O  O131  1  0.58143984  0.52527998  0.57488440  1
  O  O132  1  0.14906990  0.82441641  0.25943140  1
  O  O133  1  0.65795598  0.85052634  0.24948305  1
  O  O134  1  0.25924671  0.69220633  0.25961365  1
  O  O135  1  0.76845532  0.68979356  0.24853091  1
  O  O136  1  0.08005959  0.46127009  0.25376140  1
  O  O137  1  0.59467302  0.50350130  0.25706694  1
  O  O138  1  0.15628926  0.46447595  0.75106504  1
  O  O139  1  0.64941595  0.47179336  0.75957319  1
  O  O140  1  0.09470141  0.68652376  0.75692048  1
  O  O141  1  0.57980485  0.69668160  0.75629879  1
  O  O142  1  0.26851762  0.84036720  0.75077624  1
  O  O143  1  0.76092286  0.82655965  0.76195347  1
loop_
_geom_bond_atom_site_label_1
_geom_bond_atom_site_label_2
_geom_bond_distance
_geom_bond_site_symmetry_2
Na0 O111 2.369749 1_555
Na0 O9 2.389058 1_555
Na0 O83 2.418850 1_555
Na0 O80 2.427734 1_655
Na0 O109 2.525415 1_555
Na0 O52 2.587283 1_655
Na0 O66 2.697394 1_655
Na0 O39 2.841452 1_556
Na1 O82 2.389975 1_545
Na1 O112 2.417337 1_555
Na1 O110 2.425349 1_555
Na1 O79 2.481348 1_555
Na1 O68 2.664658 1_545
Na1 O10 2.686194 1_555
Na1 O40 2.715558 1_556
Na1 O48 2.725483 1_545
Na2 O108 2.293143 1_555
Na2 O80 2.371195 1_545
Na2 O112 2.446884 1_555
Na2 O78 2.462002 1_555
Na2 O6 2.569280 1_555
Na2 O70 2.706060 1_555
Na2 O36 2.765549 1_556
Na2 O50 2.933363 1_555
Na3 O118 2.416086 1_555
Na3 O74 2.446771 1_545
Na3 O77 2.470952 1_555
Na3 O57 2.476616 1_555
Na3 O46 2.508289 1_555
Na3 O114 2.556545 1_555
Na3 O4 2.596728 1_555
Na3 O61 2.811836 1_555
Na4 O115 2.298858 1_555
Na4 O77 2.374130 1_555
Na4 O73 2.416669 1_545
Na4 O117 2.425527 1_555
Na4 O1 2.679586 1_555
Na4 O43 2.722236 1_555
Na4 O63 2.768329 1_545
Na4 O59 2.817250 1_545
Na5 O75 2.358851 1_555
Na5 O117 2.397504 1_555
Na5 O119 2.449587 1_555
Na5 O72 2.514753 1_655
Na5 O45 2.649017 1_555
Na5 O65 2.686099 1_555
Na5 O55 2.713137 1_555
Na5 O3 2.803412 1_555
Na6 O72 2.402138 1_545
Na6 O75 2.478078 1_445
Na6 O76 2.487324 1_555
Na6 O86 2.642105 1_555
Na6 O85 2.685013 1_455
Na6 O89 2.702104 1_445
Na7 O74 2.471454 1_555
Na7 O77 2.490199 1_565
Na7 O73 2.537535 1_555
Na7 O84 2.603647 1_565
Na7 O88 2.637664 1_555
Na7 O87 2.683851 1_565
Na8 O78 2.427404 1_655
Na8 O83 2.436033 1_545
Na8 O80 2.454371 1_645
Na8 O93 2.627609 1_556
Na8 O94 2.697569 1_656
Na8 O91 2.730003 1_546
Na9 O79 2.363629 1_565
Na9 O82 2.448716 1_555
Na9 O81 2.450412 1_555
Na9 O95 2.688008 1_566
Na9 O90 2.714203 1_556
Na9 O92 2.742726 1_566
Na10 O100 2.501869 1_555
Na10 O110 2.504648 1_555
Na10 O108 2.507844 1_555
Na10 O98 2.565310 1_555
Na10 O96 2.668891 1_555
Na10 O112 2.687496 1_555
Na11 O99 2.336158 1_555
Na11 O97 2.370613 1_555
Na11 O101 2.482329 1_555
Na11 O113 2.644875 1_555
Na11 O111 2.743305 1_555
Na11 O109 2.783620 1_555
Na12 O102 2.424527 1_555
Na12 O106 2.433012 1_555
Na12 O104 2.555957 1_555
Na12 O118 2.601516 1_555
Na12 O116 2.603661 1_555
Na12 O114 2.652746 1_555
Na13 O119 2.426545 1_555
Na13 O115 2.449907 1_555
Na13 O117 2.540867 1_555
Na13 O107 2.635224 1_555
Na13 O105 2.675385 1_555
Na13 O103 2.807979 1_555
Na14 O124 2.453943 1_555
Na14 O122 2.524593 1_555
Na14 O120 2.535054 1_555
Na14 O134 2.561523 1_555
Na14 O132 2.651793 1_555
Na14 O136 2.676735 1_555
Na15 O137 2.409383 1_555
Na15 O133 2.468942 1_555
Na15 O135 2.470116 1_555
Na15 O125 2.541479 1_555
Na15 O123 2.571951 1_555
Na15 O121 2.628809 1_555
Na16 O140 2.452201 1_555
Na16 O128 2.474117 1_555
Na16 O142 2.490016 1_555
Na16 O138 2.507207 1_555
Na16 O130 2.569283 1_555
Na16 O126 2.610732 1_555
Na17 O131 2.302938 1_555
Na17 O129 2.463377 1_555
Na17 O127 2.499775 1_555
Na17 O139 2.730757 1_555
Na17 O141 2.744277 1_555
Na17 O143 2.771569 1_555
Ga0 O0 1.828891 1_565
Ga0 O72 1.875681 1_555
Ga0 O75 1.899630 1_455
Ga0 O76 2.044223 1_565
Ga0 O3 2.214622 1_455
Ga0 O5 2.304020 1_465
Ga1 O2 1.817201 1_545
Ga1 O4 1.833128 1_555
Ga1 O77 1.902263 1_555
Ga1 O1 2.131895 1_555
Ga1 O74 2.183908 1_545
Ga1 O73 2.280740 1_545
Ga2 O11 1.812331 1_465
Ga2 O9 1.823553 1_455
Ga2 O80 1.938327 1_555
Ga2 O6 2.054957 1_565
Ga2 O83 2.272788 1_455
Ga2 O78 2.424721 1_565
Ga3 O7 1.814436 1_555
Ga3 O82 1.893283 1_545
Ga3 O79 1.906454 1_555
Ga3 O81 2.108808 1_545
Ga3 O10 2.115654 1_555
Ga3 O8 2.218139 1_545
Ga4 O28 1.807966 1_555
Ga4 O24 1.813311 1_555
Ga4 O26 2.018274 1_555
Ga4 O100 2.134022 1_555
Ga4 O98 2.245705 1_555
Ga4 O96 2.271809 1_555
Ga5 O101 1.841157 1_555
Ga5 O97 1.869886 1_555
Ga5 O99 1.878620 1_555
Ga5 O27 2.077603 1_555
Ga5 O25 2.132790 1_555
Ga5 O29 2.146879 1_555
Ga6 O104 1.822415 1_555
Ga6 O102 1.848509 1_555
Ga6 O106 1.869698 1_555
Ga6 O30 2.140435 1_555
Ga6 O34 2.177566 1_555
Ga6 O32 2.203602 1_555
Ga7 O33 1.801664 1_555
Ga7 O35 1.957946 1_555
Ga7 O107 2.009530 1_555
Ga7 O31 2.065397 1_555
Ga7 O105 2.082471 1_555
Ga7 O103 2.125344 1_555
Ga8 O110 1.852301 1_555
Ga8 O108 1.857082 1_555
Ga8 O112 1.900377 1_555
Ga8 O38 2.021933 1_556
Ga8 O40 2.269004 1_556
Ga8 O36 2.285458 1_556
Ga9 O41 1.795695 1_556
Ga9 O113 1.997525 1_555
Ga9 O37 2.012787 1_556
Ga9 O111 2.044618 1_555
Ga9 O39 2.123662 1_556
Ga9 O109 2.198265 1_555
Ga10 O44 1.788047 1_555
Ga10 O46 1.837716 1_555
Ga10 O42 2.046749 1_555
Ga10 O118 2.128877 1_555
Ga10 O116 2.191882 1_555
Ga10 O114 2.377347 1_555
Ga11 O115 1.869902 1_555
Ga11 O119 1.875775 1_555
Ga11 O117 1.911633 1_555
Ga11 O47 2.019688 1_555
Ga11 O43 2.185363 1_555
Ga11 O45 2.256667 1_555
Ga12 O48 1.809935 1_554
Ga12 O52 1.832954 1_554
Ga12 O50 2.028865 1_554
Ga12 O124 2.156128 1_555
Ga12 O120 2.359137 1_555
Ga12 O122 2.376732 1_555
Ga13 O51 1.796843 1_554
Ga13 O125 1.836288 1_555
Ga13 O53 2.013997 1_554
Ga13 O49 2.060683 1_554
Ga13 O123 2.128687 1_555
Ga13 O121 2.204150 1_555
Ga14 O58 1.793749 1_555
Ga14 O128 1.823196 1_555
Ga14 O56 2.033165 1_555
Ga14 O54 2.079587 1_555
Ga14 O130 2.114032 1_555
Ga14 O126 2.188396 1_555
Ga15 O57 1.850930 1_555
Ga15 O55 1.882798 1_555
Ga15 O131 1.907747 1_555
Ga15 O59 2.097617 1_555
Ga15 O129 2.174484 1_555
Ga15 O127 2.370731 1_555
Ga16 O65 1.835733 1_555
Ga16 O63 1.849843 1_555
Ga16 O137 1.879055 1_555
Ga16 O61 2.112593 1_555
Ga16 O135 2.277058 1_555
Ga16 O133 2.437101 1_555
Ga17 O68 1.850780 1_555
Ga17 O70 1.859816 1_555
Ga17 O140 1.863249 1_555
Ga17 O142 2.102277 1_555
Ga17 O66 2.247492 1_555
Ga17 O138 2.369937 1_555
O0 Si0 1.593299 1_555
O1 S0 1.470546 1_555
O2 Si1 1.596503 1_555
O3 S1 1.457439 1_555
O4 Si2 1.611832 1_555
O5 S2 1.436470 1_555
O6 S3 1.491682 1_555
O7 Si3 1.593715 1_555
O8 S4 1.451510 1_555
O9 Si4 1.624741 1_655
O10 S5 1.474887 1_555
O11 Si5 1.607547 1_555
O12 S5 1.509024 1_565
O12 Ta1 2.044844 1_565
O13 Si5 1.678026 1_565
O13 Ta0 1.858213 1_555
O14 S3 1.525257 1_555
O14 Ta0 2.006457 1_445
O15 Si3 1.630086 1_555
O15 Ta1 1.893007 1_555
O16 Si4 1.704232 1_555
O16 Ta0 1.848641 1_455
O17 S4 1.468625 1_555
O17 Ta1 2.242726 1_565
O18 Si1 1.688374 1_555
O18 Ta3 1.845877 1_565
O19 S1 1.539781 1_555
O19 Ta2 1.985972 1_555
O20 S2 1.509637 1_455
O20 Ta2 2.078650 1_445
O21 Si2 1.722786 1_555
O21 Ta3 1.843798 1_555
O22 Si0 1.652565 1_565
O22 Ta2 1.882887 1_455
O23 S0 1.526491 1_565
O23 Ta3 2.009466 1_565
O24 Si6 1.615001 1_555
O25 S6 1.461953 1_555
O26 S7 1.476865 1_555
O27 S8 1.461336 1_555
O28 Si7 1.616185 1_555
O29 S9 1.454735 1_555
O30 S10 1.464118 1_555
O31 S11 1.472857 1_555
O32 S12 1.453422 1_555
O33 Si8 1.616186 1_555
O34 S13 1.456093 1_555
O35 S14 1.483916 1_555
O36 S13 1.469301 1_555
O37 S14 1.482511 1_555
O38 S10 1.483719 1_555
O39 S11 1.479624 1_555
O40 S12 1.466721 1_555
O41 Si8 1.615218 1_555
O42 S7 1.481015 1_555
O43 S8 1.477679 1_555
O44 Si7 1.614154 1_555
O45 S9 1.467570 1_555
O46 Si6 1.635355 1_555
O47 S6 1.480979 1_555
O48 Si9 1.656649 1_555
O49 S15 1.465829 1_555
O50 S16 1.506963 1_555
O51 Si10 1.603535 1_555
O52 Si11 1.647243 1_555
O53 S17 1.473826 1_555
O54 S18 1.451254 1_555
O55 Si12 1.646673 1_555
O56 S19 1.465815 1_555
O57 Si13 1.620355 1_555
O58 Si14 1.595771 1_555
O59 S20 1.484311 1_555
O60 Si14 1.674730 1_555
O60 Ta4 1.881065 1_555
O61 S20 1.483030 1_555
O62 S18 1.519965 1_555
O62 Ta4 2.004859 1_555
O63 Si12 1.646482 1_555
O64 S19 1.506808 1_555
O64 Ta4 2.133949 1_555
O65 Si13 1.621389 1_555
O66 S16 1.466846 1_555
O67 Si10 1.661012 1_555
O67 Ta5 1.886364 1_555
O68 Si11 1.612750 1_555
O69 S17 1.481528 1_555
O69 Ta5 2.189799 1_555
O70 Si9 1.633556 1_555
O71 S15 1.490629 1_555
O71 Ta5 2.118061 1_555
O72 Si14 1.623650 1_555
O73 S20 1.477539 1_555
O74 S18 1.481285 1_555
O75 Si12 1.647556 1_555
O76 S19 1.477770 1_555
O77 Si13 1.661559 1_555
O78 S16 1.470086 1_555
O79 Si10 1.620631 1_555
O80 Si11 1.664022 1_555
O81 S17 1.468075 1_555
O82 Si9 1.627096 1_555
O83 S15 1.482590 1_555
O84 Si6 1.701446 1_555
O84 Ta1 1.862216 1_555
O85 S6 1.524943 1_555
O85 Ta0 2.169431 1_545
O86 S7 1.521870 1_555
O86 Ta0 2.121757 1_445
O87 S8 1.543848 1_555
O87 Ta1 2.039469 1_555
O88 Si7 1.668468 1_555
O88 Ta1 1.913349 1_565
O89 S9 1.556264 1_555
O89 Ta0 2.025022 1_555
O90 S10 1.524592 1_555
O90 Ta3 2.175738 1_565
O91 S11 1.538788 1_555
O91 Ta2 2.041009 1_555
O92 S12 1.551437 1_555
O92 Ta3 2.040238 1_555
O93 Si8 1.681553 1_555
O93 Ta2 1.915358 1_545
O94 S13 1.561611 1_555
O94 Ta2 2.027579 1_445
O95 S14 1.509849 1_555
O95 Ta3 2.155442 1_555
O96 S5 1.476286 1_555
O97 Si5 1.583540 1_555
O98 S3 1.476551 1_555
O99 Si3 1.586547 1_555
O100 S4 1.485721 1_555
O101 Si4 1.588123 1_655
O102 Si1 1.584017 1_555
O103 S1 1.489543 1_555
O104 Si2 1.591865 1_555
O105 S2 1.487228 1_555
O106 Si0 1.588871 1_555
O107 S0 1.499582 1_555
O108 Si9 1.625781 1_555
O109 S15 1.504733 1_555
O110 Si10 1.627447 1_555
O111 S16 1.514453 1_655
O112 Si11 1.622480 1_545
O113 S17 1.507456 1_545
O114 S18 1.479012 1_545
O115 Si12 1.630636 1_545
O116 S19 1.485850 1_555
O117 Si13 1.627835 1_555
O118 S20 1.502163 1_555
O119 Si14 1.621889 1_655
O120 S13 1.482015 1_555
O121 S14 1.459688 1_555
O122 S11 1.467570 1_455
O123 S10 1.477035 1_555
O124 S12 1.495999 1_565
O125 Si8 1.622168 1_565
O126 S7 1.463292 1_565
O127 S8 1.465985 1_565
O128 Si7 1.625282 1_555
O129 S9 1.475911 1_555
O130 S6 1.476186 1_455
O131 Si6 1.620148 1_555
O132 Si0 1.677460 1_565
O132 Ta4 1.896613 1_555
O133 S0 1.446982 1_565
O134 Si1 1.648174 1_555
O134 Ta4 1.955102 1_555
O135 S1 1.459265 1_555
O136 S2 1.511441 1_455
O136 Ta4 2.115036 1_555
O137 Si2 1.619903 1_555
O138 S3 1.453301 1_555
O139 Si3 1.689690 1_555
O139 Ta5 1.868048 1_555
O140 Si4 1.619803 1_555
O141 S4 1.538657 1_555
O141 Ta5 2.030020 1_555
O142 S5 1.478003 1_565
O143 Si5 1.651428 1_565
O143 Ta5 1.932362 1_555
