# generated using pymatgen
data_Na4Ta2Zn2Si3(SO8)3
_symmetry_space_group_name_H-M   'P 1'
_cell_length_a   9.01466159
_cell_length_b   8.99798036
_cell_length_c   22.50375943
_cell_angle_alpha   89.43007858
_cell_angle_beta   90.40939190
_cell_angle_gamma   120.32761196
_symmetry_Int_Tables_number   1
_chemical_formula_structural   Na4Ta2Zn2Si3(SO8)3
_chemical_formula_sum   'Na12 Ta6 Zn6 Si9 S9 O72'
_cell_volume   1575.48467438
_cell_formula_units_Z   3
loop_
 _symmetry_equiv_pos_site_id
 _symmetry_equiv_pos_as_xyz
  1  'x, y, z'
loop_
 _atom_site_type_symbol
 _atom_site_label
 _atom_site_symmetry_multiplicity
 _atom_site_fract_x
 _atom_site_fract_y
 _atom_site_fract_z
 _atom_site_occupancy
  Na  Na0  1  0.37077742  0.35001203  0.24335346  1
  Na  Na1  1  0.64573267  0.62843108  0.74325175  1
  Na  Na2  1  0.02498632  0.67791234  0.59321139  1
  Na  Na3  1  0.32107678  0.96767515  0.07516584  1
  Na  Na4  1  0.70001400  0.02431000  0.90377174  1
  Na  Na5  1  0.98786577  0.30194997  0.42486009  1
  Na  Na6  1  0.01344505  0.01607262  0.49907141  1
  Na  Na7  1  0.01414226  0.00438777  0.98663806  1
  Na  Na8  1  0.68053901  0.33139331  0.81830419  1
  Na  Na9  1  0.64757380  0.31608427  0.32725801  1
  Na  Na10  1  0.35151315  0.66607942  0.15132826  1
  Na  Na11  1  0.33410136  0.64899569  0.65510397  1
  Ta  Ta0  1  0.98617331  0.99737117  0.64815294  1
  Ta  Ta1  1  0.00947472  0.00117334  0.14220931  1
  Ta  Ta2  1  0.65467750  0.31777146  0.98076984  1
  Ta  Ta3  1  0.66128734  0.33954265  0.48503572  1
  Ta  Ta4  1  0.34013515  0.66972325  0.31310583  1
  Ta  Ta5  1  0.32894681  0.67920805  0.81037581  1
  Zn  Zn0  1  0.02421278  0.00701765  0.35052650  1
  Zn  Zn1  1  0.00571786  0.99388248  0.84723640  1
  Zn  Zn2  1  0.69137877  0.33796481  0.68637294  1
  Zn  Zn3  1  0.63384033  0.30659335  0.17824163  1
  Zn  Zn4  1  0.34399561  0.67422115  0.01832717  1
  Zn  Zn5  1  0.34542700  0.62853432  0.52349974  1
  Si  Si0  1  0.29811309  0.99943589  0.25090724  1
  Si  Si1  1  0.99664320  0.70942121  0.75103152  1
  Si  Si2  1  0.71115444  0.01003113  0.75677559  1
  Si  Si3  1  0.96258881  0.33318000  0.58164524  1
  Si  Si4  1  0.66411575  0.62919167  0.59102649  1
  Si  Si5  1  0.66944804  0.03711397  0.08558064  1
  Si  Si6  1  0.37710079  0.34939518  0.08637196  1
  Si  Si7  1  0.31773139  0.95427829  0.92065968  1
  Si  Si8  1  0.33186333  0.36336240  0.41536166  1
  S  S0  1  0.71383513  0.71966047  0.25424714  1
  S  S1  1  0.00095967  0.29367291  0.25092681  1
  S  S2  1  0.28607328  0.29339909  0.75234630  1
  S  S3  1  0.37134304  0.04423063  0.58517267  1
  S  S4  1  0.94586036  0.61900704  0.08749291  1
  S  S5  1  0.62214354  0.65728251  0.91798663  1
  S  S6  1  0.04110724  0.38353307  0.91978899  1
  S  S7  1  0.62123111  0.95881073  0.41767967  1
  S  S8  1  0.04022549  0.66341158  0.41694646  1
  O  O0  1  0.20896523  0.03379852  0.30519357  1
  O  O1  1  0.80448940  0.80780176  0.30778754  1
  O  O2  1  0.97325289  0.19857871  0.30687958  1
  O  O3  1  0.20826566  0.20064815  0.80682328  1
  O  O4  1  0.96973170  0.79682393  0.80696464  1
  O  O5  1  0.81555087  0.03026372  0.81670688  1
  O  O6  1  0.81182476  0.97334923  0.69886482  1
  O  O7  1  0.17706086  0.20940031  0.69793014  1
  O  O8  1  0.03785561  0.83569743  0.68980216  1
  O  O9  1  0.79453722  0.82307205  0.19912650  1
  O  O10  1  0.03135323  0.20110076  0.20012645  1
  O  O11  1  0.17141415  0.97021290  0.19063518  1
  O  O12  1  0.86811440  0.36335506  0.63463700  1
  O  O13  1  0.47111331  0.12308470  0.63775374  1
  O  O14  1  0.63786758  0.51685597  0.64869756  1
  O  O15  1  0.86181120  0.52379413  0.14089250  1
  O  O16  1  0.64026783  0.12632677  0.14056567  1
  O  O17  1  0.47303658  0.37692935  0.14892323  1
  O  O18  1  0.48289002  0.30727922  0.03174114  1
  O  O19  1  0.84604728  0.54056027  0.03178431  1
  O  O20  1  0.70251544  0.16564800  0.02411992  1
  O  O21  1  0.46706693  0.15984008  0.52912453  1
  O  O22  1  0.69297422  0.52315146  0.53093110  1
  O  O23  1  0.83772310  0.29904636  0.51791711  1
  O  O24  1  0.53361339  0.67111023  0.96948976  1
  O  O25  1  0.13878986  0.46535419  0.97247941  1
  O  O26  1  0.30678394  0.85450770  0.98095357  1
  O  O27  1  0.53340269  0.86244023  0.47000457  1
  O  O28  1  0.29183852  0.45787021  0.46659049  1
  O  O29  1  0.13718232  0.68953847  0.47138977  1
  O  O30  1  0.13900472  0.64104307  0.36447528  1
  O  O31  1  0.50969218  0.86406949  0.36171796  1
  O  O32  1  0.35990293  0.48932147  0.35359337  1
  O  O33  1  0.13013824  0.48297725  0.86395708  1
  O  O34  1  0.35741664  0.85240286  0.86402422  1
  O  O35  1  0.51886150  0.62951614  0.86199255  1
  O  O36  1  0.00130757  0.79889994  0.40588814  1
  O  O37  1  0.79267384  0.98042042  0.40999676  1
  O  O38  1  0.15815333  0.17595435  0.41203254  1
  O  O39  1  0.00250675  0.20404224  0.91609312  1
  O  O40  1  0.16926751  0.99787633  0.91066228  1
  O  O41  1  0.79259204  0.81411580  0.91451699  1
  O  O42  1  0.98359335  0.16017145  0.58926585  1
  O  O43  1  0.20291210  0.04125479  0.58444700  1
  O  O44  1  0.85650406  0.81461117  0.59046046  1
  O  O45  1  0.95658792  0.79865230  0.08958368  1
  O  O46  1  0.84725245  0.02611298  0.09363145  1
  O  O47  1  0.19101298  0.15129026  0.09032241  1
  O  O48  1  0.65790328  0.14992438  0.74424517  1
  O  O49  1  0.45911671  0.32110552  0.74549569  1
  O  O50  1  0.83396085  0.52047810  0.74581412  1
  O  O51  1  0.68560417  0.54490908  0.25115084  1
  O  O52  1  0.86688176  0.33373045  0.23998608  1
  O  O53  1  0.48818736  0.16664884  0.24668524  1
  O  O54  1  0.64511338  0.50195054  0.92376873  1
  O  O55  1  0.86693864  0.37743532  0.92078843  1
  O  O56  1  0.51332741  0.14699014  0.92387640  1
  O  O57  1  0.63635790  0.13359714  0.41504352  1
  O  O58  1  0.51297340  0.35440026  0.42255722  1
  O  O59  1  0.87119867  0.49001836  0.41738900  1
  O  O60  1  0.32625838  0.48992624  0.07259567  1
  O  O61  1  0.12363227  0.65795212  0.08324563  1
  O  O62  1  0.50345979  0.85153716  0.07700852  1
  O  O63  1  0.34088476  0.87235184  0.57362840  1
  O  O64  1  0.52311154  0.68292929  0.58064092  1
  O  O65  1  0.14448708  0.50935873  0.57483614  1
  O  O66  1  0.30649203  0.81720732  0.25878886  1
  O  O67  1  0.53107668  0.70086964  0.25537175  1
  O  O68  1  0.17544756  0.46574233  0.25422893  1
  O  O69  1  0.30129194  0.47133993  0.75496547  1
  O  O70  1  0.17570547  0.69247101  0.75790269  1
  O  O71  1  0.52529622  0.81222896  0.76136972  1
loop_
_geom_bond_atom_site_label_1
_geom_bond_atom_site_label_2
_geom_bond_distance
_geom_bond_site_symmetry_2
Na0 O17 2.283963 1_555
Na0 O53 2.368113 1_555
Na0 O68 2.471396 1_555
Na0 O51 2.476591 1_555
Na0 O67 2.744501 1_555
Na0 O0 2.814050 1_555
Na0 O32 2.815093 1_555
Na0 O10 2.819041 1_555
Na1 O50 2.342656 1_555
Na1 O14 2.347134 1_555
Na1 O49 2.404156 1_555
Na1 O71 2.431682 1_555
Na1 O69 2.698248 1_555
Na1 O6 2.852818 1_555
Na1 O4 2.897654 1_555
Na1 O35 2.916129 1_555
Na2 O65 2.302280 1_555
Na2 O44 2.389000 1_455
Na2 O63 2.517091 1_555
Na2 O8 2.577862 1_555
Na2 O12 2.608471 1_455
Na2 O43 2.827750 1_565
Na2 O29 2.911439 1_555
Na2 O22 2.937895 1_455
Na3 O26 2.335592 1_554
Na3 O62 2.351630 1_555
Na3 O61 2.439865 1_555
Na3 O47 2.488756 1_565
Na3 O18 2.807106 1_565
Na3 O45 2.858890 1_455
Na3 O16 2.883814 1_565
Na3 O11 2.941991 1_555
Na4 O5 2.212956 1_555
Na4 O39 2.381737 1_655
Na4 O41 2.431895 1_545
Na4 O56 2.480393 1_555
Na4 O55 2.773871 1_555
Na5 O38 2.344246 1_655
Na5 O59 2.405658 1_555
Na5 O23 2.494334 1_555
Na5 O37 2.539284 1_545
Na5 O28 2.542826 1_655
Na5 O57 2.744711 1_555
Na5 O2 2.802132 1_555
Na5 O30 2.959425 1_655
Na6 O38 2.386015 1_555
Na6 O43 2.496149 1_555
Na6 O42 2.507160 1_455
Na6 O44 2.625767 1_445
Na6 O37 2.718975 1_445
Na6 O36 2.844320 1_545
Na7 O40 2.236308 1_545
Na7 O39 2.426889 1_555
Na7 O41 2.471821 1_445
Na7 O47 2.759249 1_556
Na7 O45 2.832838 1_446
Na7 O46 2.908093 1_456
Na8 O50 2.251516 1_555
Na8 O48 2.279961 1_555
Na8 O49 2.539099 1_555
Na8 O55 2.752214 1_555
Na8 O56 2.848944 1_555
Na8 O54 2.944183 1_555
Na9 O53 2.284797 1_555
Na9 O57 2.525810 1_555
Na9 O51 2.552561 1_555
Na9 O58 2.581623 1_555
Na9 O59 2.728687 1_555
Na9 O52 2.742817 1_555
Na10 O62 2.264275 1_555
Na10 O60 2.321425 1_555
Na10 O61 2.525527 1_555
Na10 O67 2.765664 1_555
Na10 O68 2.865474 1_555
Na10 O66 2.915254 1_555
Na11 O64 2.304251 1_555
Na11 O65 2.365450 1_555
Na11 O69 2.674613 1_555
Na11 O63 2.684918 1_555
Na11 O70 2.858813 1_555
Na11 O71 2.881156 1_555
O0 Si0 1.583141 1_545
O0 Zn0 1.867273 1_555
O1 S0 1.448769 1_555
O1 Zn0 2.117301 1_665
O2 S1 1.465338 1_655
O2 Zn0 2.215024 1_655
O3 S2 1.446435 1_555
O3 Zn1 2.044947 1_545
O4 Si1 1.574302 1_555
O4 Zn1 1.875477 1_655
O5 Si2 1.597332 1_555
O5 Zn1 2.015787 1_645
O6 Si2 1.720124 1_565
O6 Ta0 1.870011 1_555
O7 S2 1.512504 1_555
O7 Ta0 2.134306 1_445
O8 Si1 1.696318 1_455
O8 Ta0 1.965422 1_455
O9 S0 1.496673 1_555
O9 Ta1 2.195870 1_665
O10 S1 1.526335 1_555
O10 Ta1 2.158353 1_555
O11 Si0 1.701466 1_555
O11 Ta1 1.943765 1_565
O12 Si3 1.573405 1_555
O12 Zn2 1.897270 1_555
O13 S3 1.438580 1_555
O13 Zn2 2.238761 1_555
O14 Si4 1.580751 1_555
O14 Zn2 2.072121 1_555
O15 S4 1.445373 1_555
O15 Zn3 2.164545 1_555
O16 Si5 1.575538 1_555
O16 Zn3 1.864452 1_555
O17 Si6 1.601223 1_555
O17 Zn3 1.960019 1_555
O18 Si6 1.719151 1_555
O18 Ta2 1.896942 1_554
O19 S4 1.496521 1_555
O19 Ta2 2.199466 1_554
O20 Si5 1.722011 1_555
O20 Ta2 1.890719 1_554
O21 S3 1.581309 1_555
O21 Ta3 1.948911 1_555
O22 Si4 1.757373 1_555
O22 Ta3 1.852273 1_555
O23 Si3 1.747748 1_555
O23 Ta3 1.942455 1_555
O24 S5 1.453298 1_555
O24 Zn4 2.050918 1_556
O25 S6 1.439144 1_555
O25 Zn4 2.125768 1_556
O26 Si7 1.595271 1_555
O26 Zn4 1.992447 1_556
O27 S7 1.437004 1_555
O27 Zn5 2.264376 1_555
O28 Si8 1.586719 1_555
O28 Zn5 1.874238 1_555
O29 S8 1.450236 1_555
O29 Zn5 2.489363 1_555
O30 S8 1.558354 1_555
O30 Ta4 2.059575 1_555
O31 S7 1.568857 1_555
O31 Ta4 1.976334 1_555
O32 Si8 1.721904 1_555
O32 Ta4 1.938356 1_555
O33 S6 1.513343 1_555
O33 Ta5 2.139226 1_555
O34 Si7 1.718601 1_555
O34 Ta5 1.892387 1_555
O35 S5 1.507202 1_555
O35 Ta5 2.283523 1_555
O36 S8 1.447730 1_555
O36 Zn0 2.160628 1_565
O37 S7 1.468309 1_555
O37 Zn0 2.394580 1_665
O38 Si8 1.623409 1_555
O38 Zn0 1.961826 1_555
O39 S6 1.473470 1_555
O39 Zn1 2.468206 1_545
O40 Si7 1.587405 1_555
O40 Zn1 2.032159 1_555
O41 S5 1.472490 1_555
O41 Zn1 2.335480 1_655
O42 Si3 1.667503 1_555
O42 Ta0 1.974297 1_545
O43 S3 1.504979 1_555
O43 Ta0 2.297450 1_445
O44 Si4 1.693908 1_555
O44 Ta0 1.958511 1_555
O45 S4 1.571000 1_555
O45 Ta1 2.026820 1_665
O46 Si5 1.663569 1_555
O46 Ta1 1.920325 1_655
O47 Si6 1.725861 1_555
O47 Ta1 1.905163 1_555
O48 Si2 1.579764 1_555
O48 Zn2 2.023886 1_555
O49 S2 1.459187 1_555
O49 Zn2 2.427360 1_555
O50 Si1 1.593253 1_555
O50 Zn2 2.006438 1_555
O51 S0 1.462839 1_555
O51 Zn3 2.560577 1_555
O52 S1 1.444073 1_655
O52 Zn3 2.418801 1_555
O53 Si0 1.613901 1_545
O53 Zn3 2.000641 1_555
O54 S5 1.517092 1_555
O54 Ta2 2.121255 1_555
O55 S6 1.543412 1_655
O55 Ta2 2.180967 1_555
O56 Si7 1.741841 1_545
O56 Ta2 1.913804 1_555
O57 S7 1.509058 1_545
O57 Ta3 2.365968 1_555
O58 Si8 1.681422 1_555
O58 Ta3 1.982974 1_555
O59 S8 1.534641 1_655
O59 Ta3 2.268064 1_555
O60 Si6 1.574985 1_555
O60 Zn4 1.990386 1_555
O61 S4 1.460994 1_455
O61 Zn4 2.417729 1_555
O62 Si5 1.594830 1_565
O62 Zn4 2.013568 1_555
O63 S3 1.453571 1_565
O63 Zn5 2.495578 1_555
O64 Si4 1.586926 1_555
O64 Zn5 1.910520 1_555
O65 Si3 1.612119 1_455
O65 Zn5 1.951754 1_555
O66 Si0 1.686666 1_555
O66 Ta4 1.927707 1_555
O67 S0 1.569299 1_555
O67 Ta4 2.065643 1_555
O68 S1 1.555002 1_555
O68 Ta4 2.144005 1_555
O69 S2 1.538108 1_555
O69 Ta5 2.164819 1_555
O70 Si1 1.702162 1_455
O70 Ta5 1.859388 1_555
O71 Si2 1.724213 1_565
O71 Ta5 1.908907 1_555
