# generated using pymatgen
data_Y2MgNb2O8
_symmetry_space_group_name_H-M   'P 1'
_cell_length_a   5.25534164
_cell_length_b   5.31615628
_cell_length_c   8.01338769
_cell_angle_alpha   105.26426998
_cell_angle_beta   104.99205032
_cell_angle_gamma   102.04588297
_symmetry_Int_Tables_number   1
_chemical_formula_structural   Y2MgNb2O8
_chemical_formula_sum   'Y2 Mg1 Nb2 O8'
_cell_volume   199.21406448
_cell_formula_units_Z   1
loop_
 _symmetry_equiv_pos_site_id
 _symmetry_equiv_pos_as_xyz
  1  'x, y, z'
loop_
 _atom_site_type_symbol
 _atom_site_label
 _atom_site_symmetry_multiplicity
 _atom_site_fract_x
 _atom_site_fract_y
 _atom_site_fract_z
 _atom_site_occupancy
  Y  Y0  1  0.59700389  0.84700389  0.19400778  1
  Y  Y1  1  0.42411870  0.17411870  0.84823740  1
  Mg  Mg0  1  0.26901993  0.51901993  0.53803986  1
  Nb  Nb0  1  0.07424552  0.32424552  0.14849104  1
  Nb  Nb1  1  0.92939316  0.67939316  0.85878633  1
  O  O0  1  0.79978678  0.52944798  0.07930494  1
  O  O1  1  0.27951816  0.04985695  0.07930494  1
  O  O2  1  0.11791228  0.76643156  0.68656362  1
  O  O3  1  0.56865134  0.42013206  0.68656362  1
  O  O4  1  0.20988669  0.48238391  0.94292841  1
  O  O5  1  0.73304172  0.96054449  0.94292841  1
  O  O6  1  0.96749001  0.20328202  0.34742183  1
  O  O7  1  0.37993182  0.64413981  0.34742183  1
loop_
_geom_bond_atom_site_label_1
_geom_bond_atom_site_label_2
_geom_bond_distance
_geom_bond_site_symmetry_2
Mg0 O2 1.969215 1_555
Mg0 O3 1.969215 1_555
Mg0 O7 1.987265 1_555
Mg0 O6 1.987265 1_455
Nb0 O6 2.030114 1_455
Nb0 O7 2.030114 1_555
Nb0 O0 2.034536 1_455
Nb0 O1 2.034536 1_555
Nb0 O4 2.239395 1_554
Nb0 O5 2.239395 1_444
Nb1 O3 1.988112 1_555
Nb1 O2 1.988112 1_655
Nb1 O5 2.055839 1_555
Nb1 O4 2.055839 1_655
Nb1 O0 2.315122 1_556
Nb1 O1 2.315122 1_666
O0 Y0 2.295901 1_555
O0 Y1 2.367475 1_554
O1 Y0 2.295901 1_545
O1 Y1 2.367475 1_554
O2 Y1 2.225426 1_565
O3 Y1 2.225426 1_555
O4 Y1 2.255281 1_555
O4 Y0 2.475302 1_556
O5 Y1 2.255281 1_565
O5 Y0 2.475302 1_556
O6 Y0 2.210426 1_545
O7 Y0 2.210426 1_555
