# generated using pymatgen
data_Ta4O
_symmetry_space_group_name_H-M   'P 1'
_cell_length_a   3.25749700
_cell_length_b   3.25749700
_cell_length_c   7.40934100
_cell_angle_alpha   90.00000000
_cell_angle_beta   90.00000000
_cell_angle_gamma   90.00000000
_symmetry_Int_Tables_number   1
_chemical_formula_structural   Ta4O
_chemical_formula_sum   'Ta4 O1'
_cell_volume   78.62264165
_cell_formula_units_Z   1
loop_
 _symmetry_equiv_pos_site_id
 _symmetry_equiv_pos_as_xyz
  1  'x, y, z'
loop_
 _atom_site_type_symbol
 _atom_site_label
 _atom_site_symmetry_multiplicity
 _atom_site_fract_x
 _atom_site_fract_y
 _atom_site_fract_z
 _atom_site_occupancy
  Ta  Ta0  1  0.00000000  0.00000000  0.50000000  1
  Ta  Ta1  1  0.50000000  0.50000000  0.78315800  1
  Ta  Ta2  1  0.50000000  0.50000000  0.21684200  1
  Ta  Ta3  1  0.00000000  0.00000000  0.00000000  1
  O  O0  1  0.50000000  0.50000000  0.50000000  1
loop_
_geom_bond_atom_site_label_1
_geom_bond_atom_site_label_2
_geom_bond_distance
_geom_bond_site_symmetry_2
Ta1 Ta3 2.808378 1_566
Ta1 Ta3 2.808378 1_656
Ta1 Ta3 2.808378 1_666
Ta1 Ta3 2.808378 1_556
Ta2 Ta3 2.808378 1_565
Ta2 Ta3 2.808378 1_665
Ta2 Ta3 2.808378 1_555
Ta2 Ta3 2.808378 1_655
O0 Ta1 2.098014 1_555
O0 Ta2 2.098014 1_555
O0 Ta0 2.303398 1_555
O0 Ta0 2.303398 1_665
O0 Ta0 2.303398 1_655
O0 Ta0 2.303398 1_565
