# generated using pymatgen
data_Cs2Mg(FeS2)2
_symmetry_space_group_name_H-M   'P 1'
_cell_length_a   6.23381696
_cell_length_b   7.28505489
_cell_length_c   7.38257829
_cell_angle_alpha   119.44855265
_cell_angle_beta   115.00775404
_cell_angle_gamma   89.96851190
_symmetry_Int_Tables_number   1
_chemical_formula_structural   Cs2Mg(FeS2)2
_chemical_formula_sum   'Cs2 Mg1 Fe2 S4'
_cell_volume   255.29158325
_cell_formula_units_Z   1
loop_
 _symmetry_equiv_pos_site_id
 _symmetry_equiv_pos_as_xyz
  1  'x, y, z'
loop_
 _atom_site_type_symbol
 _atom_site_label
 _atom_site_symmetry_multiplicity
 _atom_site_fract_x
 _atom_site_fract_y
 _atom_site_fract_z
 _atom_site_occupancy
  Cs  Cs0  1  0.32177300  0.32064900  0.64340900  1
  Cs  Cs1  1  0.71454000  0.71820600  0.42966100  1
  Mg  Mg0  1  0.11683300  0.61496100  0.23462100  1
  Fe  Fe0  1  0.26798900  0.00257900  0.00698200  1
  Fe  Fe1  1  0.73865500  0.00269500  0.00691400  1
  S  S0  1  0.99716200  0.22979500  0.99491800  1
  S  S1  1  0.99940900  0.76555000  0.99900500  1
  S  S2  1  0.65814000  0.15944600  0.31633300  1
  S  S3  1  0.33550000  0.83426800  0.67172800  1
loop_
_geom_bond_atom_site_label_1
_geom_bond_atom_site_label_2
_geom_bond_distance
_geom_bond_site_symmetry_2
Cs0 S2 3.618761 1_455
Cs0 S2 3.618888 1_555
Cs0 S3 3.642485 1_555
Cs0 S3 3.649526 1_545
Cs1 Mg0 3.303673 1_655
Cs1 Mg0 3.305176 1_555
Cs1 S3 3.400276 1_655
Cs1 S3 3.402043 1_555
Cs1 S0 3.592613 1_565
Cs1 S1 3.633729 1_555
Cs1 S2 3.681144 1_565
Cs1 S2 3.714497 1_555
Mg0 S1 2.358811 1_454
Mg0 S0 2.359054 1_454
Mg0 S3 2.457212 1_555
Fe0 S2 2.275419 1_555
Fe0 S1 2.368170 1_444
Fe0 S0 2.369168 1_454
Fe0 S3 2.387979 1_544
Fe1 S2 2.275482 1_555
Fe1 S1 2.368176 1_544
Fe1 S0 2.368449 1_554
Fe1 S3 2.388483 1_544
