# generated using pymatgen
data_MgFe4(TeO6)2
_symmetry_space_group_name_H-M   'P 1'
_cell_length_a   4.81228017
_cell_length_b   4.80475818
_cell_length_c   9.21735701
_cell_angle_alpha   90.00623874
_cell_angle_beta   90.00142900
_cell_angle_gamma   89.96909117
_symmetry_Int_Tables_number   1
_chemical_formula_structural   MgFe4(TeO6)2
_chemical_formula_sum   'Mg1 Fe4 Te2 O12'
_cell_volume   213.12224524
_cell_formula_units_Z   1
loop_
 _symmetry_equiv_pos_site_id
 _symmetry_equiv_pos_as_xyz
  1  'x, y, z'
loop_
 _atom_site_type_symbol
 _atom_site_label
 _atom_site_symmetry_multiplicity
 _atom_site_fract_x
 _atom_site_fract_y
 _atom_site_fract_z
 _atom_site_occupancy
  Mg  Mg0  1  0.49998200  0.00004400  0.75102000  1
  Fe  Fe0  1  0.00006600  0.00000000  0.33623600  1
  Fe  Fe1  1  0.50003000  0.50004300  0.84735900  1
  Fe  Fe2  1  0.99997800  0.99998300  0.65528000  1
  Fe  Fe3  1  0.49965400  0.50027600  0.16639800  1
  Te  Te0  1  0.99990200  0.00007200  0.01124400  1
  Te  Te1  1  0.49994700  0.50001800  0.48916900  1
  O  O0  1  0.68507200  0.69183700  0.65303300  1
  O  O1  1  0.31486400  0.30815700  0.65300400  1
  O  O2  1  0.68947100  0.68767900  0.32934600  1
  O  O3  1  0.19257200  0.80530700  0.16764400  1
  O  O4  1  0.80759900  0.19458600  0.16763500  1
  O  O5  1  0.80995700  0.18457300  0.84595500  1
  O  O6  1  0.29444500  0.28985800  0.00944800  1
  O  O7  1  0.21140700  0.79163300  0.49122300  1
  O  O8  1  0.78849700  0.20840400  0.49122200  1
  O  O9  1  0.19006800  0.81549500  0.84600300  1
  O  O10  1  0.31055600  0.31214900  0.32935400  1
  O  O11  1  0.70592900  0.70988100  0.00942500  1
loop_
_geom_bond_atom_site_label_1
_geom_bond_atom_site_label_2
_geom_bond_distance
_geom_bond_site_symmetry_2
Mg0 O5 1.943740 1_555
Mg0 O9 1.943878 1_545
Mg0 O1 1.949423 1_555
Mg0 O0 1.949452 1_545
Fe0 O7 2.019063 1_545
Fe0 O8 2.019579 1_455
Fe0 O4 2.036263 1_455
Fe0 O3 2.036400 1_545
Fe0 O10 2.118584 1_555
Fe0 O2 2.119516 1_445
Fe1 O11 2.056807 1_556
Fe1 O6 2.057247 1_556
Fe1 O5 2.125955 1_555
Fe1 O9 2.126010 1_555
Fe1 O0 2.202674 1_555
Fe1 O1 2.203118 1_555
Fe2 O7 2.079104 1_655
Fe2 O8 2.079519 1_565
Fe2 O0 2.119294 1_555
Fe2 O1 2.119325 1_665
Fe2 O5 2.170378 1_565
Fe2 O9 2.170795 1_655
Fe3 O2 1.975232 1_555
Fe3 O10 1.975464 1_555
Fe3 O6 2.022588 1_555
Fe3 O11 2.023495 1_555
Fe3 O3 2.080761 1_555
Fe3 O4 2.085938 1_555
O0 Te1 1.981132 1_555
O1 Te1 1.981118 1_555
O2 Te1 1.953516 1_555
O3 Te0 1.952658 1_465
O4 Te0 1.951065 1_555
O5 Te0 1.985412 1_556
O6 Te0 1.987496 1_455
O7 Te1 1.972176 1_555
O8 Te1 1.972208 1_555
O9 Te0 1.985612 1_466
O10 Te1 1.953441 1_555
O11 Te0 1.986904 1_565
