# generated using pymatgen
data_Na6CaHf7(PO4)12
_symmetry_space_group_name_H-M   'P 1'
_cell_length_a   17.92254618
_cell_length_b   8.95013511
_cell_length_c   22.94075422
_cell_angle_alpha   90.03315264
_cell_angle_beta   89.94747182
_cell_angle_gamma   119.95378341
_symmetry_Int_Tables_number   1
_chemical_formula_structural   Na6CaHf7(PO4)12
_chemical_formula_sum   'Na18 Ca3 Hf21 P36 O144'
_cell_volume   3188.37579236
_cell_formula_units_Z   3
loop_
 _symmetry_equiv_pos_site_id
 _symmetry_equiv_pos_as_xyz
  1  'x, y, z'
loop_
 _atom_site_type_symbol
 _atom_site_label
 _atom_site_symmetry_multiplicity
 _atom_site_fract_x
 _atom_site_fract_y
 _atom_site_fract_z
 _atom_site_occupancy
  Na  Na0  1  0.68864178  0.37101070  0.24319461  1
  Na  Na1  1  0.99544405  0.62559472  0.24348930  1
  Na  Na2  1  0.99448616  0.36259453  0.73981049  1
  Na  Na3  1  0.49472108  0.36266960  0.73992852  1
  Na  Na4  1  0.18851462  0.00682039  0.73968756  1
  Na  Na5  1  0.68869964  0.00732560  0.73981740  1
  Na  Na6  1  0.99995467  0.99955435  0.50122256  1
  Na  Na7  1  0.50037362  0.00028806  0.50111981  1
  Na  Na8  1  0.99820172  0.99621403  0.00311531  1
  Na  Na9  1  0.50232783  0.00475191  0.00229360  1
  Na  Na10  1  0.33295065  0.35102311  0.83044165  1
  Na  Na11  1  0.83275189  0.35107615  0.83219162  1
  Na  Na12  1  0.33318562  0.33427756  0.33678402  1
  Na  Na13  1  0.83298717  0.31240778  0.33215641  1
  Na  Na14  1  0.17222907  0.66358502  0.16527598  1
  Na  Na15  1  0.67164117  0.69294525  0.16376447  1
  Na  Na16  1  0.17681391  0.66397733  0.65728567  1
  Na  Na17  1  0.67689695  0.66439292  0.65730398  1
  Ca  Ca0  1  0.33307056  0.34356637  0.68079364  1
  Ca  Ca1  1  0.83293637  0.34355093  0.68091222  1
  Ca  Ca2  1  0.83277156  0.32200286  0.18227108  1
  Hf  Hf0  1  0.00248294  0.00480590  0.35541188  1
  Hf  Hf1  1  0.49628340  0.99585558  0.35523593  1
  Hf  Hf2  1  0.99888831  0.99779500  0.85801123  1
  Hf  Hf3  1  0.49928167  0.99775144  0.85720898  1
  Hf  Hf4  1  0.99824030  0.99655360  0.64386654  1
  Hf  Hf5  1  0.49856056  0.99654310  0.64392527  1
  Hf  Hf6  1  0.99818463  0.00226324  0.14558020  1
  Hf  Hf7  1  0.50036692  0.99830399  0.14543804  1
  Hf  Hf8  1  0.33350275  0.33433457  0.18710639  1
  Hf  Hf9  1  0.33309726  0.33167752  0.97970899  1
  Hf  Hf10  1  0.83389979  0.33305888  0.98357573  1
  Hf  Hf11  1  0.33339899  0.33319162  0.48362287  1
  Hf  Hf12  1  0.83342870  0.33431437  0.48231190  1
  Hf  Hf13  1  0.16778128  0.66832035  0.02075907  1
  Hf  Hf14  1  0.66424863  0.66274703  0.01919935  1
  Hf  Hf15  1  0.16553516  0.66705852  0.51680760  1
  Hf  Hf16  1  0.66579246  0.66674873  0.51629327  1
  Hf  Hf17  1  0.17039234  0.66663222  0.31368167  1
  Hf  Hf18  1  0.66552188  0.67182852  0.31457163  1
  Hf  Hf19  1  0.16886580  0.66568692  0.81544428  1
  Hf  Hf20  1  0.66926948  0.66676914  0.81552108  1
  P  P0  1  0.14450569  0.99900334  0.24990239  1
  P  P1  1  0.64134935  0.99441549  0.25165576  1
  P  P2  1  0.35521185  0.71075435  0.24966777  1
  P  P3  1  0.85432767  0.71695250  0.25149164  1
  P  P4  1  0.00379860  0.29441808  0.25194004  1
  P  P5  1  0.49957653  0.28819694  0.25030381  1
  P  P6  1  0.14094449  0.28743449  0.75237040  1
  P  P7  1  0.64125174  0.28831819  0.75212680  1
  P  P8  1  0.00260488  0.71417149  0.75287448  1
  P  P9  1  0.50268599  0.71361775  0.75266344  1
  P  P10  1  0.35439931  0.99187511  0.75175137  1
  P  P11  1  0.85457954  0.99209192  0.75187778  1
  P  P12  1  0.48424863  0.33454624  0.58515166  1
  P  P13  1  0.98353981  0.33454900  0.58502673  1
  P  P14  1  0.18357320  0.03266105  0.58556437  1
  P  P15  1  0.68404581  0.03310953  0.58521337  1
  P  P16  1  0.33241584  0.63414305  0.58194435  1
  P  P17  1  0.83230921  0.63353333  0.58165645  1
  P  P18  1  0.47758076  0.62227713  0.08303583  1
  P  P19  1  0.98321910  0.63449641  0.08547462  1
  P  P20  1  0.33367522  0.04416624  0.08366079  1
  P  P21  1  0.83318629  0.03164709  0.08176264  1
  P  P22  1  0.18902284  0.33439118  0.08374277  1
  P  P23  1  0.68274348  0.33052260  0.08501562  1
  P  P24  1  0.31250785  0.66422464  0.91852615  1
  P  P25  1  0.81140853  0.66102581  0.91830605  1
  P  P26  1  0.02048663  0.37804690  0.91742181  1
  P  P27  1  0.51866646  0.37550499  0.91521093  1
  P  P28  1  0.16873927  0.95965656  0.91631937  1
  P  P29  1  0.66881785  0.96183680  0.91685054  1
  P  P30  1  0.31148869  0.96228568  0.41632534  1
  P  P31  1  0.81296261  0.96210889  0.41618068  1
  P  P32  1  0.16948117  0.37577841  0.41688253  1
  P  P33  1  0.66789681  0.37430480  0.41391827  1
  P  P34  1  0.01928573  0.66133858  0.41368079  1
  P  P35  1  0.51772601  0.66271642  0.41653632  1
  O  O0  1  0.10287401  0.02120972  0.30552596  1
  O  O1  1  0.59029336  0.00505974  0.30439776  1
  O  O2  1  0.40732847  0.79445768  0.30526092  1
  O  O3  1  0.91102295  0.81554383  0.30437430  1
  O  O4  1  0.48596262  0.17704101  0.30482345  1
  O  O5  1  0.00095374  0.18968303  0.30605643  1
  O  O6  1  0.09207891  0.18135342  0.80684593  1
  O  O7  1  0.59219766  0.18189814  0.80650199  1
  O  O8  1  0.49773924  0.80869886  0.80739497  1
  O  O9  1  0.99793489  0.80984121  0.80756448  1
  O  O10  1  0.40761359  0.00266216  0.80614612  1
  O  O11  1  0.90784720  0.00290488  0.80629172  1
  O  O12  1  0.39920936  0.97695684  0.69624790  1
  O  O13  1  0.89921958  0.97684273  0.69632169  1
  O  O14  1  0.08577365  0.19973118  0.69738645  1
  O  O15  1  0.58582645  0.19978859  0.69726788  1
  O  O16  1  0.01267282  0.82372779  0.69786207  1
  O  O17  1  0.51253855  0.82321246  0.69777105  1
  O  O18  1  0.39958200  0.82205463  0.19551609  1
  O  O19  1  0.89849989  0.82121983  0.19553823  1
  O  O20  1  0.00941803  0.20200912  0.19625193  1
  O  O21  1  0.51424721  0.20168129  0.19639607  1
  O  O22  1  0.08586806  0.97154372  0.19678130  1
  O  O23  1  0.58969228  0.97801276  0.19522384  1
  O  O24  1  0.45566110  0.36594737  0.64420498  1
  O  O25  1  0.95501388  0.36524629  0.64422108  1
  O  O26  1  0.22810229  0.08884819  0.64452846  1
  O  O27  1  0.72830264  0.08889732  0.64432384  1
  O  O28  1  0.31371375  0.53835992  0.63907204  1
  O  O29  1  0.81392812  0.53843879  0.63883325  1
  O  O30  1  0.43412112  0.51097205  0.13747940  1
  O  O31  1  0.95460362  0.54551262  0.14429759  1
  O  O32  1  0.32143995  0.13206074  0.13783971  1
  O  O33  1  0.81468464  0.09098508  0.13872368  1
  O  O34  1  0.24518716  0.35927705  0.13796936  1
  O  O35  1  0.72692318  0.36350220  0.14397106  1
  O  O36  1  0.23218097  0.30929466  0.02904641  1
  O  O37  1  0.73503880  0.31067640  0.03437857  1
  O  O38  1  0.42244971  0.53385640  0.02846797  1
  O  O39  1  0.92155617  0.53110982  0.03455015  1
  O  O40  1  0.34544465  0.15448413  0.02880679  1
  O  O41  1  0.84499398  0.15105080  0.02913262  1
  O  O42  1  0.23527582  0.15827721  0.53509621  1
  O  O43  1  0.73560560  0.15883467  0.53468597  1
  O  O44  1  0.34438147  0.53739341  0.52961315  1
  O  O45  1  0.84445778  0.53732999  0.52924383  1
  O  O46  1  0.42194078  0.31443535  0.53466260  1
  O  O47  1  0.92159223  0.31499062  0.53438437  1
  O  O48  1  0.26910804  0.68799711  0.97240831  1
  O  O49  1  0.76504348  0.68298808  0.97056369  1
  O  O50  1  0.07990877  0.47002490  0.96953330  1
  O  O51  1  0.57552610  0.46751631  0.96775895  1
  O  O52  1  0.15969662  0.84590774  0.96876794  1
  O  O53  1  0.65520497  0.84433074  0.96915089  1
  O  O54  1  0.26698425  0.84910996  0.46931899  1
  O  O55  1  0.76864014  0.84851252  0.46924011  1
  O  O56  1  0.15705839  0.46430783  0.47002770  1
  O  O57  1  0.65519675  0.46707151  0.46602975  1
  O  O58  1  0.07736335  0.68672837  0.46617764  1
  O  O59  1  0.57481844  0.69011779  0.46970976  1
  O  O60  1  0.06163501  0.63985295  0.35718938  1
  O  O61  1  0.56262936  0.64133082  0.36165090  1
  O  O62  1  0.25735348  0.87470653  0.36087067  1
  O  O63  1  0.75698588  0.87268289  0.36133304  1
  O  O64  1  0.18018903  0.48653425  0.36184263  1
  O  O65  1  0.67952658  0.48074456  0.35737822  1
  O  O66  1  0.06259322  0.48355341  0.86064164  1
  O  O67  1  0.56136253  0.48104374  0.85870783  1
  O  O68  1  0.17922300  0.87557001  0.85967252  1
  O  O69  1  0.67954126  0.87620556  0.86035793  1
  O  O70  1  0.25730851  0.64328250  0.86346249  1
  O  O71  1  0.75751439  0.64081603  0.86240423  1
  O  O72  1  0.00976317  0.82363481  0.40862621  1
  O  O73  1  0.50706010  0.82329029  0.41040545  1
  O  O74  1  0.40172325  0.98037745  0.41076768  1
  O  O75  1  0.90354937  0.98240923  0.40955730  1
  O  O76  1  0.08876618  0.19442891  0.41142671  1
  O  O77  1  0.58655841  0.19327310  0.40820366  1
  O  O78  1  0.00986760  0.19559753  0.91246850  1
  O  O79  1  0.50861186  0.19371176  0.91140144  1
  O  O80  1  0.08752839  0.97834729  0.91249055  1
  O  O81  1  0.58808053  0.98236788  0.91165708  1
  O  O82  1  0.40299522  0.82500522  0.91282897  1
  O  O83  1  0.90171437  0.82379910  0.91307451  1
  O  O84  1  0.48994693  0.16655401  0.58675247  1
  O  O85  1  0.98975659  0.16686559  0.58661878  1
  O  O86  1  0.09391831  0.02084441  0.58763699  1
  O  O87  1  0.59407856  0.02053610  0.58743254  1
  O  O88  1  0.41664193  0.81283639  0.58585006  1
  O  O89  1  0.91634304  0.81261711  0.58580417  1
  O  O90  1  0.48530257  0.80177558  0.08936289  1
  O  O91  1  0.99172356  0.81629651  0.08649243  1
  O  O92  1  0.41433194  0.02506412  0.09050306  1
  O  O93  1  0.91709273  0.01985827  0.08498686  1
  O  O94  1  0.09877359  0.17442725  0.09120926  1
  O  O95  1  0.59267535  0.16201801  0.08570907  1
  O  O96  1  0.34499317  0.15307257  0.75086015  1
  O  O97  1  0.84518249  0.15321073  0.75098813  1
  O  O98  1  0.22873261  0.30022815  0.75157244  1
  O  O99  1  0.72879370  0.30034748  0.75147343  1
  O  O100  1  0.42716532  0.53015553  0.75193556  1
  O  O101  1  0.92718048  0.53066170  0.75211750  1
  O  O102  1  0.34509322  0.52896875  0.24326227  1
  O  O103  1  0.84570095  0.53778704  0.25064908  1
  O  O104  1  0.42083413  0.31266799  0.24279973  1
  O  O105  1  0.92635484  0.32175354  0.25282448  1
  O  O106  1  0.23519748  0.15788899  0.24252491  1
  O  O107  1  0.72875032  0.15926841  0.25224466  1
  O  O108  1  0.32100327  0.50116852  0.92261789  1
  O  O109  1  0.82102074  0.49975873  0.92386780  1
  O  O110  1  0.42866444  0.35751768  0.92117093  1
  O  O111  1  0.93132864  0.36245016  0.92452498  1
  O  O112  1  0.24920291  0.14044126  0.92219690  1
  O  O113  1  0.74941125  0.14154908  0.92362237  1
  O  O114  1  0.32129237  0.14282463  0.42321185  1
  O  O115  1  0.82204979  0.14229006  0.42293073  1
  O  O116  1  0.24988960  0.35602264  0.42304273  1
  O  O117  1  0.74780404  0.35373300  0.42266692  1
  O  O118  1  0.42835204  0.49978399  0.42305898  1
  O  O119  1  0.92968103  0.49983066  0.42211183  1
  O  O120  1  0.17954470  0.49664174  0.07731577  1
  O  O121  1  0.66775796  0.48303829  0.07151233  1
  O  O122  1  0.07359611  0.65775470  0.07211181  1
  O  O123  1  0.56880069  0.64604322  0.07685908  1
  O  O124  1  0.25329832  0.86307831  0.07726575  1
  O  O125  1  0.75601504  0.84820527  0.07017569  1
  O  O126  1  0.16844539  0.85027134  0.57210716  1
  O  O127  1  0.66946755  0.85092878  0.57172836  1
  O  O128  1  0.25687058  0.66712607  0.57009275  1
  O  O129  1  0.75643786  0.66548521  0.56960999  1
  O  O130  1  0.07469016  0.48820641  0.57222470  1
  O  O131  1  0.57546338  0.48723634  0.57194815  1
  O  O132  1  0.15055351  0.83114961  0.25511845  1
  O  O133  1  0.64915613  0.82924793  0.25576620  1
  O  O134  1  0.26470115  0.69308039  0.25481770  1
  O  O135  1  0.76214192  0.69450505  0.25568624  1
  O  O136  1  0.08738248  0.47739134  0.25417823  1
  O  O137  1  0.58374813  0.46626548  0.25678360  1
  O  O138  1  0.14610865  0.46728680  0.75621363  1
  O  O139  1  0.64634263  0.46799509  0.75592590  1
  O  O140  1  0.08867992  0.70606597  0.75631834  1
  O  O141  1  0.58891153  0.70636647  0.75612330  1
  O  O142  1  0.26248074  0.82888523  0.75547064  1
  O  O143  1  0.76258084  0.82918560  0.75544776  1
loop_
_geom_bond_atom_site_label_1
_geom_bond_atom_site_label_2
_geom_bond_distance
_geom_bond_site_symmetry_2
Na0 O107 2.347863 1_555
Na0 O35 2.387389 1_555
Na0 O137 2.440777 1_555
Na0 O103 2.446572 1_555
Na0 O135 2.528107 1_555
Na0 O65 2.830070 1_555
Na0 O21 2.914230 1_555
Na1 O105 2.368953 1_555
Na1 O31 2.388475 1_555
Na1 O103 2.395913 1_555
Na1 O132 2.465262 1_655
Na1 O136 2.591998 1_655
Na1 O60 2.842763 1_655
Na1 O22 2.889867 1_655
Na2 O25 2.308569 1_555
Na2 O101 2.368209 1_555
Na2 O97 2.393692 1_555
Na2 O138 2.421347 1_655
Na2 O140 2.694620 1_655
Na2 O14 2.850569 1_655
Na2 O66 3.004806 1_655
Na3 O24 2.310113 1_555
Na3 O100 2.366485 1_555
Na3 O96 2.399057 1_555
Na3 O139 2.418917 1_555
Na3 O141 2.695288 1_555
Na3 O15 2.849845 1_555
Na3 O67 2.951782 1_555
Na4 O26 2.299310 1_555
Na4 O98 2.366282 1_555
Na4 O140 2.404816 1_545
Na4 O96 2.445269 1_555
Na4 O142 2.556256 1_545
Na4 O16 2.895631 1_545
Na4 O68 2.965085 1_545
Na5 O27 2.305965 1_555
Na5 O99 2.362931 1_555
Na5 O141 2.404862 1_545
Na5 O97 2.445458 1_555
Na5 O143 2.556113 1_545
Na5 O17 2.902138 1_545
Na5 O69 2.976834 1_545
Na6 O89 2.510905 1_555
Na6 O85 2.526449 1_565
Na6 O86 2.547074 1_665
Na6 O76 2.654245 1_665
Na6 O75 2.678157 1_555
Na6 O72 2.700771 1_655
Na7 O88 2.515805 1_545
Na7 O84 2.526299 1_555
Na7 O87 2.544759 1_555
Na7 O73 2.653301 1_545
Na7 O74 2.673153 1_545
Na7 O77 2.691998 1_555
Na8 O93 2.446899 1_565
Na8 O91 2.466072 1_555
Na8 O83 2.641309 1_554
Na8 O94 2.647502 1_665
Na8 O80 2.675828 1_654
Na8 O78 2.680195 1_664
Na9 O95 2.447790 1_555
Na9 O90 2.613935 1_545
Na9 O92 2.625888 1_555
Na9 O81 2.650795 1_544
Na9 O79 2.652193 1_554
Na9 O82 2.666956 1_544
Na10 O100 2.441229 1_555
Na10 O98 2.475168 1_555
Na10 O108 2.570299 1_555
Na10 O96 2.625999 1_555
Na10 O110 2.680512 1_555
Na10 O112 2.722079 1_555
Na11 O101 2.470507 1_555
Na11 O99 2.503429 1_555
Na11 O109 2.552158 1_555
Na11 O97 2.654335 1_555
Na11 O113 2.710887 1_555
Na11 O111 2.728649 1_555
Na12 O116 2.542960 1_555
Na12 O118 2.549604 1_555
Na12 O114 2.559534 1_555
Na12 O102 2.704999 1_555
Na12 O104 2.729548 1_555
Na12 O106 2.736196 1_555
Na13 O105 2.444217 1_555
Na13 O107 2.485127 1_555
Na13 O115 2.529439 1_555
Na13 O103 2.676154 1_555
Na13 O119 2.678688 1_555
Na13 O117 2.708532 1_555
Na14 O120 2.552096 1_555
Na14 O134 2.569963 1_555
Na14 O136 2.591654 1_555
Na14 O124 2.604553 1_555
Na14 O132 2.687898 1_555
Na14 O122 2.758663 1_555
Na15 O133 2.567411 1_555
Na15 O125 2.593532 1_555
Na15 O123 2.604100 1_555
Na15 O135 2.657360 1_555
Na15 O121 2.806833 1_555
Na15 O137 2.821098 1_555
Na16 O128 2.452552 1_555
Na16 O130 2.600071 1_555
Na16 O126 2.622014 1_555
Na16 O142 2.710865 1_555
Na16 O138 2.754512 1_555
Na16 O140 2.895700 1_555
Na17 O129 2.461790 1_555
Na17 O131 2.603404 1_555
Na17 O127 2.623991 1_555
Na17 O143 2.709901 1_555
Na17 O139 2.747638 1_555
Na17 O141 2.889825 1_555
Ca0 O28 2.163913 1_555
Ca0 O24 2.264814 1_555
Ca0 O26 2.268589 1_555
Ca0 O100 2.342221 1_555
Ca0 O98 2.356832 1_555
Ca0 O96 2.429769 1_555
Ca1 O29 2.164798 1_555
Ca1 O25 2.259611 1_555
Ca1 O27 2.269022 1_555
Ca1 O101 2.345859 1_555
Ca1 O99 2.351188 1_555
Ca1 O97 2.431436 1_555
Ca2 O33 2.169591 1_555
Ca2 O31 2.272684 1_555
Ca2 O35 2.283835 1_555
Ca2 O105 2.332722 1_555
Ca2 O107 2.336565 1_555
Ca2 O103 2.407177 1_555
Hf0 O5 2.016979 1_555
Hf0 O3 2.038538 1_445
Hf0 O0 2.073941 1_555
Hf0 O76 2.074438 1_555
Hf0 O72 2.085777 1_545
Hf0 O75 2.090079 1_445
Hf1 O1 2.015874 1_565
Hf1 O2 2.058277 1_555
Hf1 O74 2.067878 1_555
Hf1 O4 2.074490 1_565
Hf1 O73 2.079701 1_555
Hf1 O77 2.088686 1_565
Hf2 O6 2.030986 1_665
Hf2 O9 2.034335 1_555
Hf2 O11 2.037247 1_565
Hf2 O83 2.084188 1_555
Hf2 O78 2.093713 1_665
Hf2 O80 2.096698 1_655
Hf3 O7 2.024992 1_565
Hf3 O8 2.029980 1_555
Hf3 O10 2.036924 1_565
Hf3 O82 2.080966 1_555
Hf3 O81 2.081994 1_555
Hf3 O79 2.086767 1_565
Hf4 O89 2.055934 1_555
Hf4 O86 2.067784 1_665
Hf4 O85 2.074985 1_565
Hf4 O13 2.076645 1_555
Hf4 O16 2.096729 1_655
Hf4 O14 2.104179 1_665
Hf5 O88 2.055334 1_555
Hf5 O87 2.070152 1_565
Hf5 O84 2.072844 1_565
Hf5 O12 2.080084 1_555
Hf5 O17 2.094314 1_555
Hf5 O15 2.100602 1_565
Hf6 O20 2.055839 1_655
Hf6 O19 2.058765 1_545
Hf6 O93 2.074093 1_555
Hf6 O22 2.088094 1_645
Hf6 O94 2.098643 1_655
Hf6 O91 2.103893 1_545
Hf7 O23 2.048014 1_555
Hf7 O18 2.055202 1_555
Hf7 O21 2.070673 1_565
Hf7 O95 2.083023 1_565
Hf7 O90 2.084572 1_555
Hf7 O92 2.096654 1_565
Hf8 O34 2.045070 1_555
Hf8 O30 2.049111 1_555
Hf8 O32 2.051542 1_555
Hf8 O102 2.091379 1_555
Hf8 O104 2.104018 1_555
Hf8 O106 2.105746 1_555
Hf9 O40 2.045898 1_556
Hf9 O38 2.048735 1_556
Hf9 O36 2.056012 1_556
Hf9 O112 2.088580 1_555
Hf9 O110 2.095511 1_555
Hf9 O108 2.096352 1_555
Hf10 O41 2.027615 1_556
Hf10 O37 2.044473 1_556
Hf10 O39 2.048838 1_556
Hf10 O111 2.119156 1_555
Hf10 O109 2.121876 1_555
Hf10 O113 2.128796 1_555
Hf11 O44 2.032495 1_555
Hf11 O42 2.046210 1_555
Hf11 O46 2.046229 1_555
Hf11 O114 2.121164 1_555
Hf11 O118 2.124580 1_555
Hf11 O116 2.126696 1_555
Hf12 O45 2.034519 1_555
Hf12 O47 2.056769 1_555
Hf12 O43 2.057358 1_555
Hf12 O115 2.121047 1_555
Hf12 O119 2.126910 1_555
Hf12 O117 2.127899 1_555
Hf13 O122 2.020728 1_555
Hf13 O52 2.049964 1_554
Hf13 O50 2.054487 1_554
Hf13 O48 2.058272 1_554
Hf13 O124 2.097876 1_555
Hf13 O120 2.101218 1_555
Hf14 O125 2.025558 1_555
Hf14 O121 2.033370 1_555
Hf14 O51 2.049573 1_554
Hf14 O49 2.052039 1_554
Hf14 O53 2.061879 1_554
Hf14 O123 2.106922 1_555
Hf15 O58 2.039289 1_555
Hf15 O128 2.043672 1_555
Hf15 O54 2.046377 1_555
Hf15 O56 2.047058 1_555
Hf15 O126 2.052628 1_555
Hf15 O130 2.055598 1_555
Hf16 O129 2.038991 1_555
Hf16 O59 2.046526 1_555
Hf16 O55 2.052634 1_555
Hf16 O57 2.053932 1_555
Hf16 O127 2.056274 1_555
Hf16 O131 2.057563 1_555
Hf17 O64 2.033417 1_555
Hf17 O62 2.042423 1_555
Hf17 O134 2.081626 1_555
Hf17 O60 2.093619 1_555
Hf17 O136 2.104808 1_555
Hf17 O132 2.150692 1_555
Hf18 O63 2.031710 1_555
Hf18 O61 2.033642 1_555
Hf18 O133 2.075240 1_555
Hf18 O65 2.093632 1_555
Hf18 O135 2.123634 1_555
Hf18 O137 2.144402 1_555
Hf19 O70 2.021668 1_555
Hf19 O68 2.059746 1_555
Hf19 O66 2.063488 1_555
Hf19 O142 2.095786 1_555
Hf19 O138 2.107322 1_555
Hf19 O140 2.135079 1_555
Hf20 O71 2.020489 1_555
Hf20 O69 2.063757 1_555
Hf20 O67 2.067132 1_555
Hf20 O143 2.092753 1_555
Hf20 O139 2.114524 1_555
Hf20 O141 2.137861 1_555
O0 P0 1.539669 1_545
O1 P1 1.547658 1_545
O2 P2 1.537049 1_555
O3 P3 1.545498 1_555
O4 P5 1.540151 1_555
O5 P4 1.541446 1_555
O6 P6 1.548949 1_555
O7 P7 1.548975 1_555
O8 P9 1.543513 1_555
O9 P8 1.544153 1_655
O10 P10 1.544724 1_545
O11 P11 1.545584 1_545
O12 P10 1.545670 1_555
O13 P11 1.545977 1_555
O14 P6 1.552742 1_555
O15 P7 1.553567 1_555
O16 P8 1.552760 1_555
O17 P9 1.551498 1_555
O18 P2 1.541599 1_555
O19 P3 1.551467 1_555
O20 P4 1.551770 1_555
O21 P5 1.549101 1_555
O22 P0 1.547263 1_555
O23 P1 1.555931 1_555
O24 P12 1.522783 1_555
O25 P13 1.522989 1_555
O26 P14 1.523146 1_555
O27 P15 1.524140 1_555
O28 P16 1.509424 1_555
O29 P17 1.507953 1_555
O30 P18 1.543969 1_555
O31 P19 1.519999 1_555
O32 P20 1.543496 1_555
O33 P21 1.507915 1_555
O34 P22 1.545473 1_555
O35 P23 1.520332 1_555
O36 P22 1.547455 1_555
O37 P23 1.556749 1_555
O38 P18 1.545941 1_555
O39 P19 1.556378 1_555
O40 P20 1.547868 1_555
O41 P21 1.555568 1_555
O42 P14 1.556378 1_555
O43 P15 1.557208 1_555
O44 P16 1.555899 1_555
O45 P17 1.555651 1_555
O46 P12 1.556412 1_555
O47 P13 1.555984 1_555
O48 P24 1.530174 1_555
O49 P25 1.525573 1_555
O50 P26 1.538429 1_555
O51 P27 1.527398 1_555
O52 P28 1.531906 1_555
O53 P29 1.532913 1_555
O54 P30 1.527431 1_555
O55 P31 1.529540 1_555
O56 P32 1.529173 1_555
O57 P33 1.535384 1_555
O58 P34 1.533384 1_555
O59 P35 1.531837 1_555
O60 P34 1.560843 1_555
O61 P35 1.556073 1_555
O62 P30 1.554302 1_555
O63 P31 1.558712 1_555
O64 P32 1.557177 1_555
O65 P33 1.560778 1_555
O66 P26 1.563942 1_555
O67 P27 1.560703 1_555
O68 P28 1.558870 1_555
O69 P29 1.565050 1_555
O70 P24 1.557689 1_555
O71 P25 1.561370 1_555
O72 P34 1.549302 1_555
O73 P35 1.548022 1_555
O74 P30 1.547921 1_555
O75 P31 1.548227 1_555
O76 P32 1.548612 1_555
O77 P33 1.552091 1_555
O78 P26 1.550847 1_555
O79 P27 1.547433 1_555
O80 P28 1.548416 1_555
O81 P29 1.551674 1_555
O82 P24 1.545090 1_555
O83 P25 1.549709 1_555
O84 P12 1.557518 1_555
O85 P13 1.559863 1_555
O86 P14 1.557420 1_555
O87 P15 1.560090 1_555
O88 P16 1.560066 1_555
O89 P17 1.560731 1_555
O90 P18 1.548844 1_555
O91 P19 1.556806 1_555
O92 P20 1.546221 1_555
O93 P21 1.561003 1_555
O94 P22 1.543580 1_555
O95 P23 1.565059 1_555
O96 P10 1.534032 1_545
O97 P11 1.533236 1_545
O98 P6 1.519550 1_555
O99 P7 1.518147 1_555
O100 P9 1.519579 1_555
O101 P8 1.519253 1_655
O102 P2 1.551372 1_555
O103 P3 1.532336 1_555
O104 P5 1.542214 1_555
O105 P4 1.525067 1_655
O106 P0 1.544166 1_545
O107 P1 1.524117 1_545
O108 P24 1.543971 1_555
O109 P25 1.542016 1_555
O110 P27 1.544956 1_555
O111 P26 1.541508 1_655
O112 P28 1.544638 1_545
O113 P29 1.541982 1_545
O114 P30 1.543707 1_545
O115 P31 1.545513 1_545
O116 P32 1.543676 1_555
O117 P33 1.545670 1_555
O118 P35 1.543353 1_555
O119 P34 1.545175 1_655
O120 P22 1.551131 1_555
O121 P23 1.548602 1_555
O122 P19 1.556749 1_455
O123 P18 1.546137 1_555
O124 P20 1.546665 1_565
O125 P21 1.552984 1_565
O126 P14 1.546345 1_565
O127 P15 1.548150 1_565
O128 P16 1.547316 1_555
O129 P17 1.548010 1_555
O130 P13 1.549976 1_455
O131 P12 1.549351 1_555
O132 P0 1.563924 1_555
O133 P1 1.555792 1_555
O134 P2 1.553667 1_555
O135 P3 1.564498 1_555
O136 P4 1.574431 1_555
O137 P5 1.561125 1_555
O138 P6 1.567978 1_555
O139 P7 1.566952 1_555
O140 P8 1.582203 1_555
O141 P9 1.580854 1_555
O142 P10 1.565032 1_555
O143 P11 1.565391 1_555
