# generated using pymatgen
data_Na10Ti4Ga4Si7S5O48
_symmetry_space_group_name_H-M   'P 1'
_cell_length_a   17.64463177
_cell_length_b   8.79372587
_cell_length_c   22.16136616
_cell_angle_alpha   89.79792735
_cell_angle_beta   90.21433130
_cell_angle_gamma   119.80359073
_symmetry_Int_Tables_number   1
_chemical_formula_structural   Na10Ti4Ga4Si7S5O48
_chemical_formula_sum   'Na30 Ti12 Ga12 Si21 S15 O144'
_cell_volume   2983.76750003
_cell_formula_units_Z   3
loop_
 _symmetry_equiv_pos_site_id
 _symmetry_equiv_pos_as_xyz
  1  'x, y, z'
loop_
 _atom_site_type_symbol
 _atom_site_label
 _atom_site_symmetry_multiplicity
 _atom_site_fract_x
 _atom_site_fract_y
 _atom_site_fract_z
 _atom_site_occupancy
  Na  Na0  1  0.18509321  0.36978411  0.24506441  1
  Na  Na1  1  0.68506266  0.37024163  0.24549600  1
  Na  Na2  1  0.99545778  0.63089030  0.25184572  1
  Na  Na3  1  0.49574211  0.63074700  0.25175335  1
  Na  Na4  1  0.49562924  0.35892472  0.75437843  1
  Na  Na5  1  0.18471673  0.99979313  0.74750093  1
  Na  Na6  1  0.68580336  0.00070343  0.74675437  1
  Na  Na7  1  0.65368045  0.33760140  0.58187262  1
  Na  Na8  1  0.01879804  0.70404061  0.58033887  1
  Na  Na9  1  0.82959656  0.96350438  0.58712106  1
  Na  Na10  1  0.48647551  0.66836832  0.91520100  1
  Na  Na11  1  0.98752843  0.67074444  0.91450932  1
  Na  Na12  1  0.85274227  0.03586920  0.91168496  1
  Na  Na13  1  0.16154469  0.29704655  0.91961495  1
  Na  Na14  1  0.48713720  0.30652322  0.41448977  1
  Na  Na15  1  0.98531619  0.30377617  0.41431092  1
  Na  Na16  1  0.35355982  0.66984493  0.41156483  1
  Na  Na17  1  0.85297662  0.66917656  0.41287356  1
  Na  Na18  1  0.01261287  0.00639319  0.49833678  1
  Na  Na19  1  0.50772398  0.99362642  0.49791844  1
  Na  Na20  1  0.00640158  0.00941800  0.00098255  1
  Na  Na21  1  0.50647820  0.02052895  0.99720505  1
  Na  Na22  1  0.33726925  0.33014243  0.83205778  1
  Na  Na23  1  0.83917319  0.33935385  0.82821221  1
  Na  Na24  1  0.33386882  0.32943703  0.33008852  1
  Na  Na25  1  0.83327287  0.32853553  0.33142185  1
  Na  Na26  1  0.17228414  0.66744504  0.16158441  1
  Na  Na27  1  0.67209130  0.66766069  0.16184372  1
  Na  Na28  1  0.17230651  0.66907225  0.66711438  1
  Na  Na29  1  0.67083706  0.67709057  0.66534327  1
  Ti  Ti0  1  0.99784962  0.98163338  0.64773241  1
  Ti  Ti1  1  0.49539847  0.97852939  0.64855434  1
  Ti  Ti2  1  0.99952485  0.01664410  0.14599850  1
  Ti  Ti3  1  0.49897298  0.01553374  0.14585990  1
  Ti  Ti4  1  0.32812689  0.31325311  0.97830678  1
  Ti  Ti5  1  0.82217779  0.31770986  0.97920784  1
  Ti  Ti6  1  0.32484887  0.33144810  0.47849580  1
  Ti  Ti7  1  0.82576925  0.34279708  0.48016449  1
  Ti  Ti8  1  0.16243805  0.64336914  0.31206411  1
  Ti  Ti9  1  0.66218387  0.64406934  0.31253291  1
  Ti  Ti10  1  0.15972928  0.67740357  0.81209087  1
  Ti  Ti11  1  0.66355656  0.68274526  0.81309374  1
  Ga  Ga0  1  0.00196965  0.99758234  0.35099076  1
  Ga  Ga1  1  0.50320695  0.99801359  0.35064115  1
  Ga  Ga2  1  0.99977314  0.00189681  0.84921409  1
  Ga  Ga3  1  0.49813658  0.00460641  0.85327051  1
  Ga  Ga4  1  0.33342520  0.32188754  0.68710015  1
  Ga  Ga5  1  0.83463121  0.33131598  0.68599860  1
  Ga  Ga6  1  0.33581798  0.35026913  0.18423877  1
  Ga  Ga7  1  0.83561919  0.34999902  0.18461971  1
  Ga  Ga8  1  0.15919557  0.64564599  0.01685001  1
  Ga  Ga9  1  0.65648093  0.64324866  0.01703639  1
  Ga  Ga10  1  0.16311127  0.67429691  0.51521838  1
  Ga  Ga11  1  0.66219952  0.66890186  0.51886244  1
  Si  Si0  1  0.35614934  0.71827793  0.25030884  1
  Si  Si1  1  0.85599471  0.71824189  0.25017549  1
  Si  Si2  1  0.99222915  0.28045933  0.25140514  1
  Si  Si3  1  0.49234766  0.28073365  0.25135433  1
  Si  Si4  1  0.99254978  0.69872272  0.75233682  1
  Si  Si5  1  0.49283353  0.70320625  0.75269146  1
  Si  Si6  1  0.35474403  0.99293153  0.75104646  1
  Si  Si7  1  0.85622089  0.00173036  0.75080960  1
  Si  Si8  1  0.18997453  0.04032366  0.58525307  1
  Si  Si9  1  0.68608118  0.03889216  0.58499523  1
  Si  Si10  1  0.83018716  0.62086882  0.58502373  1
  Si  Si11  1  0.18925175  0.33975403  0.08392644  1
  Si  Si12  1  0.68732424  0.33953513  0.08548608  1
  Si  Si13  1  0.02039608  0.37211602  0.91639127  1
  Si  Si14  1  0.52135181  0.36804556  0.91607517  1
  Si  Si15  1  0.16512606  0.95017100  0.91930484  1
  Si  Si16  1  0.66206968  0.95196218  0.92029540  1
  Si  Si17  1  0.16234215  0.37192172  0.41962278  1
  Si  Si18  1  0.66209313  0.36794354  0.41907189  1
  Si  Si19  1  0.02208040  0.67272052  0.41650026  1
  Si  Si20  1  0.52368671  0.67369086  0.41740497  1
  S  S0  1  0.14594832  0.00031357  0.24945911  1
  S  S1  1  0.64603410  0.00036342  0.24924469  1
  S  S2  1  0.14541187  0.29385582  0.74933502  1
  S  S3  1  0.64529489  0.29059689  0.74987865  1
  S  S4  1  0.47743341  0.33235731  0.58338385  1
  S  S5  1  0.98064561  0.33430133  0.58272050  1
  S  S6  1  0.33134543  0.62064249  0.58341917  1
  S  S7  1  0.47977316  0.62693768  0.08328191  1
  S  S8  1  0.97965753  0.62613031  0.08299788  1
  S  S9  1  0.33140751  0.04223306  0.08448232  1
  S  S10  1  0.83143266  0.04267732  0.08390049  1
  S  S11  1  0.31069160  0.67005884  0.91754411  1
  S  S12  1  0.80907632  0.66341637  0.91777659  1
  S  S13  1  0.30918560  0.95549825  0.41720222  1
  S  S14  1  0.80983085  0.95663915  0.41692693  1
  O  O0  1  0.10931847  0.03775246  0.30392746  1
  O  O1  1  0.60954372  0.03796929  0.30377293  1
  O  O2  1  0.41669981  0.79320498  0.31036319  1
  O  O3  1  0.91692030  0.79273668  0.31004563  1
  O  O4  1  0.48301405  0.17302871  0.31221260  1
  O  O5  1  0.98353376  0.17359779  0.31227986  1
  O  O6  1  0.11016736  0.18550808  0.80524211  1
  O  O7  1  0.60631567  0.17805098  0.80303669  1
  O  O8  1  0.48358958  0.79420698  0.81226288  1
  O  O9  1  0.98556160  0.79457968  0.81236435  1
  O  O10  1  0.42181065  0.04606298  0.80619816  1
  O  O11  1  0.91285771  0.03251477  0.81162771  1
  O  O12  1  0.40614666  0.97341661  0.69083912  1
  O  O13  1  0.90494056  0.97625456  0.69051048  1
  O  O14  1  0.08997652  0.20820994  0.69632758  1
  O  O15  1  0.59022476  0.21279372  0.69431970  1
  O  O16  1  0.01739836  0.83175182  0.69230894  1
  O  O17  1  0.51780507  0.83653399  0.69335778  1
  O  O18  1  0.40787882  0.84093696  0.19185781  1
  O  O19  1  0.90818588  0.84149294  0.19174747  1
  O  O20  1  0.01908050  0.19915645  0.19355371  1
  O  O21  1  0.51877267  0.19844643  0.19351504  1
  O  O22  1  0.08926639  0.96728912  0.19607640  1
  O  O23  1  0.58920355  0.96729218  0.19601301  1
  O  O24  1  0.43872377  0.36053735  0.63832093  1
  O  O25  1  0.94089019  0.36739482  0.63579309  1
  O  O26  1  0.24765027  0.13229819  0.64457885  1
  O  O27  1  0.74760078  0.12365918  0.64395444  1
  O  O28  1  0.32053753  0.51438703  0.63698118  1
  O  O29  1  0.81311255  0.49111588  0.64016673  1
  O  O30  1  0.44147808  0.51942235  0.13905313  1
  O  O31  1  0.94109437  0.51918775  0.13871192  1
  O  O32  1  0.32085202  0.12647327  0.13828389  1
  O  O33  1  0.82133651  0.12842652  0.13741912  1
  O  O34  1  0.24515312  0.35930671  0.14487766  1
  O  O35  1  0.74492885  0.35961895  0.14533472  1
  O  O36  1  0.23839913  0.30883749  0.02465799  1
  O  O37  1  0.73879678  0.30829275  0.02726623  1
  O  O38  1  0.42568495  0.54140433  0.02947947  1
  O  O39  1  0.92563297  0.54067885  0.02893335  1
  O  O40  1  0.34715069  0.15350323  0.02925866  1
  O  O41  1  0.84705190  0.15145652  0.02782048  1
  O  O42  1  0.24096813  0.17062983  0.52634663  1
  O  O43  1  0.73790537  0.17509798  0.52706869  1
  O  O44  1  0.34678061  0.54362246  0.52739079  1
  O  O45  1  0.85248530  0.54052209  0.52349649  1
  O  O46  1  0.42477255  0.31010663  0.52879891  1
  O  O47  1  0.92631583  0.30395690  0.52746453  1
  O  O48  1  0.27257130  0.69695994  0.97220268  1
  O  O49  1  0.77175661  0.69760412  0.97159023  1
  O  O50  1  0.08438471  0.44969742  0.97358338  1
  O  O51  1  0.57952622  0.45452485  0.97463306  1
  O  O52  1  0.14867006  0.82469381  0.97633437  1
  O  O53  1  0.65195037  0.82907101  0.97684333  1
  O  O54  1  0.27187612  0.84691858  0.47176832  1
  O  O55  1  0.77377654  0.84993294  0.47231249  1
  O  O56  1  0.15087590  0.47278769  0.47606382  1
  O  O57  1  0.64805556  0.45914777  0.47778331  1
  O  O58  1  0.07708000  0.70239654  0.47788013  1
  O  O59  1  0.58284590  0.70179791  0.47526009  1
  O  O60  1  0.07063780  0.63901545  0.35785623  1
  O  O61  1  0.56764974  0.63532795  0.35682009  1
  O  O62  1  0.25595593  0.87828767  0.36322778  1
  O  O63  1  0.75570045  0.87466026  0.36341255  1
  O  O64  1  0.18588235  0.49821574  0.35811083  1
  O  O65  1  0.68420416  0.49785858  0.35863320  1
  O  O66  1  0.06971586  0.50551750  0.85880863  1
  O  O67  1  0.56728488  0.50166294  0.85654615  1
  O  O68  1  0.18323740  0.87119803  0.85681321  1
  O  O69  1  0.68618702  0.87405595  0.85850953  1
  O  O70  1  0.25551633  0.63452154  0.86373203  1
  O  O71  1  0.75650115  0.63467181  0.86315766  1
  O  O72  1  0.00506848  0.83707973  0.41048319  1
  O  O73  1  0.50435065  0.83515169  0.41076840  1
  O  O74  1  0.39758611  0.97607612  0.41318861  1
  O  O75  1  0.89834185  0.97532155  0.41235980  1
  O  O76  1  0.07640725  0.18405014  0.41073323  1
  O  O77  1  0.57523493  0.18086831  0.40991226  1
  O  O78  1  0.00824349  0.17588422  0.90949033  1
  O  O79  1  0.50853095  0.17567412  0.90959946  1
  O  O80  1  0.08071625  0.97832098  0.91093954  1
  O  O81  1  0.57622823  0.96722592  0.91065065  1
  O  O82  1  0.39958731  0.81989608  0.91272404  1
  O  O83  1  0.89857365  0.81926659  0.91332344  1
  O  O84  1  0.48738662  0.17436674  0.58811355  1
  O  O85  1  0.98766894  0.17445484  0.58873679  1
  O  O86  1  0.09244119  0.02229186  0.58983588  1
  O  O87  1  0.59171001  0.03578969  0.58967792  1
  O  O88  1  0.41253844  0.79700645  0.58750613  1
  O  O89  1  0.91915640  0.81729767  0.58865115  1
  O  O90  1  0.48648276  0.80054656  0.08900531  1
  O  O91  1  0.98632407  0.79992619  0.08847718  1
  O  O92  1  0.41268784  0.02844996  0.08827012  1
  O  O93  1  0.91292586  0.02867210  0.08792440  1
  O  O94  1  0.09198547  0.15791672  0.09095262  1
  O  O95  1  0.59139559  0.15716040  0.09122217  1
  O  O96  1  0.34236081  0.16657787  0.74472138  1
  O  O97  1  0.83737574  0.16436293  0.74406634  1
  O  O98  1  0.23298749  0.30869306  0.74353187  1
  O  O99  1  0.73183683  0.30619922  0.74445301  1
  O  O100  1  0.41177205  0.50845472  0.74009940  1
  O  O101  1  0.90977592  0.50967261  0.74262397  1
  O  O102  1  0.34216194  0.51846022  0.24496990  1
  O  O103  1  0.84224285  0.51854202  0.24479718  1
  O  O104  1  0.41142581  0.31525162  0.24008971  1
  O  O105  1  0.91154876  0.31528023  0.24000036  1
  O  O106  1  0.23347239  0.15617608  0.24342054  1
  O  O107  1  0.73350586  0.15631059  0.24323405  1
  O  O108  1  0.32048722  0.50743759  0.92308970  1
  O  O109  1  0.82238416  0.50817962  0.92389612  1
  O  O110  1  0.42624621  0.36711215  0.92566191  1
  O  O111  1  0.92497881  0.36156922  0.92467242  1
  O  O112  1  0.25173912  0.15055793  0.92350645  1
  O  O113  1  0.75387899  0.14497204  0.92497927  1
  O  O114  1  0.32202895  0.13653360  0.42343146  1
  O  O115  1  0.82245135  0.13588018  0.42256318  1
  O  O116  1  0.25422079  0.36340832  0.42416240  1
  O  O117  1  0.75392300  0.36103867  0.42161314  1
  O  O118  1  0.42589495  0.48987622  0.42510490  1
  O  O119  1  0.92661042  0.48693971  0.42163939  1
  O  O120  1  0.18040691  0.51508405  0.07740441  1
  O  O121  1  0.68056092  0.51590639  0.07739196  1
  O  O122  1  0.06736379  0.64460713  0.07944298  1
  O  O123  1  0.56775373  0.64614959  0.07998790  1
  O  O124  1  0.25477026  0.86898351  0.07738373  1
  O  O125  1  0.75508593  0.86878107  0.07759998  1
  O  O126  1  0.17640990  0.84225158  0.57771250  1
  O  O127  1  0.68034434  0.85064371  0.57689804  1
  O  O128  1  0.25455260  0.64211754  0.57666776  1
  O  O129  1  0.74517103  0.64394145  0.57594827  1
  O  O130  1  0.06812252  0.49249618  0.57831576  1
  O  O131  1  0.56640354  0.48692651  0.58027173  1
  O  O132  1  0.15244589  0.83972283  0.25612698  1
  O  O133  1  0.65253604  0.83995857  0.25605852  1
  O  O134  1  0.25763410  0.69469233  0.25677438  1
  O  O135  1  0.75742232  0.69426396  0.25668676  1
  O  O136  1  0.08323151  0.47932987  0.25587791  1
  O  O137  1  0.58335381  0.47938104  0.25571328  1
  O  O138  1  0.15472341  0.46799126  0.75547049  1
  O  O139  1  0.65192806  0.46420098  0.75530133  1
  O  O140  1  0.08609613  0.69418985  0.75494921  1
  O  O141  1  0.58385484  0.68760292  0.75517868  1
  O  O142  1  0.25757905  0.82000132  0.75551407  1
  O  O143  1  0.75776751  0.82202413  0.75702311  1
loop_
_geom_bond_atom_site_label_1
_geom_bond_atom_site_label_2
_geom_bond_distance
_geom_bond_site_symmetry_2
Na0 O102 2.405882 1_555
Na0 O106 2.419318 1_555
Na0 O136 2.437555 1_555
Na0 O34 2.485408 1_555
Na0 O134 2.497280 1_555
Na0 O64 2.748841 1_555
Na0 O20 2.784404 1_555
Na0 O0 2.849574 1_555
Na1 O103 2.407798 1_555
Na1 O107 2.423157 1_555
Na1 O137 2.430992 1_555
Na1 O35 2.483695 1_555
Na1 O135 2.489333 1_555
Na1 O65 2.753740 1_555
Na1 O21 2.792685 1_555
Na1 O1 2.845529 1_555
Na2 O103 2.377369 1_555
Na2 O105 2.425133 1_555
Na2 O132 2.448865 1_655
Na2 O136 2.496568 1_655
Na2 O60 2.677276 1_655
Na2 O31 2.689570 1_555
Na2 O3 2.756149 1_555
Na2 O22 2.853130 1_655
Na3 O102 2.383085 1_555
Na3 O104 2.424154 1_555
Na3 O133 2.446919 1_555
Na3 O137 2.492546 1_555
Na3 O61 2.638321 1_555
Na3 O30 2.679677 1_555
Na3 O2 2.771346 1_555
Na3 O23 2.853415 1_555
Na4 O96 2.381492 1_555
Na4 O139 2.434109 1_555
Na4 O100 2.438456 1_555
Na4 O141 2.510987 1_555
Na4 O67 2.592612 1_555
Na4 O10 2.647880 1_555
Na4 O24 2.760089 1_555
Na4 O15 2.893015 1_555
Na5 O140 2.372292 1_555
Na5 O98 2.410585 1_565
Na5 O96 2.416050 1_565
Na5 O142 2.490166 1_555
Na5 O26 2.550935 1_565
Na5 O68 2.664548 1_555
Na5 O16 2.836307 1_555
Na5 O6 2.863142 1_565
Na6 O97 2.324193 1_555
Na6 O99 2.389476 1_555
Na6 O141 2.434542 1_545
Na6 O143 2.472163 1_545
Na6 O27 2.525354 1_555
Na6 O69 2.713314 1_545
Na6 O17 2.828989 1_545
Na6 O7 2.855895 1_555
Na7 O87 2.320105 1_555
Na7 O129 2.357196 1_555
Na7 O131 2.471128 1_555
Na7 O84 2.550278 1_555
Na7 O57 2.561206 1_555
Na7 O15 2.729137 1_555
Na7 O29 2.759541 1_555
Na7 O43 2.804015 1_555
Na8 O130 2.414602 1_555
Na8 O126 2.419780 1_555
Na8 O89 2.421000 1_455
Na8 O86 2.439709 1_565
Na8 O58 2.499192 1_555
Na8 O16 2.732572 1_555
Na8 O45 2.838398 1_455
Na8 O25 2.847006 1_455
Na9 O127 2.317464 1_555
Na9 O129 2.453200 1_555
Na9 O85 2.465405 1_565
Na9 O89 2.484012 1_555
Na9 O13 2.619275 1_555
Na9 O55 2.731741 1_555
Na9 O27 2.777524 1_565
Na9 O47 2.921213 1_565
Na10 O81 2.299347 1_555
Na10 O110 2.323814 1_555
Na10 O82 2.481643 1_555
Na10 O8 2.543339 1_555
Na10 O108 2.548160 1_555
Na10 O38 2.760596 1_556
Na10 O67 2.824339 1_555
Na10 O53 2.875817 1_555
Na11 O80 2.367295 1_655
Na11 O111 2.382313 1_555
Na11 O83 2.491442 1_555
Na11 O9 2.516122 1_555
Na11 O109 2.537592 1_555
Na11 O39 2.773035 1_556
Na11 O66 2.803281 1_655
Na11 O52 2.819906 1_655
Na12 O78 2.385156 1_655
Na12 O113 2.391600 1_555
Na12 O83 2.411180 1_545
Na12 O11 2.468205 1_555
Na12 O111 2.506946 1_555
Na12 O41 2.790899 1_556
Na12 O69 2.806971 1_545
Na12 O49 2.900640 1_545
Na13 O78 2.373716 1_555
Na13 O80 2.440244 1_545
Na13 O108 2.477013 1_555
Na13 O112 2.497124 1_555
Na13 O50 2.631769 1_555
Na13 O36 2.665913 1_556
Na13 O6 2.706438 1_555
Na13 O70 2.861478 1_555
Na14 O77 2.314514 1_555
Na14 O118 2.357807 1_555
Na14 O74 2.525384 1_545
Na14 O114 2.536575 1_555
Na14 O4 2.540372 1_555
Na14 O46 2.772202 1_555
Na14 O61 2.813569 1_555
Na14 O57 2.833027 1_555
Na15 O119 2.314147 1_555
Na15 O76 2.319858 1_655
Na15 O115 2.501165 1_555
Na15 O75 2.508717 1_545
Na15 O5 2.531042 1_555
Na15 O47 2.719048 1_555
Na15 O60 2.845833 1_655
Na15 O56 2.878194 1_655
Na16 O73 2.312568 1_555
Na16 O116 2.390583 1_555
Na16 O74 2.403646 1_555
Na16 O118 2.495065 1_555
Na16 O2 2.499625 1_555
Na16 O44 2.772243 1_555
Na16 O64 2.825270 1_555
Na16 O54 2.922670 1_555
Na17 O72 2.333733 1_655
Na17 O117 2.392834 1_555
Na17 O75 2.397138 1_555
Na17 O119 2.521811 1_555
Na17 O3 2.535681 1_555
Na17 O45 2.694625 1_555
Na17 O65 2.847614 1_555
Na17 O55 2.907100 1_555
Na18 O76 2.392422 1_555
Na18 O72 2.417986 1_545
Na18 O86 2.429025 1_555
Na18 O89 2.601100 1_445
Na18 O85 2.658101 1_455
Na18 O75 2.682856 1_445
Na19 O73 2.368851 1_555
Na19 O87 2.430079 1_565
Na19 O77 2.445185 1_565
Na19 O88 2.620327 1_555
Na19 O74 2.646293 1_555
Na19 O84 2.691657 1_565
Na20 O94 2.448820 1_555
Na20 O80 2.481121 1_544
Na20 O78 2.487435 1_554
Na20 O91 2.571026 1_445
Na20 O93 2.600971 1_455
Na20 O83 2.650006 1_444
Na21 O79 2.358946 1_555
Na21 O81 2.451768 1_545
Na21 O95 2.496905 1_556
Na21 O82 2.619970 1_545
Na21 O92 2.637600 1_556
Na21 O90 2.702713 1_546
Na22 O96 2.443854 1_555
Na22 O100 2.507671 1_555
Na22 O110 2.519251 1_555
Na22 O112 2.551445 1_555
Na22 O98 2.626919 1_555
Na22 O108 2.659676 1_555
Na23 O101 2.352809 1_555
Na23 O97 2.411990 1_555
Na23 O99 2.558529 1_555
Na23 O111 2.566091 1_555
Na23 O113 2.688254 1_555
Na23 O109 2.693021 1_555
Na24 O104 2.461329 1_555
Na24 O102 2.465936 1_555
Na24 O106 2.541787 1_555
Na24 O118 2.603684 1_555
Na24 O114 2.612767 1_555
Na24 O116 2.618080 1_555
Na25 O105 2.491701 1_555
Na25 O103 2.493780 1_555
Na25 O119 2.522813 1_555
Na25 O117 2.541612 1_555
Na25 O107 2.560666 1_555
Na25 O115 2.577494 1_555
Na26 O120 2.346579 1_555
Na26 O124 2.484775 1_555
Na26 O122 2.527665 1_555
Na26 O134 2.529153 1_555
Na26 O136 2.643585 1_555
Na26 O132 2.713392 1_555
Na27 O121 2.350298 1_555
Na27 O125 2.486074 1_555
Na27 O123 2.519334 1_555
Na27 O135 2.523707 1_555
Na27 O137 2.635050 1_555
Na27 O133 2.705835 1_555
Na28 O142 2.423732 1_555
Na28 O126 2.473873 1_555
Na28 O138 2.547916 1_555
Na28 O140 2.551642 1_555
Na28 O128 2.558696 1_555
Na28 O130 2.611518 1_555
Na29 O127 2.434355 1_555
Na29 O129 2.476621 1_555
Na29 O143 2.481280 1_555
Na29 O141 2.548105 1_555
Na29 O131 2.584456 1_555
Na29 O139 2.635947 1_555
Ga0 O3 1.906418 1_455
Ga0 O5 1.930446 1_465
Ga0 O72 1.948435 1_555
Ga0 O76 2.007033 1_565
Ga0 O0 2.036517 1_565
Ga0 O75 2.211836 1_455
Ga1 O2 1.907549 1_555
Ga1 O4 1.937634 1_565
Ga1 O73 1.960134 1_555
Ga1 O77 1.974111 1_565
Ga1 O1 2.019741 1_565
Ga1 O74 2.256503 1_555
Ga2 O11 1.875512 1_555
Ga2 O9 1.899466 1_545
Ga2 O78 1.983234 1_655
Ga2 O6 2.056095 1_655
Ga2 O80 2.057108 1_645
Ga2 O83 2.222262 1_545
Ga3 O10 1.873423 1_555
Ga3 O79 1.895314 1_555
Ga3 O8 1.962914 1_545
Ga3 O81 2.014414 1_545
Ga3 O7 2.078216 1_555
Ga3 O82 2.142984 1_545
Ga4 O26 1.857491 1_555
Ga4 O96 1.928994 1_555
Ga4 O100 1.931096 1_555
Ga4 O24 2.029979 1_555
Ga4 O28 2.125653 1_555
Ga4 O98 2.128209 1_555
Ga5 O29 1.915182 1_555
Ga5 O101 1.930529 1_555
Ga5 O27 1.942848 1_555
Ga5 O97 1.967402 1_555
Ga5 O25 2.067764 1_555
Ga5 O99 2.152676 1_555
Ga6 O34 1.855226 1_555
Ga6 O104 1.949328 1_555
Ga6 O102 1.964636 1_555
Ga6 O30 1.984409 1_555
Ga6 O32 2.115530 1_555
Ga6 O106 2.198283 1_555
Ga7 O35 1.857248 1_555
Ga7 O105 1.945788 1_555
Ga7 O103 1.956900 1_555
Ga7 O31 1.990788 1_555
Ga7 O33 2.116229 1_555
Ga7 O107 2.187693 1_555
Ga8 O50 1.836334 1_554
Ga8 O52 1.897151 1_554
Ga8 O120 1.916161 1_555
Ga8 O48 2.073365 1_554
Ga8 O122 2.133486 1_555
Ga8 O124 2.282552 1_555
Ga9 O51 1.800670 1_554
Ga9 O53 1.894475 1_554
Ga9 O121 1.918782 1_555
Ga9 O49 2.103675 1_554
Ga9 O123 2.110497 1_555
Ga9 O125 2.309347 1_555
Ga10 O58 1.847182 1_555
Ga10 O56 1.889113 1_555
Ga10 O126 1.955000 1_555
Ga10 O54 2.005524 1_555
Ga10 O130 2.158351 1_555
Ga10 O128 2.229909 1_555
Ga11 O59 1.835319 1_555
Ga11 O127 1.952862 1_555
Ga11 O57 1.961087 1_555
Ga11 O129 2.023752 1_555
Ga11 O55 2.088669 1_555
Ga11 O131 2.140790 1_555
O0 S0 1.484370 1_555
O1 S1 1.484752 1_555
O2 Si0 1.625617 1_555
O3 Si1 1.624997 1_555
O4 Si3 1.606477 1_555
O5 Si2 1.604950 1_555
O6 S2 1.496006 1_555
O7 S3 1.470219 1_555
O8 Si5 1.596458 1_555
O9 Si4 1.614895 1_555
O10 Si6 1.598785 1_545
O11 Si7 1.616208 1_555
O12 Si6 1.672647 1_555
O12 Ti1 1.816744 1_555
O13 Si7 1.666446 1_565
O13 Ti0 1.876877 1_555
O14 S2 1.472849 1_555
O14 Ti0 2.134132 1_445
O15 S3 1.504800 1_555
O15 Ti1 2.155850 1_545
O16 Si4 1.677482 1_455
O16 Ti0 1.808932 1_455
O17 Si5 1.666646 1_555
O17 Ti1 1.783366 1_555
O18 Si0 1.641590 1_555
O18 Ti3 1.878299 1_565
O19 Si1 1.645061 1_555
O19 Ti2 1.879169 1_565
O20 Si2 1.651380 1_455
O20 Ti2 1.806753 1_455
O21 Si3 1.652397 1_555
O21 Ti3 1.809765 1_555
O22 S0 1.479534 1_565
O22 Ti2 2.143352 1_465
O23 S1 1.478322 1_565
O23 Ti3 2.145895 1_565
O24 S4 1.478777 1_555
O25 S5 1.473641 1_555
O26 Si8 1.611719 1_555
O27 Si9 1.622686 1_555
O28 S6 1.461220 1_555
O29 Si10 1.592881 1_555
O30 S7 1.497009 1_555
O31 S8 1.494614 1_555
O32 S9 1.466325 1_555
O33 S10 1.465762 1_555
O34 Si11 1.627916 1_555
O35 Si12 1.623747 1_555
O36 Si11 1.672284 1_555
O36 Ti4 1.874567 1_554
O37 Si12 1.680576 1_555
O37 Ti5 1.787643 1_554
O38 S7 1.477317 1_555
O38 Ti4 2.200643 1_554
O39 S8 1.481432 1_555
O39 Ti5 2.198479 1_554
O40 S9 1.502084 1_555
O40 Ti4 1.953421 1_554
O41 S10 1.505882 1_555
O41 Ti5 2.028264 1_554
O42 Si8 1.673364 1_555
O42 Ti6 1.798761 1_555
O43 Si9 1.681649 1_555
O43 Ti7 1.840461 1_555
O44 S6 1.505476 1_555
O44 Ti6 2.024477 1_555
O45 Si10 1.673426 1_555
O45 Ti7 1.833365 1_555
O46 S4 1.475640 1_555
O46 Ti6 2.167784 1_555
O47 S5 1.492961 1_555
O47 Ti7 2.224593 1_555
O48 S11 1.463534 1_555
O49 S12 1.466781 1_555
O50 Si13 1.605099 1_555
O51 Si14 1.592819 1_555
O52 Si15 1.604237 1_555
O53 Si16 1.603279 1_555
O54 S13 1.476598 1_555
O55 S14 1.481918 1_555
O56 Si17 1.606335 1_555
O57 Si18 1.613928 1_555
O58 Si19 1.612782 1_555
O59 Si20 1.590709 1_555
O60 Si19 1.665665 1_555
O60 Ti8 1.898786 1_555
O61 Si20 1.670134 1_555
O61 Ti9 1.906759 1_555
O62 S13 1.461955 1_555
O62 Ti8 2.211336 1_555
O63 S14 1.466807 1_555
O63 Ti9 2.186793 1_555
O64 Si17 1.673090 1_555
O64 Ti8 1.831471 1_555
O65 Si18 1.673747 1_555
O65 Ti9 1.825431 1_555
O66 Si13 1.656763 1_555
O66 Ti10 1.869225 1_555
O67 Si14 1.681757 1_555
O67 Ti11 1.913388 1_555
O68 Si15 1.653197 1_555
O68 Ti10 1.834318 1_555
O69 Si16 1.681094 1_555
O69 Ti11 1.828619 1_555
O70 S11 1.469401 1_555
O70 Ti10 2.219122 1_555
O71 S12 1.466379 1_555
O71 Ti11 2.184360 1_555
O72 Si19 1.620638 1_555
O73 Si20 1.622861 1_555
O74 S13 1.481203 1_555
O75 S14 1.490736 1_555
O76 Si17 1.605382 1_555
O77 Si18 1.609381 1_555
O78 Si13 1.637342 1_555
O79 Si14 1.598295 1_555
O80 Si15 1.636461 1_555
O81 Si16 1.599159 1_555
O82 S11 1.467531 1_555
O83 S12 1.493511 1_555
O84 S4 1.487762 1_555
O84 Ti1 2.237006 1_545
O85 S5 1.476715 1_555
O85 Ti0 2.214077 1_545
O86 Si8 1.651370 1_555
O86 Ti0 1.994832 1_445
O87 Si9 1.655395 1_555
O87 Ti1 2.001311 1_545
O88 S6 1.502419 1_555
O88 Ti1 2.048532 1_555
O89 Si10 1.661040 1_555
O89 Ti0 1.932814 1_555
O90 S7 1.477298 1_555
O90 Ti3 2.193353 1_565
O91 S8 1.478790 1_555
O91 Ti2 2.210162 1_565
O92 S9 1.500126 1_555
O92 Ti3 2.028796 1_555
O93 S10 1.505234 1_555
O93 Ti2 2.036505 1_555
O94 Si11 1.672970 1_555
O94 Ti2 1.918996 1_455
O95 Si12 1.659794 1_555
O95 Ti3 1.913592 1_555
O96 Si6 1.651980 1_545
O97 Si7 1.627593 1_555
O98 S2 1.490732 1_555
O99 S3 1.469016 1_555
O100 Si5 1.619267 1_555
O101 Si4 1.590520 1_555
O102 Si0 1.653063 1_555
O103 Si1 1.653684 1_555
O104 Si3 1.618890 1_555
O105 Si2 1.616876 1_555
O106 S0 1.475668 1_555
O107 S1 1.475376 1_555
O108 S11 1.527846 1_555
O108 Ti4 2.155072 1_555
O109 S12 1.501382 1_555
O109 Ti5 2.070620 1_555
O110 Si14 1.688253 1_555
O110 Ti4 1.943942 1_555
O111 Si13 1.650386 1_655
O111 Ti5 2.053602 1_555
O112 Si15 1.665078 1_545
O112 Ti4 1.849748 1_555
O113 Si16 1.668103 1_545
O113 Ti5 1.840189 1_555
O114 S13 1.499163 1_545
O114 Ti6 2.087825 1_555
O115 S14 1.483866 1_545
O115 Ti7 2.203114 1_555
O116 Si17 1.662310 1_555
O116 Ti6 1.848359 1_555
O117 Si18 1.652070 1_555
O117 Ti7 1.872131 1_555
O118 Si20 1.687298 1_555
O118 Ti6 2.013638 1_555
O119 Si19 1.668551 1_655
O119 Ti7 2.053905 1_555
O120 Si11 1.630907 1_555
O121 Si12 1.622886 1_555
O122 S8 1.475931 1_455
O123 S7 1.477776 1_555
O124 S9 1.458276 1_565
O125 S10 1.457734 1_565
O126 Si8 1.645112 1_565
O127 Si9 1.618086 1_565
O128 S6 1.465151 1_555
O129 Si10 1.622300 1_555
O130 S5 1.480835 1_455
O131 S4 1.481802 1_555
O132 S0 1.479394 1_565
O132 Ti8 2.198888 1_555
O133 S1 1.478129 1_565
O133 Ti9 2.199407 1_555
O134 Si0 1.651782 1_555
O134 Ti8 1.945340 1_555
O135 Si1 1.651503 1_555
O135 Ti9 1.955716 1_555
O136 Si2 1.689705 1_455
O136 Ti8 1.892115 1_555
O137 Si3 1.688484 1_555
O137 Ti9 1.901309 1_555
O138 S2 1.463409 1_555
O138 Ti10 2.197099 1_555
O139 S3 1.477262 1_555
O139 Ti11 2.235900 1_555
O140 Si4 1.671545 1_455
O140 Ti10 1.868265 1_555
O141 Si5 1.679155 1_555
O141 Ti11 1.916420 1_555
O142 Si6 1.634072 1_555
O142 Ti10 1.994579 1_555
O143 Si7 1.674926 1_565
O143 Ti11 1.946353 1_555
