# generated using pymatgen
data_NaFeO2
_symmetry_space_group_name_H-M   'P 1'
_cell_length_a   5.43553800
_cell_length_b   5.79354900
_cell_length_c   7.26280400
_cell_angle_alpha   90.00000000
_cell_angle_beta   90.00000000
_cell_angle_gamma   90.00000000
_symmetry_Int_Tables_number   1
_chemical_formula_structural   NaFeO2
_chemical_formula_sum   'Na4 Fe4 O8'
_cell_volume   228.71336562
_cell_formula_units_Z   4
loop_
 _symmetry_equiv_pos_site_id
 _symmetry_equiv_pos_as_xyz
  1  'x, y, z'
loop_
 _atom_site_type_symbol
 _atom_site_label
 _atom_site_symmetry_multiplicity
 _atom_site_fract_x
 _atom_site_fract_y
 _atom_site_fract_z
 _atom_site_occupancy
  Na  Na0  1  0.02027800  0.92678900  0.62199100  1
  Na  Na1  1  0.02027800  0.42678900  0.87800900  1
  Na  Na2  1  0.52027800  0.57321100  0.12199100  1
  Na  Na3  1  0.52027800  0.07321100  0.37800900  1
  Fe  Fe0  1  0.50721500  0.56693500  0.62661600  1
  Fe  Fe1  1  0.50721500  0.06693500  0.87338400  1
  Fe  Fe2  1  0.00721500  0.43306500  0.37338400  1
  Fe  Fe3  1  0.00721500  0.93306500  0.12661600  1
  O  O0  1  0.08875100  0.61301800  0.16056500  1
  O  O1  1  0.15835400  0.54718300  0.59177700  1
  O  O2  1  0.65835400  0.95281700  0.09177700  1
  O  O3  1  0.58875100  0.88698200  0.66056500  1
  O  O4  1  0.65835400  0.45281700  0.40822300  1
  O  O5  1  0.58875100  0.38698200  0.83943500  1
  O  O6  1  0.08875100  0.11301800  0.33943500  1
  O  O7  1  0.15835400  0.04718300  0.90822300  1
loop_
_geom_bond_atom_site_label_1
_geom_bond_atom_site_label_2
_geom_bond_distance
_geom_bond_site_symmetry_2
Na0 O7 2.317628 1_565
Na0 O1 2.334138 1_555
Na0 O6 2.348174 1_565
Na0 O3 2.373484 1_455
Na1 O1 2.317628 1_555
Na1 O7 2.334138 1_555
Na1 O0 2.348174 1_556
Na1 O5 2.373484 1_455
Na2 O4 2.317628 1_555
Na2 O2 2.334138 1_555
Na2 O5 2.348174 1_554
Na2 O0 2.373484 1_555
Na3 O2 2.317628 1_545
Na3 O4 2.334138 1_555
Na3 O3 2.348174 1_545
Na3 O6 2.373484 1_555
Fe0 O4 1.904698 1_555
Fe0 O5 1.916360 1_555
Fe0 O1 1.916474 1_555
Fe0 O3 1.922316 1_555
Fe1 O2 1.904698 1_546
Fe1 O3 1.916360 1_545
Fe1 O7 1.916474 1_555
Fe1 O5 1.922316 1_555
Fe2 O1 1.904698 1_555
Fe2 O0 1.916360 1_555
Fe2 O4 1.916474 1_455
Fe2 O6 1.922316 1_555
Fe3 O7 1.904698 1_564
Fe3 O6 1.916360 1_565
Fe3 O2 1.916474 1_455
Fe3 O0 1.922316 1_555
