# generated using pymatgen
data_Ba2Mg(CoO3)2
_symmetry_space_group_name_H-M   'P 1'
_cell_length_a   5.69954515
_cell_length_b   6.34629942
_cell_length_c   5.31152167
_cell_angle_alpha   106.82706520
_cell_angle_beta   90.24396010
_cell_angle_gamma   116.80688084
_symmetry_Int_Tables_number   1
_chemical_formula_structural   Ba2Mg(CoO3)2
_chemical_formula_sum   'Ba2 Mg1 Co2 O6'
_cell_volume   162.07748038
_cell_formula_units_Z   1
loop_
 _symmetry_equiv_pos_site_id
 _symmetry_equiv_pos_as_xyz
  1  'x, y, z'
loop_
 _atom_site_type_symbol
 _atom_site_label
 _atom_site_symmetry_multiplicity
 _atom_site_fract_x
 _atom_site_fract_y
 _atom_site_fract_z
 _atom_site_occupancy
  Ba  Ba0  1  0.70691595  0.41207306  0.93591043  1
  Ba  Ba1  1  0.29308415  0.58793096  0.56408703  1
  Mg  Mg0  1  0.50000057  0.00000307  0.25000140  1
  Co  Co0  1  0.00000250  0.00000463  0.24999769  1
  Co  Co1  1  -0.00000002  -0.00000033  0.74999673  1
  O  O0  1  0.68142827  0.85147736  0.98649627  1
  O  O1  1  0.82721090  0.14846380  0.51814452  1
  O  O2  1  0.17278878  0.85153416  0.98185494  1
  O  O3  1  0.14579467  0.29049877  0.04608068  1
  O  O4  1  0.85420430  0.70949784  0.45392356  1
  O  O5  1  0.31856795  0.14852069  0.51350275  1
loop_
_geom_bond_atom_site_label_1
_geom_bond_atom_site_label_2
_geom_bond_distance
_geom_bond_site_symmetry_2
Ba0 O1 2.662881 1_555
Ba0 O5 2.678885 1_555
Ba0 O4 2.717025 1_556
Ba0 O0 2.793108 1_555
Ba0 O2 2.794498 1_655
Ba0 O3 3.030586 1_656
Ba0 O3 3.036033 1_556
Ba1 O2 2.662870 1_555
Ba1 O0 2.678878 1_555
Ba1 O3 2.717008 1_555
Ba1 O5 2.793136 1_555
Ba1 O1 2.794522 1_455
Ba1 O4 3.030550 1_455
Ba1 O4 3.036025 1_555
Mg0 O1 2.002454 1_555
Mg0 O2 2.002463 1_544
Mg0 O5 2.011032 1_555
Mg0 O0 2.011049 1_544
Co0 O5 1.953202 1_555
Co0 O0 1.953216 1_444
Co0 O1 1.989487 1_455
Co0 O2 1.989488 1_544
Co0 O3 2.245959 1_555
Co0 O4 2.246056 1_445
Co1 O4 1.868414 1_445
Co1 O3 1.868436 1_556
Co1 O1 2.207386 1_455
Co1 O2 2.207413 1_545
Co1 O5 2.219085 1_555
Co1 O0 2.219121 1_445
