# generated using pymatgen
data_Na3Ca5Ta(SO4)9
_symmetry_space_group_name_H-M   'P 1'
_cell_length_a   9.11768022
_cell_length_b   9.11767990
_cell_length_c   24.13423966
_cell_angle_alpha   90.00000000
_cell_angle_beta   90.00000000
_cell_angle_gamma   120.00000114
_symmetry_Int_Tables_number   1
_chemical_formula_structural   Na3Ca5Ta(SO4)9
_chemical_formula_sum   'Na6 Ca10 Ta2 S18 O72'
_cell_volume   1737.53253498
_cell_formula_units_Z   2
loop_
 _symmetry_equiv_pos_site_id
 _symmetry_equiv_pos_as_xyz
  1  'x, y, z'
loop_
 _atom_site_type_symbol
 _atom_site_label
 _atom_site_symmetry_multiplicity
 _atom_site_fract_x
 _atom_site_fract_y
 _atom_site_fract_z
 _atom_site_occupancy
  Na  Na0  1  -0.00000000  0.00000000  0.50967276  1
  Na  Na1  1  -0.00000000  0.00000000  0.00967276  1
  Na  Na2  1  0.66666700  0.33333300  0.83289637  1
  Na  Na3  1  0.66666700  0.33333300  0.33289637  1
  Na  Na4  1  0.33333300  0.66666700  0.15550718  1
  Na  Na5  1  0.33333300  0.66666700  0.65550718  1
  Ca  Ca0  1  -0.00000000  0.00000000  0.35026694  1
  Ca  Ca1  1  -0.00000000  0.00000000  0.85026694  1
  Ca  Ca2  1  -0.00000000  0.00000000  0.65092175  1
  Ca  Ca3  1  -0.00000000  0.00000000  0.15092175  1
  Ca  Ca4  1  0.66666700  0.33333300  0.68151084  1
  Ca  Ca5  1  0.66666700  0.33333300  0.18151084  1
  Ca  Ca6  1  0.66666700  0.33333300  0.98316345  1
  Ca  Ca7  1  0.66666700  0.33333300  0.48316345  1
  Ca  Ca8  1  0.33333300  0.66666700  0.02037149  1
  Ca  Ca9  1  0.33333300  0.66666700  0.52037149  1
  Ta  Ta0  1  0.33333300  0.66666700  0.31660160  1
  Ta  Ta1  1  0.33333300  0.66666700  0.81660160  1
  S  S0  1  0.30185000  0.99198129  0.25440551  1
  S  S1  1  0.69013129  0.69815000  0.25440551  1
  S  S2  1  0.00801871  0.30986871  0.25440551  1
  S  S3  1  0.30185000  0.30986871  0.75440551  1
  S  S4  1  0.00801871  0.69815000  0.75440551  1
  S  S5  1  0.69013129  0.99198129  0.75440551  1
  S  S6  1  0.96547550  0.33107375  0.58337411  1
  S  S7  1  0.36559925  0.03452450  0.58337411  1
  S  S8  1  0.66892625  0.63440075  0.58337411  1
  S  S9  1  0.96547550  0.63440075  0.08337411  1
  S  S10  1  0.66892625  0.03452450  0.08337411  1
  S  S11  1  0.36559925  0.33107375  0.08337411  1
  S  S12  1  0.61927762  0.66475693  0.91346367  1
  S  S13  1  0.04547831  0.38072238  0.91346367  1
  S  S14  1  0.33524307  0.95452169  0.91346367  1
  S  S15  1  0.61927762  0.95452169  0.41346367  1
  S  S16  1  0.33524307  0.38072238  0.41346367  1
  S  S17  1  0.04547831  0.66475693  0.41346367  1
  O  O0  1  0.21916828  0.01386302  0.30277336  1
  O  O1  1  0.79469474  0.78083172  0.30277336  1
  O  O2  1  0.98613698  0.20530526  0.30277336  1
  O  O3  1  0.21916828  0.20530526  0.80277336  1
  O  O4  1  0.98613698  0.78083172  0.80277336  1
  O  O5  1  0.79469474  0.01386302  0.80277336  1
  O  O6  1  0.75185303  0.95272974  0.70361462  1
  O  O7  1  0.20087671  0.24814697  0.70361462  1
  O  O8  1  0.04727026  0.79912329  0.70361462  1
  O  O9  1  0.75185303  0.79912329  0.20361462  1
  O  O10  1  0.04727026  0.24814697  0.20361462  1
  O  O11  1  0.20087671  0.95272974  0.20361462  1
  O  O12  1  0.88150944  0.34470650  0.63395115  1
  O  O13  1  0.46319806  0.11849056  0.63395115  1
  O  O14  1  0.65529350  0.53680194  0.63395115  1
  O  O15  1  0.88150944  0.53680194  0.13395115  1
  O  O16  1  0.65529350  0.11849056  0.13395115  1
  O  O17  1  0.46319806  0.34470650  0.13395115  1
  O  O18  1  0.44978009  0.31801638  0.03260724  1
  O  O19  1  0.86823729  0.55021991  0.03260724  1
  O  O20  1  0.68198362  0.13176271  0.03260724  1
  O  O21  1  0.44978009  0.13176271  0.53260724  1
  O  O22  1  0.68198362  0.55021991  0.53260724  1
  O  O23  1  0.86823729  0.31801638  0.53260724  1
  O  O24  1  0.53896433  0.67974968  0.96358494  1
  O  O25  1  0.14078435  0.46103567  0.96358494  1
  O  O26  1  0.32025032  0.85921565  0.96358494  1
  O  O27  1  0.53896433  0.85921565  0.46358494  1
  O  O28  1  0.32025032  0.46103567  0.46358494  1
  O  O29  1  0.14078435  0.67974968  0.46358494  1
  O  O30  1  0.15078286  0.65812646  0.36302804  1
  O  O31  1  0.50734260  0.84921714  0.36302804  1
  O  O32  1  0.34187354  0.49265740  0.36302804  1
  O  O33  1  0.15078286  0.49265740  0.86302804  1
  O  O34  1  0.34187354  0.84921714  0.86302804  1
  O  O35  1  0.50734260  0.65812646  0.86302804  1
  O  O36  1  0.02940891  0.81510901  0.40629184  1
  O  O37  1  0.78570010  0.97059109  0.40629184  1
  O  O38  1  0.18489099  0.21429990  0.40629184  1
  O  O39  1  0.02940891  0.21429990  0.90629184  1
  O  O40  1  0.18489099  0.97059109  0.90629184  1
  O  O41  1  0.78570010  0.81510901  0.90629184  1
  O  O42  1  0.98299819  0.17702659  0.58633745  1
  O  O43  1  0.19402840  0.01700181  0.58633745  1
  O  O44  1  0.82297341  0.80597160  0.58633745  1
  O  O45  1  0.98299819  0.80597160  0.08633745  1
  O  O46  1  0.82297341  0.01700181  0.08633745  1
  O  O47  1  0.19402840  0.17702659  0.08633745  1
  O  O48  1  0.65908997  0.13473826  0.74897334  1
  O  O49  1  0.47564929  0.34091003  0.74897334  1
  O  O50  1  0.86526174  0.52435071  0.74897334  1
  O  O51  1  0.65908997  0.52435071  0.24897334  1
  O  O52  1  0.86526174  0.34091003  0.24897334  1
  O  O53  1  0.47564929  0.13473826  0.24897334  1
  O  O54  1  0.62444429  0.50637957  0.91037473  1
  O  O55  1  0.88193628  0.37555571  0.91037473  1
  O  O56  1  0.49362043  0.11806372  0.91037473  1
  O  O57  1  0.62444429  0.11806372  0.41037473  1
  O  O58  1  0.49362043  0.37555571  0.41037473  1
  O  O59  1  0.88193628  0.50637957  0.41037473  1
  O  O60  1  0.34772233  0.48467670  0.08108236  1
  O  O61  1  0.13695337  0.65227767  0.08108236  1
  O  O62  1  0.51532330  0.86304663  0.08108236  1
  O  O63  1  0.34772233  0.86304663  0.58108236  1
  O  O64  1  0.51532330  0.65227767  0.58108236  1
  O  O65  1  0.13695337  0.48467670  0.58108236  1
  O  O66  1  0.31948646  0.83218778  0.26583351  1
  O  O67  1  0.51270032  0.68051354  0.26583351  1
  O  O68  1  0.16781222  0.48729968  0.26583351  1
  O  O69  1  0.31948646  0.48729968  0.76583351  1
  O  O70  1  0.16781222  0.68051354  0.76583351  1
  O  O71  1  0.51270032  0.83218778  0.76583351  1
loop_
_geom_bond_atom_site_label_1
_geom_bond_atom_site_label_2
_geom_bond_distance
_geom_bond_site_symmetry_2
Na0 O44 2.510552 1_445
Na0 O42 2.510552 1_455
Na0 O43 2.510552 1_555
Na1 O45 2.510552 1_445
Na1 O47 2.510552 1_555
Na1 O46 2.510552 1_455
Na2 O56 2.596433 1_555
Na2 O54 2.596433 1_555
Na2 O55 2.596433 1_555
Na2 O48 2.694572 1_555
Na2 O50 2.694572 1_555
Na2 O49 2.694572 1_555
Na3 O57 2.596433 1_555
Na3 O59 2.596433 1_555
Na3 O58 2.596433 1_555
Na3 O53 2.694572 1_555
Na3 O51 2.694572 1_555
Na3 O52 2.694572 1_555
Na4 O62 2.492904 1_555
Na4 O60 2.492904 1_555
Na4 O61 2.492904 1_555
Na5 O63 2.492904 1_555
Na5 O65 2.492904 1_555
Na5 O64 2.492904 1_555
Ca0 O1 2.251765 1_445
Ca0 O2 2.251765 1_455
Ca0 O0 2.251765 1_555
Ca0 O38 2.279033 1_555
Ca0 O36 2.279033 1_545
Ca0 O37 2.279033 1_445
Ca1 O4 2.251765 1_445
Ca1 O3 2.251765 1_555
Ca1 O5 2.251765 1_455
Ca1 O39 2.279033 1_555
Ca1 O41 2.279033 1_445
Ca1 O40 2.279033 1_545
Ca2 O44 2.304125 1_445
Ca2 O42 2.304125 1_455
Ca2 O43 2.304125 1_555
Ca2 O7 2.438619 1_555
Ca2 O8 2.438619 1_545
Ca2 O6 2.438619 1_445
Ca3 O45 2.304125 1_445
Ca3 O47 2.304125 1_555
Ca3 O46 2.304125 1_455
Ca3 O10 2.438619 1_555
Ca3 O9 2.438619 1_445
Ca3 O11 2.438619 1_545
Ca4 O13 2.227612 1_555
Ca4 O14 2.227612 1_555
Ca4 O12 2.227612 1_555
Ca4 O48 2.410247 1_555
Ca4 O50 2.410247 1_555
Ca4 O49 2.410247 1_555
Ca5 O16 2.227612 1_555
Ca5 O15 2.227612 1_555
Ca5 O17 2.227612 1_555
Ca5 O53 2.410247 1_555
Ca5 O51 2.410247 1_555
Ca5 O52 2.410247 1_555
Ca6 O19 2.253398 1_556
Ca6 O20 2.253398 1_556
Ca6 O18 2.253399 1_556
Ca6 O56 2.516149 1_555
Ca6 O54 2.516149 1_555
Ca6 O55 2.516149 1_555
Ca7 O22 2.253398 1_555
Ca7 O21 2.253398 1_555
Ca7 O23 2.253399 1_555
Ca7 O57 2.516149 1_555
Ca7 O59 2.516149 1_555
Ca7 O58 2.516149 1_555
Ca8 O62 2.266082 1_555
Ca8 O60 2.266082 1_555
Ca8 O61 2.266082 1_555
Ca8 O25 2.276847 1_554
Ca8 O26 2.276847 1_554
Ca8 O24 2.276847 1_554
Ca9 O63 2.266082 1_555
Ca9 O65 2.266082 1_555
Ca9 O64 2.266082 1_555
Ca9 O28 2.276847 1_555
Ca9 O27 2.276847 1_555
Ca9 O29 2.276847 1_555
O0 S0 1.456421 1_545
O1 S1 1.456421 1_555
O2 S2 1.456421 1_655
O3 S3 1.456421 1_555
O4 S4 1.456421 1_655
O5 S5 1.456421 1_545
O6 S5 1.465866 1_555
O7 S3 1.465866 1_555
O8 S4 1.465866 1_555
O9 S1 1.465866 1_555
O10 S2 1.465866 1_555
O11 S0 1.465866 1_555
O12 S6 1.478741 1_555
O13 S7 1.478741 1_555
O14 S8 1.478741 1_555
O15 S9 1.478741 1_555
O16 S10 1.478741 1_555
O17 S11 1.478741 1_555
O18 S11 1.481831 1_555
O19 S9 1.481831 1_555
O20 S10 1.481831 1_555
O21 S7 1.481831 1_555
O22 S8 1.481831 1_555
O23 S6 1.481831 1_555
O24 S12 1.455415 1_555
O25 S13 1.455415 1_555
O26 S14 1.455415 1_555
O27 S15 1.455415 1_555
O28 S16 1.455415 1_555
O29 S17 1.455415 1_555
O30 S17 1.570093 1_555
O30 Ta0 1.975409 1_555
O31 S15 1.570093 1_555
O31 Ta0 1.975409 1_555
O32 S16 1.570093 1_555
O32 Ta0 1.975409 1_555
O33 S13 1.570093 1_555
O33 Ta1 1.975409 1_555
O34 S14 1.570093 1_555
O34 Ta1 1.975409 1_555
O35 S12 1.570093 1_555
O35 Ta1 1.975409 1_555
O36 S17 1.459980 1_555
O37 S15 1.459989 1_555
O38 S16 1.459985 1_555
O39 S13 1.459989 1_555
O40 S14 1.459980 1_555
O41 S12 1.459985 1_555
O42 S6 1.492585 1_555
O43 S7 1.492594 1_555
O44 S8 1.492590 1_555
O45 S9 1.492594 1_555
O46 S10 1.492585 1_555
O47 S11 1.492590 1_555
O48 S5 1.469651 1_545
O49 S3 1.469660 1_555
O50 S4 1.469657 1_655
O51 S1 1.469660 1_555
O52 S2 1.469651 1_655
O53 S0 1.469657 1_545
O54 S12 1.470047 1_555
O55 S13 1.470028 1_655
O56 S14 1.470037 1_545
O57 S15 1.470028 1_545
O58 S16 1.470047 1_555
O59 S17 1.470037 1_655
O60 S11 1.489735 1_555
O61 S9 1.489717 1_455
O62 S10 1.489724 1_565
O63 S7 1.489717 1_565
O64 S8 1.489735 1_555
O65 S6 1.489725 1_455
O66 S0 1.568088 1_555
O66 Ta0 1.996318 1_555
O67 S1 1.568097 1_555
O67 Ta0 1.996318 1_555
O68 S2 1.568093 1_555
O68 Ta0 1.996318 1_555
O69 S3 1.568097 1_555
O69 Ta1 1.996318 1_555
O70 S4 1.568088 1_555
O70 Ta1 1.996318 1_555
O71 S5 1.568093 1_555
O71 Ta1 1.996318 1_555
