# generated using pymatgen
data_MgTe2Mo2W2(Se2S)2
_symmetry_space_group_name_H-M   'P 1'
_cell_length_a   6.67853000
_cell_length_b   6.68214235
_cell_length_c   90.74468840
_cell_angle_alpha   89.99113706
_cell_angle_beta   90.00000000
_cell_angle_gamma   119.98209174
_symmetry_Int_Tables_number   1
_chemical_formula_structural   MgTe2Mo2W2(Se2S)2
_chemical_formula_sum   'Mg8 Te16 Mo16 W16 Se32 S16'
_cell_volume   3507.73507321
_cell_formula_units_Z   8
loop_
 _symmetry_equiv_pos_site_id
 _symmetry_equiv_pos_as_xyz
  1  'x, y, z'
loop_
 _atom_site_type_symbol
 _atom_site_label
 _atom_site_symmetry_multiplicity
 _atom_site_fract_x
 _atom_site_fract_y
 _atom_site_fract_z
 _atom_site_occupancy
  Mg  Mg0_0  1  0.00000100  0.00000200  0.28068150  1
  Mg  Mg0_1  1  0.00000100  0.00000200  0.78068150  1
  Mg  Mg0_2  1  0.00000100  0.50000200  0.28068150  1
  Mg  Mg0_3  1  0.00000100  0.50000200  0.78068150  1
  Mg  Mg0_4  1  0.50000100  0.00000200  0.28068150  1
  Mg  Mg0_5  1  0.50000100  0.00000200  0.78068150  1
  Mg  Mg0_6  1  0.50000100  0.50000200  0.28068150  1
  Mg  Mg0_7  1  0.50000100  0.50000200  0.78068150  1
  Te  Te0_0  1  0.33334750  0.16669550  0.02582050  1
  Te  Te0_1  1  0.33334750  0.16669550  0.52582050  1
  Te  Te0_2  1  0.33334750  0.66669550  0.02582050  1
  Te  Te0_3  1  0.33334750  0.66669550  0.52582050  1
  Te  Te0_4  1  0.83334750  0.16669550  0.02582050  1
  Te  Te0_5  1  0.83334750  0.16669550  0.52582050  1
  Te  Te0_6  1  0.83334750  0.66669550  0.02582050  1
  Te  Te0_7  1  0.83334750  0.66669550  0.52582050  1
  Te  Te1_0  1  0.33323150  0.16646250  0.06767600  1
  Te  Te1_1  1  0.33323150  0.16646250  0.56767600  1
  Te  Te1_2  1  0.33323150  0.66646250  0.06767600  1
  Te  Te1_3  1  0.33323150  0.66646250  0.56767600  1
  Te  Te1_4  1  0.83323150  0.16646250  0.06767600  1
  Te  Te1_5  1  0.83323150  0.16646250  0.56767600  1
  Te  Te1_6  1  0.83323150  0.66646250  0.06767600  1
  Te  Te1_7  1  0.83323150  0.66646250  0.56767600  1
  Mo  Mo0_0  1  0.16664850  0.33329700  0.04674500  1
  Mo  Mo0_1  1  0.16664850  0.33329700  0.54674500  1
  Mo  Mo0_2  1  0.16664850  0.83329700  0.04674500  1
  Mo  Mo0_3  1  0.16664850  0.83329700  0.54674500  1
  Mo  Mo0_4  1  0.66664850  0.33329700  0.04674500  1
  Mo  Mo0_5  1  0.66664850  0.33329700  0.54674500  1
  Mo  Mo0_6  1  0.66664850  0.83329700  0.04674500  1
  Mo  Mo0_7  1  0.66664850  0.83329700  0.54674500  1
  Mo  Mo1_0  1  0.16671250  0.33342500  0.23174000  1
  Mo  Mo1_1  1  0.16671250  0.33342500  0.73174000  1
  Mo  Mo1_2  1  0.16671250  0.83342500  0.23174000  1
  Mo  Mo1_3  1  0.16671250  0.83342500  0.73174000  1
  Mo  Mo1_4  1  0.66671250  0.33342500  0.23174000  1
  Mo  Mo1_5  1  0.66671250  0.33342500  0.73174000  1
  Mo  Mo1_6  1  0.66671250  0.83342500  0.23174000  1
  Mo  Mo1_7  1  0.66671250  0.83342500  0.73174000  1
  W  W0_0  1  0.33331400  0.16662850  0.14101700  1
  W  W0_1  1  0.33331400  0.16662850  0.64101700  1
  W  W0_2  1  0.33331400  0.66662850  0.14101700  1
  W  W0_3  1  0.33331400  0.66662850  0.64101700  1
  W  W0_4  1  0.83331400  0.16662850  0.14101700  1
  W  W0_5  1  0.83331400  0.16662850  0.64101700  1
  W  W0_6  1  0.83331400  0.66662850  0.14101700  1
  W  W0_7  1  0.83331400  0.66662850  0.64101700  1
  W  W1_0  1  0.33334150  0.16668450  0.33293450  1
  W  W1_1  1  0.33334150  0.16668450  0.83293450  1
  W  W1_2  1  0.33334150  0.66668450  0.33293450  1
  W  W1_3  1  0.33334150  0.66668450  0.83293450  1
  W  W1_4  1  0.83334150  0.16668450  0.33293450  1
  W  W1_5  1  0.83334150  0.16668450  0.83293450  1
  W  W1_6  1  0.83334150  0.66668450  0.33293450  1
  W  W1_7  1  0.83334150  0.66668450  0.83293450  1
  Se  Se0_0  1  0.16663550  0.33327100  0.15948750  1
  Se  Se0_1  1  0.16663550  0.33327100  0.65948750  1
  Se  Se0_2  1  0.16663550  0.83327100  0.15948750  1
  Se  Se0_3  1  0.16663550  0.83327100  0.65948750  1
  Se  Se0_4  1  0.66663550  0.33327100  0.15948750  1
  Se  Se0_5  1  0.66663550  0.33327100  0.65948750  1
  Se  Se0_6  1  0.66663550  0.83327100  0.15948750  1
  Se  Se0_7  1  0.66663550  0.83327100  0.65948750  1
  Se  Se1_0  1  0.33339850  0.16679700  0.21341150  1
  Se  Se1_1  1  0.33339850  0.16679700  0.71341150  1
  Se  Se1_2  1  0.33339850  0.66679700  0.21341150  1
  Se  Se1_3  1  0.33339850  0.66679700  0.71341150  1
  Se  Se1_4  1  0.83339850  0.16679700  0.21341150  1
  Se  Se1_5  1  0.83339850  0.16679700  0.71341150  1
  Se  Se1_6  1  0.83339850  0.66679700  0.21341150  1
  Se  Se1_7  1  0.83339850  0.66679700  0.71341150  1
  Se  Se2_0  1  0.33333600  0.16667100  0.25039600  1
  Se  Se2_1  1  0.33333600  0.16667100  0.75039600  1
  Se  Se2_2  1  0.33333600  0.66667100  0.25039600  1
  Se  Se2_3  1  0.33333600  0.66667100  0.75039600  1
  Se  Se2_4  1  0.83333600  0.16667100  0.25039600  1
  Se  Se2_5  1  0.83333600  0.16667100  0.75039600  1
  Se  Se2_6  1  0.83333600  0.66667100  0.25039600  1
  Se  Se2_7  1  0.83333600  0.66667100  0.75039600  1
  Se  Se3_0  1  0.16666900  0.33333850  0.12254650  1
  Se  Se3_1  1  0.16666900  0.33333850  0.62254650  1
  Se  Se3_2  1  0.16666900  0.83333850  0.12254650  1
  Se  Se3_3  1  0.16666900  0.83333850  0.62254650  1
  Se  Se3_4  1  0.66666900  0.33333850  0.12254650  1
  Se  Se3_5  1  0.66666900  0.33333850  0.62254650  1
  Se  Se3_6  1  0.66666900  0.83333850  0.12254650  1
  Se  Se3_7  1  0.66666900  0.83333850  0.62254650  1
  S  S0_0  1  0.16665050  0.33330150  0.34964100  1
  S  S0_1  1  0.16665050  0.33330150  0.84964100  1
  S  S0_2  1  0.16665050  0.83330150  0.34964100  1
  S  S0_3  1  0.16665050  0.83330150  0.84964100  1
  S  S0_4  1  0.66665050  0.33330150  0.34964100  1
  S  S0_5  1  0.66665050  0.33330150  0.84964100  1
  S  S0_6  1  0.66665050  0.83330150  0.34964100  1
  S  S0_7  1  0.66665050  0.83330150  0.84964100  1
  S  S1_0  1  0.16671250  0.33342600  0.31613200  1
  S  S1_1  1  0.16671250  0.33342600  0.81613200  1
  S  S1_2  1  0.16671250  0.83342600  0.31613200  1
  S  S1_3  1  0.16671250  0.83342600  0.81613200  1
  S  S1_4  1  0.66671250  0.33342600  0.31613200  1
  S  S1_5  1  0.66671250  0.33342600  0.81613200  1
  S  S1_6  1  0.66671250  0.83342600  0.31613200  1
  S  S1_7  1  0.66671250  0.83342600  0.81613200  1
loop_
_geom_bond_atom_site_label_1
_geom_bond_atom_site_label_2
_geom_bond_distance
_geom_bond_site_symmetry_2
Mg0_0 Mg0_4 3.339265 1_555
Mg0_0 Mg0_4 3.339265 1_455
Mg0_0 Mg0_2 3.341071 1_545
Mg0_0 Mg0_2 3.341071 1_555
Mg0_0 Mg0_6 3.341073 1_555
Mg0_0 Mg0_6 3.341073 1_445
Mg0_0 Se2_4 3.357108 1_455
Mg0_0 Se2_0 3.357112 1_555
Mg0_0 Se2_6 3.358120 1_445
Mg0_1 Mg0_5 3.339265 1_555
Mg0_1 Mg0_5 3.339265 1_455
Mg0_1 Mg0_3 3.341071 1_545
Mg0_1 Mg0_3 3.341071 1_555
Mg0_1 Mg0_7 3.341073 1_555
Mg0_1 Mg0_7 3.341073 1_445
Mg0_1 Se2_5 3.357108 1_455
Mg0_1 Se2_1 3.357112 1_555
Mg0_1 Se2_7 3.358120 1_445
Mg0_2 Mg0_6 3.339265 1_555
Mg0_2 Mg0_6 3.339265 1_455
Mg0_2 Mg0_4 3.341073 1_565
Mg0_2 Mg0_4 3.341073 1_455
Mg0_2 Se2_6 3.357108 1_455
Mg0_2 Se2_2 3.357112 1_555
Mg0_2 Se2_4 3.358120 1_455
Mg0_3 Mg0_7 3.339265 1_555
Mg0_3 Mg0_7 3.339265 1_455
Mg0_3 Mg0_5 3.341073 1_565
Mg0_3 Mg0_5 3.341073 1_455
Mg0_3 Se2_7 3.357108 1_455
Mg0_3 Se2_3 3.357112 1_555
Mg0_3 Se2_5 3.358120 1_455
Mg0_4 Mg0_6 3.341071 1_545
Mg0_4 Mg0_6 3.341071 1_555
Mg0_4 Se2_0 3.357108 1_555
Mg0_4 Se2_4 3.357112 1_555
Mg0_4 Se2_2 3.358120 1_545
Mg0_5 Mg0_7 3.341071 1_545
Mg0_5 Mg0_7 3.341071 1_555
Mg0_5 Se2_1 3.357108 1_555
Mg0_5 Se2_5 3.357112 1_555
Mg0_5 Se2_3 3.358120 1_545
Mg0_6 Se2_2 3.357108 1_555
Mg0_6 Se2_6 3.357112 1_555
Mg0_6 Se2_0 3.358120 1_555
Mg0_7 Se2_3 3.357108 1_555
Mg0_7 Se2_7 3.357112 1_555
Mg0_7 Se2_1 3.358120 1_555
Mo0_0 Te0_0 2.706206 1_555
Mo0_0 Te0_4 2.706209 1_455
Mo0_0 Te1_4 2.706859 1_455
Mo0_0 Te1_0 2.706861 1_555
Mo0_0 Te1_2 2.706927 1_555
Mo0_0 Te0_2 2.706991 1_555
Mo0_1 Te0_1 2.706206 1_555
Mo0_1 Te0_5 2.706209 1_455
Mo0_1 Te1_5 2.706859 1_455
Mo0_1 Te1_1 2.706861 1_555
Mo0_1 Te1_3 2.706927 1_555
Mo0_1 Te0_3 2.706991 1_555
Mo0_2 Te0_2 2.706206 1_555
Mo0_2 Te0_6 2.706209 1_455
Mo0_2 Te1_6 2.706859 1_455
Mo0_2 Te1_2 2.706861 1_555
Mo0_2 Te1_0 2.706927 1_565
Mo0_2 Te0_0 2.706991 1_565
Mo0_3 Te0_3 2.706206 1_555
Mo0_3 Te0_7 2.706209 1_455
Mo0_3 Te1_7 2.706859 1_455
Mo0_3 Te1_3 2.706861 1_555
Mo0_3 Te1_1 2.706927 1_565
Mo0_3 Te0_1 2.706991 1_565
Mo0_4 Te0_4 2.706206 1_555
Mo0_4 Te0_0 2.706209 1_555
Mo0_4 Te1_0 2.706859 1_555
Mo0_4 Te1_4 2.706861 1_555
Mo0_4 Te1_6 2.706927 1_555
Mo0_4 Te0_6 2.706991 1_555
Mo0_5 Te0_5 2.706206 1_555
Mo0_5 Te0_1 2.706209 1_555
Mo0_5 Te1_1 2.706859 1_555
Mo0_5 Te1_5 2.706861 1_555
Mo0_5 Te1_7 2.706927 1_555
Mo0_5 Te0_7 2.706991 1_555
Mo0_6 Te0_6 2.706206 1_555
Mo0_6 Te0_2 2.706209 1_555
Mo0_6 Te1_2 2.706859 1_555
Mo0_6 Te1_6 2.706861 1_555
Mo0_6 Te1_4 2.706927 1_565
Mo0_6 Te0_4 2.706991 1_565
Mo0_7 Te0_7 2.706206 1_555
Mo0_7 Te0_3 2.706209 1_555
Mo0_7 Te1_3 2.706859 1_555
Mo0_7 Te1_7 2.706861 1_555
Mo0_7 Te1_5 2.706927 1_565
Mo0_7 Te0_5 2.706991 1_565
Mo1_0 Se1_0 2.546499 1_555
Mo1_0 Se1_4 2.546500 1_455
Mo1_0 Se1_2 2.547206 1_555
Mo1_0 Se2_4 2.566056 1_455
Mo1_0 Se2_0 2.566060 1_555
Mo1_0 Se2_2 2.566612 1_555
Mo1_1 Se1_1 2.546499 1_555
Mo1_1 Se1_5 2.546500 1_455
Mo1_1 Se1_3 2.547206 1_555
Mo1_1 Se2_5 2.566056 1_455
Mo1_1 Se2_1 2.566060 1_555
Mo1_1 Se2_3 2.566612 1_555
Mo1_2 Se1_2 2.546499 1_555
Mo1_2 Se1_6 2.546500 1_455
Mo1_2 Se1_0 2.547206 1_565
Mo1_2 Se2_6 2.566056 1_455
Mo1_2 Se2_2 2.566060 1_555
Mo1_2 Se2_0 2.566612 1_565
Mo1_3 Se1_3 2.546499 1_555
Mo1_3 Se1_7 2.546500 1_455
Mo1_3 Se1_1 2.547206 1_565
Mo1_3 Se2_7 2.566056 1_455
Mo1_3 Se2_3 2.566060 1_555
Mo1_3 Se2_1 2.566612 1_565
Mo1_4 Se1_4 2.546499 1_555
Mo1_4 Se1_0 2.546500 1_555
Mo1_4 Se1_6 2.547206 1_555
Mo1_4 Se2_0 2.566056 1_555
Mo1_4 Se2_4 2.566060 1_555
Mo1_4 Se2_6 2.566612 1_555
Mo1_5 Se1_5 2.546499 1_555
Mo1_5 Se1_1 2.546500 1_555
Mo1_5 Se1_7 2.547206 1_555
Mo1_5 Se2_1 2.566056 1_555
Mo1_5 Se2_5 2.566060 1_555
Mo1_5 Se2_7 2.566612 1_555
Mo1_6 Se1_6 2.546499 1_555
Mo1_6 Se1_2 2.546500 1_555
Mo1_6 Se1_4 2.547206 1_565
Mo1_6 Se2_2 2.566056 1_555
Mo1_6 Se2_6 2.566060 1_555
Mo1_6 Se2_4 2.566612 1_565
Mo1_7 Se1_7 2.546499 1_555
Mo1_7 Se1_3 2.546500 1_555
Mo1_7 Se1_5 2.547206 1_565
Mo1_7 Se2_3 2.566056 1_555
Mo1_7 Se2_7 2.566060 1_555
Mo1_7 Se2_5 2.566612 1_565
Se0_0 W0_0 2.554966 1_555
Se0_0 W0_4 2.554968 1_455
Se0_0 W0_2 2.555574 1_555
Se0_1 W0_1 2.554966 1_555
Se0_1 W0_5 2.554968 1_455
Se0_1 W0_3 2.555574 1_555
Se0_2 W0_2 2.554966 1_555
Se0_2 W0_6 2.554968 1_455
Se0_2 W0_0 2.555574 1_565
Se0_3 W0_3 2.554966 1_555
Se0_3 W0_7 2.554968 1_455
Se0_3 W0_1 2.555574 1_565
Se0_4 W0_4 2.554966 1_555
Se0_4 W0_0 2.554968 1_555
Se0_4 W0_6 2.555574 1_555
Se0_5 W0_5 2.554966 1_555
Se0_5 W0_1 2.554968 1_555
Se0_5 W0_7 2.555574 1_555
Se0_6 W0_6 2.554966 1_555
Se0_6 W0_2 2.554968 1_555
Se0_6 W0_4 2.555574 1_565
Se0_7 W0_7 2.554966 1_555
Se0_7 W0_3 2.554968 1_555
Se0_7 W0_5 2.555574 1_565
Se3_0 W0_0 2.554888 1_555
Se3_0 W0_4 2.554889 1_455
Se3_0 W0_2 2.555731 1_555
Se3_1 W0_1 2.554888 1_555
Se3_1 W0_5 2.554889 1_455
Se3_1 W0_3 2.555731 1_555
Se3_2 W0_2 2.554888 1_555
Se3_2 W0_6 2.554889 1_455
Se3_2 W0_0 2.555731 1_565
Se3_3 W0_3 2.554888 1_555
Se3_3 W0_7 2.554889 1_455
Se3_3 W0_1 2.555731 1_565
Se3_4 W0_4 2.554888 1_555
Se3_4 W0_0 2.554889 1_555
Se3_4 W0_6 2.555731 1_555
Se3_5 W0_5 2.554888 1_555
Se3_5 W0_1 2.554889 1_555
Se3_5 W0_7 2.555731 1_555
Se3_6 W0_6 2.554888 1_555
Se3_6 W0_2 2.554889 1_555
Se3_6 W0_4 2.555731 1_565
Se3_7 W0_7 2.554888 1_555
Se3_7 W0_3 2.554889 1_555
Se3_7 W0_5 2.555731 1_565
S0_0 W1_0 2.452861 1_555
S0_0 W1_4 2.452866 1_455
S0_0 W1_2 2.453704 1_555
S0_1 W1_1 2.452861 1_555
S0_1 W1_5 2.452866 1_455
S0_1 W1_3 2.453704 1_555
S0_2 W1_2 2.452861 1_555
S0_2 W1_6 2.452866 1_455
S0_2 W1_0 2.453704 1_565
S0_3 W1_3 2.452861 1_555
S0_3 W1_7 2.452866 1_455
S0_3 W1_1 2.453704 1_565
S0_4 W1_4 2.452861 1_555
S0_4 W1_0 2.452866 1_555
S0_4 W1_6 2.453704 1_555
S0_5 W1_5 2.452861 1_555
S0_5 W1_1 2.452866 1_555
S0_5 W1_7 2.453704 1_555
S0_6 W1_6 2.452861 1_555
S0_6 W1_2 2.452866 1_555
S0_6 W1_4 2.453704 1_565
S0_7 W1_7 2.452861 1_555
S0_7 W1_3 2.452866 1_555
S0_7 W1_5 2.453704 1_565
S1_0 W1_0 2.458326 1_555
S1_0 W1_4 2.458329 1_455
S1_0 W1_2 2.458956 1_555
S1_1 W1_1 2.458326 1_555
S1_1 W1_5 2.458329 1_455
S1_1 W1_3 2.458956 1_555
S1_2 W1_2 2.458326 1_555
S1_2 W1_6 2.458329 1_455
S1_2 W1_0 2.458956 1_565
S1_3 W1_3 2.458326 1_555
S1_3 W1_7 2.458329 1_455
S1_3 W1_1 2.458956 1_565
S1_4 W1_4 2.458326 1_555
S1_4 W1_0 2.458329 1_555
S1_4 W1_6 2.458956 1_555
S1_5 W1_5 2.458326 1_555
S1_5 W1_1 2.458329 1_555
S1_5 W1_7 2.458956 1_555
S1_6 W1_6 2.458326 1_555
S1_6 W1_2 2.458329 1_555
S1_6 W1_4 2.458956 1_565
S1_7 W1_7 2.458326 1_555
S1_7 W1_3 2.458329 1_555
S1_7 W1_5 2.458956 1_565
