# generated using pymatgen
data_MgFe4(CoO4)2
_symmetry_space_group_name_H-M   'P 1'
_cell_length_a   6.41223662
_cell_length_b   6.41223662
_cell_length_c   6.41223662
_cell_angle_alpha   60.00000000
_cell_angle_beta   60.00000000
_cell_angle_gamma   60.00000000
_symmetry_Int_Tables_number   1
_chemical_formula_structural   MgFe4(CoO4)2
_chemical_formula_sum   'Mg1 Fe4 Co2 O8'
_cell_volume   186.42906575
_cell_formula_units_Z   1
loop_
 _symmetry_equiv_pos_site_id
 _symmetry_equiv_pos_as_xyz
  1  'x, y, z'
loop_
 _atom_site_type_symbol
 _atom_site_label
 _atom_site_symmetry_multiplicity
 _atom_site_fract_x
 _atom_site_fract_y
 _atom_site_fract_z
 _atom_site_occupancy
  Mg  Mg0  1  0.25000000  0.25000000  0.25000000  1
  Fe  Fe0  1  0.81755000  0.39415000  0.39415000  1
  Fe  Fe1  1  0.39415000  0.81755000  0.39415000  1
  Fe  Fe2  1  0.39415000  0.39415000  0.81755000  1
  Fe  Fe3  1  0.39415000  0.39415000  0.39415000  1
  Co  Co0  1  0.75000000  0.75000000  0.75000000  1
  Co  Co1  1  0.00000000  0.00000000  0.00000000  1
  O  O0  1  0.60618000  0.13127300  0.13127300  1
  O  O1  1  0.13127300  0.60618000  0.13127300  1
  O  O2  1  0.13127300  0.13127300  0.60618000  1
  O  O3  1  0.13127300  0.13127300  0.13127300  1
  O  O4  1  0.14653200  0.61782300  0.61782300  1
  O  O5  1  0.61782300  0.14653200  0.61782300  1
  O  O6  1  0.61782300  0.61782300  0.14653200  1
  O  O7  1  0.61782300  0.61782300  0.61782300  1
loop_
_geom_bond_atom_site_label_1
_geom_bond_atom_site_label_2
_geom_bond_distance
_geom_bond_site_symmetry_2
Mg0 O1 1.864805 1_555
Mg0 O2 1.864805 1_555
Mg0 O0 1.864805 1_555
Mg0 O3 1.864810 1_555
Fe0 O6 2.034126 1_555
Fe0 O5 2.034126 1_555
Fe0 O7 2.034131 1_555
Fe0 Mg0 2.264122 1_655
Fe0 O1 2.406029 1_655
Fe0 O2 2.406029 1_655
Fe0 O3 2.406033 1_655
Fe1 O6 2.034126 1_555
Fe1 O4 2.034126 1_555
Fe1 O7 2.034131 1_555
Fe1 Mg0 2.264122 1_565
Fe1 O2 2.406029 1_565
Fe1 O0 2.406029 1_565
Fe1 O3 2.406033 1_565
Fe2 O4 2.034126 1_555
Fe2 O5 2.034126 1_555
Fe2 O7 2.034131 1_555
Fe2 Mg0 2.264122 1_556
Fe2 O0 2.406029 1_556
Fe2 O1 2.406029 1_556
Fe2 O3 2.406033 1_556
Fe3 O6 2.034131 1_555
Fe3 O4 2.034131 1_555
Fe3 O5 2.034131 1_555
Fe3 Mg0 2.264122 1_555
Fe3 O0 2.406034 1_555
Fe3 O1 2.406034 1_555
Fe3 O2 2.406034 1_555
Co0 O7 2.076066 1_555
Co0 O5 2.076071 1_565
Co0 O6 2.076071 1_556
Co0 O4 2.076071 1_655
Co1 O3 2.061867 1_555
Co1 O1 2.061872 1_545
Co1 O0 2.061872 1_455
Co1 O2 2.061872 1_554
