# generated using pymatgen
data_Na9Ca5Nb7Si9(SO8)9
_symmetry_space_group_name_H-M   'P 1'
_cell_length_a   9.12099719
_cell_length_b   9.12344071
_cell_length_c   23.13947190
_cell_angle_alpha   89.65419109
_cell_angle_beta   90.66822496
_cell_angle_gamma   120.18231277
_symmetry_Int_Tables_number   1
_chemical_formula_structural   Na9Ca5Nb7Si9(SO8)9
_chemical_formula_sum   'Na9 Ca5 Nb7 Si9 S9 O72'
_cell_volume   1664.38857356
_cell_formula_units_Z   1
loop_
 _symmetry_equiv_pos_site_id
 _symmetry_equiv_pos_as_xyz
  1  'x, y, z'
loop_
 _atom_site_type_symbol
 _atom_site_label
 _atom_site_symmetry_multiplicity
 _atom_site_fract_x
 _atom_site_fract_y
 _atom_site_fract_z
 _atom_site_occupancy
  Na  Na0  1  0.97474121  0.34635710  0.74597128  1
  Na  Na1  1  0.64023985  0.97186522  0.58071112  1
  Na  Na2  1  0.32448107  0.02208826  0.40634429  1
  Na  Na3  1  0.98381596  0.00176616  0.49447538  1
  Na  Na4  1  0.98242744  0.00344142  0.99134807  1
  Na  Na5  1  0.65638504  0.31457943  0.82939721  1
  Na  Na6  1  0.66165092  0.32660727  0.32249764  1
  Na  Na7  1  0.32766761  0.67763952  0.16378834  1
  Na  Na8  1  0.30980494  0.66814217  0.65631758  1
  Ca  Ca0  1  0.99288234  0.00186626  0.35007005  1
  Ca  Ca1  1  0.99175845  0.99573665  0.86052200  1
  Ca  Ca2  1  0.66112748  0.33167196  0.68657030  1
  Ca  Ca3  1  0.66789249  0.32395922  0.18103075  1
  Ca  Ca4  1  0.32538817  0.65632839  0.51842971  1
  Nb  Nb0  1  0.99150969  0.00041314  0.64522214  1
  Nb  Nb1  1  0.00135699  0.99224609  0.14377705  1
  Nb  Nb2  1  0.69955806  0.34860545  0.97897839  1
  Nb  Nb3  1  0.65930291  0.31208065  0.48419543  1
  Nb  Nb4  1  0.33717496  0.66368937  0.02058615  1
  Nb  Nb5  1  0.33965096  0.68347723  0.31180312  1
  Nb  Nb6  1  0.34715469  0.66777091  0.81596900  1
  Si  Si0  1  0.29539243  0.00916560  0.25484221  1
  Si  Si1  1  0.70233594  0.99608746  0.75208004  1
  Si  Si2  1  0.96452342  0.33333112  0.59013982  1
  Si  Si3  1  0.35797723  0.03151400  0.58659644  1
  Si  Si4  1  0.97064959  0.62981415  0.08472958  1
  Si  Si5  1  0.66827686  0.03989271  0.08341590  1
  Si  Si6  1  0.62067380  0.65099630  0.92182444  1
  Si  Si7  1  0.05213838  0.38349910  0.91620805  1
  Si  Si8  1  0.63354497  0.96566364  0.42179442  1
  S  S0  1  0.69884423  0.70892702  0.24870008  1
  S  S1  1  0.01311299  0.30387585  0.24960518  1
  S  S2  1  0.28369164  0.29504179  0.75132995  1
  S  S3  1  0.01267295  0.71632465  0.75128167  1
  S  S4  1  0.67779294  0.63080720  0.58271447  1
  S  S5  1  0.36654942  0.32984238  0.08261024  1
  S  S6  1  0.34747508  0.95579724  0.91795854  1
  S  S7  1  0.34697615  0.37823380  0.41575699  1
  S  S8  1  0.03318844  0.65451909  0.41460401  1
  O  O0  1  0.21409840  0.00345733  0.31532846  1
  O  O1  1  0.79397622  0.78470921  0.30122652  1
  O  O2  1  0.99135706  0.20698292  0.30204871  1
  O  O3  1  0.21155490  0.19589513  0.80294532  1
  O  O4  1  0.00377538  0.79858176  0.80288803  1
  O  O5  1  0.82802954  0.02293730  0.80316704  1
  O  O6  1  0.80035146  0.96890222  0.69143472  1
  O  O7  1  0.17202754  0.20572403  0.69843763  1
  O  O8  1  0.02736423  0.81994115  0.69760038  1
  O  O9  1  0.78296659  0.82057642  0.19649470  1
  O  O10  1  0.03137892  0.21709049  0.19766817  1
  O  O11  1  0.16060461  0.98367723  0.19835419  1
  O  O12  1  0.88808419  0.35135519  0.64846256  1
  O  O13  1  0.48511057  0.12908399  0.63683324  1
  O  O14  1  0.65857015  0.54015076  0.63565226  1
  O  O15  1  0.90148778  0.52483688  0.14123345  1
  O  O16  1  0.61157508  0.09007263  0.13985450  1
  O  O17  1  0.46348602  0.36489077  0.13539652  1
  O  O18  1  0.44513086  0.30211325  0.03186536  1
  O  O19  1  0.84110476  0.53503181  0.02676225  1
  O  O20  1  0.69794017  0.17240237  0.02722139  1
  O  O21  1  0.46248701  0.16244829  0.52413969  1
  O  O22  1  0.69541362  0.54286101  0.53056308  1
  O  O23  1  0.82405601  0.30298616  0.53195904  1
  O  O24  1  0.50589743  0.66093785  0.97357020  1
  O  O25  1  0.16159393  0.50312901  0.97073671  1
  O  O26  1  0.33421748  0.85598173  0.97028083  1
  O  O27  1  0.54534003  0.87408564  0.47952642  1
  O  O28  1  0.32452923  0.44949257  0.46791117  1
  O  O29  1  0.13467344  0.67884091  0.46604378  1
  O  O30  1  0.12408130  0.63447542  0.36199341  1
  O  O31  1  0.49594620  0.85415337  0.36316134  1
  O  O32  1  0.35719562  0.48126201  0.36325945  1
  O  O33  1  0.13769522  0.49790826  0.85627575  1
  O  O34  1  0.36636528  0.86790634  0.86463823  1
  O  O35  1  0.50055946  0.63833666  0.86157531  1
  O  O36  1  0.01675181  0.80617714  0.40817879  1
  O  O37  1  0.82113811  0.00364570  0.41456536  1
  O  O38  1  0.20737085  0.20027016  0.41075193  1
  O  O39  1  0.03834609  0.20512904  0.92108014  1
  O  O40  1  0.19692407  0.96893897  0.91339382  1
  O  O41  1  0.80435770  0.81025345  0.92244399  1
  O  O42  1  0.95266687  0.13918262  0.59119697  1
  O  O43  1  0.17349154  0.02471701  0.59390650  1
  O  O44  1  0.84329136  0.80342572  0.58544021  1
  O  O45  1  0.98279367  0.82149687  0.09288193  1
  O  O46  1  0.84529225  0.02710030  0.09410132  1
  O  O47  1  0.19050494  0.17375721  0.08903012  1
  O  O48  1  0.67559915  0.15676384  0.74998995  1
  O  O49  1  0.45830481  0.33770084  0.74389082  1
  O  O50  1  0.86421303  0.54387511  0.74699808  1
  O  O51  1  0.66913113  0.53848848  0.24130016  1
  O  O52  1  0.87424190  0.33879106  0.24425646  1
  O  O53  1  0.48351621  0.15916264  0.24810131  1
  O  O54  1  0.61513532  0.46722312  0.92770360  1
  O  O55  1  0.85989875  0.37071050  0.92312476  1
  O  O56  1  0.50449136  0.12461341  0.92089590  1
  O  O57  1  0.63025135  0.15405076  0.42304797  1
  O  O58  1  0.51199472  0.37381762  0.41870393  1
  O  O59  1  0.86304769  0.49814872  0.41760247  1
  O  O60  1  0.33345154  0.47623400  0.07381836  1
  O  O61  1  0.16248833  0.66989958  0.06976660  1
  O  O62  1  0.51720864  0.84674594  0.06497618  1
  O  O63  1  0.34087275  0.85120517  0.57803255  1
  O  O64  1  0.54035133  0.66824496  0.57577621  1
  O  O65  1  0.15434751  0.47189690  0.57999563  1
  O  O66  1  0.30165496  0.81658759  0.25949597  1
  O  O67  1  0.52506083  0.69951643  0.25377327  1
  O  O68  1  0.17984584  0.47454331  0.25535130  1
  O  O69  1  0.27975301  0.46209129  0.75385789  1
  O  O70  1  0.17014462  0.69860395  0.75234196  1
  O  O71  1  0.51025266  0.81540756  0.75952072  1
loop_
_geom_bond_atom_site_label_1
_geom_bond_atom_site_label_2
_geom_bond_distance
_geom_bond_site_symmetry_2
Na0 O48 2.388233 1_555
Na0 O12 2.389791 1_555
Na0 O69 2.434051 1_655
Na0 O50 2.468201 1_555
Na0 O70 2.786839 1_655
Na0 O5 2.876252 1_555
Na0 O7 2.911829 1_655
Na0 O33 2.919466 1_655
Na1 O63 2.376115 1_555
Na1 O64 2.445423 1_555
Na1 O42 2.474665 1_565
Na1 O27 2.495703 1_555
Na1 O13 2.802141 1_565
Na1 O23 2.849552 1_565
Na1 O6 2.940970 1_555
Na1 O44 2.942552 1_555
Na2 O0 2.293645 1_555
Na2 O38 2.354696 1_555
Na2 O57 2.445664 1_555
Na2 O36 2.490498 1_545
Na2 O58 2.790271 1_555
Na3 O37 2.362667 1_555
Na3 O44 2.651911 1_545
Na3 O42 2.658646 1_555
Na3 O38 2.743615 1_655
Na3 O36 2.803203 1_645
Na3 O43 2.806988 1_655
Na4 O39 2.308540 1_655
Na4 O41 2.319848 1_545
Na4 O46 2.758877 1_556
Na4 O40 2.808710 1_645
Na4 O47 2.846487 1_656
Na4 O45 2.869436 1_546
Na5 O48 2.402740 1_555
Na5 O56 2.648701 1_555
Na5 O55 2.715751 1_555
Na5 O49 2.741928 1_555
Na5 O50 2.766551 1_555
Na5 O54 2.800101 1_555
Na6 O53 2.325491 1_555
Na6 O52 2.629207 1_555
Na6 O51 2.664235 1_555
Na6 O57 2.737131 1_555
Na6 O58 2.770959 1_555
Na6 O59 2.779074 1_555
Na7 O61 2.612767 1_555
Na7 O66 2.629914 1_555
Na7 O67 2.678279 1_555
Na7 O68 2.692102 1_555
Na7 O60 2.803493 1_555
Na7 O62 2.822176 1_555
Na8 O63 2.377133 1_555
Na8 O65 2.400453 1_555
Na8 O70 2.658276 1_555
Na8 O64 2.825695 1_555
Na8 O69 2.854542 1_555
Na8 O71 2.884024 1_555
Ca0 O0 2.173907 1_655
Ca0 O2 2.176620 1_555
Ca0 O37 2.182139 1_555
Ca0 O1 2.204326 1_545
Ca0 O36 2.323338 1_645
Ca0 O38 2.341230 1_655
Ca1 O5 2.091779 1_565
Ca1 O41 2.226607 1_555
Ca1 O39 2.235149 1_665
Ca1 O4 2.292726 1_655
Ca1 O40 2.336961 1_655
Ca1 O3 2.341080 1_665
Ca2 O13 2.077767 1_555
Ca2 O12 2.182173 1_555
Ca2 O48 2.212791 1_555
Ca2 O14 2.241300 1_555
Ca2 O49 2.311925 1_555
Ca2 O50 2.345389 1_555
Ca3 O16 2.153135 1_555
Ca3 O15 2.201243 1_555
Ca3 O53 2.233298 1_555
Ca3 O17 2.319446 1_555
Ca3 O52 2.320158 1_555
Ca3 O51 2.405452 1_555
Ca4 O65 2.162870 1_555
Ca4 O27 2.189749 1_555
Ca4 O29 2.201028 1_555
Ca4 O63 2.203574 1_555
Ca4 O28 2.222404 1_555
Ca4 O64 2.311631 1_555
Nb0 O42 1.926857 1_555
Nb0 O6 1.949839 1_545
Nb0 O43 1.971539 1_655
Nb0 O44 2.124741 1_545
Nb0 O7 2.148339 1_655
Nb0 O8 2.189759 1_645
Nb1 O45 1.895968 1_455
Nb1 O11 1.944464 1_555
Nb1 O46 1.964998 1_465
Nb1 O47 2.115775 1_565
Nb1 O9 2.192154 1_455
Nb1 O10 2.301342 1_565
Nb2 O19 1.887773 1_556
Nb2 O55 1.895842 1_555
Nb2 O20 1.945651 1_556
Nb2 O54 1.993214 1_555
Nb2 O56 2.338701 1_555
Nb2 O18 2.476507 1_556
Nb3 O21 1.870792 1_555
Nb3 O23 1.889994 1_555
Nb3 O57 1.944908 1_555
Nb3 O22 2.239318 1_555
Nb3 O58 2.263232 1_555
Nb3 O59 2.360690 1_555
Nb4 O24 1.905440 1_554
Nb4 O25 1.912990 1_554
Nb4 O62 1.940250 1_555
Nb4 O61 1.992681 1_555
Nb4 O60 2.088171 1_555
Nb4 O26 2.110858 1_554
Nb5 O66 1.858915 1_555
Nb5 O31 1.902641 1_555
Nb5 O67 2.118049 1_555
Nb5 O30 2.139574 1_555
Nb5 O68 2.157862 1_555
Nb5 O32 2.261162 1_555
Nb6 O35 1.866416 1_555
Nb6 O71 1.934607 1_555
Nb6 O33 1.992126 1_555
Nb6 O34 2.081226 1_555
Nb6 O69 2.194718 1_555
Nb6 O70 2.291211 1_555
O0 Si0 1.579855 1_555
O1 S0 1.445865 1_555
O2 S1 1.452492 1_655
O3 S2 1.443767 1_555
O4 S3 1.438779 1_555
O5 Si1 1.568846 1_545
O6 Si1 1.756821 1_555
O7 S2 1.532231 1_555
O8 S3 1.522140 1_555
O9 S0 1.518712 1_555
O10 S1 1.499260 1_555
O11 Si0 1.718355 1_565
O12 Si2 1.573004 1_555
O13 Si3 1.559319 1_555
O14 S4 1.436073 1_555
O15 Si4 1.556062 1_555
O16 Si5 1.563215 1_555
O17 S5 1.439154 1_555
O18 S5 1.470383 1_555
O19 Si4 1.700802 1_555
O20 Si5 1.698793 1_555
O21 Si3 1.814007 1_555
O22 S4 1.507238 1_555
O23 Si2 1.771493 1_555
O24 Si6 1.632143 1_555
O25 Si7 1.634499 1_555
O26 S6 1.479569 1_555
O27 Si8 1.570233 1_555
O28 S7 1.438773 1_555
O29 S8 1.446998 1_555
O30 S8 1.543185 1_555
O31 Si8 1.773124 1_555
O32 S7 1.506204 1_555
O33 Si7 1.676440 1_555
O34 S6 1.533222 1_555
O35 Si6 1.730979 1_555
O36 S8 1.471265 1_555
O37 Si8 1.576547 1_545
O38 S7 1.480208 1_555
O39 Si7 1.571327 1_555
O40 S6 1.439845 1_555
O41 Si6 1.571700 1_555
O42 Si2 1.719516 1_555
O43 Si3 1.662981 1_555
O44 S4 1.539945 1_555
O45 Si4 1.707307 1_555
O46 Si5 1.691557 1_555
O47 S5 1.527110 1_555
O48 Si1 1.602829 1_545
O49 S2 1.449119 1_555
O50 S3 1.474911 1_655
O51 S0 1.448840 1_555
O52 S1 1.456966 1_655
O53 Si0 1.576040 1_555
O54 Si6 1.656634 1_555
O55 Si7 1.707136 1_655
O56 S6 1.486239 1_545
O57 Si8 1.734458 1_545
O58 S7 1.526516 1_555
O59 S8 1.491157 1_655
O60 S5 1.522183 1_555
O61 Si4 1.638430 1_455
O62 Si5 1.655231 1_565
O63 Si3 1.585848 1_565
O64 S4 1.462583 1_555
O65 Si2 1.567169 1_455
O66 Si0 1.788939 1_565
O67 S0 1.549517 1_555
O68 S1 1.540030 1_555
O69 S2 1.543913 1_555
O70 S3 1.523914 1_555
O71 Si1 1.707659 1_555
