# generated using pymatgen
data_Na9MgTa5(SiO4)9
_symmetry_space_group_name_H-M   'P 1'
_cell_length_a   15.75766788
_cell_length_b   27.14627802
_cell_length_c   9.06411284
_cell_angle_alpha   89.74673776
_cell_angle_beta   125.03344658
_cell_angle_gamma   90.25703445
_symmetry_Int_Tables_number   1
_chemical_formula_structural   Na9MgTa5(SiO4)9
_chemical_formula_sum   'Na36 Mg4 Ta20 Si36 O144'
_cell_volume   3174.74580802
_cell_formula_units_Z   4
loop_
 _symmetry_equiv_pos_site_id
 _symmetry_equiv_pos_as_xyz
  1  'x, y, z'
loop_
 _atom_site_type_symbol
 _atom_site_label
 _atom_site_symmetry_multiplicity
 _atom_site_fract_x
 _atom_site_fract_y
 _atom_site_fract_z
 _atom_site_occupancy
  Na  Na0  1  0.25547838  0.25431347  0.01465043  1
  Na  Na1  1  0.25919289  0.58929522  0.01833275  1
  Na  Na2  1  0.24688716  0.91448532  0.99767687  1
  Na  Na3  1  0.74823212  0.25635970  0.50233023  1
  Na  Na4  1  0.74208273  0.57639536  0.49718752  1
  Na  Na5  1  0.75144266  0.91450998  0.50682551  1
  Na  Na6  1  0.75919289  0.08929522  0.01833275  1
  Na  Na7  1  0.74688716  0.41448532  0.99767687  1
  Na  Na8  1  0.75547838  0.75431347  0.01465043  1
  Na  Na9  1  0.24208273  0.07639536  0.49718752  1
  Na  Na10  1  0.25144266  0.41450998  0.50682551  1
  Na  Na11  1  0.24823212  0.75635970  0.50233023  1
  Na  Na12  1  0.50265857  0.03776976  0.75494936  1
  Na  Na13  1  0.48804028  0.36256982  0.71799293  1
  Na  Na14  1  0.48828852  0.69755484  0.72399015  1
  Na  Na15  1  0.50034852  0.28946142  0.26972937  1
  Na  Na16  1  0.50050187  0.62468197  0.27539736  1
  Na  Na17  1  0.49933554  0.96407584  0.25252284  1
  Na  Na18  1  0.98828852  0.19755484  0.72399015  1
  Na  Na19  1  0.00265857  0.53776976  0.75494936  1
  Na  Na20  1  0.98804028  0.86256982  0.71799293  1
  Na  Na21  1  0.00050187  0.12468197  0.27539736  1
  Na  Na22  1  0.99933554  0.46407584  0.25252284  1
  Na  Na23  1  0.00034852  0.78946142  0.26972937  1
  Na  Na24  1  0.80877086  0.65283895  0.24268546  1
  Na  Na25  1  0.81866546  0.98530306  0.25340503  1
  Na  Na26  1  0.20537286  0.30779033  0.29206052  1
  Na  Na27  1  0.20786467  0.64486935  0.28680437  1
  Na  Na28  1  0.81589252  0.02529960  0.68387687  1
  Na  Na29  1  0.81242608  0.69118283  0.67990621  1
  Na  Na30  1  0.30877086  0.15283895  0.24268546  1
  Na  Na31  1  0.31866546  0.48530306  0.25340503  1
  Na  Na32  1  0.70786467  0.14486935  0.28680437  1
  Na  Na33  1  0.70537286  0.80779033  0.29206052  1
  Na  Na34  1  0.31242608  0.19118283  0.67990621  1
  Na  Na35  1  0.31589252  0.52529960  0.68387687  1
  Mg  Mg0  1  0.89860233  0.08294356  0.43761515  1
  Mg  Mg1  1  0.89770611  0.74918347  0.43758120  1
  Mg  Mg2  1  0.39770611  0.24918347  0.43758120  1
  Mg  Mg3  1  0.39860233  0.58294356  0.43761515  1
  Ta  Ta0  1  0.10765349  0.25032450  0.57432341  1
  Ta  Ta1  1  0.10805246  0.58452797  0.57226136  1
  Ta  Ta2  1  0.10824445  0.91716377  0.57038805  1
  Ta  Ta3  1  0.88945226  0.25165295  0.93137726  1
  Ta  Ta4  1  0.89310486  0.58217417  0.93267298  1
  Ta  Ta5  1  0.89667559  0.91724804  0.93543673  1
  Ta  Ta6  1  0.89163736  0.41520992  0.43193146  1
  Ta  Ta7  1  0.10266235  0.08140228  0.05873128  1
  Ta  Ta8  1  0.10621560  0.41557658  0.06766347  1
  Ta  Ta9  1  0.10731539  0.75059076  0.06088867  1
  Ta  Ta10  1  0.60805246  0.08452797  0.57226136  1
  Ta  Ta11  1  0.60824445  0.41716377  0.57038805  1
  Ta  Ta12  1  0.60765349  0.75032450  0.57432341  1
  Ta  Ta13  1  0.39310486  0.08217417  0.93267298  1
  Ta  Ta14  1  0.39667559  0.41724804  0.93543673  1
  Ta  Ta15  1  0.38945226  0.75165295  0.93137726  1
  Ta  Ta16  1  0.39163736  0.91520992  0.43193146  1
  Ta  Ta17  1  0.60731539  0.25059076  0.06088867  1
  Ta  Ta18  1  0.60266235  0.58140228  0.05873128  1
  Ta  Ta19  1  0.60621560  0.91557658  0.06766347  1
  Si  Si0  1  0.00064272  0.31948157  0.75168837  1
  Si  Si1  1  0.00079734  0.65335646  0.74463017  1
  Si  Si2  1  0.99838642  0.98567102  0.73582050  1
  Si  Si3  1  0.00255772  0.01372918  0.24845003  1
  Si  Si4  1  0.00054430  0.34616725  0.25140744  1
  Si  Si5  1  0.00203098  0.67980587  0.24788658  1
  Si  Si6  1  0.50079734  0.15335646  0.74463017  1
  Si  Si7  1  0.49838642  0.48567102  0.73582050  1
  Si  Si8  1  0.50064272  0.81948157  0.75168837  1
  Si  Si9  1  0.50203098  0.17980587  0.24788658  1
  Si  Si10  1  0.50255772  0.51372918  0.24845003  1
  Si  Si11  1  0.50054430  0.84616725  0.25140744  1
  Si  Si12  1  0.35487501  0.29774233  0.75262970  1
  Si  Si13  1  0.35271032  0.63183080  0.74841853  1
  Si  Si14  1  0.35563831  0.96337990  0.75375520  1
  Si  Si15  1  0.64145589  0.29772359  0.73304041  1
  Si  Si16  1  0.64490304  0.63045545  0.74269712  1
  Si  Si17  1  0.64531174  0.96338221  0.74461961  1
  Si  Si18  1  0.64415971  0.03425391  0.24586596  1
  Si  Si19  1  0.64309915  0.36826077  0.24734252  1
  Si  Si20  1  0.64002711  0.70130498  0.24161198  1
  Si  Si21  1  0.35461528  0.03579727  0.25576538  1
  Si  Si22  1  0.35622540  0.36932559  0.25570038  1
  Si  Si23  1  0.35525032  0.70434121  0.25637236  1
  Si  Si24  1  0.85271032  0.13183080  0.74841853  1
  Si  Si25  1  0.85563831  0.46337990  0.75375520  1
  Si  Si26  1  0.85487501  0.79774233  0.75262970  1
  Si  Si27  1  0.14490304  0.13045545  0.74269712  1
  Si  Si28  1  0.14531174  0.46338221  0.74461961  1
  Si  Si29  1  0.14145589  0.79772359  0.73304041  1
  Si  Si30  1  0.14002711  0.20130498  0.24161198  1
  Si  Si31  1  0.14415971  0.53425391  0.24586596  1
  Si  Si32  1  0.14309915  0.86826077  0.24734252  1
  Si  Si33  1  0.85525032  0.20434121  0.25637236  1
  Si  Si34  1  0.85461528  0.53579727  0.25576538  1
  Si  Si35  1  0.85622540  0.86932559  0.25570038  1
  O  O0  1  0.15239861  0.19185601  0.74219444  1
  O  O1  1  0.14744773  0.52398758  0.73665632  1
  O  O2  1  0.14846442  0.85895519  0.74018947  1
  O  O3  1  0.84688229  0.19136894  0.77077979  1
  O  O4  1  0.84946791  0.52374991  0.75866249  1
  O  O5  1  0.84913122  0.85775447  0.77475924  1
  O  O6  1  0.84558720  0.14543531  0.25187843  1
  O  O7  1  0.85113311  0.47548890  0.26538784  1
  O  O8  1  0.84288834  0.81106843  0.24726776  1
  O  O9  1  0.14448023  0.14046166  0.23567191  1
  O  O10  1  0.15084020  0.47314659  0.24474243  1
  O  O11  1  0.14509345  0.80810473  0.23507731  1
  O  O12  1  0.64744773  0.02398758  0.73665632  1
  O  O13  1  0.64846442  0.35895519  0.74018947  1
  O  O14  1  0.65239861  0.69185601  0.74219444  1
  O  O15  1  0.34946791  0.02374991  0.75866249  1
  O  O16  1  0.34913122  0.35775447  0.77475924  1
  O  O17  1  0.34688229  0.69136894  0.77077979  1
  O  O18  1  0.34288834  0.31106843  0.24726776  1
  O  O19  1  0.34558720  0.64543531  0.25187843  1
  O  O20  1  0.35113311  0.97548890  0.26538784  1
  O  O21  1  0.64509345  0.30810473  0.23507731  1
  O  O22  1  0.64448023  0.64046166  0.23567191  1
  O  O23  1  0.65084020  0.97314659  0.24474243  1
  O  O24  1  0.41972964  0.18324672  0.56586445  1
  O  O25  1  0.41808492  0.51581168  0.55601442  1
  O  O26  1  0.43563869  0.85662714  0.57809796  1
  O  O27  1  0.56881555  0.18881808  0.92534857  1
  O  O28  1  0.56268211  0.52376769  0.91165890  1
  O  O29  1  0.56826970  0.85509133  0.93128570  1
  O  O30  1  0.56986780  0.14184538  0.42407669  1
  O  O31  1  0.56625000  0.47618554  0.42326070  1
  O  O32  1  0.56973849  0.80949948  0.42550848  1
  O  O33  1  0.44255144  0.14071049  0.07714735  1
  O  O34  1  0.44103923  0.47803690  0.06917538  1
  O  O35  1  0.43648498  0.81274485  0.07087008  1
  O  O36  1  0.91808492  0.01581168  0.55601442  1
  O  O37  1  0.93563869  0.35662714  0.57809796  1
  O  O38  1  0.91972964  0.68324672  0.56586445  1
  O  O39  1  0.06268211  0.02376769  0.91165890  1
  O  O40  1  0.06826970  0.35509133  0.93128570  1
  O  O41  1  0.06881555  0.68881808  0.92534857  1
  O  O42  1  0.06973849  0.30949948  0.42550848  1
  O  O43  1  0.06986780  0.64184538  0.42407669  1
  O  O44  1  0.06625000  0.97618554  0.42326070  1
  O  O45  1  0.93648498  0.31274485  0.07087008  1
  O  O46  1  0.94255144  0.64071049  0.07714735  1
  O  O47  1  0.94103923  0.97803690  0.06917538  1
  O  O48  1  0.25807313  0.26980471  0.74178506  1
  O  O49  1  0.25813870  0.60240680  0.74256982  1
  O  O50  1  0.25724646  0.93785015  0.73664063  1
  O  O51  1  0.74726786  0.27583992  0.76345994  1
  O  O52  1  0.75150884  0.61026039  0.76698216  1
  O  O53  1  0.74701548  0.94294770  0.75830508  1
  O  O54  1  0.73401915  0.06002075  0.24153654  1
  O  O55  1  0.74526397  0.39291858  0.26942682  1
  O  O56  1  0.73391124  0.72656730  0.24627047  1
  O  O57  1  0.25832002  0.06418237  0.23847820  1
  O  O58  1  0.25729525  0.39670116  0.24261296  1
  O  O59  1  0.25623617  0.73024335  0.24238358  1
  O  O60  1  0.75813870  0.10240680  0.74256982  1
  O  O61  1  0.75724646  0.43785015  0.73664063  1
  O  O62  1  0.75807313  0.76980471  0.74178506  1
  O  O63  1  0.25150884  0.11026039  0.76698216  1
  O  O64  1  0.24701548  0.44294770  0.75830508  1
  O  O65  1  0.24726786  0.77583992  0.76345994  1
  O  O66  1  0.23391124  0.22656730  0.24627047  1
  O  O67  1  0.23401915  0.56002075  0.24153654  1
  O  O68  1  0.24526397  0.89291858  0.26942682  1
  O  O69  1  0.75623617  0.23024335  0.24238358  1
  O  O70  1  0.75832002  0.56418237  0.23847820  1
  O  O71  1  0.75729525  0.89670116  0.24261296  1
  O  O72  1  0.35313377  0.28910980  0.57662631  1
  O  O73  1  0.35021382  0.62160811  0.57243314  1
  O  O74  1  0.36437831  0.95137513  0.58527635  1
  O  O75  1  0.63611803  0.28420906  0.90896774  1
  O  O76  1  0.64523727  0.61899515  0.92398869  1
  O  O77  1  0.64336773  0.95067001  0.92214846  1
  O  O78  1  0.64409634  0.04613786  0.42597099  1
  O  O79  1  0.63669565  0.38072848  0.41762435  1
  O  O80  1  0.64199265  0.71398958  0.42413711  1
  O  O81  1  0.35761278  0.04863679  0.08125730  1
  O  O82  1  0.36017176  0.38998022  0.08792200  1
  O  O83  1  0.35769367  0.72277986  0.08618664  1
  O  O84  1  0.85021382  0.12160811  0.57243314  1
  O  O85  1  0.86437831  0.45137513  0.58527635  1
  O  O86  1  0.85313377  0.78910980  0.57662631  1
  O  O87  1  0.14523727  0.11899515  0.92398869  1
  O  O88  1  0.14336773  0.45067001  0.92214846  1
  O  O89  1  0.13611803  0.78420906  0.90896774  1
  O  O90  1  0.14199265  0.21398958  0.42413711  1
  O  O91  1  0.14409634  0.54613786  0.42597099  1
  O  O92  1  0.13669565  0.88072848  0.41762435  1
  O  O93  1  0.85769367  0.22277986  0.08618664  1
  O  O94  1  0.85761278  0.54863679  0.08125730  1
  O  O95  1  0.86017176  0.88998022  0.08792200  1
  O  O96  1  0.46270030  0.27480519  0.93438806  1
  O  O97  1  0.46220022  0.60864256  0.92795644  1
  O  O98  1  0.46490499  0.94306120  0.93749525  1
  O  O99  1  0.54023518  0.27807687  0.55302918  1
  O  O100  1  0.54341344  0.61047592  0.56217472  1
  O  O101  1  0.53770641  0.94234196  0.56550709  1
  O  O102  1  0.52963196  0.04951052  0.06828246  1
  O  O103  1  0.53673169  0.38891711  0.06375684  1
  O  O104  1  0.52961381  0.72205174  0.06772096  1
  O  O105  1  0.46396698  0.05654686  0.43672657  1
  O  O106  1  0.46194663  0.39160797  0.43993756  1
  O  O107  1  0.46465903  0.72450766  0.44086622  1
  O  O108  1  0.96220022  0.10864256  0.92795644  1
  O  O109  1  0.96490499  0.44306120  0.93749525  1
  O  O110  1  0.96270030  0.77480519  0.93438806  1
  O  O111  1  0.04341344  0.11047592  0.56217472  1
  O  O112  1  0.03770641  0.44234196  0.56550709  1
  O  O113  1  0.04023518  0.77807687  0.55302918  1
  O  O114  1  0.02961381  0.22205174  0.06772096  1
  O  O115  1  0.02963196  0.54951052  0.06828246  1
  O  O116  1  0.03673169  0.88891711  0.06375684  1
  O  O117  1  0.96465903  0.22450766  0.44086622  1
  O  O118  1  0.96396698  0.55654686  0.43672657  1
  O  O119  1  0.96194663  0.89160797  0.43993756  1
  O  O120  1  0.08203776  0.28509661  0.74034559  1
  O  O121  1  0.08363460  0.61680706  0.74097325  1
  O  O122  1  0.08451075  0.95014954  0.74329110  1
  O  O123  1  0.92092075  0.28274939  0.75835188  1
  O  O124  1  0.92905544  0.61421532  0.77388588  1
  O  O125  1  0.92265878  0.94861198  0.76181079  1
  O  O126  1  0.91823726  0.04778970  0.24497651  1
  O  O127  1  0.92332333  0.38368723  0.26327317  1
  O  O128  1  0.91696951  0.71240547  0.24498832  1
  O  O129  1  0.08669608  0.04746939  0.23953120  1
  O  O130  1  0.08614847  0.38028524  0.24541285  1
  O  O131  1  0.08808661  0.71236310  0.24185460  1
  O  O132  1  0.58363460  0.11680706  0.74097325  1
  O  O133  1  0.58451075  0.45014954  0.74329110  1
  O  O134  1  0.58203776  0.78509661  0.74034559  1
  O  O135  1  0.42905544  0.11421532  0.77388588  1
  O  O136  1  0.42265878  0.44861198  0.76181079  1
  O  O137  1  0.42092075  0.78274939  0.75835188  1
  O  O138  1  0.41696951  0.21240547  0.24498832  1
  O  O139  1  0.41823726  0.54778970  0.24497651  1
  O  O140  1  0.42332333  0.88368723  0.26327317  1
  O  O141  1  0.58808661  0.21236310  0.24185460  1
  O  O142  1  0.58669608  0.54746939  0.23953120  1
  O  O143  1  0.58614847  0.88028524  0.24541285  1
loop_
_geom_bond_atom_site_label_1
_geom_bond_atom_site_label_2
_geom_bond_distance
_geom_bond_site_symmetry_2
Na0 O18 2.322049 1_555
Na0 O66 2.427613 1_555
Na0 O138 2.456419 1_555
Na0 O48 2.530296 1_554
Na0 O120 2.559306 1_554
Na0 O0 2.649279 1_554
Na1 O19 2.314800 1_555
Na1 O67 2.405487 1_555
Na1 O139 2.421669 1_555
Na1 O49 2.513804 1_554
Na1 O121 2.558925 1_554
Na1 O1 2.759098 1_554
Na2 O2 2.445223 1_555
Na2 O122 2.455544 1_555
Na2 O50 2.540951 1_555
Na2 O68 2.543635 1_556
Na2 O140 2.557896 1_556
Na2 O20 2.600708 1_556
Na3 O51 2.436096 1_555
Na3 O21 2.439858 1_555
Na3 O123 2.459747 1_555
Na3 O69 2.535134 1_555
Na3 O141 2.554665 1_555
Na3 O3 2.663409 1_555
Na4 O142 2.345158 1_555
Na4 O4 2.431083 1_555
Na4 O70 2.524035 1_555
Na4 O52 2.539495 1_555
Na4 O22 2.609763 1_555
Na4 O124 2.745284 1_555
Na5 O53 2.448524 1_555
Na5 O143 2.484716 1_555
Na5 O71 2.498349 1_555
Na5 O125 2.512990 1_555
Na5 O5 2.517426 1_555
Na5 O23 2.521031 1_555
Na6 O6 2.314800 1_555
Na6 O54 2.405487 1_555
Na6 O126 2.421669 1_555
Na6 O60 2.513804 1_554
Na6 O132 2.558925 1_554
Na6 O12 2.759098 1_554
Na7 O13 2.445223 1_555
Na7 O133 2.455544 1_555
Na7 O61 2.540951 1_555
Na7 O55 2.543635 1_556
Na7 O127 2.557896 1_556
Na7 O7 2.600708 1_556
Na8 O8 2.322049 1_555
Na8 O56 2.427613 1_555
Na8 O128 2.456419 1_555
Na8 O62 2.530296 1_554
Na8 O134 2.559306 1_554
Na8 O14 2.649279 1_554
Na9 O129 2.345158 1_555
Na9 O15 2.431083 1_555
Na9 O57 2.524035 1_555
Na9 O63 2.539495 1_555
Na9 O9 2.609763 1_555
Na9 O135 2.745284 1_555
Na10 O64 2.448524 1_555
Na10 O130 2.484716 1_555
Na10 O58 2.498349 1_555
Na10 O136 2.512990 1_555
Na10 O16 2.517426 1_555
Na10 O10 2.521031 1_555
Na11 O65 2.436096 1_555
Na11 O11 2.439858 1_555
Na11 O137 2.459747 1_555
Na11 O59 2.535134 1_555
Na11 O131 2.554665 1_555
Na11 O17 2.663409 1_555
Na12 O12 2.411521 1_555
Na12 O135 2.436070 1_555
Na12 O15 2.461289 1_555
Na12 O132 2.531065 1_555
Na12 O105 2.630985 1_555
Na12 O102 2.639921 1_556
Na13 O13 2.420447 1_555
Na13 O106 2.436812 1_555
Na13 O16 2.522489 1_555
Na13 O72 2.644777 1_555
Na13 O136 2.678502 1_555
Na13 O133 2.754624 1_555
Na13 O103 2.859473 1_556
Na13 O75 2.888019 1_555
Na14 O107 2.479615 1_555
Na14 O14 2.500395 1_555
Na14 O17 2.500814 1_555
Na14 O137 2.642075 1_555
Na14 O73 2.724828 1_555
Na14 O134 2.751711 1_555
Na14 O104 2.873745 1_556
Na14 O76 2.969260 1_555
Na15 O99 2.286087 1_555
Na15 O138 2.406923 1_555
Na15 O18 2.444155 1_555
Na15 O21 2.523442 1_555
Na15 O141 2.605250 1_555
Na15 O96 2.772636 1_554
Na16 O100 2.310459 1_555
Na16 O139 2.384080 1_555
Na16 O19 2.394910 1_555
Na16 O22 2.527503 1_555
Na16 O142 2.623418 1_555
Na16 O97 2.880821 1_554
Na17 O20 2.425447 1_555
Na17 O23 2.439870 1_555
Na17 O140 2.512976 1_555
Na17 O101 2.604009 1_555
Na17 O98 2.646946 1_554
Na17 O143 2.679504 1_555
Na17 O78 2.916434 1_565
Na17 O81 2.949705 1_565
Na18 O117 2.479615 1_555
Na18 O0 2.500395 1_655
Na18 O3 2.500814 1_555
Na18 O123 2.642075 1_555
Na18 O84 2.724828 1_555
Na18 O120 2.751711 1_655
Na18 O114 2.873745 1_656
Na18 O87 2.969260 1_655
Na19 O1 2.411521 1_555
Na19 O124 2.436070 1_455
Na19 O4 2.461289 1_455
Na19 O121 2.531065 1_555
Na19 O118 2.630985 1_455
Na19 O115 2.639921 1_556
Na20 O2 2.420447 1_655
Na20 O119 2.436812 1_555
Na20 O5 2.522489 1_555
Na20 O86 2.644777 1_555
Na20 O125 2.678502 1_555
Na20 O122 2.754624 1_655
Na20 O116 2.859473 1_656
Na20 O89 2.888019 1_655
Na21 O111 2.310459 1_555
Na21 O126 2.384080 1_455
Na21 O6 2.394910 1_455
Na21 O9 2.527503 1_555
Na21 O129 2.623418 1_555
Na21 O108 2.880821 1_454
Na22 O7 2.425447 1_555
Na22 O10 2.439870 1_655
Na22 O127 2.512976 1_555
Na22 O112 2.604009 1_655
Na22 O109 2.646946 1_554
Na22 O130 2.679504 1_655
Na22 O91 2.916434 1_655
Na22 O94 2.949705 1_555
Na23 O113 2.286087 1_555
Na23 O128 2.406923 1_455
Na23 O8 2.444155 1_455
Na23 O11 2.523442 1_555
Na23 O131 2.605250 1_555
Na23 O110 2.772636 1_454
Na24 O128 2.335967 1_555
Na24 O56 2.337544 1_555
Na24 O70 2.524774 1_555
Na24 O38 2.539191 1_555
Na24 O22 2.573411 1_555
Na24 O76 2.699059 1_554
Na25 O126 2.336155 1_565
Na25 O36 2.395533 1_565
Na25 O54 2.400480 1_565
Na25 O71 2.569514 1_555
Na25 O23 2.619662 1_555
Na25 O77 2.829976 1_554
Na26 O72 2.331379 1_555
Na26 O66 2.338240 1_555
Na26 O18 2.424120 1_555
Na26 O130 2.587468 1_555
Na26 O58 2.662609 1_555
Na27 O73 2.337479 1_555
Na27 O19 2.366135 1_555
Na27 O67 2.419614 1_555
Na27 O131 2.495371 1_555
Na27 O59 2.538219 1_555
Na28 O78 2.418594 1_555
Na28 O60 2.464836 1_555
Na28 O36 2.480262 1_555
Na28 O125 2.513407 1_545
Na28 O53 2.726958 1_545
Na28 O12 2.955048 1_555
Na29 O80 2.413393 1_555
Na29 O38 2.446595 1_555
Na29 O62 2.486331 1_555
Na29 O124 2.586506 1_555
Na29 O52 2.684334 1_555
Na30 O138 2.335967 1_555
Na30 O66 2.337544 1_555
Na30 O57 2.524774 1_555
Na30 O24 2.539191 1_555
Na30 O9 2.573411 1_555
Na30 O87 2.699059 1_554
Na31 O139 2.336155 1_555
Na31 O25 2.395533 1_555
Na31 O67 2.400480 1_555
Na31 O58 2.569514 1_555
Na31 O10 2.619662 1_555
Na31 O88 2.829976 1_554
Na32 O84 2.337479 1_555
Na32 O6 2.366135 1_555
Na32 O54 2.419614 1_555
Na32 O141 2.495371 1_555
Na32 O69 2.538219 1_555
Na33 O86 2.331379 1_555
Na33 O56 2.338240 1_555
Na33 O8 2.424120 1_555
Na33 O143 2.587468 1_555
Na33 O71 2.662609 1_555
Na34 O90 2.413393 1_555
Na34 O24 2.446595 1_555
Na34 O48 2.486331 1_555
Na34 O135 2.586506 1_555
Na34 O63 2.684334 1_555
Na35 O91 2.418594 1_555
Na35 O49 2.464836 1_555
Na35 O25 2.480262 1_555
Na35 O136 2.513407 1_555
Na35 O64 2.726958 1_555
Na35 O1 2.955048 1_555
Mg0 O111 2.018560 1_655
Mg0 O36 2.043651 1_555
Mg0 O84 2.065099 1_555
Mg0 O126 2.166312 1_555
Mg0 O6 2.186954 1_555
Mg0 O54 2.230527 1_555
Mg1 O113 2.011855 1_655
Mg1 O38 2.049447 1_555
Mg1 O86 2.071630 1_555
Mg1 O128 2.182391 1_555
Mg1 O8 2.195610 1_555
Mg1 O56 2.214101 1_555
Mg2 O99 2.011855 1_555
Mg2 O24 2.049447 1_555
Mg2 O72 2.071630 1_555
Mg2 O138 2.182391 1_555
Mg2 O18 2.195610 1_555
Mg2 O66 2.214101 1_555
Mg3 O100 2.018560 1_555
Mg3 O25 2.043651 1_555
Mg3 O73 2.065099 1_555
Mg3 O139 2.166312 1_555
Mg3 O19 2.186954 1_555
Mg3 O67 2.230527 1_555
O0 Si27 1.670619 1_555
O0 Ta0 2.022019 1_555
O1 Si28 1.647514 1_555
O1 Ta1 2.057218 1_555
O2 Si29 1.664460 1_555
O2 Ta2 2.033453 1_555
O3 Si24 1.639311 1_555
O3 Ta3 2.034003 1_555
O4 Si25 1.644447 1_555
O4 Ta4 2.059877 1_555
O5 Si26 1.651505 1_555
O5 Ta5 2.011943 1_555
O6 Si33 1.604107 1_555
O7 Si34 1.641431 1_555
O7 Ta6 2.060377 1_555
O8 Si35 1.590813 1_555
O9 Si30 1.655898 1_555
O9 Ta7 2.092057 1_555
O10 Si31 1.663091 1_555
O10 Ta8 2.056593 1_555
O11 Si32 1.638949 1_555
O11 Ta9 2.054063 1_555
O12 Si17 1.647514 1_545
O12 Ta10 2.057218 1_555
O13 Si15 1.664460 1_555
O13 Ta11 2.033453 1_555
O14 Si16 1.670619 1_555
O14 Ta12 2.022019 1_555
O15 Si14 1.644447 1_545
O15 Ta13 2.059877 1_555
O16 Si12 1.651505 1_555
O16 Ta14 2.011943 1_555
O17 Si13 1.639311 1_555
O17 Ta15 2.034003 1_555
O18 Si22 1.590813 1_555
O19 Si23 1.604107 1_555
O20 Si21 1.641431 1_565
O20 Ta16 2.060377 1_555
O21 Si19 1.638949 1_555
O21 Ta17 2.054063 1_555
O22 Si20 1.655898 1_555
O22 Ta18 2.092057 1_555
O23 Si18 1.663091 1_565
O23 Ta19 2.056593 1_555
O24 Si6 1.592790 1_555
O25 Si7 1.598934 1_555
O26 Si8 1.639077 1_555
O26 Ta16 1.923979 1_555
O27 Si6 1.657606 1_555
O27 Ta17 1.960292 1_556
O28 Si7 1.669580 1_555
O28 Ta18 1.915002 1_556
O29 Si8 1.653198 1_555
O29 Ta19 1.934452 1_556
O30 Si9 1.670437 1_555
O30 Ta10 1.910279 1_555
O31 Si10 1.650984 1_555
O31 Ta11 1.939300 1_555
O32 Si11 1.640224 1_555
O32 Ta12 1.954758 1_555
O33 Si9 1.655332 1_555
O33 Ta13 1.919077 1_554
O34 Si10 1.648024 1_555
O34 Ta14 1.927617 1_554
O35 Si11 1.621229 1_555
O35 Ta15 1.957020 1_554
O36 Si2 1.598934 1_545
O37 Si0 1.639077 1_655
O37 Ta6 1.923979 1_555
O38 Si1 1.592790 1_655
O39 Si2 1.669580 1_445
O39 Ta7 1.915002 1_556
O40 Si0 1.653198 1_555
O40 Ta8 1.934452 1_556
O41 Si1 1.657606 1_555
O41 Ta9 1.960292 1_556
O42 Si4 1.640224 1_555
O42 Ta0 1.954758 1_555
O43 Si5 1.670437 1_555
O43 Ta1 1.910279 1_555
O44 Si3 1.650984 1_565
O44 Ta2 1.939300 1_555
O45 Si4 1.621229 1_655
O45 Ta3 1.957020 1_554
O46 Si5 1.655332 1_655
O46 Ta4 1.919077 1_554
O47 Si3 1.648024 1_665
O47 Ta5 1.927617 1_554
O48 Si12 1.652189 1_555
O48 Ta0 2.016672 1_555
O49 Si13 1.661501 1_555
O49 Ta1 2.004138 1_555
O50 Si14 1.619679 1_555
O50 Ta2 2.008082 1_555
O51 Si15 1.639697 1_555
O51 Ta3 1.963846 1_555
O52 Si16 1.659391 1_555
O52 Ta4 1.993260 1_555
O53 Si17 1.634197 1_555
O53 Ta5 2.069725 1_555
O54 Si18 1.597015 1_555
O55 Si19 1.643583 1_555
O55 Ta6 1.987595 1_555
O56 Si20 1.606274 1_555
O57 Si21 1.630096 1_555
O57 Ta7 2.074766 1_555
O58 Si22 1.671476 1_555
O58 Ta8 2.028351 1_555
O59 Si23 1.651284 1_555
O59 Ta9 2.022263 1_555
O60 Si24 1.661501 1_555
O60 Ta10 2.004138 1_555
O61 Si25 1.619679 1_555
O61 Ta11 2.008082 1_555
O62 Si26 1.652189 1_555
O62 Ta12 2.016672 1_555
O63 Si27 1.659391 1_555
O63 Ta13 1.993260 1_555
O64 Si28 1.634197 1_555
O64 Ta14 2.069725 1_555
O65 Si29 1.639697 1_555
O65 Ta15 1.963846 1_555
O66 Si30 1.606274 1_555
O67 Si31 1.597015 1_555
O68 Si32 1.643583 1_555
O68 Ta16 1.987595 1_555
O69 Si33 1.651284 1_555
O69 Ta17 2.022263 1_555
O70 Si34 1.630096 1_555
O70 Ta18 2.074766 1_555
O71 Si35 1.671476 1_555
O71 Ta19 2.028351 1_555
O72 Si12 1.598027 1_555
O73 Si13 1.598385 1_555
O74 Si14 1.644234 1_555
O74 Ta16 1.944624 1_555
O75 Si15 1.683164 1_555
O75 Ta17 1.907296 1_556
O76 Si16 1.668123 1_555
O76 Ta18 1.976537 1_556
O77 Si17 1.661611 1_555
O77 Ta19 1.964781 1_556
O78 Si18 1.666024 1_555
O78 Ta10 2.012240 1_555
O79 Si19 1.640339 1_555
O79 Ta11 1.955861 1_555
O80 Si20 1.674148 1_555
O80 Ta12 1.995299 1_555
O81 Si21 1.645126 1_555
O81 Ta13 1.950600 1_554
O82 Si22 1.652782 1_555
O82 Ta14 1.920686 1_554
O83 Si23 1.640967 1_555
O83 Ta15 1.904406 1_554
O84 Si24 1.598385 1_555
O85 Si25 1.644234 1_555
O85 Ta6 1.944624 1_555
O86 Si26 1.598027 1_555
O87 Si27 1.668123 1_555
O87 Ta7 1.976537 1_556
O88 Si28 1.661611 1_555
O88 Ta8 1.964781 1_556
O89 Si29 1.683164 1_555
O89 Ta9 1.907296 1_556
O90 Si30 1.674148 1_555
O90 Ta0 1.995299 1_555
O91 Si31 1.666024 1_555
O91 Ta1 2.012240 1_555
O92 Si32 1.640339 1_555
O92 Ta2 1.955861 1_555
O93 Si33 1.640967 1_555
O93 Ta3 1.904406 1_554
O94 Si34 1.645126 1_555
O94 Ta4 1.950600 1_554
O95 Si35 1.652782 1_555
O95 Ta5 1.920686 1_554
O96 Si12 1.665951 1_555
O96 Ta17 1.986606 1_556
O97 Si13 1.672829 1_555
O97 Ta18 1.961013 1_556
O98 Si14 1.658505 1_555
O98 Ta19 1.974293 1_556
O99 Si15 1.582047 1_555
O100 Si16 1.588970 1_555
O101 Si17 1.635859 1_555
O101 Ta16 2.024695 1_555
O102 Si18 1.638610 1_555
O102 Ta13 1.974042 1_554
O103 Si19 1.640358 1_555
O103 Ta14 1.968545 1_554
O104 Si20 1.637399 1_555
O104 Ta15 1.981008 1_554
O105 Si21 1.652683 1_555
O105 Ta10 2.007870 1_555
O106 Si22 1.654010 1_555
O106 Ta11 2.014249 1_555
O107 Si23 1.660734 1_555
O107 Ta12 1.973719 1_555
O108 Si24 1.672829 1_555
O108 Ta7 1.961013 1_656
O109 Si25 1.658505 1_555
O109 Ta8 1.974293 1_656
O110 Si26 1.665951 1_555
O110 Ta9 1.986606 1_656
O111 Si27 1.588970 1_555
O112 Si28 1.635859 1_555
O112 Ta6 2.024695 1_455
O113 Si29 1.582047 1_555
O114 Si30 1.637399 1_555
O114 Ta3 1.981008 1_454
O115 Si31 1.638610 1_555
O115 Ta4 1.974042 1_454
O116 Si32 1.640358 1_555
O116 Ta5 1.968545 1_454
O117 Si33 1.660734 1_555
O117 Ta0 1.973719 1_655
O118 Si34 1.652683 1_555
O118 Ta1 2.007870 1_655
O119 Si35 1.654010 1_555
O119 Ta2 2.014249 1_655
O120 Si0 1.640088 1_555
O120 Ta0 2.007948 1_555
O121 Si1 1.658605 1_555
O121 Ta1 1.986155 1_555
O122 Si2 1.637633 1_455
O122 Ta2 2.021429 1_555
O123 Si0 1.628312 1_655
O123 Ta3 2.072563 1_555
O124 Si1 1.675771 1_655
O124 Ta4 2.017315 1_555
O125 Si2 1.673736 1_555
O125 Ta5 2.023387 1_555
O126 Si3 1.607504 1_655
O127 Si4 1.640721 1_655
O127 Ta6 2.051912 1_555
O128 Si5 1.597011 1_655
O129 Si3 1.647654 1_555
O129 Ta7 2.013803 1_555
O130 Si4 1.659169 1_555
O130 Ta8 2.045027 1_555
O131 Si5 1.642218 1_555
O131 Ta9 2.100484 1_555
O132 Si6 1.658605 1_555
O132 Ta10 1.986155 1_555
O133 Si7 1.637633 1_555
O133 Ta11 2.021429 1_555
O134 Si8 1.640088 1_555
O134 Ta12 2.007948 1_555
O135 Si6 1.675771 1_555
O135 Ta13 2.017315 1_555
O136 Si7 1.673736 1_555
O136 Ta14 2.023387 1_555
O137 Si8 1.628312 1_555
O137 Ta15 2.072563 1_555
O138 Si9 1.597011 1_555
O139 Si10 1.607504 1_555
O140 Si11 1.640721 1_555
O140 Ta16 2.051912 1_555
O141 Si9 1.642218 1_555
O141 Ta17 2.100484 1_555
O142 Si10 1.647654 1_555
O142 Ta18 2.013803 1_555
O143 Si11 1.659169 1_555
O143 Ta19 2.045027 1_555
