# generated using pymatgen
data_Na4Ti2Al2Si3(SO8)3
_symmetry_space_group_name_H-M   'P 1'
_cell_length_a   8.72677816
_cell_length_b   8.68376814
_cell_length_c   22.12786423
_cell_angle_alpha   90.00374817
_cell_angle_beta   88.84967830
_cell_angle_gamma   119.70275813
_symmetry_Int_Tables_number   1
_chemical_formula_structural   Na4Ti2Al2Si3(SO8)3
_chemical_formula_sum   'Na12 Ti6 Al6 Si9 S9 O72'
_cell_volume   1456.16187492
_cell_formula_units_Z   3
loop_
 _symmetry_equiv_pos_site_id
 _symmetry_equiv_pos_as_xyz
  1  'x, y, z'
loop_
 _atom_site_type_symbol
 _atom_site_label
 _atom_site_symmetry_multiplicity
 _atom_site_fract_x
 _atom_site_fract_y
 _atom_site_fract_z
 _atom_site_occupancy
  Na  Na0  1  0.99771002  0.64012720  0.25234217  1
  Na  Na1  1  0.99685060  0.36094592  0.74521928  1
  Na  Na2  1  0.66521387  0.97232450  0.58752303  1
  Na  Na3  1  0.66864837  0.69946582  0.08249581  1
  Na  Na4  1  0.33402542  0.30229156  0.90939834  1
  Na  Na5  1  0.32724505  0.02806676  0.41959457  1
  Na  Na6  1  0.00633555  0.99856507  0.50153235  1
  Na  Na7  1  0.99367058  0.99092100  0.99722961  1
  Na  Na8  1  0.65989620  0.32803471  0.82545928  1
  Na  Na9  1  0.66439656  0.33999622  0.33320767  1
  Na  Na10  1  0.33347031  0.67100134  0.16808767  1
  Na  Na11  1  0.33036304  0.66805374  0.66213885  1
  Ti  Ti0  1  0.01360942  0.02480374  0.64528194  1
  Ti  Ti1  1  0.99893536  0.97862267  0.15075691  1
  Ti  Ti2  1  0.68102625  0.35723219  0.97971111  1
  Ti  Ti3  1  0.67884311  0.33627125  0.48519829  1
  Ti  Ti4  1  0.33165840  0.67251106  0.31212086  1
  Ti  Ti5  1  0.35737209  0.66597674  0.80769827  1
  Al  Al0  1  0.00007230  0.97685323  0.35054604  1
  Al  Al1  1  0.98334258  0.98941684  0.84511543  1
  Al  Al2  1  0.65021095  0.30453229  0.68600153  1
  Al  Al3  1  0.67087009  0.34085226  0.19010422  1
  Al  Al4  1  0.33081046  0.67445476  0.01661822  1
  Al  Al5  1  0.30291862  0.66631093  0.52285533  1
  Si  Si0  1  0.30189507  0.01459574  0.25192000  1
  Si  Si1  1  0.70506233  0.70531791  0.25247236  1
  Si  Si2  1  0.29592124  0.27928064  0.75327006  1
  Si  Si3  1  0.71717768  0.00643237  0.74931139  1
  Si  Si4  1  0.96052161  0.34493586  0.58751506  1
  Si  Si5  1  0.37599322  0.04091077  0.58254453  1
  Si  Si6  1  0.96858609  0.61897152  0.08566007  1
  Si  Si7  1  0.63174160  0.68491381  0.91871318  1
  Si  Si8  1  0.03684966  0.66501951  0.41779865  1
  S  S0  1  0.99750874  0.28040857  0.25065994  1
  S  S1  1  0.99902619  0.71301963  0.75097670  1
  S  S2  1  0.66378665  0.61870414  0.58440813  1
  S  S3  1  0.66499354  0.04870474  0.08347653  1
  S  S4  1  0.37500134  0.33296437  0.08351659  1
  S  S5  1  0.04537997  0.37868469  0.91807349  1
  S  S6  1  0.33228622  0.95302279  0.91759848  1
  S  S7  1  0.62853145  0.95285612  0.41636532  1
  S  S8  1  0.32866499  0.38040906  0.41711674  1
  O  O0  1  0.20841604  0.04199698  0.31116932  1
  O  O1  1  0.83954987  0.80300977  0.30614655  1
  O  O2  1  0.97201826  0.17408996  0.30523980  1
  O  O3  1  0.19959964  0.16431421  0.81479008  1
  O  O4  1  0.97343864  0.79529438  0.80662024  1
  O  O5  1  0.83762800  0.03876566  0.80760172  1
  O  O6  1  0.79609381  0.96146852  0.68857720  1
  O  O7  1  0.16148194  0.19840705  0.69554962  1
  O  O8  1  0.03246158  0.82254674  0.69674370  1
  O  O9  1  0.79310422  0.82860929  0.18910364  1
  O  O10  1  0.02656032  0.20210708  0.19483536  1
  O  O11  1  0.16210515  0.96458014  0.19390144  1
  O  O12  1  0.86515378  0.37056178  0.64653446  1
  O  O13  1  0.50388213  0.13075384  0.63865896  1
  O  O14  1  0.63548030  0.50938820  0.63824886  1
  O  O15  1  0.86348641  0.49547059  0.14318776  1
  O  O16  1  0.63760136  0.12965420  0.13780069  1
  O  O17  1  0.49041153  0.36348662  0.13521585  1
  O  O18  1  0.45429543  0.30264687  0.02681956  1
  O  O19  1  0.83118535  0.52847181  0.02702892  1
  O  O20  1  0.68650006  0.15467067  0.02802096  1
  O  O21  1  0.46266010  0.16348132  0.51999675  1
  O  O22  1  0.69471519  0.53744525  0.52844479  1
  O  O23  1  0.82938552  0.30115197  0.52820197  1
  O  O24  1  0.52832015  0.69550496  0.97943154  1
  O  O25  1  0.15810260  0.46681753  0.97081720  1
  O  O26  1  0.30516351  0.84300195  0.97266049  1
  O  O27  1  0.55022414  0.84577309  0.47166475  1
  O  O28  1  0.31048252  0.46830477  0.47143496  1
  O  O29  1  0.17490346  0.70721171  0.47133101  1
  O  O30  1  0.13386224  0.63739094  0.35615672  1
  O  O31  1  0.51153626  0.86885230  0.36315197  1
  O  O32  1  0.35823690  0.49008042  0.36136476  1
  O  O33  1  0.11678702  0.48486805  0.86238383  1
  O  O34  1  0.35878174  0.87155413  0.86333957  1
  O  O35  1  0.49428643  0.62976356  0.86190193  1
  O  O36  1  0.02628418  0.84781476  0.41049583  1
  O  O37  1  0.80730855  0.97913959  0.40654317  1
  O  O38  1  0.16716705  0.20290054  0.41166351  1
  O  O39  1  0.03105687  0.20204388  0.91472449  1
  O  O40  1  0.17655651  0.97776703  0.91449019  1
  O  O41  1  0.82903921  0.84776617  0.90815534  1
  O  O42  1  0.96627478  0.15629694  0.58869450  1
  O  O43  1  0.17716614  0.01309626  0.59061543  1
  O  O44  1  0.82321070  0.79712255  0.58712094  1
  O  O45  1  0.97400599  0.81403998  0.08815024  1
  O  O46  1  0.82545383  0.02877209  0.08654970  1
  O  O47  1  0.19719054  0.17764946  0.08963878  1
  O  O48  1  0.69924312  0.18265051  0.74430952  1
  O  O49  1  0.49335815  0.31863324  0.74146197  1
  O  O50  1  0.84177732  0.53613514  0.74706386  1
  O  O51  1  0.69854646  0.51725973  0.24155804  1
  O  O52  1  0.84082625  0.30500856  0.24467142  1
  O  O53  1  0.49433279  0.17705233  0.23714959  1
  O  O54  1  0.63842266  0.49290299  0.92591627  1
  O  O55  1  0.86307285  0.35350503  0.92611661  1
  O  O56  1  0.49222647  0.13360902  0.92418732  1
  O  O57  1  0.63647643  0.12938754  0.41998181  1
  O  O58  1  0.48481228  0.35335665  0.41956867  1
  O  O59  1  0.84061390  0.48834209  0.42289648  1
  O  O60  1  0.36281532  0.49776775  0.07665863  1
  O  O61  1  0.16118369  0.64265239  0.07212621  1
  O  O62  1  0.50819571  0.86532209  0.07831720  1
  O  O63  1  0.37236994  0.85197095  0.57339805  1
  O  O64  1  0.50846371  0.64179883  0.57528661  1
  O  O65  1  0.15702201  0.50552656  0.57648423  1
  O  O66  1  0.30511067  0.82502140  0.25653828  1
  O  O67  1  0.50927897  0.68318272  0.25809582  1
  O  O68  1  0.15605171  0.46286398  0.25404942  1
  O  O69  1  0.29807993  0.47433102  0.75916889  1
  O  O70  1  0.15649802  0.68792800  0.75868959  1
  O  O71  1  0.51618290  0.83110192  0.75775252  1
loop_
_geom_bond_atom_site_label_1
_geom_bond_atom_site_label_2
_geom_bond_distance
_geom_bond_site_symmetry_2
Na0 O51 2.296907 1_555
Na0 O66 2.350431 1_655
Na0 O68 2.527909 1_655
Na0 O52 2.536296 1_555
Na0 O30 2.612851 1_655
Na0 O1 2.681716 1_555
Na0 O15 2.727447 1_555
Na0 O11 2.754803 1_655
Na1 O48 2.271551 1_555
Na1 O69 2.332949 1_655
Na1 O50 2.487053 1_555
Na1 O70 2.487672 1_655
Na1 O12 2.508428 1_555
Na1 O7 2.685194 1_655
Na1 O5 2.781105 1_555
Na1 O33 2.822675 1_655
Na2 O63 2.259679 1_555
Na2 O42 2.301909 1_565
Na2 O44 2.508831 1_555
Na2 O64 2.511275 1_555
Na2 O6 2.553996 1_555
Na2 O13 2.647760 1_565
Na2 O27 2.792361 1_555
Na2 O23 2.792868 1_565
Na3 O45 2.343627 1_555
Na3 O60 2.364085 1_555
Na3 O62 2.459129 1_555
Na3 O46 2.486965 1_565
Na3 O24 2.602373 1_554
Na3 O9 2.626336 1_555
Na3 O17 2.778997 1_555
Na3 O19 2.782136 1_555
Na4 O39 2.338529 1_555
Na4 O54 2.368836 1_555
Na4 O3 2.428946 1_555
Na4 O40 2.449251 1_545
Na4 O56 2.486168 1_555
Na4 O35 2.673430 1_555
Na4 O18 2.821162 1_556
Na4 O25 2.887016 1_555
Na5 O36 2.309937 1_545
Na5 O57 2.388422 1_555
Na5 O58 2.453710 1_555
Na5 O38 2.529620 1_555
Na5 O21 2.538329 1_555
Na5 O0 2.659039 1_555
Na5 O29 2.666386 1_545
Na5 O31 2.860179 1_545
Na6 O36 2.452224 1_555
Na6 O43 2.460822 1_565
Na6 O42 2.483017 1_465
Na6 O44 2.511825 1_455
Na6 O38 2.548204 1_565
Na6 O37 2.705431 1_455
Na7 O41 2.416165 1_555
Na7 O40 2.444503 1_655
Na7 O45 2.482279 1_556
Na7 O39 2.486843 1_665
Na7 O46 2.555588 1_566
Na7 O47 2.693768 1_666
Na8 O48 2.311006 1_555
Na8 O49 2.358902 1_555
Na8 O50 2.416932 1_555
Na8 O56 2.681068 1_555
Na8 O54 2.697189 1_555
Na8 O55 2.814888 1_555
Na9 O51 2.468331 1_555
Na9 O59 2.474281 1_555
Na9 O58 2.486227 1_555
Na9 O57 2.575096 1_555
Na9 O52 2.577480 1_555
Na9 O53 2.601522 1_555
Na10 O66 2.447254 1_555
Na10 O67 2.508734 1_555
Na10 O68 2.528065 1_555
Na10 O62 2.539157 1_555
Na10 O61 2.567368 1_555
Na10 O60 2.604263 1_555
Na11 O65 2.423134 1_555
Na11 O63 2.435631 1_555
Na11 O64 2.528311 1_555
Na11 O71 2.640576 1_555
Na11 O70 2.650603 1_555
Na11 O69 2.650609 1_555
Al0 O1 1.779298 1_455
Al0 O0 1.817179 1_565
Al0 O36 1.825949 1_555
Al0 O37 2.077252 1_455
Al0 O2 2.103371 1_465
Al0 O38 2.247377 1_565
Al1 O5 1.752762 1_565
Al1 O3 1.851321 1_665
Al1 O4 1.852857 1_555
Al1 O41 1.885605 1_555
Al1 O39 2.284422 1_665
Al1 O40 2.341550 1_655
Al2 O13 1.774592 1_555
Al2 O48 1.854490 1_555
Al2 O12 1.865039 1_555
Al2 O49 1.869055 1_555
Al2 O14 2.128368 1_555
Al2 O50 2.328885 1_555
Al3 O53 1.801264 1_555
Al3 O51 1.829064 1_555
Al3 O15 1.843784 1_555
Al3 O16 2.067091 1_555
Al3 O52 2.069800 1_555
Al3 O17 2.092232 1_555
Al4 O61 1.816070 1_555
Al4 O24 1.819954 1_554
Al4 O26 1.863325 1_554
Al4 O25 1.979343 1_554
Al4 O62 2.132912 1_555
Al4 O60 2.153379 1_555
Al5 O29 1.765923 1_555
Al5 O65 1.776680 1_555
Al5 O63 1.809992 1_555
Al5 O28 2.089181 1_555
Al5 O27 2.222271 1_555
Al5 O64 2.251854 1_555
O0 Si0 1.609460 1_555
O1 Si1 1.605267 1_555
O2 S0 1.465034 1_555
O3 Si2 1.636769 1_555
O4 S1 1.491069 1_555
O5 Si3 1.615344 1_555
O6 Si3 1.631596 1_565
O6 Ti0 1.927685 1_665
O7 Si2 1.656653 1_555
O7 Ti0 1.817879 1_555
O8 S1 1.463202 1_455
O8 Ti0 2.168572 1_565
O9 Si1 1.686574 1_555
O9 Ti1 1.806528 1_555
O10 S0 1.486834 1_455
O10 Ti1 2.078765 1_445
O11 Si0 1.691976 1_565
O11 Ti1 1.783427 1_455
O12 Si4 1.608598 1_555
O13 Si5 1.608940 1_555
O14 S2 1.462012 1_555
O15 Si6 1.609452 1_555
O16 S3 1.466678 1_555
O17 S4 1.474795 1_555
O18 S4 1.505912 1_555
O18 Ti2 2.052823 1_554
O19 Si6 1.693237 1_555
O19 Ti2 1.774397 1_554
O20 S3 1.485773 1_555
O20 Ti2 2.079583 1_554
O21 Si5 1.667604 1_555
O21 Ti3 1.881505 1_555
O22 S2 1.509796 1_555
O22 Ti3 1.937029 1_555
O23 Si4 1.675061 1_555
O23 Ti3 1.780934 1_555
O24 Si7 1.631490 1_555
O25 S5 1.488434 1_555
O26 S6 1.489223 1_555
O27 S7 1.471685 1_555
O28 S8 1.471282 1_555
O29 Si8 1.615140 1_555
O30 Si8 1.670238 1_555
O30 Ti4 1.852788 1_555
O31 S7 1.507026 1_555
O31 Ti4 2.016137 1_555
O32 S8 1.496444 1_555
O32 Ti4 2.031087 1_555
O33 S5 1.468665 1_555
O33 Ti5 2.229738 1_555
O34 S6 1.465034 1_555
O34 Ti5 2.163680 1_555
O35 Si7 1.655218 1_555
O35 Ti5 1.842556 1_555
O36 Si8 1.643159 1_555
O37 S7 1.472040 1_555
O38 S8 1.493588 1_555
O39 S5 1.477952 1_555
O40 S6 1.480195 1_555
O41 Si7 1.609312 1_555
O42 Si4 1.663768 1_555
O42 Ti0 1.879032 1_655
O43 Si5 1.634967 1_555
O43 Ti0 1.893492 1_555
O44 S2 1.485554 1_555
O44 Ti0 2.270709 1_665
O45 Si6 1.671934 1_555
O45 Ti1 1.926876 1_555
O46 S3 1.496480 1_555
O46 Ti1 2.289113 1_545
O47 S4 1.470648 1_555
O47 Ti1 2.180018 1_445
O48 Si3 1.617539 1_555
O49 Si2 1.597554 1_555
O50 S1 1.471693 1_555
O51 Si1 1.623854 1_555
O52 S0 1.493163 1_555
O53 Si0 1.596076 1_555
O54 Si7 1.704611 1_555
O54 Ti2 1.842615 1_555
O55 S5 1.501505 1_655
O55 Ti2 1.976535 1_555
O56 S6 1.505859 1_545
O56 Ti2 2.214805 1_555
O57 S7 1.502015 1_545
O57 Ti3 2.193080 1_555
O58 S8 1.495052 1_555
O58 Ti3 2.312118 1_555
O59 Si8 1.639448 1_655
O59 Ti3 1.926657 1_555
O60 S4 1.494632 1_555
O61 Si6 1.610650 1_455
O62 S3 1.506032 1_565
O63 Si5 1.637893 1_565
O64 S2 1.482780 1_555
O65 Si4 1.599464 1_455
O66 Si0 1.663486 1_565
O66 Ti4 1.906841 1_555
O67 Si1 1.624072 1_555
O67 Ti4 1.903587 1_555
O68 S0 1.503983 1_455
O68 Ti4 2.151273 1_555
O69 Si2 1.689588 1_555
O69 Ti5 1.832809 1_555
O70 S1 1.507065 1_455
O70 Ti5 2.166296 1_555
O71 Si3 1.664323 1_565
O71 Ti5 1.779778 1_555
