# generated using pymatgen
data_CeIn5Rh
_symmetry_space_group_name_H-M   'P 1'
_cell_length_a   4.69550091
_cell_length_b   4.69550091
_cell_length_c   7.53623680
_cell_angle_alpha   90.00000000
_cell_angle_beta   90.00000000
_cell_angle_gamma   90.00000000
_symmetry_Int_Tables_number   1
_chemical_formula_structural   CeIn5Rh
_chemical_formula_sum   'Ce1 In5 Rh1'
_cell_volume   166.15690511
_cell_formula_units_Z   1
loop_
 _symmetry_equiv_pos_site_id
 _symmetry_equiv_pos_as_xyz
  1  'x, y, z'
loop_
 _atom_site_type_symbol
 _atom_site_label
 _atom_site_symmetry_multiplicity
 _atom_site_fract_x
 _atom_site_fract_y
 _atom_site_fract_z
 _atom_site_occupancy
  Ce  Ce0  1  -0.00000000  0.00000000  -0.00000000  1
  In  In0  1  0.50000000  0.50000000  -0.00000000  1
  In  In1  1  0.50000000  -0.00000000  0.69518255  1
  In  In2  1  -0.00000000  0.50000000  0.30481745  1
  In  In3  1  0.50000000  0.00000000  0.30481745  1
  In  In4  1  0.00000000  0.50000000  0.69518255  1
  Rh  Rh0  1  -0.00000000  0.00000000  0.50000000  1
loop_
_geom_bond_atom_site_label_1
_geom_bond_atom_site_label_2
_geom_bond_distance
_geom_bond_site_symmetry_2
Ce0 In3 3.284654 1_555
Ce0 In4 3.284654 1_554
Ce0 In1 3.284654 1_454
Ce0 In1 3.284654 1_554
Ce0 In2 3.284654 1_555
Ce0 In4 3.284654 1_544
Ce0 In2 3.284654 1_545
Ce0 In3 3.284654 1_455
Ce0 In0 3.320221 1_455
Ce0 In0 3.320221 1_445
Ce0 In0 3.320221 1_555
Ce0 In0 3.320221 1_545
In0 In4 3.284654 1_654
In0 In3 3.284654 1_555
In0 In2 3.284654 1_655
In0 In1 3.284654 1_554
In0 In2 3.284654 1_555
In0 In1 3.284654 1_564
In0 In3 3.284654 1_565
In0 In4 3.284654 1_554
In1 Rh0 2.770488 1_655
In1 Rh0 2.770488 1_555
In2 Rh0 2.770488 1_565
In2 Rh0 2.770488 1_555
In3 Rh0 2.770488 1_655
In3 Rh0 2.770488 1_555
In4 Rh0 2.770488 1_565
In4 Rh0 2.770488 1_555
