# generated using pymatgen
data_KCeSiS4
_symmetry_space_group_name_H-M   'P 1'
_cell_length_a   6.67161714
_cell_length_b   6.58292568
_cell_length_c   8.66496196
_cell_angle_alpha   72.75553162
_cell_angle_beta   90.00000000
_cell_angle_gamma   90.00000000
_symmetry_Int_Tables_number   1
_chemical_formula_structural   KCeSiS4
_chemical_formula_sum   'K2 Ce2 Si2 S8'
_cell_volume   363.44791921
_cell_formula_units_Z   2
loop_
 _symmetry_equiv_pos_site_id
 _symmetry_equiv_pos_as_xyz
  1  'x, y, z'
loop_
 _atom_site_type_symbol
 _atom_site_label
 _atom_site_symmetry_multiplicity
 _atom_site_fract_x
 _atom_site_fract_y
 _atom_site_fract_z
 _atom_site_occupancy
  K  K0  1  0.50068774  0.27414490  0.93286450  1
  K  K1  1  0.00068774  0.72585510  0.06713550  1
  Ce  Ce0  1  0.52098970  0.23341915  0.44572480  1
  Ce  Ce1  1  0.02098970  0.76658085  0.55427520  1
  Si  Si0  1  0.48828578  0.78465393  0.31645028  1
  Si  Si1  1  0.98828578  0.21534607  0.68354972  1
  S  S0  1  0.45015800  0.59848153  0.56209087  1
  S  S1  1  0.95015800  0.40151847  0.43790913  1
  S  S2  1  0.98911878  0.40907353  0.83732842  1
  S  S3  1  0.48911878  0.59092647  0.16267158  1
  S  S4  1  0.75049136  0.97546045  0.28570145  1
  S  S5  1  0.25049136  0.02453955  0.71429855  1
  S  S6  1  0.75326964  0.98795648  0.73092756  1
  S  S7  1  0.25326964  0.01204352  0.26907244  1
loop_
_geom_bond_atom_site_label_1
_geom_bond_atom_site_label_2
_geom_bond_distance
_geom_bond_site_symmetry_2
K0 S3 3.283566 1_556
K0 S5 3.304227 1_555
K0 S0 3.305594 1_555
K0 S7 3.347901 1_556
K0 S6 3.377153 1_545
K0 S2 3.414222 1_555
K0 S4 3.525141 1_546
K0 S2 3.561852 1_455
K1 S2 3.283566 1_454
K1 S4 3.304227 1_455
K1 S1 3.305594 1_455
K1 S6 3.347901 1_454
K1 S7 3.377153 1_565
K1 S3 3.414222 1_555
K1 S5 3.525141 1_564
K1 S3 3.561852 1_455
Ce0 S3 2.859558 1_555
Ce0 S0 2.907223 1_555
Ce0 S4 2.923479 1_545
Ce0 S5 2.943816 1_555
Ce0 S6 2.958399 1_545
Ce0 S7 2.996586 1_555
Ce0 S1 3.063146 1_555
Ce1 S2 2.859558 1_455
Ce1 S1 2.907223 1_455
Ce1 S5 2.923479 1_565
Ce1 S4 2.943816 1_455
Ce1 S7 2.958399 1_565
Ce1 S6 2.996586 1_455
Ce1 S0 3.063146 1_555
S0 Si0 2.133180 1_555
S1 Si1 2.133180 1_555
S2 Si1 2.099868 1_555
S3 Si0 2.099868 1_555
S4 Si0 2.123780 1_555
S5 Si1 2.123780 1_455
S6 Si1 2.122096 1_565
S7 Si0 2.122096 1_545
