# generated using pymatgen
data_Ba2Nd2Mg(Fe2O5)2
_symmetry_space_group_name_H-M   'P 1'
_cell_length_a   3.60558952
_cell_length_b   7.85598383
_cell_length_c   11.04038878
_cell_angle_alpha   100.88428396
_cell_angle_beta   90.00000000
_cell_angle_gamma   90.00000000
_symmetry_Int_Tables_number   1
_chemical_formula_structural   Ba2Nd2Mg(Fe2O5)2
_chemical_formula_sum   'Ba2 Nd2 Mg1 Fe4 O10'
_cell_volume   307.09827823
_cell_formula_units_Z   1
loop_
 _symmetry_equiv_pos_site_id
 _symmetry_equiv_pos_as_xyz
  1  'x, y, z'
loop_
 _atom_site_type_symbol
 _atom_site_label
 _atom_site_symmetry_multiplicity
 _atom_site_fract_x
 _atom_site_fract_y
 _atom_site_fract_z
 _atom_site_occupancy
  Ba  Ba0  1  0.00000000  0.07977524  0.95419219  1
  Ba  Ba1  1  0.00000000  0.00638178  0.57987057  1
  Nd  Nd0  1  0.00000000  0.56525108  1.00071599  1
  Nd  Nd1  1  0.00000000  0.45180778  0.51151860  1
  Mg  Mg0  1  0.00000000  0.98219354  0.28410282  1
  Fe  Fe0  1  0.50000000  0.31288575  0.21434811  1
  Fe  Fe1  1  0.50000000  0.29781318  0.76496035  1
  Fe  Fe2  1  0.50000000  0.69532998  0.28734353  1
  Fe  Fe3  1  0.50000000  0.74913081  0.75220768  1
  O  O0  1  0.00000000  0.69730954  0.65818135  1
  O  O1  1  0.50000000  0.36517238  0.04104191  1
  O  O2  1  0.00000000  0.72802996  0.20583672  1
  O  O3  1  0.00000000  0.34694203  0.81904778  1
  O  O4  1  0.50000000  0.95460844  0.37121778  1
  O  O5  1  0.00000000  0.19222612  0.21535840  1
  O  O6  1  0.50000000  0.72243340  0.93048542  1
  O  O7  1  0.50000000  0.49789690  0.37862256  1
  O  O8  1  0.50000000  0.01975572  0.76642569  1
  O  O9  1  0.50000000  0.29338939  0.57612455  1
loop_
_geom_bond_atom_site_label_1
_geom_bond_atom_site_label_2
_geom_bond_distance
_geom_bond_site_symmetry_2
Ba0 O8 2.720413 1_455
Ba0 O8 2.720413 1_555
Ba0 O3 2.795364 1_555
Ba0 O5 2.851722 1_556
Ba0 O1 2.895598 1_456
Ba0 O1 2.895598 1_556
Ba0 O6 3.304825 1_445
Ba0 O6 3.304825 1_545
Ba1 O8 2.724244 1_555
Ba1 O8 2.724244 1_455
Ba1 O0 2.726866 1_545
Ba1 O4 2.892796 1_445
Ba1 O4 2.892796 1_545
Ba1 O9 2.893232 1_555
Ba1 O9 2.893232 1_455
Nd0 O3 2.380139 1_555
Nd0 O2 2.381198 1_556
Nd0 O6 2.395337 1_455
Nd0 O6 2.395337 1_555
Nd0 O1 2.486597 1_556
Nd0 O1 2.486597 1_456
Nd1 O0 2.272048 1_555
Nd1 O9 2.375485 1_455
Nd1 O9 2.375485 1_555
Nd1 O7 2.394690 1_555
Nd1 O7 2.394690 1_455
Mg0 O5 1.942036 1_565
Mg0 O2 2.020372 1_555
Mg0 O4 2.073830 1_555
Mg0 O4 2.073830 1_455
Fe0 O1 2.031382 1_555
Fe0 O5 2.037818 1_555
Fe0 O5 2.037818 1_655
Fe0 O7 2.099127 1_555
Fe1 O3 1.915353 1_555
Fe1 O3 1.915353 1_655
Fe1 O9 2.078539 1_555
Fe1 O8 2.187527 1_555
Fe2 O7 2.002889 1_555
Fe2 O2 2.052589 1_655
Fe2 O2 2.052589 1_555
Fe2 O4 2.072216 1_555
Fe3 O6 2.018395 1_555
Fe3 O0 2.081785 1_555
Fe3 O0 2.081785 1_655
Fe3 O8 2.102044 1_565
