# generated using pymatgen
data_Ba6MgCo2(Sb2O9)2
_symmetry_space_group_name_H-M   'P 1'
_cell_length_a   5.93700891
_cell_length_b   5.93661196
_cell_length_c   15.65887731
_cell_angle_alpha   90.17171190
_cell_angle_beta   81.31834282
_cell_angle_gamma   119.72203245
_symmetry_Int_Tables_number   1
_chemical_formula_structural   Ba6MgCo2(Sb2O9)2
_chemical_formula_sum   'Ba6 Mg1 Co2 Sb4 O18'
_cell_volume   472.14625376
_cell_formula_units_Z   1
loop_
 _symmetry_equiv_pos_site_id
 _symmetry_equiv_pos_as_xyz
  1  'x, y, z'
loop_
 _atom_site_type_symbol
 _atom_site_label
 _atom_site_symmetry_multiplicity
 _atom_site_fract_x
 _atom_site_fract_y
 _atom_site_fract_z
 _atom_site_occupancy
  Ba  Ba0  1  0.39833300  0.70806000  0.57743400  1
  Ba  Ba1  1  0.46068600  0.21828600  0.05291600  1
  Ba  Ba2  1  0.81019600  0.41075400  0.41914900  1
  Ba  Ba3  1  0.21965600  0.60029700  0.90385700  1
  Ba  Ba4  1  0.97790400  0.99148600  0.73872300  1
  Ba  Ba5  1  0.21697400  0.11396500  0.29566000  1
  Mg  Mg0  1  0.71143200  0.84771900  0.16244200  1
  Co  Co0  1  0.84833600  0.91828000  0.98209600  1
  Co  Co1  1  0.10231500  0.05880900  0.50682600  1
  Sb  Sb0  1  0.04534000  0.51361200  0.15250600  1
  Sb  Sb1  1  0.68965500  0.35132200  0.65204000  1
  Sb  Sb2  1  0.59056600  0.28762900  0.83787800  1
  Sb  Sb3  1  0.51069200  0.76006600  0.35107500  1
  O  O0  1  0.96966800  0.75810200  0.08056800  1
  O  O1  1  0.91780400  0.19680000  0.07032600  1
  O  O2  1  0.42693700  0.68493700  0.08541800  1
  O  O3  1  0.38909200  0.22110500  0.59150200  1
  O  O4  1  0.72765500  0.57945500  0.91389200  1
  O  O5  1  0.87479800  0.19201300  0.58740400  1
  O  O6  1  0.90020300  0.70013800  0.59180700  1
  O  O7  1  0.34019800  0.93079400  0.42970600  1
  O  O8  1  0.80043600  0.88562800  0.42474800  1
  O  O9  1  0.22877900  0.12070100  0.90595400  1
  O  O10  1  0.68926300  0.07641900  0.90511900  1
  O  O11  1  0.29909600  0.42174700  0.42875200  1
  O  O12  1  0.72706100  0.07751300  0.26549100  1
  O  O13  1  0.50346800  0.48147700  0.75125600  1
  O  O14  1  0.93536900  0.45576100  0.74916800  1
  O  O15  1  0.48243300  0.02607400  0.74445700  1
  O  O16  1  0.66675900  0.59660200  0.26540800  1
  O  O17  1  0.21598300  0.64778500  0.28178000  1
loop_
_geom_bond_atom_site_label_1
_geom_bond_atom_site_label_2
_geom_bond_distance
_geom_bond_site_symmetry_2
Ba0 O7 2.816136 1_555
Ba0 O11 2.837968 1_555
Ba0 O3 2.872547 1_555
Ba0 O8 2.885023 1_555
Ba0 O5 2.890077 1_565
Ba0 O6 2.908660 1_455
Ba0 O6 3.045059 1_555
Ba0 O5 3.079798 1_455
Ba0 O3 3.079959 1_565
Ba0 O15 3.175494 1_565
Ba0 O14 3.277256 1_455
Ba0 O13 3.312838 1_555
Ba1 O4 2.732236 1_554
Ba1 O9 2.772128 1_554
Ba1 O0 2.806810 1_445
Ba1 O1 2.832445 1_555
Ba1 O10 2.842635 1_554
Ba1 O2 2.912912 1_555
Ba1 O2 3.110358 1_545
Ba1 O1 3.131488 1_455
Ba1 O0 3.220729 1_555
Ba2 O17 2.739214 1_655
Ba2 O7 2.812830 1_545
Ba2 O8 2.849136 1_555
Ba2 O11 2.897560 1_655
Ba2 O11 3.048449 1_555
Ba2 O16 3.050344 1_555
Ba2 O12 3.050985 1_555
Ba2 O8 3.090411 1_545
Ba2 O5 3.097486 1_555
Ba2 O7 3.159284 1_655
Ba2 O3 3.161018 1_555
Ba2 O6 3.169316 1_555
Ba3 O10 2.822248 1_565
Ba3 O4 2.841742 1_455
Ba3 O9 2.874792 1_555
Ba3 O13 2.999954 1_555
Ba3 O14 3.039409 1_455
Ba3 O9 3.063108 1_565
Ba3 O4 3.106356 1_555
Ba3 O10 3.139954 1_455
Ba3 O15 3.163098 1_565
Ba3 O1 3.180414 1_456
Ba3 O2 3.206918 1_556
Ba3 O0 3.295546 1_456
Ba4 O6 2.828821 1_555
Ba4 O3 2.855234 1_665
Ba4 O14 2.891760 1_565
Ba4 O15 2.914413 1_665
Ba4 O13 2.918864 1_555
Ba4 O5 2.929800 1_565
Ba4 O15 3.036843 1_565
Ba4 O14 3.065889 1_555
Ba4 O13 3.068804 1_665
Ba4 O10 3.079098 1_565
Ba4 O9 3.113954 1_665
Ba4 O4 3.304653 1_555
Ba5 O8 2.687456 1_445
Ba5 O11 2.705592 1_555
Ba5 O7 2.718387 1_545
Ba5 O16 2.757579 1_555
Ba5 O17 2.772567 1_545
Ba5 O12 2.918926 1_455
Ba5 O12 3.107809 1_555
Ba5 O17 3.180151 1_555
Ba5 O16 3.292182 1_445
Mg0 O2 2.056930 1_555
Mg0 O12 2.092831 1_565
Mg0 O16 2.094192 1_555
Mg0 O0 2.118629 1_555
Mg0 O1 2.200706 1_565
Co0 O1 2.072424 1_566
Co0 O10 2.110883 1_565
Co0 O9 2.114595 1_665
Co0 O4 2.118740 1_555
Co0 O0 2.196389 1_556
Co0 O2 2.480067 1_556
Co1 O7 2.138792 1_545
Co1 O5 2.140240 1_455
Co1 O11 2.142543 1_555
Co1 O3 2.152319 1_555
Co1 O6 2.178516 1_445
Co1 O8 2.186644 1_445
O0 Sb0 2.094429 1_655
O1 Sb0 2.152719 1_655
O2 Sb0 2.067316 1_555
O3 Sb1 1.954199 1_555
O4 Sb2 1.990619 1_555
O5 Sb1 1.953539 1_555
O6 Sb1 1.956868 1_555
O7 Sb3 2.049751 1_555
O8 Sb3 2.041596 1_555
O9 Sb2 1.984050 1_555
O10 Sb2 1.986681 1_555
O11 Sb3 2.035442 1_555
O12 Sb3 2.023028 1_545
O13 Sb2 2.059791 1_555
O13 Sb1 2.133992 1_555
O14 Sb2 2.059186 1_555
O14 Sb1 2.143129 1_555
O15 Sb2 2.060245 1_555
O15 Sb1 2.111831 1_555
O16 Sb3 2.026895 1_555
O17 Sb3 2.023728 1_555
O17 Sb0 2.359631 1_555
