# generated using pymatgen
data_Na6Sc2Ta6Si9(SO16)3
_symmetry_space_group_name_H-M   'P 1'
_cell_length_a   17.86611364
_cell_length_b   8.95568233
_cell_length_c   22.86631560
_cell_angle_alpha   90.08913758
_cell_angle_beta   89.85989892
_cell_angle_gamma   120.05531992
_symmetry_Int_Tables_number   1
_chemical_formula_structural   Na6Sc2Ta6Si9(SO16)3
_chemical_formula_sum   'Na18 Sc6 Ta18 Si27 S9 O144'
_cell_volume   3166.73632513
_cell_formula_units_Z   3
loop_
 _symmetry_equiv_pos_site_id
 _symmetry_equiv_pos_as_xyz
  1  'x, y, z'
loop_
 _atom_site_type_symbol
 _atom_site_label
 _atom_site_symmetry_multiplicity
 _atom_site_fract_x
 _atom_site_fract_y
 _atom_site_fract_z
 _atom_site_occupancy
  Na  Na0  1  0.32112681  0.01258236  0.25154903  1
  Na  Na1  1  0.68465823  0.36990774  0.24737918  1
  Na  Na2  1  0.49330485  0.62159576  0.24980265  1
  Na  Na3  1  0.82066421  0.62988490  0.75005979  1
  Na  Na4  1  0.99358131  0.36469909  0.74803964  1
  Na  Na5  1  0.18615103  0.00375495  0.74458222  1
  Na  Na6  1  0.00267965  0.00781106  0.49960463  1
  Na  Na7  1  0.50467692  0.99917666  0.49710393  1
  Na  Na8  1  0.00502360  0.01353232  0.99495605  1
  Na  Na9  1  0.50262034  0.99746777  0.99839825  1
  Na  Na10  1  0.33830806  0.33163438  0.83227486  1
  Na  Na11  1  0.83077068  0.32480023  0.82722111  1
  Na  Na12  1  0.33041039  0.33916482  0.33175846  1
  Na  Na13  1  0.83792445  0.34402594  0.33577774  1
  Na  Na14  1  0.16711471  0.65818353  0.16668303  1
  Na  Na15  1  0.67059857  0.66927807  0.16470665  1
  Na  Na16  1  0.17230095  0.67264847  0.66322000  1
  Na  Na17  1  0.66144646  0.66860782  0.66244174  1
  Sc  Sc0  1  0.49850403  0.99910479  0.35687925  1
  Sc  Sc1  1  0.99861033  0.99843066  0.85571731  1
  Sc  Sc2  1  0.33706411  0.33135830  0.68032806  1
  Sc  Sc3  1  0.82940078  0.31593837  0.68714591  1
  Sc  Sc4  1  0.32923579  0.34319830  0.18774209  1
  Sc  Sc5  1  0.83180274  0.33554743  0.18264874  1
  Ta  Ta0  1  0.00189344  0.98796167  0.35876749  1
  Ta  Ta1  1  0.50188831  0.01555910  0.85691538  1
  Ta  Ta2  1  0.99784620  0.99227401  0.64367217  1
  Ta  Ta3  1  0.49860548  0.01361719  0.63997271  1
  Ta  Ta4  1  0.99980457  0.99692290  0.14501034  1
  Ta  Ta5  1  0.49766671  0.00258244  0.14425298  1
  Ta  Ta6  1  0.33059842  0.34451329  0.97618727  1
  Ta  Ta7  1  0.82861297  0.31166208  0.97790635  1
  Ta  Ta8  1  0.33432792  0.34565097  0.48212364  1
  Ta  Ta9  1  0.83020599  0.31543154  0.47668391  1
  Ta  Ta10  1  0.16781990  0.65808875  0.01509311  1
  Ta  Ta11  1  0.66020351  0.66430974  0.02428621  1
  Ta  Ta12  1  0.16050660  0.65479924  0.52459618  1
  Ta  Ta13  1  0.66175110  0.66925941  0.51748638  1
  Ta  Ta14  1  0.16464644  0.66077685  0.31355422  1
  Ta  Ta15  1  0.66914898  0.65890218  0.31737959  1
  Ta  Ta16  1  0.16915587  0.67940279  0.81575468  1
  Ta  Ta17  1  0.66175758  0.66655146  0.81064516  1
  Si  Si0  1  0.14335005  0.99754537  0.25049585  1
  Si  Si1  1  0.35483503  0.71113042  0.25165792  1
  Si  Si2  1  0.85634611  0.71080557  0.25074512  1
  Si  Si3  1  0.50033204  0.29125969  0.25100211  1
  Si  Si4  1  0.64335753  0.28630181  0.74963957  1
  Si  Si5  1  0.00013506  0.71040555  0.75101584  1
  Si  Si6  1  0.35687241  0.00314111  0.75006592  1
  Si  Si7  1  0.85523714  0.99905524  0.75168360  1
  Si  Si8  1  0.47964290  0.34055458  0.58188338  1
  Si  Si9  1  0.97408826  0.32784816  0.58570540  1
  Si  Si10  1  0.18893354  0.04346704  0.58366236  1
  Si  Si11  1  0.68827591  0.04109931  0.58395414  1
  Si  Si12  1  0.33323735  0.62388751  0.58618852  1
  Si  Si13  1  0.47403254  0.62029332  0.08564144  1
  Si  Si14  1  0.83375362  0.04164982  0.08501323  1
  Si  Si15  1  0.18760359  0.33537121  0.08374194  1
  Si  Si16  1  0.68845324  0.33432696  0.08370522  1
  Si  Si17  1  0.31284588  0.67021941  0.91428575  1
  Si  Si18  1  0.01944578  0.37372728  0.91488699  1
  Si  Si19  1  0.52240266  0.38276217  0.91800506  1
  Si  Si20  1  0.16512627  0.95874180  0.92011643  1
  Si  Si21  1  0.66429088  0.94894505  0.91592590  1
  Si  Si22  1  0.81109199  0.95129429  0.41661505  1
  Si  Si23  1  0.16805112  0.37779969  0.41665576  1
  Si  Si24  1  0.66608172  0.37179772  0.42006904  1
  Si  Si25  1  0.02209902  0.66017829  0.41843691  1
  Si  Si26  1  0.51786803  0.66392084  0.41486475  1
  S  S0  1  0.64477689  0.99929357  0.24949896  1
  S  S1  1  0.99965290  0.28537536  0.25074030  1
  S  S2  1  0.14501512  0.29076773  0.74994401  1
  S  S3  1  0.49831169  0.71393871  0.75135804  1
  S  S4  1  0.83231591  0.62173583  0.58335960  1
  S  S5  1  0.97962017  0.62451511  0.08259753  1
  S  S6  1  0.33162104  0.04150037  0.08330104  1
  S  S7  1  0.80881429  0.66355991  0.91769658  1
  S  S8  1  0.30851880  0.95350366  0.41742846  1
  O  O0  1  0.09445758  0.02479000  0.30667734  1
  O  O1  1  0.60707825  0.02952045  0.30158503  1
  O  O2  1  0.41680301  0.80169434  0.30608756  1
  O  O3  1  0.91694471  0.81478514  0.30685514  1
  O  O4  1  0.48735019  0.17045176  0.30564041  1
  O  O5  1  0.98837288  0.18190281  0.30328927  1
  O  O6  1  0.10607965  0.18506894  0.80212201  1
  O  O7  1  0.59564812  0.16590566  0.80747458  1
  O  O8  1  0.49017985  0.79790650  0.80479363  1
  O  O9  1  0.98742579  0.80371757  0.80656768  1
  O  O10  1  0.41656711  0.01799379  0.80733184  1
  O  O11  1  0.91615441  0.03189910  0.80699955  1
  O  O12  1  0.40267827  0.97124687  0.69299649  1
  O  O13  1  0.90246016  0.96347312  0.69361548  1
  O  O14  1  0.08916994  0.20882496  0.69677567  1
  O  O15  1  0.58136619  0.19223942  0.69329799  1
  O  O16  1  0.01951543  0.84071418  0.69313477  1
  O  O17  1  0.51507684  0.81844796  0.69827725  1
  O  O18  1  0.40276455  0.84110772  0.19307988  1
  O  O19  1  0.90325372  0.83364931  0.19253332  1
  O  O20  1  0.01474768  0.20768375  0.19692172  1
  O  O21  1  0.51947454  0.19825692  0.19254167  1
  O  O22  1  0.08115792  0.97075421  0.19310740  1
  O  O23  1  0.58942767  0.97102938  0.19608351  1
  O  O24  1  0.44201254  0.37404836  0.64068681  1
  O  O25  1  0.94151420  0.37010046  0.64495682  1
  O  O26  1  0.24009055  0.11361796  0.64458930  1
  O  O27  1  0.74612313  0.12321335  0.64036219  1
  O  O28  1  0.31307076  0.50483593  0.64238596  1
  O  O29  1  0.82077972  0.52716023  0.63756210  1
  O  O30  1  0.44109730  0.51231190  0.14455359  1
  O  O31  1  0.94282623  0.52337586  0.13564662  1
  O  O32  1  0.31915246  0.11201133  0.13738497  1
  O  O33  1  0.81861516  0.13022974  0.14092245  1
  O  O34  1  0.24498321  0.37045128  0.14032562  1
  O  O35  1  0.74222945  0.36675512  0.14360203  1
  O  O36  1  0.23371046  0.30500816  0.02544010  1
  O  O37  1  0.74009985  0.31036192  0.02736321  1
  O  O38  1  0.41465208  0.52454214  0.02752572  1
  O  O39  1  0.92572505  0.54459547  0.03022278  1
  O  O40  1  0.34626680  0.14922923  0.03109030  1
  O  O41  1  0.84919210  0.16700639  0.02628307  1
  O  O42  1  0.23609162  0.16850744  0.52668530  1
  O  O43  1  0.73442955  0.16585710  0.52577673  1
  O  O44  1  0.34906090  0.53365903  0.52679704  1
  O  O45  1  0.84754117  0.54319431  0.53123604  1
  O  O46  1  0.41720664  0.30657577  0.52493583  1
  O  O47  1  0.91516606  0.30495911  0.52745423  1
  O  O48  1  0.26671769  0.69557071  0.97290111  1
  O  O49  1  0.76577380  0.68634549  0.96934412  1
  O  O50  1  0.08259521  0.47744287  0.97190753  1
  O  O51  1  0.58472561  0.47289392  0.97375021  1
  O  O52  1  0.15647790  0.83470208  0.97567308  1
  O  O53  1  0.65516141  0.83346156  0.97276110  1
  O  O54  1  0.26537301  0.84436387  0.46853723  1
  O  O55  1  0.76696011  0.83462984  0.47383766  1
  O  O56  1  0.15471096  0.47625148  0.47198456  1
  O  O57  1  0.65714727  0.47911278  0.47413747  1
  O  O58  1  0.08492728  0.69657118  0.47350228  1
  O  O59  1  0.58134148  0.68865590  0.47121890  1
  O  O60  1  0.06965780  0.63797962  0.35961988  1
  O  O61  1  0.56746224  0.63807988  0.35642343  1
  O  O62  1  0.25528254  0.87010577  0.36187773  1
  O  O63  1  0.74991034  0.86289227  0.35870573  1
  O  O64  1  0.18121760  0.50117906  0.35865900  1
  O  O65  1  0.68305200  0.49494556  0.35930222  1
  O  O66  1  0.06681528  0.49673328  0.85702034  1
  O  O67  1  0.56984107  0.50240632  0.86026390  1
  O  O68  1  0.18225928  0.86806292  0.86049380  1
  O  O69  1  0.68188289  0.86109315  0.85856091  1
  O  O70  1  0.24924751  0.63517786  0.85879840  1
  O  O71  1  0.75616016  0.63558830  0.86298668  1
  O  O72  1  0.01319387  0.83403103  0.41039138  1
  O  O73  1  0.51040831  0.83343591  0.41243593  1
  O  O74  1  0.39349401  0.97009732  0.41195376  1
  O  O75  1  0.90739027  0.97913243  0.40686104  1
  O  O76  1  0.08064045  0.19044660  0.40682423  1
  O  O77  1  0.58214162  0.18792608  0.41276745  1
  O  O78  1  0.00932969  0.18738633  0.91398306  1
  O  O79  1  0.51320379  0.19146724  0.91037743  1
  O  O80  1  0.08117089  0.97507231  0.91427121  1
  O  O81  1  0.58044635  0.97143576  0.90817700  1
  O  O82  1  0.40798109  0.83662619  0.90828866  1
  O  O83  1  0.89430870  0.81622553  0.91301697  1
  O  O84  1  0.48799569  0.16466458  0.58743294  1
  O  O85  1  0.98676764  0.15712130  0.59221181  1
  O  O86  1  0.09092034  0.02177701  0.59081277  1
  O  O87  1  0.59158886  0.01819046  0.59183015  1
  O  O88  1  0.42011409  0.81388944  0.59231558  1
  O  O89  1  0.91351148  0.80048108  0.58813815  1
  O  O90  1  0.48718222  0.81676564  0.09187326  1
  O  O91  1  0.98787579  0.80029139  0.08842544  1
  O  O92  1  0.41186330  0.02308048  0.08781019  1
  O  O93  1  0.92036528  0.02281624  0.09175306  1
  O  O94  1  0.09059708  0.16170107  0.09175974  1
  O  O95  1  0.59176548  0.15988535  0.09011901  1
  O  O96  1  0.33941544  0.16417607  0.74952590  1
  O  O97  1  0.84565514  0.16705386  0.74622984  1
  O  O98  1  0.23156533  0.31144098  0.74377769  1
  O  O99  1  0.74154048  0.32832560  0.74634544  1
  O  O100  1  0.42347441  0.54022565  0.74806402  1
  O  O101  1  0.91666903  0.52226133  0.74413119  1
  O  O102  1  0.34539457  0.52423897  0.24566426  1
  O  O103  1  0.84163218  0.51629884  0.24699026  1
  O  O104  1  0.41638939  0.31067739  0.24315748  1
  O  O105  1  0.92497405  0.30949889  0.24408764  1
  O  O106  1  0.24069210  0.15365371  0.24518669  1
  O  O107  1  0.73161420  0.15335335  0.24265240  1
  O  O108  1  0.31968927  0.49561536  0.92239016  1
  O  O109  1  0.81707818  0.50594541  0.92406587  1
  O  O110  1  0.42657812  0.35773802  0.92652702  1
  O  O111  1  0.92760724  0.37313798  0.92643927  1
  O  O112  1  0.25557548  0.14326449  0.92722187  1
  O  O113  1  0.75109482  0.14413680  0.92391858  1
  O  O114  1  0.31430844  0.12382615  0.42079159  1
  O  O115  1  0.81984134  0.14277393  0.42247395  1
  O  O116  1  0.25235161  0.35454150  0.42319654  1
  O  O117  1  0.75631512  0.36676168  0.42597692  1
  O  O118  1  0.42558449  0.48342057  0.42263430  1
  O  O119  1  0.92641342  0.49427110  0.42558759  1
  O  O120  1  0.17406098  0.50507116  0.07405762  1
  O  O121  1  0.67774060  0.50297616  0.07261230  1
  O  O122  1  0.06842168  0.64983120  0.07599042  1
  O  O123  1  0.57246882  0.64980508  0.07419442  1
  O  O124  1  0.25542512  0.86395322  0.07623034  1
  O  O125  1  0.75119073  0.85110002  0.07185332  1
  O  O126  1  0.17686958  0.85168485  0.57189907  1
  O  O127  1  0.67854762  0.85057932  0.57329442  1
  O  O128  1  0.25135698  0.65251200  0.57141270  1
  O  O129  1  0.75738898  0.64837536  0.57647826  1
  O  O130  1  0.07239159  0.49460166  0.57448056  1
  O  O131  1  0.57829833  0.50320596  0.57377439  1
  O  O132  1  0.15088780  0.82068871  0.25905637  1
  O  O133  1  0.65041766  0.83877646  0.25337121  1
  O  O134  1  0.25962290  0.70326491  0.25684739  1
  O  O135  1  0.75902255  0.69163525  0.25682026  1
  O  O136  1  0.08056165  0.46106376  0.25559669  1
  O  O137  1  0.58926032  0.48712909  0.25495344  1
  O  O138  1  0.14942806  0.46236815  0.75448569  1
  O  O139  1  0.65125405  0.47907577  0.76031076  1
  O  O140  1  0.08915227  0.69205937  0.75575490  1
  O  O141  1  0.57985359  0.69658218  0.75764085  1
  O  O142  1  0.25938247  0.82561829  0.75823254  1
  O  O143  1  0.75993812  0.81622178  0.75804437  1
loop_
_geom_bond_atom_site_label_1
_geom_bond_atom_site_label_2
_geom_bond_distance
_geom_bond_site_symmetry_2
Na0 O106 2.345771 1_555
Na0 O104 2.347183 1_555
Na0 O134 2.418100 1_545
Na0 O132 2.645052 1_545
Na0 O32 2.765514 1_555
Na0 O62 2.805088 1_545
Na0 O4 2.855702 1_555
Na0 O18 2.915618 1_545
Na1 O137 2.413972 1_555
Na1 O103 2.429227 1_555
Na1 O107 2.470897 1_555
Na1 O135 2.505713 1_555
Na1 O35 2.589757 1_555
Na1 O65 2.797773 1_555
Na1 O21 2.848299 1_555
Na1 O1 2.919121 1_555
Na2 O102 2.333550 1_555
Na2 O104 2.414901 1_555
Na2 O133 2.490141 1_555
Na2 O137 2.544099 1_555
Na2 O30 2.590199 1_555
Na2 O61 2.745885 1_555
Na2 O2 2.884294 1_555
Na2 O23 2.978214 1_555
Na3 O99 2.339855 1_555
Na3 O101 2.354534 1_555
Na3 O143 2.409743 1_555
Na3 O139 2.634920 1_555
Na3 O29 2.730960 1_555
Na3 O71 2.835946 1_555
Na3 O9 2.887290 1_555
Na3 O13 2.890722 1_555
Na4 O97 2.331096 1_555
Na4 O101 2.414658 1_555
Na4 O138 2.470146 1_655
Na4 O25 2.545558 1_555
Na4 O140 2.554858 1_655
Na4 O66 2.788761 1_655
Na4 O11 2.913394 1_555
Na4 O14 2.934704 1_655
Na5 O96 2.373866 1_555
Na5 O98 2.451985 1_555
Na5 O140 2.452573 1_545
Na5 O26 2.484183 1_555
Na5 O142 2.539418 1_545
Na5 O16 2.834917 1_545
Na5 O68 2.903629 1_545
Na5 O6 2.953863 1_555
Na6 O86 2.582346 1_555
Na6 O85 2.592690 1_455
Na6 O76 2.613546 1_555
Na6 O72 2.626788 1_545
Na6 O75 2.653237 1_445
Na6 O89 2.667746 1_445
Na7 O73 2.470688 1_555
Na7 O77 2.479012 1_565
Na7 O87 2.623413 1_565
Na7 O84 2.642247 1_565
Na7 O88 2.694433 1_555
Na7 O74 2.702569 1_555
Na8 O78 2.397217 1_555
Na8 O80 2.414227 1_545
Na8 O94 2.640700 1_556
Na8 O83 2.655616 1_445
Na8 O93 2.702358 1_456
Na8 O91 2.780717 1_446
Na9 O81 2.559875 1_555
Na9 O95 2.595655 1_566
Na9 O82 2.597602 1_555
Na9 O79 2.604854 1_565
Na9 O90 2.612352 1_556
Na9 O92 2.686401 1_566
Na10 O96 2.418779 1_555
Na10 O100 2.581185 1_555
Na10 O110 2.613879 1_555
Na10 O108 2.643857 1_555
Na10 O112 2.691157 1_555
Na10 O98 2.727067 1_555
Na11 O97 2.421172 1_555
Na11 O99 2.455095 1_555
Na11 O101 2.523895 1_555
Na11 O113 2.687360 1_555
Na11 O111 2.755685 1_555
Na11 O109 2.824759 1_555
Na12 O102 2.501517 1_555
Na12 O116 2.552013 1_555
Na12 O106 2.566326 1_555
Na12 O118 2.585910 1_555
Na12 O104 2.627744 1_555
Na12 O114 2.720340 1_555
Na13 O119 2.530562 1_555
Na13 O103 2.532447 1_555
Na13 O117 2.588958 1_555
Na13 O115 2.589895 1_555
Na13 O105 2.715495 1_555
Na13 O107 2.796003 1_555
Na14 O134 2.547748 1_555
Na14 O120 2.557680 1_555
Na14 O136 2.627290 1_555
Na14 O132 2.659642 1_555
Na14 O124 2.691979 1_555
Na14 O122 2.701970 1_555
Na15 O137 2.579264 1_555
Na15 O135 2.582721 1_555
Na15 O121 2.616938 1_555
Na15 O125 2.622983 1_555
Na15 O133 2.660789 1_555
Na15 O123 2.664218 1_555
Na16 O128 2.583401 1_555
Na16 O126 2.610841 1_555
Na16 O142 2.624835 1_555
Na16 O140 2.637497 1_555
Na16 O130 2.646283 1_555
Na16 O138 2.702933 1_555
Na17 O131 2.512561 1_555
Na17 O127 2.532411 1_555
Na17 O129 2.669909 1_555
Na17 O141 2.697237 1_555
Na17 O143 2.702348 1_555
Na17 O139 2.760927 1_555
O0 Si0 1.637057 1_545
O0 Ta0 1.925534 1_545
O1 S0 1.457101 1_545
O1 Sc0 2.212571 1_545
O2 Si1 1.592715 1_555
O2 Sc0 2.005528 1_555
O3 Si2 1.636666 1_555
O3 Ta0 1.939884 1_655
O4 Si3 1.592707 1_555
O4 Sc0 2.019970 1_545
O5 S1 1.469146 1_555
O5 Ta0 2.261195 1_645
O6 S2 1.464022 1_555
O6 Sc1 2.182324 1_445
O7 Si4 1.648149 1_555
O7 Ta1 1.906122 1_555
O8 S3 1.478270 1_555
O8 Ta1 2.202106 1_565
O9 Si5 1.596508 1_655
O9 Sc1 1.997444 1_555
O10 Si6 1.653486 1_555
O10 Ta1 1.910877 1_555
O11 Si7 1.598702 1_545
O11 Sc1 1.988066 1_545
O12 Si6 1.637689 1_565
O12 Ta3 1.972604 1_565
O13 Si7 1.684913 1_555
O13 Ta2 1.956032 1_555
O14 S2 1.510576 1_555
O14 Ta2 2.174978 1_445
O15 Si4 1.632518 1_555
O15 Ta3 1.966109 1_555
O16 Si5 1.682653 1_555
O16 Ta2 1.950565 1_455
O17 S3 1.469655 1_555
O17 Ta3 2.333132 1_565
O18 Si1 1.698002 1_555
O18 Ta5 1.937102 1_565
O19 Si2 1.661336 1_555
O19 Ta4 1.940049 1_555
O20 S1 1.501655 1_455
O20 Ta4 2.129037 1_445
O21 Si3 1.696258 1_555
O21 Ta5 1.937550 1_555
O22 Si0 1.659314 1_555
O22 Ta4 1.930513 1_455
O23 S0 1.512619 1_555
O23 Ta5 2.155630 1_565
O24 Si8 1.595712 1_555
O24 Sc2 1.938616 1_555
O25 Si9 1.591433 1_555
O25 Sc3 2.048627 1_555
O26 Si10 1.612242 1_555
O26 Sc2 2.022357 1_555
O27 Si11 1.585842 1_555
O27 Sc3 1.940842 1_555
O28 Si12 1.592194 1_555
O28 Sc2 2.005815 1_555
O29 S4 1.457109 1_555
O29 Sc3 2.277473 1_555
O30 Si13 1.589435 1_555
O30 Sc4 2.055799 1_555
O31 S5 1.458462 1_555
O31 Sc5 2.138272 1_555
O32 S6 1.454283 1_555
O32 Sc4 2.294571 1_555
O33 Si14 1.595914 1_555
O33 Sc5 1.977016 1_555
O34 Si15 1.583138 1_555
O34 Sc4 1.969208 1_555
O35 Si16 1.615236 1_555
O35 Sc5 1.972848 1_555
O36 Si15 1.657607 1_555
O36 Ta6 1.941192 1_554
O37 Si16 1.658006 1_555
O37 Ta7 1.937187 1_554
O38 Si13 1.648904 1_555
O38 Ta6 1.951969 1_554
O39 S5 1.478640 1_555
O39 Ta7 2.273775 1_554
O40 S6 1.474375 1_555
O40 Ta6 2.282996 1_554
O41 Si14 1.683042 1_555
O41 Ta7 1.876354 1_554
O42 Si10 1.647848 1_555
O42 Ta8 1.960286 1_555
O43 Si11 1.665655 1_555
O43 Ta9 1.918821 1_555
O44 Si12 1.673544 1_555
O44 Ta8 1.870772 1_555
O45 S4 1.475391 1_555
O45 Ta9 2.274595 1_555
O46 Si8 1.642698 1_555
O46 Ta8 1.949498 1_555
O47 Si9 1.647504 1_555
O47 Ta9 1.952473 1_555
O48 Si17 1.645680 1_555
O48 Ta10 1.887867 1_556
O49 S7 1.476371 1_555
O49 Ta11 2.188864 1_556
O50 Si18 1.670152 1_555
O50 Ta10 1.856286 1_556
O51 Si19 1.618533 1_555
O51 Ta11 1.943809 1_556
O52 Si20 1.644154 1_555
O52 Ta10 1.918774 1_556
O53 Si21 1.618458 1_555
O53 Ta11 1.958020 1_556
O54 S8 1.469623 1_555
O54 Ta12 2.201024 1_555
O55 Si22 1.612276 1_555
O55 Ta13 1.982345 1_555
O56 Si23 1.624930 1_555
O56 Ta12 1.960521 1_555
O57 Si24 1.620713 1_555
O57 Ta13 1.934940 1_555
O58 Si25 1.609609 1_555
O58 Ta12 1.960444 1_555
O59 Si26 1.658382 1_555
O59 Ta13 1.863138 1_555
O60 Si25 1.653213 1_555
O60 Ta14 1.917334 1_555
O61 Si26 1.680207 1_555
O61 Ta15 1.945675 1_555
O62 S8 1.538628 1_555
O62 Ta14 2.078251 1_555
O63 Si22 1.646822 1_555
O63 Ta15 1.916582 1_555
O64 Si23 1.666629 1_555
O64 Ta14 1.903751 1_555
O65 Si24 1.704924 1_555
O65 Ta15 1.872847 1_555
O66 Si18 1.657052 1_555
O66 Ta16 1.977365 1_555
O67 Si19 1.642853 1_555
O67 Ta17 1.929525 1_555
O68 Si20 1.689800 1_555
O68 Ta16 1.885642 1_555
O69 Si21 1.637343 1_555
O69 Ta17 1.932275 1_555
O70 Si17 1.627276 1_555
O70 Ta16 1.936222 1_555
O71 S7 1.510457 1_555
O71 Ta17 2.198495 1_555
O72 Si25 1.653021 1_555
O72 Ta0 1.902537 1_555
O73 Si26 1.590129 1_555
O73 Sc0 2.045399 1_555
O74 S8 1.454564 1_555
O74 Sc0 2.162070 1_555
O75 Si22 1.624988 1_555
O75 Ta0 1.980862 1_655
O76 Si23 1.637229 1_555
O76 Ta0 1.980185 1_545
O77 Si24 1.585954 1_555
O77 Sc0 2.048691 1_545
O78 Si18 1.586132 1_555
O78 Sc1 2.084467 1_445
O79 Si19 1.646083 1_555
O79 Ta1 1.921807 1_555
O80 Si20 1.584267 1_555
O80 Sc1 2.081294 1_455
O81 Si21 1.618497 1_555
O81 Ta1 2.016192 1_565
O82 Si17 1.609644 1_555
O82 Ta1 2.016408 1_565
O83 S7 1.456592 1_555
O83 Sc1 2.191065 1_555
O84 Si8 1.660077 1_555
O84 Ta3 1.890020 1_555
O85 Si9 1.661033 1_555
O85 Ta2 1.975496 1_545
O86 Si10 1.669984 1_555
O86 Ta2 1.961372 1_445
O87 Si11 1.643809 1_555
O87 Ta3 1.973913 1_555
O88 Si12 1.636766 1_555
O88 Ta3 1.960201 1_565
O89 S4 1.533952 1_555
O89 Ta2 2.059924 1_555
O90 Si13 1.660364 1_555
O90 Ta5 1.980300 1_565
O91 S5 1.511448 1_555
O91 Ta4 2.106873 1_555
O92 S6 1.526685 1_555
O92 Ta5 2.083687 1_555
O93 Si14 1.646017 1_555
O93 Ta4 1.972343 1_545
O94 Si15 1.660014 1_555
O94 Ta4 1.972251 1_445
O95 Si16 1.656029 1_555
O95 Ta5 1.991515 1_555
O96 Si6 1.621089 1_555
O96 Sc2 2.194957 1_555
O97 Si7 1.602246 1_545
O97 Sc3 2.020608 1_555
O98 S2 1.468843 1_555
O98 Sc2 2.310875 1_555
O99 Si4 1.600784 1_555
O99 Sc3 2.114791 1_555
O100 S3 1.459526 1_555
O100 Sc2 2.321938 1_555
O101 Si5 1.603458 1_655
O101 Sc3 2.158652 1_555
O102 Si1 1.601645 1_555
O102 Sc4 1.998160 1_555
O103 Si2 1.628432 1_555
O103 Sc5 2.127179 1_555
O104 Si3 1.604448 1_555
O104 Sc4 2.140114 1_555
O105 S1 1.462801 1_555
O105 Sc5 2.280453 1_555
O106 Si0 1.599340 1_545
O106 Sc4 2.101518 1_555
O107 S0 1.480018 1_545
O107 Sc5 2.195074 1_555
O108 Si17 1.639195 1_555
O108 Ta6 1.911279 1_555
O109 S7 1.498322 1_555
O109 Ta7 2.225449 1_555
O110 Si19 1.622766 1_555
O110 Ta6 2.007845 1_555
O111 Si18 1.658685 1_655
O111 Ta7 1.957724 1_555
O112 Si20 1.641390 1_545
O112 Ta6 1.969728 1_555
O113 Si21 1.667082 1_545
O113 Ta7 1.901123 1_555
O114 S8 1.478157 1_545
O114 Ta8 2.307241 1_555
O115 Si22 1.647395 1_545
O115 Ta9 1.915762 1_555
O116 Si23 1.627758 1_555
O116 Ta8 2.023311 1_555
O117 Si24 1.641076 1_555
O117 Ta9 1.978767 1_555
O118 Si26 1.640980 1_555
O118 Ta8 2.002581 1_555
O119 Si25 1.616158 1_655
O119 Ta9 2.030574 1_555
O120 Si15 1.669415 1_555
O120 Ta10 1.966678 1_555
O121 Si16 1.634984 1_555
O121 Ta11 1.966469 1_555
O122 S5 1.493305 1_455
O122 Ta10 2.225955 1_555
O123 Si13 1.662430 1_555
O123 Ta11 1.887855 1_555
O124 S6 1.496562 1_565
O124 Ta10 2.217070 1_555
O125 Si14 1.630245 1_565
O125 Ta11 1.975619 1_555
O126 Si10 1.642190 1_565
O126 Ta12 1.960542 1_555
O127 Si11 1.643997 1_565
O127 Ta13 1.965382 1_555
O128 Si12 1.642628 1_555
O128 Ta12 1.955224 1_555
O129 S4 1.481459 1_555
O129 Ta13 2.259719 1_555
O130 Si9 1.659049 1_455
O130 Ta12 1.889902 1_555
O131 Si8 1.640247 1_555
O131 Ta13 1.966410 1_555
O132 Si0 1.667290 1_555
O132 Ta14 2.005989 1_555
O133 S0 1.493343 1_555
O133 Ta15 2.323562 1_555
O134 Si1 1.670838 1_555
O134 Ta14 2.012341 1_555
O135 Si2 1.664947 1_555
O135 Ta15 2.025009 1_555
O136 S1 1.516419 1_455
O136 Ta14 2.126758 1_555
O137 Si3 1.678702 1_555
O137 Ta15 2.060365 1_555
O138 S2 1.502308 1_555
O138 Ta16 2.274354 1_555
O139 Si4 1.677756 1_555
O139 Ta17 1.964262 1_555
O140 Si5 1.682476 1_555
O140 Ta16 2.027454 1_555
O141 S3 1.547610 1_555
O141 Ta17 2.021501 1_555
O142 Si6 1.679817 1_565
O142 Ta16 1.980884 1_555
O143 Si7 1.675754 1_555
O143 Ta17 1.989929 1_555
