# generated using pymatgen
data_Ba2PrMgNbO6
_symmetry_space_group_name_H-M   'P 1'
_cell_length_a   7.07899879
_cell_length_b   7.08027175
_cell_length_c   7.07807801
_cell_angle_alpha   50.20463784
_cell_angle_beta   50.20652953
_cell_angle_gamma   50.19964098
_symmetry_Int_Tables_number   1
_chemical_formula_structural   Ba2PrMgNbO6
_chemical_formula_sum   'Ba2 Pr1 Mg1 Nb1 O6'
_cell_volume   192.81670575
_cell_formula_units_Z   1
loop_
 _symmetry_equiv_pos_site_id
 _symmetry_equiv_pos_as_xyz
  1  'x, y, z'
loop_
 _atom_site_type_symbol
 _atom_site_label
 _atom_site_symmetry_multiplicity
 _atom_site_fract_x
 _atom_site_fract_y
 _atom_site_fract_z
 _atom_site_occupancy
  Ba  Ba0  1  0.21748861  0.21757636  0.21856302  1
  Ba  Ba1  1  0.80118800  0.80151508  0.80207538  1
  Pr  Pr0  1  0.00460181  0.00499903  0.00556190  1
  Mg  Mg0  1  0.62889489  0.62886627  0.63003193  1
  Nb  Nb0  1  0.48232359  0.48242743  0.48324181  1
  O  O0  1  0.74901692  0.69347908  0.25607528  1
  O  O1  1  0.25514729  0.74867977  0.69454594  1
  O  O2  1  0.69367810  0.25501871  0.75009448  1
  O  O3  1  0.25466697  0.28032738  0.75836864  1
  O  O4  1  0.28029631  0.75765785  0.25547245  1
  O  O5  1  0.75770051  0.25445504  0.28138617  1
loop_
_geom_bond_atom_site_label_1
_geom_bond_atom_site_label_2
_geom_bond_distance
_geom_bond_site_symmetry_2
Ba0 O5 2.840396 1_455
Ba0 O4 2.841809 1_545
Ba0 O3 2.841904 1_554
Ba0 O0 2.852096 1_455
Ba0 O2 2.852978 1_554
Ba0 O1 2.853450 1_545
Ba0 O1 3.183100 1_554
Ba0 O2 3.183586 1_455
Ba0 O0 3.184419 1_545
Ba1 O1 2.596327 1_655
Ba1 O2 2.596590 1_565
Ba1 O0 2.596872 1_556
Ba1 O5 3.003464 1_565
Ba1 O4 3.005819 1_556
Ba1 O3 3.007098 1_655
Ba1 O3 3.155110 1_565
Ba1 O4 3.156091 1_655
Ba1 O5 3.158412 1_556
Ba1 Mg0 3.190626 1_555
Mg0 O2 2.001039 1_555
Mg0 O1 2.001048 1_555
Mg0 O0 2.001325 1_555
Nb0 O4 1.950301 1_555
Nb0 O3 1.950642 1_555
Nb0 O5 1.950755 1_555
Nb0 O1 2.241889 1_555
Nb0 O0 2.243403 1_555
Nb0 O2 2.244745 1_555
O0 Pr0 2.697860 1_665
O1 Pr0 2.698316 1_566
O2 Pr0 2.693827 1_656
O3 Pr0 2.466218 1_556
O4 Pr0 2.466322 1_565
O5 Pr0 2.465754 1_655
