# generated using pymatgen
data_Cr2P3O10
_symmetry_space_group_name_H-M   'P 1'
_cell_length_a   8.57069500
_cell_length_b   4.72121900
_cell_length_c   9.09829148
_cell_angle_alpha   80.13725447
_cell_angle_beta   90.00000000
_cell_angle_gamma   90.00000000
_symmetry_Int_Tables_number   1
_chemical_formula_structural   Cr2P3O10
_chemical_formula_sum   'Cr4 P6 O20'
_cell_volume   362.71344379
_cell_formula_units_Z   2
loop_
 _symmetry_equiv_pos_site_id
 _symmetry_equiv_pos_as_xyz
  1  'x, y, z'
loop_
 _atom_site_type_symbol
 _atom_site_label
 _atom_site_symmetry_multiplicity
 _atom_site_fract_x
 _atom_site_fract_y
 _atom_site_fract_z
 _atom_site_occupancy
  Cr  Cr0  1  0.56672200  0.94905100  0.32410600  1
  Cr  Cr1  1  0.93327800  0.94905100  0.32410600  1
  Cr  Cr2  1  0.43327800  0.05094900  0.67589400  1
  Cr  Cr3  1  0.06672200  0.05094900  0.67589400  1
  P  P0  1  0.75000000  0.52968000  0.14372000  1
  P  P1  1  0.75000000  0.39989700  0.54091400  1
  P  P2  1  0.25000000  0.47032000  0.85628000  1
  P  P3  1  0.25000000  0.32647300  0.18266100  1
  P  P4  1  0.25000000  0.60010300  0.45908600  1
  P  P5  1  0.75000000  0.67352700  0.81733900  1
  O  O0  1  0.09956100  0.76609900  0.48207000  1
  O  O1  1  0.60049800  0.83837600  0.79708300  1
  O  O2  1  0.10049800  0.16162400  0.20291700  1
  O  O3  1  0.75000000  0.21455300  0.23396900  1
  O  O4  1  0.75000000  0.46662400  0.97390500  1
  O  O5  1  0.90043900  0.23390100  0.51793000  1
  O  O6  1  0.89950200  0.83837600  0.79708300  1
  O  O7  1  0.25000000  0.78544700  0.76603100  1
  O  O8  1  0.25000000  0.56753100  0.28807100  1
  O  O9  1  0.39950200  0.16162400  0.20291700  1
  O  O10  1  0.09993400  0.31520400  0.83129300  1
  O  O11  1  0.59956100  0.23390100  0.51793000  1
  O  O12  1  0.90006600  0.68479600  0.16870700  1
  O  O13  1  0.40006600  0.31520400  0.83129300  1
  O  O14  1  0.75000000  0.70617000  0.44447300  1
  O  O15  1  0.25000000  0.53337600  0.02609500  1
  O  O16  1  0.40043900  0.76609900  0.48207000  1
  O  O17  1  0.75000000  0.43246900  0.71192900  1
  O  O18  1  0.25000000  0.29383000  0.55552700  1
  O  O19  1  0.59993400  0.68479600  0.16870700  1
loop_
_geom_bond_atom_site_label_1
_geom_bond_atom_site_label_2
_geom_bond_distance
_geom_bond_site_symmetry_2
Cr0 O9 1.974316 1_565
Cr0 O19 2.059332 1_555
Cr0 O3 2.087848 1_565
Cr0 O16 2.101770 1_555
Cr0 O14 2.133424 1_555
Cr0 O11 2.410410 1_565
Cr1 O2 1.974316 1_665
Cr1 O12 2.059332 1_555
Cr1 O3 2.087848 1_565
Cr1 O0 2.101770 1_655
Cr1 O14 2.133424 1_555
Cr1 O5 2.410410 1_565
Cr2 O1 1.974316 1_545
Cr2 O13 2.059332 1_555
Cr2 O7 2.087848 1_545
Cr2 O11 2.101770 1_555
Cr2 O18 2.133424 1_555
Cr2 O16 2.410410 1_545
Cr3 O6 1.974316 1_445
Cr3 O10 2.059332 1_555
Cr3 O7 2.087848 1_545
Cr3 O5 2.101770 1_455
Cr3 O18 2.133424 1_555
Cr3 O0 2.410410 1_545
O0 P4 1.541600 1_555
O1 P5 1.494116 1_555
O2 P3 1.494116 1_555
O3 P0 1.571375 1_555
O4 P5 1.583246 1_555
O4 P0 1.622745 1_556
O5 P1 1.541600 1_555
O6 P5 1.494116 1_555
O7 P2 1.571375 1_555
O8 P4 1.589522 1_555
O8 P3 1.609018 1_555
O9 P3 1.494116 1_555
O10 P2 1.516334 1_555
O11 P1 1.541600 1_555
O12 P0 1.516334 1_555
O13 P2 1.516334 1_555
O14 P1 1.557603 1_555
O15 P3 1.583246 1_555
O15 P2 1.622745 1_554
O16 P4 1.541600 1_555
O17 P1 1.589522 1_555
O17 P5 1.609018 1_555
O18 P4 1.557603 1_555
O19 P0 1.516334 1_555
