# generated using pymatgen
data_Eu2MgVO4
_symmetry_space_group_name_H-M   'P 1'
_cell_length_a   4.08705919
_cell_length_b   4.08705950
_cell_length_c   7.39835594
_cell_angle_alpha   106.03437265
_cell_angle_beta   106.03437207
_cell_angle_gamma   90.00000437
_symmetry_Int_Tables_number   1
_chemical_formula_structural   Eu2MgVO4
_chemical_formula_sum   'Eu2 Mg1 V1 O4'
_cell_volume   113.76386250
_cell_formula_units_Z   1
loop_
 _symmetry_equiv_pos_site_id
 _symmetry_equiv_pos_as_xyz
  1  'x, y, z'
loop_
 _atom_site_type_symbol
 _atom_site_label
 _atom_site_symmetry_multiplicity
 _atom_site_fract_x
 _atom_site_fract_y
 _atom_site_fract_z
 _atom_site_occupancy
  Eu  Eu0  1  0.61159300  0.61159200  0.22318600  1
  Eu  Eu1  1  0.38840700  0.38840800  0.77681400  1
  Mg  Mg0  1  0.25000000  0.75000000  0.50000000  1
  V  V0  1  0.00000000  0.00000000  0.00000000  1
  O  O0  1  0.80813900  0.80814000  0.61627900  1
  O  O1  1  0.19186000  0.19186100  0.38372000  1
  O  O2  1  0.01049500  0.51049300  0.02098800  1
  O  O3  1  0.48950700  0.98950600  0.97901300  1
loop_
_geom_bond_atom_site_label_1
_geom_bond_atom_site_label_2
_geom_bond_distance
_geom_bond_site_symmetry_2
Eu0 O2 2.464213 1_555
Eu0 O2 2.464220 1_655
Eu0 O3 2.634657 1_544
Eu0 O3 2.634661 1_554
Eu0 O0 2.677181 1_555
Eu0 O1 3.089879 1_555
Eu0 O1 3.089879 1_655
Eu0 O1 3.089890 1_665
Eu0 O1 3.089890 1_565
Eu1 O3 2.464216 1_555
Eu1 O3 2.464226 1_545
Eu1 O2 2.634660 1_556
Eu1 O2 2.634666 1_656
Eu1 O1 2.677188 1_555
Eu1 O0 3.089884 1_555
Eu1 O0 3.089887 1_455
Eu1 O0 3.089887 1_545
Eu1 O0 3.089890 1_445
Mg0 O0 2.191609 1_555
Mg0 O1 2.191610 1_555
Mg0 O0 2.191613 1_455
Mg0 O1 2.191617 1_565
O0 V0 2.613353 1_666
O1 V0 2.613346 1_555
O2 V0 2.048519 1_555
O2 V0 2.048527 1_565
O3 V0 2.048520 1_666
O3 V0 2.048524 1_566
