# generated using pymatgen
data_KCo2(MoO5)2
_symmetry_space_group_name_H-M   'P 1'
_cell_length_a   5.81894921
_cell_length_b   5.87581205
_cell_length_c   8.76222402
_cell_angle_alpha   68.76996655
_cell_angle_beta   68.32814971
_cell_angle_gamma   61.34493529
_symmetry_Int_Tables_number   1
_chemical_formula_structural   KCo2(MoO5)2
_chemical_formula_sum   'K1 Co2 Mo2 O10'
_cell_volume   237.94212125
_cell_formula_units_Z   1
loop_
 _symmetry_equiv_pos_site_id
 _symmetry_equiv_pos_as_xyz
  1  'x, y, z'
loop_
 _atom_site_type_symbol
 _atom_site_label
 _atom_site_symmetry_multiplicity
 _atom_site_fract_x
 _atom_site_fract_y
 _atom_site_fract_z
 _atom_site_occupancy
  K  K0  1  0.50000000  0.50000000  0.50000000  1
  Co  Co0  1  0.00000000  0.50000000  0.00000000  1
  Co  Co1  1  0.50000000  0.00000000  0.00000000  1
  Mo  Mo0  1  0.05880300  0.06287600  0.75907100  1
  Mo  Mo1  1  0.94119700  0.93712400  0.24092900  1
  O  O0  1  0.67725000  0.70465300  0.92622200  1
  O  O1  1  0.32275000  0.29534700  0.07377800  1
  O  O2  1  0.18165700  0.19619600  0.54921300  1
  O  O3  1  0.81834300  0.80380400  0.45078700  1
  O  O4  1  0.80606800  0.29207900  0.21384300  1
  O  O5  1  0.69621800  0.18311800  0.79185700  1
  O  O6  1  0.19393200  0.70792100  0.78615700  1
  O  O7  1  0.30378200  0.81688200  0.20814300  1
  O  O8  1  0.15410800  0.16792700  0.89641900  1
  O  O9  1  0.84589200  0.83207300  0.10358100  1
loop_
_geom_bond_atom_site_label_1
_geom_bond_atom_site_label_2
_geom_bond_distance
_geom_bond_site_symmetry_2
K0 O6 2.790145 1_555
K0 O4 2.790145 1_555
K0 O5 2.824812 1_555
K0 O7 2.824812 1_555
K0 O3 2.971183 1_555
K0 O2 2.971183 1_555
Co0 O1 1.886484 1_555
Co0 O0 1.886484 1_454
Co0 O4 2.092748 1_455
Co0 O6 2.092748 1_554
Co0 O9 2.106744 1_455
Co0 O8 2.106744 1_554
Co1 O0 1.759749 1_544
Co1 O1 1.759749 1_555
Co1 O5 2.001663 1_554
Co1 O7 2.001663 1_545
Co1 O9 2.155075 1_545
Co1 O8 2.155075 1_554
Mo0 O2 1.740390 1_555
Mo0 O6 1.797510 1_545
Mo0 O5 1.817389 1_455
Mo0 O8 1.869801 1_555
Mo1 O3 1.740390 1_555
Mo1 O4 1.797510 1_565
Mo1 O7 1.817389 1_655
Mo1 O9 1.869801 1_555
