# generated using pymatgen
data_Ba2MgNbInO6
_symmetry_space_group_name_H-M   'P 1'
_cell_length_a   6.93199815
_cell_length_b   6.93778195
_cell_length_c   6.93778216
_cell_angle_alpha   53.20552948
_cell_angle_beta   53.21869158
_cell_angle_gamma   53.21868484
_symmetry_Int_Tables_number   1
_chemical_formula_structural   Ba2MgNbInO6
_chemical_formula_sum   'Ba2 Mg1 Nb1 In1 O6'
_cell_volume   198.43304457
_cell_formula_units_Z   1
loop_
 _symmetry_equiv_pos_site_id
 _symmetry_equiv_pos_as_xyz
  1  'x, y, z'
loop_
 _atom_site_type_symbol
 _atom_site_label
 _atom_site_symmetry_multiplicity
 _atom_site_fract_x
 _atom_site_fract_y
 _atom_site_fract_z
 _atom_site_occupancy
  Ba  Ba0  1  0.72793345  0.72619933  0.72619933  1
  Ba  Ba1  1  0.31534969  0.31433855  0.31433855  1
  Mg  Mg0  1  0.09229850  0.09077479  0.09077479  1
  Nb  Nb0  1  0.92487092  0.92456864  0.92456864  1
  In  In0  1  0.50456749  0.50323534  0.50323534  1
  O  O0  1  0.27688380  0.75103204  0.75103204  1
  O  O1  1  0.27371349  0.74111661  0.27264417  1
  O  O2  1  0.75160542  0.27700194  0.75142684  1
  O  O3  1  0.27371349  0.27264417  0.74111661  1
  O  O4  1  0.74287530  0.27266174  0.27266174  1
  O  O5  1  0.75160542  0.75142684  0.27700194  1
loop_
_geom_bond_atom_site_label_1
_geom_bond_atom_site_label_2
_geom_bond_distance
_geom_bond_site_symmetry_2
Ba0 O2 2.922041 1_555
Ba0 O5 2.922041 1_555
Ba0 O0 2.929311 1_555
Ba0 O3 3.169900 1_655
Ba0 O1 3.169901 1_655
Ba0 O4 3.174098 1_565
Ba0 O4 3.174098 1_556
Ba0 O3 3.175265 1_565
Ba0 O1 3.175265 1_556
Ba0 Nb0 3.524269 1_555
Ba1 O1 2.642818 1_555
Ba1 O3 2.642818 1_555
Ba1 O4 2.645369 1_555
Ba1 O5 3.254976 1_545
Ba1 O2 3.254976 1_554
Ba1 O5 3.257972 1_455
Ba1 O2 3.257972 1_455
Ba1 O0 3.258895 1_545
Ba1 O0 3.258895 1_554
Mg0 O1 1.907521 1_545
Mg0 O3 1.907522 1_554
Mg0 O4 1.907534 1_455
Nb0 O0 1.885063 1_655
Nb0 O2 1.885897 1_565
Nb0 O5 1.885897 1_556
In0 O4 2.140810 1_555
In0 O1 2.141095 1_555
In0 O3 2.141095 1_555
In0 O2 2.331512 1_555
In0 O5 2.331512 1_555
In0 O0 2.333200 1_555
