# generated using pymatgen
data_Na30Mg20Ta4Si9(S3O16)9
_symmetry_space_group_name_H-M   'P 1'
_cell_length_a   17.82994964
_cell_length_b   8.96058997
_cell_length_c   22.36758482
_cell_angle_alpha   89.94536130
_cell_angle_beta   89.94548676
_cell_angle_gamma   120.09863987
_symmetry_Int_Tables_number   1
_chemical_formula_structural   Na30Mg20Ta4Si9(S3O16)9
_chemical_formula_sum   'Na30 Mg20 Ta4 Si9 S27 O144'
_cell_volume   3091.74114021
_cell_formula_units_Z   1
loop_
 _symmetry_equiv_pos_site_id
 _symmetry_equiv_pos_as_xyz
  1  'x, y, z'
loop_
 _atom_site_type_symbol
 _atom_site_label
 _atom_site_symmetry_multiplicity
 _atom_site_fract_x
 _atom_site_fract_y
 _atom_site_fract_z
 _atom_site_occupancy
  Na  Na0  1  0.80957448  0.00445856  0.24094676  1
  Na  Na1  1  0.00468337  0.63872303  0.24295299  1
  Na  Na2  1  0.50331030  0.63460041  0.24195593  1
  Na  Na3  1  0.00262391  0.37155538  0.74051029  1
  Na  Na4  1  0.50275836  0.37158883  0.74164425  1
  Na  Na5  1  0.18126200  0.01055214  0.75272983  1
  Na  Na6  1  0.65495677  0.34948822  0.58339091  1
  Na  Na7  1  0.65955636  0.95622008  0.08608493  1
  Na  Na8  1  0.83310454  0.69139485  0.07672725  1
  Na  Na9  1  0.00846915  0.33845700  0.08157227  1
  Na  Na10  1  0.48032171  0.66008686  0.92513455  1
  Na  Na11  1  0.84909482  0.03526969  0.92458968  1
  Na  Na12  1  0.16517243  0.29713833  0.91066436  1
  Na  Na13  1  0.66498519  0.30029569  0.90877200  1
  Na  Na14  1  0.48020782  0.29950678  0.42439448  1
  Na  Na15  1  0.98453647  0.30491544  0.42674130  1
  Na  Na16  1  0.16560841  0.03204054  0.40972665  1
  Na  Na17  1  0.66458992  0.03153491  0.40955864  1
  Na  Na18  1  0.99263878  0.99428090  0.49942183  1
  Na  Na19  1  0.48224812  0.97518375  0.49810142  1
  Na  Na20  1  0.00019262  0.97497641  0.99718770  1
  Na  Na21  1  0.48234205  0.98970134  0.99897661  1
  Na  Na22  1  0.32638266  0.33371421  0.82954395  1
  Na  Na23  1  0.82596343  0.34359804  0.82553704  1
  Na  Na24  1  0.31820274  0.31856073  0.32621719  1
  Na  Na25  1  0.82173295  0.33613623  0.32919920  1
  Na  Na26  1  0.17099947  0.69532729  0.16536683  1
  Na  Na27  1  0.65852972  0.66504710  0.16179511  1
  Na  Na28  1  0.16267887  0.63689035  0.66028319  1
  Na  Na29  1  0.66499080  0.66289334  0.66637045  1
  Mg  Mg0  1  0.00495469  -0.00012793  0.34891641  1
  Mg  Mg1  1  0.49975556  0.99873250  0.34862399  1
  Mg  Mg2  1  0.00467864  0.99692812  0.84858173  1
  Mg  Mg3  1  0.50228284  0.00535640  0.84745039  1
  Mg  Mg4  1  0.33490767  0.34697512  0.68111428  1
  Mg  Mg5  1  0.83260642  0.33616890  0.68338238  1
  Mg  Mg6  1  0.33147873  0.32329311  0.18364023  1
  Mg  Mg7  1  0.83077201  0.32272816  0.18119845  1
  Mg  Mg8  1  0.33686764  0.33150151  0.98801879  1
  Mg  Mg9  1  0.84556037  0.34641923  0.98864325  1
  Mg  Mg10  1  0.33641338  0.33922573  0.48853296  1
  Mg  Mg11  1  0.84010894  0.34210558  0.48752939  1
  Mg  Mg12  1  0.16805264  0.68152958  0.01916263  1
  Mg  Mg13  1  0.66156598  0.66482266  0.02149658  1
  Mg  Mg14  1  0.16373944  0.65678165  0.52084715  1
  Mg  Mg15  1  0.66364636  0.66554932  0.51943449  1
  Mg  Mg16  1  0.17055100  0.67783931  0.31271650  1
  Mg  Mg17  1  0.66574908  0.66649224  0.31332585  1
  Mg  Mg18  1  0.16833553  0.65886486  0.81423142  1
  Mg  Mg19  1  0.66944030  0.65977984  0.81020315  1
  Ta  Ta0  1  0.00374144  0.01804506  0.64606601  1
  Ta  Ta1  1  0.50083478  0.00809214  0.64732561  1
  Ta  Ta2  1  0.00771788  0.99803966  0.14663062  1
  Ta  Ta3  1  0.49861342  0.98854017  0.14864812  1
  Si  Si0  1  0.15591875  0.00566025  0.25607305  1
  Si  Si1  1  0.65222985  0.00749517  0.25611925  1
  Si  Si2  1  0.15438866  0.30463855  0.75466338  1
  Si  Si3  1  0.65429236  0.30186580  0.75470976  1
  Si  Si4  1  0.48143274  0.34474210  0.58377933  1
  Si  Si5  1  0.98130451  0.34818574  0.58392053  1
  Si  Si6  1  0.47721923  0.61482726  0.08397950  1
  Si  Si7  1  0.98201306  0.62157165  0.08634127  1
  Si  Si8  1  0.83349221  0.03341896  0.08267218  1
  S  S0  1  0.35236311  0.70716726  0.25196002  1
  S  S1  1  0.85450067  0.70969345  0.25084055  1
  S  S2  1  0.00206915  0.29215185  0.25288354  1
  S  S3  1  0.49984369  0.29033695  0.25247958  1
  S  S4  1  0.99860277  0.70909142  0.75128451  1
  S  S5  1  0.49938227  0.70933891  0.75283265  1
  S  S6  1  0.35304875  0.99619317  0.75110235  1
  S  S7  1  0.85428882  0.99721662  0.75215927  1
  S  S8  1  0.18608890  0.03685917  0.58374393  1
  S  S9  1  0.68665937  0.03765856  0.58281304  1
  S  S10  1  0.33354580  0.62851936  0.58361069  1
  S  S11  1  0.83536052  0.62974017  0.58315447  1
  S  S12  1  0.33388286  0.04019973  0.08403347  1
  S  S13  1  0.18983793  0.33860983  0.08238457  1
  S  S14  1  0.68373496  0.32904905  0.08239640  1
  S  S15  1  0.31292720  0.66772164  0.91660713  1
  S  S16  1  0.81296542  0.66488232  0.91642424  1
  S  S17  1  0.01840070  0.37229417  0.91553453  1
  S  S18  1  0.51874215  0.37150792  0.91598373  1
  S  S19  1  0.16774980  0.96242169  0.91564097  1
  S  S20  1  0.66583189  0.95882462  0.91585205  1
  S  S21  1  0.31255953  0.95764489  0.41708825  1
  S  S22  1  0.81277510  0.95792596  0.41548856  1
  S  S23  1  0.16798114  0.37684182  0.41622559  1
  S  S24  1  0.66795264  0.37518056  0.41739141  1
  S  S25  1  0.01837410  0.66574773  0.41600498  1
  S  S26  1  0.51796025  0.66578949  0.41610576  1
  O  O0  1  0.10965930  0.02260197  0.31565665  1
  O  O1  1  0.60408352  0.01963658  0.31465454  1
  O  O2  1  0.40715446  0.79464999  0.30367880  1
  O  O3  1  0.90889882  0.79666182  0.30265276  1
  O  O4  1  0.48899607  0.19044719  0.30728642  1
  O  O5  1  0.98691635  0.18101161  0.30545755  1
  O  O6  1  0.10988211  0.18314433  0.81258988  1
  O  O7  1  0.60756547  0.19233199  0.81406445  1
  O  O8  1  0.48768139  0.78670858  0.80745205  1
  O  O9  1  0.98574436  0.78793535  0.80438482  1
  O  O10  1  0.40655804  0.01777088  0.80326705  1
  O  O11  1  0.90633248  0.01820202  0.80620186  1
  O  O12  1  0.39620520  0.97116190  0.69619170  1
  O  O13  1  0.90031860  0.97362157  0.69834216  1
  O  O14  1  0.08376392  0.18522045  0.69654953  1
  O  O15  1  0.58314897  0.17978575  0.69570224  1
  O  O16  1  0.00860638  0.81685097  0.69712126  1
  O  O17  1  0.50517190  0.81562745  0.69925069  1
  O  O18  1  0.39742456  0.82169472  0.19646086  1
  O  O19  1  0.89638074  0.82107433  0.19497241  1
  O  O20  1  0.00810755  0.20320203  0.19750676  1
  O  O21  1  0.50657218  0.19600200  0.19906982  1
  O  O22  1  0.08522784  0.98635937  0.19880613  1
  O  O23  1  0.58392201  0.98494341  0.19630530  1
  O  O24  1  0.43753065  0.35509506  0.64507311  1
  O  O25  1  0.93538479  0.35333050  0.64509241  1
  O  O26  1  0.23510491  0.12005589  0.63789231  1
  O  O27  1  0.73734657  0.12341547  0.63523990  1
  O  O28  1  0.31947260  0.52437292  0.63701170  1
  O  O29  1  0.81748394  0.51821635  0.63541784  1
  O  O30  1  0.43428168  0.51751742  0.14536811  1
  O  O31  1  0.93966796  0.51793319  0.14771507  1
  O  O32  1  0.32011021  0.11736503  0.13675336  1
  O  O33  1  0.81175318  0.11236951  0.14061888  1
  O  O34  1  0.24038690  0.35567709  0.13468221  1
  O  O35  1  0.73782101  0.35664974  0.13478540  1
  O  O36  1  0.22070340  0.29891317  0.02676107  1
  O  O37  1  0.71670524  0.28730055  0.02782153  1
  O  O38  1  0.42459735  0.55079322  0.02192685  1
  O  O39  1  0.91572066  0.55954061  0.03046770  1
  O  O40  1  0.34925799  0.14193327  0.02918671  1
  O  O41  1  0.85618438  0.15097748  0.02227092  1
  O  O42  1  0.21993739  0.14419121  0.52952066  1
  O  O43  1  0.71842113  0.14587033  0.52792647  1
  O  O44  1  0.34942420  0.55569143  0.52963147  1
  O  O45  1  0.84897840  0.55513787  0.52882556  1
  O  O46  1  0.42827631  0.30505387  0.52210059  1
  O  O47  1  0.92718392  0.30067775  0.52202067  1
  O  O48  1  0.27265447  0.68737621  0.97088811  1
  O  O49  1  0.77406751  0.68934624  0.97173603  1
  O  O50  1  0.07151727  0.45276547  0.96944145  1
  O  O51  1  0.57547789  0.45747912  0.96774204  1
  O  O52  1  0.16015485  0.85741401  0.96762417  1
  O  O53  1  0.65665997  0.85929794  0.97104059  1
  O  O54  1  0.27295164  0.85711610  0.47131118  1
  O  O55  1  0.77043726  0.85400426  0.46872110  1
  O  O56  1  0.15745643  0.46184870  0.46911994  1
  O  O57  1  0.65878133  0.45774081  0.47226614  1
  O  O58  1  0.07499354  0.69298498  0.46761271  1
  O  O59  1  0.57539755  0.69376582  0.46767185  1
  O  O60  1  0.05689449  0.63825396  0.36093585  1
  O  O61  1  0.55735940  0.63988127  0.36104086  1
  O  O62  1  0.26081344  0.87358463  0.36352758  1
  O  O63  1  0.76211729  0.87512091  0.36055223  1
  O  O64  1  0.17789223  0.47582046  0.36160167  1
  O  O65  1  0.67760279  0.47818372  0.36406737  1
  O  O66  1  0.06137497  0.47293724  0.86142947  1
  O  O67  1  0.55770103  0.47628194  0.86103354  1
  O  O68  1  0.17697209  0.88584604  0.85924246  1
  O  O69  1  0.67807727  0.87398954  0.86355985  1
  O  O70  1  0.26089287  0.64882264  0.86313416  1
  O  O71  1  0.75799039  0.64470709  0.86422376  1
  O  O72  1  0.00859969  0.82178528  0.41193395  1
  O  O73  1  0.50925788  0.82288624  0.41219583  1
  O  O74  1  0.40347875  0.98863163  0.41148353  1
  O  O75  1  0.90315831  0.98861775  0.41097523  1
  O  O76  1  0.08576067  0.20062414  0.41391593  1
  O  O77  1  0.58602574  0.20056648  0.41461049  1
  O  O78  1  0.00741543  0.19345472  0.91212874  1
  O  O79  1  0.50962378  0.19654747  0.91201553  1
  O  O80  1  0.08812566  0.98046994  0.91420018  1
  O  O81  1  0.58464902  0.97070733  0.91245733  1
  O  O82  1  0.40337888  0.81834694  0.91133197  1
  O  O83  1  0.90022548  0.82372743  0.91029412  1
  O  O84  1  0.49077870  0.15495092  0.59232247  1
  O  O85  1  0.98840548  0.15647594  0.59287461  1
  O  O86  1  0.09339431  0.01032566  0.59163402  1
  O  O87  1  0.59452910  0.01410124  0.59096200  1
  O  O88  1  0.41632495  0.80371792  0.59237659  1
  O  O89  1  0.91551181  0.80341234  0.59229749  1
  O  O90  1  0.48919766  0.82544702  0.09258131  1
  O  O91  1  0.99510899  0.82429644  0.09420694  1
  O  O92  1  0.41624319  0.02863044  0.09243196  1
  O  O93  1  0.92556131  0.02748961  0.09493438  1
  O  O94  1  0.09661097  0.18115494  0.09072799  1
  O  O95  1  0.59386127  0.17140893  0.09193123  1
  O  O96  1  0.34759104  0.15483421  0.74409300  1
  O  O97  1  0.85067940  0.15636106  0.74474091  1
  O  O98  1  0.24450541  0.30688359  0.74315574  1
  O  O99  1  0.74633797  0.31743446  0.74305398  1
  O  O100  1  0.42413988  0.53297354  0.74710953  1
  O  O101  1  0.92612281  0.53248310  0.74562339  1
  O  O102  1  0.34967281  0.54235576  0.24404698  1
  O  O103  1  0.84810869  0.54112115  0.24380287  1
  O  O104  1  0.42546342  0.31731785  0.24659643  1
  O  O105  1  0.92501690  0.31445504  0.24811176  1
  O  O106  1  0.24746233  0.17505326  0.24434364  1
  O  O107  1  0.74739840  0.17444824  0.24815221  1
  O  O108  1  0.31942750  0.50582684  0.91914381  1
  O  O109  1  0.81852116  0.50471343  0.92015185  1
  O  O110  1  0.43147385  0.35442585  0.92213371  1
  O  O111  1  0.93005936  0.35091231  0.91856922  1
  O  O112  1  0.24438914  0.14192460  0.92092244  1
  O  O113  1  0.74208449  0.13788235  0.91980861  1
  O  O114  1  0.31934039  0.13285702  0.42015001  1
  O  O115  1  0.81826275  0.13163574  0.41888975  1
  O  O116  1  0.24262187  0.34540516  0.42227831  1
  O  O117  1  0.74287047  0.34472160  0.42213539  1
  O  O118  1  0.43134534  0.50903180  0.42239988  1
  O  O119  1  0.93082501  0.50823386  0.42193621  1
  O  O120  1  0.17498584  0.48545433  0.07555865  1
  O  O121  1  0.67336949  0.48023380  0.07442120  1
  O  O122  1  0.07563860  0.63635596  0.07782133  1
  O  O123  1  0.57821050  0.66636902  0.07986395  1
  O  O124  1  0.26148044  0.86173338  0.07725761  1
  O  O125  1  0.75606582  0.83398269  0.07619371  1
  O  O126  1  0.17607452  0.86568553  0.57661217  1
  O  O127  1  0.67573116  0.86597874  0.57539912  1
  O  O128  1  0.26193593  0.66347614  0.57663713  1
  O  O129  1  0.76030086  0.65782529  0.57611190  1
  O  O130  1  0.08008037  0.50269242  0.58016258  1
  O  O131  1  0.58340429  0.49426942  0.58005458  1
  O  O132  1  0.15055335  0.81833018  0.25119688  1
  O  O133  1  0.65418804  0.82554741  0.25076621  1
  O  O134  1  0.26720488  0.69106215  0.25368766  1
  O  O135  1  0.76867528  0.69645515  0.25422861  1
  O  O136  1  0.08114635  0.46132328  0.25641447  1
  O  O137  1  0.58091255  0.46185359  0.25420676  1
  O  O138  1  0.15035850  0.48109898  0.75202820  1
  O  O139  1  0.64817233  0.47766988  0.74917393  1
  O  O140  1  0.08187588  0.70572274  0.75497495  1
  O  O141  1  0.58002659  0.69978551  0.75456358  1
  O  O142  1  0.26512563  0.84575945  0.75389980  1
  O  O143  1  0.76814458  0.84350701  0.75389683  1
loop_
_geom_bond_atom_site_label_1
_geom_bond_atom_site_label_2
_geom_bond_distance
_geom_bond_site_symmetry_2
Na0 O107 2.295410 1_555
Na0 O133 2.416099 1_545
Na0 O33 2.435255 1_555
Na0 O135 2.493285 1_545
Na0 O105 2.499044 1_555
Na0 O63 2.867489 1_545
Na0 O19 2.950305 1_545
Na1 O132 2.278551 1_555
Na1 O31 2.409124 1_455
Na1 O103 2.471834 1_455
Na1 O105 2.516572 1_455
Na1 O136 2.578695 1_555
Na1 O60 2.799909 1_555
Na1 O22 2.871491 1_555
Na2 O133 2.363963 1_555
Na2 O102 2.432717 1_555
Na2 O30 2.448931 1_555
Na2 O104 2.462002 1_555
Na2 O137 2.556101 1_555
Na2 O61 2.825831 1_555
Na2 O23 2.903292 1_555
Na3 O138 2.318803 1_555
Na3 O97 2.413781 1_455
Na3 O25 2.414171 1_455
Na3 O101 2.434293 1_455
Na3 O140 2.612738 1_555
Na3 O14 2.875909 1_555
Na3 O66 2.879834 1_555
Na4 O139 2.276709 1_555
Na4 O24 2.423488 1_555
Na4 O96 2.457553 1_555
Na4 O100 2.470677 1_555
Na4 O141 2.562966 1_555
Na4 O67 2.838845 1_555
Na4 O15 2.921594 1_555
Na5 O98 2.315898 1_555
Na5 O140 2.397579 1_545
Na5 O142 2.575190 1_545
Na5 O96 2.580053 1_555
Na5 O68 2.615214 1_545
Na5 O26 2.743725 1_555
Na5 O6 2.789099 1_555
Na5 O16 2.947674 1_545
Na6 O131 2.230752 1_555
Na6 O129 2.445729 1_555
Na6 O84 2.554959 1_555
Na6 O87 2.640498 1_555
Na6 O57 2.655649 1_555
Na6 O29 2.766419 1_555
Na6 O43 2.867204 1_555
Na6 O15 2.880324 1_555
Na7 O123 2.256429 1_555
Na7 O125 2.469781 1_555
Na7 O33 2.647810 1_565
Na7 O90 2.655081 1_555
Na7 O53 2.708901 1_554
Na7 O95 2.715269 1_565
Na7 O23 2.881991 1_555
Na7 O37 2.914785 1_565
Na8 O125 2.297736 1_555
Na8 O121 2.507946 1_555
Na8 O39 2.526146 1_555
Na8 O91 2.543141 1_555
Na8 O49 2.570749 1_554
Na8 O93 2.641471 1_565
Na8 O19 2.883581 1_555
Na8 O35 2.906384 1_555
Na9 O122 2.315113 1_555
Na9 O93 2.430038 1_455
Na9 O120 2.577689 1_555
Na9 O94 2.592356 1_555
Na9 O41 2.718485 1_455
Na9 O50 2.727316 1_554
Na9 O20 2.859998 1_555
Na9 O31 2.873982 1_455
Na10 O38 2.376860 1_556
Na10 O110 2.423334 1_555
Na10 O82 2.437140 1_555
Na10 O81 2.468235 1_555
Na10 O108 2.486397 1_555
Na10 O8 2.842134 1_555
Na10 O53 2.916616 1_555
Na10 O67 2.991933 1_555
Na11 O41 2.395435 1_556
Na11 O111 2.450588 1_555
Na11 O78 2.457621 1_655
Na11 O113 2.501410 1_555
Na11 O83 2.502056 1_545
Na11 O11 2.868665 1_555
Na11 O49 2.888216 1_545
Na11 O69 2.973500 1_545
Na12 O6 2.413691 1_555
Na12 O108 2.437313 1_555
Na12 O112 2.439719 1_555
Na12 O80 2.456570 1_545
Na12 O78 2.480883 1_555
Na12 O36 2.777255 1_556
Na12 O70 2.927383 1_555
Na12 O50 2.965883 1_555
Na13 O7 2.342269 1_555
Na13 O109 2.426305 1_555
Na13 O79 2.441208 1_555
Na13 O113 2.464782 1_555
Na13 O81 2.556750 1_545
Na13 O37 2.840159 1_556
Na13 O71 2.850446 1_555
Na13 O51 2.919674 1_555
Na14 O46 2.382968 1_555
Na14 O74 2.427904 1_545
Na14 O118 2.434412 1_555
Na14 O77 2.463921 1_555
Na14 O114 2.484092 1_555
Na14 O4 2.828183 1_555
Na14 O57 2.962429 1_555
Na14 O61 2.997100 1_555
Na15 O47 2.354947 1_555
Na15 O76 2.429850 1_655
Na15 O119 2.448999 1_555
Na15 O75 2.478045 1_545
Na15 O115 2.572053 1_555
Na15 O56 2.835739 1_655
Na15 O5 2.940519 1_555
Na15 O60 2.979193 1_655
Na16 O0 2.312861 1_555
Na16 O114 2.429355 1_555
Na16 O116 2.446196 1_555
Na16 O72 2.469520 1_545
Na16 O76 2.544531 1_555
Na16 O42 2.856867 1_555
Na16 O62 2.895203 1_545
Na16 O58 2.929567 1_545
Na17 O1 2.360262 1_555
Na17 O115 2.427354 1_555
Na17 O73 2.444473 1_545
Na17 O117 2.444671 1_555
Na17 O77 2.529249 1_555
Na17 O43 2.829205 1_555
Na17 O59 2.922334 1_545
Na17 O63 2.938279 1_545
Na18 O75 2.527210 1_555
Na18 O85 2.569609 1_565
Na18 O76 2.596431 1_665
Na18 O72 2.597186 1_655
Na18 O89 2.600123 1_555
Na18 O86 2.692712 1_665
Na19 O74 2.432105 1_555
Na19 O88 2.523222 1_555
Na19 O73 2.539454 1_555
Na19 O84 2.611660 1_565
Na19 O77 2.688521 1_565
Na19 O87 2.784377 1_565
Na20 O80 2.413094 1_555
Na20 O83 2.525886 1_455
Na20 O91 2.532147 1_456
Na20 O78 2.684858 1_565
Na20 O93 2.719688 1_466
Na20 O94 2.752251 1_566
Na21 O82 2.454737 1_555
Na21 O92 2.507852 1_566
Na21 O79 2.557820 1_565
Na21 O90 2.596124 1_556
Na21 O81 2.721546 1_555
Na21 O95 2.773959 1_566
Na22 O98 2.361569 1_555
Na22 O100 2.547951 1_555
Na22 O108 2.570534 1_555
Na22 O112 2.595377 1_555
Na22 O96 2.641546 1_555
Na22 O110 2.737493 1_555
Na23 O99 2.268561 1_555
Na23 O101 2.491082 1_555
Na23 O109 2.603464 1_555
Na23 O97 2.649701 1_555
Na23 O113 2.702303 1_555
Na23 O111 2.768555 1_555
Na24 O106 2.231655 1_555
Na24 O102 2.564510 1_555
Na24 O116 2.609830 1_555
Na24 O104 2.616144 1_555
Na24 O114 2.685337 1_555
Na24 O118 2.858832 1_555
Na25 O107 2.285972 1_555
Na25 O103 2.523626 1_555
Na25 O117 2.531313 1_555
Na25 O105 2.659287 1_555
Na25 O115 2.695441 1_555
Na25 O119 2.733044 1_555
Na26 O132 2.332182 1_555
Na26 O122 2.472210 1_555
Na26 O124 2.507122 1_555
Na26 O134 2.630322 1_555
Na26 O120 2.778110 1_555
Na26 O136 2.779758 1_555
Na27 O123 2.330539 1_555
Na27 O133 2.480232 1_555
Na27 O125 2.515878 1_555
Na27 O137 2.638752 1_555
Na27 O121 2.660186 1_555
Na27 O135 2.768604 1_555
Na28 O130 2.249325 1_555
Na28 O138 2.427819 1_555
Na28 O128 2.501849 1_555
Na28 O126 2.695072 1_555
Na28 O142 2.794640 1_555
Na28 O140 2.798221 1_555
Na29 O139 2.401830 1_555
Na29 O131 2.435780 1_555
Na29 O141 2.606431 1_555
Na29 O143 2.619580 1_555
Na29 O129 2.652697 1_555
Na29 O127 2.670456 1_555
Mg0 O0 1.922463 1_555
Mg0 O3 2.049093 1_445
Mg0 O5 2.050376 1_455
Mg0 O72 2.153466 1_545
Mg0 O76 2.198860 1_555
Mg0 O75 2.245591 1_445
Mg1 O1 1.928776 1_565
Mg1 O2 2.014744 1_555
Mg1 O4 2.042224 1_565
Mg1 O74 2.184298 1_555
Mg1 O73 2.190291 1_555
Mg1 O77 2.243785 1_565
Mg2 O6 1.950945 1_565
Mg2 O9 1.992065 1_455
Mg2 O11 2.085135 1_465
Mg2 O80 2.147907 1_555
Mg2 O83 2.207838 1_455
Mg2 O78 2.245564 1_565
Mg3 O7 1.931061 1_555
Mg3 O10 2.023746 1_555
Mg3 O8 2.049127 1_545
Mg3 O79 2.194977 1_555
Mg3 O81 2.197252 1_545
Mg3 O82 2.232994 1_545
Mg4 O24 1.966408 1_555
Mg4 O28 2.002984 1_555
Mg4 O98 2.016667 1_555
Mg4 O26 2.147928 1_555
Mg4 O100 2.199471 1_555
Mg4 O96 2.320831 1_555
Mg5 O25 1.956900 1_555
Mg5 O99 1.977942 1_555
Mg5 O29 2.079197 1_555
Mg5 O27 2.106778 1_555
Mg5 O101 2.209076 1_555
Mg5 O97 2.258475 1_555
Mg6 O106 1.961880 1_555
Mg6 O30 1.978916 1_555
Mg6 O32 2.043234 1_555
Mg6 O34 2.096849 1_555
Mg6 O104 2.210946 1_555
Mg6 O102 2.269618 1_555
Mg7 O33 1.963312 1_555
Mg7 O31 1.994677 1_555
Mg7 O107 2.056437 1_555
Mg7 O35 2.103509 1_555
Mg7 O105 2.280082 1_555
Mg7 O103 2.298984 1_555
Mg8 O38 1.950755 1_556
Mg8 O40 2.038603 1_556
Mg8 O36 2.124990 1_556
Mg8 O110 2.169445 1_555
Mg8 O112 2.248790 1_555
Mg8 O108 2.322406 1_555
Mg9 O39 1.922647 1_556
Mg9 O41 1.999771 1_556
Mg9 O111 2.159341 1_555
Mg9 O37 2.258667 1_556
Mg9 O109 2.296611 1_555
Mg9 O113 2.412318 1_555
Mg10 O46 1.960913 1_555
Mg10 O44 2.052721 1_555
Mg10 O42 2.135591 1_555
Mg10 O118 2.185434 1_555
Mg10 O116 2.256828 1_555
Mg10 O114 2.300739 1_555
Mg11 O47 1.929550 1_555
Mg11 O45 2.054986 1_555
Mg11 O119 2.135667 1_555
Mg11 O43 2.186927 1_555
Mg11 O117 2.278485 1_555
Mg11 O115 2.309869 1_555
Mg12 O122 1.981485 1_555
Mg12 O52 2.012973 1_554
Mg12 O124 2.093110 1_555
Mg12 O48 2.131932 1_554
Mg12 O50 2.206945 1_554
Mg12 O120 2.215243 1_555
Mg13 O123 1.982543 1_555
Mg13 O125 2.019713 1_555
Mg13 O51 2.097871 1_554
Mg13 O53 2.113615 1_554
Mg13 O121 2.127755 1_555
Mg13 O49 2.205428 1_554
Mg14 O130 1.954149 1_555
Mg14 O56 2.051848 1_555
Mg14 O128 2.127256 1_555
Mg14 O58 2.131793 1_555
Mg14 O126 2.168011 1_555
Mg14 O54 2.174402 1_555
Mg15 O131 2.007727 1_555
Mg15 O59 2.069342 1_555
Mg15 O57 2.104738 1_555
Mg15 O127 2.110824 1_555
Mg15 O55 2.128644 1_555
Mg15 O129 2.169213 1_555
Mg16 O132 2.013267 1_555
Mg16 O62 2.033297 1_555
Mg16 O134 2.125505 1_555
Mg16 O60 2.160997 1_555
Mg16 O64 2.173420 1_555
Mg16 O136 2.190350 1_555
Mg17 O133 2.079239 1_555
Mg17 O63 2.085306 1_555
Mg17 O61 2.112863 1_555
Mg17 O65 2.129431 1_555
Mg17 O137 2.150706 1_555
Mg17 O135 2.165126 1_555
Mg18 O138 2.017134 1_555
Mg18 O70 2.019958 1_555
Mg18 O66 2.081646 1_555
Mg18 O142 2.167127 1_555
Mg18 O68 2.205469 1_555
Mg18 O140 2.227444 1_555
Mg19 O139 2.013613 1_555
Mg19 O71 2.046509 1_555
Mg19 O143 2.116505 1_555
Mg19 O67 2.161484 1_555
Mg19 O141 2.189765 1_555
Mg19 O69 2.200132 1_555
O0 Si0 1.613513 1_555
O1 Si1 1.598381 1_555
O2 S0 1.463868 1_555
O3 S1 1.461805 1_555
O4 S3 1.471464 1_555
O5 S2 1.474768 1_655
O6 Si2 1.619429 1_555
O7 Si3 1.610985 1_555
O8 S5 1.470686 1_555
O9 S4 1.458053 1_555
O10 S6 1.458279 1_545
O11 S7 1.478237 1_545
O12 S6 1.524059 1_555
O12 Ta1 2.039775 1_565
O13 S7 1.529686 1_555
O13 Ta0 2.045705 1_665
O14 Si2 1.753467 1_555
O14 Ta0 1.848621 1_555
O15 Si3 1.778174 1_555
O15 Ta1 1.852920 1_555
O16 S4 1.502175 1_455
O16 Ta0 2.171384 1_565
O17 S5 1.501038 1_555
O17 Ta1 2.111698 1_565
O18 S0 1.551902 1_555
O18 Ta3 1.980374 1_555
O19 S1 1.537410 1_555
O19 Ta2 2.111834 1_655
O20 S2 1.506256 1_555
O20 Ta2 2.160060 1_545
O21 S3 1.503152 1_555
O21 Ta3 2.118401 1_545
O22 Si0 1.744758 1_565
O22 Ta2 1.852233 1_555
O23 Si1 1.752400 1_565
O23 Ta3 1.871662 1_555
O24 Si4 1.603744 1_555
O25 Si5 1.606385 1_555
O26 S8 1.461763 1_555
O27 S9 1.445539 1_555
O28 S10 1.457054 1_555
O29 S11 1.464377 1_555
O30 Si6 1.599385 1_555
O31 Si7 1.615347 1_555
O32 S12 1.449227 1_555
O33 Si8 1.614460 1_555
O34 S13 1.438114 1_555
O35 S14 1.458692 1_555
O36 S13 1.474182 1_555
O37 S14 1.481797 1_555
O38 Si6 1.612461 1_555
O39 Si7 1.616518 1_555
O40 S12 1.468927 1_555
O41 Si8 1.633216 1_555
O42 S8 1.474590 1_555
O43 S9 1.487872 1_555
O44 S10 1.466270 1_555
O45 S11 1.465036 1_555
O46 Si4 1.610411 1_555
O47 Si5 1.618956 1_555
O48 S15 1.465039 1_555
O49 S16 1.486968 1_555
O50 S17 1.479745 1_555
O51 S18 1.476272 1_555
O52 S19 1.457898 1_555
O53 S20 1.482278 1_555
O54 S21 1.462661 1_555
O55 S22 1.464869 1_555
O56 S23 1.469643 1_555
O57 S24 1.484338 1_555
O58 S25 1.472018 1_555
O59 S26 1.478949 1_555
O60 S25 1.489406 1_555
O61 S26 1.492266 1_555
O62 S21 1.469919 1_555
O63 S22 1.485922 1_555
O64 S23 1.466617 1_555
O65 S24 1.463664 1_555
O66 S17 1.472435 1_555
O67 S18 1.488862 1_555
O68 S19 1.484472 1_555
O69 S20 1.470133 1_555
O70 S15 1.471364 1_555
O71 S16 1.477029 1_555
O72 S25 1.495922 1_555
O73 S26 1.494037 1_555
O74 S21 1.506261 1_555
O75 S22 1.495984 1_555
O76 S23 1.524355 1_555
O77 S24 1.514519 1_555
O78 S17 1.515798 1_555
O79 S18 1.495592 1_555
O80 S19 1.507675 1_555
O81 S20 1.505688 1_555
O82 S15 1.500894 1_555
O83 S16 1.497825 1_555
O84 Si4 1.800039 1_555
O84 Ta1 1.873884 1_555
O85 Si5 1.795725 1_555
O85 Ta0 1.834925 1_655
O86 S8 1.557070 1_555
O86 Ta0 2.037081 1_555
O87 S9 1.558123 1_555
O87 Ta1 2.070927 1_555
O88 S10 1.535762 1_555
O88 Ta1 2.091641 1_565
O89 S11 1.508800 1_555
O89 Ta0 2.143242 1_665
O90 Si6 1.800262 1_555
O90 Ta3 1.869342 1_555
O91 Si7 1.720620 1_555
O91 Ta2 1.871418 1_655
O92 S12 1.534812 1_555
O92 Ta3 2.097360 1_545
O93 Si8 1.691498 1_555
O93 Ta2 1.985659 1_645
O94 S13 1.560495 1_555
O94 Ta2 2.037606 1_545
O95 S14 1.528758 1_555
O95 Ta3 2.092700 1_545
O96 S6 1.480914 1_545
O97 S7 1.468621 1_545
O98 Si2 1.617150 1_555
O99 Si3 1.596982 1_555
O100 S5 1.479163 1_555
O101 S4 1.462858 1_555
O102 S0 1.464259 1_555
O103 S1 1.465341 1_555
O104 S3 1.468475 1_555
O105 S2 1.488079 1_655
O106 Si0 1.597007 1_555
O107 Si1 1.613051 1_555
O108 S15 1.513140 1_555
O109 S16 1.489620 1_555
O110 S18 1.491352 1_555
O111 S17 1.489769 1_655
O112 S19 1.504838 1_545
O113 S20 1.497730 1_545
O114 S21 1.514615 1_545
O115 S22 1.511844 1_545
O116 S23 1.498362 1_555
O117 S24 1.495305 1_555
O118 S26 1.483686 1_555
O119 S25 1.495284 1_655
O120 S13 1.474441 1_555
O121 S14 1.466943 1_555
O122 Si7 1.618054 1_455
O123 Si6 1.621629 1_555
O124 S12 1.475490 1_565
O125 Si8 1.626921 1_565
O126 S8 1.461422 1_565
O127 S9 1.460104 1_565
O128 S10 1.467678 1_555
O129 S11 1.489076 1_555
O130 Si5 1.606077 1_455
O131 Si4 1.632175 1_555
O132 Si0 1.636464 1_565
O133 Si1 1.652599 1_565
O134 S0 1.451849 1_555
O135 S1 1.476216 1_555
O136 S2 1.465888 1_555
O137 S3 1.491628 1_555
O138 Si2 1.619440 1_555
O139 Si3 1.637345 1_555
O140 S4 1.502466 1_455
O141 S5 1.483204 1_555
O142 S6 1.469254 1_555
O143 S7 1.461388 1_555
