# generated using pymatgen
data_MgV4(OF2)4
_symmetry_space_group_name_H-M   'P 1'
_cell_length_a   5.30884389
_cell_length_b   9.31437428
_cell_length_c   5.14498313
_cell_angle_alpha   104.39525099
_cell_angle_beta   117.13606889
_cell_angle_gamma   74.05401671
_symmetry_Int_Tables_number   1
_chemical_formula_structural   MgV4(OF2)4
_chemical_formula_sum   'Mg1 V4 O4 F8'
_cell_volume   215.42385506
_cell_formula_units_Z   1
loop_
 _symmetry_equiv_pos_site_id
 _symmetry_equiv_pos_as_xyz
  1  'x, y, z'
loop_
 _atom_site_type_symbol
 _atom_site_label
 _atom_site_symmetry_multiplicity
 _atom_site_fract_x
 _atom_site_fract_y
 _atom_site_fract_z
 _atom_site_occupancy
  Mg  Mg0  1  0.38162800  0.87886100  0.67867000  1
  V  V0  1  0.98471400  0.01347800  0.00038800  1
  V  V1  1  0.75471600  0.73587200  0.21253900  1
  V  V2  1  0.48695900  0.49769000  0.53120600  1
  V  V3  1  0.24202800  0.25779300  0.77259300  1
  O  O0  1  0.78934800  0.90054500  0.04814300  1
  O  O1  1  0.30559300  0.40695900  0.61991600  1
  O  O2  1  0.20197700  0.07518000  0.87333100  1
  O  O3  1  0.52197700  0.67485100  0.81369700  1
  F  F0  1  0.14709800  0.62169500  0.25107400  1
  F  F1  1  0.03268800  0.16265700  0.34372000  1
  F  F2  1  0.37030900  0.88074500  0.28528500  1
  F  F3  1  0.47016100  0.33979700  0.17694400  1
  F  F4  1  0.71100100  0.58790000  0.38940100  1
  F  F5  1  0.61650900  0.12498900  0.74932500  1
  F  F6  1  0.97891900  0.84850500  0.62048800  1
  F  F7  1  0.87312100  0.38533900  0.77078400  1
loop_
_geom_bond_atom_site_label_1
_geom_bond_atom_site_label_2
_geom_bond_distance
_geom_bond_site_symmetry_2
Mg0 O3 2.013676 1_555
Mg0 O2 2.063709 1_565
Mg0 O0 2.153001 1_556
O0 V0 1.789694 1_565
O0 V1 2.010893 1_555
O1 V2 1.699804 1_555
O1 V3 1.924424 1_555
O2 V0 1.823960 1_456
O2 V3 1.986095 1_555
O3 V1 1.885109 1_556
O3 V2 1.897241 1_555
F0 V2 1.994305 1_555
F0 V1 2.005105 1_455
F1 V0 1.918213 1_455
F1 V3 2.054534 1_555
F2 Mg0 2.001616 1_555
F2 V0 2.154257 1_465
F2 V1 2.249040 1_555
F3 V3 1.948848 1_554
F3 V2 2.020875 1_555
F4 V1 1.942543 1_555
F4 V2 2.073289 1_555
F5 V0 1.953603 1_556
F5 V3 2.071011 1_555
F6 V1 2.057921 1_555
F6 Mg0 2.108677 1_655
F6 V0 2.158768 1_566
F7 V3 1.989348 1_655
F7 V2 1.993673 1_555
