# generated using pymatgen
data_Na6Zn2Si3Ge2(SO8)3
_symmetry_space_group_name_H-M   'P 1'
_cell_length_a   8.86836843
_cell_length_b   8.93464532
_cell_length_c   21.86220211
_cell_angle_alpha   89.84493165
_cell_angle_beta   91.60361755
_cell_angle_gamma   118.83892851
_symmetry_Int_Tables_number   1
_chemical_formula_structural   Na6Zn2Si3Ge2(SO8)3
_chemical_formula_sum   'Na18 Zn6 Si9 Ge6 S9 O72'
_cell_volume   1516.72069064
_cell_formula_units_Z   3
loop_
 _symmetry_equiv_pos_site_id
 _symmetry_equiv_pos_as_xyz
  1  'x, y, z'
loop_
 _atom_site_type_symbol
 _atom_site_label
 _atom_site_symmetry_multiplicity
 _atom_site_fract_x
 _atom_site_fract_y
 _atom_site_fract_z
 _atom_site_occupancy
  Na  Na0  1  0.37341076  0.35520788  0.24636480  1
  Na  Na1  1  0.99830085  0.63250004  0.23918404  1
  Na  Na2  1  0.98946010  0.36031684  0.74559079  1
  Na  Na3  1  0.38199445  0.02474371  0.74648067  1
  Na  Na4  1  0.30115345  0.34118303  0.57904256  1
  Na  Na5  1  0.64802503  0.96671643  0.59128616  1
  Na  Na6  1  0.30784809  0.95958080  0.07000478  1
  Na  Na7  1  0.65083103  0.68499191  0.08314681  1
  Na  Na8  1  0.98533711  0.68201445  0.91701841  1
  Na  Na9  1  0.32343001  0.28971677  0.91064320  1
  Na  Na10  1  0.98026279  0.30153719  0.42608971  1
  Na  Na11  1  0.32703842  0.03465723  0.41547475  1
  Na  Na12  1  0.99809693  0.98335495  0.50092709  1
  Na  Na13  1  0.99850214  0.01578208  0.99152755  1
  Na  Na14  1  0.66059334  0.32164252  0.82724372  1
  Na  Na15  1  0.65836792  0.32470913  0.33160118  1
  Na  Na16  1  0.31822651  0.64850498  0.15874660  1
  Na  Na17  1  0.31502418  0.66655935  0.66116390  1
  Zn  Zn0  1  0.02840359  0.01827242  0.34782456  1
  Zn  Zn1  1  0.03184991  0.01576766  0.84326095  1
  Zn  Zn2  1  0.65366185  0.31547519  0.68562810  1
  Zn  Zn3  1  0.65118686  0.32410110  0.17971044  1
  Zn  Zn4  1  0.30020771  0.65050728  0.01942010  1
  Zn  Zn5  1  0.30035230  0.65005307  0.52345786  1
  Si  Si0  1  0.31065955  0.99151406  0.25406868  1
  Si  Si1  1  0.31059003  0.31936669  0.75428432  1
  Si  Si2  1  0.72161149  0.99702707  0.75036921  1
  Si  Si3  1  0.94290293  0.33166953  0.58618108  1
  Si  Si4  1  0.34900874  0.02543073  0.58887549  1
  Si  Si5  1  0.94382430  0.61142879  0.08751047  1
  Si  Si6  1  0.36516766  0.33297453  0.08602611  1
  Si  Si7  1  0.34671537  0.96163460  0.91834778  1
  Si  Si8  1  0.34636421  0.38481631  0.41973846  1
  Ge  Ge0  1  0.01306922  0.04690617  0.64933162  1
  Ge  Ge1  1  0.03168247  0.98858044  0.14090707  1
  Ge  Ge2  1  0.64776262  0.31707971  0.98670011  1
  Ge  Ge3  1  0.62547953  0.32572970  0.49647547  1
  Ge  Ge4  1  0.34865537  0.67218609  0.31737078  1
  Ge  Ge5  1  0.37478501  0.70116276  0.80634737  1
  S  S0  1  0.70522569  0.72025940  0.25249968  1
  S  S1  1  0.00410586  0.29193923  0.25158374  1
  S  S2  1  0.00929978  0.71639982  0.75218520  1
  S  S3  1  0.68021634  0.63200014  0.58422684  1
  S  S4  1  0.68326832  0.04739451  0.08478728  1
  S  S5  1  0.62511565  0.66165872  0.91864437  1
  S  S6  1  0.02400919  0.36799792  0.91683099  1
  S  S7  1  0.62936663  0.96086937  0.41666023  1
  S  S8  1  0.03421683  0.66206775  0.41159253  1
  O  O0  1  0.22817491  0.02348452  0.31352824  1
  O  O1  1  0.80745548  0.82114930  0.30483569  1
  O  O2  1  0.99056644  0.20747227  0.31066949  1
  O  O3  1  0.24296861  0.19871553  0.81285271  1
  O  O4  1  0.99726316  0.78285861  0.81217192  1
  O  O5  1  0.83598186  0.01244132  0.80878138  1
  O  O6  1  0.80773619  0.97251976  0.68473936  1
  O  O7  1  0.16854446  0.23315877  0.69307844  1
  O  O8  1  0.03280301  0.83433856  0.70086602  1
  O  O9  1  0.77407274  0.80408101  0.19261383  1
  O  O10  1  0.02226936  0.19625793  0.19880176  1
  O  O11  1  0.17238663  0.94330843  0.19065297  1
  O  O12  1  0.86292639  0.35160804  0.64694803  1
  O  O13  1  0.46998658  0.10364572  0.64777306  1
  O  O14  1  0.65894824  0.52471070  0.63634383  1
  O  O15  1  0.86033866  0.51729937  0.14942161  1
  O  O16  1  0.65571001  0.12314998  0.13892896  1
  O  O17  1  0.46644803  0.36448449  0.15057672  1
  O  O18  1  0.45500353  0.28222055  0.02781069  1
  O  O19  1  0.81157470  0.51192572  0.02652934  1
  O  O20  1  0.70294825  0.15160420  0.02779585  1
  O  O21  1  0.42886053  0.16362118  0.52744511  1
  O  O22  1  0.69376282  0.54357162  0.52481276  1
  O  O23  1  0.80610162  0.30078893  0.52240098  1
  O  O24  1  0.54725701  0.67790815  0.97417489  1
  O  O25  1  0.13606107  0.44621832  0.97137999  1
  O  O26  1  0.32190659  0.85145693  0.97860894  1
  O  O27  1  0.55366007  0.86956219  0.47225849  1
  O  O28  1  0.31753777  0.47546784  0.47694301  1
  O  O29  1  0.14764616  0.70149248  0.46590336  1
  O  O30  1  0.12415562  0.63906251  0.35526654  1
  O  O31  1  0.50839779  0.87203054  0.36015858  1
  O  O32  1  0.37260461  0.50097839  0.35413110  1
  O  O33  1  0.09857900  0.46807188  0.86089882  1
  O  O34  1  0.36909737  0.86479521  0.85481285  1
  O  O35  1  0.51067842  0.63556572  0.86201563  1
  O  O36  1  0.00124697  0.80807889  0.40472523  1
  O  O37  1  0.80292452  0.98309545  0.40867810  1
  O  O38  1  0.17881460  0.19331514  0.41379419  1
  O  O39  1  0.00057471  0.19363577  0.91360733  1
  O  O40  1  0.17427781  0.98516212  0.91357609  1
  O  O41  1  0.79934866  0.80354450  0.91262606  1
  O  O42  1  0.95113557  0.14520454  0.58353044  1
  O  O43  1  0.16100987  0.02469407  0.59572264  1
  O  O44  1  0.83791195  0.79760412  0.58330164  1
  O  O45  1  0.95151220  0.81054479  0.08677023  1
  O  O46  1  0.84532653  0.03296107  0.08829083  1
  O  O47  1  0.17688029  0.14658049  0.08914454  1
  O  O48  1  0.68964631  0.16055525  0.74966241  1
  O  O49  1  0.49799509  0.34582529  0.74201597  1
  O  O50  1  0.86381495  0.54471108  0.74434603  1
  O  O51  1  0.69114180  0.54768168  0.25553750  1
  O  O52  1  0.85850273  0.32608950  0.24583220  1
  O  O53  1  0.49388070  0.15750257  0.24455602  1
  O  O54  1  0.63301606  0.49377983  0.91873047  1
  O  O55  1  0.85372895  0.36940429  0.92314477  1
  O  O56  1  0.52163920  0.16151388  0.92447719  1
  O  O57  1  0.63778807  0.13248050  0.41467880  1
  O  O58  1  0.52404246  0.35641345  0.42616468  1
  O  O59  1  0.87278536  0.49870990  0.41444764  1
  O  O60  1  0.35147187  0.50252112  0.07353902  1
  O  O61  1  0.14320679  0.66408088  0.08259759  1
  O  O62  1  0.53540240  0.87391836  0.07707243  1
  O  O63  1  0.34424157  0.84861265  0.57254333  1
  O  O64  1  0.52682289  0.65655523  0.57767702  1
  O  O65  1  0.13976669  0.47774162  0.58033955  1
  O  O66  1  0.30561738  0.79961498  0.25992933  1
  O  O67  1  0.52062118  0.69341443  0.25314428  1
  O  O68  1  0.17080610  0.46507925  0.25197296  1
  O  O69  1  0.29919123  0.50091180  0.76387975  1
  O  O70  1  0.17634516  0.70191260  0.75198339  1
  O  O71  1  0.52187960  0.82423215  0.74864575  1
loop_
_geom_bond_atom_site_label_1
_geom_bond_atom_site_label_2
_geom_bond_distance
_geom_bond_site_symmetry_2
Na0 O17 2.258949 1_555
Na0 O68 2.433438 1_555
Na0 O53 2.467097 1_555
Na0 O51 2.496583 1_555
Na0 O67 2.653913 1_555
Na0 O32 2.696967 1_555
Na0 O10 2.890649 1_555
Na0 O0 2.999817 1_555
Na1 O15 2.251462 1_555
Na1 O52 2.405547 1_555
Na1 O66 2.423155 1_655
Na1 O51 2.486745 1_555
Na1 O68 2.614871 1_655
Na1 O11 2.675925 1_655
Na1 O30 2.732918 1_655
Na2 O12 2.386881 1_555
Na2 O48 2.386912 1_555
Na2 O50 2.392820 1_555
Na2 O69 2.428043 1_655
Na2 O7 2.642128 1_655
Na2 O70 2.681585 1_655
Na2 O33 2.682546 1_655
Na3 O13 2.306090 1_555
Na3 O48 2.391083 1_555
Na3 O49 2.540601 1_555
Na3 O70 2.568254 1_545
Na3 O71 2.625058 1_545
Na3 O34 2.739296 1_545
Na3 O3 2.828931 1_555
Na3 O8 2.869249 1_545
Na4 O65 2.285818 1_555
Na4 O28 2.505683 1_555
Na4 O43 2.510590 1_555
Na4 O64 2.551194 1_555
Na4 O21 2.624209 1_555
Na4 O42 2.735639 1_455
Na4 O7 2.754285 1_555
Na5 O42 2.384610 1_565
Na5 O63 2.395299 1_555
Na5 O6 2.439427 1_555
Na5 O64 2.456902 1_555
Na5 O27 2.723026 1_555
Na5 O13 2.737796 1_565
Na5 O44 2.760755 1_555
Na6 O26 2.254293 1_554
Na6 O61 2.340510 1_555
Na6 O62 2.480733 1_555
Na6 O47 2.493719 1_565
Na6 O18 2.699563 1_565
Na6 O45 2.810085 1_455
Na6 O11 2.903138 1_555
Na7 O45 2.340542 1_555
Na7 O60 2.354864 1_555
Na7 O62 2.360709 1_555
Na7 O24 2.519054 1_554
Na7 O9 2.607596 1_555
Na7 O46 2.733375 1_565
Na7 O19 2.861964 1_555
Na7 O17 2.939750 1_555
Na8 O41 2.372158 1_555
Na8 O40 2.403568 1_655
Na8 O4 2.446942 1_555
Na8 O55 2.458303 1_555
Na8 O54 2.743964 1_555
Na8 O33 2.846265 1_655
Na8 O19 2.888545 1_556
Na8 O26 2.905343 1_655
Na9 O3 2.259482 1_555
Na9 O40 2.385298 1_545
Na9 O54 2.457416 1_555
Na9 O56 2.530633 1_555
Na9 O39 2.564759 1_555
Na9 O18 2.799047 1_556
Na9 O35 2.926939 1_555
Na9 O25 2.975644 1_555
Na10 O59 2.383401 1_555
Na10 O38 2.403771 1_655
Na10 O37 2.523682 1_545
Na10 O23 2.644057 1_555
Na10 O57 2.665011 1_555
Na10 O2 2.679627 1_555
Na10 O28 2.817211 1_655
Na11 O38 2.352304 1_555
Na11 O0 2.356589 1_555
Na11 O57 2.457205 1_555
Na11 O58 2.550861 1_555
Na11 O36 2.612125 1_545
Na11 O21 2.650130 1_555
Na11 O29 2.849415 1_545
Na11 O31 2.921199 1_545
Na12 O43 2.416725 1_665
Na12 O44 2.422436 1_555
Na12 O42 2.482543 1_565
Na12 O37 2.619925 1_555
Na12 O36 2.634375 1_655
Na12 O38 2.639606 1_665
Na13 O39 2.320843 1_655
Na13 O40 2.443711 1_645
Na13 O41 2.511366 1_545
Na13 O47 2.542398 1_656
Na13 O46 2.589934 1_556
Na13 O45 2.676291 1_546
Na14 O48 2.325942 1_555
Na14 O49 2.397031 1_555
Na14 O56 2.552166 1_555
Na14 O55 2.571048 1_555
Na14 O54 2.613907 1_555
Na14 O50 2.683828 1_555
Na15 O53 2.395588 1_555
Na15 O57 2.445643 1_555
Na15 O58 2.497970 1_555
Na15 O51 2.503816 1_555
Na15 O59 2.506758 1_555
Na15 O52 2.613682 1_555
Na16 O61 2.294017 1_555
Na16 O60 2.381837 1_555
Na16 O68 2.571603 1_555
Na16 O67 2.596942 1_555
Na16 O66 2.627594 1_555
Na16 O62 2.717519 1_555
Na17 O65 2.391013 1_555
Na17 O70 2.463618 1_555
Na17 O63 2.463947 1_555
Na17 O71 2.516511 1_555
Na17 O69 2.655560 1_555
Na17 O64 2.687404 1_555
Ge0 O6 1.807055 1_445
Ge0 O7 1.818347 1_555
Ge0 O43 1.863551 1_555
Ge0 O42 1.885938 1_455
Ge0 O8 2.281453 1_545
Ge0 O44 2.451993 1_445
Ge1 O47 1.803009 1_565
Ge1 O45 1.818966 1_455
Ge1 O11 1.819892 1_555
Ge1 O46 2.176026 1_465
Ge1 O10 2.284733 1_565
Ge1 O9 2.390799 1_455
Ge2 O19 1.843089 1_556
Ge2 O18 1.843337 1_556
Ge2 O56 1.859776 1_555
Ge2 O20 1.974539 1_556
Ge2 O55 2.190962 1_555
Ge2 O54 2.212072 1_555
Ge3 O21 1.794736 1_555
Ge3 O23 1.797106 1_555
Ge3 O22 1.840449 1_555
Ge3 O58 1.845391 1_555
Ge4 O32 1.824312 1_555
Ge4 O66 1.844885 1_555
Ge4 O31 1.888061 1_555
Ge4 O67 2.042725 1_555
Ge4 O30 2.064078 1_555
Ge4 O68 2.242428 1_555
Ge5 O71 1.789680 1_555
Ge5 O69 1.824720 1_555
Ge5 O34 1.828981 1_555
Ge5 O35 1.967865 1_555
Ge5 O70 2.098549 1_555
O0 Si0 1.601025 1_545
O0 Zn0 1.922929 1_555
O1 S0 1.450098 1_555
O1 Zn0 2.097933 1_665
O2 S1 1.472601 1_655
O2 Zn0 2.038259 1_655
O3 Si1 1.604072 1_555
O3 Zn1 1.931489 1_555
O4 S2 1.468691 1_655
O4 Zn1 2.065591 1_665
O5 Si2 1.572325 1_545
O5 Zn1 1.861023 1_655
O6 Si2 1.707155 1_555
O7 Si1 1.716348 1_555
O8 S2 1.485730 1_555
O9 S0 1.498692 1_555
O10 S1 1.495629 1_555
O11 Si0 1.734908 1_555
O12 Si3 1.573406 1_555
O12 Zn2 1.942117 1_555
O13 Si4 1.581669 1_555
O13 Zn2 1.969572 1_555
O14 S3 1.443740 1_555
O14 Zn2 2.136662 1_555
O15 Si5 1.592704 1_555
O15 Zn3 1.957643 1_555
O16 S4 1.448794 1_555
O16 Zn3 2.024898 1_555
O17 Si6 1.601503 1_555
O17 Zn3 1.931478 1_555
O18 Si6 1.693685 1_555
O19 Si5 1.690064 1_555
O20 S4 1.516214 1_555
O21 Si4 1.740792 1_555
O22 S3 1.559394 1_555
O23 Si3 1.754068 1_555
O24 S5 1.454737 1_555
O24 Zn4 2.332609 1_556
O25 S6 1.471842 1_555
O25 Zn4 1.978700 1_556
O26 Si7 1.597926 1_555
O26 Zn4 1.929829 1_556
O27 S7 1.451089 1_555
O27 Zn5 2.454464 1_555
O28 Si8 1.583832 1_555
O28 Zn5 1.933159 1_555
O29 S8 1.462661 1_555
O29 Zn5 2.032338 1_555
O30 S8 1.552192 1_555
O31 S7 1.554490 1_555
O32 Si8 1.722274 1_555
O33 S6 1.483562 1_555
O34 Si7 1.704402 1_555
O35 S5 1.523162 1_555
O36 S8 1.474570 1_555
O36 Zn0 2.167989 1_565
O37 S7 1.469330 1_555
O37 Zn0 2.325424 1_665
O38 Si8 1.640140 1_555
O38 Zn0 2.048733 1_555
O39 S6 1.470557 1_555
O39 Zn1 2.330233 1_555
O40 Si7 1.641558 1_555
O40 Zn1 2.062904 1_565
O41 S5 1.460385 1_555
O41 Zn1 2.556227 1_665
O42 Si3 1.703625 1_555
O43 Si4 1.674971 1_555
O44 S3 1.466527 1_555
O45 Si5 1.747214 1_555
O46 S4 1.503528 1_555
O47 Si6 1.699830 1_555
O48 Si2 1.616944 1_545
O48 Zn2 2.090014 1_555
O49 Si1 1.592350 1_555
O49 Zn2 1.989281 1_555
O50 S2 1.458378 1_655
O50 Zn2 2.348221 1_555
O51 S0 1.487162 1_555
O51 Zn3 2.483213 1_555
O52 S1 1.465283 1_655
O52 Zn3 2.300029 1_555
O53 Si0 1.604819 1_545
O53 Zn3 2.065821 1_555
O54 S5 1.534955 1_555
O55 S6 1.526309 1_655
O56 Si7 1.711960 1_545
O57 S7 1.499256 1_545
O58 Si8 1.714698 1_555
O59 S8 1.473934 1_655
O60 Si6 1.599192 1_555
O60 Zn4 1.973853 1_555
O61 Si5 1.602271 1_455
O61 Zn4 2.032848 1_555
O62 S4 1.476030 1_565
O62 Zn4 2.402827 1_555
O63 Si4 1.600888 1_565
O63 Zn5 1.941946 1_555
O64 S3 1.481900 1_555
O64 Zn5 2.279642 1_555
O65 Si3 1.606586 1_455
O65 Zn5 1.979502 1_555
O66 Si0 1.698019 1_555
O67 S0 1.536367 1_555
O68 S1 1.540070 1_555
O69 Si1 1.687144 1_555
O70 S2 1.548138 1_555
O71 Si2 1.697321 1_555
