# generated using pymatgen
data_ZrMo2
_symmetry_space_group_name_H-M   'P 1'
_cell_length_a   5.37696957
_cell_length_b   5.37693267
_cell_length_c   5.37700851
_cell_angle_alpha   59.99954529
_cell_angle_beta   59.99977142
_cell_angle_gamma   59.99944902
_symmetry_Int_Tables_number   1
_chemical_formula_structural   ZrMo2
_chemical_formula_sum   'Zr2 Mo4'
_cell_volume   109.92433615
_cell_formula_units_Z   2
loop_
 _symmetry_equiv_pos_site_id
 _symmetry_equiv_pos_as_xyz
  1  'x, y, z'
loop_
 _atom_site_type_symbol
 _atom_site_label
 _atom_site_symmetry_multiplicity
 _atom_site_fract_x
 _atom_site_fract_y
 _atom_site_fract_z
 _atom_site_occupancy
  Zr  Zr0  1  0.12499314  0.12499667  0.12500549  1
  Zr  Zr1  1  0.87500686  0.87500333  0.87499451  1
  Mo  Mo0  1  0.00000000  0.50000000  0.50000000  1
  Mo  Mo1  1  0.50000000  -0.00000000  0.50000000  1
  Mo  Mo2  1  0.50000000  0.50000000  -0.00000000  1
  Mo  Mo3  1  0.50000000  0.50000000  0.50000000  1
loop_
_geom_bond_atom_site_label_1
_geom_bond_atom_site_label_2
_geom_bond_distance
_geom_bond_site_symmetry_2
Mo0 Mo1 2.688453 1_465
Mo0 Mo1 2.688453 1_555
Mo0 Mo3 2.688485 1_455
Mo0 Mo3 2.688485 1_555
Mo0 Mo2 2.688485 1_456
Mo0 Mo2 2.688485 1_555
Mo0 Zr0 3.152467 1_565
Mo0 Zr1 3.152467 1_445
Mo0 Zr0 3.152538 1_555
Mo0 Zr1 3.152538 1_455
Mo0 Zr0 3.152542 1_556
Mo0 Zr1 3.152542 1_454
Mo1 Mo3 2.688466 1_545
Mo1 Mo3 2.688466 1_555
Mo1 Mo2 2.688467 1_546
Mo1 Mo2 2.688467 1_555
Mo1 Zr0 3.152482 1_655
Mo1 Zr1 3.152482 1_445
Mo1 Zr0 3.152554 1_555
Mo1 Zr1 3.152554 1_545
Mo1 Zr1 3.152558 1_544
Mo1 Zr0 3.152558 1_556
Mo2 Mo3 2.688504 1_555
Mo2 Mo3 2.688504 1_554
Mo2 Zr1 3.152493 1_454
Mo2 Zr0 3.152493 1_655
Mo2 Zr1 3.152493 1_544
Mo2 Zr0 3.152493 1_565
Mo2 Zr0 3.152554 1_555
Mo2 Zr1 3.152554 1_554
Mo3 Zr1 3.152491 1_455
Mo3 Zr0 3.152491 1_655
Mo3 Zr0 3.152492 1_565
Mo3 Zr1 3.152492 1_545
Mo3 Zr0 3.152557 1_556
Mo3 Zr1 3.152557 1_554
