# generated using pymatgen
data_Na3LaAl(PO4)3
_symmetry_space_group_name_H-M   'P 1'
_cell_length_a   15.96436162
_cell_length_b   9.08634495
_cell_length_c   9.11941640
_cell_angle_alpha   90.40507300
_cell_angle_beta   125.03337183
_cell_angle_gamma   89.83085600
_symmetry_Int_Tables_number   1
_chemical_formula_structural   Na3LaAl(PO4)3
_chemical_formula_sum   'Na12 La4 Al4 P12 O48'
_cell_volume   1083.13817439
_cell_formula_units_Z   4
loop_
 _symmetry_equiv_pos_site_id
 _symmetry_equiv_pos_as_xyz
  1  'x, y, z'
loop_
 _atom_site_type_symbol
 _atom_site_label
 _atom_site_symmetry_multiplicity
 _atom_site_fract_x
 _atom_site_fract_y
 _atom_site_fract_z
 _atom_site_occupancy
  Na  Na0  1  0.23494018  0.77339642  0.98701118  1
  Na  Na1  1  0.75386622  0.72247527  0.51267994  1
  Na  Na2  1  0.75417386  0.26445602  0.01745339  1
  Na  Na3  1  0.23747665  0.21868713  0.49029578  1
  Na  Na4  1  0.50449663  0.08395536  0.77920501  1
  Na  Na5  1  0.50247828  0.92660756  0.23383776  1
  Na  Na6  1  0.00708109  0.60656996  0.74931765  1
  Na  Na7  1  0.99681722  0.38690732  0.23244653  1
  Na  Na8  1  0.82057616  0.93323111  0.21794131  1
  Na  Na9  1  0.81885897  0.08382716  0.71098608  1
  Na  Na10  1  0.29428423  0.42766719  0.17761083  1
  Na  Na11  1  0.30910383  0.55961396  0.72711677  1
  La  La0  1  0.10366713  0.76993441  0.54078607  1
  La  La1  1  0.59853775  0.26535671  0.55178154  1
  La  La2  1  0.39882460  0.74741137  0.44165206  1
  La  La3  1  0.60950533  0.73562766  0.05657895  1
  Al  Al0  1  0.90520305  0.75363460  0.94290170  1
  Al  Al1  1  0.89990108  0.25294973  0.44822180  1
  Al  Al2  1  0.09668552  0.24886266  0.04243253  1
  Al  Al3  1  0.37564060  0.25909980  0.92748633  1
  P  P0  1  0.99615532  0.96956334  0.75496177  1
  P  P1  1  0.99773047  0.05766322  0.22878870  1
  P  P2  1  0.48207692  0.41967502  0.75094743  1
  P  P3  1  0.47822364  0.55050928  0.21667066  1
  P  P4  1  0.35740090  0.91790702  0.78588689  1
  P  P5  1  0.67570839  0.89184660  0.75974273  1
  P  P6  1  0.66532133  0.11624450  0.25388223  1
  P  P7  1  0.34099977  0.11041600  0.23334866  1
  P  P8  1  0.86987066  0.40711563  0.75570009  1
  P  P9  1  0.14089436  0.37776564  0.74669566  1
  P  P10  1  0.14155620  0.59200572  0.22402062  1
  P  P11  1  0.86524646  0.58503069  0.26589811  1
  O  O0  1  0.15263155  0.54825340  0.74610998  1
  O  O1  1  0.86739513  0.57944774  0.76617617  1
  O  O2  1  0.86120313  0.41312745  0.26795260  1
  O  O3  1  0.14399259  0.42080649  0.20568781  1
  O  O4  1  0.69129128  0.06027910  0.75889005  1
  O  O5  1  0.34556300  0.08693175  0.78700867  1
  O  O6  1  0.33647574  0.94065382  0.21169085  1
  O  O7  1  0.67878989  0.94497494  0.25393602  1
  O  O8  1  0.42101052  0.50805099  0.57374536  1
  O  O9  1  0.53773955  0.52763441  0.90718465  1
  O  O10  1  0.52206725  0.47201192  0.39582412  1
  O  O11  1  0.43159685  0.43745773  0.05937629  1
  O  O12  1  0.92864467  0.06086485  0.57702073  1
  O  O13  1  0.05370577  0.07637189  0.91357911  1
  O  O14  1  0.08058048  0.98862115  0.40946885  1
  O  O15  1  0.93488337  0.93468474  0.08442464  1
  O  O16  1  0.27320860  0.83084368  0.78096743  1
  O  O17  1  0.76471989  0.80512546  0.77497342  1
  O  O18  1  0.76066244  0.18754401  0.27260557  1
  O  O19  1  0.24325002  0.17830102  0.20588172  1
  O  O20  1  0.77943774  0.33937586  0.75070215  1
  O  O21  1  0.23752477  0.31482316  0.76450610  1
  O  O22  1  0.22522460  0.65923343  0.20914230  1
  O  O23  1  0.77567920  0.65606980  0.26160005  1
  O  O24  1  0.35787233  0.87868922  0.61918926  1
  O  O25  1  0.67506184  0.86375426  0.92547438  1
  O  O26  1  0.66933588  0.14567639  0.42566129  1
  O  O27  1  0.36381338  0.17745135  0.10110893  1
  O  O28  1  0.86755054  0.36363588  0.58723233  1
  O  O29  1  0.14087591  0.34303785  0.91242057  1
  O  O30  1  0.16812797  0.61685286  0.41505508  1
  O  O31  1  0.87073966  0.63554568  0.10859992  1
  O  O32  1  0.46148133  0.87506829  0.95462049  1
  O  O33  1  0.57161568  0.84418411  0.58591018  1
  O  O34  1  0.56262274  0.16730206  0.08717005  1
  O  O35  1  0.43402369  0.14656410  0.42680464  1
  O  O36  1  0.96998345  0.34823323  0.92251143  1
  O  O37  1  0.04208186  0.31746424  0.57334619  1
  O  O38  1  0.03683741  0.66402404  0.08109336  1
  O  O39  1  0.96102339  0.63597672  0.44786296  1
  O  O40  1  0.07127217  0.86301983  0.75318968  1
  O  O41  1  0.92238438  0.86939201  0.77496957  1
  O  O42  1  0.92031241  0.14388918  0.25063233  1
  O  O43  1  0.05740332  0.16786143  0.19101398  1
  O  O44  1  0.56310398  0.31241423  0.76846607  1
  O  O45  1  0.39982354  0.33332840  0.75807263  1
  O  O46  1  0.38794960  0.64748077  0.18113270  1
  O  O47  1  0.56412271  0.65165103  0.24572060  1
loop_
_geom_bond_atom_site_label_1
_geom_bond_atom_site_label_2
_geom_bond_distance
_geom_bond_site_symmetry_2
Na0 O6 2.300588 1_556
Na0 O46 2.336039 1_556
Na0 O16 2.347349 1_555
Na0 O22 2.365370 1_556
Na0 O40 2.377464 1_555
Na0 O0 2.715871 1_555
Na1 O1 2.352900 1_555
Na1 O17 2.411435 1_555
Na1 O23 2.573467 1_555
Na1 O47 2.653172 1_555
Na1 O41 2.707218 1_555
Na1 O7 2.810286 1_555
Na2 O2 2.334849 1_555
Na2 O18 2.378894 1_555
Na2 O42 2.509404 1_555
Na2 O44 2.589254 1_554
Na2 O4 2.690911 1_554
Na2 O20 2.774019 1_554
Na3 O5 2.530883 1_555
Na3 O45 2.545413 1_555
Na3 O43 2.628386 1_555
Na3 O21 2.642565 1_555
Na3 O19 2.670429 1_555
Na3 O3 2.817900 1_555
Na3 O14 3.012729 1_545
Na4 O44 2.305149 1_555
Na4 O34 2.510789 1_556
Na4 O5 2.578843 1_555
Na4 O24 2.674489 1_545
Na4 O45 2.752790 1_555
Na4 O35 2.790728 1_555
Na4 O32 2.818670 1_545
Na4 O25 3.005425 1_545
Na5 O32 2.280987 1_554
Na5 O6 2.542459 1_555
Na5 O47 2.662489 1_555
Na5 O7 2.719198 1_555
Na5 O33 2.836934 1_555
Na5 O27 2.914349 1_565
Na5 O26 2.958069 1_565
Na5 O46 3.001283 1_555
Na5 O34 3.003701 1_565
Na6 O1 2.335520 1_455
Na6 O0 2.398206 1_555
Na6 O39 2.420336 1_455
Na6 O40 2.540194 1_555
Na6 O41 2.814631 1_455
Na7 O43 2.331792 1_655
Na7 O2 2.376867 1_555
Na7 O3 2.517630 1_655
Na7 O42 2.578520 1_555
Na7 O36 2.625340 1_554
Na7 O31 2.798232 1_555
Na7 O37 2.833872 1_655
Na8 O42 2.398505 1_565
Na8 O25 2.404158 1_554
Na8 O7 2.468566 1_555
Na8 O18 2.649744 1_565
Na8 O15 2.713692 1_555
Na8 O23 2.714217 1_555
Na8 O12 2.918272 1_565
Na9 O4 2.325821 1_555
Na9 O26 2.380326 1_555
Na9 O41 2.399627 1_545
Na9 O20 2.481959 1_555
Na9 O12 2.657145 1_555
Na9 O17 2.848388 1_545
Na10 O29 2.371213 1_554
Na10 O22 2.463147 1_555
Na10 O19 2.474781 1_555
Na10 O46 2.487525 1_555
Na10 O3 2.555888 1_555
Na10 O27 2.782007 1_555
Na11 O45 2.434342 1_555
Na11 O30 2.468804 1_555
Na11 O0 2.603668 1_555
Na11 O21 2.615803 1_555
Na11 O16 2.634556 1_555
Na11 O11 2.732938 1_556
Na11 O8 2.867404 1_555
La0 O14 2.245203 1_555
La0 O39 2.274116 1_455
La0 O16 2.369577 1_555
La0 O30 2.373206 1_555
La0 O40 2.420572 1_555
La0 O0 2.556937 1_555
La1 O10 2.251629 1_555
La1 O26 2.291372 1_555
La1 O44 2.382754 1_555
La1 O35 2.434034 1_555
La1 O4 2.460626 1_555
La1 O20 2.462275 1_555
La2 O24 2.378004 1_555
La2 O8 2.418559 1_555
La2 O33 2.438181 1_555
La2 O46 2.448640 1_555
La2 O22 2.461901 1_555
La2 O6 2.473237 1_555
La3 O9 2.219179 1_554
La3 O25 2.311622 1_554
La3 O23 2.317135 1_555
La3 O32 2.351691 1_554
La3 O47 2.353490 1_555
La3 O7 2.399890 1_555
Al0 O38 1.905553 1_656
Al0 O17 1.911714 1_555
Al0 O15 1.966969 1_556
Al0 O41 2.008385 1_555
Al0 O1 2.078325 1_555
Al0 O31 2.172159 1_556
Al1 O28 1.901540 1_555
Al1 O18 1.940692 1_555
Al1 O37 1.955134 1_655
Al1 O12 2.010442 1_555
Al1 O2 2.016185 1_555
Al1 O42 2.232038 1_555
Al2 O13 1.833758 1_554
Al2 O36 1.888417 1_454
Al2 O29 1.901019 1_554
Al2 O43 1.939933 1_555
Al2 O3 1.977613 1_555
Al2 O19 2.026828 1_555
Al3 O27 1.858405 1_556
Al3 O21 1.889087 1_555
Al3 O5 1.894427 1_555
Al3 O11 1.902226 1_556
Al3 O45 1.921431 1_555
O0 P9 1.561365 1_555
O1 P8 1.569869 1_555
O2 P11 1.564184 1_555
O3 P10 1.566113 1_555
O4 P5 1.552037 1_545
O5 P4 1.547526 1_545
O6 P7 1.550342 1_565
O7 P6 1.570334 1_565
O8 P2 1.552942 1_555
O9 P2 1.521092 1_555
O10 P3 1.538989 1_555
O11 P3 1.557134 1_555
O12 P0 1.577607 1_545
O13 P0 1.529033 1_445
O14 P1 1.538012 1_465
O15 P1 1.567737 1_565
O16 P4 1.539779 1_555
O17 P5 1.558143 1_555
O18 P6 1.572073 1_555
O19 P7 1.557608 1_555
O20 P8 1.547420 1_555
O21 P9 1.562579 1_555
O22 P10 1.545879 1_555
O23 P11 1.547036 1_555
O24 P4 1.563158 1_555
O25 P5 1.540422 1_555
O26 P6 1.551946 1_555
O27 P7 1.572872 1_555
O28 P8 1.563307 1_555
O29 P9 1.546253 1_555
O30 P10 1.553207 1_555
O31 P11 1.558859 1_555
O32 P4 1.532753 1_555
O33 P5 1.559526 1_555
O34 P6 1.535688 1_555
O35 P7 1.553196 1_555
O36 P8 1.539425 1_555
O37 P9 1.554828 1_555
O38 P10 1.557493 1_555
O39 P11 1.544699 1_555
O40 P0 1.546188 1_455
O41 P0 1.582440 1_555
O42 P1 1.567093 1_555
O43 P1 1.554372 1_455
O44 P2 1.551173 1_555
O45 P2 1.564876 1_555
O46 P3 1.555206 1_555
O47 P3 1.543435 1_555
