# generated using pymatgen
data_MgFe2(AgO2)2
_symmetry_space_group_name_H-M   'P 1'
_cell_length_a   3.11785213
_cell_length_b   3.11785194
_cell_length_c   14.43104713
_cell_angle_alpha   90.00000000
_cell_angle_beta   90.00000000
_cell_angle_gamma   120.00001272
_symmetry_Int_Tables_number   1
_chemical_formula_structural   MgFe2(AgO2)2
_chemical_formula_sum   'Mg1 Fe2 Ag2 O4'
_cell_volume   121.48968974
_cell_formula_units_Z   1
loop_
 _symmetry_equiv_pos_site_id
 _symmetry_equiv_pos_as_xyz
  1  'x, y, z'
loop_
 _atom_site_type_symbol
 _atom_site_label
 _atom_site_symmetry_multiplicity
 _atom_site_fract_x
 _atom_site_fract_y
 _atom_site_fract_z
 _atom_site_occupancy
  Mg  Mg0  1  -0.00000000  0.00000000  0.13050300  1
  Fe  Fe0  1  -0.00000000  -0.00000000  0.52378016  1
  Fe  Fe1  1  0.00000000  -0.00000000  0.94717063  1
  Ag  Ag0  1  0.66666600  0.33333300  0.74147055  1
  Ag  Ag1  1  0.33333300  0.66666700  0.30009828  1
  O  O0  1  0.33333300  0.66666700  0.45373363  1
  O  O1  1  0.66666600  0.33333300  0.88955524  1
  O  O2  1  0.66666600  0.33333300  0.59497470  1
  O  O3  1  0.33333300  0.66666700  0.06975481  1
loop_
_geom_bond_atom_site_label_1
_geom_bond_atom_site_label_2
_geom_bond_distance
_geom_bond_site_symmetry_2
Mg0 O3 2.002214 1_545
Mg0 O3 2.002216 1_555
Mg0 O3 2.002216 1_445
Fe0 O0 2.064494 1_545
Fe0 O0 2.064496 1_555
Fe0 O0 2.064496 1_445
Fe0 O2 2.072656 1_555
Fe0 O2 2.072658 1_445
Fe0 O2 2.072658 1_455
Fe1 O1 1.982835 1_555
Fe1 O1 1.982838 1_445
Fe1 O1 1.982838 1_455
Fe1 O3 2.523837 1_546
Fe1 O3 2.523839 1_556
Fe1 O3 2.523839 1_446
Ag0 O2 2.114089 1_555
Ag0 O1 2.137017 1_555
Ag1 O0 2.217119 1_555
