# generated using pymatgen
data_Na6Mg6Zr2SiS11O48
_symmetry_space_group_name_H-M   'P 1'
_cell_length_a   17.58359102
_cell_length_b   8.79332597
_cell_length_c   22.84308796
_cell_angle_alpha   90.12455928
_cell_angle_beta   90.02681980
_cell_angle_gamma   119.93785538
_symmetry_Int_Tables_number   1
_chemical_formula_structural   Na6Mg6Zr2SiS11O48
_chemical_formula_sum   'Na18 Mg18 Zr6 Si3 S33 O144'
_cell_volume   3060.66703497
_cell_formula_units_Z   3
loop_
 _symmetry_equiv_pos_site_id
 _symmetry_equiv_pos_as_xyz
  1  'x, y, z'
loop_
 _atom_site_type_symbol
 _atom_site_label
 _atom_site_symmetry_multiplicity
 _atom_site_fract_x
 _atom_site_fract_y
 _atom_site_fract_z
 _atom_site_occupancy
  Na  Na0  1  0.68657521  0.36398049  0.24299256  1
  Na  Na1  1  0.99569359  0.63505320  0.25474198  1
  Na  Na2  1  0.33475503  0.96549949  0.59030482  1
  Na  Na3  1  0.83565387  0.96656206  0.59038526  1
  Na  Na4  1  0.33462457  0.69962635  0.08209090  1
  Na  Na5  1  0.34508199  0.66485626  0.41467464  1
  Na  Na6  1  0.00649183  0.99733857  0.49664494  1
  Na  Na7  1  0.50970936  0.01302295  0.50049335  1
  Na  Na8  1  0.00043142  0.99925848  0.99871373  1
  Na  Na9  1  0.50957305  0.01428491  0.00359851  1
  Na  Na10  1  0.33344139  0.32402392  0.83963496  1
  Na  Na11  1  0.83285001  0.32399158  0.83970333  1
  Na  Na12  1  0.32901900  0.32120114  0.33011603  1
  Na  Na13  1  0.83810435  0.33971959  0.33445261  1
  Na  Na14  1  0.16902524  0.67051042  0.16613520  1
  Na  Na15  1  0.66817767  0.67370239  0.15739546  1
  Na  Na16  1  0.16848513  0.66821015  0.67474224  1
  Na  Na17  1  0.66957849  0.66899383  0.67524900  1
  Mg  Mg0  1  0.00006048  0.99246151  0.35177324  1
  Mg  Mg1  1  0.49863073  0.00214524  0.34934821  1
  Mg  Mg2  1  0.99864694  0.99712890  0.65139604  1
  Mg  Mg3  1  0.49909200  0.99740879  0.65184221  1
  Mg  Mg4  1  0.50141773  0.00334453  0.14765786  1
  Mg  Mg5  1  0.33451120  0.33491015  0.18267656  1
  Mg  Mg6  1  0.83317915  0.33394486  0.18139406  1
  Mg  Mg7  1  0.33480068  0.32898823  0.98274156  1
  Mg  Mg8  1  0.83016178  0.33109107  0.98270944  1
  Mg  Mg9  1  0.32994638  0.32477084  0.48218445  1
  Mg  Mg10  1  0.83658515  0.34224172  0.48043542  1
  Mg  Mg11  1  0.16404438  0.67072018  0.01585464  1
  Mg  Mg12  1  0.66654081  0.66605496  0.01732912  1
  Mg  Mg13  1  0.16114325  0.65841555  0.51487215  1
  Mg  Mg14  1  0.66436282  0.66071658  0.51717436  1
  Mg  Mg15  1  0.16973400  0.66700545  0.31767733  1
  Mg  Mg16  1  0.17105892  0.67645005  0.81558013  1
  Mg  Mg17  1  0.67161282  0.67687647  0.81576304  1
  Zr  Zr0  1  0.99465459  0.00345124  0.85292857  1
  Zr  Zr1  1  0.49538522  0.00382261  0.85351860  1
  Zr  Zr2  1  0.99404384  0.99375113  0.14793254  1
  Zr  Zr3  1  0.33440170  0.32862832  0.68909521  1
  Zr  Zr4  1  0.83450152  0.32913866  0.68867370  1
  Zr  Zr5  1  0.66975060  0.67365431  0.31477410  1
  Si  Si0  1  0.85435598  0.69951496  0.25299184  1
  Si  Si1  1  0.34768733  0.98277327  0.74466030  1
  Si  Si2  1  0.84735811  0.98341108  0.74451913  1
  S  S0  1  0.14998512  0.00442914  0.25153081  1
  S  S1  1  0.64340691  0.00167302  0.24956742  1
  S  S2  1  0.35263658  0.70459371  0.25016423  1
  S  S3  1  0.00121535  0.29605161  0.25210829  1
  S  S4  1  0.49531982  0.28518969  0.25044979  1
  S  S5  1  0.14351003  0.29431489  0.74893883  1
  S  S6  1  0.64363615  0.29456646  0.74889571  1
  S  S7  1  0.00352618  0.71258895  0.74898154  1
  S  S8  1  0.50357255  0.71267788  0.74902192  1
  S  S9  1  0.48218728  0.33623781  0.58037462  1
  S  S10  1  0.98238780  0.33586649  0.58052683  1
  S  S11  1  0.18398238  0.03748847  0.58105474  1
  S  S12  1  0.68469861  0.03950879  0.58024783  1
  S  S13  1  0.33381010  0.62908253  0.57931569  1
  S  S14  1  0.83368813  0.62812514  0.58040573  1
  S  S15  1  0.47996454  0.62445596  0.08369502  1
  S  S16  1  0.98119935  0.62109690  0.08294839  1
  S  S17  1  0.33292975  0.04006772  0.08368470  1
  S  S18  1  0.83019757  0.04283849  0.08224519  1
  S  S19  1  0.18960935  0.33725581  0.08215939  1
  S  S20  1  0.68545717  0.33355784  0.08390549  1
  S  S21  1  0.31004870  0.65778608  0.91897026  1
  S  S22  1  0.80943845  0.65807744  0.91809387  1
  S  S23  1  0.02151746  0.38401928  0.91763117  1
  S  S24  1  0.52189331  0.38452402  0.91733903  1
  S  S25  1  0.16922896  0.96103639  0.91775146  1
  S  S26  1  0.66916736  0.95900821  0.91803475  1
  S  S27  1  0.31370044  0.96189350  0.41762140  1
  S  S28  1  0.81592891  0.96639360  0.42088012  1
  S  S29  1  0.16595891  0.37147782  0.41694767  1
  S  S30  1  0.66554020  0.36768921  0.41788757  1
  S  S31  1  0.02012637  0.66728993  0.41611438  1
  S  S32  1  0.51786420  0.66697412  0.41878933  1
  O  O0  1  0.10959280  0.03245892  0.30360297  1
  O  O1  1  0.60439036  0.03080501  0.30253644  1
  O  O2  1  0.40555907  0.78670497  0.30421423  1
  O  O3  1  0.91749285  0.79284046  0.30694096  1
  O  O4  1  0.48620912  0.18495173  0.30386158  1
  O  O5  1  0.99062607  0.18904021  0.30372296  1
  O  O6  1  0.10651856  0.18241127  0.80208885  1
  O  O7  1  0.60641982  0.18235883  0.80204492  1
  O  O8  1  0.48945055  0.79350748  0.80219226  1
  O  O9  1  0.98982986  0.79403691  0.80219912  1
  O  O10  1  0.41314067  0.02301642  0.80283026  1
  O  O11  1  0.91276256  0.02401062  0.80278516  1
  O  O12  1  0.39283703  0.97370469  0.68472103  1
  O  O13  1  0.89286772  0.97385037  0.68487101  1
  O  O14  1  0.09328356  0.20828911  0.69615915  1
  O  O15  1  0.59338373  0.20866292  0.69606320  1
  O  O16  1  0.01587581  0.81720833  0.69649403  1
  O  O17  1  0.51573314  0.81687454  0.69644421  1
  O  O18  1  0.39466519  0.81241852  0.19727879  1
  O  O19  1  0.89642681  0.82172955  0.19322453  1
  O  O20  1  0.01549844  0.21475231  0.19798638  1
  O  O21  1  0.51532478  0.21111990  0.19857546  1
  O  O22  1  0.09224728  0.97504920  0.19836755  1
  O  O23  1  0.59050675  0.97419554  0.19701869  1
  O  O24  1  0.43948555  0.35877906  0.63453442  1
  O  O25  1  0.93913240  0.35847420  0.63465697  1
  O  O26  1  0.24183733  0.12339044  0.63425909  1
  O  O27  1  0.74166654  0.12356123  0.63394632  1
  O  O28  1  0.32274269  0.52082499  0.63229270  1
  O  O29  1  0.82175610  0.52289141  0.63442982  1
  O  O30  1  0.43923463  0.51937486  0.13676814  1
  O  O31  1  0.94251891  0.52617467  0.13809170  1
  O  O32  1  0.32096279  0.12133636  0.13663719  1
  O  O33  1  0.82194313  0.12372802  0.13643327  1
  O  O34  1  0.24253229  0.36336107  0.13544518  1
  O  O35  1  0.73580255  0.35583701  0.13903935  1
  O  O36  1  0.22950702  0.31050183  0.02981088  1
  O  O37  1  0.72922314  0.30968746  0.03264395  1
  O  O38  1  0.42348600  0.54326863  0.03165574  1
  O  O39  1  0.92566680  0.53941720  0.03160584  1
  O  O40  1  0.34503113  0.14451861  0.03080982  1
  O  O41  1  0.84377876  0.14933768  0.03015610  1
  O  O42  1  0.22665326  0.14691096  0.52976650  1
  O  O43  1  0.72787403  0.14920658  0.52909595  1
  O  O44  1  0.34316089  0.54343407  0.52643200  1
  O  O45  1  0.84247164  0.53880461  0.52909035  1
  O  O46  1  0.42385886  0.30659173  0.53014591  1
  O  O47  1  0.92358304  0.30472153  0.53037603  1
  O  O48  1  0.27370170  0.68846848  0.97304575  1
  O  O49  1  0.77183051  0.69007726  0.97061230  1
  O  O50  1  0.07432972  0.46157044  0.97025558  1
  O  O51  1  0.57418390  0.46227412  0.97013650  1
  O  O52  1  0.15490256  0.85548284  0.97057920  1
  O  O53  1  0.65536804  0.85316524  0.97066503  1
  O  O54  1  0.27496230  0.85417055  0.47133544  1
  O  O55  1  0.77266154  0.85732268  0.47269195  1
  O  O56  1  0.15506267  0.45440398  0.47012110  1
  O  O57  1  0.65343642  0.45703807  0.46850799  1
  O  O58  1  0.07457456  0.68703258  0.46797945  1
  O  O59  1  0.57314539  0.69131603  0.47002979  1
  O  O60  1  0.05952378  0.64414092  0.36138141  1
  O  O61  1  0.55931250  0.64229648  0.36492121  1
  O  O62  1  0.25941166  0.87591301  0.36556636  1
  O  O63  1  0.75862361  0.87418897  0.36735148  1
  O  O64  1  0.18246668  0.48522602  0.36510963  1
  O  O65  1  0.67674187  0.47545371  0.36295994  1
  O  O66  1  0.06256659  0.48195701  0.86389303  1
  O  O67  1  0.56261918  0.48204799  0.86364198  1
  O  O68  1  0.17854134  0.87757514  0.86448401  1
  O  O69  1  0.67850572  0.87695445  0.86454829  1
  O  O70  1  0.25795527  0.63978584  0.86655157  1
  O  O71  1  0.75954947  0.63865371  0.86455367  1
  O  O72  1  0.01278412  0.82814253  0.41308030  1
  O  O73  1  0.50740717  0.82356659  0.41159044  1
  O  O74  1  0.40154127  0.97337272  0.41116555  1
  O  O75  1  0.90240222  0.98284296  0.41276309  1
  O  O76  1  0.08831357  0.19547855  0.40990095  1
  O  O77  1  0.58653382  0.19418860  0.41020932  1
  O  O78  1  0.01355587  0.20195433  0.91304627  1
  O  O79  1  0.51373035  0.20228947  0.91294223  1
  O  O80  1  0.08872805  0.98090727  0.91156681  1
  O  O81  1  0.58863119  0.97944587  0.91188519  1
  O  O82  1  0.40114285  0.82012031  0.91273835  1
  O  O83  1  0.90142682  0.82039490  0.91228790  1
  O  O84  1  0.48985907  0.17650500  0.58654833  1
  O  O85  1  0.98998742  0.17622797  0.58717395  1
  O  O86  1  0.09714805  0.01888231  0.58998611  1
  O  O87  1  0.59750054  0.01982792  0.58913149  1
  O  O88  1  0.41359917  0.80540947  0.58452067  1
  O  O89  1  0.91324953  0.80467690  0.58522617  1
  O  O90  1  0.48599507  0.80091846  0.08987934  1
  O  O91  1  0.99206810  0.80456159  0.08803713  1
  O  O92  1  0.41118418  0.01484220  0.08958727  1
  O  O93  1  0.91343299  0.02778658  0.08701130  1
  O  O94  1  0.09971057  0.17966622  0.08875858  1
  O  O95  1  0.59684595  0.17451057  0.08916517  1
  O  O96  1  0.34338019  0.17189705  0.74420774  1
  O  O97  1  0.84307177  0.17213739  0.74411714  1
  O  O98  1  0.23430496  0.31680428  0.74358966  1
  O  O99  1  0.73419616  0.31661474  0.74360727  1
  O  O100  1  0.41970744  0.53797213  0.74361189  1
  O  O101  1  0.91981984  0.53803034  0.74379097  1
  O  O102  1  0.34385426  0.52812480  0.24429412  1
  O  O103  1  0.83981186  0.50363476  0.24365929  1
  O  O104  1  0.41950271  0.30964927  0.24339350  1
  O  O105  1  0.92212564  0.31258838  0.24356108  1
  O  O106  1  0.23735459  0.15682057  0.24222217  1
  O  O107  1  0.73275669  0.15385297  0.24355788  1
  O  O108  1  0.32247737  0.50468112  0.92394964  1
  O  O109  1  0.82239910  0.50532120  0.92395834  1
  O  O110  1  0.43194228  0.35588249  0.92256452  1
  O  O111  1  0.93172686  0.35584859  0.92310390  1
  O  O112  1  0.24696215  0.13835610  0.92335107  1
  O  O113  1  0.74664450  0.13740353  0.92348839  1
  O  O114  1  0.32498866  0.13915930  0.42357617  1
  O  O115  1  0.82067257  0.13786451  0.42347070  1
  O  O116  1  0.24796175  0.35875053  0.42273382  1
  O  O117  1  0.74542697  0.35454624  0.42207096  1
  O  O118  1  0.42910439  0.51058023  0.42336262  1
  O  O119  1  0.93161860  0.50845412  0.42181960  1
  O  O120  1  0.18097549  0.49695359  0.07671717  1
  O  O121  1  0.67682860  0.49258199  0.07784890  1
  O  O122  1  0.06969661  0.64406246  0.07726323  1
  O  O123  1  0.56866037  0.64737968  0.07691794  1
  O  O124  1  0.25496815  0.85844440  0.07805886  1
  O  O125  1  0.75460674  0.86385461  0.07704304  1
  O  O126  1  0.18040297  0.86535920  0.57650629  1
  O  O127  1  0.68040632  0.86613086  0.57604176  1
  O  O128  1  0.25574796  0.65267582  0.57545810  1
  O  O129  1  0.75547837  0.65210970  0.57601488  1
  O  O130  1  0.06865416  0.49470017  0.57605772  1
  O  O131  1  0.56879980  0.49498187  0.57557668  1
  O  O132  1  0.15280208  0.83796332  0.25584426  1
  O  O133  1  0.65154323  0.83987337  0.25694910  1
  O  O134  1  0.26451130  0.68801819  0.25629122  1
  O  O135  1  0.75350651  0.67537427  0.25603405  1
  O  O136  1  0.07868052  0.47618874  0.25610764  1
  O  O137  1  0.57751478  0.46530708  0.25773302  1
  O  O138  1  0.15089505  0.46506329  0.75743627  1
  O  O139  1  0.65090583  0.46517873  0.75731624  1
  O  O140  1  0.07655236  0.68122710  0.75712821  1
  O  O141  1  0.57637096  0.68084980  0.75714088  1
  O  O142  1  0.25211448  0.81994855  0.75441903  1
  O  O143  1  0.75195179  0.82050441  0.75437106  1
loop_
_geom_bond_atom_site_label_1
_geom_bond_atom_site_label_2
_geom_bond_distance
_geom_bond_site_symmetry_2
Na0 O103 2.337859 1_555
Na0 O107 2.360366 1_555
Na0 O135 2.398150 1_555
Na0 O137 2.507880 1_555
Na0 O35 2.540908 1_555
Na0 O21 2.802646 1_555
Na0 O1 2.883576 1_555
Na0 O65 2.942548 1_555
Na1 O103 2.397695 1_555
Na1 O132 2.428111 1_655
Na1 O105 2.472710 1_555
Na1 O136 2.473151 1_655
Na1 O60 2.665920 1_655
Na1 O3 2.671373 1_555
Na1 O31 2.825652 1_555
Na1 O22 2.903713 1_655
Na2 O12 2.371404 1_555
Na2 O128 2.406846 1_555
Na2 O84 2.416240 1_565
Na2 O126 2.419393 1_555
Na2 O88 2.422490 1_555
Na2 O26 2.804411 1_565
Na2 O54 2.899600 1_555
Na2 O46 2.944273 1_565
Na3 O13 2.368051 1_555
Na3 O85 2.403290 1_565
Na3 O89 2.416589 1_555
Na3 O129 2.417789 1_555
Na3 O127 2.435323 1_555
Na3 O27 2.810709 1_565
Na3 O55 2.881231 1_555
Na3 O47 2.922744 1_565
Na4 O90 2.354128 1_555
Na4 O120 2.383964 1_555
Na4 O92 2.407856 1_565
Na4 O124 2.423516 1_555
Na4 O48 2.693221 1_554
Na4 O38 2.792517 1_555
Na4 O18 2.821818 1_555
Na4 O34 2.844147 1_555
Na5 O116 2.368506 1_555
Na5 O74 2.380039 1_555
Na5 O118 2.462498 1_555
Na5 O73 2.474704 1_555
Na5 O64 2.726540 1_555
Na5 O2 2.742752 1_555
Na5 O44 2.763020 1_555
Na5 O54 2.829738 1_555
Na6 O72 2.453922 1_555
Na6 O76 2.558827 1_565
Na6 O75 2.607767 1_455
Na6 O86 2.610910 1_565
Na6 O89 2.626449 1_455
Na6 O85 2.697626 1_465
Na7 O87 2.527960 1_555
Na7 O77 2.546551 1_555
Na7 O84 2.557689 1_555
Na7 O88 2.609972 1_545
Na7 O73 2.611351 1_545
Na7 O74 2.689650 1_545
Na8 O80 2.578951 1_555
Na8 O83 2.579204 1_455
Na8 O78 2.581595 1_565
Na8 O93 2.618207 1_466
Na8 O91 2.623010 1_456
Na8 O94 2.648246 1_566
Na9 O95 2.446965 1_555
Na9 O90 2.610938 1_545
Na9 O81 2.615415 1_544
Na9 O92 2.619714 1_555
Na9 O79 2.630831 1_554
Na9 O82 2.754948 1_544
Na10 O112 2.484582 1_555
Na10 O110 2.485408 1_555
Na10 O108 2.561831 1_555
Na10 O96 2.606292 1_555
Na10 O98 2.782365 1_555
Na10 O100 2.797183 1_555
Na11 O113 2.487312 1_555
Na11 O111 2.497840 1_555
Na11 O109 2.561225 1_555
Na11 O97 2.609632 1_555
Na11 O99 2.777671 1_555
Na11 O101 2.798105 1_555
Na12 O106 2.525330 1_555
Na12 O104 2.574778 1_555
Na12 O102 2.600837 1_555
Na12 O114 2.650864 1_555
Na12 O116 2.661960 1_555
Na12 O118 2.731893 1_555
Na13 O103 2.519872 1_555
Na13 O119 2.537145 1_555
Na13 O115 2.617757 1_555
Na13 O117 2.625352 1_555
Na13 O105 2.627342 1_555
Na13 O107 2.715413 1_555
Na14 O124 2.566554 1_555
Na14 O122 2.610572 1_555
Na14 O134 2.611779 1_555
Na14 O120 2.617698 1_555
Na14 O132 2.618313 1_555
Na14 O136 2.641283 1_555
Na15 O125 2.440100 1_555
Na15 O123 2.466991 1_555
Na15 O121 2.467990 1_555
Na15 O135 2.702408 1_555
Na15 O133 2.793742 1_555
Na15 O137 2.873784 1_555
Na16 O142 2.298670 1_555
Na16 O138 2.513699 1_555
Na16 O140 2.520819 1_555
Na16 O128 2.779885 1_555
Na16 O126 2.782015 1_555
Na16 O130 2.792677 1_555
Na17 O143 2.280474 1_555
Na17 O139 2.502411 1_555
Na17 O141 2.523665 1_555
Na17 O129 2.769016 1_555
Na17 O127 2.804454 1_555
Na17 O131 2.817820 1_555
Mg0 O3 1.919621 1_455
Mg0 O0 2.090792 1_565
Mg0 O72 2.104809 1_555
Mg0 O5 2.124751 1_465
Mg0 O76 2.140284 1_565
Mg0 O75 2.180517 1_455
Mg1 O4 2.017130 1_555
Mg1 O1 2.049504 1_555
Mg1 O2 2.055611 1_545
Mg1 O74 2.131947 1_545
Mg1 O77 2.134503 1_555
Mg1 O73 2.182330 1_545
Mg2 O13 1.925653 1_555
Mg2 O16 2.035010 1_655
Mg2 O14 2.041687 1_665
Mg2 O86 2.162640 1_665
Mg2 O89 2.203120 1_555
Mg2 O85 2.214675 1_565
Mg3 O12 1.926533 1_555
Mg3 O17 2.028353 1_555
Mg3 O15 2.033772 1_565
Mg3 O87 2.179037 1_565
Mg3 O88 2.220017 1_555
Mg3 O84 2.235242 1_565
Mg4 O23 2.047287 1_545
Mg4 O21 2.072500 1_555
Mg4 O95 2.087180 1_555
Mg4 O92 2.108548 1_555
Mg4 O90 2.119330 1_545
Mg4 O18 2.119362 1_545
Mg5 O30 2.037048 1_555
Mg5 O32 2.057761 1_555
Mg5 O34 2.060524 1_555
Mg5 O104 2.130056 1_555
Mg5 O106 2.135927 1_555
Mg5 O102 2.146051 1_555
Mg6 O103 2.019907 1_555
Mg6 O33 2.034172 1_555
Mg6 O35 2.057455 1_555
Mg6 O31 2.073006 1_555
Mg6 O105 2.188663 1_555
Mg6 O107 2.205294 1_555
Mg7 O40 2.041579 1_556
Mg7 O38 2.070511 1_556
Mg7 O36 2.076669 1_556
Mg7 O112 2.107124 1_555
Mg7 O110 2.112713 1_555
Mg7 O108 2.140152 1_555
Mg8 O37 2.038646 1_556
Mg8 O41 2.043416 1_556
Mg8 O39 2.083814 1_556
Mg8 O113 2.092621 1_555
Mg8 O109 2.093910 1_555
Mg8 O111 2.169366 1_555
Mg9 O42 2.024901 1_555
Mg9 O46 2.053110 1_555
Mg9 O114 2.076592 1_555
Mg9 O44 2.077998 1_555
Mg9 O116 2.107502 1_555
Mg9 O118 2.164102 1_555
Mg10 O45 2.011584 1_555
Mg10 O47 2.062551 1_555
Mg10 O119 2.072248 1_555
Mg10 O115 2.118702 1_555
Mg10 O117 2.128421 1_555
Mg10 O43 2.131283 1_555
Mg11 O52 2.000718 1_554
Mg11 O50 2.012519 1_554
Mg11 O122 2.095313 1_555
Mg11 O48 2.097744 1_554
Mg11 O124 2.157200 1_555
Mg11 O120 2.195260 1_555
Mg12 O51 2.023803 1_554
Mg12 O53 2.052313 1_554
Mg12 O49 2.055117 1_554
Mg12 O121 2.134275 1_555
Mg12 O123 2.136124 1_555
Mg12 O125 2.140833 1_555
Mg13 O58 1.977312 1_555
Mg13 O56 2.018696 1_555
Mg13 O130 2.084422 1_555
Mg13 O54 2.127965 1_555
Mg13 O128 2.183362 1_555
Mg13 O126 2.186690 1_555
Mg14 O57 2.031792 1_555
Mg14 O59 2.057952 1_555
Mg14 O131 2.072083 1_555
Mg14 O55 2.090711 1_555
Mg14 O129 2.120998 1_555
Mg14 O127 2.151964 1_555
Mg15 O64 2.035590 1_555
Mg15 O62 2.038657 1_555
Mg15 O60 2.099122 1_555
Mg15 O134 2.115115 1_555
Mg15 O136 2.159418 1_555
Mg15 O132 2.190688 1_555
Mg16 O142 1.946778 1_555
Mg16 O68 2.037665 1_555
Mg16 O70 2.070248 1_555
Mg16 O66 2.129756 1_555
Mg16 O140 2.147996 1_555
Mg16 O138 2.162387 1_555
Mg17 O143 1.945795 1_555
Mg17 O69 2.032343 1_555
Mg17 O71 2.065126 1_555
Mg17 O67 2.130054 1_555
Mg17 O141 2.157671 1_555
Mg17 O139 2.166238 1_555
O0 S0 1.467761 1_555
O1 S1 1.474847 1_555
O2 S2 1.495361 1_555
O3 Si0 1.584184 1_555
O4 S4 1.468031 1_555
O5 S3 1.463012 1_655
O6 S5 1.494157 1_555
O6 Zr0 2.148169 1_455
O7 S6 1.495752 1_555
O7 Zr1 2.147059 1_555
O8 S8 1.488195 1_555
O8 Zr1 2.145585 1_565
O9 S7 1.489094 1_655
O9 Zr0 2.139086 1_565
O10 Si1 1.674958 1_545
O10 Zr1 1.924430 1_555
O11 Si2 1.675785 1_545
O11 Zr0 1.917644 1_555
O12 Si1 1.604700 1_555
O13 Si2 1.603630 1_555
O14 S5 1.460826 1_555
O15 S6 1.461748 1_555
O16 S7 1.461731 1_555
O17 S8 1.461909 1_555
O18 S2 1.486936 1_555
O19 Si0 1.667317 1_555
O19 Zr2 1.929168 1_555
O20 S3 1.509392 1_555
O20 Zr2 2.117637 1_445
O21 S4 1.475743 1_555
O22 S0 1.519191 1_565
O22 Zr2 2.149067 1_455
O23 S1 1.462147 1_565
O24 S9 1.510636 1_555
O24 Zr3 2.133650 1_555
O25 S10 1.515807 1_555
O25 Zr4 2.122193 1_555
O26 S11 1.520005 1_555
O26 Zr3 2.128759 1_555
O27 S12 1.519954 1_555
O27 Zr4 2.130320 1_555
O28 S13 1.492942 1_555
O28 Zr3 2.221940 1_555
O29 S14 1.494882 1_555
O29 Zr4 2.208690 1_555
O30 S15 1.477052 1_555
O31 S16 1.478082 1_555
O32 S17 1.471278 1_555
O33 S18 1.469213 1_555
O34 S19 1.478100 1_555
O35 S20 1.494320 1_555
O36 S19 1.463471 1_555
O37 S20 1.472570 1_555
O38 S15 1.482079 1_555
O39 S16 1.462910 1_555
O40 S17 1.468912 1_555
O41 S18 1.460043 1_555
O42 S11 1.465099 1_555
O43 S12 1.465242 1_555
O44 S13 1.474247 1_555
O45 S14 1.460153 1_555
O46 S9 1.472098 1_555
O47 S10 1.473579 1_555
O48 S21 1.475974 1_555
O49 S22 1.463117 1_555
O50 S23 1.461423 1_555
O51 S24 1.461279 1_555
O52 S25 1.467302 1_555
O53 S26 1.466359 1_555
O54 S27 1.492845 1_555
O55 S28 1.475439 1_555
O56 S29 1.476352 1_555
O57 S30 1.470663 1_555
O58 S31 1.477344 1_555
O59 S32 1.466596 1_555
O60 S31 1.491631 1_555
O61 S32 1.499983 1_555
O61 Zr5 2.151327 1_555
O62 S27 1.473594 1_555
O63 S28 1.531971 1_555
O63 Zr5 2.057322 1_555
O64 S29 1.484109 1_555
O65 S30 1.526492 1_555
O65 Zr5 2.118076 1_555
O66 S23 1.467822 1_555
O67 S24 1.464659 1_555
O68 S25 1.470463 1_555
O69 S26 1.467976 1_555
O70 S21 1.466733 1_555
O71 S22 1.463908 1_555
O72 S31 1.484845 1_555
O73 S32 1.486795 1_555
O74 S27 1.504080 1_555
O75 S28 1.465645 1_555
O76 S29 1.474713 1_555
O77 S30 1.473575 1_555
O78 S23 1.539215 1_555
O78 Zr0 2.110269 1_455
O79 S24 1.538909 1_555
O79 Zr1 2.102309 1_555
O80 S25 1.516873 1_555
O80 Zr0 2.212710 1_465
O81 S26 1.520314 1_555
O81 Zr1 2.204957 1_565
O82 S21 1.530519 1_555
O82 Zr1 2.127246 1_565
O83 S22 1.538757 1_555
O83 Zr0 2.120074 1_565
O84 S9 1.483543 1_555
O85 S10 1.483096 1_555
O86 S11 1.466557 1_555
O87 S12 1.468877 1_555
O88 S13 1.488069 1_555
O89 S14 1.486862 1_555
O90 S15 1.507897 1_555
O91 S16 1.531042 1_555
O91 Zr2 2.138486 1_555
O92 S17 1.505105 1_555
O93 S18 1.537756 1_555
O93 Zr2 2.111561 1_545
O94 S19 1.502163 1_555
O94 Zr2 2.220833 1_445
O95 S20 1.491303 1_555
O96 Si1 1.702142 1_545
O96 Zr3 1.932302 1_555
O97 Si2 1.698446 1_545
O97 Zr4 1.935914 1_555
O98 S5 1.512619 1_555
O98 Zr3 2.116167 1_555
O99 S6 1.509954 1_555
O99 Zr4 2.122810 1_555
O100 S8 1.512531 1_555
O100 Zr3 2.102784 1_555
O101 S7 1.510152 1_655
O101 Zr4 2.108920 1_555
O102 S2 1.486489 1_555
O103 Si0 1.623678 1_555
O104 S4 1.461383 1_555
O105 S3 1.481544 1_655
O106 S0 1.465531 1_555
O107 S1 1.476628 1_555
O108 S21 1.472256 1_555
O109 S22 1.476637 1_555
O110 S24 1.477174 1_555
O111 S23 1.476375 1_655
O112 S25 1.479038 1_545
O113 S26 1.482625 1_545
O114 S27 1.475758 1_545
O115 S28 1.469012 1_545
O116 S29 1.506664 1_555
O117 S30 1.468884 1_555
O118 S32 1.482047 1_555
O119 S31 1.490360 1_655
O120 S19 1.491315 1_555
O121 S20 1.486650 1_555
O122 S16 1.471646 1_455
O123 S15 1.477667 1_555
O124 S17 1.503360 1_565
O125 S18 1.472714 1_565
O126 S11 1.486584 1_565
O127 S12 1.491223 1_565
O128 S13 1.489654 1_555
O129 S14 1.495056 1_555
O130 S10 1.465672 1_455
O131 S9 1.469305 1_555
O132 S0 1.492591 1_565
O133 S1 1.509081 1_565
O133 Zr5 2.111555 1_555
O134 S2 1.488901 1_555
O135 Si0 1.678966 1_555
O135 Zr5 1.987286 1_555
O136 S3 1.489459 1_555
O137 S4 1.529343 1_555
O137 Zr5 2.169453 1_555
O138 S5 1.453611 1_555
O139 S6 1.453065 1_555
O140 S7 1.453598 1_555
O141 S8 1.452191 1_555
O142 Si1 1.588690 1_555
O143 Si2 1.587487 1_555
