# generated using pymatgen
data_Bi3BrO4
_symmetry_space_group_name_H-M   'P 1'
_cell_length_a   5.73059046
_cell_length_b   5.74487482
_cell_length_c   19.05601092
_cell_angle_alpha   90.00000000
_cell_angle_beta   90.00000000
_cell_angle_gamma   90.00000000
_symmetry_Int_Tables_number   1
_chemical_formula_structural   Bi3BrO4
_chemical_formula_sum   'Bi12 Br4 O16'
_cell_volume   627.35293680
_cell_formula_units_Z   4
loop_
 _symmetry_equiv_pos_site_id
 _symmetry_equiv_pos_as_xyz
  1  'x, y, z'
loop_
 _atom_site_type_symbol
 _atom_site_label
 _atom_site_symmetry_multiplicity
 _atom_site_fract_x
 _atom_site_fract_y
 _atom_site_fract_z
 _atom_site_occupancy
  Bi  Bi0  1  0.29269140  0.70730846  0.64115046  1
  Bi  Bi1  1  0.79269140  0.29269154  0.64115046  1
  Bi  Bi2  1  0.70730860  0.20730846  0.14115046  1
  Bi  Bi3  1  0.79269140  0.20730846  0.85884954  1
  Bi  Bi4  1  0.70730860  0.29269154  0.35884954  1
  Bi  Bi5  1  0.20730860  0.70730846  0.35884954  1
  Bi  Bi6  1  0.29269140  0.79269154  0.85884954  1
  Bi  Bi7  1  0.20730860  0.79269154  0.14115046  1
  Bi  Bi8  1  0.75000000  0.79283217  0.50000000  1
  Bi  Bi9  1  0.75000000  0.70716783  -0.00000000  1
  Bi  Bi10  1  0.25000000  0.20716783  0.50000000  1
  Bi  Bi11  1  0.25000000  0.29283217  -0.00000000  1
  Br  Br0  1  0.73499090  0.75000000  0.25000000  1
  Br  Br1  1  0.26500910  0.25000000  0.75000000  1
  Br  Br2  1  0.76500910  0.75000000  0.75000000  1
  Br  Br3  1  0.23499090  0.25000000  0.25000000  1
  O  O0  1  0.07130887  0.93547769  0.43561196  1
  O  O1  1  0.42869113  0.93547769  0.56438804  1
  O  O2  1  0.07130887  0.56452231  0.06438804  1
  O  O3  1  0.42869113  0.56452231  0.93561196  1
  O  O4  1  0.92869113  0.06452231  0.56438804  1
  O  O5  1  0.57130887  0.06452231  0.43561196  1
  O  O6  1  0.92869113  0.43547769  0.93561196  1
  O  O7  1  0.57130887  0.43547769  0.06438804  1
  O  O8  1  0.98875376  0.46027869  0.41149149  1
  O  O9  1  0.48875376  0.96027869  0.08850851  1
  O  O10  1  0.98875376  0.03972131  0.08850851  1
  O  O11  1  0.51124624  0.03972131  0.91149149  1
  O  O12  1  0.01124624  0.53972131  0.58850851  1
  O  O13  1  0.48875376  0.53972131  0.41149149  1
  O  O14  1  0.01124624  0.96027869  0.91149149  1
  O  O15  1  0.51124624  0.46027869  0.58850851  1
loop_
_geom_bond_atom_site_label_1
_geom_bond_atom_site_label_2
_geom_bond_distance
_geom_bond_site_symmetry_2
Bi0 O1 2.113137 1_555
Bi0 O12 2.129436 1_555
Bi0 O15 2.142179 1_555
Bi0 Br1 3.351075 1_555
Bi0 Br2 3.418862 1_555
Bi1 O4 2.113137 1_555
Bi1 O15 2.129436 1_555
Bi1 O12 2.142179 1_655
Bi1 Br2 3.351075 1_555
Bi1 Br1 3.418862 1_655
Bi2 O7 2.113137 1_555
Bi2 O10 2.129436 1_555
Bi2 O9 2.142179 1_545
Bi2 Br0 3.351075 1_545
Bi2 Br3 3.418862 1_555
Bi3 O6 2.113137 1_555
Bi3 O11 2.129436 1_555
Bi3 O14 2.142179 1_645
Bi3 Br2 3.351075 1_545
Bi3 Br1 3.418862 1_655
Bi4 O5 2.113137 1_555
Bi4 O8 2.129436 1_555
Bi4 O13 2.142179 1_555
Bi4 Br0 3.351075 1_555
Bi4 Br3 3.418862 1_555
Bi5 O0 2.113137 1_555
Bi5 O13 2.129436 1_555
Bi5 O8 2.142179 1_455
Bi5 Br3 3.351075 1_555
Bi5 Br0 3.418862 1_455
Bi6 O3 2.113137 1_555
Bi6 O14 2.129436 1_555
Bi6 O11 2.142179 1_565
Bi6 Br1 3.351075 1_565
Bi6 Br2 3.418862 1_555
Bi7 O2 2.113137 1_555
Bi7 O9 2.129436 1_555
Bi7 O10 2.142179 1_465
Bi7 Br3 3.351075 1_565
Bi7 Br0 3.418862 1_455
Bi8 O4 2.233885 1_565
Bi8 O5 2.233885 1_565
Bi8 O0 2.359528 1_655
Bi8 O1 2.359528 1_555
Bi8 O13 2.683348 1_555
Bi8 O12 2.683348 1_655
Bi9 O7 2.233885 1_555
Bi9 O6 2.233885 1_554
Bi9 O3 2.359528 1_554
Bi9 O2 2.359528 1_655
Bi9 O9 2.683348 1_555
Bi9 O14 2.683348 1_654
Bi10 O0 2.233885 1_545
Bi10 O1 2.233885 1_545
Bi10 O5 2.359528 1_555
Bi10 O4 2.359528 1_455
Bi10 O8 2.683348 1_455
Bi10 O15 2.683348 1_555
Bi11 O3 2.233885 1_554
Bi11 O2 2.233885 1_555
Bi11 O6 2.359528 1_454
Bi11 O7 2.359528 1_555
Bi11 O10 2.683348 1_455
Bi11 O11 2.683348 1_554
