# generated using pymatgen
data_Bi2Pd3S2
_symmetry_space_group_name_H-M   'P 1'
_cell_length_a   7.26469259
_cell_length_b   7.26469217
_cell_length_c   7.26469271
_cell_angle_alpha   109.47123368
_cell_angle_beta   109.47123254
_cell_angle_gamma   109.47120180
_symmetry_Int_Tables_number   1
_chemical_formula_structural   Bi2Pd3S2
_chemical_formula_sum   'Bi4 Pd6 S4'
_cell_volume   295.14116218
_cell_formula_units_Z   2
loop_
 _symmetry_equiv_pos_site_id
 _symmetry_equiv_pos_as_xyz
  1  'x, y, z'
loop_
 _atom_site_type_symbol
 _atom_site_label
 _atom_site_symmetry_multiplicity
 _atom_site_fract_x
 _atom_site_fract_y
 _atom_site_fract_z
 _atom_site_occupancy
  Bi  Bi0  1  0.49124196  0.50000000  -0.00000000  1
  Bi  Bi1  1  0.50000000  -0.00000000  0.49124196  1
  Bi  Bi2  1  0.00000000  0.49124196  0.50000000  1
  Bi  Bi3  1  0.00875804  0.00875804  0.00875804  1
  Pd  Pd0  1  0.25000000  0.53088559  0.28088559  1
  Pd  Pd1  1  0.96911441  0.21911441  0.75000000  1
  Pd  Pd2  1  0.21911441  0.75000000  0.96911441  1
  Pd  Pd3  1  0.53088559  0.28088559  0.25000000  1
  Pd  Pd4  1  0.28088559  0.25000000  0.53088559  1
  Pd  Pd5  1  0.75000000  0.96911441  0.21911441  1
  S  S0  1  0.94567945  0.50000000  0.00000000  1
  S  S1  1  0.55432055  0.55432055  0.55432055  1
  S  S2  1  0.50000000  0.00000000  0.94567945  1
  S  S3  1  -0.00000000  0.94567945  0.50000000  1
loop_
_geom_bond_atom_site_label_1
_geom_bond_atom_site_label_2
_geom_bond_distance
_geom_bond_site_symmetry_2
Bi0 Pd4 2.792757 1_554
Bi0 Pd5 2.792757 1_555
Bi0 Pd3 2.792757 1_555
Bi0 Pd2 3.102681 1_554
Bi0 Pd1 3.102681 1_454
Bi0 Pd0 3.102681 1_555
Bi0 S0 3.301349 1_555
Bi1 Pd4 2.792757 1_555
Bi1 Pd0 2.792757 1_545
Bi1 Pd1 2.792757 1_555
Bi1 Pd2 3.102681 1_544
Bi1 Pd5 3.102681 1_545
Bi1 Pd3 3.102681 1_555
Bi1 S2 3.301349 1_555
Bi2 Pd2 2.792757 1_555
Bi2 Pd3 2.792757 1_455
Bi2 Pd0 2.792758 1_555
Bi2 Pd4 3.102681 1_555
Bi2 Pd5 3.102681 1_445
Bi2 Pd1 3.102681 1_455
Bi2 S3 3.301348 1_555
Bi3 Pd2 2.792757 1_544
Bi3 Pd1 2.792757 1_454
Bi3 Pd5 2.792758 1_445
Bi3 Pd4 3.102681 1_555
Bi3 Pd0 3.102681 1_555
Bi3 Pd3 3.102681 1_555
Bi3 S1 3.301348 1_444
Pd0 S0 2.336317 1_455
Pd0 S1 2.336317 1_555
Pd1 S0 2.336317 1_556
Pd1 S3 2.336317 1_645
Pd2 S2 2.336317 1_565
Pd2 S0 2.336317 1_456
Pd3 S2 2.336317 1_554
Pd3 S1 2.336317 1_555
Pd4 S3 2.336317 1_545
Pd4 S1 2.336317 1_555
Pd5 S3 2.336317 1_655
Pd5 S2 2.336317 1_564
