# generated using pymatgen
data_Ni12P5
_symmetry_space_group_name_H-M   'P 1'
_cell_length_a   5.03174929
_cell_length_b   6.53515316
_cell_length_c   6.53426100
_cell_angle_alpha   81.49028651
_cell_angle_beta   67.35449690
_cell_angle_gamma   67.35777693
_symmetry_Int_Tables_number   1
_chemical_formula_structural   Ni12P5
_chemical_formula_sum   'Ni12 P5'
_cell_volume   183.01864477
_cell_formula_units_Z   1
loop_
 _symmetry_equiv_pos_site_id
 _symmetry_equiv_pos_as_xyz
  1  'x, y, z'
loop_
 _atom_site_type_symbol
 _atom_site_label
 _atom_site_symmetry_multiplicity
 _atom_site_fract_x
 _atom_site_fract_y
 _atom_site_fract_z
 _atom_site_occupancy
  Ni  Ni0  1  0.93273887  0.70166508  0.93598616  1
  Ni  Ni1  1  0.57038911  0.29833492  0.06401384  1
  Ni  Ni2  1  0.86843604  0.06416270  0.70192294  1
  Ni  Ni3  1  0.36506442  0.69565069  0.57422147  1
  Ni  Ni4  1  0.93911428  0.42601377  0.69575767  1
  Ni  Ni5  1  0.06088572  0.57398623  0.30424233  1
  Ni  Ni6  1  0.63493558  0.30434931  0.42577853  1
  Ni  Ni7  1  0.63452068  0.93583730  0.29807706  1
  Ni  Ni8  1  0.13156396  0.93583730  0.29807706  1
  Ni  Ni9  1  0.42961189  0.70166508  0.93598616  1
  Ni  Ni10  1  0.06726113  0.29833492  0.06401384  1
  Ni  Ni11  1  0.36547932  0.06416270  0.70192294  1
  P  P0  1  -0.00000000  0.00000000  -0.00000000  1
  P  P1  1  0.80508225  0.78149707  0.60833942  1
  P  P2  1  0.41340667  0.39176191  0.78142575  1
  P  P3  1  0.58659333  0.60823809  0.21857325  1
  P  P4  1  0.19491775  0.21850193  0.39166058  1
loop_
_geom_bond_atom_site_label_1
_geom_bond_atom_site_label_2
_geom_bond_distance
_geom_bond_site_symmetry_2
Ni0 P3 2.196470 1_556
Ni0 P0 2.224660 1_666
Ni0 P1 2.395569 1_555
Ni0 P2 2.433971 1_655
Ni1 P2 2.196468 1_554
Ni1 P0 2.224663 1_655
Ni1 P4 2.395571 1_555
Ni1 P3 2.433968 1_555
Ni2 P1 2.196760 1_545
Ni2 P0 2.223761 1_656
Ni2 P2 2.394720 1_555
Ni2 P4 2.435588 1_655
Ni3 P3 2.208439 1_555
Ni3 P2 2.218606 1_555
Ni3 P1 2.576818 1_555
Ni3 P1 2.576818 1_455
Ni4 P1 2.208095 1_555
Ni4 P4 2.219954 1_655
Ni4 P2 2.576674 1_555
Ni4 P2 2.576680 1_655
Ni5 P4 2.208100 1_555
Ni5 P1 2.219950 1_455
Ni5 P3 2.576673 1_555
Ni5 P3 2.576683 1_455
Ni6 P2 2.208433 1_555
Ni6 P3 2.218609 1_555
Ni6 P4 2.576817 1_655
Ni6 P4 2.576822 1_555
Ni7 P4 2.196757 1_565
Ni7 P0 2.223764 1_665
Ni7 P3 2.394722 1_555
Ni7 P1 2.435597 1_555
Ni8 P4 2.196754 1_565
Ni8 P0 2.223761 1_565
Ni8 P3 2.394720 1_555
Ni8 P1 2.435591 1_455
Ni9 P3 2.196459 1_556
Ni9 P0 2.224665 1_566
Ni9 P1 2.395565 1_555
Ni9 P2 2.433974 1_555
Ni10 P2 2.196473 1_554
Ni10 P0 2.224660 1_555
Ni10 P4 2.395569 1_555
Ni10 P3 2.433970 1_455
Ni11 P1 2.196760 1_545
Ni11 P0 2.223764 1_556
Ni11 P2 2.394720 1_555
Ni11 P4 2.435596 1_555
