# generated using pymatgen
data_Rb2PrCl5
_symmetry_space_group_name_H-M   'P 1'
_cell_length_a   8.24291579
_cell_length_b   8.97591381
_cell_length_c   13.18356891
_cell_angle_alpha   90.00000000
_cell_angle_beta   90.00000000
_cell_angle_gamma   90.00000000
_symmetry_Int_Tables_number   1
_chemical_formula_structural   Rb2PrCl5
_chemical_formula_sum   'Rb8 Pr4 Cl20'
_cell_volume   975.42196351
_cell_formula_units_Z   4
loop_
 _symmetry_equiv_pos_site_id
 _symmetry_equiv_pos_as_xyz
  1  'x, y, z'
loop_
 _atom_site_type_symbol
 _atom_site_label
 _atom_site_symmetry_multiplicity
 _atom_site_fract_x
 _atom_site_fract_y
 _atom_site_fract_z
 _atom_site_occupancy
  Rb  Rb0  1  0.44223928  0.50608475  0.67085354  1
  Rb  Rb1  1  0.94223928  0.49391525  0.82914646  1
  Rb  Rb2  1  0.55776072  0.00608475  0.32914646  1
  Rb  Rb3  1  0.05776072  0.99391525  0.17085354  1
  Rb  Rb4  1  0.94223928  0.00608475  0.82914646  1
  Rb  Rb5  1  0.44223928  0.99391525  0.67085354  1
  Rb  Rb6  1  0.05776072  0.50608475  0.17085354  1
  Rb  Rb7  1  0.55776072  0.49391525  0.32914646  1
  Pr  Pr0  1  0.92702934  0.75000000  0.50551789  1
  Pr  Pr1  1  0.42702934  0.25000000  0.99448211  1
  Pr  Pr2  1  0.07297066  0.25000000  0.49448211  1
  Pr  Pr3  1  0.57297066  0.75000000  0.00551789  1
  Cl  Cl0  1  0.33586665  0.95727024  0.92752398  1
  Cl  Cl1  1  0.83586665  0.04272976  0.57247602  1
  Cl  Cl2  1  0.66413335  0.45727024  0.07247602  1
  Cl  Cl3  1  0.16413335  0.54272976  0.42752398  1
  Cl  Cl4  1  0.66413335  0.04272976  0.07247602  1
  Cl  Cl5  1  0.16413335  0.95727024  0.42752398  1
  Cl  Cl6  1  0.33586665  0.54272976  0.92752398  1
  Cl  Cl7  1  0.83586665  0.45727024  0.57247602  1
  Cl  Cl8  1  0.38059770  0.75000000  0.17925220  1
  Cl  Cl9  1  0.88059770  0.25000000  0.32074780  1
  Cl  Cl10  1  0.61940230  0.25000000  0.82074780  1
  Cl  Cl11  1  0.11940230  0.75000000  0.67925220  1
  Cl  Cl12  1  0.08711614  0.25000000  0.99011328  1
  Cl  Cl13  1  0.58711614  0.75000000  0.50988672  1
  Cl  Cl14  1  0.91288386  0.75000000  0.00988672  1
  Cl  Cl15  1  0.41288386  0.25000000  0.49011328  1
  Cl  Cl16  1  0.65561118  0.75000000  0.79951452  1
  Cl  Cl17  1  0.15561118  0.25000000  0.70048548  1
  Cl  Cl18  1  0.34438882  0.25000000  0.20048548  1
  Cl  Cl19  1  0.84438882  0.75000000  0.29951452  1
loop_
_geom_bond_atom_site_label_1
_geom_bond_atom_site_label_2
_geom_bond_distance
_geom_bond_site_symmetry_2
Cl0 Pr1 2.871891 1_565
Cl0 Pr3 2.887611 1_556
Cl0 Rb5 3.511029 1_555
Cl0 Rb4 3.521615 1_465
Cl1 Pr0 2.871891 1_545
Cl1 Pr2 2.887611 1_655
Cl1 Rb4 3.511029 1_555
Cl1 Rb5 3.521615 1_545
Cl2 Pr3 2.871891 1_555
Cl2 Pr1 2.887611 1_554
Cl2 Rb7 3.511029 1_555
Cl2 Rb6 3.521615 1_655
Cl3 Pr2 2.871891 1_555
Cl3 Pr0 2.887611 1_455
Cl3 Rb6 3.511029 1_555
Cl3 Rb7 3.521615 1_555
Cl4 Pr3 2.871891 1_545
Cl4 Pr1 2.887611 1_554
Cl4 Rb2 3.511029 1_555
Cl4 Rb3 3.521615 1_645
Cl5 Pr2 2.871891 1_565
Cl5 Pr0 2.887611 1_455
Cl5 Rb3 3.511029 1_555
Cl5 Rb2 3.521615 1_565
Cl6 Pr1 2.871891 1_555
Cl6 Pr3 2.887611 1_556
Cl6 Rb0 3.511029 1_555
Cl6 Rb1 3.521615 1_455
Cl7 Pr0 2.871891 1_555
Cl7 Pr2 2.887611 1_655
Cl7 Rb1 3.511029 1_555
Cl7 Rb0 3.521615 1_555
Cl8 Pr3 2.785785 1_555
Cl8 Rb7 3.364709 1_555
Cl8 Rb2 3.364709 1_565
Cl8 Rb6 3.447770 1_555
Cl8 Rb3 3.447770 1_555
Cl9 Pr2 2.785785 1_655
Cl9 Rb6 3.364709 1_655
Cl9 Rb3 3.364709 1_645
Cl9 Rb2 3.447770 1_555
Cl9 Rb7 3.447770 1_555
Cl10 Pr1 2.785785 1_555
Cl10 Rb0 3.364709 1_555
Cl10 Rb5 3.364709 1_545
Cl10 Rb4 3.447770 1_555
Cl10 Rb1 3.447770 1_555
Cl11 Pr0 2.785785 1_455
Cl11 Rb1 3.364709 1_455
Cl11 Rb4 3.364709 1_465
Cl11 Rb5 3.447770 1_555
Cl11 Rb0 3.447770 1_555
Cl12 Pr1 2.802468 1_555
Cl12 Rb4 3.274572 1_455
Cl12 Rb1 3.274572 1_455
Cl12 Rb3 3.319613 1_546
Cl12 Rb6 3.319613 1_556
Cl13 Pr0 2.802468 1_555
Cl13 Rb0 3.274572 1_555
Cl13 Rb5 3.274572 1_555
Cl13 Rb7 3.319613 1_555
Cl13 Rb2 3.319613 1_565
Cl14 Pr3 2.802468 1_555
Cl14 Rb6 3.274572 1_655
Cl14 Rb3 3.274572 1_655
Cl14 Rb1 3.319613 1_554
Cl14 Rb4 3.319613 1_564
Cl15 Pr2 2.802468 1_555
Cl15 Rb2 3.274572 1_555
Cl15 Rb7 3.274572 1_555
Cl15 Rb5 3.319613 1_545
Cl15 Rb0 3.319613 1_555
Cl16 Pr3 2.799987 1_556
Cl16 Rb5 3.280829 1_555
Cl16 Rb0 3.280829 1_555
Cl16 Rb1 3.319378 1_555
Cl16 Rb4 3.319378 1_565
Cl17 Pr2 2.799987 1_555
Cl17 Rb4 3.280829 1_455
Cl17 Rb1 3.280829 1_455
Cl17 Rb0 3.319378 1_555
Cl17 Rb5 3.319378 1_545
Cl18 Pr1 2.799987 1_554
Cl18 Rb2 3.280829 1_555
Cl18 Rb7 3.280829 1_555
Cl18 Rb3 3.319378 1_545
Cl18 Rb6 3.319378 1_555
Cl19 Pr0 2.799987 1_555
Cl19 Rb6 3.280829 1_655
Cl19 Rb3 3.280829 1_655
Cl19 Rb7 3.319378 1_555
Cl19 Rb2 3.319378 1_565
