# generated using pymatgen
data_FeH18(NO6)3
_symmetry_space_group_name_H-M   'P 1'
_cell_length_a   14.20581000
_cell_length_b   9.67885100
_cell_length_c   10.90071437
_cell_angle_alpha   90.00000000
_cell_angle_beta   96.08062534
_cell_angle_gamma   90.00000000
_symmetry_Int_Tables_number   1
_chemical_formula_structural   FeH18(NO6)3
_chemical_formula_sum   'Fe4 H72 N12 O72'
_cell_volume   1490.37119465
_cell_formula_units_Z   4
loop_
 _symmetry_equiv_pos_site_id
 _symmetry_equiv_pos_as_xyz
  1  'x, y, z'
loop_
 _atom_site_type_symbol
 _atom_site_label
 _atom_site_symmetry_multiplicity
 _atom_site_fract_x
 _atom_site_fract_y
 _atom_site_fract_z
 _atom_site_occupancy
  Fe  Fe0  1  0.50000000  0.50000000  0.00000000  1
  Fe  Fe1  1  0.50000000  0.00000000  0.50000000  1
  Fe  Fe2  1  0.00000000  0.50000000  0.50000000  1
  Fe  Fe3  1  0.00000000  0.00000000  0.00000000  1
  H  H0  1  0.17590200  0.97451900  0.60908100  1
  H  H1  1  0.82409800  0.47451900  0.89091900  1
  H  H2  1  0.82409800  0.02548100  0.39091900  1
  H  H3  1  0.17590200  0.52548100  0.10908100  1
  H  H4  1  0.18178100  0.08571900  0.50590700  1
  H  H5  1  0.81821900  0.58571900  0.99409300  1
  H  H6  1  0.81821900  0.91428100  0.49409300  1
  H  H7  1  0.18178100  0.41428100  0.00590700  1
  H  H8  1  0.51030600  0.42918000  0.62198900  1
  H  H9  1  0.48969400  0.92918000  0.87801100  1
  H  H10  1  0.48969400  0.57082000  0.37801100  1
  H  H11  1  0.51030600  0.07082000  0.12198900  1
  H  H12  1  0.39913700  0.43165400  0.57850200  1
  H  H13  1  0.60086300  0.93165400  0.92149800  1
  H  H14  1  0.60086300  0.56834600  0.42149800  1
  H  H15  1  0.39913700  0.06834600  0.07850200  1
  H  H16  1  0.02910700  0.11019200  0.61029700  1
  H  H17  1  0.97089300  0.61019200  0.88970300  1
  H  H18  1  0.97089300  0.88980800  0.38970300  1
  H  H19  1  0.02910700  0.38980800  0.11029700  1
  H  H20  1  0.92213400  0.07361900  0.56744200  1
  H  H21  1  0.07786600  0.57361900  0.93255800  1
  H  H22  1  0.07786600  0.92638100  0.43255800  1
  H  H23  1  0.92213400  0.42638100  0.06744200  1
  H  H24  1  0.40766500  0.42484800  0.18717000  1
  H  H25  1  0.59233500  0.92484800  0.31283000  1
  H  H26  1  0.59233500  0.57515200  0.81283000  1
  H  H27  1  0.40766500  0.07515200  0.68717000  1
  H  H28  1  0.44150100  0.29170900  0.11336800  1
  H  H29  1  0.55849900  0.79170900  0.38663200  1
  H  H30  1  0.55849900  0.70829100  0.88663200  1
  H  H31  1  0.44150100  0.20829100  0.61336800  1
  H  H32  1  0.64421800  0.35144600  0.07653900  1
  H  H33  1  0.35578200  0.85144600  0.42346100  1
  H  H34  1  0.35578200  0.64855400  0.92346100  1
  H  H35  1  0.64421800  0.14855400  0.57653900  1
  H  H36  1  0.61266600  0.31590100  0.92863600  1
  H  H37  1  0.38733400  0.81590100  0.57136400  1
  H  H38  1  0.38733400  0.68409900  0.07136400  1
  H  H39  1  0.61266600  0.18409900  0.42863600  1
  H  H40  1  0.36250900  0.37953700  0.87682400  1
  H  H41  1  0.63749100  0.87953700  0.62317600  1
  H  H42  1  0.63749100  0.62046300  0.12317600  1
  H  H43  1  0.36250900  0.12046300  0.37682400  1
  H  H44  1  0.43836600  0.40760100  0.77431700  1
  H  H45  1  0.56163400  0.90760100  0.72568300  1
  H  H46  1  0.56163400  0.59239900  0.22568300  1
  H  H47  1  0.43836600  0.09239900  0.27431700  1
  H  H48  1  0.86449000  0.42618400  0.62775600  1
  H  H49  1  0.13551000  0.92618400  0.87224400  1
  H  H50  1  0.13551000  0.57381600  0.37224400  1
  H  H51  1  0.86449000  0.07381600  0.12775600  1
  H  H52  1  0.94070100  0.29727900  0.62008000  1
  H  H53  1  0.05929900  0.79727900  0.87992000  1
  H  H54  1  0.05929900  0.70272100  0.37992000  1
  H  H55  1  0.94070100  0.20272100  0.12008000  1
  H  H56  1  0.14286700  0.34784900  0.57296400  1
  H  H57  1  0.85713300  0.84784900  0.92703600  1
  H  H58  1  0.85713300  0.65215100  0.42703600  1
  H  H59  1  0.14286700  0.15215100  0.07296400  1
  H  H60  1  0.10422900  0.30536000  0.42739200  1
  H  H61  1  0.89577100  0.80536000  0.07260800  1
  H  H62  1  0.89577100  0.69464000  0.57260800  1
  H  H63  1  0.10422900  0.19464000  0.92739200  1
  H  H64  1  0.87055700  0.35711200  0.36676100  1
  H  H65  1  0.12944300  0.85711200  0.13323900  1
  H  H66  1  0.12944300  0.64288800  0.63323900  1
  H  H67  1  0.87055700  0.14288800  0.86676100  1
  H  H68  1  0.94915600  0.41027800  0.27586900  1
  H  H69  1  0.05084400  0.91027800  0.22413100  1
  H  H70  1  0.05084400  0.58972200  0.72413100  1
  H  H71  1  0.94915600  0.08972200  0.77586900  1
  N  N0  1  0.68947200  0.50719400  0.62245100  1
  N  N1  1  0.31052800  0.00719400  0.87754900  1
  N  N2  1  0.31052800  0.49280600  0.37754900  1
  N  N3  1  0.68947200  0.99280600  0.12245100  1
  N  N4  1  0.71488600  0.21537900  0.78347800  1
  N  N5  1  0.28511400  0.71537900  0.71652200  1
  N  N6  1  0.28511400  0.78462100  0.21652200  1
  N  N7  1  0.71488600  0.28462100  0.28347800  1
  N  N8  1  0.19950100  0.31285800  0.79241700  1
  N  N9  1  0.80049900  0.81285800  0.70758300  1
  N  N10  1  0.80049900  0.68714200  0.20758300  1
  N  N11  1  0.19950100  0.18714200  0.29241700  1
  O  O0  1  0.13682700  0.02729700  0.54609200  1
  O  O1  1  0.86317300  0.52729700  0.95390800  1
  O  O2  1  0.86317300  0.97270300  0.45390800  1
  O  O3  1  0.13682700  0.47270300  0.04609200  1
  O  O4  1  0.44970300  0.38294800  0.63332700  1
  O  O5  1  0.55029700  0.88294800  0.86667300  1
  O  O6  1  0.55029700  0.61705200  0.36667300  1
  O  O7  1  0.44970300  0.11705200  0.13332700  1
  O  O8  1  0.96371300  0.12791200  0.63000200  1
  O  O9  1  0.03628700  0.62791200  0.86999800  1
  O  O10  1  0.03628700  0.87208800  0.36999800  1
  O  O11  1  0.96371300  0.37208800  0.13000200  1
  O  O12  1  0.69268000  0.49344300  0.50822600  1
  O  O13  1  0.30732000  0.99344300  0.99177400  1
  O  O14  1  0.30732000  0.50655700  0.49177400  1
  O  O15  1  0.69268000  0.00655700  0.00822600  1
  O  O16  1  0.61080400  0.53760300  0.66342100  1
  O  O17  1  0.38919600  0.03760300  0.83657900  1
  O  O18  1  0.38919600  0.46239700  0.33657900  1
  O  O19  1  0.61080400  0.96239700  0.16342100  1
  O  O20  1  0.76342700  0.49159000  0.69648600  1
  O  O21  1  0.23657300  0.99159000  0.80351400  1
  O  O22  1  0.23657300  0.50841000  0.30351400  1
  O  O23  1  0.76342700  0.00841000  0.19648600  1
  O  O24  1  0.73595500  0.15772100  0.68571000  1
  O  O25  1  0.26404500  0.65772100  0.81429000  1
  O  O26  1  0.26404500  0.84227900  0.31429000  1
  O  O27  1  0.73595500  0.34227900  0.18571000  1
  O  O28  1  0.77914400  0.24128300  0.87081700  1
  O  O29  1  0.22085600  0.74128300  0.62918300  1
  O  O30  1  0.22085600  0.75871700  0.12918300  1
  O  O31  1  0.77914400  0.25871700  0.37081700  1
  O  O32  1  0.62992100  0.24840700  0.79426000  1
  O  O33  1  0.37007900  0.74840700  0.70574000  1
  O  O34  1  0.37007900  0.75159300  0.20574000  1
  O  O35  1  0.62992100  0.25159300  0.29426000  1
  O  O36  1  0.23115300  0.33881700  0.69153000  1
  O  O37  1  0.76884700  0.83881700  0.80847000  1
  O  O38  1  0.76884700  0.66118300  0.30847000  1
  O  O39  1  0.23115300  0.16118300  0.19153000  1
  O  O40  1  0.25294200  0.32779200  0.89421300  1
  O  O41  1  0.74705800  0.82779200  0.60578700  1
  O  O42  1  0.74705800  0.67220800  0.10578700  1
  O  O43  1  0.25294200  0.17220800  0.39421300  1
  O  O44  1  0.11527800  0.27212600  0.79616100  1
  O  O45  1  0.88472200  0.77212600  0.70383900  1
  O  O46  1  0.88472200  0.72787400  0.20383900  1
  O  O47  1  0.11527800  0.22787400  0.29616100  1
  O  O48  1  0.42240700  0.39166500  0.10464800  1
  O  O49  1  0.57759300  0.89166500  0.39535200  1
  O  O50  1  0.57759300  0.60833500  0.89535200  1
  O  O51  1  0.42240700  0.10833500  0.60464800  1
  O  O52  1  0.59068400  0.35122500  0.00799500  1
  O  O53  1  0.40931600  0.85122500  0.49200500  1
  O  O54  1  0.40931600  0.64877500  0.99200500  1
  O  O55  1  0.59068400  0.14877500  0.50799500  1
  O  O56  1  0.42907700  0.40823500  0.86574500  1
  O  O57  1  0.57092300  0.90823500  0.63425500  1
  O  O58  1  0.57092300  0.59176500  0.13425500  1
  O  O59  1  0.42907700  0.09176500  0.36574500  1
  O  O60  1  0.93137100  0.40097200  0.61898600  1
  O  O61  1  0.06862900  0.90097200  0.88101400  1
  O  O62  1  0.06862900  0.59902800  0.38101400  1
  O  O63  1  0.93137100  0.09902800  0.11898600  1
  O  O64  1  0.08822200  0.34899800  0.50653200  1
  O  O65  1  0.91177800  0.84899800  0.99346800  1
  O  O66  1  0.91177800  0.65100200  0.49346800  1
  O  O67  1  0.08822200  0.15100200  0.00653200  1
  O  O68  1  0.92783300  0.41791900  0.36112100  1
  O  O69  1  0.07216700  0.91791900  0.13887900  1
  O  O70  1  0.07216700  0.58208100  0.63887900  1
  O  O71  1  0.92783300  0.08208100  0.86112100  1
loop_
_geom_bond_atom_site_label_1
_geom_bond_atom_site_label_2
_geom_bond_distance
_geom_bond_site_symmetry_2
Fe0 O58 1.906132 1_555
Fe0 O56 1.906132 1_554
Fe0 O52 1.927923 1_555
Fe0 O54 1.927923 1_554
Fe0 O50 1.970317 1_554
Fe0 O48 1.970317 1_555
Fe1 O57 1.906132 1_545
Fe1 O59 1.906132 1_555
Fe1 O53 1.927923 1_545
Fe1 O55 1.927923 1_555
Fe1 O51 1.970317 1_555
Fe1 O49 1.970317 1_545
Fe2 O70 1.909240 1_555
Fe2 O68 1.909240 1_455
Fe2 O66 1.921691 1_455
Fe2 O64 1.921691 1_555
Fe2 O62 1.954317 1_555
Fe2 O60 1.954317 1_455
Fe3 O69 1.909240 1_545
Fe3 O71 1.909240 1_454
Fe3 O67 1.921691 1_555
Fe3 O65 1.921691 1_444
Fe3 O61 1.954317 1_544
Fe3 O63 1.954317 1_455
H0 O0 0.979685 1_565
H1 O1 0.979685 1_555
H2 O2 0.979685 1_545
H3 O3 0.979685 1_555
H4 O0 0.989298 1_555
H5 O1 0.989298 1_555
H6 O2 0.989298 1_555
H7 O3 0.989298 1_555
H8 O4 0.989557 1_555
H9 O5 0.989557 1_555
H10 O6 0.989557 1_555
H11 O7 0.989557 1_555
H12 O4 1.002222 1_555
H12 O14 1.690979 1_555
H13 O5 1.002222 1_555
H13 O15 1.690979 1_566
H14 O6 1.002222 1_555
H14 O12 1.690979 1_555
H15 O7 1.002222 1_555
H15 O13 1.690979 1_544
H16 O8 0.990365 1_455
H17 O9 0.990365 1_655
H18 O10 0.990365 1_655
H19 O11 0.990365 1_455
H20 O8 1.002370 1_555
H21 O9 1.002370 1_555
H22 O10 1.002370 1_555
H23 O11 1.002370 1_555
H24 O48 0.998052 1_555
H25 O49 0.998052 1_555
H26 O50 0.998052 1_555
H27 O51 0.998052 1_555
H28 O48 1.006541 1_555
H29 O49 1.006541 1_555
H30 O50 1.006541 1_555
H31 O51 1.006541 1_555
H32 O52 1.008092 1_555
H32 O27 1.671478 1_555
H33 O53 1.008092 1_555
H33 O26 1.671478 1_555
H34 O54 1.008092 1_555
H34 O25 1.671478 1_555
H35 O55 1.008092 1_555
H35 O24 1.671478 1_555
H36 O52 1.009942 1_556
H36 O32 1.645761 1_555
H37 O53 1.009942 1_555
H37 O33 1.645761 1_555
H38 O54 1.009942 1_554
H38 O34 1.645761 1_555
H39 O55 1.009942 1_555
H39 O35 1.645761 1_555
H40 O56 1.005083 1_555
H40 O40 1.664909 1_555
H41 O57 1.005083 1_555
H41 O41 1.664909 1_555
H42 O58 1.005083 1_555
H42 O42 1.664909 1_555
H43 O59 1.005083 1_555
H43 O43 1.664909 1_555
H44 O56 1.019110 1_555
H44 O4 1.580300 1_555
H45 O57 1.019110 1_555
H45 O5 1.580300 1_555
H46 O58 1.019110 1_555
H46 O6 1.580300 1_555
H47 O59 1.019110 1_555
H47 O7 1.580300 1_555
H48 O60 0.995297 1_555
H49 O61 0.995297 1_555
H50 O62 0.995297 1_555
H51 O63 0.995297 1_555
H52 O60 1.012248 1_555
H53 O61 1.012248 1_555
H54 O62 1.012248 1_555
H55 O63 1.012248 1_555
H56 O64 1.004011 1_555
H56 O36 1.705175 1_555
H57 O65 1.004011 1_555
H57 O37 1.705175 1_555
H58 O66 1.004011 1_555
H58 O38 1.705175 1_555
H59 O67 1.004011 1_555
H59 O39 1.705175 1_555
H60 O64 1.007909 1_555
H60 O47 1.637386 1_555
H61 O65 1.007909 1_554
H61 O46 1.637386 1_555
H62 O66 1.007909 1_555
H62 O45 1.637386 1_555
H63 O67 1.007909 1_556
H63 O44 1.637386 1_555
H64 O68 1.011330 1_555
H64 O31 1.614757 1_555
H65 O69 1.011330 1_555
H65 O30 1.614757 1_555
H66 O70 1.011330 1_555
H66 O29 1.614757 1_555
H67 O71 1.011330 1_555
H67 O28 1.614757 1_555
H68 O68 1.010185 1_555
H69 O69 1.010185 1_555
H70 O70 1.010185 1_555
H71 O71 1.010185 1_555
N0 O12 1.257844 1_555
N0 O20 1.264211 1_555
N0 O16 1.280905 1_555
N1 O13 1.257844 1_545
N1 O21 1.264211 1_545
N1 O17 1.280905 1_555
N2 O14 1.257844 1_555
N2 O22 1.264211 1_555
N2 O18 1.280905 1_555
N3 O15 1.257844 1_565
N3 O23 1.264211 1_565
N3 O19 1.280905 1_555
N4 O32 1.266057 1_555
N4 O24 1.266648 1_555
N4 O28 1.272174 1_555
N5 O33 1.266057 1_555
N5 O25 1.266648 1_555
N5 O29 1.272174 1_555
N6 O34 1.266057 1_555
N6 O26 1.266648 1_555
N6 O30 1.272174 1_555
N7 O35 1.266057 1_555
N7 O27 1.266648 1_555
N7 O31 1.272174 1_555
N8 O36 1.256780 1_555
N8 O44 1.264493 1_555
N8 O40 1.284557 1_555
N9 O37 1.256780 1_555
N9 O45 1.264493 1_555
N9 O41 1.284557 1_555
N10 O38 1.256780 1_555
N10 O46 1.264493 1_555
N10 O42 1.284557 1_555
N11 O39 1.256780 1_555
N11 O47 1.264493 1_555
N11 O43 1.284557 1_555
