# generated using pymatgen
data_Na5Si3Ge4(PO8)3
_symmetry_space_group_name_H-M   'P 1'
_cell_length_a   8.57779598
_cell_length_b   8.57477842
_cell_length_c   21.73098836
_cell_angle_alpha   89.95810634
_cell_angle_beta   90.14615849
_cell_angle_gamma   119.94529093
_symmetry_Int_Tables_number   1
_chemical_formula_structural   Na5Si3Ge4(PO8)3
_chemical_formula_sum   'Na15 Si9 Ge12 P9 O72'
_cell_volume   1384.98920146
_cell_formula_units_Z   3
loop_
 _symmetry_equiv_pos_site_id
 _symmetry_equiv_pos_as_xyz
  1  'x, y, z'
loop_
 _atom_site_type_symbol
 _atom_site_label
 _atom_site_symmetry_multiplicity
 _atom_site_fract_x
 _atom_site_fract_y
 _atom_site_fract_z
 _atom_site_occupancy
  Na  Na0  1  0.00010252  0.63259824  0.25010088  1
  Na  Na1  1  0.36744032  -0.00008265  0.75029195  1
  Na  Na2  1  0.03148571  0.70024144  0.58239532  1
  Na  Na3  1  0.66352939  0.96435646  0.58393627  1
  Na  Na4  1  0.29927986  0.96867473  0.08234103  1
  Na  Na5  1  0.03457321  0.33583885  0.08414254  1
  Na  Na6  1  0.96852198  0.66725021  0.91732339  1
  Na  Na7  1  0.96618204  0.29986500  0.41546211  1
  Na  Na8  1  0.33569028  0.03231138  0.41707447  1
  Na  Na9  1  0.99822542  0.99703822  0.50003131  1
  Na  Na10  1  0.99699920  0.00076188  0.99920976  1
  Na  Na11  1  0.66598111  0.33083813  0.83335782  1
  Na  Na12  1  0.66364763  0.33343884  0.33258103  1
  Na  Na13  1  0.34297037  0.66500614  0.16751522  1
  Na  Na14  1  0.33547591  0.65706768  0.66733723  1
  Si  Si0  1  -0.00005456  0.28595053  0.24995376  1
  Si  Si1  1  0.71621352  0.00162405  0.75019010  1
  Si  Si2  1  0.37703839  0.05129436  0.58346079  1
  Si  Si3  1  0.65989599  0.61394821  0.58397275  1
  Si  Si4  1  0.94806406  0.62143723  0.08281514  1
  Si  Si5  1  0.38445413  0.33981966  0.08411275  1
  Si  Si6  1  0.33883548  0.96092550  0.91630604  1
  Si  Si7  1  0.62140297  0.95044964  0.41591592  1
  Si  Si8  1  0.04157309  0.66670483  0.41658217  1
  Ge  Ge0  1  0.98863862  0.99275907  0.35283328  1
  Ge  Ge1  1  0.00236782  0.00706827  0.85315803  1
  Ge  Ge2  1  0.99837124  0.99893982  0.64705794  1
  Ge  Ge3  1  0.00068221  0.00109642  0.14681141  1
  Ge  Ge4  1  0.66601678  0.33207058  0.68653215  1
  Ge  Ge5  1  0.66776174  0.33356039  0.18627386  1
  Ge  Ge6  1  0.65620693  0.32891522  0.98062994  1
  Ge  Ge7  1  0.66653290  0.33823760  0.48006084  1
  Ge  Ge8  1  0.33217708  0.66493275  0.01931882  1
  Ge  Ge9  1  0.34058347  0.67292029  0.51978989  1
  Ge  Ge10  1  0.33170877  0.66386993  0.31395682  1
  Ge  Ge11  1  0.34221991  0.67145207  0.81360914  1
  P  P0  1  0.29250220  0.00500915  0.25047555  1
  P  P1  1  0.70803185  0.71313141  0.24942046  1
  P  P2  1  0.28569935  0.29130441  0.75028279  1
  P  P3  1  0.99529393  0.70641965  0.75064778  1
  P  P4  1  0.95784233  0.33398390  0.58345802  1
  P  P5  1  0.66664766  0.04406276  0.08314375  1
  P  P6  1  0.61864279  0.66706607  0.91668923  1
  P  P7  1  0.04646820  0.37649937  0.91581033  1
  P  P8  1  0.33774907  0.38429020  0.41668666  1
  O  O0  1  0.20702051  0.03523327  0.30850381  1
  O  O1  1  0.83348240  0.79058207  0.30655014  1
  O  O2  1  0.96525706  0.16505544  0.31144525  1
  O  O3  1  0.20775158  0.16588807  0.80718320  1
  O  O4  1  0.96474598  0.79161371  0.80867050  1
  O  O5  1  0.84090218  0.03771011  0.81037154  1
  O  O6  1  0.79930914  0.96500034  0.68810005  1
  O  O7  1  0.16929220  0.20627481  0.69253415  1
  O  O8  1  0.04136382  0.83003828  0.69294412  1
  O  O9  1  0.79455629  0.83078599  0.19223127  1
  O  O10  1  0.03493300  0.20034608  0.18839982  1
  O  O11  1  0.16916125  0.95979983  0.19258834  1
  O  O12  1  0.87627313  0.37565513  0.63996445  1
  O  O13  1  0.50581196  0.12797924  0.64400596  1
  O  O14  1  0.63102030  0.49384726  0.64468551  1
  O  O15  1  0.87226068  0.49416991  0.14365954  1
  O  O16  1  0.62364696  0.12283242  0.14042136  1
  O  O17  1  0.50564217  0.37003083  0.14460389  1
  O  O18  1  0.46094783  0.28553409  0.02451176  1
  O  O19  1  0.83111298  0.53249559  0.02074269  1
  O  O20  1  0.71044796  0.16733962  0.02633289  1
  O  O21  1  0.46397114  0.16790425  0.52141951  1
  O  O22  1  0.71342318  0.53637034  0.52419213  1
  O  O23  1  0.83787754  0.29105615  0.52513549  1
  O  O24  1  0.53696471  0.70268692  0.97426308  1
  O  O25  1  0.16017718  0.45607448  0.97529629  1
  O  O26  1  0.29134198  0.82931643  0.97680476  1
  O  O27  1  0.54019592  0.83378337  0.47833021  1
  O  O28  1  0.29163423  0.46091985  0.47362288  1
  O  O29  1  0.16930106  0.70689359  0.47732815  1
  O  O30  1  0.12597250  0.62259647  0.35603019  1
  O  O31  1  0.48892687  0.86531971  0.35687776  1
  O  O32  1  0.37135986  0.49838775  0.35856803  1
  O  O33  1  0.13084638  0.50198044  0.85972891  1
  O  O34  1  0.36753631  0.86827192  0.85525413  1
  O  O35  1  0.50084604  0.62766198  0.85895632  1
  O  O36  1  0.03257549  0.85090346  0.40789905  1
  O  O37  1  0.82382375  0.98114422  0.41009403  1
  O  O38  1  0.16909487  0.19318246  0.41036062  1
  O  O39  1  0.02791274  0.18922360  0.91017460  1
  O  O40  1  0.15247191  0.97178781  0.90822942  1
  O  O41  1  0.81023944  0.83364660  0.91025722  1
  O  O42  1  0.97283881  0.16335784  0.59013001  1
  O  O43  1  0.17549324  0.02191843  0.59212066  1
  O  O44  1  0.83989249  0.81668721  0.59037866  1
  O  O45  1  0.97794273  0.82334969  0.09171090  1
  O  O46  1  0.83617966  0.02718959  0.09013273  1
  O  O47  1  0.18204926  0.15998355  0.09054736  1
  O  O48  1  0.68784282  0.17742774  0.74309057  1
  O  O49  1  0.47295966  0.30599964  0.74442548  1
  O  O50  1  0.82744468  0.52037685  0.74329144  1
  O  O51  1  0.69466911  0.52626263  0.24401031  1
  O  O52  1  0.82296983  0.31246654  0.24313771  1
  O  O53  1  0.47886272  0.17247119  0.24335136  1
  O  O54  1  0.64528003  0.50132958  0.92240147  1
  O  O55  1  0.86043296  0.36313316  0.92266578  1
  O  O56  1  0.51740467  0.15646574  0.92355923  1
  O  O57  1  0.64207282  0.15134159  0.42361444  1
  O  O58  1  0.50197879  0.35832954  0.42234935  1
  O  O59  1  0.84716230  0.48531284  0.42379100  1
  O  O60  1  0.35511241  0.51217414  0.07510822  1
  O  O61  1  0.15097137  0.64478804  0.07618748  1
  O  O62  1  0.49623309  0.85803126  0.07590996  1
  O  O63  1  0.35321297  0.84831592  0.57746524  1
  O  O64  1  0.48603419  0.64093567  0.57661628  1
  O  O65  1  0.14294950  0.50407744  0.57605697  1
  O  O66  1  0.30563364  0.83129223  0.25575838  1
  O  O67  1  0.52221847  0.69500786  0.25709443  1
  O  O68  1  0.17661749  0.48944031  0.25662662  1
  O  O69  1  0.30307162  0.47755858  0.75830221  1
  O  O70  1  0.16757930  0.69070460  0.75683168  1
  O  O71  1  0.51245102  0.82473183  0.75633763  1
loop_
_geom_bond_atom_site_label_1
_geom_bond_atom_site_label_2
_geom_bond_distance
_geom_bond_site_symmetry_2
Na0 O51 2.307921 1_455
Na0 O66 2.308090 1_555
Na0 O68 2.381959 1_555
Na0 O52 2.387952 1_455
Na0 O30 2.559594 1_555
Na0 O15 2.579413 1_455
Na0 O1 2.706837 1_455
Na0 O11 2.734773 1_555
Na1 O49 2.313529 1_555
Na1 O70 2.334957 1_545
Na1 O71 2.384390 1_545
Na1 O48 2.391694 1_555
Na1 O34 2.544418 1_545
Na1 O13 2.580387 1_555
Na1 O3 2.718001 1_555
Na1 O8 2.723151 1_545
Na2 O44 2.316891 1_455
Na2 O65 2.317122 1_555
Na2 O63 2.396397 1_555
Na2 O43 2.403482 1_565
Na2 O29 2.561262 1_555
Na2 O8 2.631698 1_555
Na2 O22 2.678691 1_455
Na2 O12 2.718113 1_455
Na3 O42 2.334082 1_565
Na3 O63 2.334370 1_555
Na3 O64 2.412136 1_555
Na3 O44 2.413002 1_555
Na3 O27 2.539352 1_555
Na3 O6 2.541749 1_555
Na3 O13 2.722022 1_565
Na3 O23 2.745723 1_565
Na4 O62 2.318486 1_555
Na4 O47 2.319958 1_565
Na4 O45 2.401089 1_455
Na4 O61 2.412847 1_555
Na4 O26 2.571824 1_554
Na4 O11 2.630569 1_555
Na4 O18 2.669598 1_565
Na4 O16 2.719290 1_565
Na5 O61 2.324741 1_555
Na5 O46 2.328440 1_455
Na5 O60 2.395095 1_555
Na5 O47 2.407625 1_555
Na5 O10 2.546083 1_555
Na5 O25 2.592112 1_554
Na5 O15 2.711703 1_455
Na5 O20 2.714799 1_455
Na6 O40 2.288043 1_655
Na6 O55 2.293405 1_555
Na6 O54 2.405675 1_555
Na6 O41 2.415653 1_555
Na6 O19 2.534811 1_556
Na6 O4 2.596845 1_555
Na6 O26 2.722575 1_655
Na6 O33 2.737693 1_655
Na7 O59 2.286008 1_555
Na7 O38 2.338658 1_655
Na7 O37 2.375248 1_545
Na7 O57 2.418656 1_555
Na7 O2 2.537763 1_555
Na7 O23 2.612902 1_555
Na7 O30 2.724322 1_655
Na7 O28 2.726464 1_655
Na8 O36 2.275909 1_545
Na8 O57 2.299815 1_555
Na8 O58 2.425169 1_555
Na8 O38 2.435744 1_555
Na8 O21 2.533407 1_555
Na8 O0 2.607594 1_555
Na8 O31 2.716595 1_545
Na8 O29 2.750627 1_545
Na9 O37 2.420381 1_555
Na9 O44 2.450129 1_555
Na9 O43 2.454312 1_665
Na9 O36 2.457803 1_655
Na9 O42 2.496226 1_565
Na9 O38 2.514537 1_665
Na10 O39 2.448591 1_655
Na10 O41 2.460247 1_545
Na10 O40 2.468623 1_645
Na10 O45 2.476004 1_546
Na10 O47 2.479432 1_656
Na10 O46 2.486951 1_556
Na11 O56 2.410014 1_555
Na11 O48 2.421856 1_555
Na11 O55 2.479607 1_555
Na11 O50 2.480394 1_555
Na11 O49 2.480689 1_555
Na11 O54 2.485571 1_555
Na12 O52 2.436675 1_555
Na12 O53 2.445707 1_555
Na12 O59 2.458415 1_555
Na12 O51 2.463313 1_555
Na12 O58 2.466578 1_555
Na12 O57 2.468739 1_555
Na13 O67 2.410445 1_555
Na13 O60 2.429380 1_555
Na13 O68 2.432626 1_555
Na13 O62 2.503357 1_555
Na13 O66 2.505181 1_555
Na13 O61 2.525868 1_555
Na14 O64 2.401120 1_555
Na14 O71 2.433568 1_555
Na14 O69 2.434203 1_555
Na14 O65 2.491421 1_555
Na14 O63 2.504882 1_555
Na14 O70 2.523765 1_555
Ge0 O2 1.823411 1_565
Ge0 O37 1.850727 1_555
Ge0 O1 1.865634 1_555
Ge0 O36 1.872644 1_655
Ge0 O0 1.974139 1_665
Ge0 O38 2.061514 1_665
Ge1 O5 1.791147 1_455
Ge1 O40 1.887337 1_545
Ge1 O3 1.888981 1_555
Ge1 O39 1.919016 1_555
Ge1 O4 1.964111 1_445
Ge1 O41 2.007003 1_445
Ge2 O6 1.818528 1_555
Ge2 O43 1.866132 1_665
Ge2 O7 1.918291 1_665
Ge2 O44 1.918505 1_555
Ge2 O8 1.938323 1_655
Ge2 O42 1.967329 1_565
Ge3 O10 1.822612 1_555
Ge3 O45 1.870685 1_445
Ge3 O9 1.913653 1_445
Ge3 O47 1.913801 1_555
Ge3 O11 1.925246 1_545
Ge3 O46 1.965743 1_455
Ge4 O14 1.803854 1_555
Ge4 O13 1.843923 1_555
Ge4 O48 1.883695 1_555
Ge4 O12 1.937092 1_555
Ge4 O50 1.951410 1_555
Ge4 O49 2.003925 1_555
Ge5 O17 1.810789 1_555
Ge5 O15 1.850916 1_555
Ge5 O52 1.887817 1_555
Ge5 O16 1.928517 1_555
Ge5 O53 1.960927 1_555
Ge5 O51 1.994651 1_555
Ge6 O18 1.799614 1_556
Ge6 O56 1.838410 1_555
Ge6 O19 1.854440 1_556
Ge6 O20 1.939480 1_556
Ge6 O54 1.982583 1_555
Ge6 O55 2.058915 1_555
Ge7 O22 1.812762 1_555
Ge7 O21 1.852707 1_555
Ge7 O59 1.882282 1_555
Ge7 O57 1.944950 1_555
Ge7 O58 1.956608 1_555
Ge7 O23 1.966987 1_555
Ge8 O26 1.858073 1_554
Ge8 O60 1.864943 1_555
Ge8 O24 1.894667 1_554
Ge8 O25 1.912250 1_554
Ge8 O61 1.927304 1_555
Ge8 O62 1.975401 1_555
Ge9 O27 1.815017 1_555
Ge9 O64 1.868171 1_555
Ge9 O29 1.874811 1_555
Ge9 O63 1.919364 1_555
Ge9 O28 1.930265 1_555
Ge9 O65 2.005684 1_555
Ge10 O31 1.828324 1_555
Ge10 O30 1.860055 1_555
Ge10 O32 1.883379 1_555
Ge10 O68 1.888600 1_555
Ge10 O67 1.960322 1_555
Ge10 O66 2.006729 1_555
Ge11 O34 1.830242 1_555
Ge11 O35 1.861766 1_555
Ge11 O71 1.870692 1_555
Ge11 O69 1.940351 1_555
Ge11 O33 1.944301 1_555
Ge11 O70 2.007699 1_555
O0 P0 1.545922 1_555
O1 P1 1.556029 1_555
O2 Si0 1.625071 1_655
O3 P2 1.554648 1_555
O4 P3 1.544767 1_555
O5 Si1 1.616505 1_555
O6 Si1 1.629792 1_565
O7 P2 1.540006 1_555
O8 P3 1.560310 1_455
O9 P1 1.538989 1_555
O10 Si0 1.625284 1_555
O11 P0 1.560935 1_565
O12 P4 1.542627 1_555
O13 Si2 1.628591 1_555
O14 Si3 1.614813 1_555
O15 Si4 1.629665 1_555
O16 P5 1.547201 1_555
O17 Si5 1.612575 1_555
O18 Si5 1.623225 1_555
O19 Si4 1.624291 1_555
O20 P5 1.544879 1_555
O21 Si2 1.622445 1_555
O22 Si3 1.627942 1_555
O23 P4 1.554540 1_555
O24 P6 1.538888 1_555
O25 P7 1.555122 1_555
O26 Si6 1.646064 1_555
O27 Si7 1.622576 1_555
O28 P8 1.543459 1_555
O29 Si8 1.636485 1_555
O30 Si8 1.636335 1_555
O31 Si7 1.623556 1_555
O32 P8 1.534232 1_555
O33 P7 1.546583 1_555
O34 Si6 1.628028 1_555
O35 P6 1.537029 1_555
O36 Si8 1.630170 1_555
O37 Si7 1.626324 1_555
O38 P8 1.558748 1_555
O39 P7 1.537562 1_555
O40 Si6 1.655947 1_555
O41 P6 1.555021 1_555
O42 P4 1.538071 1_555
O43 Si2 1.629262 1_555
O44 Si3 1.656805 1_555
O45 Si4 1.630301 1_555
O46 P5 1.538708 1_555
O47 Si5 1.655261 1_555
O48 Si1 1.649616 1_555
O49 P2 1.552793 1_555
O50 P3 1.532832 1_555
O51 P1 1.552854 1_555
O52 Si0 1.649708 1_655
O53 P0 1.533167 1_555
O54 P6 1.552763 1_555
O55 P7 1.549327 1_655
O56 Si6 1.617882 1_545
O57 Si7 1.649892 1_545
O58 P8 1.536673 1_555
O59 Si8 1.623639 1_655
O60 Si5 1.629880 1_555
O61 Si4 1.656346 1_455
O62 P5 1.541869 1_565
O63 Si2 1.653223 1_565
O64 Si3 1.626810 1_555
O65 P4 1.537277 1_455
O66 P0 1.553035 1_565
O67 P1 1.531800 1_555
O68 Si0 1.649720 1_555
O69 P2 1.538162 1_555
O70 P3 1.554982 1_455
O71 Si1 1.651554 1_565
