# generated using pymatgen
data_Na6In4Si5Ge4S7O48
_symmetry_space_group_name_H-M   'P 1'
_cell_length_a   17.56142728
_cell_length_b   8.82024346
_cell_length_c   22.49891830
_cell_angle_alpha   90.02508348
_cell_angle_beta   89.85979656
_cell_angle_gamma   120.23779183
_symmetry_Int_Tables_number   1
_chemical_formula_structural   Na6In4Si5Ge4S7O48
_chemical_formula_sum   'Na18 In12 Si15 Ge12 S21 O144'
_cell_volume   3010.82518555
_cell_formula_units_Z   3
loop_
 _symmetry_equiv_pos_site_id
 _symmetry_equiv_pos_as_xyz
  1  'x, y, z'
loop_
 _atom_site_type_symbol
 _atom_site_label
 _atom_site_symmetry_multiplicity
 _atom_site_fract_x
 _atom_site_fract_y
 _atom_site_fract_z
 _atom_site_occupancy
  Na  Na0  1  0.99669103  0.62361287  0.25502329  1
  Na  Na1  1  0.50113988  0.63261171  0.25024698  1
  Na  Na2  1  0.00191707  0.37546245  0.74898607  1
  Na  Na3  1  0.49624755  0.36123483  0.75322553  1
  Na  Na4  1  0.66381589  0.30436151  0.91739856  1
  Na  Na5  1  0.16645290  0.01827445  0.42870966  1
  Na  Na6  1  0.99784500  0.99817568  0.50640915  1
  Na  Na7  1  0.50037637  0.98609577  0.50065919  1
  Na  Na8  1  0.99919462  0.01138293  0.99658189  1
  Na  Na9  1  0.50083339  0.00315596  0.00361576  1
  Na  Na10  1  0.32668503  0.31566591  0.83919690  1
  Na  Na11  1  0.82896363  0.32752710  0.82388960  1
  Na  Na12  1  0.34170367  0.34802199  0.33074454  1
  Na  Na13  1  0.82119248  0.32960580  0.34189015  1
  Na  Na14  1  0.18743995  0.66303876  0.16262756  1
  Na  Na15  1  0.67036250  0.65245992  0.16274269  1
  Na  Na16  1  0.17318649  0.69230505  0.66477761  1
  Na  Na17  1  0.68404745  0.69339310  0.66806084  1
  In  In0  1  0.99388069  0.98543348  0.35784633  1
  In  In1  1  0.49678612  0.00789030  0.85557204  1
  In  In2  1  0.32422809  0.33913803  0.67669317  1
  In  In3  1  0.82643021  0.30586036  0.68799710  1
  In  In4  1  0.33241790  0.35357194  0.18469103  1
  In  In5  1  0.82017117  0.30681714  0.17465811  1
  In  In6  1  0.82856445  0.31637982  0.99003982  1
  In  In7  1  0.33086951  0.34967107  0.49390123  1
  In  In8  1  0.17040285  0.66797995  0.31586964  1
  In  In9  1  0.66723697  0.64920054  0.31566851  1
  In  In10  1  0.16907409  0.68759807  0.81517883  1
  In  In11  1  0.66659568  0.65367133  0.81079125  1
  Si  Si0  1  0.36360872  0.73826113  0.25208408  1
  Si  Si1  1  0.49842296  0.29363217  0.24859850  1
  Si  Si2  1  0.64051881  0.27870591  0.74791557  1
  Si  Si3  1  0.00122516  0.70407733  0.74835900  1
  Si  Si4  1  0.86553248  0.99046233  0.75236825  1
  Si  Si5  1  0.17477818  0.03055731  0.58388332  1
  Si  Si6  1  0.69141700  0.03038893  0.57856486  1
  Si  Si7  1  0.33453865  0.65434521  0.58372025  1
  Si  Si8  1  0.83107651  0.01750325  0.08243272  1
  Si  Si9  1  0.19063855  0.34974826  0.08009476  1
  Si  Si10  1  0.67454030  0.32437098  0.08310629  1
  Si  Si11  1  0.51623472  0.38382627  0.92072663  1
  Si  Si12  1  0.16363080  0.95969802  0.91907173  1
  Si  Si13  1  0.66470196  0.36875574  0.41823369  1
  Si  Si14  1  0.01799930  0.64704466  0.41961290  1
  Ge  Ge0  1  0.50129354  0.03074143  0.35040888  1
  Ge  Ge1  1  0.00251360  0.97167392  0.84933401  1
  Ge  Ge2  1  0.00179723  0.97707053  0.65295222  1
  Ge  Ge3  1  0.51379960  0.99815459  0.63992559  1
  Ge  Ge4  1  0.00550792  0.02046635  0.13665892  1
  Ge  Ge5  1  0.49943502  0.02359376  0.15088776  1
  Ge  Ge6  1  0.32493879  0.31344766  0.98081276  1
  Ge  Ge7  1  0.82583519  0.34128642  0.48201139  1
  Ge  Ge8  1  0.16254951  0.66388962  0.01417791  1
  Ge  Ge9  1  0.66451605  0.65039087  0.02371717  1
  Ge  Ge10  1  0.16183105  0.67898306  0.52764436  1
  Ge  Ge11  1  0.66089513  0.65528486  0.51653170  1
  S  S0  1  0.14029075  0.00225570  0.24706328  1
  S  S1  1  0.64535349  0.00867777  0.25395600  1
  S  S2  1  0.85735251  0.71074716  0.24391568  1
  S  S3  1  0.99802797  0.28328254  0.24605958  1
  S  S4  1  0.14553316  0.28195878  0.75418470  1
  S  S5  1  0.49575629  0.70872593  0.74713487  1
  S  S6  1  0.35340975  0.00201161  0.74509509  1
  S  S7  1  0.48876458  0.33760235  0.58354186  1
  S  S8  1  0.97856780  0.33108517  0.57983449  1
  S  S9  1  0.83105139  0.62818073  0.57989654  1
  S  S10  1  0.48094776  0.63212920  0.08054721  1
  S  S11  1  0.98946213  0.64143771  0.08672301  1
  S  S12  1  0.33013182  0.03416464  0.08112860  1
  S  S13  1  0.30977940  0.66036327  0.91916300  1
  S  S14  1  0.81747746  0.67023422  0.92079500  1
  S  S15  1  0.01886420  0.37075365  0.91764106  1
  S  S16  1  0.66678904  0.95250632  0.91822265  1
  S  S17  1  0.31833956  0.96807923  0.41958776  1
  S  S18  1  0.80899802  0.95885185  0.41867198  1
  S  S19  1  0.16831145  0.37272425  0.41767462  1
  S  S20  1  0.51774260  0.66787430  0.41689084  1
  O  O0  1  0.10386319  0.02091975  0.30442634  1
  O  O1  1  0.60446956  0.02976529  0.30911334  1
  O  O2  1  0.42826938  0.83162648  0.31135393  1
  O  O3  1  0.90710077  0.78252987  0.30061458  1
  O  O4  1  0.49043183  0.18967404  0.31003288  1
  O  O5  1  0.98921794  0.18530615  0.30096586  1
  O  O6  1  0.10535715  0.17897420  0.80937837  1
  O  O7  1  0.60524878  0.18929213  0.81303174  1
  O  O8  1  0.48134408  0.78214725  0.80166197  1
  O  O9  1  0.99286080  0.79144113  0.81003826  1
  O  O10  1  0.39991662  0.02350970  0.80264877  1
  O  O11  1  0.93030747  0.02537960  0.81200096  1
  O  O12  1  0.39941699  0.99072329  0.69333858  1
  O  O13  1  0.91371407  0.97879484  0.68890573  1
  O  O14  1  0.09268103  0.20240853  0.69954095  1
  O  O15  1  0.57353561  0.16626672  0.69153154  1
  O  O16  1  0.02150439  0.82789361  0.69037322  1
  O  O17  1  0.49908723  0.80417636  0.69210699  1
  O  O18  1  0.41231391  0.84402400  0.18897019  1
  O  O19  1  0.90574146  0.81788493  0.19237761  1
  O  O20  1  0.00641690  0.19562663  0.19201052  1
  O  O21  1  0.51705245  0.20914406  0.19048437  1
  O  O22  1  0.08286740  0.98174975  0.19546918  1
  O  O23  1  0.59271366  0.98258197  0.19943460  1
  O  O24  1  0.45039681  0.36300001  0.63862170  1
  O  O25  1  0.94916379  0.37247170  0.63592536  1
  O  O26  1  0.23960657  0.10778054  0.63964084  1
  O  O27  1  0.74710882  0.08811939  0.63849102  1
  O  O28  1  0.30875439  0.53338732  0.64211043  1
  O  O29  1  0.81690617  0.52220301  0.63311245  1
  O  O30  1  0.45306443  0.53355701  0.13775469  1
  O  O31  1  0.95082659  0.53961693  0.14198182  1
  O  O32  1  0.31503588  0.10848169  0.13505554  1
  O  O33  1  0.81131481  0.08438390  0.14416214  1
  O  O34  1  0.24219114  0.39500958  0.14196296  1
  O  O35  1  0.73768029  0.37714550  0.14018075  1
  O  O36  1  0.24054388  0.31018212  0.02656843  1
  O  O37  1  0.71184008  0.29000492  0.02130172  1
  O  O38  1  0.42061248  0.53474826  0.03122869  1
  O  O39  1  0.93329842  0.56364726  0.03431756  1
  O  O40  1  0.34692808  0.14701167  0.02749694  1
  O  O41  1  0.86226515  0.15163030  0.02729914  1
  O  O42  1  0.21249779  0.13655724  0.52137859  1
  O  O43  1  0.73948163  0.16927432  0.52410436  1
  O  O44  1  0.36500505  0.58836699  0.52619614  1
  O  O45  1  0.84874724  0.55116519  0.52521459  1
  O  O46  1  0.43422764  0.31178968  0.53058597  1
  O  O47  1  0.92185224  0.31235960  0.52852148  1
  O  O48  1  0.26640008  0.69222028  0.97093540  1
  O  O49  1  0.77711864  0.69519029  0.97490298  1
  O  O50  1  0.07660693  0.46187464  0.97100724  1
  O  O51  1  0.59310356  0.49533308  0.97076243  1
  O  O52  1  0.14574976  0.82395444  0.97645845  1
  O  O53  1  0.66615470  0.85916619  0.97230401  1
  O  O54  1  0.27632213  0.85915077  0.47245526  1
  O  O55  1  0.76424330  0.84013613  0.46931318  1
  O  O56  1  0.16355490  0.46439363  0.47011256  1
  O  O57  1  0.64607147  0.46881784  0.47474947  1
  O  O58  1  0.09579879  0.69009264  0.46915652  1
  O  O59  1  0.57512424  0.68818106  0.46897960  1
  O  O60  1  0.05164045  0.62155246  0.35408547  1
  O  O61  1  0.55659042  0.65168797  0.36007944  1
  O  O62  1  0.26235839  0.89702914  0.36549116  1
  O  O63  1  0.76323431  0.88908470  0.36149173  1
  O  O64  1  0.17721761  0.46297431  0.36074260  1
  O  O65  1  0.69201507  0.48079758  0.35829017  1
  O  O66  1  0.05983147  0.46658052  0.86179472  1
  O  O67  1  0.54804122  0.47814175  0.85591536  1
  O  O68  1  0.19125683  0.90034405  0.85997303  1
  O  O69  1  0.67468854  0.87351392  0.86277179  1
  O  O70  1  0.26069019  0.63258023  0.86329379  1
  O  O71  1  0.76146472  0.63200747  0.86758949  1
  O  O72  1  0.01445931  0.83117794  0.41941185  1
  O  O73  1  0.50945728  0.82595018  0.41598080  1
  O  O74  1  0.40457016  0.97594948  0.41245887  1
  O  O75  1  0.89870456  0.97887959  0.41783196  1
  O  O76  1  0.08627328  0.19423237  0.41664096  1
  O  O77  1  0.57459143  0.16840810  0.40999033  1
  O  O78  1  0.00973850  0.19597138  0.91701660  1
  O  O79  1  0.50902904  0.19009669  0.92270005  1
  O  O80  1  0.07410343  0.98072234  0.91052647  1
  O  O81  1  0.58434637  0.96401359  0.91920409  1
  O  O82  1  0.39871746  0.81845574  0.91670648  1
  O  O83  1  0.90447515  0.83291424  0.91407573  1
  O  O84  1  0.50186433  0.18539683  0.58666812  1
  O  O85  1  0.98551179  0.17306122  0.58373874  1
  O  O86  1  0.07830065  0.02596374  0.59320898  1
  O  O87  1  0.59263316  0.01116031  0.58545447  1
  O  O88  1  0.42047531  0.85455707  0.59537885  1
  O  O89  1  0.90953989  0.80638361  0.58465464  1
  O  O90  1  0.48632507  0.80364198  0.08572776  1
  O  O91  1  0.00441206  0.82333641  0.09247674  1
  O  O92  1  0.40941196  0.01422292  0.08614257  1
  O  O93  1  0.91639316  0.98593016  0.09090675  1
  O  O94  1  0.09170626  0.16839632  0.08767074  1
  O  O95  1  0.57832572  0.13458335  0.09327306  1
  O  O96  1  0.34519366  0.16353569  0.74338007  1
  O  O97  1  0.86244914  0.17005624  0.75080095  1
  O  O98  1  0.23417794  0.30207581  0.75141363  1
  O  O99  1  0.73640644  0.30385551  0.74510079  1
  O  O100  1  0.42018645  0.52308352  0.74367429  1
  O  O101  1  0.91453404  0.51453338  0.74388381  1
  O  O102  1  0.35662668  0.54736458  0.25123143  1
  O  O103  1  0.84874249  0.53339670  0.24147561  1
  O  O104  1  0.40951666  0.30604044  0.24492271  1
  O  O105  1  0.92033071  0.30801244  0.24275119  1
  O  O106  1  0.22867492  0.15496400  0.24311559  1
  O  O107  1  0.73416347  0.16736393  0.25159631  1
  O  O108  1  0.31831619  0.50327817  0.92719088  1
  O  O109  1  0.82884180  0.51410700  0.92627335  1
  O  O110  1  0.41887028  0.36587179  0.93384592  1
  O  O111  1  0.93383472  0.36557699  0.92305012  1
  O  O112  1  0.24837203  0.15500477  0.92963461  1
  O  O113  1  0.74333298  0.13811304  0.91783069  1
  O  O114  1  0.33025443  0.14662712  0.42551745  1
  O  O115  1  0.81916124  0.13447882  0.42536564  1
  O  O116  1  0.24484777  0.34229204  0.41845251  1
  O  O117  1  0.75044286  0.34584593  0.42884164  1
  O  O118  1  0.43109024  0.50412923  0.42170982  1
  O  O119  1  0.91997127  0.47499642  0.43200721  1
  O  O120  1  0.17308084  0.51660606  0.06587415  1
  O  O121  1  0.65788270  0.48992650  0.07652211  1
  O  O122  1  0.07701492  0.65403485  0.07957290  1
  O  O123  1  0.57144771  0.66086231  0.07104684  1
  O  O124  1  0.25101988  0.85605863  0.07255169  1
  O  O125  1  0.74130485  0.82631288  0.07055622  1
  O  O126  1  0.15633681  0.83085652  0.57739981  1
  O  O127  1  0.67353431  0.82839219  0.56403574  1
  O  O128  1  0.24308093  0.66247272  0.56992615  1
  O  O129  1  0.75113495  0.64413415  0.57099713  1
  O  O130  1  0.07104785  0.48576567  0.57136475  1
  O  O131  1  0.57707830  0.50322577  0.57753721  1
  O  O132  1  0.14337301  0.83655234  0.24778587  1
  O  O133  1  0.65330416  0.84898642  0.25794230  1
  O  O134  1  0.26724820  0.72141166  0.25390487  1
  O  O135  1  0.77136452  0.70118987  0.24672245  1
  O  O136  1  0.07840105  0.46138448  0.24678556  1
  O  O137  1  0.58280300  0.49533404  0.24932633  1
  O  O138  1  0.15265228  0.45665833  0.75817844  1
  O  O139  1  0.63868158  0.46269738  0.74422575  1
  O  O140  1  0.08634696  0.67508000  0.74889046  1
  O  O141  1  0.57816322  0.70187556  0.74847993  1
  O  O142  1  0.26623930  0.83949579  0.74716853  1
  O  O143  1  0.76954870  0.81786650  0.75469125  1
loop_
_geom_bond_atom_site_label_1
_geom_bond_atom_site_label_2
_geom_bond_distance
_geom_bond_site_symmetry_2
Na0 O132 2.305419 1_655
Na0 O103 2.323368 1_555
Na0 O105 2.421732 1_555
Na0 O60 2.434599 1_655
Na0 O136 2.491453 1_655
Na0 O31 2.659590 1_555
Na0 O3 2.775657 1_555
Na1 O102 2.254859 1_555
Na1 O137 2.296081 1_555
Na1 O133 2.382964 1_555
Na1 O104 2.496579 1_555
Na1 O61 2.632368 1_555
Na1 O30 2.673472 1_555
Na2 O97 2.193904 1_455
Na2 O140 2.288186 1_555
Na2 O138 2.378255 1_555
Na2 O101 2.401998 1_455
Na2 O66 2.703648 1_555
Na2 O25 2.704893 1_455
Na3 O139 2.200388 1_555
Na3 O96 2.338870 1_555
Na3 O100 2.406338 1_555
Na3 O67 2.508414 1_555
Na3 O141 2.598918 1_555
Na3 O24 2.705529 1_555
Na3 O10 2.808902 1_555
Na4 O79 2.378710 1_555
Na4 O113 2.482489 1_555
Na4 O37 2.511905 1_556
Na4 O109 2.542410 1_555
Na4 O7 2.561264 1_555
Na4 O81 2.596399 1_545
Na4 O71 2.747774 1_555
Na4 O51 2.813989 1_555
Na5 O42 2.290413 1_555
Na5 O72 2.336183 1_545
Na5 O116 2.480426 1_555
Na5 O114 2.506125 1_555
Na5 O76 2.582306 1_555
Na5 O58 2.669455 1_545
Na5 O62 2.793635 1_545
Na6 O86 2.352558 1_665
Na6 O89 2.390138 1_555
Na6 O85 2.405335 1_565
Na6 O72 2.552151 1_655
Na6 O75 2.598089 1_555
Na6 O76 2.600786 1_665
Na7 O73 2.423503 1_555
Na7 O87 2.442849 1_565
Na7 O88 2.490862 1_555
Na7 O77 2.514927 1_565
Na7 O74 2.577056 1_555
Na7 O84 2.605088 1_565
Na8 O78 2.363666 1_655
Na8 O80 2.428532 1_645
Na8 O83 2.462926 1_545
Na8 O93 2.514981 1_546
Na8 O94 2.550515 1_656
Na8 O91 2.751637 1_646
Na9 O95 2.384816 1_555
Na9 O79 2.411652 1_554
Na9 O90 2.474599 1_545
Na9 O92 2.485517 1_555
Na9 O81 2.524431 1_544
Na9 O82 2.601015 1_544
Na10 O112 2.462859 1_555
Na10 O98 2.524610 1_555
Na10 O110 2.577930 1_555
Na10 O108 2.630600 1_555
Na10 O96 2.643260 1_555
Na10 O100 2.760913 1_555
Na11 O99 2.345195 1_555
Na11 O101 2.389963 1_555
Na11 O97 2.407268 1_555
Na11 O113 2.641382 1_555
Na11 O111 2.806911 1_555
Na11 O109 2.831023 1_555
Na12 O104 2.390809 1_555
Na12 O102 2.428346 1_555
Na12 O118 2.526853 1_555
Na12 O116 2.585892 1_555
Na12 O106 2.708981 1_555
Na12 O114 2.717351 1_555
Na13 O117 2.357650 1_555
Na13 O107 2.514073 1_555
Na13 O115 2.536002 1_555
Na13 O119 2.557147 1_555
Na13 O103 2.773339 1_555
Na13 O105 2.890882 1_555
Na14 O134 2.394417 1_555
Na14 O120 2.478428 1_555
Na14 O124 2.515884 1_555
Na14 O136 2.640151 1_555
Na14 O122 2.668556 1_555
Na14 O132 2.791970 1_555
Na14 O34 3.002633 1_555
Na15 O121 2.355736 1_555
Na15 O137 2.433379 1_555
Na15 O135 2.479671 1_555
Na15 O125 2.504279 1_555
Na15 O123 2.725160 1_555
Na15 O133 2.863347 1_555
Na16 O142 2.380770 1_555
Na16 O140 2.383887 1_555
Na16 O126 2.411417 1_555
Na16 O128 2.538117 1_555
Na16 O130 2.770767 1_555
Na16 O138 2.848020 1_555
Na17 O143 2.368753 1_555
Na17 O139 2.464802 1_555
Na17 O129 2.616878 1_555
Na17 O141 2.619258 1_555
Na17 O127 2.674995 1_555
Na17 O131 2.707873 1_555
In0 O72 2.097557 1_655
In0 O3 2.108090 1_555
In0 O75 2.123719 1_555
In0 O0 2.157104 1_665
In0 O76 2.184706 1_665
In0 O5 2.213651 1_565
In1 O7 2.006764 1_555
In1 O79 2.135765 1_555
In1 O10 2.139359 1_555
In1 O82 2.177586 1_545
In1 O8 2.228202 1_545
In1 O81 2.274750 1_545
In2 O26 2.004448 1_555
In2 O28 2.021349 1_555
In2 O98 2.213755 1_555
In2 O100 2.236009 1_555
In2 O24 2.282220 1_555
In2 O96 2.316195 1_555
In3 O99 2.027871 1_555
In3 O27 2.044680 1_555
In3 O101 2.121759 1_555
In3 O97 2.144876 1_555
In3 O25 2.253041 1_555
In3 O29 2.349159 1_555
In4 O34 2.039477 1_555
In4 O104 2.103947 1_555
In4 O102 2.147715 1_555
In4 O30 2.174219 1_555
In4 O106 2.211715 1_555
In4 O32 2.312665 1_555
In5 O35 1.999027 1_555
In5 O33 2.009001 1_555
In5 O107 2.215545 1_555
In5 O31 2.295493 1_555
In5 O105 2.331433 1_555
In5 O103 2.344525 1_555
In6 O41 2.008550 1_556
In6 O37 2.064825 1_556
In6 O113 2.234138 1_555
In6 O111 2.248685 1_555
In6 O109 2.256870 1_555
In6 O39 2.258056 1_556
In7 O44 2.012330 1_555
In7 O42 2.072677 1_555
In7 O46 2.169312 1_555
In7 O116 2.254179 1_555
In7 O118 2.272611 1_555
In7 O114 2.356435 1_555
In8 O134 2.059113 1_555
In8 O60 2.094799 1_555
In8 O64 2.126812 1_555
In8 O62 2.157930 1_555
In8 O136 2.321931 1_555
In8 O132 2.344972 1_555
In9 O65 1.992350 1_555
In9 O137 2.061716 1_555
In9 O63 2.189923 1_555
In9 O61 2.192710 1_555
In9 O135 2.258894 1_555
In9 O133 2.299939 1_555
In10 O68 1.988121 1_555
In10 O140 2.048429 1_555
In10 O142 2.175893 1_555
In10 O70 2.188905 1_555
In10 O66 2.192246 1_555
In10 O138 2.298881 1_555
In11 O143 2.076681 1_555
In11 O139 2.119038 1_555
In11 O67 2.122941 1_555
In11 O71 2.185516 1_555
In11 O69 2.206622 1_555
In11 O141 2.287842 1_555
Ge0 O4 1.760112 1_555
Ge0 O2 1.799121 1_545
Ge0 O77 1.833335 1_555
Ge0 O1 2.038093 1_555
Ge0 O74 2.056690 1_545
Ge0 O73 2.392488 1_545
Ge1 O9 1.750890 1_455
Ge1 O11 1.774369 1_465
Ge1 O80 1.841132 1_555
Ge1 O6 2.020078 1_565
Ge1 O83 2.109710 1_455
Ge1 O78 2.448340 1_565
Ge2 O16 1.738082 1_555
Ge2 O13 1.750694 1_455
Ge2 O86 1.790496 1_565
Ge2 O14 2.099469 1_565
Ge2 O89 2.192298 1_455
Ge2 O85 2.448998 1_465
Ge3 O15 1.756428 1_565
Ge3 O88 1.791915 1_555
Ge3 O87 1.806550 1_565
Ge3 O17 1.981776 1_555
Ge3 O84 2.135142 1_565
Ge3 O12 2.310643 1_555
Ge4 O93 1.768909 1_445
Ge4 O94 1.792351 1_555
Ge4 O20 1.977781 1_555
Ge4 O91 1.994137 1_545
Ge4 O22 2.046821 1_545
Ge4 O19 2.161495 1_445
Ge5 O21 1.748696 1_555
Ge5 O18 1.771341 1_545
Ge5 O95 1.784488 1_555
Ge5 O92 2.123136 1_555
Ge5 O23 2.147829 1_545
Ge5 O90 2.348459 1_545
Ge6 O112 1.788975 1_555
Ge6 O36 1.790746 1_556
Ge6 O110 1.809747 1_555
Ge6 O40 1.995415 1_556
Ge6 O108 2.114485 1_555
Ge6 O38 2.150325 1_556
Ge7 O43 1.781968 1_555
Ge7 O117 1.801957 1_555
Ge7 O119 1.848767 1_555
Ge7 O45 1.945184 1_555
Ge7 O47 2.108445 1_555
Ge7 O115 2.179149 1_555
Ge8 O52 1.795060 1_554
Ge8 O120 1.821809 1_555
Ge8 O50 1.921796 1_554
Ge8 O48 1.966632 1_554
Ge8 O122 2.070375 1_555
Ge8 O124 2.089834 1_555
Ge9 O51 1.772323 1_554
Ge9 O125 1.798552 1_555
Ge9 O121 1.806364 1_555
Ge9 O123 1.989274 1_555
Ge9 O49 2.115525 1_554
Ge9 O53 2.162901 1_554
Ge10 O128 1.782737 1_555
Ge10 O126 1.784720 1_555
Ge10 O58 1.791083 1_555
Ge10 O130 1.915980 1_555
Ge10 O54 2.209338 1_555
Ge10 O56 2.305255 1_555
Ge11 O127 1.783604 1_555
Ge11 O57 1.795850 1_555
Ge11 O131 1.962837 1_555
Ge11 O59 1.986447 1_555
Ge11 O55 2.023027 1_555
Ge11 O129 2.046779 1_555
O0 S0 1.484537 1_555
O1 S1 1.489987 1_555
O2 Si0 1.676442 1_555
O3 S2 1.496357 1_555
O4 Si1 1.625275 1_555
O5 S3 1.470414 1_555
O6 S4 1.488681 1_555
O7 Si2 1.629892 1_555
O8 S5 1.466746 1_555
O9 Si3 1.628859 1_655
O10 S6 1.492895 1_555
O11 Si4 1.686175 1_545
O12 S6 1.447410 1_565
O13 Si4 1.687282 1_555
O14 S4 1.488015 1_555
O15 Si2 1.675648 1_555
O16 Si3 1.621348 1_555
O17 S5 1.481884 1_555
O18 Si0 1.676240 1_555
O19 S2 1.465271 1_555
O20 S3 1.487025 1_455
O21 Si1 1.616954 1_555
O22 S0 1.489625 1_565
O23 S1 1.484343 1_565
O24 S7 1.479047 1_555
O25 S8 1.476062 1_555
O26 Si5 1.599695 1_555
O27 Si6 1.593088 1_555
O28 Si7 1.606509 1_555
O29 S9 1.461043 1_555
O30 S10 1.490448 1_555
O31 S11 1.481804 1_555
O32 S12 1.464513 1_555
O33 Si8 1.612586 1_555
O34 Si9 1.599451 1_555
O35 Si10 1.606773 1_555
O36 Si9 1.625637 1_555
O37 Si10 1.627789 1_555
O38 S10 1.476476 1_555
O39 S11 1.468731 1_555
O40 S12 1.495770 1_555
O41 Si8 1.607360 1_555
O42 Si5 1.631988 1_555
O43 Si6 1.633799 1_555
O44 Si7 1.615394 1_555
O45 S9 1.510507 1_555
O46 S7 1.474583 1_555
O47 S8 1.480515 1_555
O48 S13 1.492338 1_555
O49 S14 1.478329 1_555
O50 S15 1.516620 1_555
O51 Si11 1.651116 1_555
O52 Si12 1.679242 1_555
O53 S16 1.466297 1_555
O54 S17 1.471413 1_555
O55 S18 1.476515 1_555
O56 S19 1.455799 1_555
O57 Si13 1.670514 1_555
O58 Si14 1.654679 1_555
O59 S20 1.498266 1_555
O60 Si14 1.643889 1_555
O61 S20 1.487704 1_555
O62 S17 1.491734 1_555
O63 S18 1.478478 1_555
O64 S19 1.474234 1_555
O65 Si13 1.595669 1_555
O66 S15 1.481483 1_555
O67 Si11 1.630768 1_555
O68 Si12 1.590431 1_555
O69 S16 1.468635 1_555
O70 S13 1.474968 1_555
O71 S14 1.478382 1_555
O72 Si14 1.656287 1_555
O73 S20 1.473071 1_555
O74 S17 1.488856 1_555
O75 S18 1.494302 1_555
O76 S19 1.506789 1_555
O77 Si13 1.687000 1_555
O78 S15 1.467528 1_555
O79 Si11 1.649255 1_555
O80 Si12 1.684758 1_555
O81 S16 1.501596 1_555
O82 S13 1.480883 1_555
O83 S14 1.485604 1_555
O84 S7 1.473556 1_555
O85 S8 1.461726 1_555
O86 Si5 1.686828 1_555
O87 Si6 1.662722 1_555
O88 Si7 1.667990 1_555
O89 S9 1.483376 1_555
O90 S10 1.472086 1_555
O91 S11 1.495158 1_455
O92 S12 1.493157 1_555
O93 Si8 1.667464 1_565
O94 Si9 1.675101 1_555
O95 Si10 1.690905 1_555
O96 S6 1.503043 1_555
O97 Si4 1.612413 1_545
O98 S4 1.476518 1_555
O99 Si2 1.584957 1_555
O100 S5 1.503386 1_555
O101 Si3 1.600002 1_655
O102 Si0 1.625570 1_555
O103 S2 1.494849 1_555
O104 Si1 1.621507 1_555
O105 S3 1.488349 1_555
O106 S0 1.457758 1_555
O107 S1 1.481667 1_555
O108 S13 1.477954 1_555
O109 S14 1.492797 1_555
O110 Si11 1.661526 1_555
O111 S15 1.475501 1_655
O112 Si12 1.630349 1_545
O113 S16 1.506860 1_545
O114 S17 1.486524 1_545
O115 S18 1.475000 1_545
O116 S19 1.497469 1_555
O117 Si13 1.635015 1_555
O118 S20 1.482940 1_555
O119 Si14 1.646527 1_655
O120 Si9 1.679691 1_555
O121 Si10 1.634152 1_555
O122 S11 1.492994 1_455
O123 S10 1.492825 1_555
O124 S12 1.496039 1_565
O125 Si8 1.650635 1_565
O126 Si5 1.629169 1_565
O127 Si6 1.678168 1_565
O128 Si7 1.673179 1_555
O129 S9 1.493270 1_555
O130 S8 1.517353 1_455
O131 S7 1.508271 1_555
O132 S0 1.489634 1_565
O133 S1 1.486508 1_565
O134 Si0 1.622889 1_555
O135 S2 1.470626 1_555
O136 S3 1.492358 1_455
O137 Si1 1.645007 1_555
O138 S4 1.484574 1_555
O139 Si2 1.641475 1_555
O140 Si3 1.638698 1_555
O141 S5 1.478916 1_555
O142 S6 1.479853 1_565
O143 Si4 1.605203 1_555
