# generated using pymatgen
data_NaTaCl6
_symmetry_space_group_name_H-M   'P 1'
_cell_length_a   6.90728656
_cell_length_b   6.46103936
_cell_length_c   19.22184359
_cell_angle_alpha   88.37225246
_cell_angle_beta   90.00000000
_cell_angle_gamma   90.00000000
_symmetry_Int_Tables_number   1
_chemical_formula_structural   NaTaCl6
_chemical_formula_sum   'Na4 Ta4 Cl24'
_cell_volume   857.49108909
_cell_formula_units_Z   4
loop_
 _symmetry_equiv_pos_site_id
 _symmetry_equiv_pos_as_xyz
  1  'x, y, z'
loop_
 _atom_site_type_symbol
 _atom_site_label
 _atom_site_symmetry_multiplicity
 _atom_site_fract_x
 _atom_site_fract_y
 _atom_site_fract_z
 _atom_site_occupancy
  Na  Na0  1  0.80902001  0.20665018  0.74620710  1
  Na  Na1  1  0.30902001  0.79334982  0.75379290  1
  Na  Na2  1  0.19097999  0.79334982  0.25379290  1
  Na  Na3  1  0.69097999  0.20665018  0.24620710  1
  Ta  Ta0  1  0.71583163  0.74220930  0.61655989  1
  Ta  Ta1  1  0.21583163  0.25779070  0.88344011  1
  Ta  Ta2  1  0.28416837  0.25779070  0.38344011  1
  Ta  Ta3  1  0.78416837  0.74220930  0.11655989  1
  Cl  Cl0  1  0.81881024  0.61637122  0.23857075  1
  Cl  Cl1  1  0.31881024  0.38362878  0.26142925  1
  Cl  Cl2  1  0.18118976  0.38362878  0.76142925  1
  Cl  Cl3  1  0.68118976  0.61637122  0.73857075  1
  Cl  Cl4  1  0.60400589  0.45081710  0.09495104  1
  Cl  Cl5  1  0.10400589  0.54918290  0.40504896  1
  Cl  Cl6  1  0.39599411  0.54918290  0.90504896  1
  Cl  Cl7  1  0.89599411  0.45081710  0.59495104  1
  Cl  Cl8  1  0.49671501  0.91817308  0.15660499  1
  Cl  Cl9  1  0.99671501  0.08182692  0.34339501  1
  Cl  Cl10  1  0.50328499  0.08182692  0.84339501  1
  Cl  Cl11  1  0.00328499  0.91817308  0.65660499  1
  Cl  Cl12  1  0.74603983  0.88873851  0.00830244  1
  Cl  Cl13  1  0.24603983  0.11126149  0.49169756  1
  Cl  Cl14  1  0.25396017  0.11126149  0.99169756  1
  Cl  Cl15  1  0.75396017  0.88873851  0.50830244  1
  Cl  Cl16  1  0.96354708  0.04093534  0.15529098  1
  Cl  Cl17  1  0.46354708  0.95906466  0.34470902  1
  Cl  Cl18  1  0.03645292  0.95906466  0.84470902  1
  Cl  Cl19  1  0.53645292  0.04093534  0.65529098  1
  Cl  Cl20  1  0.07526697  0.58687683  0.09183340  1
  Cl  Cl21  1  0.57526697  0.41312317  0.40816660  1
  Cl  Cl22  1  0.92473303  0.41312317  0.90816660  1
  Cl  Cl23  1  0.42473303  0.58687683  0.59183340  1
loop_
_geom_bond_atom_site_label_1
_geom_bond_atom_site_label_2
_geom_bond_distance
_geom_bond_site_symmetry_2
Cl0 Ta3 2.471897 1_555
Cl0 Na3 2.790499 1_555
Cl0 Na2 2.832057 1_655
Cl1 Ta2 2.471897 1_555
Cl1 Na2 2.790499 1_555
Cl1 Na3 2.832057 1_555
Cl2 Ta1 2.471897 1_555
Cl2 Na1 2.790499 1_555
Cl2 Na0 2.832057 1_455
Cl3 Ta0 2.471897 1_555
Cl3 Na0 2.790499 1_555
Cl3 Na1 2.832057 1_555
Cl4 Ta3 2.304368 1_555
Cl5 Ta2 2.304368 1_555
Cl6 Ta1 2.304368 1_555
Cl7 Ta0 2.304368 1_555
Cl8 Ta3 2.424269 1_555
Cl8 Na3 2.902289 1_565
Cl8 Na2 2.917951 1_555
Cl9 Ta2 2.424269 1_655
Cl9 Na2 2.902289 1_645
Cl9 Na3 2.917951 1_555
Cl10 Ta1 2.424269 1_555
Cl10 Na1 2.902289 1_545
Cl10 Na0 2.917951 1_555
Cl11 Ta0 2.424269 1_455
Cl11 Na0 2.902289 1_465
Cl11 Na1 2.917951 1_555
Cl12 Ta3 2.276821 1_555
Cl13 Ta2 2.276821 1_555
Cl14 Ta1 2.276821 1_555
Cl15 Ta0 2.276821 1_555
Cl16 Ta3 2.428224 1_545
Cl16 Na3 2.802009 1_555
Cl16 Na2 2.905104 1_645
Cl17 Ta2 2.428224 1_565
Cl17 Na2 2.802009 1_555
Cl17 Na3 2.905104 1_565
Cl18 Ta1 2.428224 1_565
Cl18 Na1 2.802009 1_555
Cl18 Na0 2.905104 1_465
Cl19 Ta0 2.428224 1_545
Cl19 Na0 2.802009 1_555
Cl19 Na1 2.905104 1_545
Cl20 Ta3 2.302857 1_455
Cl21 Ta2 2.302857 1_555
Cl22 Ta1 2.302857 1_655
Cl23 Ta0 2.302857 1_555
