# generated using pymatgen
data_Pr4As3
_symmetry_space_group_name_H-M   'P 1'
_cell_length_a   7.88325884
_cell_length_b   7.88325863
_cell_length_c   7.88325848
_cell_angle_alpha   109.47122028
_cell_angle_beta   109.47121974
_cell_angle_gamma   109.47122203
_symmetry_Int_Tables_number   1
_chemical_formula_structural   Pr4As3
_chemical_formula_sum   'Pr8 As6'
_cell_volume   377.13378196
_cell_formula_units_Z   2
loop_
 _symmetry_equiv_pos_site_id
 _symmetry_equiv_pos_as_xyz
  1  'x, y, z'
loop_
 _atom_site_type_symbol
 _atom_site_label
 _atom_site_symmetry_multiplicity
 _atom_site_fract_x
 _atom_site_fract_y
 _atom_site_fract_z
 _atom_site_occupancy
  Pr  Pr0  1  0.13261452  0.13261452  0.13261452  1
  Pr  Pr1  1  0.86738548  0.50000000  -0.00000000  1
  Pr  Pr2  1  0.00000000  0.86738548  0.50000000  1
  Pr  Pr3  1  0.50000000  0.00000000  0.86738548  1
  Pr  Pr4  1  0.00000000  0.36738548  0.50000000  1
  Pr  Pr5  1  0.50000000  0.00000000  0.36738548  1
  Pr  Pr6  1  0.36738548  0.50000000  -0.00000000  1
  Pr  Pr7  1  0.63261452  0.63261452  0.63261452  1
  As  As0  1  0.25000000  0.62500000  0.37500000  1
  As  As1  1  0.37500000  0.25000000  0.62500000  1
  As  As2  1  0.12500000  0.75000000  0.87500000  1
  As  As3  1  0.87500000  0.12500000  0.75000000  1
  As  As4  1  0.62500000  0.37500000  0.25000000  1
  As  As5  1  0.75000000  0.87500000  0.12500000  1
loop_
_geom_bond_atom_site_label_1
_geom_bond_atom_site_label_2
_geom_bond_distance
_geom_bond_site_symmetry_2
As0 Pr4 2.989987 1_555
As0 Pr5 2.989987 1_565
As0 Pr1 2.989987 1_455
As0 Pr7 2.989987 1_555
As0 Pr3 3.325089 1_565
As0 Pr6 3.325089 1_555
As0 Pr0 3.325089 1_555
As0 Pr2 3.325089 1_555
As1 Pr6 2.989987 1_556
As1 Pr7 2.989987 1_555
As1 Pr2 2.989987 1_545
As1 Pr5 2.989987 1_555
As1 Pr0 3.325089 1_555
As1 Pr3 3.325089 1_555
As1 Pr1 3.325089 1_556
As1 Pr4 3.325089 1_555
As2 Pr4 2.989987 1_555
As2 Pr1 2.989987 1_456
As2 Pr0 2.989987 1_566
As2 Pr3 2.989987 1_565
As2 Pr2 3.325089 1_555
As2 Pr5 3.325089 1_566
As2 Pr6 3.325089 1_556
As2 Pr7 3.325089 1_455
As3 Pr1 2.989987 1_556
As3 Pr0 2.989987 1_656
As3 Pr2 2.989987 1_645
As3 Pr5 2.989987 1_555
As3 Pr4 3.325089 1_655
As3 Pr7 3.325089 1_545
As3 Pr3 3.325089 1_555
As3 Pr6 3.325089 1_656
As4 Pr7 2.989987 1_555
As4 Pr3 2.989987 1_554
As4 Pr6 2.989987 1_555
As4 Pr4 2.989987 1_655
As4 Pr5 3.325089 1_555
As4 Pr1 3.325089 1_555
As4 Pr2 3.325089 1_655
As4 Pr0 3.325089 1_555
As5 Pr2 2.989987 1_655
As5 Pr6 2.989987 1_555
As5 Pr0 2.989987 1_665
As5 Pr3 2.989987 1_564
As5 Pr7 3.325089 1_554
As5 Pr4 3.325089 1_665
As5 Pr5 3.325089 1_565
As5 Pr1 3.325089 1_555
