# generated using pymatgen
data_Na4TaGa3(PO4)6
_symmetry_space_group_name_H-M   'P 1'
_cell_length_a   8.68132129
_cell_length_b   8.67400048
_cell_length_c   22.14433915
_cell_angle_alpha   89.97939046
_cell_angle_beta   90.09242450
_cell_angle_gamma   119.97642725
_symmetry_Int_Tables_number   1
_chemical_formula_structural   Na4TaGa3(PO4)6
_chemical_formula_sum   'Na12 Ta3 Ga9 P18 O72'
_cell_volume   1444.44535125
_cell_formula_units_Z   3
loop_
 _symmetry_equiv_pos_site_id
 _symmetry_equiv_pos_as_xyz
  1  'x, y, z'
loop_
 _atom_site_type_symbol
 _atom_site_label
 _atom_site_symmetry_multiplicity
 _atom_site_fract_x
 _atom_site_fract_y
 _atom_site_fract_z
 _atom_site_occupancy
  Na  Na0  1  0.63397884  0.99978369  0.25057067  1
  Na  Na1  1  0.36504361  0.36553398  0.25056120  1
  Na  Na2  1  0.00025062  0.63464763  0.25018928  1
  Na  Na3  1  0.29909426  0.33180480  0.58550658  1
  Na  Na4  1  0.03451397  0.69972976  0.58532720  1
  Na  Na5  1  0.66618733  0.70086459  0.08247956  1
  Na  Na6  1  0.99131144  0.99904176  0.49762509  1
  Na  Na7  1  0.00852556  0.00768719  0.99703532  1
  Na  Na8  1  0.66684835  0.33316031  0.82714254  1
  Na  Na9  1  0.66650467  0.33293753  0.33324054  1
  Na  Na10  1  0.32461149  0.66593417  0.16288152  1
  Na  Na11  1  0.34336996  0.67559255  0.66542642  1
  Ta  Ta0  1  0.66603622  0.33167455  0.97748929  1
  Ta  Ta1  1  0.66754680  0.33275724  0.47804918  1
  Ta  Ta2  1  0.33273489  0.66658771  0.80989483  1
  Ga  Ga0  1  0.00053652  0.00064853  0.35361727  1
  Ga  Ga1  1  0.99965792  0.00022232  0.85082700  1
  Ga  Ga2  1  0.99319597  0.99938895  0.65170570  1
  Ga  Ga3  1  0.00647394  0.00564893  0.14708736  1
  Ga  Ga4  1  0.66618408  0.33151638  0.68801907  1
  Ga  Ga5  1  0.66737159  0.33235377  0.18138427  1
  Ga  Ga6  1  0.32686010  0.66598925  0.01745504  1
  Ga  Ga7  1  0.34002523  0.67262594  0.51590627  1
  Ga  Ga8  1  0.33342235  0.66712348  0.31867128  1
  P  P0  1  0.28842022  0.99989805  0.25019800  1
  P  P1  1  0.71086817  0.71081813  0.24958223  1
  P  P2  1  0.00012129  0.28882542  0.25025159  1
  P  P3  1  0.28967630  0.28167255  0.74930661  1
  P  P4  1  0.99191614  0.71064198  0.74917113  1
  P  P5  1  0.71836549  0.00768050  0.75010670  1
  P  P6  1  0.95634633  0.33025061  0.58543219  1
  P  P7  1  0.37812234  0.03993393  0.58544384  1
  P  P8  1  0.66558274  0.62680137  0.58523760  1
  P  P9  1  0.96380191  0.62654087  0.08510739  1
  P  P10  1  0.66598210  0.03977608  0.08511709  1
  P  P11  1  0.37061402  0.33115341  0.08461738  1
  P  P12  1  0.62647607  0.67570582  0.91821632  1
  P  P13  1  0.04946967  0.37360559  0.91753770  1
  P  P14  1  0.32376737  0.95048814  0.91738315  1
  P  P15  1  0.62548739  0.95133701  0.41532144  1
  P  P16  1  0.32628684  0.37509786  0.41627911  1
  P  P17  1  0.04871041  0.67393040  0.41613502  1
  O  O0  1  0.21003637  0.04112606  0.30593304  1
  O  O1  1  0.83223423  0.79237027  0.30470943  1
  O  O2  1  0.95920581  0.16913146  0.30592754  1
  O  O3  1  0.20524518  0.17239067  0.80544387  1
  O  O4  1  0.96697586  0.79477304  0.80546801  1
  O  O5  1  0.82618802  0.03382219  0.80698810  1
  O  O6  1  0.78680743  0.96194787  0.69267616  1
  O  O7  1  0.17922011  0.21416534  0.69023251  1
  O  O8  1  0.03530738  0.82163222  0.69024261  1
  O  O9  1  0.78626187  0.82532157  0.19173127  1
  O  O10  1  0.04107762  0.21107223  0.19396822  1
  O  O11  1  0.16916867  0.95838385  0.19392139  1
  O  O12  1  0.87403478  0.37256392  0.63906304  1
  O  O13  1  0.49407260  0.12661160  0.64015480  1
  O  O14  1  0.62674783  0.50306919  0.63919457  1
  O  O15  1  0.88158946  0.51503469  0.14301681  1
  O  O16  1  0.63379129  0.11927678  0.14281140  1
  O  O17  1  0.48972907  0.37127449  0.14183702  1
  O  O18  1  0.46834089  0.30581188  0.02917884  1
  O  O19  1  0.83565788  0.53195228  0.02999236  1
  O  O20  1  0.69329129  0.16229664  0.02958940  1
  O  O21  1  0.46694122  0.16251049  0.52833979  1
  O  O22  1  0.69780560  0.53540950  0.52814903  1
  O  O23  1  0.83894123  0.30445416  0.52781545  1
  O  O24  1  0.54432723  0.69849265  0.97647737  1
  O  O25  1  0.15927207  0.45800492  0.97421045  1
  O  O26  1  0.30022386  0.84210935  0.97418328  1
  O  O27  1  0.54096872  0.84059278  0.47185461  1
  O  O28  1  0.30141662  0.45763021  0.47432673  1
  O  O29  1  0.15529091  0.69764899  0.47437097  1
  O  O30  1  0.12075393  0.63254411  0.35854012  1
  O  O31  1  0.51342808  0.88181114  0.35711725  1
  O  O32  1  0.36775144  0.48852018  0.35855929  1
  O  O33  1  0.13234630  0.49561409  0.86140914  1
  O  O34  1  0.36253728  0.86742728  0.86131997  1
  O  O35  1  0.50295032  0.63764251  0.86264760  1
  O  O36  1  0.02321465  0.83539363  0.41035455  1
  O  O37  1  0.81244550  0.97709464  0.40987440  1
  O  O38  1  0.16485100  0.18827827  0.41051310  1
  O  O39  1  0.02264910  0.18841426  0.90967956  1
  O  O40  1  0.16564154  0.97768277  0.90950481  1
  O  O41  1  0.81141741  0.83411426  0.91018214  1
  O  O42  1  0.97828839  0.16510862  0.58884665  1
  O  O43  1  0.19211309  0.02563646  0.58801816  1
  O  O44  1  0.83849004  0.80791697  0.58870409  1
  O  O45  1  0.96809385  0.80660355  0.08881267  1
  O  O46  1  0.83411993  0.02200588  0.08876431  1
  O  O47  1  0.19003814  0.16167129  0.08866629  1
  O  O48  1  0.68976380  0.16772886  0.74380961  1
  O  O49  1  0.47858718  0.31111806  0.74357900  1
  O  O50  1  0.83219066  0.52182854  0.74322216  1
  O  O51  1  0.68853989  0.52085474  0.24368556  1
  O  O52  1  0.83260879  0.31097735  0.24373167  1
  O  O53  1  0.47785878  0.16743188  0.24348251  1
  O  O54  1  0.63952825  0.50062208  0.92427979  1
  O  O55  1  0.86176278  0.36094812  0.92444326  1
  O  O56  1  0.49892938  0.13835594  0.92395596  1
  O  O57  1  0.64191444  0.14055857  0.42371323  1
  O  O58  1  0.49876608  0.35809869  0.42406524  1
  O  O59  1  0.85924833  0.50140772  0.42364943  1
  O  O60  1  0.36186953  0.50322284  0.07680761  1
  O  O61  1  0.14557902  0.64256840  0.07713313  1
  O  O62  1  0.50159200  0.85323331  0.07730262  1
  O  O63  1  0.35158804  0.85169841  0.57671328  1
  O  O64  1  0.49579555  0.63888118  0.57594144  1
  O  O65  1  0.14286417  0.49885038  0.57661175  1
  O  O66  1  0.31057455  0.83248650  0.25653400  1
  O  O67  1  0.52180055  0.68915329  0.25622463  1
  O  O68  1  0.16732257  0.47841243  0.25666927  1
  O  O69  1  0.30847545  0.47314183  0.75738983  1
  O  O70  1  0.16451751  0.69189856  0.75722770  1
  O  O71  1  0.52672213  0.83534739  0.75796713  1
loop_
_geom_bond_atom_site_label_1
_geom_bond_atom_site_label_2
_geom_bond_distance
_geom_bond_site_symmetry_2
Na0 O67 2.366847 1_555
Na0 O52 2.373154 1_565
Na0 O66 2.436289 1_555
Na0 O53 2.438202 1_565
Na0 O31 2.577836 1_555
Na0 O16 2.601619 1_565
Na0 O2 2.734545 1_565
Na0 O9 2.782374 1_555
Na1 O68 2.367175 1_555
Na1 O53 2.370412 1_555
Na1 O67 2.435102 1_555
Na1 O51 2.438356 1_555
Na1 O32 2.614319 1_555
Na1 O17 2.631590 1_555
Na1 O0 2.729722 1_555
Na1 O10 2.738594 1_555
Na2 O66 2.366748 1_555
Na2 O51 2.376450 1_455
Na2 O68 2.433957 1_555
Na2 O52 2.436647 1_455
Na2 O15 2.587638 1_455
Na2 O30 2.619652 1_555
Na2 O1 2.730885 1_455
Na2 O11 2.734370 1_555
Na3 O43 2.335332 1_555
Na3 O64 2.347577 1_555
Na3 O42 2.414338 1_455
Na3 O65 2.437313 1_555
Na3 O7 2.539156 1_555
Na3 O28 2.688733 1_555
Na3 O14 2.734788 1_555
Na3 O21 2.833314 1_555
Na4 O44 2.319144 1_455
Na4 O65 2.365735 1_555
Na4 O63 2.393023 1_555
Na4 O43 2.449858 1_565
Na4 O8 2.551506 1_555
Na4 O29 2.676573 1_555
Na4 O12 2.731731 1_455
Na4 O22 2.829329 1_455
Na5 O45 2.308028 1_555
Na5 O60 2.325404 1_555
Na5 O62 2.384991 1_555
Na5 O46 2.417791 1_565
Na5 O24 2.569029 1_554
Na5 O9 2.640888 1_555
Na5 O19 2.796938 1_555
Na5 O17 2.806238 1_555
Na6 O37 2.432796 1_555
Na6 O38 2.494224 1_665
Na6 O36 2.494584 1_655
Na6 O42 2.516715 1_565
Na6 O44 2.526791 1_555
Na6 O43 2.585741 1_665
Na7 O39 2.453781 1_555
Na7 O40 2.459433 1_545
Na7 O47 2.504546 1_556
Na7 O41 2.512160 1_445
Na7 O46 2.575256 1_456
Na7 O45 2.585314 1_446
Na8 O48 2.406728 1_555
Na8 O49 2.410418 1_555
Na8 O50 2.418900 1_555
Na8 O56 2.668790 1_555
Na8 O54 2.672326 1_555
Na8 O55 2.673005 1_555
Na9 O51 2.512690 1_555
Na9 O52 2.515633 1_555
Na9 O53 2.517106 1_555
Na9 O57 2.546951 1_555
Na9 O59 2.547806 1_555
Na9 O58 2.557463 1_555
Na10 O61 2.395477 1_555
Na10 O62 2.470673 1_555
Na10 O60 2.487906 1_555
Na10 O66 2.565497 1_555
Na10 O68 2.571163 1_555
Na10 O67 2.624494 1_555
Na11 O63 2.467205 1_555
Na11 O64 2.491801 1_555
Na11 O71 2.537847 1_555
Na11 O65 2.563733 1_555
Na11 O69 2.605867 1_555
Na11 O70 2.606385 1_555
Ga0 O2 1.975198 1_455
Ga0 O0 1.978356 1_555
Ga0 O1 1.982456 1_445
Ga0 O37 1.983180 1_445
Ga0 O38 1.986636 1_555
Ga0 O36 1.987947 1_545
Ga1 O5 1.931038 1_555
Ga1 O4 1.939146 1_545
Ga1 O3 1.940836 1_655
Ga1 O39 2.019422 1_655
Ga1 O40 2.019472 1_645
Ga1 O41 2.031449 1_545
Ga2 O6 1.887442 1_555
Ga2 O7 1.948540 1_665
Ga2 O8 1.949503 1_655
Ga2 O42 2.050484 1_565
Ga2 O44 2.067645 1_555
Ga2 O43 2.153518 1_665
Ga3 O10 1.951507 1_555
Ga3 O11 1.952479 1_545
Ga3 O47 1.973562 1_555
Ga3 O9 2.023740 1_445
Ga3 O46 2.032913 1_455
Ga3 O45 2.045122 1_445
Ga4 O13 1.964026 1_555
Ga4 O48 1.968535 1_555
Ga4 O50 1.978576 1_555
Ga4 O49 1.978812 1_555
Ga4 O12 1.980404 1_555
Ga4 O14 2.001798 1_555
Ga5 O16 1.921579 1_555
Ga5 O15 1.936647 1_555
Ga5 O17 1.942909 1_555
Ga5 O52 2.063369 1_555
Ga5 O53 2.073201 1_555
Ga5 O51 2.076315 1_555
Ga6 O26 1.912240 1_554
Ga6 O25 1.913707 1_554
Ga6 O24 1.985078 1_554
Ga6 O61 1.987830 1_555
Ga6 O62 2.056305 1_555
Ga6 O60 2.058948 1_555
Ga7 O27 1.892645 1_555
Ga7 O29 1.951412 1_555
Ga7 O28 1.952820 1_555
Ga7 O64 2.017730 1_555
Ga7 O63 2.020185 1_555
Ga7 O65 2.106325 1_555
Ga8 O31 1.929633 1_555
Ga8 O32 1.930957 1_555
Ga8 O30 1.931252 1_555
Ga8 O66 2.066900 1_555
Ga8 O68 2.068898 1_555
Ga8 O67 2.077987 1_555
O0 P0 1.536366 1_545
O1 P1 1.533765 1_555
O2 P2 1.534965 1_655
O3 P3 1.512922 1_555
O4 P4 1.514261 1_555
O5 P5 1.516077 1_555
O6 P5 1.538213 1_565
O7 P3 1.552115 1_555
O8 P4 1.552380 1_455
O9 P1 1.551829 1_555
O10 P2 1.541540 1_555
O11 P0 1.542110 1_555
O12 P6 1.523448 1_555
O13 P7 1.512214 1_555
O14 P8 1.527082 1_555
O15 P9 1.549703 1_555
O16 P10 1.542809 1_555
O17 P11 1.559622 1_555
O18 P11 1.570074 1_555
O18 Ta0 1.981781 1_554
O19 P9 1.576252 1_555
O19 Ta0 1.994407 1_554
O20 P10 1.563915 1_555
O20 Ta0 1.972521 1_554
O21 P7 1.583345 1_555
O21 Ta1 1.972052 1_555
O22 P8 1.590067 1_555
O22 Ta1 1.982109 1_555
O23 P6 1.576354 1_555
O23 Ta1 1.961694 1_555
O24 P12 1.534981 1_555
O25 P13 1.522834 1_555
O26 P14 1.521696 1_555
O27 P15 1.525161 1_555
O28 P16 1.538649 1_555
O29 P17 1.538704 1_555
O30 P17 1.540762 1_555
O31 P15 1.543235 1_555
O32 P16 1.542040 1_555
O33 P13 1.556786 1_555
O33 Ta2 1.988495 1_555
O34 P14 1.554975 1_555
O34 Ta2 1.987128 1_555
O35 P12 1.554162 1_555
O35 Ta2 1.994044 1_555
O36 P17 1.528533 1_555
O37 P15 1.528720 1_555
O38 P16 1.528564 1_555
O39 P13 1.513662 1_555
O40 P14 1.514356 1_555
O41 P12 1.514472 1_555
O42 P6 1.538321 1_555
O43 P7 1.557691 1_555
O44 P8 1.539593 1_555
O45 P9 1.545791 1_555
O46 P10 1.544450 1_555
O47 P11 1.524507 1_555
O48 P5 1.533809 1_555
O49 P3 1.533944 1_555
O50 P4 1.533814 1_555
O51 P1 1.565434 1_555
O52 P2 1.565592 1_655
O53 P0 1.565555 1_545
O54 P12 1.583985 1_555
O54 Ta0 1.980845 1_555
O55 P13 1.585201 1_655
O55 Ta0 1.976504 1_555
O56 P14 1.585008 1_545
O56 Ta0 1.971467 1_555
O57 P15 1.585875 1_545
O57 Ta1 1.976483 1_555
O58 P16 1.585338 1_555
O58 Ta1 1.985025 1_555
O59 P17 1.585402 1_655
O59 Ta1 1.983229 1_555
O60 P11 1.541530 1_555
O61 P9 1.523959 1_455
O62 P10 1.541637 1_565
O63 P7 1.542910 1_565
O64 P8 1.542499 1_555
O65 P6 1.559885 1_455
O66 P0 1.563395 1_555
O67 P1 1.563181 1_555
O68 P2 1.563853 1_555
O69 P3 1.595686 1_555
O69 Ta2 1.964484 1_555
O70 P4 1.595632 1_455
O70 Ta2 1.963602 1_555
O71 P5 1.596339 1_565
O71 Ta2 1.960294 1_555
