# generated using pymatgen
data_NaZrScSi(SO6)2
_symmetry_space_group_name_H-M   'P 1'
_cell_length_a   8.94183240
_cell_length_b   8.95303659
_cell_length_c   23.45417156
_cell_angle_alpha   89.85449647
_cell_angle_beta   90.00000000
_cell_angle_gamma   119.95861131
_symmetry_Int_Tables_number   1
_chemical_formula_structural   NaZrScSi(SO6)2
_chemical_formula_sum   'Na6 Zr6 Sc6 Si6 S12 O72'
_cell_volume   1626.77213369
_cell_formula_units_Z   6
loop_
 _symmetry_equiv_pos_site_id
 _symmetry_equiv_pos_as_xyz
  1  'x, y, z'
loop_
 _atom_site_type_symbol
 _atom_site_label
 _atom_site_symmetry_multiplicity
 _atom_site_fract_x
 _atom_site_fract_y
 _atom_site_fract_z
 _atom_site_occupancy
  Na  Na0  1  0.01232876  0.00712427  0.50251699  1
  Na  Na1  1  0.99479551  0.00712427  0.00251699  1
  Na  Na2  1  0.67685595  0.33144720  0.83554889  1
  Na  Na3  1  0.65459225  0.33144720  0.33554889  1
  Na  Na4  1  0.33813712  0.68020715  0.16884318  1
  Na  Na5  1  0.34206903  0.68020715  0.66884318  1
  Zr  Zr0  1  0.01917021  0.01135254  0.35333269  1
  Zr  Zr1  1  0.99218233  0.01135254  0.85333269  1
  Zr  Zr2  1  0.65996926  0.31383937  0.68643714  1
  Zr  Zr3  1  0.65387111  0.31383937  0.18643714  1
  Zr  Zr4  1  0.33257545  0.66479074  0.01965451  1
  Zr  Zr5  1  0.33221430  0.66479074  0.51965451  1
  Sc  Sc0  1  0.99628910  0.99599613  0.64805858  1
  Sc  Sc1  1  0.99970703  0.99599613  0.14805858  1
  Sc  Sc2  1  0.68134108  0.32361411  0.98073766  1
  Sc  Sc3  1  0.64227403  0.32361411  0.48073766  1
  Sc  Sc4  1  0.33773578  0.66688846  0.31425197  1
  Sc  Sc5  1  0.32915169  0.66688846  0.81425197  1
  Si  Si0  1  0.28838993  0.99090855  0.24796695  1
  Si  Si1  1  0.70251862  0.99090855  0.74796695  1
  Si  Si2  1  0.36621485  0.03745558  0.58221650  1
  Si  Si3  1  0.67124173  0.03745558  0.08221650  1
  Si  Si4  1  0.04275824  0.38102599  0.91558542  1
  Si  Si5  1  0.33826675  0.38102599  0.41558542  1
  S  S0  1  0.71003304  0.71038792  0.24987695  1
  S  S1  1  0.00242909  0.29234670  0.24941106  1
  S  S2  1  0.28991761  0.29234670  0.74941106  1
  S  S3  1  0.00035487  0.71038792  0.74987695  1
  S  S4  1  0.95512443  0.33131077  0.58219101  1
  S  S5  1  0.66936463  0.62413561  0.58296143  1
  S  S6  1  0.95477198  0.62413561  0.08296143  1
  S  S7  1  0.37618734  0.33131077  0.08219101  1
  S  S8  1  0.62233594  0.66235227  0.91622650  1
  S  S9  1  0.33395594  0.95851583  0.91605313  1
  S  S10  1  0.62455890  0.95851583  0.41605313  1
  S  S11  1  0.04001532  0.66235227  0.41622650  1
  O  O0  1  0.20140073  0.02721701  0.30507741  1
  O  O1  1  0.81491311  0.79112718  0.30171924  1
  O  O2  1  0.96915044  0.18301588  0.30137218  1
  O  O3  1  0.21386544  0.18301588  0.80137218  1
  O  O4  1  0.97621407  0.79112718  0.80171924  1
  O  O5  1  0.82581628  0.02721701  0.80507741  1
  O  O6  1  0.80177879  0.97324608  0.69320667  1
  O  O7  1  0.18574189  0.21054158  0.69860805  1
  O  O8  1  0.02763283  0.81655284  0.69856093  1
  O  O9  1  0.78892001  0.81655284  0.19856093  1
  O  O10  1  0.02479969  0.21054158  0.19860805  1
  O  O11  1  0.17146729  0.97324608  0.19320667  1
  O  O12  1  0.87840525  0.36250592  0.63459171  1
  O  O13  1  0.49178587  0.12986357  0.63864533  1
  O  O14  1  0.64171791  0.51857617  0.63505491  1
  O  O15  1  0.87685925  0.51857617  0.13505491  1
  O  O16  1  0.63807870  0.12986357  0.13864533  1
  O  O17  1  0.48410167  0.36250592  0.13459171  1
  O  O18  1  0.45783313  0.31059146  0.03144624  1
  O  O19  1  0.85036869  0.54532323  0.03189498  1
  O  O20  1  0.69460073  0.15860088  0.02769558  1
  O  O21  1  0.46400116  0.15860088  0.52769558  1
  O  O22  1  0.69495553  0.54532323  0.53189498  1
  O  O23  1  0.85275933  0.31059146  0.53144624  1
  O  O24  1  0.54616844  0.69647289  0.96807480  1
  O  O25  1  0.16241080  0.46906178  0.97249962  1
  O  O26  1  0.30847550  0.85099164  0.96795837  1
  O  O27  1  0.54251514  0.85099164  0.46795837  1
  O  O28  1  0.30664998  0.46906178  0.47249962  1
  O  O29  1  0.15030345  0.69647289  0.46807480  1
  O  O30  1  0.12347917  0.64247619  0.36519155  1
  O  O31  1  0.51712215  0.87977875  0.36529278  1
  O  O32  1  0.35793450  0.49621393  0.35989762  1
  O  O33  1  0.13827844  0.49621393  0.85989762  1
  O  O34  1  0.36265561  0.87977875  0.86529278  1
  O  O35  1  0.51899602  0.64247619  0.86519155  1
  O  O36  1  0.01978742  0.81887888  0.41030847  1
  O  O37  1  0.79599434  0.97067888  0.40982843  1
  O  O38  1  0.16043763  0.18696961  0.41075086  1
  O  O39  1  0.02653198  0.18696961  0.91075086  1
  O  O40  1  0.17468454  0.97067888  0.90982843  1
  O  O41  1  0.79909145  0.81887888  0.91030847  1
  O  O42  1  0.97631998  0.17960605  0.59001586  1
  O  O43  1  0.17831644  0.01912237  0.59152242  1
  O  O44  1  0.82098363  0.79822173  0.58909547  1
  O  O45  1  0.97723810  0.79822173  0.08909547  1
  O  O46  1  0.84080593  0.01912237  0.09152242  1
  O  O47  1  0.20328607  0.17960605  0.09001586  1
  O  O48  1  0.69215396  0.17199427  0.74397135  1
  O  O49  1  0.46656157  0.31330644  0.74359313  1
  O  O50  1  0.84280083  0.53741635  0.74296088  1
  O  O51  1  0.69461652  0.53741635  0.24296088  1
  O  O52  1  0.84674588  0.31330644  0.24359313  1
  O  O53  1  0.47984131  0.17199427  0.24397135  1
  O  O54  1  0.63900380  0.50954093  0.92438291  1
  O  O55  1  0.85084984  0.35759588  0.92171343  1
  O  O56  1  0.48402418  0.13199991  0.92338653  1
  O  O57  1  0.64797673  0.13199991  0.42338653  1
  O  O58  1  0.50674704  0.35759588  0.42171343  1
  O  O59  1  0.87053813  0.50954093  0.42438291  1
  O  O60  1  0.35879174  0.48956863  0.07747244  1
  O  O61  1  0.13042622  0.64170030  0.07673628  1
  O  O62  1  0.49436537  0.84775252  0.07534830  1
  O  O63  1  0.35338614  0.84775252  0.57534830  1
  O  O64  1  0.51127308  0.64170030  0.57673628  1
  O  O65  1  0.13077589  0.48956863  0.57747244  1
  O  O66  1  0.31359684  0.82613804  0.25766806  1
  O  O67  1  0.53618907  0.69001984  0.25591922  1
  O  O68  1  0.15527483  0.46363319  0.25666741  1
  O  O69  1  0.30835737  0.46363319  0.75666741  1
  O  O70  1  0.15382977  0.69001984  0.75591922  1
  O  O71  1  0.51254020  0.82613804  0.75766806  1
loop_
_geom_bond_atom_site_label_1
_geom_bond_atom_site_label_2
_geom_bond_distance
_geom_bond_site_symmetry_2
Na0 O43 2.532637 1_555
Na0 O38 2.613729 1_555
Na0 O42 2.685631 1_455
Na0 O44 2.708063 1_445
Na0 O36 2.766378 1_545
Na0 O37 2.819159 1_445
Na1 O46 2.532637 1_555
Na1 O39 2.613729 1_654
Na1 O47 2.685631 1_655
Na1 O45 2.708063 1_545
Na1 O41 2.766378 1_544
Na1 O40 2.819159 1_644
Na2 O55 2.489604 1_555
Na2 O48 2.623109 1_555
Na2 O56 2.704099 1_555
Na2 O54 2.748435 1_555
Na2 O50 2.750429 1_555
Na2 O49 2.812589 1_555
Na3 O58 2.489604 1_555
Na3 O53 2.623109 1_555
Na3 O57 2.704099 1_555
Na3 O59 2.748435 1_555
Na3 O51 2.750429 1_555
Na3 O52 2.812589 1_555
Na4 O66 2.528936 1_555
Na4 O62 2.626902 1_555
Na4 O67 2.675905 1_555
Na4 O68 2.736691 1_555
Na4 O61 2.756738 1_555
Na4 O60 2.805926 1_555
Na5 O71 2.528936 1_555
Na5 O63 2.626902 1_555
Na5 O70 2.675905 1_555
Na5 O69 2.736691 1_555
Na5 O64 2.756738 1_555
Na5 O65 2.805926 1_555
O0 Si0 1.661223 1_545
O0 Zr0 1.929854 1_555
O1 S0 1.485897 1_555
O1 Zr0 2.259272 1_665
O2 S1 1.494976 1_655
O2 Zr0 2.173564 1_655
O3 S2 1.494976 1_555
O3 Zr1 2.173564 1_455
O4 S3 1.485897 1_655
O4 Zr1 2.259272 1_565
O5 Si1 1.661223 1_545
O5 Zr1 1.929854 1_555
O6 Si1 1.613557 1_555
O6 Sc0 1.957794 1_555
O7 S2 1.465250 1_555
O7 Sc0 2.174098 1_445
O8 S3 1.474508 1_555
O8 Sc0 2.121946 1_455
O9 S0 1.474508 1_555
O9 Sc1 2.121946 1_555
O10 S1 1.465250 1_555
O10 Sc1 2.174098 1_445
O11 Si0 1.613557 1_555
O11 Sc1 1.957794 1_455
O12 S4 1.500730 1_555
O12 Zr2 2.151946 1_555
O13 Si2 1.665723 1_555
O13 Zr2 1.940759 1_555
O14 S5 1.485899 1_555
O14 Zr2 2.264171 1_555
O15 S6 1.485899 1_555
O15 Zr3 2.264171 1_555
O16 Si3 1.665723 1_555
O16 Zr3 1.940759 1_555
O17 S7 1.500730 1_555
O17 Zr3 2.151946 1_555
O18 S7 1.456126 1_555
O18 Sc2 2.277926 1_554
O19 S6 1.466404 1_555
O19 Sc2 2.163300 1_554
O20 Si3 1.619228 1_555
O20 Sc2 1.891125 1_554
O21 Si2 1.619228 1_555
O21 Sc3 1.891125 1_555
O22 S5 1.466404 1_555
O22 Sc3 2.163300 1_555
O23 S4 1.456126 1_555
O23 Sc3 2.277926 1_555
O24 S8 1.498556 1_555
O24 Zr4 2.156137 1_556
O25 Si4 1.646497 1_555
O25 Zr4 1.988971 1_556
O26 S9 1.495218 1_555
O26 Zr4 2.155042 1_556
O27 S10 1.495218 1_555
O27 Zr5 2.155042 1_555
O28 Si5 1.646497 1_555
O28 Zr5 1.988971 1_555
O29 S11 1.498556 1_555
O29 Zr5 2.156137 1_555
O30 S11 1.468043 1_555
O30 Sc4 2.173964 1_555
O31 S10 1.471436 1_555
O31 Sc4 2.144068 1_555
O32 Si5 1.616297 1_555
O32 Sc4 1.944493 1_555
O33 Si4 1.616297 1_555
O33 Sc5 1.944493 1_555
O34 S9 1.471436 1_555
O34 Sc5 2.144068 1_555
O35 S8 1.468043 1_555
O35 Sc5 2.173964 1_555
O36 S11 1.506002 1_555
O36 Zr0 2.180157 1_565
O37 S10 1.488723 1_555
O37 Zr0 2.267724 1_665
O38 Si5 1.673818 1_555
O38 Zr0 1.976993 1_555
O39 Si4 1.673822 1_555
O39 Zr1 1.976993 1_455
O40 S9 1.488714 1_555
O40 Zr1 2.267724 1_465
O41 S8 1.506007 1_555
O41 Zr1 2.180157 1_565
O42 S4 1.473156 1_555
O42 Sc0 2.206634 1_545
O43 Si2 1.619225 1_555
O43 Sc0 2.027920 1_445
O44 S5 1.476043 1_555
O44 Sc0 2.178372 1_555
O45 S6 1.476046 1_555
O45 Sc1 2.178372 1_555
O46 Si3 1.619216 1_555
O46 Sc1 2.027920 1_545
O47 S7 1.473161 1_555
O47 Sc1 2.206634 1_445
O48 Si1 1.671878 1_545
O48 Zr2 1.967949 1_555
O49 S2 1.500852 1_555
O49 Zr2 2.186253 1_555
O50 S3 1.493852 1_655
O50 Zr2 2.276432 1_555
O51 S0 1.493856 1_555
O51 Zr3 2.276432 1_555
O52 S1 1.500843 1_655
O52 Zr3 2.186254 1_555
O53 Si0 1.671883 1_545
O53 Zr3 1.967949 1_555
O54 S8 1.460445 1_555
O54 Sc2 2.297714 1_555
O55 Si4 1.627787 1_655
O55 Sc2 1.960542 1_555
O56 S9 1.470522 1_545
O56 Sc2 2.203199 1_555
O57 S10 1.470515 1_545
O57 Sc3 2.203199 1_555
O58 Si5 1.627804 1_555
O58 Sc3 1.960542 1_555
O59 S11 1.460435 1_655
O59 Sc3 2.297714 1_555
O60 S7 1.504440 1_555
O60 Zr4 2.170579 1_555
O61 S6 1.505406 1_455
O61 Zr4 2.174369 1_555
O62 Si3 1.652442 1_565
O62 Zr4 2.031387 1_555
O63 Si2 1.652434 1_565
O63 Zr5 2.031387 1_555
O64 S5 1.505424 1_555
O64 Zr5 2.174369 1_555
O65 S4 1.504429 1_455
O65 Zr5 2.170579 1_555
O66 Si0 1.615290 1_555
O66 Sc4 2.034312 1_555
O67 S0 1.478685 1_555
O67 Sc4 2.166844 1_555
O68 S1 1.468555 1_555
O68 Sc4 2.201074 1_555
O69 S2 1.468559 1_555
O69 Sc5 2.201074 1_555
O70 S3 1.478677 1_555
O70 Sc5 2.166844 1_555
O71 Si1 1.615295 1_555
O71 Sc5 2.034312 1_555
