# generated using pymatgen
data_Na4TaZnSi2PO12
_symmetry_space_group_name_H-M   'P 1'
_cell_length_a   9.13629338
_cell_length_b   9.13629306
_cell_length_c   22.10739320
_cell_angle_alpha   89.63858806
_cell_angle_beta   90.36141193
_cell_angle_gamma   119.37669648
_symmetry_Int_Tables_number   1
_chemical_formula_structural   Na4TaZnSi2PO12
_chemical_formula_sum   'Na24 Ta6 Zn6 Si12 P6 O72'
_cell_volume   1608.01551788
_cell_formula_units_Z   6
loop_
 _symmetry_equiv_pos_site_id
 _symmetry_equiv_pos_as_xyz
  1  'x, y, z'
loop_
 _atom_site_type_symbol
 _atom_site_label
 _atom_site_symmetry_multiplicity
 _atom_site_fract_x
 _atom_site_fract_y
 _atom_site_fract_z
 _atom_site_occupancy
  Na  Na0  1  0.64982888  0.02267471  0.24693938  1
  Na  Na1  1  0.37804309  0.35835511  0.24114827  1
  Na  Na2  1  0.97041512  0.61480474  0.24465221  1
  Na  Na3  1  0.64164489  0.62195691  0.74114827  1
  Na  Na4  1  0.97732529  0.35017112  0.74693938  1
  Na  Na5  1  0.38519526  0.02958488  0.74465221  1
  Na  Na6  1  0.31649588  0.35600771  0.58027238  1
  Na  Na7  1  0.04471009  0.69168811  0.57448127  1
  Na  Na8  1  0.63708212  0.94813774  0.57798521  1
  Na  Na9  1  0.30831189  0.95528991  0.07448127  1
  Na  Na10  1  0.64399229  0.68350412  0.08027238  1
  Na  Na11  1  0.05186226  0.36291788  0.07798521  1
  Na  Na12  1  0.98316188  0.68934171  0.91360638  1
  Na  Na13  1  0.71137609  0.02502211  0.90781527  1
  Na  Na14  1  0.30374812  0.28147174  0.91131921  1
  Na  Na15  1  0.97497789  0.28862391  0.40781527  1
  Na  Na16  1  0.31065829  0.01683812  0.41360638  1
  Na  Na17  1  0.71852826  0.69625188  0.41131921  1
  Na  Na18  1  0.99494464  0.99292534  0.49043992  1
  Na  Na19  1  0.00707466  0.00505536  0.99043992  1
  Na  Na20  1  0.66161164  0.32625834  0.82377292  1
  Na  Na21  1  0.67374166  0.33838836  0.32377292  1
  Na  Na22  1  0.32827764  0.65959234  0.15710692  1
  Na  Na23  1  0.34040766  0.67172236  0.65710692  1
  Ta  Ta0  1  0.99807134  0.00091937  0.64683324  1
  Ta  Ta1  1  0.99908063  0.00192866  0.14683324  1
  Ta  Ta2  1  0.66473834  0.33425237  0.98016624  1
  Ta  Ta3  1  0.66574763  0.33526166  0.48016624  1
  Ta  Ta4  1  0.33140434  0.66758637  0.31350024  1
  Ta  Ta5  1  0.33241363  0.66859566  0.81350024  1
  Zn  Zn0  1  0.98743542  0.99104137  0.34759305  1
  Zn  Zn1  1  0.00895863  0.01256458  0.84759305  1
  Zn  Zn2  1  0.65410242  0.32437437  0.68092605  1
  Zn  Zn3  1  0.67562563  0.34589758  0.18092605  1
  Zn  Zn4  1  0.32076842  0.65770837  0.01426005  1
  Zn  Zn5  1  0.34229163  0.67923158  0.51426005  1
  Si  Si0  1  0.70179520  0.70427570  0.25285680  1
  Si  Si1  1  0.00254441  0.29580724  0.25351392  1
  Si  Si2  1  0.29572430  0.29820480  0.75285680  1
  Si  Si3  1  0.70419276  0.99745559  0.75351392  1
  Si  Si4  1  0.36846220  0.03760870  0.58618980  1
  Si  Si5  1  0.66921141  0.62914024  0.58684692  1
  Si  Si6  1  0.96239130  0.63153780  0.08618980  1
  Si  Si7  1  0.37085976  0.33078859  0.08684692  1
  Si  Si8  1  0.03512820  0.37094270  0.91952380  1
  Si  Si9  1  0.33587741  0.96247424  0.92018092  1
  Si  Si10  1  0.62905730  0.96487180  0.41952380  1
  Si  Si11  1  0.03752576  0.66412259  0.42018092  1
  P  P0  1  0.28639249  0.99301175  0.25335103  1
  P  P1  1  0.00698825  0.71360751  0.75335103  1
  P  P2  1  0.95305949  0.32634475  0.58668403  1
  P  P3  1  0.67365525  0.04694051  0.08668403  1
  P  P4  1  0.61972549  0.65967875  0.92001803  1
  P  P5  1  0.34032125  0.38027451  0.42001803  1
  O  O0  1  0.21046242  0.01893869  0.31000699  1
  O  O1  1  0.81189259  0.78026108  0.31260873  1
  O  O2  1  0.98604308  0.19058557  0.31335249  1
  O  O3  1  0.21973892  0.18810741  0.81260873  1
  O  O4  1  0.98106131  0.78953758  0.81000699  1
  O  O5  1  0.80941443  0.01395692  0.81335249  1
  O  O6  1  0.80450301  0.96978303  0.69358040  1
  O  O7  1  0.16481019  0.19468591  0.69343340  1
  O  O8  1  0.02904312  0.83033638  0.69598555  1
  O  O9  1  0.80531409  0.83518981  0.19343340  1
  O  O10  1  0.03021697  0.19549699  0.19358040  1
  O  O11  1  0.16966362  0.97095688  0.19598555  1
  O  O12  1  0.87712942  0.35227169  0.64333999  1
  O  O13  1  0.47855959  0.11359408  0.64594173  1
  O  O14  1  0.65271008  0.52391857  0.64668549  1
  O  O15  1  0.88640592  0.52144041  0.14594173  1
  O  O16  1  0.64772831  0.12287058  0.14333999  1
  O  O17  1  0.47608143  0.34728992  0.14668549  1
  O  O18  1  0.47117001  0.30311603  0.02691340  1
  O  O19  1  0.83147719  0.52801891  0.02676640  1
  O  O20  1  0.69571012  0.16366938  0.02931855  1
  O  O21  1  0.47198109  0.16852281  0.52676640  1
  O  O22  1  0.69688397  0.52882999  0.52691340  1
  O  O23  1  0.83633062  0.30428988  0.52931855  1
  O  O24  1  0.54379542  0.68560569  0.97667399  1
  O  O25  1  0.14522559  0.44692808  0.97927573  1
  O  O26  1  0.31937608  0.85725257  0.98001949  1
  O  O27  1  0.55307192  0.85477441  0.47927573  1
  O  O28  1  0.31439431  0.45620458  0.47667399  1
  O  O29  1  0.14274743  0.68062392  0.48001949  1
  O  O30  1  0.13783601  0.63645003  0.36024740  1
  O  O31  1  0.49814319  0.86135291  0.36010040  1
  O  O32  1  0.36237612  0.49700338  0.36265255  1
  O  O33  1  0.13864709  0.50185681  0.86010040  1
  O  O34  1  0.36354997  0.86216399  0.86024740  1
  O  O35  1  0.50299662  0.63762388  0.86265255  1
  O  O36  1  0.01455820  0.82803623  0.41382380  1
  O  O37  1  0.81937351  -0.00024125  0.41315973  1
  O  O38  1  0.19805613  0.20042678  0.41228145  1
  O  O39  1  0.00024125  0.18062649  0.91315973  1
  O  O40  1  0.17196377  0.98544180  0.91382380  1
  O  O41  1  0.79957322  0.80194387  0.91228145  1
  O  O42  1  0.95383557  0.15259339  0.58788829  1
  O  O43  1  0.18397182  0.03795222  0.58812629  1
  O  O44  1  0.84791571  0.81676260  0.58842506  1
  O  O45  1  0.96204778  0.81602818  0.08812629  1
  O  O46  1  0.84740661  0.04616443  0.08788829  1
  O  O47  1  0.18323740  0.15208429  0.08842506  1
  O  O48  1  0.68122520  0.16136923  0.74715680  1
  O  O49  1  0.48604051  0.33309175  0.74649273  1
  O  O50  1  0.86472313  0.53375978  0.74561445  1
  O  O51  1  0.66690825  0.51395949  0.24649273  1
  O  O52  1  0.83863077  0.31877480  0.24715680  1
  O  O53  1  0.46624022  0.13527687  0.24561445  1
  O  O54  1  0.62050257  0.48592639  0.92122129  1
  O  O55  1  0.85063882  0.37128522  0.92145929  1
  O  O56  1  0.51458271  0.15009560  0.92175806  1
  O  O57  1  0.62871478  0.14936118  0.42145929  1
  O  O58  1  0.51407361  0.37949743  0.42122129  1
  O  O59  1  0.84990440  0.48541729  0.42175806  1
  O  O60  1  0.34789120  0.49470323  0.08049080  1
  O  O61  1  0.15270651  0.66642575  0.07982673  1
  O  O62  1  0.53138913  0.86709378  0.07894845  1
  O  O63  1  0.33357425  0.84729349  0.57982673  1
  O  O64  1  0.50529677  0.65210880  0.58049080  1
  O  O65  1  0.13290622  0.46861087  0.57894845  1
  O  O66  1  0.28716857  0.81926039  0.25455529  1
  O  O67  1  0.51730482  0.70461922  0.25479329  1
  O  O68  1  0.18124871  0.48342960  0.25509206  1
  O  O69  1  0.29538078  0.48269518  0.75479329  1
  O  O70  1  0.18073961  0.71283143  0.75455529  1
  O  O71  1  0.51657040  0.81875129  0.75509206  1
loop_
_geom_bond_atom_site_label_1
_geom_bond_atom_site_label_2
_geom_bond_distance
_geom_bond_site_symmetry_2
Na0 O53 2.358935 1_555
Na0 O52 2.390757 1_555
Na0 O16 2.464574 1_555
Na0 O67 2.546475 1_545
Na0 O66 2.902130 1_545
Na1 O17 2.299721 1_555
Na1 O51 2.305936 1_555
Na1 O53 2.533901 1_555
Na1 O68 2.580834 1_555
Na1 O67 2.788578 1_555
Na2 O15 2.332140 1_555
Na2 O52 2.360460 1_555
Na2 O51 2.456435 1_555
Na2 O66 2.570161 1_655
Na2 O68 2.731952 1_655
Na3 O14 2.299721 1_555
Na3 O49 2.305936 1_555
Na3 O50 2.533901 1_555
Na3 O71 2.580834 1_555
Na3 O69 2.788578 1_555
Na4 O50 2.358935 1_555
Na4 O48 2.390757 1_555
Na4 O12 2.464574 1_555
Na4 O69 2.546475 1_655
Na4 O70 2.902130 1_655
Na5 O13 2.332140 1_555
Na5 O48 2.360460 1_555
Na5 O49 2.456435 1_555
Na5 O70 2.570161 1_545
Na5 O71 2.731952 1_545
Na6 O65 2.358951 1_555
Na6 O64 2.390763 1_555
Na6 O28 2.464558 1_555
Na6 O43 2.546475 1_555
Na6 O42 2.902130 1_455
Na7 O29 2.299695 1_555
Na7 O63 2.305930 1_555
Na7 O65 2.533886 1_555
Na7 O44 2.580834 1_455
Na7 O43 2.788578 1_565
Na8 O27 2.332118 1_555
Na8 O64 2.360451 1_555
Na8 O63 2.456445 1_555
Na8 O42 2.570161 1_565
Na8 O44 2.731952 1_555
Na9 O26 2.299695 1_554
Na9 O61 2.305930 1_555
Na9 O62 2.533886 1_555
Na9 O47 2.580834 1_565
Na9 O45 2.788578 1_455
Na10 O62 2.358951 1_555
Na10 O60 2.390763 1_555
Na10 O24 2.464558 1_554
Na10 O45 2.546475 1_555
Na10 O46 2.902130 1_565
Na11 O25 2.332118 1_554
Na11 O60 2.360451 1_555
Na11 O61 2.456445 1_555
Na11 O46 2.570161 1_455
Na11 O47 2.731952 1_555
Na12 O41 2.358935 1_555
Na12 O40 2.390757 1_655
Na12 O4 2.464574 1_555
Na12 O55 2.546483 1_555
Na12 O54 2.902122 1_555
Na13 O5 2.299721 1_555
Na13 O39 2.305936 1_655
Na13 O41 2.533901 1_545
Na13 O56 2.580815 1_555
Na13 O55 2.788566 1_555
Na14 O3 2.332140 1_555
Na14 O40 2.360460 1_545
Na14 O39 2.456435 1_555
Na14 O54 2.570165 1_555
Na14 O56 2.731965 1_555
Na15 O2 2.299721 1_555
Na15 O37 2.305936 1_555
Na15 O38 2.533901 1_655
Na15 O59 2.580815 1_555
Na15 O57 2.788566 1_555
Na16 O38 2.358935 1_555
Na16 O36 2.390757 1_545
Na16 O0 2.464574 1_555
Na16 O57 2.546483 1_555
Na16 O58 2.902122 1_555
Na17 O1 2.332140 1_555
Na17 O36 2.360460 1_655
Na17 O37 2.456435 1_565
Na17 O58 2.570164 1_555
Na17 O59 2.731965 1_555
Na18 O36 2.339091 1_655
Na18 O37 2.357566 1_565
Na18 O38 2.563357 1_665
Na18 O44 2.637963 1_555
Na18 O43 2.661344 1_665
Na18 O42 2.738177 1_565
Na19 O40 2.339091 1_545
Na19 O39 2.357566 1_555
Na19 O41 2.563357 1_445
Na19 O47 2.637963 1_556
Na19 O45 2.661344 1_446
Na19 O46 2.738177 1_456
Na20 O48 2.339091 1_555
Na20 O49 2.357566 1_555
Na20 O50 2.563357 1_555
Na20 O56 2.637963 1_555
Na20 O55 2.661344 1_555
Na20 O54 2.738177 1_555
Na21 O52 2.339091 1_555
Na21 O51 2.357566 1_555
Na21 O53 2.563357 1_555
Na21 O59 2.637963 1_555
Na21 O57 2.661344 1_555
Na21 O58 2.738177 1_555
Na22 O60 2.339091 1_555
Na22 O61 2.357566 1_555
Na22 O62 2.563357 1_555
Na22 O68 2.637963 1_555
Na22 O67 2.661344 1_555
Na22 O66 2.738177 1_555
Na23 O64 2.339091 1_555
Na23 O63 2.357566 1_555
Na23 O65 2.563357 1_555
Na23 O71 2.637963 1_555
Na23 O69 2.661344 1_555
Na23 O70 2.738177 1_555
O0 P0 1.510654 1_545
O0 Zn0 2.101556 1_445
O1 Si0 1.596364 1_555
O1 Zn0 1.962618 1_555
O2 Si1 1.594106 1_655
O2 Zn0 1.975363 1_545
O3 Si2 1.596364 1_555
O3 Zn1 1.962618 1_555
O4 P1 1.510654 1_655
O4 Zn1 2.101556 1_665
O5 Si3 1.594106 1_545
O5 Zn1 1.975363 1_655
O6 Si3 1.704773 1_555
O6 Ta0 1.949952 1_565
O7 Si2 1.713737 1_555
O7 Ta0 1.968078 1_455
O8 P1 1.600507 1_555
O8 Ta0 2.024146 1_465
O9 Si0 1.713737 1_555
O9 Ta1 1.968078 1_565
O10 Si1 1.704773 1_555
O10 Ta1 1.949952 1_455
O11 P0 1.600507 1_555
O11 Ta1 2.024146 1_465
O12 P2 1.510654 1_555
O12 Zn2 2.101556 1_555
O13 Si4 1.596364 1_555
O13 Zn2 1.962618 1_555
O14 Si5 1.594106 1_555
O14 Zn2 1.975363 1_555
O15 Si6 1.596364 1_555
O15 Zn3 1.962618 1_555
O16 P3 1.510654 1_555
O16 Zn3 2.101556 1_555
O17 Si7 1.594106 1_555
O17 Zn3 1.975363 1_555
O18 Si7 1.704773 1_555
O18 Ta2 1.949952 1_554
O19 Si6 1.713737 1_555
O19 Ta2 1.968078 1_554
O20 P3 1.600507 1_555
O20 Ta2 2.024146 1_554
O21 Si4 1.713737 1_555
O21 Ta3 1.968078 1_555
O22 Si5 1.704773 1_555
O22 Ta3 1.949952 1_555
O23 P2 1.600507 1_555
O23 Ta3 2.024146 1_555
O24 P4 1.510654 1_555
O24 Zn4 2.101556 1_556
O25 Si8 1.596364 1_555
O25 Zn4 1.962618 1_556
O26 Si9 1.594106 1_555
O26 Zn4 1.975363 1_556
O27 Si10 1.596364 1_555
O27 Zn5 1.962618 1_555
O28 P5 1.510654 1_555
O28 Zn5 2.101556 1_555
O29 Si11 1.594106 1_555
O29 Zn5 1.975363 1_555
O30 Si11 1.704773 1_555
O30 Ta4 1.949952 1_555
O31 Si10 1.713737 1_555
O31 Ta4 1.968078 1_555
O32 P5 1.600507 1_555
O32 Ta4 2.024146 1_555
O33 Si8 1.713737 1_555
O33 Ta5 1.968078 1_555
O34 Si9 1.704773 1_555
O34 Ta5 1.949952 1_555
O35 P4 1.600507 1_555
O35 Ta5 2.024146 1_555
O36 Si11 1.616093 1_555
O36 Zn0 2.180170 1_455
O37 Si10 1.613549 1_545
O37 Zn0 2.148157 1_545
O38 P5 1.524460 1_555
O38 Zn0 2.407457 1_445
O39 Si8 1.613549 1_555
O39 Zn1 2.148157 1_555
O40 Si9 1.616093 1_555
O40 Zn1 2.180170 1_565
O41 P4 1.524460 1_555
O41 Zn1 2.407457 1_665
O42 P2 1.590988 1_555
O42 Ta0 2.074070 1_555
O43 Si4 1.687913 1_555
O43 Ta0 2.035212 1_455
O44 Si5 1.691009 1_555
O44 Ta0 2.029951 1_565
O45 Si6 1.687913 1_555
O45 Ta1 2.035212 1_565
O46 P3 1.590988 1_555
O46 Ta1 2.074070 1_555
O47 Si7 1.691009 1_555
O47 Ta1 2.029951 1_455
O48 Si3 1.616093 1_545
O48 Zn2 2.180170 1_555
O49 Si2 1.613549 1_555
O49 Zn2 2.148157 1_555
O50 P1 1.524460 1_655
O50 Zn2 2.407457 1_555
O51 Si0 1.613549 1_555
O51 Zn3 2.148157 1_555
O52 Si1 1.616093 1_655
O52 Zn3 2.180170 1_555
O53 P0 1.524460 1_545
O53 Zn3 2.407457 1_555
O54 P4 1.591001 1_555
O54 Ta2 2.074070 1_555
O55 Si8 1.687899 1_655
O55 Ta2 2.035212 1_555
O56 Si9 1.691008 1_545
O56 Ta2 2.029951 1_555
O57 Si10 1.687899 1_545
O57 Ta3 2.035212 1_555
O58 P5 1.591001 1_555
O58 Ta3 2.074070 1_555
O59 Si11 1.691008 1_655
O59 Ta3 2.029951 1_555
O60 Si7 1.616106 1_555
O60 Zn4 2.180170 1_555
O61 Si6 1.613535 1_455
O61 Zn4 2.148157 1_555
O62 P3 1.524454 1_565
O62 Zn4 2.407457 1_555
O63 Si4 1.613535 1_565
O63 Zn5 2.148157 1_555
O64 Si5 1.616106 1_555
O64 Zn5 2.180170 1_555
O65 P2 1.524454 1_455
O65 Zn5 2.407457 1_555
O66 P0 1.590988 1_555
O66 Ta4 2.074070 1_555
O67 Si0 1.687913 1_555
O67 Ta4 2.035212 1_555
O68 Si1 1.691009 1_555
O68 Ta4 2.029951 1_555
O69 Si2 1.687913 1_555
O69 Ta5 2.035212 1_555
O70 P1 1.590988 1_555
O70 Ta5 2.074070 1_555
O71 Si3 1.691009 1_555
O71 Ta5 2.029951 1_555
