# generated using pymatgen
data_Sr4Nb2O9
_symmetry_space_group_name_H-M   'P 1'
_cell_length_a   5.94910966
_cell_length_b   5.94910966
_cell_length_c   15.94286700
_cell_angle_alpha   90.00000000
_cell_angle_beta   90.00000000
_cell_angle_gamma   119.99999624
_symmetry_Int_Tables_number   1
_chemical_formula_structural   Sr4Nb2O9
_chemical_formula_sum   'Sr8 Nb4 O18'
_cell_volume   488.65350733
_cell_formula_units_Z   2
loop_
 _symmetry_equiv_pos_site_id
 _symmetry_equiv_pos_as_xyz
  1  'x, y, z'
loop_
 _atom_site_type_symbol
 _atom_site_label
 _atom_site_symmetry_multiplicity
 _atom_site_fract_x
 _atom_site_fract_y
 _atom_site_fract_z
 _atom_site_occupancy
  Sr  Sr0  1  0.66666700  0.33333300  0.13790400  1
  Sr  Sr1  1  0.33333300  0.66666700  0.64283400  1
  Sr  Sr2  1  0.33333300  0.66666700  0.86209600  1
  Sr  Sr3  1  0.66666700  0.33333300  0.35716600  1
  Sr  Sr4  1  0.00000000  0.00000000  0.25003100  1
  Sr  Sr5  1  0.00000000  0.00000000  0.00000000  1
  Sr  Sr6  1  0.00000000  0.00000000  0.74996900  1
  Sr  Sr7  1  0.00000000  0.00000000  0.50000000  1
  Nb  Nb0  1  0.66666700  0.33333300  0.65557800  1
  Nb  Nb1  1  0.66666700  0.33333300  0.84737900  1
  Nb  Nb2  1  0.33333300  0.66666700  0.34442200  1
  Nb  Nb3  1  0.33333300  0.66666700  0.15262100  1
  O  O0  1  0.08297600  0.35871800  0.09940600  1
  O  O1  1  0.35147500  0.27274500  0.60382600  1
  O  O2  1  0.64852500  0.72725500  0.39617400  1
  O  O3  1  0.44330400  0.03663400  0.75099300  1
  O  O4  1  0.40667100  0.44330400  0.24900700  1
  O  O5  1  0.35871800  0.27574200  0.90059400  1
  O  O6  1  0.27574200  0.91702400  0.09940600  1
  O  O7  1  0.59332900  0.55669600  0.75099300  1
  O  O8  1  0.91702400  0.64128200  0.90059400  1
  O  O9  1  0.96336600  0.40667100  0.75099300  1
  O  O10  1  0.03663400  0.59332900  0.24900700  1
  O  O11  1  0.55669600  0.96336600  0.24900700  1
  O  O12  1  0.27274500  0.92127000  0.39617400  1
  O  O13  1  0.07873000  0.35147500  0.39617400  1
  O  O14  1  0.72725500  0.07873000  0.60382600  1
  O  O15  1  0.72425800  0.08297600  0.90059400  1
  O  O16  1  0.92127000  0.64852500  0.60382600  1
  O  O17  1  0.64128200  0.72425800  0.09940600  1
loop_
_geom_bond_atom_site_label_1
_geom_bond_atom_site_label_2
_geom_bond_distance
_geom_bond_site_symmetry_2
Nb0 O14 1.910712 1_555
Nb0 O16 1.910715 1_555
Nb0 O1 1.910717 1_555
Nb0 O9 2.202232 1_555
Nb0 O3 2.202234 1_555
Nb0 O7 2.202240 1_555
Nb1 O15 1.888326 1_555
Nb1 O8 1.888329 1_555
Nb1 O5 1.888331 1_555
Nb1 O9 2.212953 1_555
Nb1 O3 2.212956 1_555
Nb1 O7 2.212962 1_555
Nb2 O12 1.910712 1_555
Nb2 O13 1.910715 1_555
Nb2 O2 1.910717 1_555
Nb2 O10 2.202232 1_555
Nb2 O11 2.202234 1_555
Nb2 O4 2.202240 1_555
Nb3 O6 1.888326 1_555
Nb3 O0 1.888329 1_555
Nb3 O17 1.888331 1_555
Nb3 O10 2.212953 1_555
Nb3 O11 2.212956 1_555
Nb3 O4 2.212962 1_555
O0 Sr0 2.481810 1_455
O0 Sr5 2.501212 1_555
O0 Sr4 3.084009 1_555
O1 Sr1 2.478560 1_555
O1 Sr7 2.520340 1_555
O1 Sr6 3.006786 1_555
O2 Sr3 2.478560 1_555
O2 Sr7 2.520340 1_665
O2 Sr4 3.006786 1_665
O3 Sr6 2.535382 1_555
O3 Sr1 2.608792 1_545
O3 Sr2 2.640051 1_545
O4 Sr4 2.535385 1_555
O4 Sr3 2.608792 1_555
O4 Sr0 2.640050 1_555
O5 Sr2 2.481816 1_555
O5 Sr5 2.501212 1_556
O5 Sr6 3.084009 1_555
O6 Sr0 2.481813 1_565
O6 Sr5 2.501212 1_565
O6 Sr4 3.084009 1_565
O7 Sr6 2.535385 1_665
O7 Sr1 2.608792 1_555
O7 Sr2 2.640050 1_555
O8 Sr2 2.481810 1_655
O8 Sr5 2.501212 1_666
O8 Sr6 3.084009 1_665
O9 Sr6 2.535388 1_655
O9 Sr1 2.608792 1_655
O9 Sr2 2.640051 1_655
O10 Sr4 2.535388 1_565
O10 Sr3 2.608792 1_455
O10 Sr0 2.640051 1_455
O11 Sr4 2.535382 1_665
O11 Sr3 2.608792 1_565
O11 Sr0 2.640051 1_565
O12 Sr3 2.478557 1_565
O12 Sr7 2.520340 1_565
O12 Sr4 3.006786 1_565
O13 Sr3 2.478554 1_455
O13 Sr7 2.520340 1_555
O13 Sr4 3.006786 1_555
O14 Sr1 2.478557 1_545
O14 Sr7 2.520340 1_655
O14 Sr6 3.006786 1_655
O15 Sr2 2.481813 1_545
O15 Sr5 2.501212 1_656
O15 Sr6 3.084009 1_655
O16 Sr1 2.478554 1_655
O16 Sr7 2.520340 1_665
O16 Sr6 3.006786 1_665
O17 Sr0 2.481816 1_555
O17 Sr5 2.501212 1_665
O17 Sr4 3.084009 1_665
