# generated using pymatgen
data_Na3BP2
_symmetry_space_group_name_H-M   'P 1'
_cell_length_a   9.30551900
_cell_length_b   7.00918000
_cell_length_c   9.16053538
_cell_angle_alpha   69.07718165
_cell_angle_beta   90.00000000
_cell_angle_gamma   90.00000000
_symmetry_Int_Tables_number   1
_chemical_formula_structural   Na3BP2
_chemical_formula_sum   'Na12 B4 P8'
_cell_volume   558.09036687
_cell_formula_units_Z   4
loop_
 _symmetry_equiv_pos_site_id
 _symmetry_equiv_pos_as_xyz
  1  'x, y, z'
loop_
 _atom_site_type_symbol
 _atom_site_label
 _atom_site_symmetry_multiplicity
 _atom_site_fract_x
 _atom_site_fract_y
 _atom_site_fract_z
 _atom_site_occupancy
  Na  Na0  1  0.28659700  0.73621900  0.18239400  1
  Na  Na1  1  0.06932100  0.24331900  0.02202500  1
  Na  Na2  1  0.43067900  0.24331900  0.52202500  1
  Na  Na3  1  0.56932100  0.75668100  0.47797500  1
  Na  Na4  1  0.97290400  0.77825500  0.38878700  1
  Na  Na5  1  0.47290400  0.22174500  0.11121300  1
  Na  Na6  1  0.02709600  0.22174500  0.61121300  1
  Na  Na7  1  0.52709600  0.77825500  0.88878700  1
  Na  Na8  1  0.21340300  0.73621900  0.68239400  1
  Na  Na9  1  0.71340300  0.26378100  0.81760600  1
  Na  Na10  1  0.93067900  0.75668100  0.97797500  1
  Na  Na11  1  0.78659700  0.26378100  0.31760600  1
  B  B0  1  0.17133200  0.22484500  0.31776200  1
  B  B1  1  0.67133200  0.77515500  0.18223800  1
  B  B2  1  0.32866800  0.22484500  0.81776200  1
  B  B3  1  0.82866800  0.77515500  0.68223800  1
  P  P0  1  0.43860200  0.44667400  0.76834900  1
  P  P1  1  0.93860200  0.55332600  0.73165100  1
  P  P2  1  0.56139800  0.55332600  0.23165100  1
  P  P3  1  0.06139800  0.44667400  0.26834900  1
  P  P4  1  0.27550800  0.99727600  0.36466200  1
  P  P5  1  0.77550800  0.00272400  0.13533800  1
  P  P6  1  0.72449200  0.00272400  0.63533800  1
  P  P7  1  0.22449200  0.99727600  0.86466200  1
loop_
_geom_bond_atom_site_label_1
_geom_bond_atom_site_label_2
_geom_bond_distance
_geom_bond_site_symmetry_2
Na0 P2 2.823635 1_555
Na0 P3 2.826472 1_555
Na0 P4 2.885942 1_555
Na0 P7 2.889622 1_554
Na1 P7 2.985406 1_544
Na1 P1 3.024654 1_454
Na1 P3 3.070144 1_555
Na1 P5 3.185326 1_455
Na2 P4 2.985406 1_545
Na2 P2 3.024654 1_555
Na2 P0 3.070144 1_555
Na2 P6 3.185326 1_555
Na3 P6 2.985406 1_565
Na3 P0 3.024654 1_555
Na3 P2 3.070144 1_555
Na3 P4 3.185326 1_555
Na4 P5 2.937852 1_565
Na4 P1 2.985896 1_555
Na4 P3 3.021290 1_655
Na4 P4 3.176863 1_655
Na5 P4 2.937852 1_545
Na5 P0 2.985896 1_554
Na5 P2 3.021290 1_555
Na5 P5 3.176863 1_555
Na6 P7 2.937852 1_545
Na6 P3 2.985896 1_555
Na6 P1 3.021290 1_455
Na6 P6 3.176863 1_455
Na7 P6 2.937852 1_565
Na7 P2 2.985896 1_556
Na7 P0 3.021290 1_555
Na7 P7 3.176863 1_555
Na8 P1 2.823635 1_455
Na8 P0 2.826472 1_555
Na8 P7 2.885942 1_555
Na8 P4 2.889622 1_555
Na9 P0 2.823635 1_555
Na9 P1 2.826472 1_555
Na9 P6 2.885942 1_555
Na9 P5 2.889622 1_556
Na10 P5 2.985406 1_566
Na10 P3 3.024654 1_656
Na10 P1 3.070144 1_555
Na10 P7 3.185326 1_655
Na11 P3 2.823635 1_655
Na11 P2 2.826472 1_555
Na11 P5 2.885942 1_555
Na11 P6 2.889622 1_555
B0 P3 1.779400 1_555
B0 P4 1.783016 1_545
B0 Na1 2.829593 1_555
B0 Na6 2.997746 1_555
B0 Na2 3.084696 1_555
B1 P2 1.779400 1_555
B1 P5 1.783016 1_565
B1 Na3 2.829593 1_555
B1 Na7 2.997746 1_554
B1 Na10 3.084696 1_554
B2 P0 1.779400 1_555
B2 P7 1.783016 1_545
B2 Na2 2.829593 1_555
B2 Na5 2.997746 1_556
B2 Na1 3.084696 1_556
B3 P1 1.779400 1_555
B3 P6 1.783016 1_565
B3 Na10 2.829593 1_555
B3 Na4 2.997746 1_555
B3 Na3 3.084696 1_555
