# generated using pymatgen
data_SrHgO2
_symmetry_space_group_name_H-M   'P 1'
_cell_length_a   3.84402602
_cell_length_b   3.84402457
_cell_length_c   19.14339610
_cell_angle_alpha   90.00000000
_cell_angle_beta   90.00000000
_cell_angle_gamma   119.99999491
_symmetry_Int_Tables_number   1
_chemical_formula_structural   SrHgO2
_chemical_formula_sum   'Sr3 Hg3 O6'
_cell_volume   244.97519589
_cell_formula_units_Z   3
loop_
 _symmetry_equiv_pos_site_id
 _symmetry_equiv_pos_as_xyz
  1  'x, y, z'
loop_
 _atom_site_type_symbol
 _atom_site_label
 _atom_site_symmetry_multiplicity
 _atom_site_fract_x
 _atom_site_fract_y
 _atom_site_fract_z
 _atom_site_occupancy
  Sr  Sr0  1  0.32891383  0.00000000  0.16666700  1
  Sr  Sr1  1  -0.00000000  0.32891383  0.83333300  1
  Sr  Sr2  1  0.67108617  0.67108617  0.50000000  1
  Hg  Hg0  1  0.66420864  0.66420864  -0.00000000  1
  Hg  Hg1  1  0.00000000  0.33579136  0.33333300  1
  Hg  Hg2  1  0.33579136  -0.00000000  0.66666700  1
  O  O0  1  0.66660633  0.66203980  0.89641906  1
  O  O1  1  0.33796020  0.00456653  0.56308506  1
  O  O2  1  0.99543347  0.33339367  0.22975206  1
  O  O3  1  0.00456653  0.33796020  0.43691494  1
  O  O4  1  0.66203980  0.66660633  0.10358094  1
  O  O5  1  0.33339367  0.99543347  0.77024794  1
loop_
_geom_bond_atom_site_label_1
_geom_bond_atom_site_label_2
_geom_bond_distance
_geom_bond_site_symmetry_2
Hg0 O4 1.982949 1_555
Hg0 O0 1.982949 1_554
Hg1 O2 1.982949 1_455
Hg1 O3 1.982968 1_555
Hg2 O5 1.982949 1_545
Hg2 O1 1.982968 1_555
O0 Sr1 2.526229 1_655
O0 Sr1 2.526483 1_555
O0 Sr1 2.527265 1_665
O1 Sr2 2.526220 1_555
O1 Sr2 2.526473 1_545
O1 Sr2 2.527256 1_445
O2 Sr0 2.526220 1_555
O2 Sr0 2.526473 1_665
O2 Sr0 2.527256 1_655
O3 Sr2 2.526220 1_555
O3 Sr2 2.526473 1_455
O3 Sr2 2.527256 1_445
O4 Sr0 2.526229 1_565
O4 Sr0 2.526482 1_555
O4 Sr0 2.527266 1_665
O5 Sr1 2.526220 1_555
O5 Sr1 2.526474 1_665
O5 Sr1 2.527256 1_565
