# generated using pymatgen
data_Rb2LaMgNb2O8
_symmetry_space_group_name_H-M   'P 1'
_cell_length_a   3.98018509
_cell_length_b   3.98018509
_cell_length_c   16.63144319
_cell_angle_alpha   90.00000000
_cell_angle_beta   90.00000000
_cell_angle_gamma   90.00000000
_symmetry_Int_Tables_number   1
_chemical_formula_structural   Rb2LaMgNb2O8
_chemical_formula_sum   'Rb2 La1 Mg1 Nb2 O8'
_cell_volume   263.47321665
_cell_formula_units_Z   1
loop_
 _symmetry_equiv_pos_site_id
 _symmetry_equiv_pos_as_xyz
  1  'x, y, z'
loop_
 _atom_site_type_symbol
 _atom_site_label
 _atom_site_symmetry_multiplicity
 _atom_site_fract_x
 _atom_site_fract_y
 _atom_site_fract_z
 _atom_site_occupancy
  Rb  Rb0  1  0.00000000  0.00000000  0.56042661  1
  Rb  Rb1  1  0.00000000  0.00000000  0.36523445  1
  La  La0  1  -0.00000000  0.00000000  0.02530998  1
  Mg  Mg0  1  -0.00000000  0.00000000  0.79720844  1
  Nb  Nb0  1  0.50000000  0.50000000  0.87441246  1
  Nb  Nb1  1  0.50000000  0.50000000  0.15028053  1
  O  O0  1  0.50000000  0.50000000  0.48404520  1
  O  O1  1  0.50000000  0.50000000  0.76002188  1
  O  O2  1  0.50000000  0.50000000  0.25763791  1
  O  O3  1  0.50000000  0.50000000  0.00251513  1
  O  O4  1  0.50000000  0.00000000  0.87994007  1
  O  O5  1  0.00000000  0.50000000  0.87994007  1
  O  O6  1  0.50000000  0.00000000  0.11767413  1
  O  O7  1  0.00000000  0.50000000  0.11767413  1
loop_
_geom_bond_atom_site_label_1
_geom_bond_atom_site_label_2
_geom_bond_distance
_geom_bond_site_symmetry_2
La0 O7 2.514005 1_555
La0 O6 2.514005 1_455
La0 O7 2.514005 1_545
La0 O6 2.514005 1_555
La0 O3 2.839835 1_555
La0 O3 2.839835 1_455
La0 O3 2.839835 1_545
La0 O3 2.839835 1_445
La0 O4 3.131421 1_454
La0 O5 3.131421 1_554
La0 O5 3.131421 1_544
La0 O4 3.131421 1_554
Mg0 O4 2.419441 1_555
Mg0 O5 2.419441 1_555
Mg0 O5 2.419441 1_545
Mg0 O4 2.419441 1_455
Nb0 O1 1.902480 1_555
Nb0 O5 1.992215 1_655
Nb0 O4 1.992215 1_565
Nb0 O4 1.992215 1_555
Nb0 O5 1.992215 1_555
Nb0 O3 2.130532 1_556
Nb1 O2 1.785508 1_555
Nb1 O6 2.062656 1_555
Nb1 O6 2.062656 1_565
Nb1 O7 2.062656 1_655
Nb1 O7 2.062656 1_555
Nb1 O3 2.457552 1_555
O0 Rb0 3.087828 1_565
O0 Rb0 3.087828 1_655
O0 Rb0 3.087828 1_665
O0 Rb0 3.087828 1_555
O0 Rb1 3.438821 1_555
O0 Rb1 3.438821 1_565
O0 Rb1 3.438821 1_655
O0 Rb1 3.438821 1_665
O2 Rb1 3.335146 1_655
O2 Rb1 3.335146 1_565
O2 Rb1 3.335146 1_665
O2 Rb1 3.335146 1_555
