# generated using pymatgen
data_Sn2P2SO12
_symmetry_space_group_name_H-M   'P 1'
_cell_length_a   8.74378504
_cell_length_b   8.76605400
_cell_length_c   22.65366064
_cell_angle_alpha   89.74773808
_cell_angle_beta   90.00000000
_cell_angle_gamma   119.91600097
_symmetry_Int_Tables_number   1
_chemical_formula_structural   Sn2P2SO12
_chemical_formula_sum   'Sn12 P12 S6 O72'
_cell_volume   1504.99137506
_cell_formula_units_Z   6
loop_
 _symmetry_equiv_pos_site_id
 _symmetry_equiv_pos_as_xyz
  1  'x, y, z'
loop_
 _atom_site_type_symbol
 _atom_site_label
 _atom_site_symmetry_multiplicity
 _atom_site_fract_x
 _atom_site_fract_y
 _atom_site_fract_z
 _atom_site_occupancy
  Sn  Sn0  1  0.99952795  0.00034260  0.35409645  1
  Sn  Sn1  1  0.00081466  0.00034260  0.85409645  1
  Sn  Sn2  1  0.99361286  0.00379032  0.64586051  1
  Sn  Sn3  1  0.01017746  0.00379032  0.14586051  1
  Sn  Sn4  1  0.66619495  0.33367560  0.68742945  1
  Sn  Sn5  1  0.66748166  0.33367560  0.18742945  1
  Sn  Sn6  1  0.66027986  0.33712332  0.97919351  1
  Sn  Sn7  1  0.67684446  0.33712332  0.47919351  1
  Sn  Sn8  1  0.33286095  0.66700960  0.02076345  1
  Sn  Sn9  1  0.33414766  0.66700960  0.52076345  1
  Sn  Sn10  1  0.32694586  0.67045732  0.31252751  1
  Sn  Sn11  1  0.34351046  0.67045732  0.81252751  1
  P  P0  1  0.29123449  0.00167035  0.25033164  1
  P  P1  1  0.00047598  0.29013337  0.24990547  1
  P  P2  1  0.28965740  0.29013337  0.74990547  1
  P  P3  1  0.71043586  0.00167035  0.75033164  1
  P  P4  1  0.95790149  0.33500335  0.58366464  1
  P  P5  1  0.66714298  0.62346637  0.58323847  1
  P  P6  1  0.95632440  0.62346637  0.08323847  1
  P  P7  1  0.37710286  0.33500335  0.08366464  1
  P  P8  1  0.62456749  0.66833735  0.91699864  1
  P  P9  1  0.33380898  0.95680037  0.91657247  1
  P  P10  1  0.62299040  0.95680037  0.41657247  1
  P  P11  1  0.04376886  0.66833735  0.41699864  1
  S  S0  1  0.70814455  0.70957534  0.24984143  1
  S  S1  1  0.00143079  0.70957534  0.74984143  1
  S  S2  1  0.37481155  0.04290834  0.58317443  1
  S  S3  1  0.66809779  0.04290834  0.08317443  1
  S  S4  1  0.04147755  0.37624234  0.91650843  1
  S  S5  1  0.33476379  0.37624234  0.41650843  1
  O  O0  1  0.20940334  0.03558588  0.30547018  1
  O  O1  1  0.81901611  0.78472010  0.30292890  1
  O  O2  1  0.96456769  0.17360922  0.30538684  1
  O  O3  1  0.20904153  0.17360922  0.80538684  1
  O  O4  1  0.96570399  0.78472010  0.80292890  1
  O  O5  1  0.82618254  0.03558588  0.80547018  1
  O  O6  1  0.78835059  0.96288557  0.69540316  1
  O  O7  1  0.17496364  0.20768925  0.69456924  1
  O  O8  1  0.03523389  0.82035313  0.69651149  1
  O  O9  1  0.78511924  0.82035313  0.19651149  1
  O  O10  1  0.03272561  0.20768925  0.19456924  1
  O  O11  1  0.17453497  0.96288557  0.19540316  1
  O  O12  1  0.87607034  0.36891888  0.63880318  1
  O  O13  1  0.48568311  0.11805310  0.63626190  1
  O  O14  1  0.63123469  0.50694222  0.63871984  1
  O  O15  1  0.87570853  0.50694222  0.13871984  1
  O  O16  1  0.63237099  0.11805310  0.13626190  1
  O  O17  1  0.49284954  0.36891888  0.13880318  1
  O  O18  1  0.45501759  0.29621857  0.02873616  1
  O  O19  1  0.84163064  0.54102225  0.02790224  1
  O  O20  1  0.70190089  0.15368613  0.02984449  1
  O  O21  1  0.45178624  0.15368613  0.52984449  1
  O  O22  1  0.69939261  0.54102225  0.52790224  1
  O  O23  1  0.84120197  0.29621857  0.52873616  1
  O  O24  1  0.54273634  0.70225288  0.97213718  1
  O  O25  1  0.15234911  0.45138710  0.96959590  1
  O  O26  1  0.29790069  0.84027622  0.97205384  1
  O  O27  1  0.54237453  0.84027622  0.47205384  1
  O  O28  1  0.29903699  0.45138710  0.46959590  1
  O  O29  1  0.15951554  0.70225288  0.47213718  1
  O  O30  1  0.12168359  0.62955257  0.36207016  1
  O  O31  1  0.50829664  0.87435625  0.36123624  1
  O  O32  1  0.36856689  0.48702013  0.36317849  1
  O  O33  1  0.11845224  0.48702013  0.86317849  1
  O  O34  1  0.36605861  0.87435625  0.86123624  1
  O  O35  1  0.50786797  0.62955257  0.86207016  1
  O  O36  1  0.02486293  0.83194316  0.40835985  1
  O  O37  1  0.80615773  0.97564618  0.40850108  1
  O  O38  1  0.17620444  0.20132533  0.40980694  1
  O  O39  1  0.02512089  0.20132533  0.90980694  1
  O  O40  1  0.16948845  0.97564618  0.90850108  1
  O  O41  1  0.80708023  0.83194316  0.90835985  1
  O  O42  1  0.97725947  0.17151429  0.59048238  1
  O  O43  1  0.19969859  0.02411185  0.59089193  1
  O  O44  1  0.83269166  0.80510406  0.59165252  1
  O  O45  1  0.97241239  0.80510406  0.09165252  1
  O  O46  1  0.82441326  0.02411185  0.09089193  1
  O  O47  1  0.19425481  0.17151429  0.09048238  1
  O  O48  1  0.69152993  0.16527616  0.74169285  1
  O  O49  1  0.47282473  0.30897918  0.74183408  1
  O  O50  1  0.84287144  0.53465833  0.74313994  1
  O  O51  1  0.69178789  0.53465833  0.24313994  1
  O  O52  1  0.83615545  0.30897918  0.24183408  1
  O  O53  1  0.47374723  0.16527616  0.24169285  1
  O  O54  1  0.64392647  0.50484729  0.92381538  1
  O  O55  1  0.86636559  0.35744485  0.92422493  1
  O  O56  1  0.49935866  0.13843706  0.92498552  1
  O  O57  1  0.63907939  0.13843706  0.42498552  1
  O  O58  1  0.49108026  0.35744485  0.42422493  1
  O  O59  1  0.86092181  0.50484729  0.42381538  1
  O  O60  1  0.35819593  0.49861016  0.07502685  1
  O  O61  1  0.13949073  0.64231318  0.07516808  1
  O  O62  1  0.50953744  0.86799233  0.07647394  1
  O  O63  1  0.35845389  0.86799233  0.57647394  1
  O  O64  1  0.50282145  0.64231318  0.57516808  1
  O  O65  1  0.14041323  0.49861016  0.57502685  1
  O  O66  1  0.31059247  0.83818129  0.25714938  1
  O  O67  1  0.53303159  0.69077885  0.25755893  1
  O  O68  1  0.16602466  0.47177106  0.25831952  1
  O  O69  1  0.30574539  0.47177106  0.75831952  1
  O  O70  1  0.15774626  0.69077885  0.75755893  1
  O  O71  1  0.52758781  0.83818129  0.75714938  1
loop_
_geom_bond_atom_site_label_1
_geom_bond_atom_site_label_2
_geom_bond_distance
_geom_bond_site_symmetry_2
O0 P0 1.541438 1_555
O0 Sn0 2.026819 1_455
O1 S0 1.479878 1_555
O1 Sn0 2.109745 1_565
O2 P1 1.546105 1_655
O2 Sn0 2.016520 1_555
O3 P2 1.546105 1_555
O3 Sn1 2.016520 1_555
O4 S1 1.479878 1_655
O4 Sn1 2.109745 1_665
O5 P3 1.541438 1_555
O5 Sn1 2.026820 1_655
O6 P3 1.537154 1_565
O6 Sn2 1.990958 1_565
O7 P2 1.544186 1_555
O7 Sn2 2.029053 1_455
O8 S1 1.480977 1_555
O8 Sn2 2.145281 1_465
O9 S0 1.480977 1_555
O9 Sn3 2.145281 1_665
O10 P1 1.544186 1_555
O10 Sn3 2.029053 1_555
O11 P0 1.537154 1_565
O11 Sn3 1.990958 1_565
O12 P4 1.541438 1_555
O12 Sn4 2.026819 1_555
O13 S2 1.479878 1_555
O13 Sn4 2.109745 1_555
O14 P5 1.546105 1_555
O14 Sn4 2.016520 1_555
O15 P6 1.546105 1_555
O15 Sn5 2.016520 1_555
O16 S3 1.479878 1_555
O16 Sn5 2.109745 1_555
O17 P7 1.541438 1_555
O17 Sn5 2.026820 1_555
O18 P7 1.537154 1_555
O18 Sn6 1.990958 1_554
O19 P6 1.544186 1_555
O19 Sn6 2.029053 1_554
O20 S3 1.480977 1_555
O20 Sn6 2.145281 1_554
O21 S2 1.480977 1_555
O21 Sn7 2.145281 1_555
O22 P5 1.544186 1_555
O22 Sn7 2.029053 1_555
O23 P4 1.537154 1_555
O23 Sn7 1.990958 1_555
O24 P8 1.541438 1_555
O24 Sn8 2.026819 1_556
O25 S4 1.479878 1_555
O25 Sn8 2.109745 1_556
O26 P9 1.546105 1_555
O26 Sn8 2.016520 1_556
O27 P10 1.546105 1_555
O27 Sn9 2.016520 1_555
O28 S5 1.479878 1_555
O28 Sn9 2.109745 1_555
O29 P11 1.541438 1_555
O29 Sn9 2.026820 1_555
O30 P11 1.537154 1_555
O30 Sn10 1.990958 1_555
O31 P10 1.544186 1_555
O31 Sn10 2.029053 1_555
O32 S5 1.480977 1_555
O32 Sn10 2.145281 1_555
O33 S4 1.480977 1_555
O33 Sn11 2.145281 1_555
O34 P9 1.544186 1_555
O34 Sn11 2.029053 1_555
O35 P8 1.537154 1_555
O35 Sn11 1.990958 1_555
O36 P11 1.535089 1_555
O36 Sn0 2.012344 1_465
O37 P10 1.536747 1_555
O37 Sn0 2.014234 1_565
O38 S5 1.475774 1_555
O38 Sn0 2.094768 1_455
O39 S4 1.475778 1_555
O39 Sn1 2.094768 1_555
O40 P9 1.536738 1_555
O40 Sn1 2.014234 1_565
O41 P8 1.535095 1_555
O41 Sn1 2.012344 1_665
O42 P4 1.531812 1_555
O42 Sn2 1.987319 1_555
O43 S2 1.466367 1_555
O43 Sn2 2.123042 1_455
O44 P5 1.539680 1_555
O44 Sn2 2.023787 1_565
O45 P6 1.539684 1_555
O45 Sn3 2.023787 1_665
O46 S3 1.466359 1_555
O46 Sn3 2.123042 1_655
O47 P7 1.531817 1_555
O47 Sn3 1.987319 1_555
O48 P3 1.535089 1_555
O48 Sn4 2.012344 1_555
O49 P2 1.536747 1_555
O49 Sn4 2.014234 1_555
O50 S1 1.475774 1_655
O50 Sn4 2.094768 1_555
O51 S0 1.475778 1_555
O51 Sn5 2.094768 1_555
O52 P1 1.536738 1_655
O52 Sn5 2.014234 1_555
O53 P0 1.535095 1_555
O53 Sn5 2.012344 1_555
O54 P8 1.531823 1_555
O54 Sn6 1.987319 1_555
O55 S4 1.466353 1_655
O55 Sn6 2.123042 1_555
O56 P9 1.539676 1_545
O56 Sn6 2.023787 1_555
O57 P10 1.539669 1_545
O57 Sn7 2.023787 1_555
O58 S5 1.466370 1_555
O58 Sn7 2.123042 1_555
O59 P11 1.531813 1_655
O59 Sn7 1.987319 1_555
O60 P7 1.535100 1_555
O60 Sn8 2.012344 1_555
O61 P6 1.536732 1_455
O61 Sn8 2.014234 1_555
O62 S3 1.475770 1_565
O62 Sn8 2.094768 1_555
O63 S2 1.475763 1_565
O63 Sn9 2.094768 1_555
O64 P5 1.536749 1_555
O64 Sn9 2.014234 1_555
O65 P4 1.535090 1_455
O65 Sn9 2.012344 1_555
O66 P0 1.531812 1_565
O66 Sn10 1.987319 1_555
O67 S0 1.466367 1_555
O67 Sn10 2.123042 1_555
O68 P1 1.539680 1_555
O68 Sn10 2.023787 1_555
O69 P2 1.539684 1_555
O69 Sn11 2.023787 1_555
O70 S1 1.466359 1_555
O70 Sn11 2.123042 1_555
O71 P3 1.531817 1_565
O71 Sn11 1.987319 1_555
