# generated using pymatgen
data_Er5C2Br9
_symmetry_space_group_name_H-M   'P 1'
_cell_length_a   16.26426961
_cell_length_b   9.94759633
_cell_length_c   13.26853258
_cell_angle_alpha   58.19367217
_cell_angle_beta   90.00000000
_cell_angle_gamma   90.00000000
_symmetry_Int_Tables_number   1
_chemical_formula_structural   Er5C2Br9
_chemical_formula_sum   'Er20 C8 Br36'
_cell_volume   1824.35758222
_cell_formula_units_Z   4
loop_
 _symmetry_equiv_pos_site_id
 _symmetry_equiv_pos_as_xyz
  1  'x, y, z'
loop_
 _atom_site_type_symbol
 _atom_site_label
 _atom_site_symmetry_multiplicity
 _atom_site_fract_x
 _atom_site_fract_y
 _atom_site_fract_z
 _atom_site_occupancy
  Er  Er0  1  0.81268700  0.21034593  0.94624178  1
  Er  Er1  1  0.31268700  0.78965407  0.55375822  1
  Er  Er2  1  0.18731300  0.78965407  0.05375822  1
  Er  Er3  1  0.68731300  0.21034593  0.44624178  1
  Er  Er4  1  0.94312865  0.99059372  0.26307188  1
  Er  Er5  1  0.44312865  0.00940628  0.23692812  1
  Er  Er6  1  0.05687135  0.00940628  0.73692812  1
  Er  Er7  1  0.55687135  0.99059372  0.76307188  1
  Er  Er8  1  0.44106447  0.64302441  0.81104418  1
  Er  Er9  1  0.94106447  0.35697559  0.68895582  1
  Er  Er10  1  0.55893553  0.35697559  0.18895582  1
  Er  Er11  1  0.05893553  0.64302441  0.31104418  1
  Er  Er12  1  0.46136169  0.16252488  0.46558622  1
  Er  Er13  1  0.96136169  0.83747512  0.03441378  1
  Er  Er14  1  0.53863831  0.83747512  0.53441378  1
  Er  Er15  1  0.03863831  0.16252488  0.96558622  1
  Er  Er16  1  0.33926514  0.98951082  0.71976061  1
  Er  Er17  1  0.83926514  0.01048918  0.78023939  1
  Er  Er18  1  0.66073486  0.01048918  0.28023939  1
  Er  Er19  1  0.16073486  0.98951082  0.21976061  1
  C  C0  1  0.41064023  0.87390975  0.61780991  1
  C  C1  1  0.91064023  0.12609025  0.88219009  1
  C  C2  1  0.58935977  0.12609025  0.38219009  1
  C  C3  1  0.08935977  0.87390975  0.11780991  1
  C  C4  1  0.97094551  0.07316572  0.83056795  1
  C  C5  1  0.47094551  0.92683428  0.66943205  1
  C  C6  1  0.02905449  0.92683428  0.16943205  1
  C  C7  1  0.52905449  0.07316572  0.33056795  1
  Br  Br0  1  0.31766623  0.69756636  0.93797066  1
  Br  Br1  1  0.81766623  0.30243364  0.56202934  1
  Br  Br2  1  0.68233377  0.30243364  0.06202934  1
  Br  Br3  1  0.18233377  0.69756636  0.43797066  1
  Br  Br4  1  0.43392410  0.08968481  0.84684375  1
  Br  Br5  1  0.93392410  0.91031519  0.65315625  1
  Br  Br6  1  0.56607590  0.91031519  0.15315625  1
  Br  Br7  1  0.06607590  0.08968481  0.34684375  1
  Br  Br8  1  0.56153858  0.53122394  0.73714544  1
  Br  Br9  1  0.06153858  0.46877606  0.76285456  1
  Br  Br10  1  0.43846142  0.46877606  0.26285456  1
  Br  Br11  1  0.93846142  0.53122394  0.23714544  1
  Br  Br12  1  0.32792530  0.28465513  0.53068909  1
  Br  Br13  1  0.82792530  0.71534487  0.96931091  1
  Br  Br14  1  0.67207470  0.71534487  0.46931091  1
  Br  Br15  1  0.17207470  0.28465513  0.03068909  1
  Br  Br16  1  0.30813787  0.90588087  0.13963146  1
  Br  Br17  1  0.80813787  0.09411913  0.36036854  1
  Br  Br18  1  0.69186213  0.09411913  0.86036854  1
  Br  Br19  1  0.19186213  0.90588087  0.63963146  1
  Br  Br20  1  0.20149703  0.08444578  0.82666343  1
  Br  Br21  1  0.70149703  0.91555422  0.67333657  1
  Br  Br22  1  0.79850297  0.91555422  0.17333657  1
  Br  Br23  1  0.29850297  0.08444578  0.32666343  1
  Br  Br24  1  0.18296311  0.49694943  0.25241424  1
  Br  Br25  1  0.68296311  0.50305057  0.24758576  1
  Br  Br26  1  0.81703689  0.50305057  0.74758576  1
  Br  Br27  1  0.31703689  0.49694943  0.75241424  1
  Br  Br28  1  0.05846926  0.32070515  0.53980811  1
  Br  Br29  1  0.55846926  0.67929485  0.96019189  1
  Br  Br30  1  0.94153074  0.67929485  0.46019189  1
  Br  Br31  1  0.44153074  0.32070515  0.03980811  1
  Br  Br32  1  0.07111714  0.70007965  0.94107100  1
  Br  Br33  1  0.57111714  0.29992035  0.55892900  1
  Br  Br34  1  0.92888286  0.29992035  0.05892900  1
  Br  Br35  1  0.42888286  0.70007965  0.44107100  1
loop_
_geom_bond_atom_site_label_1
_geom_bond_atom_site_label_2
_geom_bond_distance
_geom_bond_site_symmetry_2
C0 C5 1.445149 1_555
C0 Er1 2.171106 1_555
C0 Er8 2.426189 1_555
C0 Er14 2.472331 1_555
C0 Er16 2.477828 1_555
C0 Er12 2.624937 1_565
C1 C4 1.445149 1_555
C1 Er0 2.171106 1_555
C1 Er9 2.426189 1_555
C1 Er15 2.472331 1_655
C1 Er17 2.477828 1_555
C1 Er13 2.624937 1_546
C2 C7 1.445149 1_555
C2 Er3 2.171106 1_555
C2 Er10 2.426189 1_555
C2 Er12 2.472331 1_555
C2 Er18 2.477828 1_555
C2 Er14 2.624937 1_545
C3 C6 1.445149 1_555
C3 Er2 2.171106 1_555
C3 Er11 2.426189 1_555
C3 Er13 2.472331 1_455
C3 Er19 2.477828 1_555
C3 Er15 2.624937 1_564
C4 Er6 2.174793 1_655
C4 Er17 2.420818 1_555
C4 Er9 2.479031 1_555
C4 Er13 2.480395 1_546
C4 Er15 2.624954 1_655
C5 Er7 2.174793 1_555
C5 Er16 2.420818 1_555
C5 Er8 2.479031 1_555
C5 Er12 2.480395 1_565
C5 Er14 2.624954 1_555
C6 Er4 2.174793 1_455
C6 Er19 2.420818 1_555
C6 Er11 2.479031 1_555
C6 Er15 2.480395 1_564
C6 Er13 2.624954 1_455
C7 Er5 2.174793 1_555
C7 Er18 2.420818 1_555
C7 Er10 2.479031 1_555
C7 Er14 2.480395 1_545
C7 Er12 2.624954 1_555
Br0 Er16 2.842014 1_555
Br0 Er8 2.849880 1_555
Br0 Er2 3.029486 1_556
Br1 Er17 2.842014 1_555
Br1 Er9 2.849880 1_555
Br1 Er3 3.029486 1_555
Br2 Er18 2.842014 1_555
Br2 Er10 2.849880 1_555
Br2 Er0 3.029486 1_554
Br3 Er19 2.842014 1_555
Br3 Er11 2.849880 1_555
Br3 Er1 3.029486 1_555
Br4 Er7 2.713053 1_545
Br4 Er16 2.824486 1_545
Br5 Er6 2.713053 1_665
Br5 Er17 2.824486 1_565
Br6 Er5 2.713053 1_565
Br6 Er18 2.824486 1_565
Br7 Er4 2.713053 1_445
Br7 Er19 2.824486 1_545
Br8 Er8 2.680882 1_555
Br8 Er14 2.831489 1_555
Br9 Er9 2.680882 1_455
Br9 Er15 2.831489 1_555
Br10 Er10 2.680882 1_555
Br10 Er12 2.831489 1_555
Br11 Er11 2.680882 1_655
Br11 Er13 2.831489 1_555
Br12 Er16 2.680224 1_545
Br12 Er12 2.835202 1_555
Br13 Er17 2.680224 1_565
Br13 Er13 2.835202 1_556
Br14 Er18 2.680224 1_565
Br14 Er14 2.835202 1_555
Br15 Er19 2.680224 1_545
Br15 Er15 2.835202 1_554
Br16 Er2 2.808089 1_555
Br16 Er19 2.915879 1_555
Br16 Er5 2.991478 1_565
Br17 Er3 2.808089 1_555
Br17 Er18 2.915879 1_555
Br17 Er4 2.991478 1_545
Br18 Er0 2.808089 1_555
Br18 Er17 2.915879 1_555
Br18 Er7 2.991478 1_545
Br19 Er1 2.808089 1_555
Br19 Er16 2.915879 1_555
Br19 Er6 2.991478 1_565
Br20 Er2 2.901356 1_546
Br20 Er6 2.905980 1_555
Br20 Er16 3.055579 1_545
Br20 Er15 3.539236 1_555
Br21 Er3 2.901356 1_565
Br21 Er7 2.905980 1_555
Br21 Er17 3.055579 1_565
Br21 Er14 3.539236 1_555
Br22 Er0 2.901356 1_564
Br22 Er4 2.905980 1_555
Br22 Er18 3.055579 1_565
Br22 Er13 3.539236 1_555
Br23 Er1 2.901356 1_545
Br23 Er5 2.905980 1_555
Br23 Er19 3.055579 1_545
Br23 Er12 3.539236 1_555
Br24 Er2 2.709387 1_555
Br24 Er11 2.824429 1_555
Br25 Er3 2.709387 1_555
Br25 Er10 2.824429 1_555
Br26 Er0 2.709387 1_555
Br26 Er9 2.824429 1_555
Br27 Er1 2.709387 1_555
Br27 Er8 2.824429 1_555
Br28 Er6 2.809515 1_555
Br28 Er9 2.906090 1_455
Br28 Er11 3.038923 1_555
Br29 Er7 2.809515 1_555
Br29 Er8 2.906090 1_555
Br29 Er10 3.038923 1_556
Br30 Er4 2.809515 1_555
Br30 Er11 2.906090 1_655
Br30 Er9 3.038923 1_555
Br31 Er5 2.809515 1_555
Br31 Er10 2.906090 1_555
Br31 Er8 3.038923 1_554
Br32 Er2 2.829389 1_556
Br32 Er6 2.841344 1_565
Br32 Er13 2.893586 1_456
Br33 Er3 2.829389 1_555
Br33 Er7 2.841344 1_545
Br33 Er12 2.893586 1_555
Br34 Er0 2.829389 1_554
Br34 Er4 2.841344 1_545
Br34 Er15 2.893586 1_654
Br35 Er1 2.829389 1_555
Br35 Er5 2.841344 1_565
Br35 Er14 2.893586 1_555
