# generated using pymatgen
data_MgFe(CoO3)2
_symmetry_space_group_name_H-M   'P 1'
_cell_length_a   6.73399449
_cell_length_b   3.10796893
_cell_length_c   6.24380314
_cell_angle_alpha   90.00731510
_cell_angle_beta   108.12261319
_cell_angle_gamma   76.60926439
_symmetry_Int_Tables_number   1
_chemical_formula_structural   MgFe(CoO3)2
_chemical_formula_sum   'Mg1 Fe1 Co2 O6'
_cell_volume   120.45194810
_cell_formula_units_Z   1
loop_
 _symmetry_equiv_pos_site_id
 _symmetry_equiv_pos_as_xyz
  1  'x, y, z'
loop_
 _atom_site_type_symbol
 _atom_site_label
 _atom_site_symmetry_multiplicity
 _atom_site_fract_x
 _atom_site_fract_y
 _atom_site_fract_z
 _atom_site_occupancy
  Mg  Mg0  1  0.85692700  0.57025500  0.42121100  1
  Fe  Fe0  1  0.35144300  0.32399400  0.32393500  1
  Co  Co0  1  0.00511700  0.99730000  0.99296400  1
  Co  Co1  1  0.64220100  0.67927400  0.72103800  1
  O  O0  1  0.02672300  0.48711000  0.21704700  1
  O  O1  1  0.36195400  0.81877700  0.54236500  1
  O  O2  1  0.70935400  0.14567200  0.92675400  1
  O  O3  1  0.29126700  0.85416500  0.08790900  1
  O  O4  1  0.66935500  0.16458400  0.43563200  1
  O  O5  1  0.95565900  0.52136800  0.76864700  1
loop_
_geom_bond_atom_site_label_1
_geom_bond_atom_site_label_2
_geom_bond_distance
_geom_bond_site_symmetry_2
Mg0 O0 1.941387 1_655
Mg0 O4 2.000405 1_555
Mg0 O4 2.001393 1_565
Mg0 O5 2.055996 1_555
Fe0 O4 1.973561 1_555
Fe0 O0 2.015606 1_555
Fe0 O1 2.054165 1_545
Fe0 O1 2.054170 1_555
Fe0 O3 2.090511 1_545
Fe0 O3 2.090678 1_555
Co0 O3 1.776171 1_556
Co0 O2 1.847354 1_465
Co0 O5 2.045643 1_465
Co0 O5 2.048907 1_455
Co0 O0 2.064002 1_556
Co0 O0 2.066780 1_566
Co1 O1 1.818076 1_555
Co1 O2 1.973954 1_555
Co1 O2 1.974158 1_565
Co1 O5 1.978551 1_555
Co1 O4 2.411479 1_565
Co1 O4 2.415446 1_555
