# generated using pymatgen
data_LuHg
_symmetry_space_group_name_H-M   'P 1'
_cell_length_a   3.61002979
_cell_length_b   3.61002979
_cell_length_c   3.61002979
_cell_angle_alpha   90.00000000
_cell_angle_beta   90.00000000
_cell_angle_gamma   90.00000000
_symmetry_Int_Tables_number   1
_chemical_formula_structural   LuHg
_chemical_formula_sum   'Lu1 Hg1'
_cell_volume   47.04704569
_cell_formula_units_Z   1
loop_
 _symmetry_equiv_pos_site_id
 _symmetry_equiv_pos_as_xyz
  1  'x, y, z'
loop_
 _atom_site_type_symbol
 _atom_site_label
 _atom_site_symmetry_multiplicity
 _atom_site_fract_x
 _atom_site_fract_y
 _atom_site_fract_z
 _atom_site_occupancy
  Lu  Lu0  1  0.50000000  0.50000000  0.50000000  1
  Hg  Hg0  1  0.00000000  0.00000000  0.00000000  1
loop_
_geom_bond_atom_site_label_1
_geom_bond_atom_site_label_2
_geom_bond_distance
_geom_bond_site_symmetry_2
Hg0 Lu0 3.126378 1_544
Hg0 Lu0 3.126378 1_445
Hg0 Lu0 3.126378 1_554
Hg0 Lu0 3.126378 1_444
Hg0 Lu0 3.126378 1_455
Hg0 Lu0 3.126378 1_454
Hg0 Lu0 3.126378 1_555
Hg0 Lu0 3.126378 1_545
