# generated using pymatgen
data_Ba2MgNb4O12
_symmetry_space_group_name_H-M   'P 1'
_cell_length_a   3.99245869
_cell_length_b   6.62194864
_cell_length_c   10.85011169
_cell_angle_alpha   90.20541364
_cell_angle_beta   90.00209370
_cell_angle_gamma   90.01114381
_symmetry_Int_Tables_number   1
_chemical_formula_structural   Ba2MgNb4O12
_chemical_formula_sum   'Ba2 Mg1 Nb4 O12'
_cell_volume   286.85184547
_cell_formula_units_Z   1
loop_
 _symmetry_equiv_pos_site_id
 _symmetry_equiv_pos_as_xyz
  1  'x, y, z'
loop_
 _atom_site_type_symbol
 _atom_site_label
 _atom_site_symmetry_multiplicity
 _atom_site_fract_x
 _atom_site_fract_y
 _atom_site_fract_z
 _atom_site_occupancy
  Ba  Ba0  1  0.00047287  0.35239488  0.74871920  1
  Ba  Ba1  1  0.99960670  0.81766805  0.24892866  1
  Mg  Mg0  1  0.00012657  0.32492097  0.25098792  1
  Nb  Nb0  1  0.50007485  0.19950385  0.04552189  1
  Nb  Nb1  1  0.50008801  0.19824100  0.45526045  1
  Nb  Nb2  1  0.50023676  0.76338045  0.57175485  1
  Nb  Nb3  1  0.50016884  0.76155987  0.92689209  1
  O  O0  1  0.00000701  0.20810791  0.41495927  1
  O  O1  1  0.49976989  0.89629524  0.39681174  1
  O  O2  1  0.49975319  0.89873433  0.10172039  1
  O  O3  1  -0.00000828  0.20956333  0.08608691  1
  O  O4  1  0.49982408  0.09734226  0.61866829  1
  O  O5  1  -0.00002523  0.76935770  0.57044685  1
  O  O6  1  0.99994603  0.76844675  0.92928733  1
  O  O7  1  0.50009662  0.33577609  0.25021992  1
  O  O8  1  0.50003660  0.48117686  0.98347370  1
  O  O9  1  0.49978578  0.09772587  0.88273403  1
  O  O10  1  0.49995838  0.67304396  0.75011311  1
  O  O11  1  0.50008133  0.48009263  0.51741040  1
loop_
_geom_bond_atom_site_label_1
_geom_bond_atom_site_label_2
_geom_bond_distance
_geom_bond_site_symmetry_2
Ba0 O10 2.912658 1_555
Ba0 O10 2.916039 1_455
Ba0 O4 2.966929 1_555
Ba0 O4 2.969902 1_455
Ba0 O9 2.991816 1_555
Ba0 O9 2.995108 1_455
Ba0 O11 3.317740 1_555
Ba0 O11 3.319708 1_455
Ba0 O8 3.343113 1_555
Ba0 O8 3.345501 1_455
Ba0 O6 3.374928 1_455
Ba0 O5 3.376896 1_555
Ba1 O1 2.612019 1_555
Ba1 O1 2.612771 1_655
Ba1 O2 2.613089 1_555
Ba1 O2 2.613912 1_655
Mg0 O0 1.942534 1_555
Mg0 O3 1.942923 1_555
Mg0 O7 1.997408 1_555
Mg0 O7 1.997675 1_455
Nb0 O9 1.888226 1_554
Nb0 O8 1.985272 1_554
Nb0 O3 2.044856 1_655
Nb0 O3 2.045561 1_555
Nb0 O2 2.085020 1_545
Nb0 O7 2.394318 1_555
Nb1 O4 1.896950 1_555
Nb1 O11 1.982215 1_555
Nb1 O0 2.044342 1_655
Nb1 O0 2.044967 1_555
Nb1 O1 2.095463 1_545
Nb1 O7 2.406936 1_555
Nb2 O11 1.964386 1_555
Nb2 O5 1.995620 1_655
Nb2 O5 1.997726 1_555
Nb2 O10 2.027603 1_555
Nb2 O1 2.095146 1_555
Nb2 O4 2.267524 1_565
Nb3 O8 1.957635 1_555
Nb3 O6 1.996018 1_555
Nb3 O6 1.997816 1_455
Nb3 O10 2.003624 1_555
Nb3 O2 2.100244 1_556
Nb3 O9 2.278730 1_565
