# generated using pymatgen
data_NaLa3TaP3(SO8)3
_symmetry_space_group_name_H-M   'P 1'
_cell_length_a   9.30852888
_cell_length_b   9.30158462
_cell_length_c   24.39348784
_cell_angle_alpha   90.22199203
_cell_angle_beta   90.13994010
_cell_angle_gamma   120.21480495
_symmetry_Int_Tables_number   1
_chemical_formula_structural   NaLa3TaP3(SO8)3
_chemical_formula_sum   'Na3 La9 Ta3 P9 S9 O72'
_cell_volume   1825.11208952
_cell_formula_units_Z   3
loop_
 _symmetry_equiv_pos_site_id
 _symmetry_equiv_pos_as_xyz
  1  'x, y, z'
loop_
 _atom_site_type_symbol
 _atom_site_label
 _atom_site_symmetry_multiplicity
 _atom_site_fract_x
 _atom_site_fract_y
 _atom_site_fract_z
 _atom_site_occupancy
  Na  Na0  1  0.00486676  0.03315433  0.99778880  1
  Na  Na1  1  0.69546891  0.34973831  0.83525836  1
  Na  Na2  1  0.66359681  0.34940527  0.33313769  1
  La  La0  1  0.99912911  0.99628350  0.36046283  1
  La  La1  1  0.99957280  0.00388591  0.85351024  1
  La  La2  1  0.99438249  0.00324250  0.15027239  1
  La  La3  1  0.67301770  0.33786790  0.67253432  1
  La  La4  1  0.66916213  0.32802473  0.97763322  1
  La  La5  1  0.66046061  0.33244037  0.49306102  1
  La  La6  1  0.33439167  0.66046433  0.02916993  1
  La  La7  1  0.34335175  0.66163032  0.30822234  1
  La  La8  1  0.31583573  0.65892025  0.80329920  1
  Ta  Ta0  1  0.00050484  0.99233622  0.64412931  1
  Ta  Ta1  1  0.65954667  0.33231788  0.18143490  1
  Ta  Ta2  1  0.33066337  0.65644211  0.52187703  1
  P  P0  1  0.71405419  0.68305143  0.24943139  1
  P  P1  1  0.99080828  0.71513947  0.74430864  1
  P  P2  1  0.98423331  0.32767881  0.58330189  1
  P  P3  1  0.34744458  0.00944263  0.58285192  1
  P  P4  1  0.66522221  0.65225483  0.58301123  1
  P  P5  1  0.66434000  0.04923568  0.08687829  1
  P  P6  1  0.37999392  0.32900040  0.08503957  1
  P  P7  1  0.04141583  0.37527988  0.91649354  1
  P  P8  1  0.33703384  0.38560363  0.42074509  1
  S  S0  1  0.32093099  0.02582045  0.24832575  1
  S  S1  1  0.96975009  0.29546624  0.24973893  1
  S  S2  1  0.28606122  0.27691394  0.74198636  1
  S  S3  1  0.72002049  0.00508705  0.74248280  1
  S  S4  1  0.94898743  0.61441353  0.08901556  1
  S  S5  1  0.62518360  0.66717662  0.91530913  1
  S  S6  1  0.33074255  0.95746862  0.91632578  1
  S  S7  1  0.61069968  0.94930298  0.42212239  1
  S  S8  1  0.05329104  0.66068644  0.42139943  1
  O  O0  1  0.25200802  0.06236777  0.29777289  1
  O  O1  1  0.82292803  0.75730667  0.30168663  1
  O  O2  1  0.94174613  0.19087210  0.29878675  1
  O  O3  1  0.21355176  0.18944555  0.79388533  1
  O  O4  1  0.97335158  0.79416026  0.79724475  1
  O  O5  1  0.81175472  0.02817288  0.79451808  1
  O  O6  1  0.82439154  0.00515402  0.69507622  1
  O  O7  1  0.17852261  0.17321272  0.69452238  1
  O  O8  1  0.99171958  0.82648278  0.69399197  1
  O  O9  1  0.79399850  0.79227435  0.19951408  1
  O  O10  1  0.00204232  0.22391667  0.20069398  1
  O  O11  1  0.21867238  0.99975361  0.19940351  1
  O  O12  1  0.92305674  0.38599425  0.63176487  1
  O  O13  1  0.46548419  0.07562049  0.63175120  1
  O  O14  1  0.61067436  0.53381660  0.63127341  1
  O  O15  1  0.84363461  0.51091674  0.13764430  1
  O  O16  1  0.66758280  0.16166093  0.13844454  1
  O  O17  1  0.49245602  0.33258515  0.13752651  1
  O  O18  1  0.46423964  0.31612889  0.03356516  1
  O  O19  1  0.85777137  0.54194694  0.03803241  1
  O  O20  1  0.68727506  0.14841502  0.03480445  1
  O  O21  1  0.41201616  0.12996149  0.53456962  1
  O  O22  1  0.71961020  0.58830269  0.53431367  1
  O  O23  1  0.86572048  0.27704568  0.53438450  1
  O  O24  1  0.53800919  0.66729651  0.96605423  1
  O  O25  1  0.13202774  0.47193700  0.96912703  1
  O  O26  1  0.33767623  0.87416818  0.96680053  1
  O  O27  1  0.51243852  0.84615633  0.47024517  1
  O  O28  1  0.33133820  0.49232537  0.47159679  1
  O  O29  1  0.15562188  0.66607281  0.47042700  1
  O  O30  1  0.12963767  0.64641948  0.37057853  1
  O  O31  1  0.51798824  0.87814573  0.37065908  1
  O  O32  1  0.35768491  0.48584676  0.36887515  1
  O  O33  1  0.13823440  0.46508928  0.86373682  1
  O  O34  1  0.32895938  0.86627960  0.86607991  1
  O  O35  1  0.53743317  0.67256436  0.86530932  1
  O  O36  1  0.04679198  0.81696414  0.42094131  1
  O  O37  1  0.77188917  0.95303903  0.42005199  1
  O  O38  1  0.17298708  0.21725152  0.41714702  1
  O  O39  1  0.02160944  0.19851063  0.91997203  1
  O  O40  1  0.17813796  0.97216821  0.91878083  1
  O  O41  1  0.79606162  0.81692023  0.91833209  1
  O  O42  1  0.01516062  0.18325655  0.60155354  1
  O  O43  1  0.16986727  0.98174984  0.60063697  1
  O  O44  1  0.81236871  0.83021398  0.60053598  1
  O  O45  1  0.97444969  0.78320821  0.09412124  1
  O  O46  1  0.81577729  0.02548862  0.09186598  1
  O  O47  1  0.20793384  0.17362793  0.09050154  1
  O  O48  1  0.69504552  0.14967673  0.73684762  1
  O  O49  1  0.45262911  0.29627973  0.73625336  1
  O  O50  1  0.83837233  0.53963135  0.73721646  1
  O  O51  1  0.69489889  0.50561769  0.23644831  1
  O  O52  1  0.81462712  0.30584898  0.24025755  1
  O  O53  1  0.49166713  0.17997473  0.23878080  1
  O  O54  1  0.64054749  0.51519477  0.91246734  1
  O  O55  1  0.86574922  0.35666073  0.91152930  1
  O  O56  1  0.47889460  0.12829836  0.91218073  1
  O  O57  1  0.63778851  0.11999750  0.42797788  1
  O  O58  1  0.48961045  0.36394698  0.42866794  1
  O  O59  1  0.88392203  0.51354306  0.42668640  1
  O  O60  1  0.37740343  0.49095950  0.08909079  1
  O  O61  1  0.10540155  0.61343441  0.09241331  1
  O  O62  1  0.49890984  0.88693074  0.08870245  1
  O  O63  1  0.31745439  0.83370308  0.56367451  1
  O  O64  1  0.51784339  0.68183233  0.56490299  1
  O  O65  1  0.16181009  0.47875949  0.56495163  1
  O  O66  1  0.34966114  0.88664998  0.25619226  1
  O  O67  1  0.53666902  0.64841696  0.25703925  1
  O  O68  1  0.10752390  0.46641268  0.25742049  1
  O  O69  1  0.29237713  0.43820338  0.74093005  1
  O  O70  1  0.15504982  0.71422750  0.74347117  1
  O  O71  1  0.56102030  0.84707422  0.74290287  1
loop_
_geom_bond_atom_site_label_1
_geom_bond_atom_site_label_2
_geom_bond_distance
_geom_bond_site_symmetry_2
Na0 O39 2.403335 1_555
Na0 O40 2.750498 1_545
Na0 O41 2.756205 1_445
Na0 O47 2.804542 1_556
Na0 O46 2.874771 1_456
Na1 O55 2.420747 1_555
Na1 O54 2.636519 1_555
Na1 O56 2.774296 1_555
Na1 O50 2.879662 1_555
Na2 O51 2.713470 1_555
Na2 O53 2.785343 1_555
Na2 O52 2.802783 1_555
Na2 O58 2.882379 1_555
Na2 O59 2.922876 1_555
La0 O38 2.318332 1_665
La0 O37 2.431514 1_555
La0 O36 2.432296 1_655
La0 O1 2.445656 1_555
La0 O2 2.610576 1_565
La0 O0 2.612645 1_665
La1 O4 2.290696 1_545
La1 O39 2.355761 1_655
La1 O5 2.359271 1_555
La1 O3 2.373882 1_655
La1 O41 2.415259 1_545
La1 O40 2.422640 1_645
La2 O9 2.262305 1_545
La2 O46 2.274585 1_555
La2 O47 2.334589 1_655
La2 O10 2.358778 1_655
La2 O45 2.386260 1_545
La2 O11 2.419220 1_645
La3 O50 2.332071 1_555
La3 O12 2.360671 1_555
La3 O14 2.397446 1_555
La3 O13 2.429165 1_555
La3 O48 2.438932 1_555
La3 O49 2.448613 1_555
La4 O20 2.250523 1_556
La4 O18 2.305183 1_556
La4 O55 2.355196 1_555
La4 O19 2.379291 1_556
La4 O56 2.406006 1_555
La4 O54 2.472846 1_555
La5 O58 2.354342 1_555
La5 O21 2.358616 1_555
La5 O22 2.374803 1_555
La5 O23 2.432641 1_555
La5 O57 2.454412 1_555
La5 O59 2.509351 1_555
La6 O25 2.326074 1_554
La6 O60 2.330885 1_555
La6 O62 2.368555 1_555
La6 O24 2.420886 1_554
La6 O61 2.489520 1_555
La6 O26 2.495875 1_554
La7 O67 2.246003 1_555
La7 O32 2.262213 1_555
La7 O68 2.368371 1_555
La7 O31 2.384796 1_555
La7 O66 2.427415 1_555
La7 O30 2.454474 1_555
La8 O33 2.278097 1_555
La8 O70 2.324801 1_555
La8 O34 2.412351 1_555
La8 O69 2.469854 1_555
La8 O35 2.505774 1_555
La8 O71 2.541376 1_555
O0 S0 1.483977 1_555
O1 P0 1.552841 1_555
O2 S1 1.483659 1_555
O3 S2 1.476382 1_555
O4 P1 1.532314 1_555
O5 S3 1.481382 1_555
O6 S3 1.511974 1_555
O6 Ta0 2.109908 1_645
O7 S2 1.512235 1_555
O7 Ta0 2.062913 1_545
O8 P1 1.606316 1_555
O8 Ta0 1.937551 1_655
O9 P0 1.523711 1_555
O10 S1 1.470216 1_455
O11 S0 1.465927 1_565
O12 P2 1.524888 1_555
O13 P3 1.521910 1_555
O14 P4 1.519025 1_555
O15 S4 1.536211 1_555
O15 Ta1 1.998682 1_555
O16 P5 1.623140 1_555
O16 Ta1 1.931867 1_555
O17 P6 1.641426 1_555
O17 Ta1 1.887369 1_555
O18 P6 1.517921 1_555
O19 S4 1.460919 1_555
O20 P5 1.523934 1_555
O21 P3 1.529909 1_555
O22 P4 1.523763 1_555
O23 P2 1.526100 1_555
O24 S5 1.482079 1_555
O25 P7 1.546190 1_555
O26 S6 1.475754 1_555
O27 S7 1.505271 1_555
O27 Ta2 2.141426 1_555
O28 P8 1.603339 1_555
O28 Ta2 1.957010 1_555
O29 S8 1.511986 1_555
O29 Ta2 2.091848 1_555
O30 S8 1.468834 1_555
O31 S7 1.473830 1_555
O32 P8 1.528804 1_555
O33 P7 1.556433 1_555
O34 S6 1.483128 1_555
O35 S5 1.481256 1_555
O36 S8 1.485079 1_555
O37 S7 1.484242 1_555
O38 P8 1.543772 1_555
O39 P7 1.562288 1_555
O40 S6 1.495329 1_555
O41 S5 1.498104 1_555
O42 P2 1.574471 1_455
O42 Ta0 2.005510 1_545
O43 P3 1.600857 1_565
O43 Ta0 1.945321 1_555
O44 P4 1.583841 1_555
O44 Ta0 1.947368 1_655
O45 S4 1.469887 1_555
O46 P5 1.537366 1_555
O47 P6 1.531151 1_555
O48 S3 1.482466 1_555
O49 S2 1.475198 1_555
O50 P1 1.540639 1_555
O51 P0 1.598577 1_555
O51 Ta1 1.988662 1_555
O52 S1 1.512203 1_555
O52 Ta1 2.133953 1_555
O53 S0 1.531943 1_555
O53 Ta1 2.050399 1_555
O54 S5 1.492148 1_555
O55 P7 1.559605 1_655
O56 S6 1.494435 1_545
O57 S7 1.483234 1_545
O58 P8 1.543372 1_555
O59 S8 1.485271 1_655
O60 P6 1.521591 1_555
O61 S4 1.462740 1_455
O62 P5 1.521007 1_565
O63 P3 1.582091 1_565
O63 Ta2 1.991199 1_555
O64 P4 1.590824 1_555
O64 Ta2 1.941179 1_555
O65 P2 1.605632 1_455
O65 Ta2 1.926915 1_555
O66 S0 1.460892 1_565
O67 P0 1.526839 1_555
O68 S1 1.467052 1_455
O69 S2 1.471868 1_555
O70 P1 1.533319 1_455
O71 S3 1.470250 1_565
