# generated using pymatgen
data_Sm4MgTi2Mn2O12
_symmetry_space_group_name_H-M   'P 1'
_cell_length_a   5.81606745
_cell_length_b   5.99891145
_cell_length_c   8.07712856
_cell_angle_alpha   87.20165844
_cell_angle_beta   85.00265183
_cell_angle_gamma   91.17893792
_symmetry_Int_Tables_number   1
_chemical_formula_structural   Sm4MgTi2Mn2O12
_chemical_formula_sum   'Sm4 Mg1 Ti2 Mn2 O12'
_cell_volume   280.31829450
_cell_formula_units_Z   1
loop_
 _symmetry_equiv_pos_site_id
 _symmetry_equiv_pos_as_xyz
  1  'x, y, z'
loop_
 _atom_site_type_symbol
 _atom_site_label
 _atom_site_symmetry_multiplicity
 _atom_site_fract_x
 _atom_site_fract_y
 _atom_site_fract_z
 _atom_site_occupancy
  Sm  Sm0  1  0.89234000  0.89565700  0.64999500  1
  Sm  Sm1  1  0.46426100  0.43393700  0.74333200  1
  Sm  Sm2  1  0.03211300  0.06727900  0.20117000  1
  Sm  Sm3  1  0.52156200  0.58212900  0.23987400  1
  Mg  Mg0  1  0.29171800  0.94332100  0.81155500  1
  Ti  Ti0  1  0.47648400  0.02740300  0.47780300  1
  Ti  Ti1  1  0.01323100  0.52278200  0.99769900  1
  Mn  Mn0  1  0.98250100  0.43185100  0.50072600  1
  Mn  Mn1  1  0.58135200  0.05115400  0.02783100  1
  O  O0  1  0.86785500  0.53808400  0.74712900  1
  O  O1  1  0.59791000  0.07312900  0.76097800  1
  O  O2  1  0.13832900  0.44490000  0.25934500  1
  O  O3  1  0.38888100  0.95384900  0.25512500  1
  O  O4  1  0.77675300  0.84537200  0.40077500  1
  O  O5  1  0.74940400  0.33217900  0.08684200  1
  O  O6  1  0.18122300  0.16910500  0.59533300  1
  O  O7  1  0.32007200  0.67303600  0.95815200  1
  O  O8  1  0.22109300  0.20808200  0.94996200  1
  O  O9  1  0.32937700  0.75413000  0.59927300  1
  O  O10  1  0.84268200  0.81151500  0.03737500  1
  O  O11  1  0.63085800  0.32443800  0.45805600  1
loop_
_geom_bond_atom_site_label_1
_geom_bond_atom_site_label_2
_geom_bond_distance
_geom_bond_site_symmetry_2
Mg0 O1 1.931261 1_565
Mg0 O7 1.978837 1_555
Mg0 O8 2.015276 1_565
Mg0 O9 2.100197 1_555
Mg0 O6 2.301745 1_565
Mn0 O2 2.074379 1_655
Mn0 O6 2.124938 1_655
Mn0 O0 2.172988 1_555
Mn0 O11 2.192488 1_555
Mn1 O5 2.028888 1_555
Mn1 O3 2.115358 1_545
Mn1 O10 2.117120 1_545
Mn1 O1 2.146625 1_554
Mn1 O8 2.434134 1_554
O0 Sm0 2.245149 1_555
O0 Ti1 2.258899 1_655
O0 Sm1 2.419773 1_555
O1 Sm0 2.184079 1_545
O1 Sm1 2.316853 1_555
O1 Ti0 2.477937 1_555
O2 Ti1 2.323652 1_554
O2 Sm3 2.349734 1_555
O2 Sm2 2.414745 1_555
O3 Ti0 1.979177 1_565
O3 Sm2 2.268304 1_565
O3 Sm3 2.379970 1_555
O4 Ti0 2.141238 1_565
O4 Sm0 2.209465 1_555
O4 Sm2 2.422624 1_665
O4 Sm3 2.612596 1_555
O5 Ti1 1.958378 1_654
O5 Sm3 2.347233 1_555
O5 Sm2 2.512043 1_655
O6 Ti0 2.104187 1_555
O6 Sm0 2.322798 1_445
O6 Sm1 2.661485 1_555
O7 Ti1 1.976282 1_555
O7 Sm1 2.410447 1_555
O7 Sm3 2.686695 1_556
O8 Ti1 2.293031 1_555
O8 Sm2 2.333333 1_556
O8 Sm1 2.431155 1_555
O9 Ti0 2.005259 1_565
O9 Sm1 2.379427 1_555
O10 Ti1 2.038687 1_654
O10 Sm2 2.387640 1_665
O10 Sm3 2.683133 1_555
O11 Ti0 1.971842 1_555
O11 Sm3 2.422608 1_555
O11 Sm1 2.542583 1_555
