# generated using pymatgen
data_Mg3BN3
_symmetry_space_group_name_H-M   'P 1'
_cell_length_a   3.56454790
_cell_length_b   3.56454790
_cell_length_c   16.16081500
_cell_angle_alpha   90.00000000
_cell_angle_beta   90.00000000
_cell_angle_gamma   119.99999805
_symmetry_Int_Tables_number   1
_chemical_formula_structural   Mg3BN3
_chemical_formula_sum   'Mg6 B2 N6'
_cell_volume   177.82909076
_cell_formula_units_Z   2
loop_
 _symmetry_equiv_pos_site_id
 _symmetry_equiv_pos_as_xyz
  1  'x, y, z'
loop_
 _atom_site_type_symbol
 _atom_site_label
 _atom_site_symmetry_multiplicity
 _atom_site_fract_x
 _atom_site_fract_y
 _atom_site_fract_z
 _atom_site_occupancy
  Mg  Mg0  1  0.33333300  0.66666700  0.37750300  1
  Mg  Mg1  1  0.66666700  0.33333300  0.87750300  1
  Mg  Mg2  1  0.66666700  0.33333300  0.62249700  1
  Mg  Mg3  1  0.33333300  0.66666700  0.12249700  1
  Mg  Mg4  1  0.00000000  0.00000000  0.75000000  1
  Mg  Mg5  1  0.00000000  0.00000000  0.25000000  1
  B  B0  1  0.00000000  0.00000000  0.50000000  1
  B  B1  1  0.00000000  0.00000000  0.00000000  1
  N  N0  1  0.00000000  0.00000000  0.41663100  1
  N  N1  1  0.00000000  0.00000000  0.91663100  1
  N  N2  1  0.00000000  0.00000000  0.58336900  1
  N  N3  1  0.00000000  0.00000000  0.08336900  1
  N  N4  1  0.33333300  0.66666700  0.25000000  1
  N  N5  1  0.66666700  0.33333300  0.75000000  1
loop_
_geom_bond_atom_site_label_1
_geom_bond_atom_site_label_2
_geom_bond_distance
_geom_bond_site_symmetry_2
Mg0 N4 2.060552 1_555
Mg0 N0 2.152947 1_565
Mg0 N0 2.152950 1_665
Mg0 N0 2.152950 1_555
Mg1 N5 2.060552 1_555
Mg1 N1 2.152947 1_655
Mg1 N1 2.152950 1_665
Mg1 N1 2.152950 1_555
Mg2 N5 2.060552 1_555
Mg2 N2 2.152947 1_655
Mg2 N2 2.152950 1_665
Mg2 N2 2.152950 1_555
Mg3 N4 2.060552 1_555
Mg3 N3 2.152947 1_565
Mg3 N3 2.152950 1_665
Mg3 N3 2.152950 1_555
Mg4 N5 2.057991 1_455
Mg4 N5 2.057994 1_445
Mg4 N5 2.057994 1_555
Mg5 N4 2.057991 1_545
Mg5 N4 2.057994 1_555
Mg5 N4 2.057994 1_445
B0 N0 1.347311 1_555
B0 N2 1.347311 1_555
B1 N3 1.347311 1_555
B1 N1 1.347311 1_554
