# generated using pymatgen
data_MgTi4Cr2O10
_symmetry_space_group_name_H-M   'P 1'
_cell_length_a   5.20895756
_cell_length_b   5.78330441
_cell_length_c   7.38001053
_cell_angle_alpha   107.09286086
_cell_angle_beta   90.44103712
_cell_angle_gamma   115.46520298
_symmetry_Int_Tables_number   1
_chemical_formula_structural   MgTi4Cr2O10
_chemical_formula_sum   'Mg1 Ti4 Cr2 O10'
_cell_volume   189.52767155
_cell_formula_units_Z   1
loop_
 _symmetry_equiv_pos_site_id
 _symmetry_equiv_pos_as_xyz
  1  'x, y, z'
loop_
 _atom_site_type_symbol
 _atom_site_label
 _atom_site_symmetry_multiplicity
 _atom_site_fract_x
 _atom_site_fract_y
 _atom_site_fract_z
 _atom_site_occupancy
  Mg  Mg0  1  0.81204500  0.61523600  0.58163300  1
  Ti  Ti0  1  0.61785800  0.25223900  0.19890800  1
  Ti  Ti1  1  0.35072700  0.73685500  0.28233600  1
  Ti  Ti2  1  0.61530200  0.20702000  0.72045400  1
  Ti  Ti3  1  0.37574100  0.74254300  0.80760500  1
  Cr  Cr0  1  0.99758000  0.99613600  0.00405900  1
  Cr  Cr1  1  0.04379100  0.07701400  0.49463800  1
  O  O0  1  0.80671200  0.97399000  0.73540100  1
  O  O1  1  0.20900600  0.00277900  0.24479300  1
  O  O2  1  0.24901400  0.83644000  0.55330000  1
  O  O3  1  0.41007200  0.14011500  0.93956600  1
  O  O4  1  0.72759700  0.19226100  0.44516300  1
  O  O5  1  0.57586600  0.84472700  0.06661500  1
  O  O6  1  0.42869500  0.43050300  0.68086000  1
  O  O7  1  0.97400700  0.55226400  0.80988400  1
  O  O8  1  0.60821900  0.58358000  0.33132900  1
  O  O9  1  0.02276800  0.42046700  0.17753000  1
loop_
_geom_bond_atom_site_label_1
_geom_bond_atom_site_label_2
_geom_bond_distance
_geom_bond_site_symmetry_2
Mg0 O8 2.043757 1_555
Mg0 O0 2.063801 1_555
Mg0 O7 2.069990 1_555
Mg0 O6 2.076768 1_555
Mg0 O2 2.126445 1_655
Mg0 O4 2.193471 1_555
Cr0 O3 2.060775 1_664
Cr0 O1 2.064971 1_665
Cr0 O5 2.098690 1_555
Cr0 O0 2.155657 1_554
Cr0 O9 2.356305 1_665
Cr0 O7 2.494419 1_554
Cr1 O1 2.049773 1_555
Cr1 O4 2.089998 1_455
Cr1 O6 2.206632 1_555
Cr1 O2 2.211756 1_545
Cr1 O0 2.249574 1_445
O0 Ti2 2.015863 1_565
O0 Ti3 2.229115 1_555
O1 Ti1 2.051964 1_545
O1 Ti0 2.094710 1_555
O2 Ti1 2.052550 1_555
O2 Ti2 2.156065 1_565
O2 Ti3 2.267422 1_555
O3 Ti0 1.972349 1_556
O3 Ti2 1.986483 1_555
O3 Ti3 2.143486 1_545
O4 Ti0 2.067601 1_555
O4 Ti2 2.106261 1_555
O4 Ti1 2.427251 1_545
O5 Ti3 1.966030 1_554
O5 Ti1 2.069420 1_555
O5 Ti0 2.180873 1_565
O6 Ti3 1.909823 1_555
O6 Ti2 1.999669 1_555
O7 Ti3 1.903018 1_655
O7 Ti2 1.977793 1_555
O8 Ti0 1.900584 1_555
O8 Ti1 1.979606 1_555
O9 Ti1 1.823292 1_555
O9 Ti0 1.936689 1_455
