# generated using pymatgen
data_TaGaSi(SO6)2
_symmetry_space_group_name_H-M   'P 1'
_cell_length_a   8.67938270
_cell_length_b   8.72360341
_cell_length_c   22.49272866
_cell_angle_alpha   89.30741470
_cell_angle_beta   90.00000000
_cell_angle_gamma   119.83245713
_symmetry_Int_Tables_number   1
_chemical_formula_structural   TaGaSi(SO6)2
_chemical_formula_sum   'Ta6 Ga6 Si6 S12 O72'
_cell_volume   1477.22312315
_cell_formula_units_Z   6
loop_
 _symmetry_equiv_pos_site_id
 _symmetry_equiv_pos_as_xyz
  1  'x, y, z'
loop_
 _atom_site_type_symbol
 _atom_site_label
 _atom_site_symmetry_multiplicity
 _atom_site_fract_x
 _atom_site_fract_y
 _atom_site_fract_z
 _atom_site_occupancy
  Ta  Ta0  1  0.00651578  0.01695693  0.64185748  1
  Ta  Ta1  1  0.01044116  0.01695693  0.14185748  1
  Ta  Ta2  1  0.65473315  0.32607121  0.97434455  1
  Ta  Ta3  1  0.67133907  0.32607121  0.47434455  1
  Ta  Ta4  1  0.33355486  0.66832260  0.30847028  1
  Ta  Ta5  1  0.33476674  0.66832260  0.80847028  1
  Ga  Ga0  1  0.97763792  0.01091796  0.35592030  1
  Ga  Ga1  1  0.03328004  0.01091796  0.85592030  1
  Ga  Ga2  1  0.67312062  0.34138149  0.68687270  1
  Ga  Ga3  1  0.66826186  0.34138149  0.18687270  1
  Ga  Ga4  1  0.32670623  0.66228850  0.02241827  1
  Ga  Ga5  1  0.33558127  0.66228850  0.52241827  1
  Si  Si0  1  0.98441410  0.28614011  0.24977706  1
  Si  Si1  1  0.30172601  0.28614011  0.74977706  1
  Si  Si2  1  0.96070131  0.35460308  0.58523285  1
  Si  Si3  1  0.39390276  0.35460308  0.08523285  1
  Si  Si4  1  0.31998322  0.93678982  0.91959792  1
  Si  Si5  1  0.61680560  0.93678982  0.41959792  1
  S  S0  1  0.28343726  0.00407963  0.25190302  1
  S  S1  1  0.71853199  0.71077227  0.25101560  1
  S  S2  1  0.99224028  0.71077227  0.75101560  1
  S  S3  1  0.72064237  0.00407963  0.75190302  1
  S  S4  1  0.38225129  0.04318517  0.58370316  1
  S  S5  1  0.66518014  0.62016569  0.58375737  1
  S  S6  1  0.95498655  0.62016569  0.08375737  1
  S  S7  1  0.66093488  0.04318517  0.08370316  1
  S  S8  1  0.62875618  0.67726720  0.91555539  1
  S  S9  1  0.04734644  0.37470300  0.91715751  1
  S  S10  1  0.32735556  0.37470300  0.41715751  1
  S  S11  1  0.04851002  0.67726720  0.41555539  1
  O  O0  1  0.19842662  0.02263777  0.30486520  1
  O  O1  1  0.82625318  0.78834725  0.30406109  1
  O  O2  1  0.96211103  0.16667519  0.30677404  1
  O  O3  1  0.20456416  0.16667519  0.80677404  1
  O  O4  1  0.96209407  0.78834725  0.80406109  1
  O  O5  1  0.82421115  0.02263777  0.80486520  1
  O  O6  1  0.79909319  0.96723638  0.69760853  1
  O  O7  1  0.16711454  0.19234690  0.69123118  1
  O  O8  1  0.02644716  0.82291299  0.69691158  1
  O  O9  1  0.79646583  0.82291299  0.19691158  1
  O  O10  1  0.02523236  0.19234690  0.19123118  1
  O  O11  1  0.16814319  0.96723638  0.19760853  1
  O  O12  1  0.86514838  0.37162205  0.64338406  1
  O  O13  1  0.48798645  0.12302443  0.63629030  1
  O  O14  1  0.63303411  0.50995965  0.63725685  1
  O  O15  1  0.87692654  0.50995965  0.13725685  1
  O  O16  1  0.63503897  0.12302443  0.13629030  1
  O  O17  1  0.50647467  0.37162205  0.14338406  1
  O  O18  1  0.48383932  0.31352830  0.02634445  1
  O  O19  1  0.84414654  0.53969890  0.03010196  1
  O  O20  1  0.70436242  0.16275774  0.02967227  1
  O  O21  1  0.45839632  0.16275774  0.52967227  1
  O  O22  1  0.69555337  0.53969890  0.53010196  1
  O  O23  1  0.82968999  0.31352830  0.52634445  1
  O  O24  1  0.54998121  0.70021989  0.96906585  1
  O  O25  1  0.15747040  0.44693753  0.96969563  1
  O  O26  1  0.30576368  0.82332684  0.97736391  1
  O  O27  1  0.51756216  0.82332684  0.47736391  1
  O  O28  1  0.28946613  0.44693753  0.46969563  1
  O  O29  1  0.15023768  0.70021989  0.46906585  1
  O  O30  1  0.12480320  0.63236423  0.36264209  1
  O  O31  1  0.49151943  0.85138307  0.36012439  1
  O  O32  1  0.36019489  0.49118856  0.36322359  1
  O  O33  1  0.13099267  0.49118856  0.86322359  1
  O  O34  1  0.35986264  0.85138307  0.86012439  1
  O  O35  1  0.50756002  0.63236423  0.86264209  1
  O  O36  1  0.03086229  0.83157431  0.40269705  1
  O  O37  1  0.81118694  0.96262399  0.41258135  1
  O  O38  1  0.18499901  0.19504741  0.40661644  1
  O  O39  1  0.01004840  0.19504741  0.90661644  1
  O  O40  1  0.15143705  0.96262399  0.91258135  1
  O  O41  1  0.80071202  0.83157431  0.90269705  1
  O  O42  1  0.96792343  0.16675307  0.59339784  1
  O  O43  1  0.19894534  0.02401499  0.59034131  1
  O  O44  1  0.83043893  0.79609943  0.59249767  1
  O  O45  1  0.96566051  0.79609943  0.09249767  1
  O  O46  1  0.82506965  0.02401499  0.09034131  1
  O  O47  1  0.19882963  0.16675307  0.09339784  1
  O  O48  1  0.69420009  0.15368367  0.74235202  1
  O  O49  1  0.49175867  0.31047100  0.73530925  1
  O  O50  1  0.84393882  0.53267374  0.74408219  1
  O  O51  1  0.68873592  0.53267374  0.24408219  1
  O  O52  1  0.81871333  0.31047100  0.23530925  1
  O  O53  1  0.45948458  0.15368367  0.24235202  1
  O  O54  1  0.65148913  0.51549441  0.92297483  1
  O  O55  1  0.87439319  0.37219642  0.92533243  1
  O  O56  1  0.50442523  0.13703484  0.92781548  1
  O  O57  1  0.63261061  0.13703484  0.42781548  1
  O  O58  1  0.49780423  0.37219642  0.42533243  1
  O  O59  1  0.86400628  0.51549441  0.42297483  1
  O  O60  1  0.35901684  0.51341967  0.07097211  1
  O  O61  1  0.13318030  0.64577063  0.07669169  1
  O  O62  1  0.51047861  0.86866543  0.07466013  1
  O  O63  1  0.35818583  0.86866543  0.57466013  1
  O  O64  1  0.51258933  0.64577063  0.57669169  1
  O  O65  1  0.15440183  0.51341967  0.57097211  1
  O  O66  1  0.29715563  0.83712709  0.25765183  1
  O  O67  1  0.53744309  0.69772157  0.25854881  1
  O  O68  1  0.16555106  0.47981600  0.26127714  1
  O  O69  1  0.31426394  0.47981600  0.76127714  1
  O  O70  1  0.16027748  0.69772157  0.75854881  1
  O  O71  1  0.53997047  0.83712709  0.75765183  1
loop_
_geom_bond_atom_site_label_1
_geom_bond_atom_site_label_2
_geom_bond_distance
_geom_bond_site_symmetry_2
Ga0 O2 1.797848 1_555
Ga0 O37 1.808408 1_545
Ga0 O38 2.070642 1_655
Ga0 O1 2.091278 1_545
Ga0 O36 2.108887 1_645
Ga0 O0 2.191730 1_655
Ga1 O3 1.797848 1_555
Ga1 O40 1.808408 1_545
Ga1 O39 2.070642 1_555
Ga1 O4 2.091278 1_445
Ga1 O41 2.108887 1_445
Ga1 O5 2.191730 1_455
Ga2 O49 1.818809 1_555
Ga2 O12 1.833184 1_555
Ga2 O14 1.999646 1_555
Ga2 O50 2.056466 1_555
Ga2 O13 2.124144 1_555
Ga2 O48 2.126129 1_555
Ga3 O52 1.818810 1_555
Ga3 O17 1.833184 1_555
Ga3 O15 1.999646 1_555
Ga3 O51 2.056466 1_555
Ga3 O16 2.124144 1_555
Ga3 O53 2.126128 1_555
Ga4 O26 1.803667 1_554
Ga4 O60 1.812721 1_555
Ga4 O61 2.021706 1_555
Ga4 O62 2.088119 1_555
Ga4 O25 2.097980 1_554
Ga4 O24 2.158104 1_554
Ga5 O27 1.803667 1_555
Ga5 O65 1.812721 1_555
Ga5 O64 2.021706 1_555
Ga5 O63 2.088119 1_555
Ga5 O28 2.097980 1_555
Ga5 O29 2.158104 1_555
O0 S0 1.453697 1_555
O1 S1 1.464820 1_555
O2 Si0 1.591896 1_555
O3 Si1 1.591896 1_555
O4 S2 1.464820 1_555
O5 S3 1.453697 1_555
O6 S3 1.511809 1_565
O6 Ta0 2.052232 1_665
O7 Si1 1.686284 1_555
O7 Ta0 1.853767 1_555
O8 S2 1.486058 1_455
O8 Ta0 2.160897 1_565
O9 S1 1.486058 1_555
O9 Ta1 2.160897 1_665
O10 Si0 1.686284 1_455
O10 Ta1 1.853767 1_555
O11 S0 1.511809 1_565
O11 Ta1 2.052232 1_565
O12 Si2 1.596201 1_555
O13 S4 1.452707 1_555
O14 S5 1.468104 1_555
O15 S6 1.468104 1_555
O16 S7 1.452707 1_555
O17 Si3 1.596201 1_555
O18 Si3 1.667915 1_555
O18 Ta2 1.848095 1_554
O19 S6 1.491087 1_555
O19 Ta2 2.181024 1_554
O20 S7 1.511712 1_555
O20 Ta2 2.081270 1_554
O21 S4 1.511712 1_555
O21 Ta3 2.081270 1_555
O22 S5 1.491087 1_555
O22 Ta3 2.181024 1_555
O23 Si2 1.667915 1_555
O23 Ta3 1.848095 1_555
O24 S8 1.448530 1_555
O25 S9 1.458042 1_555
O26 Si4 1.590766 1_555
O27 Si5 1.590766 1_555
O28 S10 1.458042 1_555
O29 S11 1.448530 1_555
O30 S11 1.509223 1_555
O30 Ta4 2.071500 1_555
O31 Si5 1.656829 1_555
O31 Ta4 1.909538 1_555
O32 S10 1.505836 1_555
O32 Ta4 2.065779 1_555
O33 S9 1.505836 1_555
O33 Ta5 2.065779 1_555
O34 Si4 1.656829 1_555
O34 Ta5 1.909538 1_555
O35 S8 1.509223 1_555
O35 Ta5 2.071500 1_555
O36 S11 1.454256 1_555
O37 Si5 1.594643 1_555
O38 S10 1.456523 1_555
O39 S9 1.456526 1_555
O40 Si4 1.594635 1_555
O41 S8 1.454261 1_555
O42 Si2 1.678695 1_555
O42 Ta0 1.846336 1_655
O43 S4 1.521895 1_555
O43 Ta0 2.007958 1_555
O44 S5 1.506183 1_555
O44 Ta0 2.098197 1_665
O45 S6 1.506187 1_555
O45 Ta1 2.098197 1_665
O46 S7 1.521887 1_555
O46 Ta1 2.007958 1_655
O47 Si3 1.678699 1_555
O47 Ta1 1.846336 1_555
O48 S3 1.446823 1_555
O49 Si1 1.587886 1_555
O50 S2 1.452981 1_555
O51 S1 1.452984 1_555
O52 Si0 1.587877 1_555
O53 S0 1.446828 1_555
O54 S8 1.526345 1_555
O54 Ta2 2.016576 1_555
O55 S9 1.501638 1_655
O55 Ta2 2.058652 1_555
O56 Si4 1.695261 1_545
O56 Ta2 1.848773 1_555
O57 Si5 1.695254 1_545
O57 Ta3 1.848773 1_555
O58 S10 1.501655 1_555
O58 Ta3 2.058652 1_555
O59 S11 1.526334 1_655
O59 Ta3 2.016576 1_555
O60 Si3 1.587664 1_555
O61 S6 1.456911 1_455
O62 S7 1.447048 1_565
O63 S4 1.447041 1_565
O64 S5 1.456928 1_555
O65 Si2 1.587654 1_455
O66 S0 1.523174 1_565
O66 Ta4 1.999258 1_555
O67 S1 1.527592 1_555
O67 Ta4 1.999918 1_555
O68 Si0 1.661614 1_455
O68 Ta4 1.900985 1_555
O69 Si1 1.661618 1_555
O69 Ta5 1.900985 1_555
O70 S2 1.527584 1_455
O70 Ta5 1.999918 1_555
O71 S3 1.523179 1_565
O71 Ta5 1.999259 1_555
