# generated using pymatgen
data_Bi2Te4O11
_symmetry_space_group_name_H-M   'P 1'
_cell_length_a   7.98055904
_cell_length_b   6.98183224
_cell_length_c   19.56472908
_cell_angle_alpha   74.04751175
_cell_angle_beta   90.00000000
_cell_angle_gamma   90.00000000
_symmetry_Int_Tables_number   1
_chemical_formula_structural   Bi2Te4O11
_chemical_formula_sum   'Bi8 Te16 O44'
_cell_volume   1048.14484887
_cell_formula_units_Z   4
loop_
 _symmetry_equiv_pos_site_id
 _symmetry_equiv_pos_as_xyz
  1  'x, y, z'
loop_
 _atom_site_type_symbol
 _atom_site_label
 _atom_site_symmetry_multiplicity
 _atom_site_fract_x
 _atom_site_fract_y
 _atom_site_fract_z
 _atom_site_occupancy
  Bi  Bi0  1  0.38852693  0.34133789  0.58489671  1
  Bi  Bi1  1  0.88852693  0.65866211  0.91510329  1
  Bi  Bi2  1  0.61147307  0.65866211  0.41510329  1
  Bi  Bi3  1  0.11147307  0.34133789  0.08489671  1
  Bi  Bi4  1  0.38207217  0.84992391  0.07813991  1
  Bi  Bi5  1  0.88207217  0.15007609  0.42186009  1
  Bi  Bi6  1  0.61792783  0.15007609  0.92186009  1
  Bi  Bi7  1  0.11792783  0.84992391  0.57813991  1
  Te  Te0  1  0.35817265  0.18213773  0.42794841  1
  Te  Te1  1  0.85817265  0.81786227  0.07205159  1
  Te  Te2  1  0.64182735  0.81786227  0.57205159  1
  Te  Te3  1  0.14182735  0.18213773  0.92794841  1
  Te  Te4  1  0.41361244  0.51039262  0.74266635  1
  Te  Te5  1  0.91361244  0.48960738  0.75733365  1
  Te  Te6  1  0.58638756  0.48960738  0.25733365  1
  Te  Te7  1  0.08638756  0.51039262  0.24266635  1
  Te  Te8  1  0.38147706  0.66225370  0.92533766  1
  Te  Te9  1  0.88147706  0.33774630  0.57466234  1
  Te  Te10  1  0.61852294  0.33774630  0.07466234  1
  Te  Te11  1  0.11852294  0.66225370  0.42533766  1
  Te  Te12  1  0.33584312  0.96613464  0.25512066  1
  Te  Te13  1  0.83584312  0.03386536  0.24487934  1
  Te  Te14  1  0.66415688  0.03386536  0.74487934  1
  Te  Te15  1  0.16415688  0.96613464  0.75512066  1
  O  O0  1  0.27216309  0.52471438  0.66515969  1
  O  O1  1  0.77216309  0.47528562  0.83484031  1
  O  O2  1  0.72783691  0.47528562  0.33484031  1
  O  O3  1  0.22783691  0.52471438  0.16515969  1
  O  O4  1  0.39851318  0.38543332  0.31212108  1
  O  O5  1  0.89851318  0.61456668  0.18787892  1
  O  O6  1  0.60148682  0.61456668  0.68787892  1
  O  O7  1  0.10148682  0.38543332  0.81212108  1
  O  O8  1  0.48173238  0.36705617  0.46320877  1
  O  O9  1  0.98173238  0.63294383  0.03679123  1
  O  O10  1  0.51826762  0.63294383  0.53679123  1
  O  O11  1  0.01826762  0.36705617  0.96320877  1
  O  O12  1  0.33153526  0.75777645  0.39202676  1
  O  O13  1  0.83153526  0.24222355  0.10797324  1
  O  O14  1  0.66846474  0.24222355  0.60797324  1
  O  O15  1  0.16846474  0.75777645  0.89202676  1
  O  O16  1  0.47511650  0.20523939  0.73197246  1
  O  O17  1  0.42636411  0.90324117  0.95753521  1
  O  O18  1  0.57363589  0.09675883  0.04246479  1
  O  O19  1  0.07363589  0.90324117  0.45753521  1
  O  O20  1  0.34534811  0.79008529  0.75121176  1
  O  O21  1  0.84534811  0.20991471  0.74878824  1
  O  O22  1  0.65465189  0.20991471  0.24878824  1
  O  O23  1  0.15465189  0.79008529  0.25121176  1
  O  O24  1  0.17109028  0.54002616  0.52192260  1
  O  O25  1  0.67109028  0.45997384  0.97807740  1
  O  O26  1  0.82890972  0.45997384  0.47807740  1
  O  O27  1  0.32890972  0.54002616  0.02192260  1
  O  O28  1  0.17438243  0.05642680  0.03070573  1
  O  O29  1  0.67438243  0.94357320  0.46929427  1
  O  O30  1  0.82561757  0.94357320  0.96929427  1
  O  O31  1  0.32561757  0.05642680  0.53070573  1
  O  O32  1  0.15505392  0.32314402  0.41706630  1
  O  O33  1  0.65505392  0.67685598  0.08293370  1
  O  O34  1  0.84494608  0.67685598  0.58293370  1
  O  O35  1  0.34494608  0.32314402  0.91706630  1
  O  O36  1  0.14721475  0.06102136  0.65593101  1
  O  O37  1  0.64721475  0.93897864  0.84406899  1
  O  O38  1  0.85278525  0.93897864  0.34406899  1
  O  O39  1  0.35278525  0.06102136  0.15593101  1
  O  O40  1  0.02488350  0.20523939  0.23197246  1
  O  O41  1  0.52488350  0.79476061  0.26802754  1
  O  O42  1  0.97511650  0.79476061  0.76802754  1
  O  O43  1  0.92636411  0.09675883  0.54246479  1
loop_
_geom_bond_atom_site_label_1
_geom_bond_atom_site_label_2
_geom_bond_distance
_geom_bond_site_symmetry_2
Bi0 O10 2.247142 1_555
Bi0 O14 2.345633 1_555
Bi0 O24 2.348194 1_555
Bi0 O8 2.453306 1_555
Bi0 O0 2.464266 1_555
Bi0 O31 2.548010 1_555
Bi1 O11 2.247142 1_655
Bi1 O15 2.345633 1_655
Bi1 O25 2.348194 1_555
Bi1 O9 2.453306 1_556
Bi1 O1 2.464266 1_555
Bi1 O30 2.548010 1_555
Bi2 O8 2.247142 1_555
Bi2 O12 2.345633 1_555
Bi2 O26 2.348194 1_555
Bi2 O10 2.453306 1_555
Bi2 O2 2.464266 1_555
Bi2 O29 2.548010 1_555
Bi3 O9 2.247142 1_455
Bi3 O13 2.345633 1_455
Bi3 O27 2.348194 1_555
Bi3 O11 2.453306 1_554
Bi3 O3 2.464266 1_555
Bi3 O28 2.548010 1_555
Bi4 O28 2.225244 1_565
Bi4 O18 2.265642 1_565
Bi4 O17 2.312661 1_554
Bi4 O39 2.403379 1_565
Bi4 O33 2.480450 1_555
Bi4 O27 2.716474 1_555
Bi4 O3 2.728406 1_555
Bi5 O29 2.225244 1_545
Bi5 O19 2.265642 1_645
Bi5 O43 2.312661 1_555
Bi5 O38 2.403379 1_545
Bi5 O32 2.480450 1_655
Bi5 O26 2.716474 1_555
Bi5 O2 2.728406 1_555
Bi6 O30 2.225244 1_545
Bi6 O17 2.265642 1_545
Bi6 O18 2.312661 1_556
Bi6 O37 2.403379 1_545
Bi6 O35 2.480450 1_555
Bi6 O25 2.716474 1_555
Bi6 O1 2.728406 1_555
Bi7 O31 2.225244 1_565
Bi7 O43 2.265642 1_465
Bi7 O19 2.312661 1_555
Bi7 O36 2.403379 1_565
Bi7 O34 2.480450 1_455
Bi7 O24 2.716474 1_555
Bi7 O0 2.728406 1_555
O0 Te4 1.870936 1_555
O1 Te5 1.870936 1_555
O2 Te6 1.870936 1_555
O3 Te7 1.870936 1_555
O4 Te6 1.870150 1_555
O4 Te0 2.342131 1_555
O5 Te7 1.870150 1_655
O5 Te1 2.342131 1_555
O6 Te4 1.870150 1_555
O6 Te2 2.342131 1_555
O7 Te5 1.870150 1_455
O7 Te3 2.342131 1_555
O8 Te0 1.898602 1_555
O9 Te1 1.898602 1_555
O10 Te2 1.898602 1_555
O11 Te3 1.898602 1_555
O12 Te11 1.876290 1_555
O12 Te12 2.673964 1_555
O13 Te10 1.876290 1_555
O13 Te13 2.673964 1_555
O14 Te9 1.876290 1_555
O14 Te14 2.673964 1_555
O15 Te8 1.876290 1_555
O15 Te15 2.673964 1_555
O16 Te14 1.898770 1_555
O16 Te4 2.251415 1_555
O17 Te8 1.984607 1_555
O18 Te10 1.984607 1_555
O19 Te11 1.984607 1_555
O20 Te15 1.912919 1_555
O20 Te4 2.077861 1_555
O21 Te14 1.912919 1_555
O21 Te5 2.077861 1_555
O22 Te13 1.912919 1_555
O22 Te6 2.077861 1_555
O23 Te12 1.912919 1_555
O23 Te7 2.077861 1_555
O24 Te11 1.894371 1_555
O25 Te10 1.894371 1_556
O26 Te9 1.894371 1_555
O27 Te8 1.894371 1_554
O28 Te3 1.977297 1_554
O29 Te2 1.977297 1_555
O30 Te1 1.977297 1_556
O31 Te0 1.977297 1_555
O32 Te0 1.878021 1_555
O32 Te11 2.434615 1_555
O33 Te1 1.878021 1_555
O33 Te10 2.434615 1_555
O34 Te2 1.878021 1_555
O34 Te9 2.434615 1_555
O35 Te3 1.878021 1_555
O35 Te8 2.434615 1_555
O36 Te15 1.875228 1_545
O37 Te14 1.875228 1_565
O38 Te13 1.875228 1_565
O39 Te12 1.875228 1_545
O40 Te13 1.898770 1_455
O40 Te7 2.251415 1_555
O41 Te12 1.898770 1_555
O41 Te6 2.251415 1_555
O42 Te15 1.898770 1_655
O42 Te5 2.251415 1_555
O43 Te9 1.984607 1_555
