# generated using pymatgen
data_KMgSb(PO4)2
_symmetry_space_group_name_H-M   'P 1'
_cell_length_a   9.35413632
_cell_length_b   9.35447192
_cell_length_c   9.35544149
_cell_angle_alpha   32.97855416
_cell_angle_beta   32.97880376
_cell_angle_gamma   32.98179635
_symmetry_Int_Tables_number   1
_chemical_formula_structural   KMgSb(PO4)2
_chemical_formula_sum   'K1 Mg1 Sb1 P2 O8'
_cell_volume   215.85634093
_cell_formula_units_Z   1
loop_
 _symmetry_equiv_pos_site_id
 _symmetry_equiv_pos_as_xyz
  1  'x, y, z'
loop_
 _atom_site_type_symbol
 _atom_site_label
 _atom_site_symmetry_multiplicity
 _atom_site_fract_x
 _atom_site_fract_y
 _atom_site_fract_z
 _atom_site_occupancy
  K  K0  1  0.49978800  0.50016000  0.49994300  1
  Mg  Mg0  1  0.36063700  0.35971300  0.35978200  1
  Sb  Sb0  1  0.99300500  0.99239100  0.99253300  1
  P  P0  1  0.74009200  0.73926000  0.73924400  1
  P  P1  1  0.25853200  0.25818300  0.25819200  1
  O  O0  1  0.79687500  0.79563600  0.79582700  1
  O  O1  1  0.00666200  0.45838500  0.68476600  1
  O  O2  1  0.20298600  0.20172100  0.20218100  1
  O  O3  1  0.68563300  0.00597200  0.45839400  1
  O  O4  1  0.24305700  0.03875700  0.57181800  1
  O  O5  1  0.45908400  0.68489200  0.00595800  1
  O  O6  1  0.57209400  0.24298700  0.03872800  1
  O  O7  1  0.03869700  0.57194400  0.24263400  1
loop_
_geom_bond_atom_site_label_1
_geom_bond_atom_site_label_2
_geom_bond_distance
_geom_bond_site_symmetry_2
K0 O2 3.205160 1_565
K0 O2 3.208345 1_556
K0 O2 3.212222 1_655
K0 O0 3.216401 1_455
K0 O0 3.222026 1_554
K0 O0 3.223592 1_545
Mg0 O3 1.936356 1_555
Mg0 O5 1.936525 1_555
Mg0 O1 1.936580 1_555
Mg0 O6 2.457170 1_555
Mg0 O4 2.458909 1_555
Mg0 O7 2.463336 1_555
O0 P0 1.500172 1_555
O1 P0 1.582360 1_455
O1 Sb0 2.562813 1_445
O2 P1 1.484946 1_555
O3 P0 1.582055 1_545
O3 Sb0 2.563239 1_544
O4 P1 1.588924 1_555
O4 Sb0 2.131438 1_445
O5 P0 1.582342 1_554
O5 Sb0 2.563300 1_454
O6 P1 1.589127 1_555
O6 Sb0 2.131758 1_544
O7 P1 1.588731 1_555
O7 Sb0 2.131733 1_454
