# generated using pymatgen
data_MgMoW3(Se3S)2
_symmetry_space_group_name_H-M   'P 1'
_cell_length_a   3.28965300
_cell_length_b   3.28969050
_cell_length_c   45.26134705
_cell_angle_alpha   89.99908391
_cell_angle_beta   89.99476960
_cell_angle_gamma   120.00021045
_symmetry_Int_Tables_number   1
_chemical_formula_structural   MgMoW3(Se3S)2
_chemical_formula_sum   'Mg1 Mo1 W3 Se6 S2'
_cell_volume   424.19184452
_cell_formula_units_Z   1
loop_
 _symmetry_equiv_pos_site_id
 _symmetry_equiv_pos_as_xyz
  1  'x, y, z'
loop_
 _atom_site_type_symbol
 _atom_site_label
 _atom_site_symmetry_multiplicity
 _atom_site_fract_x
 _atom_site_fract_y
 _atom_site_fract_z
 _atom_site_occupancy
  Mg  Mg0  1  0.00001300  0.00013500  0.37652400  1
  Mo  Mo0  1  0.66677800  0.33358000  0.27518700  1
  W  W0  1  0.33302700  0.66596100  0.09392800  1
  W  W1  1  0.33345500  0.66691700  0.47735500  1
  W  W2  1  0.66674400  0.33352600  0.65756100  1
  Se  Se0  1  0.33337100  0.66683500  0.31282700  1
  Se  Se1  1  0.33331500  0.66679100  0.69498400  1
  Se  Se2  1  0.66637200  0.33252100  0.05646200  1
  Se  Se3  1  0.66634600  0.33269400  0.13138500  1
  Se  Se4  1  0.33351200  0.66695300  0.23803400  1
  Se  Se5  1  0.33351700  0.66697500  0.62017000  1
  S  S0  1  0.66684200  0.33361900  0.44334400  1
  S  S1  1  0.66670900  0.33349100  0.51119600  1
loop_
_geom_bond_atom_site_label_1
_geom_bond_atom_site_label_2
_geom_bond_distance
_geom_bond_site_symmetry_2
Mo0 Se4 2.536733 1_655
Mo0 Se4 2.536742 1_555
Mo0 Se4 2.536755 1_545
Mo0 Se0 2.551346 1_555
Mo0 Se0 2.551388 1_655
Mo0 Se0 2.551491 1_545
Se1 W2 2.544793 1_455
Se1 W2 2.544867 1_555
Se1 W2 2.544923 1_565
Se2 W0 2.545846 1_545
Se2 W0 2.546267 1_655
Se2 W0 2.546356 1_555
Se3 W0 2.545761 1_655
Se3 W0 2.545772 1_555
Se3 W0 2.546123 1_545
Se5 W2 2.543747 1_565
Se5 W2 2.543969 1_455
Se5 W2 2.543975 1_555
S0 W1 2.444784 1_555
S0 W1 2.444792 1_545
S0 W1 2.444800 1_655
S1 W1 2.439841 1_545
S1 W1 2.439984 1_655
S1 W1 2.440039 1_555
