# generated using pymatgen
data_MgTe4Mo2(WS2)2
_symmetry_space_group_name_H-M   'P 1'
_cell_length_a   3.38276985
_cell_length_b   3.38246828
_cell_length_c   41.23613913
_cell_angle_alpha   90.00239739
_cell_angle_beta   90.07804327
_cell_angle_gamma   119.99683879
_symmetry_Int_Tables_number   1
_chemical_formula_structural   MgTe4Mo2(WS2)2
_chemical_formula_sum   'Mg1 Te4 Mo2 W2 S4'
_cell_volume   408.62797080
_cell_formula_units_Z   1
loop_
 _symmetry_equiv_pos_site_id
 _symmetry_equiv_pos_as_xyz
  1  'x, y, z'
loop_
 _atom_site_type_symbol
 _atom_site_label
 _atom_site_symmetry_multiplicity
 _atom_site_fract_x
 _atom_site_fract_y
 _atom_site_fract_z
 _atom_site_occupancy
  Mg  Mg0  1  0.32986500  0.66493300  0.38092500  1
  Te  Te0  1  0.33435800  0.66733400  0.70346800  1
  Te  Te1  1  0.66586400  0.33276600  0.04799400  1
  Te  Te2  1  0.66808800  0.33392800  0.13970500  1
  Te  Te3  1  0.33224300  0.66621400  0.61167000  1
  Mo  Mo0  1  0.33073900  0.66532700  0.47431400  1
  Mo  Mo1  1  0.66618300  0.33314700  0.27893700  1
  W  W0  1  0.33362300  0.66668600  0.09384400  1
  W  W1  1  0.66667600  0.33345500  0.65758000  1
  S  S0  1  0.33362800  0.66689500  0.31533600  1
  S  S1  1  0.66327600  0.33157700  0.43723200  1
  S  S2  1  0.66485600  0.33240700  0.51044100  1
  S  S3  1  0.33203000  0.66604500  0.24271900  1
loop_
_geom_bond_atom_site_label_1
_geom_bond_atom_site_label_2
_geom_bond_distance
_geom_bond_site_symmetry_2
Mg0 S0 2.704677 1_555
Mg0 S1 3.032697 1_565
Mg0 S1 3.033033 1_555
Mg0 S1 3.036339 1_455
Te0 W1 2.719273 1_565
Te0 W1 2.719330 1_555
Te0 W1 2.719377 1_455
Te1 W0 2.718095 1_545
Te1 W0 2.718163 1_555
Te1 W0 2.718451 1_655
Te2 W0 2.718425 1_655
Te2 W0 2.718589 1_545
Te2 W0 2.718643 1_555
Te3 W1 2.719900 1_455
Te3 W1 2.719982 1_555
Te3 W1 2.719991 1_565
Mo0 S2 2.456223 1_555
Mo0 S2 2.456242 1_565
Mo0 S2 2.456473 1_455
Mo0 S1 2.480387 1_555
Mo0 S1 2.480394 1_565
Mo0 S1 2.480402 1_455
Mo1 S3 2.458531 1_555
Mo1 S3 2.458569 1_545
Mo1 S3 2.458671 1_655
Mo1 S0 2.463117 1_545
Mo1 S0 2.463133 1_655
Mo1 S0 2.463145 1_555
