# generated using pymatgen
data_CeIn5Ir
_symmetry_space_group_name_H-M   'P 1'
_cell_length_a   4.70367766
_cell_length_b   4.70367870
_cell_length_c   7.51786511
_cell_angle_alpha   90.00000000
_cell_angle_beta   90.00000000
_cell_angle_gamma   90.00000000
_symmetry_Int_Tables_number   1
_chemical_formula_structural   CeIn5Ir
_chemical_formula_sum   'Ce1 In5 Ir1'
_cell_volume   166.32967136
_cell_formula_units_Z   1
loop_
 _symmetry_equiv_pos_site_id
 _symmetry_equiv_pos_as_xyz
  1  'x, y, z'
loop_
 _atom_site_type_symbol
 _atom_site_label
 _atom_site_symmetry_multiplicity
 _atom_site_fract_x
 _atom_site_fract_y
 _atom_site_fract_z
 _atom_site_occupancy
  Ce  Ce0  1  -0.00000000  -0.00000000  -0.00000000  1
  In  In0  1  0.50000000  0.00000000  0.69616259  1
  In  In1  1  0.00000000  0.50000000  0.69616259  1
  In  In2  1  0.50000000  0.50000000  -0.00000000  1
  In  In3  1  -0.00000000  0.50000000  0.30383741  1
  In  In4  1  0.50000000  -0.00000000  0.30383741  1
  Ir  Ir0  1  -0.00000000  -0.00000000  0.50000000  1
loop_
_geom_bond_atom_site_label_1
_geom_bond_atom_site_label_2
_geom_bond_distance
_geom_bond_site_symmetry_2
Ce0 In0 3.278529 1_554
Ce0 In0 3.278529 1_454
Ce0 In4 3.278529 1_455
Ce0 In4 3.278529 1_555
Ce0 In1 3.278530 1_544
Ce0 In1 3.278530 1_554
Ce0 In3 3.278530 1_555
Ce0 In3 3.278530 1_545
Ce0 In2 3.326003 1_455
Ce0 In2 3.326003 1_445
Ce0 In2 3.326003 1_555
Ce0 In2 3.326003 1_545
In0 Ir0 2.775960 1_655
In0 Ir0 2.775960 1_555
In0 In4 2.949448 1_555
In0 In2 3.278530 1_546
In0 In2 3.278530 1_556
In0 In1 3.326003 1_645
In0 In1 3.326003 1_555
In0 In1 3.326003 1_545
In0 In1 3.326003 1_655
In1 Ir0 2.775961 1_555
In1 Ir0 2.775961 1_565
In1 In3 2.949448 1_555
In1 In2 3.278529 1_556
In1 In2 3.278529 1_456
In2 In3 3.278529 1_555
In2 In3 3.278529 1_655
In2 In4 3.278530 1_565
In2 In4 3.278530 1_555
In3 Ir0 2.775961 1_555
In3 Ir0 2.775961 1_565
In3 In4 3.326003 1_455
In3 In4 3.326003 1_555
In3 In4 3.326003 1_565
In3 In4 3.326003 1_465
In4 Ir0 2.775960 1_655
In4 Ir0 2.775960 1_555
