# generated using pymatgen
data_Li3Mn2(PO4)3
_symmetry_space_group_name_H-M   'P 1'
_cell_length_a   4.85264340
_cell_length_b   4.85264340
_cell_length_c   19.12137350
_cell_angle_alpha   89.71546837
_cell_angle_beta   89.71546837
_cell_angle_gamma   68.60014401
_symmetry_Int_Tables_number   1
_chemical_formula_structural   Li3Mn2(PO4)3
_chemical_formula_sum   'Li6 Mn4 P6 O24'
_cell_volume   419.22207053
_cell_formula_units_Z   2
loop_
 _symmetry_equiv_pos_site_id
 _symmetry_equiv_pos_as_xyz
  1  'x, y, z'
loop_
 _atom_site_type_symbol
 _atom_site_label
 _atom_site_symmetry_multiplicity
 _atom_site_fract_x
 _atom_site_fract_y
 _atom_site_fract_z
 _atom_site_occupancy
  Li  Li0  1  0.67611100  0.67611100  0.91299700  1
  Li  Li1  1  0.00019000  0.00019000  0.16596700  1
  Li  Li2  1  0.99981000  0.99981000  0.83403300  1
  Li  Li3  1  0.32457200  0.32457200  0.75453700  1
  Li  Li4  1  0.67542800  0.67542800  0.24546300  1
  Li  Li5  1  0.32388900  0.32388900  0.08700300  1
  Mn  Mn0  1  0.00000000  0.00000000  0.50000000  1
  Mn  Mn1  1  0.00053400  0.00053400  0.33171200  1
  Mn  Mn2  1  0.99946600  0.99946600  0.66828800  1
  Mn  Mn3  1  0.00000000  0.00000000  0.00000000  1
  P  P0  1  0.34635700  0.34635700  0.58382500  1
  P  P1  1  0.65196800  0.65196800  0.74977800  1
  P  P2  1  0.35029900  0.35029900  0.91757700  1
  P  P3  1  0.64970100  0.64970100  0.08242300  1
  P  P4  1  0.34803200  0.34803200  0.25022200  1
  P  P5  1  0.65364300  0.65364300  0.41617500  1
  O  O0  1  0.23259700  0.23259700  0.51921800  1
  O  O1  1  0.24981900  0.24981900  0.18288000  1
  O  O2  1  0.75018100  0.75018100  0.81712000  1
  O  O3  1  0.23926100  0.69611000  0.92169900  1
  O  O4  1  0.69488900  0.23877900  0.25510200  1
  O  O5  1  0.23191900  0.23191900  0.31563400  1
  O  O6  1  0.30672000  0.77509200  0.41714900  1
  O  O7  1  0.76122100  0.30511100  0.74489800  1
  O  O8  1  0.23877900  0.69488900  0.25510200  1
  O  O9  1  0.24746800  0.24746800  0.85151600  1
  O  O10  1  0.75253200  0.75253200  0.14848400  1
  O  O11  1  0.76322100  0.76322100  0.01487700  1
  O  O12  1  0.76073900  0.30389000  0.07830100  1
  O  O13  1  0.22490800  0.69328000  0.58285100  1
  O  O14  1  0.69611000  0.23926100  0.92169900  1
  O  O15  1  0.69328000  0.22490800  0.58285100  1
  O  O16  1  0.76740300  0.76740300  0.48078200  1
  O  O17  1  0.75967500  0.75967500  0.34743000  1
  O  O18  1  0.23677900  0.23677900  0.98512300  1
  O  O19  1  0.30389000  0.76073900  0.07830100  1
  O  O20  1  0.77509200  0.30672000  0.41714900  1
  O  O21  1  0.30511100  0.76122100  0.74489800  1
  O  O22  1  0.76808100  0.76808100  0.68436600  1
  O  O23  1  0.24032500  0.24032500  0.65257000  1
loop_
_geom_bond_atom_site_label_1
_geom_bond_atom_site_label_2
_geom_bond_distance
_geom_bond_site_symmetry_2
Li0 O2 1.923685 1_555
Li0 O11 2.073443 1_556
Li0 O14 2.092250 1_555
Li0 O3 2.092250 1_555
Li1 O10 2.015527 1_445
Li1 O1 2.029282 1_555
Li1 O12 2.253269 1_455
Li1 O19 2.253269 1_545
Li1 O4 2.276638 1_455
Li1 O8 2.276638 1_545
Li2 O9 2.015527 1_665
Li2 O2 2.029282 1_555
Li2 O14 2.253269 1_565
Li2 O3 2.253269 1_655
Li2 O7 2.276638 1_565
Li2 O21 2.276638 1_655
Li3 O9 1.951169 1_555
Li3 O23 2.067266 1_555
Li3 O21 2.093538 1_555
Li3 O7 2.093538 1_555
Li4 O10 1.951169 1_555
Li4 O17 2.067266 1_555
Li4 O8 2.093538 1_555
Li4 O4 2.093538 1_555
Li5 O1 1.923685 1_555
Li5 O18 2.073443 1_554
Li5 O19 2.092250 1_555
Li5 O12 2.092250 1_555
Mn0 O0 1.902877 1_555
Mn0 O16 1.902877 1_445
Mn0 O13 2.173610 1_545
Mn0 O20 2.173610 1_455
Mn0 O6 2.173610 1_545
Mn0 O15 2.173610 1_455
Mn1 O5 1.878610 1_555
Mn1 O17 1.952553 1_445
Mn1 O8 2.106129 1_545
Mn1 O4 2.106129 1_455
Mn1 O20 2.212129 1_455
Mn1 O6 2.212129 1_545
Mn2 O22 1.878610 1_555
Mn2 O23 1.952553 1_665
Mn2 O21 2.106129 1_655
Mn2 O7 2.106129 1_565
Mn2 O15 2.212129 1_565
Mn2 O13 2.212129 1_655
Mn3 O18 1.917882 1_554
Mn3 O11 1.917882 1_445
Mn3 O12 2.125929 1_455
Mn3 O19 2.125929 1_545
Mn3 O3 2.125929 1_544
Mn3 O14 2.125929 1_454
O0 P0 1.539991 1_555
O1 P4 1.513382 1_555
O2 P1 1.513382 1_555
O3 P2 1.566400 1_555
O4 P4 1.572490 1_555
O5 P4 1.554691 1_555
O6 P5 1.567672 1_555
O7 P1 1.572490 1_555
O8 P4 1.572490 1_555
O9 P2 1.512565 1_555
O10 P3 1.512565 1_555
O11 P3 1.575562 1_555
O12 P3 1.566400 1_555
O13 P0 1.567672 1_555
O14 P2 1.566400 1_555
O15 P0 1.567672 1_555
O16 P5 1.539991 1_555
O17 P5 1.561142 1_555
O18 P2 1.575562 1_555
O19 P3 1.566400 1_555
O20 P5 1.567672 1_555
O21 P1 1.572490 1_555
O22 P1 1.554691 1_555
O23 P0 1.561142 1_555
