# generated using pymatgen
data_Na3TaIn3P5SO24
_symmetry_space_group_name_H-M   'P 1'
_cell_length_a   8.90849215
_cell_length_b   8.91420760
_cell_length_c   23.00561694
_cell_angle_alpha   89.74174757
_cell_angle_beta   90.22263369
_cell_angle_gamma   120.05770421
_symmetry_Int_Tables_number   1
_chemical_formula_structural   Na3TaIn3P5SO24
_chemical_formula_sum   'Na9 Ta3 In9 P15 S3 O72'
_cell_volume   1581.22422911
_cell_formula_units_Z   3
loop_
 _symmetry_equiv_pos_site_id
 _symmetry_equiv_pos_as_xyz
  1  'x, y, z'
loop_
 _atom_site_type_symbol
 _atom_site_label
 _atom_site_symmetry_multiplicity
 _atom_site_fract_x
 _atom_site_fract_y
 _atom_site_fract_z
 _atom_site_occupancy
  Na  Na0  1  0.64853653  0.64336270  0.74692593  1
  Na  Na1  1  0.29977470  0.95950222  0.08531565  1
  Na  Na2  1  0.32984118  0.02049781  0.41172143  1
  Na  Na3  1  0.98024783  0.99952155  0.50047563  1
  Na  Na4  1  0.98684850  0.00026004  0.99713716  1
  Na  Na5  1  0.66630046  0.31887186  0.82967499  1
  Na  Na6  1  0.66813660  0.33582789  0.32635013  1
  Na  Na7  1  0.33223466  0.65943120  0.16692410  1
  Na  Na8  1  0.31720474  0.65664274  0.65945822  1
  Ta  Ta0  1  0.66916252  0.33606759  0.97876860  1
  Ta  Ta1  1  0.67654111  0.34349521  0.48228274  1
  Ta  Ta2  1  0.32801750  0.66520102  0.81711719  1
  In  In0  1  0.99898597  0.00144636  0.34979937  1
  In  In1  1  0.00451796  0.00435606  0.85098954  1
  In  In2  1  0.99398155  0.00186377  0.64872669  1
  In  In3  1  0.99928032  0.99942070  0.14444085  1
  In  In4  1  0.67168260  0.33266361  0.68495238  1
  In  In5  1  0.66250303  0.32909879  0.18405007  1
  In  In6  1  0.33349813  0.66079930  0.01713603  1
  In  In7  1  0.33501833  0.65824634  0.51607775  1
  In  In8  1  0.33474130  0.67146121  0.31900039  1
  P  P0  1  0.29878773  0.99772896  0.24970872  1
  P  P1  1  0.29518394  0.29836163  0.75060003  1
  P  P2  1  0.00461947  0.70926687  0.75047445  1
  P  P3  1  0.69913260  0.99752046  0.75234914  1
  P  P4  1  0.96302983  0.33363278  0.58381729  1
  P  P5  1  0.66820425  0.62951936  0.58559900  1
  P  P6  1  0.95640254  0.62248470  0.08300543  1
  P  P7  1  0.66894245  0.04299483  0.08161697  1
  P  P8  1  0.37741068  0.33557145  0.08219152  1
  P  P9  1  0.62739578  0.66536318  0.91691877  1
  P  P10  1  0.03667853  0.37222081  0.91825515  1
  P  P11  1  0.33606246  0.96182937  0.91960733  1
  P  P12  1  0.63309780  0.96756611  0.41928249  1
  P  P13  1  0.33625283  0.36956217  0.41672803  1
  P  P14  1  0.03870095  0.66697310  0.41748587  1
  S  S0  1  0.70055645  0.70230563  0.24987003  1
  S  S1  1  0.00187256  0.29998335  0.24942642  1
  S  S2  1  0.37263555  0.03999934  0.58128938  1
  O  O0  1  0.21235508  0.01357484  0.30599753  1
  O  O1  1  0.79976359  0.78549673  0.30331582  1
  O  O2  1  0.97790522  0.19728516  0.30278371  1
  O  O3  1  0.21989577  0.18905283  0.80487218  1
  O  O4  1  0.96589800  0.78813480  0.80298596  1
  O  O5  1  0.81043316  0.02749869  0.80595662  1
  O  O6  1  0.76476034  0.94439334  0.69833749  1
  O  O7  1  0.18637040  0.22705295  0.69518848  1
  O  O8  1  0.04363266  0.81852122  0.69494394  1
  O  O9  1  0.78289797  0.80609343  0.19681424  1
  O  O10  1  0.01476589  0.21314030  0.19637067  1
  O  O11  1  0.19531510  0.98355690  0.19314260  1
  O  O12  1  0.88021123  0.34994012  0.63934322  1
  O  O13  1  0.47312800  0.12153496  0.63445780  1
  O  O14  1  0.64710270  0.53170058  0.64285591  1
  O  O15  1  0.87700598  0.52092258  0.13846007  1
  O  O16  1  0.63605636  0.11759146  0.13655640  1
  O  O17  1  0.47651313  0.35727769  0.13825892  1
  O  O18  1  0.48186683  0.32091982  0.02804231  1
  O  O19  1  0.84310858  0.52065033  0.02775155  1
  O  O20  1  0.68337252  0.16007524  0.02688309  1
  O  O21  1  0.46875473  0.14564214  0.52817197  1
  O  O22  1  0.67292452  0.51524950  0.53284597  1
  O  O23  1  0.84508124  0.32284556  0.52970823  1
  O  O24  1  0.54773494  0.69322618  0.97071719  1
  O  O25  1  0.14037735  0.44964684  0.97293014  1
  O  O26  1  0.31116412  0.86350074  0.97620535  1
  O  O27  1  0.55233534  0.85720637  0.47343515  1
  O  O28  1  0.30085286  0.44283720  0.47122314  1
  O  O29  1  0.15834342  0.70636364  0.47006642  1
  O  O30  1  0.10443411  0.62212367  0.36292426  1
  O  O31  1  0.51181941  0.90088775  0.36587647  1
  O  O32  1  0.37554301  0.48091246  0.36220271  1
  O  O33  1  0.13338834  0.49286540  0.86437361  1
  O  O34  1  0.35821033  0.85961218  0.86718813  1
  O  O35  1  0.50839323  0.63790394  0.86203516  1
  O  O36  1  0.01358668  0.82460609  0.41109239  1
  O  O37  1  0.81610246  0.99847606  0.41098505  1
  O  O38  1  0.18763764  0.17992427  0.41093617  1
  O  O39  1  0.00598588  0.19048697  0.91020180  1
  O  O40  1  0.18358710  0.99035644  0.91052994  1
  O  O41  1  0.81013230  0.81589280  0.90932217  1
  O  O42  1  0.96932929  0.16405670  0.58204387  1
  O  O43  1  0.20433290  0.03403352  0.58142925  1
  O  O44  1  0.84158435  0.80170820  0.58287113  1
  O  O45  1  0.96718599  0.80162563  0.08162885  1
  O  O46  1  0.83716363  0.03524932  0.08261460  1
  O  O47  1  0.20453665  0.15917594  0.08075300  1
  O  O48  1  0.66416093  0.14744145  0.74511595  1
  O  O49  1  0.48551089  0.33989031  0.74511997  1
  O  O50  1  0.84517407  0.52537431  0.74575950  1
  O  O51  1  0.68808018  0.53005182  0.24711331  1
  O  O52  1  0.84821622  0.32366574  0.24657835  1
  O  O53  1  0.48139922  0.16341433  0.24829757  1
  O  O54  1  0.63392827  0.49185375  0.92339768  1
  O  O55  1  0.85760404  0.36719048  0.92242185  1
  O  O56  1  0.50974442  0.14203239  0.92303577  1
  O  O57  1  0.64767882  0.15116934  0.43017006  1
  O  O58  1  0.50144049  0.34737780  0.42790302  1
  O  O59  1  0.85270951  0.50534155  0.42956302  1
  O  O60  1  0.35154465  0.49101286  0.07694133  1
  O  O61  1  0.14159239  0.65233311  0.07778733  1
  O  O62  1  0.50389288  0.86515450  0.07524152  1
  O  O63  1  0.35389666  0.86715787  0.57703862  1
  O  O64  1  0.50817341  0.64961455  0.57890647  1
  O  O65  1  0.14016269  0.49806089  0.57757221  1
  O  O66  1  0.31564969  0.83263047  0.25268439  1
  O  O67  1  0.52422045  0.67961256  0.25355664  1
  O  O68  1  0.16174002  0.47131336  0.25323567  1
  O  O69  1  0.31553141  0.48533257  0.76192791  1
  O  O70  1  0.16694515  0.68723011  0.76333844  1
  O  O71  1  0.51550124  0.82869238  0.76411191  1
loop_
_geom_bond_atom_site_label_1
_geom_bond_atom_site_label_2
_geom_bond_distance
_geom_bond_site_symmetry_2
Na0 O49 2.343929 1_555
Na0 O50 2.453940 1_555
Na0 O71 2.502218 1_555
Na0 O6 2.592513 1_555
Na0 O69 2.592563 1_555
Na0 O14 2.594537 1_555
Na0 O4 2.766517 1_555
Na0 O35 2.921892 1_555
Na1 O47 2.325814 1_565
Na1 O62 2.367404 1_555
Na1 O61 2.377063 1_555
Na1 O45 2.566799 1_455
Na1 O26 2.674290 1_554
Na1 O11 2.699645 1_555
Na1 O16 2.847560 1_565
Na2 O38 2.329794 1_555
Na2 O36 2.461417 1_545
Na2 O57 2.499059 1_555
Na2 O58 2.551338 1_555
Na2 O31 2.575327 1_545
Na2 O0 2.632851 1_555
Na2 O29 2.770133 1_545
Na2 O21 2.927677 1_555
Na3 O42 2.418919 1_565
Na3 O44 2.456522 1_555
Na3 O37 2.517955 1_555
Na3 O43 2.628545 1_665
Na3 O36 2.691728 1_655
Na3 O38 2.695583 1_665
Na4 O46 2.486952 1_556
Na4 O39 2.566520 1_655
Na4 O45 2.570052 1_546
Na4 O41 2.583439 1_545
Na4 O47 2.590660 1_656
Na4 O40 2.689451 1_645
Na5 O48 2.473319 1_555
Na5 O49 2.586045 1_555
Na5 O50 2.590013 1_555
Na5 O56 2.614121 1_555
Na5 O55 2.624362 1_555
Na5 O54 2.755026 1_555
Na6 O53 2.407145 1_555
Na6 O51 2.453163 1_555
Na6 O52 2.480361 1_555
Na6 O58 2.802924 1_555
Na6 O57 2.848664 1_555
Na6 O59 2.852747 1_555
Na7 O68 2.550249 1_555
Na7 O66 2.560547 1_555
Na7 O67 2.568699 1_555
Na7 O60 2.618853 1_555
Na7 O61 2.638172 1_555
Na7 O62 2.707631 1_555
Na8 O65 2.408769 1_555
Na8 O64 2.542559 1_555
Na8 O63 2.565522 1_555
Na8 O69 2.799016 1_555
Na8 O70 2.823790 1_555
Na8 O71 2.925006 1_555
In0 O0 2.109074 1_655
In0 O2 2.136032 1_555
In0 O1 2.140204 1_545
In0 O37 2.147254 1_545
In0 O38 2.158055 1_655
In0 O36 2.161989 1_645
In1 O3 2.086458 1_555
In1 O4 2.098795 1_445
In1 O5 2.108742 1_455
In1 O39 2.146457 1_555
In1 O40 2.148839 1_545
In1 O41 2.169209 1_445
In2 O7 2.160600 1_655
In2 O6 2.167901 1_545
In2 O8 2.168435 1_645
In2 O42 2.188034 1_555
In2 O44 2.214461 1_545
In2 O43 2.339017 1_655
In3 O11 2.134457 1_655
In3 O46 2.157047 1_565
In3 O45 2.189393 1_555
In3 O9 2.192949 1_555
In3 O10 2.198137 1_665
In3 O47 2.216251 1_665
In4 O12 2.074304 1_555
In4 O14 2.122708 1_555
In4 O48 2.125012 1_555
In4 O50 2.154507 1_555
In4 O13 2.165458 1_555
In4 O49 2.190083 1_555
In5 O17 2.078249 1_555
In5 O16 2.091824 1_555
In5 O15 2.098017 1_555
In5 O53 2.140280 1_555
In5 O52 2.206784 1_555
In5 O51 2.231062 1_555
In6 O25 2.072854 1_554
In6 O24 2.080107 1_554
In6 O60 2.105423 1_555
In6 O26 2.129454 1_554
In6 O62 2.155393 1_555
In6 O61 2.182581 1_555
In7 O28 2.067513 1_555
In7 O27 2.101293 1_555
In7 O29 2.107333 1_555
In7 O65 2.138107 1_555
In7 O64 2.138965 1_555
In7 O63 2.274025 1_555
In8 O30 2.128885 1_555
In8 O32 2.146070 1_555
In8 O31 2.146845 1_555
In8 O66 2.154902 1_555
In8 O67 2.239907 1_555
In8 O68 2.258143 1_555
O0 P0 1.551805 1_545
O1 S0 1.478532 1_555
O2 S1 1.478708 1_655
O3 P1 1.516272 1_555
O4 P2 1.525288 1_655
O5 P3 1.517738 1_545
O6 P3 1.548673 1_555
O7 P1 1.532719 1_555
O8 P2 1.534439 1_555
O9 S0 1.483510 1_555
O10 S1 1.483569 1_555
O11 P0 1.560332 1_555
O12 P4 1.521076 1_555
O13 S2 1.474301 1_555
O14 P5 1.535625 1_555
O15 P6 1.517446 1_555
O16 P7 1.526795 1_555
O17 P8 1.517530 1_555
O18 P8 1.602204 1_555
O18 Ta0 1.968454 1_554
O19 P6 1.594100 1_555
O19 Ta0 1.956391 1_554
O20 P7 1.595730 1_555
O20 Ta0 1.970963 1_554
O21 S2 1.517665 1_555
O21 Ta1 2.092747 1_555
O22 P5 1.602086 1_555
O22 Ta1 1.940115 1_555
O23 P4 1.597675 1_555
O23 Ta1 1.934145 1_555
O24 P9 1.511056 1_555
O25 P10 1.507315 1_555
O26 P11 1.519895 1_555
O27 P12 1.524594 1_555
O28 P13 1.521400 1_555
O29 P14 1.530180 1_555
O30 P14 1.524169 1_555
O31 P12 1.543728 1_555
O32 P13 1.524930 1_555
O33 P10 1.582252 1_555
O33 Ta2 1.969652 1_555
O34 P11 1.585975 1_555
O34 Ta2 1.987776 1_555
O35 P9 1.584447 1_555
O35 Ta2 2.021292 1_555
O36 P14 1.535907 1_555
O37 P12 1.523869 1_555
O38 P13 1.544971 1_555
O39 P10 1.513974 1_555
O40 P11 1.515474 1_555
O41 P9 1.514288 1_555
O42 P4 1.541237 1_555
O43 S2 1.473421 1_555
O44 P5 1.539663 1_555
O45 P6 1.551198 1_555
O46 P7 1.534424 1_555
O47 P8 1.555508 1_555
O48 P3 1.524947 1_545
O49 P1 1.549264 1_555
O50 P2 1.544160 1_655
O51 S0 1.484593 1_555
O52 S1 1.487030 1_655
O53 P0 1.556275 1_545
O54 P9 1.583004 1_555
O54 Ta0 2.016758 1_555
O55 P10 1.576585 1_655
O55 Ta0 2.030417 1_555
O56 P11 1.578296 1_545
O56 Ta0 2.048837 1_555
O57 P12 1.596496 1_545
O57 Ta1 2.004311 1_555
O58 P13 1.599641 1_555
O58 Ta1 2.009491 1_555
O59 P14 1.583348 1_655
O59 Ta1 1.935545 1_555
O60 P8 1.518485 1_555
O61 P6 1.538976 1_455
O62 P7 1.536889 1_565
O63 S2 1.467959 1_565
O64 P5 1.530390 1_555
O65 P4 1.530359 1_455
O66 P0 1.553605 1_555
O67 S0 1.482685 1_555
O68 S1 1.479817 1_555
O69 P1 1.606101 1_555
O69 Ta2 2.008446 1_555
O70 P2 1.580514 1_555
O70 Ta2 1.973452 1_555
O71 P3 1.596179 1_555
O71 Ta2 1.990469 1_555
