# generated using pymatgen
data_NiSe2
_symmetry_space_group_name_H-M   'P 1'
_cell_length_a   6.02597256
_cell_length_b   6.04786403
_cell_length_c   6.00465616
_cell_angle_alpha   90.00245704
_cell_angle_beta   89.99913669
_cell_angle_gamma   89.99975284
_symmetry_Int_Tables_number   1
_chemical_formula_structural   NiSe2
_chemical_formula_sum   'Ni4 Se8'
_cell_volume   218.83526635
_cell_formula_units_Z   4
loop_
 _symmetry_equiv_pos_site_id
 _symmetry_equiv_pos_as_xyz
  1  'x, y, z'
loop_
 _atom_site_type_symbol
 _atom_site_label
 _atom_site_symmetry_multiplicity
 _atom_site_fract_x
 _atom_site_fract_y
 _atom_site_fract_z
 _atom_site_occupancy
  Ni  Ni0  1  0.00000000  -0.00000000  0.00000000  1
  Ni  Ni1  1  0.50000000  -0.00000000  0.50000000  1
  Ni  Ni2  1  0.50000000  0.50000000  0.00000000  1
  Ni  Ni3  1  0.00000000  0.50000000  0.50000000  1
  Se  Se0  1  0.38544456  0.38477606  0.38674452  1
  Se  Se1  1  0.11456467  0.61520584  0.88675844  1
  Se  Se2  1  0.88543324  0.11522982  0.61327133  1
  Se  Se3  1  0.61455821  0.88477358  0.11327574  1
  Se  Se4  1  0.61455544  0.61522394  0.61325548  1
  Se  Se5  1  0.88543533  0.38479416  0.11324156  1
  Se  Se6  1  0.11456676  0.88477018  0.38672867  1
  Se  Se7  1  0.38544179  0.11522642  0.88672426  1
loop_
_geom_bond_atom_site_label_1
_geom_bond_atom_site_label_2
_geom_bond_distance
_geom_bond_site_symmetry_2
Ni0 Se7 2.518540 1_554
Ni0 Se3 2.518540 1_445
Ni0 Se5 2.520830 1_455
Ni0 Se1 2.520830 1_544
Ni0 Se2 2.520903 1_454
Ni0 Se6 2.520903 1_545
Ni1 Se6 2.518494 1_545
Ni1 Se2 2.518494 1_555
Ni1 Se7 2.520784 1_555
Ni1 Se3 2.520784 1_545
Ni1 Se4 2.520796 1_545
Ni1 Se0 2.520796 1_555
Ni2 Se1 2.518428 1_554
Ni2 Se5 2.518428 1_555
Ni2 Se3 2.520771 1_555
Ni2 Se7 2.520771 1_554
Ni2 Se0 2.520944 1_555
Ni2 Se4 2.520944 1_554
Ni3 Se0 2.518497 1_555
Ni3 Se4 2.518497 1_455
Ni3 Se6 2.520808 1_555
Ni3 Se2 2.520808 1_455
Ni3 Se5 2.520970 1_455
Ni3 Se1 2.520970 1_555
Se0 Se4 2.387129 1_555
Se1 Se5 2.387015 1_456
Se2 Se6 2.387328 1_645
Se3 Se7 2.387366 1_564
