# generated using pymatgen
data_Sr3Mg(FeO3)2
_symmetry_space_group_name_H-M   'P 1'
_cell_length_a   4.07083508
_cell_length_b   4.07083539
_cell_length_c   10.80603190
_cell_angle_alpha   100.85705142
_cell_angle_beta   100.85705262
_cell_angle_gamma   90.00000041
_symmetry_Int_Tables_number   1
_chemical_formula_structural   Sr3Mg(FeO3)2
_chemical_formula_sum   'Sr3 Mg1 Fe2 O6'
_cell_volume   172.60400048
_cell_formula_units_Z   1
loop_
 _symmetry_equiv_pos_site_id
 _symmetry_equiv_pos_as_xyz
  1  'x, y, z'
loop_
 _atom_site_type_symbol
 _atom_site_label
 _atom_site_symmetry_multiplicity
 _atom_site_fract_x
 _atom_site_fract_y
 _atom_site_fract_z
 _atom_site_occupancy
  Sr  Sr0  1  0.67930700  0.67930800  0.35861700  1
  Sr  Sr1  1  0.32069100  0.32069200  0.64138400  1
  Sr  Sr2  1  0.49999900  0.50000000  0.00000000  1
  Mg  Mg0  1  0.00000000  0.00000000  0.00000000  1
  Fe  Fe0  1  0.88364500  0.88364300  0.76728900  1
  Fe  Fe1  1  0.11635600  0.11635500  0.23271100  1
  O  O0  1  0.79413600  0.79413600  0.58827100  1
  O  O1  1  0.20586500  0.20586400  0.41172800  1
  O  O2  1  0.92729300  0.42729300  0.85458500  1
  O  O3  1  0.42729200  0.92729400  0.85458500  1
  O  O4  1  0.07270800  0.57270700  0.14541400  1
  O  O5  1  0.57270700  0.07270700  0.14541400  1
loop_
_geom_bond_atom_site_label_1
_geom_bond_atom_site_label_2
_geom_bond_distance
_geom_bond_site_symmetry_2
Mg0 O5 2.537096 1_455
Mg0 O4 2.537096 1_545
Mg0 O5 2.537096 1_555
Mg0 O4 2.537096 1_555
Mg0 O3 2.537100 1_544
Mg0 O2 2.537100 1_444
Mg0 O2 2.537103 1_454
Mg0 O3 2.537103 1_444
Fe0 O0 1.864578 1_555
Fe0 O2 2.229262 1_555
Fe0 O3 2.229265 1_655
Fe0 O3 2.229273 1_555
Fe0 O2 2.229277 1_565
Fe0 Mg0 2.423822 1_666
Fe1 O1 1.864567 1_555
Fe1 O5 2.229271 1_555
Fe1 O4 2.229272 1_545
Fe1 O5 2.229275 1_455
Fe1 O4 2.229275 1_555
Fe1 Mg0 2.423822 1_555
O0 Sr0 2.391982 1_555
O0 Sr1 2.931186 1_665
O0 Sr1 2.931189 1_655
O0 Sr1 2.931194 1_565
O0 Sr1 2.931197 1_555
O1 Sr1 2.392002 1_555
O1 Sr0 2.931179 1_555
O1 Sr0 2.931182 1_545
O1 Sr0 2.931193 1_455
O1 Sr0 2.931196 1_445
O2 Sr2 2.537097 1_656
O2 Sr2 2.537107 1_556
O2 Sr1 3.012312 1_655
O2 Sr1 3.012321 1_555
O3 Sr2 2.537097 1_566
O3 Sr2 2.537107 1_556
O3 Sr1 3.012312 1_565
O3 Sr1 3.012321 1_555
O4 Sr2 2.537089 1_555
O4 Sr2 2.537102 1_455
O4 Sr0 3.012325 1_555
O4 Sr0 3.012339 1_455
O5 Sr2 2.537096 1_555
O5 Sr2 2.537096 1_545
O5 Sr0 3.012331 1_555
O5 Sr0 3.012333 1_545
