# generated using pymatgen
data_MgMn4Zn2O8
_symmetry_space_group_name_H-M   'P 1'
_cell_length_a   6.29217087
_cell_length_b   6.06517707
_cell_length_c   6.17548529
_cell_angle_alpha   59.24506534
_cell_angle_beta   60.32050874
_cell_angle_gamma   67.14026337
_symmetry_Int_Tables_number   1
_chemical_formula_structural   MgMn4Zn2O8
_chemical_formula_sum   'Mg1 Mn4 Zn2 O8'
_cell_volume   173.04846357
_cell_formula_units_Z   1
loop_
 _symmetry_equiv_pos_site_id
 _symmetry_equiv_pos_as_xyz
  1  'x, y, z'
loop_
 _atom_site_type_symbol
 _atom_site_label
 _atom_site_symmetry_multiplicity
 _atom_site_fract_x
 _atom_site_fract_y
 _atom_site_fract_z
 _atom_site_occupancy
  Mg  Mg0  1  0.63452710  0.12033108  0.12963056  1
  Mn  Mn0  1  0.15746800  0.24908119  0.30864987  1
  Mn  Mn1  1  0.61637057  0.13117916  0.63230264  1
  Mn  Mn2  1  0.62304393  0.62391503  0.12749382  1
  Mn  Mn3  1  0.61702565  0.62582051  0.62928640  1
  Zn  Zn0  1  0.09347861  0.00681074  0.91928536  1
  Zn  Zn1  1  0.10339422  0.65040388  0.60192077  1
  O  O0  1  0.41358631  0.31212972  0.40120967  1
  O  O1  1  0.41453916  0.35681205  0.89894537  1
  O  O2  1  0.36900380  0.85841611  0.38105432  1
  O  O3  1  0.79886354  0.41448674  0.41167643  1
  O  O4  1  0.43574542  0.84180537  0.84983741  1
  O  O5  1  0.89701681  0.37828366  0.87360345  1
  O  O6  1  0.85429645  0.87617829  0.36507745  1
  O  O7  1  0.84664342  0.92934447  0.84502747  1
loop_
_geom_bond_atom_site_label_1
_geom_bond_atom_site_label_2
_geom_bond_distance
_geom_bond_site_symmetry_2
Mg0 O1 2.079232 1_554
Mg0 O6 2.101720 1_545
Mg0 O0 2.128053 1_555
Mg0 O5 2.137103 1_554
Mg0 O2 2.167069 1_545
Mg0 O7 2.184072 1_544
Mn0 O3 1.993727 1_455
Mn0 O1 2.126599 1_554
Mn0 O2 2.154373 1_545
Mn0 O0 2.164391 1_555
Mn1 O3 1.927895 1_555
Mn1 O4 1.950181 1_545
Mn1 O0 1.995643 1_555
Mn1 O7 2.045927 1_545
Mn1 O1 2.254005 1_555
Mn1 O6 2.391944 1_545
Mn2 O3 2.113817 1_555
Mn2 O4 2.132838 1_554
Mn2 O0 2.152045 1_555
Mn2 O7 2.177999 1_554
Mn2 O2 2.250019 1_555
Mn2 O5 2.316567 1_554
Mn3 O1 1.947738 1_555
Mn3 O3 1.964065 1_555
Mn3 O4 1.999386 1_555
Mn3 O6 2.002995 1_555
Mn3 O2 2.285257 1_555
Mn3 O5 2.427917 1_555
O0 Zn1 2.578581 1_555
O2 Zn1 1.966236 1_555
O4 Zn0 1.916573 1_565
O5 Zn1 1.975040 1_655
O5 Zn0 2.053119 1_655
O6 Zn1 2.241720 1_655
O6 Zn0 2.250399 1_664
O7 Zn0 2.082284 1_665
O7 Zn1 2.407980 1_655
