# generated using pymatgen
data_Eu(BIr)2
_symmetry_space_group_name_H-M   'P 1'
_cell_length_a   5.57267391
_cell_length_b   5.57267702
_cell_length_c   6.14333247
_cell_angle_alpha   105.34006532
_cell_angle_beta   105.34006320
_cell_angle_gamma   114.62795130
_symmetry_Int_Tables_number   1
_chemical_formula_structural   Eu(BIr)2
_chemical_formula_sum   'Eu2 B4 Ir4'
_cell_volume   151.19084747
_cell_formula_units_Z   2
loop_
 _symmetry_equiv_pos_site_id
 _symmetry_equiv_pos_as_xyz
  1  'x, y, z'
loop_
 _atom_site_type_symbol
 _atom_site_label
 _atom_site_symmetry_multiplicity
 _atom_site_fract_x
 _atom_site_fract_y
 _atom_site_fract_z
 _atom_site_occupancy
  Eu  Eu0  1  0.12500100  0.87500100  0.75000100  1
  Eu  Eu1  1  0.87499900  0.12499900  0.24999900  1
  B  B0  1  0.80082916  0.19917284  0.75000100  1
  B  B1  1  0.55082816  0.44917184  0.24999900  1
  B  B2  1  0.44917184  0.55082816  0.75000100  1
  B  B3  1  0.19917084  0.80082716  0.24999900  1
  Ir  Ir0  1  0.75567811  0.50567811  0.01135522  1
  Ir  Ir1  1  0.50567811  0.75567811  0.51135522  1
  Ir  Ir2  1  0.24432189  0.49432189  0.98864478  1
  Ir  Ir3  1  0.49432189  0.24432189  0.48864478  1
loop_
_geom_bond_atom_site_label_1
_geom_bond_atom_site_label_2
_geom_bond_distance
_geom_bond_site_symmetry_2
Eu0 Ir2 3.065491 1_565
Eu0 Ir2 3.065496 1_555
Eu0 Ir1 3.065496 1_455
Eu0 Ir1 3.065497 1_555
Eu0 Ir3 3.319036 1_565
Eu0 Ir0 3.319037 1_456
Eu0 Ir0 3.319037 1_566
Eu0 Ir3 3.319047 1_455
Eu1 Ir0 3.065491 1_545
Eu1 Ir0 3.065496 1_555
Eu1 Ir3 3.065496 1_655
Eu1 Ir3 3.065497 1_555
Eu1 Ir1 3.319036 1_545
Eu1 Ir2 3.319037 1_654
Eu1 Ir2 3.319037 1_544
Eu1 Ir1 3.319047 1_655
B0 Ir2 2.093278 1_655
B0 Ir1 2.093290 1_545
B0 Ir0 2.163237 1_556
B0 Ir3 2.163244 1_555
B0 Eu0 3.040862 1_645
B0 Eu1 3.149473 1_556
B0 Eu1 3.149485 1_555
B1 Ir0 2.093283 1_555
B1 Ir3 2.093294 1_555
B1 Ir2 2.163237 1_554
B1 Ir1 2.163244 1_555
B1 Eu1 3.040862 1_555
B1 Eu0 3.149470 1_544
B1 Eu0 3.149488 1_655
B2 Ir2 2.093283 1_555
B2 Ir1 2.093294 1_555
B2 Ir0 2.163237 1_556
B2 Ir3 2.163244 1_555
B2 Eu0 3.040862 1_555
B2 Eu1 3.149470 1_566
B2 Eu1 3.149488 1_455
B3 Ir0 2.093278 1_455
B3 Ir3 2.093290 1_565
B3 Ir2 2.163237 1_554
B3 Ir1 2.163244 1_555
B3 Eu1 3.040862 1_465
B3 Eu0 3.149473 1_554
B3 Eu0 3.149485 1_555
