# generated using pymatgen
data_Na3ScSn3(PO4)6
_symmetry_space_group_name_H-M   'P 1'
_cell_length_a   8.81508262
_cell_length_b   8.81661534
_cell_length_c   22.85930625
_cell_angle_alpha   89.95665412
_cell_angle_beta   90.02358894
_cell_angle_gamma   120.23849532
_symmetry_Int_Tables_number   1
_chemical_formula_structural   Na3ScSn3(PO4)6
_chemical_formula_sum   'Na9 Sc3 Sn9 P18 O72'
_cell_volume   1534.87529591
_cell_formula_units_Z   3
loop_
 _symmetry_equiv_pos_site_id
 _symmetry_equiv_pos_as_xyz
  1  'x, y, z'
loop_
 _atom_site_type_symbol
 _atom_site_label
 _atom_site_symmetry_multiplicity
 _atom_site_fract_x
 _atom_site_fract_y
 _atom_site_fract_z
 _atom_site_occupancy
  Na  Na0  1  0.36534802  0.36171487  0.24785194  1
  Na  Na1  1  0.63621554  0.63235764  0.74877990  1
  Na  Na2  1  0.96949836  0.29888404  0.41509465  1
  Na  Na3  1  0.00055965  0.99249804  0.49960107  1
  Na  Na4  1  0.00003633  0.00004022  0.00159776  1
  Na  Na5  1  0.66730386  0.32592284  0.83376044  1
  Na  Na6  1  0.66705894  0.33336646  0.33016221  1
  Na  Na7  1  0.33283307  0.67414572  0.16483793  1
  Na  Na8  1  0.32622799  0.66743289  0.66533296  1
  Sc  Sc0  1  0.99856307  0.99225588  0.35174615  1
  Sc  Sc1  1  0.66727707  0.32709811  0.68501092  1
  Sc  Sc2  1  0.67302039  0.33264946  0.18411047  1
  Sn  Sn0  1  0.00186397  0.00199696  0.85381833  1
  Sn  Sn1  1  0.00178474  0.00200928  0.64712456  1
  Sn  Sn2  1  0.99798658  0.99793371  0.14733800  1
  Sn  Sn3  1  0.66643940  0.33327558  0.98284029  1
  Sn  Sn4  1  0.66162110  0.33409985  0.48331476  1
  Sn  Sn5  1  0.33328382  0.66648477  0.01956034  1
  Sn  Sn6  1  0.33540162  0.66881975  0.51993034  1
  Sn  Sn7  1  0.33483660  0.67410527  0.31436045  1
  Sn  Sn8  1  0.32810889  0.66725288  0.81631229  1
  P  P0  1  0.29060572  0.99822097  0.25001533  1
  P  P1  1  0.70826054  0.70825834  0.25039492  1
  P  P2  1  0.99804311  0.29094257  0.25188313  1
  P  P3  1  0.28996605  0.29095894  0.75074170  1
  P  P4  1  0.00301496  0.71104293  0.75030576  1
  P  P5  1  0.71012103  0.00129149  0.75120706  1
  P  P6  1  0.95987001  0.33335124  0.58301256  1
  P  P7  1  0.37290904  0.03984593  0.58366082  1
  P  P8  1  0.66665505  0.62652507  0.58454196  1
  P  P9  1  0.95983609  0.62673308  0.08297693  1
  P  P10  1  0.66700965  0.04065565  0.08314891  1
  P  P11  1  0.37366431  0.33335708  0.08397004  1
  P  P12  1  0.62524592  0.66542261  0.91652143  1
  P  P13  1  0.03978229  0.37431747  0.91718416  1
  P  P14  1  0.33426799  0.95952733  0.91709149  1
  P  P15  1  0.62418417  0.95888275  0.41785083  1
  P  P16  1  0.33660905  0.37689627  0.41678346  1
  P  P17  1  0.04242381  0.66766551  0.41826230  1
  O  O0  1  0.20782684  0.03075178  0.30397204  1
  O  O1  1  0.81843529  0.79259556  0.30478223  1
  O  O2  1  0.97554390  0.18532012  0.30779181  1
  O  O3  1  0.20899897  0.17876100  0.80583267  1
  O  O4  1  0.96486386  0.79108890  0.80488743  1
  O  O5  1  0.82218924  0.02941145  0.80618541  1
  O  O6  1  0.78633694  0.95713523  0.69652634  1
  O  O7  1  0.17552229  0.21346970  0.69556975  1
  O  O8  1  0.03686724  0.82543838  0.69522777  1
  O  O9  1  0.78463302  0.82140734  0.19474945  1
  O  O10  1  0.04139994  0.21308326  0.19728838  1
  O  O11  1  0.17750649  0.96458135  0.19446763  1
  O  O12  1  0.87449246  0.36248745  0.63623515  1
  O  O13  1  0.48569439  0.12331566  0.63743302  1
  O  O14  1  0.63785456  0.51831489  0.63990486  1
  O  O15  1  0.87744097  0.51441688  0.13700183  1
  O  O16  1  0.63657785  0.12232600  0.13712094  1
  O  O17  1  0.48139167  0.36245675  0.13948387  1
  O  O18  1  0.45334473  0.30039544  0.02821849  1
  O  O19  1  0.84863721  0.54905588  0.02670725  1
  O  O20  1  0.70075227  0.15156054  0.02682012  1
  O  O21  1  0.44961532  0.15035344  0.52714684  1
  O  O22  1  0.70017277  0.54755123  0.52863899  1
  O  O23  1  0.85248722  0.30108895  0.52522857  1
  O  O24  1  0.54175915  0.69897053  0.97014762  1
  O  O25  1  0.15530246  0.45541127  0.97140954  1
  O  O26  1  0.29994524  0.84430671  0.97137041  1
  O  O27  1  0.54291119  0.84604524  0.47267907  1
  O  O28  1  0.29970550  0.46028710  0.47057498  1
  O  O29  1  0.15508367  0.69587913  0.47301500  1
  O  O30  1  0.11848314  0.62290534  0.36352391  1
  O  O31  1  0.50990064  0.88150650  0.36261598  1
  O  O32  1  0.36892445  0.48796768  0.36030791  1
  O  O33  1  0.11790835  0.48620347  0.86110260  1
  O  O34  1  0.36877218  0.88203278  0.86109008  1
  O  O35  1  0.51671631  0.63352242  0.85909296  1
  O  O36  1  0.02182864  0.82731068  0.41198338  1
  O  O37  1  0.80924018  0.98559819  0.41208885  1
  O  O38  1  0.16926582  0.19713129  0.41141440  1
  O  O39  1  0.02288220  0.19108140  0.91145816  1
  O  O40  1  0.16794981  0.97635269  0.91116858  1
  O  O41  1  0.80923926  0.83224350  0.91093974  1
  O  O42  1  0.97769849  0.16694508  0.58797269  1
  O  O43  1  0.18821235  0.02088928  0.58824500  1
  O  O44  1  0.83286457  0.81214097  0.58852108  1
  O  O45  1  0.97892271  0.81148845  0.08785180  1
  O  O46  1  0.83277045  0.02178680  0.08827410  1
  O  O47  1  0.18777401  0.16726013  0.08833025  1
  O  O48  1  0.68893109  0.16086525  0.74473108  1
  O  O49  1  0.47544702  0.31816207  0.74460571  1
  O  O50  1  0.83572064  0.53083503  0.74429342  1
  O  O51  1  0.67958991  0.52207401  0.24416964  1
  O  O52  1  0.83891899  0.31313719  0.24477208  1
  O  O53  1  0.47137732  0.16495302  0.24376429  1
  O  O54  1  0.64226527  0.49955652  0.92213803  1
  O  O55  1  0.85649802  0.35616153  0.92260861  1
  O  O56  1  0.49977126  0.14364294  0.92255702  1
  O  O57  1  0.64610226  0.14610151  0.42325318  1
  O  O58  1  0.50336561  0.36170133  0.42274365  1
  O  O59  1  0.86012761  0.49380670  0.42359706  1
  O  O60  1  0.35569712  0.49929526  0.07698546  1
  O  O61  1  0.14411013  0.64507269  0.07675752  1
  O  O62  1  0.50097857  0.85553635  0.07679646  1
  O  O63  1  0.35439905  0.85580311  0.57777709  1
  O  O64  1  0.50075097  0.64423502  0.57779409  1
  O  O65  1  0.14484427  0.49899715  0.57718864  1
  O  O66  1  0.30772171  0.83136184  0.25521238  1
  O  O67  1  0.51905141  0.68502564  0.25534420  1
  O  O68  1  0.17307646  0.47489812  0.25608555  1
  O  O69  1  0.31241089  0.47878534  0.75627257  1
  O  O70  1  0.16900996  0.69425779  0.75616325  1
  O  O71  1  0.52748346  0.82722829  0.75661853  1
loop_
_geom_bond_atom_site_label_1
_geom_bond_atom_site_label_2
_geom_bond_distance
_geom_bond_site_symmetry_2
Na0 O53 2.350567 1_555
Na0 O68 2.368103 1_555
Na0 O51 2.394720 1_555
Na0 O67 2.470032 1_555
Na0 O17 2.679249 1_555
Na0 O10 2.727335 1_555
Na0 O32 2.795939 1_555
Na0 O0 2.829004 1_555
Na1 O50 2.343145 1_555
Na1 O71 2.358367 1_555
Na1 O49 2.395291 1_555
Na1 O69 2.473351 1_555
Na1 O14 2.687712 1_555
Na1 O35 2.735277 1_555
Na1 O6 2.748969 1_555
Na1 O4 2.812935 1_555
Na2 O38 2.346124 1_655
Na2 O59 2.364361 1_555
Na2 O37 2.387428 1_545
Na2 O57 2.471531 1_555
Na2 O2 2.660727 1_555
Na2 O23 2.724874 1_555
Na2 O30 2.737334 1_655
Na2 O28 2.816723 1_655
Na3 O36 2.539194 1_555
Na3 O44 2.544692 1_455
Na3 O43 2.546755 1_565
Na3 O37 2.596906 1_455
Na3 O42 2.608492 1_465
Na3 O38 2.612476 1_565
Na4 O45 2.523791 1_445
Na4 O47 2.527356 1_555
Na4 O46 2.534622 1_455
Na4 O39 2.603223 1_554
Na4 O41 2.609176 1_444
Na4 O40 2.611924 1_544
Na5 O56 2.547743 1_555
Na5 O55 2.554936 1_555
Na5 O48 2.565183 1_555
Na5 O54 2.611328 1_555
Na5 O49 2.626648 1_555
Na5 O50 2.635544 1_555
Na6 O52 2.532226 1_555
Na6 O51 2.540576 1_555
Na6 O53 2.550044 1_555
Na6 O57 2.641257 1_555
Na6 O58 2.643840 1_555
Na6 O59 2.652572 1_555
Na7 O62 2.532800 1_555
Na7 O61 2.540833 1_555
Na7 O66 2.559686 1_555
Na7 O60 2.601564 1_555
Na7 O67 2.612110 1_555
Na7 O68 2.631567 1_555
Na8 O63 2.530956 1_555
Na8 O65 2.536154 1_555
Na8 O70 2.573123 1_555
Na8 O64 2.594802 1_555
Na8 O69 2.625566 1_555
Na8 O71 2.640197 1_555
O0 P0 1.532353 1_545
O0 Sc0 2.020192 1_445
O1 P1 1.521466 1_555
O1 Sc0 1.989658 1_555
O2 P2 1.533716 1_555
O2 Sc0 2.072016 1_545
O3 P3 1.536758 1_555
O3 Sn0 2.024585 1_555
O4 P4 1.551981 1_655
O4 Sn0 2.051144 1_665
O5 P5 1.539357 1_555
O5 Sn0 2.033804 1_655
O6 P5 1.558916 1_565
O6 Sn1 2.069550 1_665
O7 P3 1.543103 1_555
O7 Sn1 2.042949 1_555
O8 P4 1.544903 1_555
O8 Sn1 2.051901 1_565
O9 P1 1.545572 1_555
O9 Sn2 2.045720 1_555
O10 P2 1.562284 1_455
O10 Sn2 2.078507 1_445
O11 P0 1.547897 1_555
O11 Sn2 2.053828 1_455
O12 P6 1.519393 1_555
O12 Sc1 2.025881 1_555
O13 P7 1.518022 1_555
O13 Sc1 2.019399 1_555
O14 P8 1.526689 1_555
O14 Sc1 2.100043 1_555
O15 P9 1.519131 1_555
O15 Sc2 2.016288 1_555
O16 P10 1.519468 1_555
O16 Sc2 2.024430 1_555
O17 P11 1.527122 1_555
O17 Sc2 2.099645 1_555
O18 P11 1.552062 1_555
O18 Sn3 2.035019 1_554
O19 P9 1.551950 1_555
O19 Sn3 2.031856 1_554
O20 P10 1.551792 1_555
O20 Sn3 2.038227 1_554
O21 P7 1.552636 1_555
O21 Sn4 2.017602 1_555
O22 P8 1.553707 1_555
O22 Sn4 2.022147 1_555
O23 P6 1.565269 1_555
O23 Sn4 2.079656 1_555
O24 P12 1.533740 1_555
O24 Sn5 2.050906 1_556
O25 P13 1.533507 1_555
O25 Sn5 2.048695 1_556
O26 P14 1.533580 1_555
O26 Sn5 2.054022 1_556
O27 P15 1.534543 1_555
O27 Sn6 2.018538 1_555
O28 P16 1.549510 1_555
O28 Sn6 2.042631 1_555
O29 P17 1.537951 1_555
O29 Sn6 2.028248 1_555
O30 P17 1.561699 1_555
O30 Sn7 2.058637 1_555
O31 P15 1.543557 1_555
O31 Sn7 2.025201 1_555
O32 P16 1.556986 1_555
O32 Sn7 2.092968 1_555
O33 P13 1.550946 1_555
O33 Sn8 2.012396 1_555
O34 P14 1.552119 1_555
O34 Sn8 2.020157 1_555
O35 P12 1.564054 1_555
O35 Sn8 2.074903 1_555
O36 P17 1.513852 1_555
O36 Sc0 2.085699 1_455
O37 P15 1.532007 1_555
O37 Sc0 2.143477 1_555
O38 P16 1.532451 1_555
O38 Sc0 2.156822 1_445
O39 P13 1.551494 1_555
O39 Sn0 2.059517 1_555
O40 P14 1.551989 1_555
O40 Sn0 2.060255 1_565
O41 P12 1.551558 1_555
O41 Sn0 2.065775 1_665
O42 P6 1.556284 1_555
O42 Sn1 2.072640 1_655
O43 P7 1.554259 1_555
O43 Sn1 2.065410 1_555
O44 P8 1.555059 1_555
O44 Sn1 2.074918 1_665
O45 P9 1.555094 1_555
O45 Sn2 2.074711 1_555
O46 P10 1.556007 1_555
O46 Sn2 2.072362 1_545
O47 P11 1.556459 1_555
O47 Sn2 2.080941 1_445
O48 P5 1.516748 1_555
O48 Sc1 2.080060 1_555
O49 P3 1.534826 1_555
O49 Sc1 2.142213 1_555
O50 P4 1.535663 1_655
O50 Sc1 2.140896 1_555
O51 P1 1.536609 1_555
O51 Sc2 2.140890 1_555
O52 P2 1.519369 1_555
O52 Sc2 2.083864 1_555
O53 P0 1.536607 1_545
O53 Sc2 2.134713 1_555
O54 P12 1.548618 1_555
O54 Sn3 2.105106 1_555
O55 P13 1.546293 1_655
O55 Sn3 2.098652 1_555
O56 P14 1.547244 1_545
O56 Sn3 2.092983 1_555
O57 P15 1.567244 1_545
O57 Sn4 2.103805 1_555
O58 P16 1.547736 1_555
O58 Sn4 2.064540 1_555
O59 P17 1.570262 1_655
O59 Sn4 2.103701 1_555
O60 P11 1.556918 1_555
O60 Sn5 2.055533 1_555
O61 P9 1.555832 1_455
O61 Sn5 2.051911 1_555
O62 P10 1.556027 1_565
O62 Sn5 2.048243 1_555
O63 P7 1.552837 1_565
O63 Sn6 2.054123 1_555
O64 P8 1.554584 1_555
O64 Sn6 2.058465 1_555
O65 P6 1.552655 1_455
O65 Sn6 2.059683 1_555
O66 P0 1.557046 1_555
O66 Sn7 2.034267 1_555
O67 P1 1.578812 1_555
O67 Sn7 2.076137 1_555
O68 P2 1.581133 1_455
O68 Sn7 2.090949 1_555
O69 P3 1.570903 1_555
O69 Sn8 2.106082 1_555
O70 P4 1.548829 1_555
O70 Sn8 2.061159 1_555
O71 P5 1.572829 1_565
O71 Sn8 2.107733 1_555
