# generated using pymatgen
data_MgCu2(RhS2)4
_symmetry_space_group_name_H-M   'P 1'
_cell_length_a   7.20018308
_cell_length_b   7.00903623
_cell_length_c   7.00903600
_cell_angle_alpha   60.00000107
_cell_angle_beta   60.87436736
_cell_angle_gamma   60.87436153
_symmetry_Int_Tables_number   1
_chemical_formula_structural   MgCu2(RhS2)4
_chemical_formula_sum   'Mg1 Cu2 Rh4 S8'
_cell_volume   253.37286381
_cell_formula_units_Z   1
loop_
 _symmetry_equiv_pos_site_id
 _symmetry_equiv_pos_as_xyz
  1  'x, y, z'
loop_
 _atom_site_type_symbol
 _atom_site_label
 _atom_site_symmetry_multiplicity
 _atom_site_fract_x
 _atom_site_fract_y
 _atom_site_fract_z
 _atom_site_occupancy
  Mg  Mg0  1  0.50000000  0.00000000  0.00000000  1
  Cu  Cu0  1  0.92210800  0.85929700  0.85929700  1
  Cu  Cu1  1  0.07789200  0.14070300  0.14070300  1
  Rh  Rh0  1  0.50000000  0.50000000  0.00000000  1
  Rh  Rh1  1  0.50000000  0.50000000  0.50000000  1
  Rh  Rh2  1  0.00000000  0.50000000  0.50000000  1
  Rh  Rh3  1  0.50000000  0.00000000  0.50000000  1
  S  S0  1  0.74028500  0.73875100  0.73875100  1
  S  S1  1  0.25971500  0.26124900  0.71778600  1
  S  S2  1  0.25971500  0.71778600  0.26124900  1
  S  S3  1  0.70573900  0.26475300  0.26475300  1
  S  S4  1  0.74028500  0.28221400  0.73875100  1
  S  S5  1  0.29426100  0.73524700  0.73524700  1
  S  S6  1  0.25971500  0.26124900  0.26124900  1
  S  S7  1  0.74028500  0.73875100  0.28221400  1
loop_
_geom_bond_atom_site_label_1
_geom_bond_atom_site_label_2
_geom_bond_distance
_geom_bond_site_symmetry_2
Mg0 S0 2.623793 1_544
Mg0 S6 2.623793 1_555
Mg0 S7 2.623798 1_545
Mg0 S1 2.623798 1_554
Mg0 S4 2.623798 1_554
Mg0 S2 2.623798 1_545
Cu0 S5 2.216330 1_655
Cu0 S0 2.451334 1_555
Cu0 S4 2.451345 1_565
Cu0 S7 2.451345 1_556
Cu0 Mg0 2.513833 1_566
Cu1 S3 2.216330 1_455
Cu1 S6 2.451334 1_555
Cu1 S2 2.451345 1_545
Cu1 S1 2.451345 1_554
Cu1 Mg0 2.513833 1_555
Rh0 S3 2.365404 1_555
Rh0 S5 2.365404 1_554
Rh0 S4 2.411783 1_554
Rh0 S2 2.411783 1_555
Rh0 S0 2.411788 1_554
Rh0 S6 2.411788 1_555
Rh1 S3 2.365414 1_555
Rh1 S5 2.365414 1_555
Rh1 S2 2.411788 1_555
Rh1 S4 2.411788 1_555
Rh1 S7 2.411788 1_555
Rh1 S1 2.411788 1_555
Rh2 S7 2.409440 1_455
Rh2 S1 2.409440 1_555
Rh2 S2 2.409440 1_555
Rh2 S4 2.409440 1_455
Rh2 S6 2.409445 1_555
Rh2 S0 2.409445 1_455
Rh3 S3 2.365404 1_555
Rh3 S5 2.365404 1_545
Rh3 S7 2.411783 1_545
Rh3 S1 2.411783 1_555
Rh3 S6 2.411787 1_555
Rh3 S0 2.411787 1_545
