# generated using pymatgen
data_NaMgFeO2
_symmetry_space_group_name_H-M   'P 1'
_cell_length_a   3.19932947
_cell_length_b   3.19932947
_cell_length_c   7.80735500
_cell_angle_alpha   87.56168613
_cell_angle_beta   87.56168613
_cell_angle_gamma   59.26567366
_symmetry_Int_Tables_number   1
_chemical_formula_structural   NaMgFeO2
_chemical_formula_sum   'Na1 Mg1 Fe1 O2'
_cell_volume   68.60729218
_cell_formula_units_Z   1
loop_
 _symmetry_equiv_pos_site_id
 _symmetry_equiv_pos_as_xyz
  1  'x, y, z'
loop_
 _atom_site_type_symbol
 _atom_site_label
 _atom_site_symmetry_multiplicity
 _atom_site_fract_x
 _atom_site_fract_y
 _atom_site_fract_z
 _atom_site_occupancy
  Na  Na0  1  0.52634805  0.52634805  0.41148223  1
  Mg  Mg0  1  0.17623823  0.17623823  0.72642248  1
  Fe  Fe0  1  0.89220221  0.89220221  0.09198445  1
  O  O0  1  0.19949905  0.19949905  0.21067550  1
  O  O1  1  0.85154545  0.85154545  0.63086434  1
loop_
_geom_bond_atom_site_label_1
_geom_bond_atom_site_label_2
_geom_bond_distance
_geom_bond_site_symmetry_2
Na0 O0 2.395802 1_655
Na0 O0 2.395802 1_565
Na0 O0 2.457951 1_555
Na0 O1 2.493630 1_545
Na0 O1 2.493630 1_455
Na0 O1 2.551125 1_555
Mg0 O1 1.984539 1_455
Mg0 O1 1.984539 1_545
Mg0 O1 1.987376 1_445
Fe0 O0 1.983641 1_665
Fe0 O0 2.100599 1_655
Fe0 O0 2.100599 1_565
