# generated using pymatgen
data_H4N2O3
_symmetry_space_group_name_H-M   'P 1'
_cell_length_a   8.05082700
_cell_length_b   8.05825200
_cell_length_c   10.02807200
_cell_angle_alpha   90.00000000
_cell_angle_beta   90.00000000
_cell_angle_gamma   90.00000000
_symmetry_Int_Tables_number   1
_chemical_formula_structural   H4N2O3
_chemical_formula_sum   'H32 N16 O24'
_cell_volume   650.57711538
_cell_formula_units_Z   8
loop_
 _symmetry_equiv_pos_site_id
 _symmetry_equiv_pos_as_xyz
  1  'x, y, z'
loop_
 _atom_site_type_symbol
 _atom_site_label
 _atom_site_symmetry_multiplicity
 _atom_site_fract_x
 _atom_site_fract_y
 _atom_site_fract_z
 _atom_site_occupancy
  H  H0  1  0.56035000  0.54298000  0.32012400  1
  H  H1  1  0.55474700  0.05675700  0.32083200  1
  H  H2  1  0.94525300  0.44324300  0.32083200  1
  H  H3  1  0.05474700  0.94324300  0.17916800  1
  H  H4  1  0.55474700  0.44324300  0.82083200  1
  H  H5  1  0.44525300  0.94324300  0.67916800  1
  H  H6  1  0.05474700  0.55675700  0.67916800  1
  H  H7  1  0.94525300  0.05675700  0.82083200  1
  H  H8  1  0.08008700  0.89600100  0.79865100  1
  H  H9  1  0.91991300  0.39600100  0.70134900  1
  H  H10  1  0.58008700  0.10399900  0.70134900  1
  H  H11  1  0.44525300  0.55675700  0.17916800  1
  H  H12  1  0.41991300  0.60399900  0.79865100  1
  H  H13  1  0.91991300  0.10399900  0.20134900  1
  H  H14  1  0.08008700  0.60399900  0.29865100  1
  H  H15  1  0.41991300  0.89600100  0.29865100  1
  H  H16  1  0.43965000  0.04298000  0.17987600  1
  H  H17  1  0.06035000  0.45702000  0.17987600  1
  H  H18  1  0.93965000  0.95702000  0.32012400  1
  H  H19  1  0.43965000  0.45702000  0.67987600  1
  H  H20  1  0.56035000  0.95702000  0.82012400  1
  H  H21  1  0.93965000  0.54298000  0.82012400  1
  H  H22  1  0.06035000  0.04298000  0.67987600  1
  H  H23  1  0.58008700  0.39600100  0.20134900  1
  H  H24  1  0.59680200  0.90615500  0.20712100  1
  H  H25  1  0.90319800  0.59384500  0.20712100  1
  H  H26  1  0.09680200  0.09384500  0.29287900  1
  H  H27  1  0.59680200  0.59384500  0.70712100  1
  H  H28  1  0.40319800  0.09384500  0.79287900  1
  H  H29  1  0.09680200  0.40615500  0.79287900  1
  H  H30  1  0.90319800  0.90615500  0.70712100  1
  H  H31  1  0.40319800  0.40615500  0.29287900  1
  N  N0  1  0.49687700  0.47620200  0.24819700  1
  N  N1  1  0.50312300  0.97620200  0.25180300  1
  N  N2  1  0.99687700  0.52379800  0.25180300  1
  N  N3  1  0.00312300  0.02379800  0.24819700  1
  N  N4  1  0.50312300  0.52379800  0.75180300  1
  N  N5  1  0.49687700  0.02379800  0.74819700  1
  N  N6  1  0.00312300  0.47620200  0.74819700  1
  N  N7  1  0.99687700  0.97620200  0.75180300  1
  N  N8  1  0.25000000  0.75000000  0.48811700  1
  N  N9  1  0.75000000  0.25000000  0.01188300  1
  N  N10  1  0.75000000  0.25000000  0.51188300  1
  N  N11  1  0.25000000  0.75000000  0.98811700  1
  N  N12  1  0.25000000  0.25000000  0.48569400  1
  N  N13  1  0.75000000  0.75000000  0.01430600  1
  N  N14  1  0.75000000  0.75000000  0.51430600  1
  N  N15  1  0.25000000  0.25000000  0.98569400  1
  O  O0  1  0.61737200  0.28355100  0.95116100  1
  O  O1  1  0.38262800  0.78355100  0.54883900  1
  O  O2  1  0.11737200  0.71644900  0.54883900  1
  O  O3  1  0.38262800  0.71644900  0.04883900  1
  O  O4  1  0.61737200  0.21644900  0.45116100  1
  O  O5  1  0.88262800  0.28355100  0.45116100  1
  O  O6  1  0.11737200  0.78355100  0.04883900  1
  O  O7  1  0.25000000  0.75000000  0.35977500  1
  O  O8  1  0.75000000  0.25000000  0.14022500  1
  O  O9  1  0.75000000  0.25000000  0.64022500  1
  O  O10  1  0.25000000  0.75000000  0.85977500  1
  O  O11  1  0.78706300  0.61836400  0.95371500  1
  O  O12  1  0.21293700  0.11836400  0.54628500  1
  O  O13  1  0.28706300  0.38163600  0.54628500  1
  O  O14  1  0.71293700  0.88163600  0.95371500  1
  O  O15  1  0.21293700  0.38163600  0.04628500  1
  O  O16  1  0.78706300  0.88163600  0.45371500  1
  O  O17  1  0.71293700  0.61836400  0.45371500  1
  O  O18  1  0.28706300  0.11836400  0.04628500  1
  O  O19  1  0.25000000  0.25000000  0.35724000  1
  O  O20  1  0.75000000  0.75000000  0.14276000  1
  O  O21  1  0.75000000  0.75000000  0.64276000  1
  O  O22  1  0.25000000  0.25000000  0.85724000  1
  O  O23  1  0.88262800  0.21644900  0.95116100  1
loop_
_geom_bond_atom_site_label_1
_geom_bond_atom_site_label_2
_geom_bond_distance
_geom_bond_site_symmetry_2
H0 N0 1.034870 1_555
H1 N1 1.035997 1_545
H2 N2 1.035997 1_555
H3 N3 1.035997 1_565
H4 N4 1.035997 1_555
H5 N5 1.035997 1_565
H6 N6 1.035997 1_555
H7 N7 1.035997 1_545
H8 N7 1.042671 1_455
H9 N6 1.042671 1_655
H10 N5 1.042671 1_555
H11 N0 1.035997 1_555
H12 N4 1.042671 1_555
H13 N3 1.042671 1_655
H14 N2 1.042671 1_455
H15 N1 1.042671 1_555
H16 N1 1.034870 1_545
H17 N2 1.034870 1_455
H18 N3 1.034870 1_665
H19 N4 1.034870 1_555
H20 N5 1.034870 1_565
H21 N6 1.034870 1_655
H22 N7 1.034870 1_445
H23 N0 1.042671 1_555
H24 N1 1.043163 1_555
H25 N2 1.043163 1_555
H26 N3 1.043163 1_555
H27 N4 1.043163 1_555
H28 N5 1.043163 1_555
H29 N6 1.043163 1_555
H30 N7 1.043163 1_555
H31 N0 1.043163 1_555
N8 O2 1.258574 1_555
N8 O1 1.258574 1_555
N8 O7 1.287023 1_555
N9 O23 1.258574 1_554
N9 O0 1.258574 1_554
N9 O8 1.287023 1_555
N10 O5 1.258574 1_555
N10 O4 1.258574 1_555
N10 O9 1.287023 1_555
N11 O6 1.258574 1_556
N11 O3 1.258574 1_556
N11 O10 1.287023 1_555
N12 O13 1.258344 1_555
N12 O12 1.258344 1_555
N12 O19 1.288146 1_555
N13 O14 1.258344 1_554
N13 O11 1.258344 1_554
N13 O20 1.288146 1_555
N14 O16 1.258344 1_555
N14 O17 1.258344 1_555
N14 O21 1.288146 1_555
N15 O15 1.258344 1_556
N15 O18 1.258344 1_556
N15 O22 1.288146 1_555
