# generated using pymatgen
data_Ba2TbMgBiO6
_symmetry_space_group_name_H-M   'P 1'
_cell_length_a   6.36112763
_cell_length_b   7.14434306
_cell_length_c   6.32193077
_cell_angle_alpha   57.83907173
_cell_angle_beta   59.79465548
_cell_angle_gamma   63.56469354
_symmetry_Int_Tables_number   1
_chemical_formula_structural   Ba2TbMgBiO6
_chemical_formula_sum   'Ba2 Tb1 Mg1 Bi1 O6'
_cell_volume   203.92685721
_cell_formula_units_Z   1
loop_
 _symmetry_equiv_pos_site_id
 _symmetry_equiv_pos_as_xyz
  1  'x, y, z'
loop_
 _atom_site_type_symbol
 _atom_site_label
 _atom_site_symmetry_multiplicity
 _atom_site_fract_x
 _atom_site_fract_y
 _atom_site_fract_z
 _atom_site_occupancy
  Ba  Ba0  1  0.70888255  0.44099538  0.14123753  1
  Ba  Ba1  1  0.29854956  0.70066699  0.70223389  1
  Tb  Tb0  1  0.05600946  0.37924321  0.50873787  1
  Mg  Mg0  1  0.91240409  0.86741110  0.30778072  1
  Bi  Bi0  1  0.49240909  0.04274830  0.97243351  1
  O  O0  1  0.69338989  0.30053400  0.81932580  1
  O  O1  1  0.81165097  0.68371333  0.24785243  1
  O  O2  1  0.18675232  0.30053399  0.81932480  1
  O  O3  1  0.73979012  0.85668636  0.66373240  1
  O  O4  1  0.26004569  0.12396202  0.35594761  1
  O  O5  1  0.25678227  0.68371332  0.24785143  1
loop_
_geom_bond_atom_site_label_1
_geom_bond_atom_site_label_2
_geom_bond_distance
_geom_bond_site_symmetry_2
Ba0 O5 2.566228 1_555
Ba0 O1 2.566235 1_555
Ba0 O0 2.760869 1_554
Ba0 O2 2.760884 1_654
Ba0 O3 2.889605 1_554
Ba1 O4 2.613427 1_565
Ba1 O2 2.872872 1_555
Ba1 O0 2.872875 1_555
Ba1 O1 3.082835 1_555
Ba1 O5 3.082847 1_555
Ba1 O5 3.262676 1_556
Ba1 O1 3.262684 1_456
Ba1 O3 3.314986 1_555
Ba1 O3 3.314990 1_455
Mg0 O3 1.918470 1_555
Mg0 O5 1.949162 1_655
Mg0 O1 1.949169 1_555
Bi0 O2 2.217366 1_555
Bi0 O0 2.217374 1_555
Bi0 O4 2.351162 1_556
Bi0 O3 2.420994 1_545
Bi0 O1 2.810745 1_546
Bi0 O5 2.810751 1_546
O0 Tb0 2.216868 1_655
O1 Tb0 2.370162 1_655
O2 Tb0 2.216872 1_555
O4 Tb0 2.109565 1_555
O5 Tb0 2.370159 1_555
