# generated using pymatgen
data_MgNb2(PS)2
_symmetry_space_group_name_H-M   'P 1'
_cell_length_a   3.39332415
_cell_length_b   6.64150937
_cell_length_c   6.32677343
_cell_angle_alpha   97.29638412
_cell_angle_beta   105.53511193
_cell_angle_gamma   89.98345530
_symmetry_Int_Tables_number   1
_chemical_formula_structural   MgNb2(PS)2
_chemical_formula_sum   'Mg1 Nb2 P2 S2'
_cell_volume   136.17876649
_cell_formula_units_Z   1
loop_
 _symmetry_equiv_pos_site_id
 _symmetry_equiv_pos_as_xyz
  1  'x, y, z'
loop_
 _atom_site_type_symbol
 _atom_site_label
 _atom_site_symmetry_multiplicity
 _atom_site_fract_x
 _atom_site_fract_y
 _atom_site_fract_z
 _atom_site_occupancy
  Mg  Mg0  1  0.35734850  0.96391870  0.71501494  1
  Nb  Nb0  1  0.88163694  0.42681060  0.76173777  1
  Nb  Nb1  1  0.11764157  0.53586768  0.23586224  1
  P  P0  1  0.49495422  0.68103354  0.98881112  1
  P  P1  1  0.50417611  0.27935676  0.00805485  1
  S  S0  1  0.24292493  0.25671361  0.48335610  1
  S  S1  1  0.75846073  0.71741011  0.51716297  1
loop_
_geom_bond_atom_site_label_1
_geom_bond_atom_site_label_2
_geom_bond_distance
_geom_bond_site_symmetry_2
Mg0 S1 2.547688 1_555
Mg0 S1 2.548716 1_455
Mg0 S0 2.549321 1_565
Mg0 P1 2.567826 1_566
Mg0 P0 2.672345 1_555
Nb0 P1 2.544256 1_656
Nb0 P1 2.546723 1_556
Nb0 S0 2.554792 1_555
Nb0 S0 2.555714 1_655
Nb0 S1 2.589535 1_555
Nb0 P0 2.651183 1_555
Nb0 P0 2.651485 1_655
Nb1 P0 2.539644 1_454
Nb1 S0 2.539739 1_555
Nb1 P0 2.543098 1_554
Nb1 S1 2.592820 1_455
Nb1 S1 2.594823 1_555
Nb1 P1 2.661630 1_455
Nb1 P1 2.662269 1_555
