# generated using pymatgen
data_Na8Mg3Ti(PO4)6
_symmetry_space_group_name_H-M   'P 1'
_cell_length_a   8.96663404
_cell_length_b   8.96663373
_cell_length_c   22.03244442
_cell_angle_alpha   90.00000000
_cell_angle_beta   90.00000000
_cell_angle_gamma   120.00000113
_symmetry_Int_Tables_number   1
_chemical_formula_structural   Na8Mg3Ti(PO4)6
_chemical_formula_sum   'Na24 Mg9 Ti3 P18 O72'
_cell_volume   1534.09475506
_cell_formula_units_Z   3
loop_
 _symmetry_equiv_pos_site_id
 _symmetry_equiv_pos_as_xyz
  1  'x, y, z'
loop_
 _atom_site_type_symbol
 _atom_site_label
 _atom_site_symmetry_multiplicity
 _atom_site_fract_x
 _atom_site_fract_y
 _atom_site_fract_z
 _atom_site_occupancy
  Na  Na0  1  0.63489751  0.99942048  0.25211500  1
  Na  Na1  1  0.36452298  0.36510249  0.25211500  1
  Na  Na2  1  0.00057952  0.63547702  0.25211500  1
  Na  Na3  1  0.64155132  0.63446396  0.74531688  1
  Na  Na4  1  0.99291264  0.35844868  0.74531688  1
  Na  Na5  1  0.36553604  0.00708736  0.74531688  1
  Na  Na6  1  0.29809847  0.33463007  0.58127968  1
  Na  Na7  1  0.03653260  0.70190153  0.58127968  1
  Na  Na8  1  0.66536993  0.96346740  0.58127968  1
  Na  Na9  1  0.29711655  0.96365521  0.08943126  1
  Na  Na10  1  0.66653967  0.70288345  0.08943126  1
  Na  Na11  1  0.03634479  0.33346033  0.08943126  1
  Na  Na12  1  0.96971755  0.67271381  0.91504531  1
  Na  Na13  1  0.70299526  0.03028245  0.91504531  1
  Na  Na14  1  0.32728619  0.29700474  0.91504531  1
  Na  Na15  1  0.97509300  0.30098590  0.41162783  1
  Na  Na16  1  0.32589190  0.02490700  0.41162783  1
  Na  Na17  1  0.69901410  0.67410810  0.41162783  1
  Na  Na18  1  -0.00000000  -0.00000000  0.49767792  1
  Na  Na19  1  -0.00000000  -0.00000000  0.00268935  1
  Na  Na20  1  0.66666700  0.33333300  0.83009093  1
  Na  Na21  1  0.66666700  0.33333300  0.32811706  1
  Na  Na22  1  0.33333300  0.66666700  0.17240378  1
  Na  Na23  1  0.33333300  0.66666700  0.66051979  1
  Mg  Mg0  1  -0.00000000  -0.00000000  0.34761712  1
  Mg  Mg1  1  -0.00000000  -0.00000000  0.84899752  1
  Mg  Mg2  1  -0.00000000  -0.00000000  0.64840076  1
  Mg  Mg3  1  -0.00000000  -0.00000000  0.15409753  1
  Mg  Mg4  1  0.66666700  0.33333300  0.68224557  1
  Mg  Mg5  1  0.66666700  0.33333300  0.18663602  1
  Mg  Mg6  1  0.33333300  0.66666700  0.01811301  1
  Mg  Mg7  1  0.33333300  0.66666700  0.51523185  1
  Mg  Mg8  1  0.33333300  0.66666700  0.31625485  1
  Ti  Ti0  1  0.66666700  0.33333300  0.98556726  1
  Ti  Ti1  1  0.66666700  0.33333300  0.48142482  1
  Ti  Ti2  1  0.33333300  0.66666700  0.81463912  1
  P  P0  1  0.29531669  0.99904998  0.24954259  1
  P  P1  1  0.70373329  0.70468331  0.24954259  1
  P  P2  1  0.00095002  0.29626671  0.24954259  1
  P  P3  1  0.29367842  0.29502056  0.75128835  1
  P  P4  1  0.00134214  0.70632158  0.75128835  1
  P  P5  1  0.70497944  -0.00134214  0.75128835  1
  P  P6  1  0.95976986  0.33448569  0.58435500  1
  P  P7  1  0.37471683  0.04023014  0.58435500  1
  P  P8  1  0.66551431  0.62528317  0.58435500  1
  P  P9  1  0.96018526  0.62492655  0.08406099  1
  P  P10  1  0.66474228  0.03981474  0.08406099  1
  P  P11  1  0.37507345  0.33525772  0.08406099  1
  P  P12  1  0.62513807  0.66675442  0.91797870  1
  P  P13  1  0.04161535  0.37486193  0.91797870  1
  P  P14  1  0.33324558  0.95838465  0.91797870  1
  P  P15  1  0.62778968  0.96190219  0.41821431  1
  P  P16  1  0.33411151  0.37221032  0.41821431  1
  P  P17  1  0.03809781  0.66588849  0.41821431  1
  O  O0  1  0.21250020  0.02883045  0.30622197  1
  O  O1  1  0.81633025  0.78749980  0.30622197  1
  O  O2  1  0.97116955  0.18366975  0.30622197  1
  O  O3  1  0.21355252  0.18615912  0.80840236  1
  O  O4  1  0.97260660  0.78644748  0.80840236  1
  O  O5  1  0.81384088  0.02739340  0.80840236  1
  O  O6  1  0.77872086  0.95933564  0.69502002  1
  O  O7  1  0.18061478  0.22127914  0.69502002  1
  O  O8  1  0.04066436  0.81938522  0.69502002  1
  O  O9  1  0.78423759  0.81512625  0.19171158  1
  O  O10  1  0.03088866  0.21576241  0.19171158  1
  O  O11  1  0.18487375  0.96911134  0.19171158  1
  O  O12  1  0.87901235  0.36310879  0.64142939  1
  O  O13  1  0.48409744  0.12098765  0.64142939  1
  O  O14  1  0.63689121  0.51590256  0.64142939  1
  O  O15  1  0.87500359  0.51144814  0.13831684  1
  O  O16  1  0.63644555  0.12499641  0.13831684  1
  O  O17  1  0.48855186  0.36355445  0.13831684  1
  O  O18  1  0.47243390  0.31027143  0.02544522  1
  O  O19  1  0.83783853  0.52756610  0.02544522  1
  O  O20  1  0.68972857  0.16216147  0.02544522  1
  O  O21  1  0.47016746  0.16015655  0.52815874  1
  O  O22  1  0.68999009  0.52983254  0.52815874  1
  O  O23  1  0.83984345  0.31000991  0.52815874  1
  O  O24  1  0.54355746  0.69537352  0.97304969  1
  O  O25  1  0.15181507  0.45644254  0.97304969  1
  O  O26  1  0.30462648  0.84818493  0.97304969  1
  O  O27  1  0.54747343  0.85259517  0.47517716  1
  O  O28  1  0.30512075  0.45252657  0.47517716  1
  O  O29  1  0.14740483  0.69487925  0.47517716  1
  O  O30  1  0.11189093  0.62645984  0.36194877  1
  O  O31  1  0.51456791  0.88810907  0.36194877  1
  O  O32  1  0.37354016  0.48543209  0.36194877  1
  O  O33  1  0.13108246  0.49396840  0.86062581  1
  O  O34  1  0.36288494  0.86891754  0.86062581  1
  O  O35  1  0.50603160  0.63711506  0.86062581  1
  O  O36  1  0.01168334  0.82317660  0.41245503  1
  O  O37  1  0.81149325  0.98831666  0.41245503  1
  O  O38  1  0.17682340  0.18850675  0.41245503  1
  O  O39  1  0.01726358  0.19299047  0.91001815  1
  O  O40  1  0.17572689  0.98273642  0.91001815  1
  O  O41  1  0.80700953  0.82427311  0.91001815  1
  O  O42  1  0.97206549  0.16848612  0.58644467  1
  O  O43  1  0.19642062  0.02793451  0.58644467  1
  O  O44  1  0.83151388  0.80357938  0.58644467  1
  O  O45  1  0.97130523  0.80234000  0.08331703  1
  O  O46  1  0.83103476  0.02869477  0.08331703  1
  O  O47  1  0.19766000  0.16896524  0.08331703  1
  O  O48  1  0.67849679  0.15612454  0.74591755  1
  O  O49  1  0.47762875  0.32150321  0.74591755  1
  O  O50  1  0.84387546  0.52237125  0.74591755  1
  O  O51  1  0.68547582  0.52320288  0.24459817  1
  O  O52  1  0.83772805  0.31452418  0.24459817  1
  O  O53  1  0.47679712  0.16227195  0.24459817  1
  O  O54  1  0.63942508  0.49840481  0.92081258  1
  O  O55  1  0.85898074  0.36057492  0.92081258  1
  O  O56  1  0.50159519  0.14101926  0.92081258  1
  O  O57  1  0.64738651  0.14897440  0.42628261  1
  O  O58  1  0.50158889  0.35261349  0.42628261  1
  O  O59  1  0.85102560  0.49841111  0.42628261  1
  O  O60  1  0.35678820  0.49524088  0.07539592  1
  O  O61  1  0.13845168  0.64321180  0.07539592  1
  O  O62  1  0.50475912  0.86154832  0.07539592  1
  O  O63  1  0.35517948  0.85993117  0.57764648  1
  O  O64  1  0.50475069  0.64482052  0.57764648  1
  O  O65  1  0.14006883  0.49524931  0.57764648  1
  O  O66  1  0.31374827  0.83621925  0.25496612  1
  O  O67  1  0.52246998  0.68625173  0.25496612  1
  O  O68  1  0.16378075  0.47753002  0.25496612  1
  O  O69  1  0.31331693  0.48219296  0.75947416  1
  O  O70  1  0.16887503  0.68668307  0.75947416  1
  O  O71  1  0.51780704  0.83112497  0.75947416  1
loop_
_geom_bond_atom_site_label_1
_geom_bond_atom_site_label_2
_geom_bond_distance
_geom_bond_site_symmetry_2
Na0 O67 2.464681 1_555
Na0 O52 2.485862 1_565
Na0 O66 2.494733 1_555
Na0 O53 2.497885 1_565
Na0 O31 2.634269 1_555
Na0 O16 2.745676 1_565
Na0 O2 2.874143 1_565
Na0 O9 2.916818 1_555
Na1 O68 2.464690 1_555
Na1 O53 2.485868 1_555
Na1 O67 2.494733 1_555
Na1 O51 2.497893 1_555
Na1 O32 2.634271 1_555
Na1 O17 2.745679 1_555
Na1 O0 2.874143 1_555
Na1 O10 2.916818 1_555
Na2 O66 2.464683 1_555
Na2 O51 2.485860 1_455
Na2 O68 2.494725 1_555
Na2 O52 2.497893 1_455
Na2 O30 2.634267 1_555
Na2 O15 2.745677 1_455
Na2 O1 2.874143 1_455
Na2 O11 2.916818 1_555
Na3 O49 2.431196 1_555
Na3 O50 2.474873 1_555
Na3 O14 2.515261 1_555
Na3 O71 2.528750 1_555
Na3 O69 2.570060 1_555
Na3 O6 2.764697 1_555
Na3 O35 2.821416 1_555
Na3 O4 2.924966 1_555
Na4 O50 2.431189 1_555
Na4 O48 2.474866 1_555
Na4 O12 2.515258 1_555
Na4 O69 2.528741 1_655
Na4 O70 2.570060 1_655
Na4 O7 2.764697 1_655
Na4 O33 2.821414 1_655
Na4 O5 2.924966 1_555
Na5 O48 2.431197 1_555
Na5 O49 2.474865 1_555
Na5 O13 2.515260 1_555
Na5 O70 2.528742 1_545
Na5 O71 2.570052 1_545
Na5 O8 2.764697 1_545
Na5 O34 2.821412 1_545
Na5 O3 2.924966 1_555
Na6 O43 2.428907 1_555
Na6 O64 2.453999 1_555
Na6 O65 2.475736 1_555
Na6 O42 2.534466 1_455
Na6 O28 2.553383 1_555
Na6 O7 2.711454 1_555
Na6 O21 2.934534 1_555
Na6 O14 2.947698 1_555
Na7 O44 2.428915 1_455
Na7 O65 2.453986 1_555
Na7 O63 2.475721 1_555
Na7 O43 2.534466 1_565
Na7 O29 2.553376 1_555
Na7 O8 2.711455 1_555
Na7 O22 2.934534 1_455
Na7 O12 2.947698 1_455
Na8 O42 2.428908 1_565
Na8 O63 2.454003 1_555
Na8 O64 2.475721 1_555
Na8 O44 2.534458 1_555
Na8 O27 2.553380 1_555
Na8 O6 2.711452 1_555
Na8 O23 2.934534 1_565
Na8 O13 2.947698 1_565
Na9 O47 2.417484 1_565
Na9 O62 2.470830 1_555
Na9 O11 2.478457 1_555
Na9 O61 2.507529 1_555
Na9 O45 2.533657 1_455
Na9 O26 2.778711 1_554
Na9 O16 2.847611 1_565
Na10 O45 2.417476 1_555
Na10 O60 2.470843 1_555
Na10 O9 2.478455 1_555
Na10 O62 2.507545 1_555
Na10 O46 2.533657 1_565
Na10 O24 2.778718 1_554
Na10 O17 2.847610 1_555
Na11 O46 2.417477 1_455
Na11 O61 2.470847 1_555
Na11 O10 2.478453 1_555
Na11 O60 2.507530 1_555
Na11 O47 2.533649 1_555
Na11 O25 2.778715 1_554
Na11 O15 2.847611 1_455
Na12 O41 2.443414 1_555
Na12 O40 2.452975 1_655
Na12 O55 2.460992 1_555
Na12 O4 2.556346 1_555
Na12 O54 2.569291 1_555
Na12 O19 2.733066 1_556
Na12 O26 2.898608 1_655
Na12 O33 2.901536 1_655
Na13 O39 2.443421 1_655
Na13 O41 2.452982 1_545
Na13 O56 2.460975 1_555
Na13 O5 2.556349 1_555
Na13 O55 2.569290 1_555
Na13 O20 2.733061 1_556
Na13 O24 2.898608 1_545
Na13 O34 2.901536 1_545
Na14 O40 2.443422 1_545
Na14 O39 2.452973 1_555
Na14 O54 2.460989 1_555
Na14 O3 2.556348 1_555
Na14 O56 2.569306 1_555
Na14 O18 2.733069 1_556
Na14 O25 2.898608 1_555
Na14 O35 2.901536 1_555
Na15 O37 2.428923 1_545
Na15 O38 2.472602 1_655
Na15 O59 2.538684 1_555
Na15 O2 2.542458 1_555
Na15 O57 2.567349 1_555
Na15 O30 2.764047 1_655
Na15 O23 2.857841 1_555
Na15 O28 2.922811 1_655
Na16 O38 2.428915 1_555
Na16 O36 2.472595 1_545
Na16 O57 2.538700 1_555
Na16 O0 2.542454 1_555
Na16 O58 2.567349 1_555
Na16 O31 2.764047 1_545
Na16 O21 2.857845 1_555
Na16 O29 2.922811 1_545
Na17 O36 2.428923 1_655
Na17 O37 2.472594 1_555
Na17 O58 2.538698 1_555
Na17 O1 2.542456 1_555
Na17 O59 2.567364 1_555
Na17 O32 2.764047 1_555
Na17 O22 2.857848 1_555
Na17 O27 2.922811 1_555
Na18 O36 2.493302 1_545
Na18 O38 2.493302 1_555
Na18 O37 2.493302 1_445
Na18 O44 2.558999 1_445
Na18 O43 2.558999 1_555
Na18 O42 2.559000 1_455
Na19 O45 2.430448 1_445
Na19 O47 2.430448 1_555
Na19 O46 2.430448 1_455
Na19 O39 2.630489 1_554
Na19 O41 2.630489 1_444
Na19 O40 2.630489 1_544
Na20 O50 2.478697 1_555
Na20 O48 2.478697 1_555
Na20 O49 2.478698 1_555
Na20 O54 2.570468 1_555
Na20 O56 2.570468 1_555
Na20 O55 2.570469 1_555
Na21 O52 2.454763 1_555
Na21 O53 2.454763 1_555
Na21 O51 2.454763 1_555
Na21 O57 2.674805 1_555
Na21 O59 2.674805 1_555
Na21 O58 2.674805 1_555
Na22 O68 2.432717 1_555
Na22 O66 2.432717 1_555
Na22 O67 2.432717 1_555
Na22 O62 2.701550 1_555
Na22 O60 2.701550 1_555
Na22 O61 2.701550 1_555
Na23 O63 2.456801 1_555
Na23 O65 2.456801 1_555
Na23 O64 2.456801 1_555
Na23 O69 2.687884 1_555
Na23 O71 2.687884 1_555
Na23 O70 2.687884 1_555
Mg0 O1 2.009144 1_445
Mg0 O2 2.009144 1_455
Mg0 O0 2.009144 1_555
Mg0 O36 2.175233 1_545
Mg0 O38 2.175233 1_555
Mg0 O37 2.175233 1_445
Mg1 O4 2.014102 1_445
Mg1 O3 2.014102 1_555
Mg1 O5 2.014102 1_455
Mg1 O39 2.134979 1_555
Mg1 O41 2.134979 1_445
Mg1 O40 2.134979 1_545
Mg2 O7 2.097920 1_555
Mg2 O8 2.097920 1_545
Mg2 O6 2.097920 1_445
Mg2 O44 2.141698 1_445
Mg2 O43 2.141698 1_555
Mg2 O42 2.141698 1_455
Mg3 O10 1.992632 1_555
Mg3 O9 1.992632 1_445
Mg3 O11 1.992633 1_545
Mg3 O45 2.276693 1_445
Mg3 O47 2.276693 1_555
Mg3 O46 2.276693 1_455
Mg4 O13 1.999235 1_555
Mg4 O14 1.999235 1_555
Mg4 O12 1.999235 1_555
Mg4 O50 2.161617 1_555
Mg4 O48 2.161617 1_555
Mg4 O49 2.161617 1_555
Mg5 O16 2.047017 1_555
Mg5 O15 2.047017 1_555
Mg5 O17 2.047017 1_555
Mg5 O52 2.066555 1_555
Mg5 O53 2.066555 1_555
Mg5 O51 2.066555 1_555
Mg6 O26 2.029793 1_554
Mg6 O25 2.029793 1_554
Mg6 O24 2.029793 1_554
Mg6 O62 2.079203 1_555
Mg6 O60 2.079203 1_555
Mg6 O61 2.079203 1_555
Mg7 O29 2.010953 1_555
Mg7 O27 2.010953 1_555
Mg7 O28 2.010953 1_555
Mg7 O63 2.143124 1_555
Mg7 O65 2.143124 1_555
Mg7 O64 2.143124 1_555
Mg8 O31 2.090511 1_555
Mg8 O32 2.090511 1_555
Mg8 O30 2.090511 1_555
Mg8 O68 2.105372 1_555
Mg8 O66 2.105372 1_555
Mg8 O67 2.105372 1_555
O0 P0 1.542886 1_545
O1 P1 1.542885 1_555
O2 P2 1.542885 1_655
O3 P3 1.533351 1_555
O4 P4 1.533351 1_655
O5 P5 1.533351 1_555
O6 P5 1.526952 1_565
O7 P3 1.526952 1_555
O8 P4 1.526952 1_555
O9 P1 1.552545 1_555
O10 P2 1.552545 1_555
O11 P0 1.552545 1_555
O12 P6 1.535366 1_555
O13 P7 1.535366 1_555
O14 P8 1.535366 1_555
O15 P9 1.506820 1_555
O16 P10 1.506820 1_555
O17 P11 1.506820 1_555
O18 P11 1.635770 1_555
O18 Ti0 1.867566 1_554
O19 P9 1.635770 1_555
O19 Ti0 1.867566 1_554
O20 P10 1.635770 1_555
O20 Ti0 1.867566 1_554
O21 P7 1.581615 1_555
O21 Ti1 1.959565 1_555
O22 P8 1.581615 1_555
O22 Ti1 1.959565 1_555
O23 P6 1.581615 1_555
O23 Ti1 1.959566 1_555
O24 P12 1.503622 1_555
O25 P13 1.503622 1_555
O26 P14 1.503622 1_555
O27 P15 1.532489 1_555
O28 P16 1.532489 1_555
O29 P17 1.532489 1_555
O30 P17 1.527584 1_555
O31 P15 1.527584 1_555
O32 P16 1.527584 1_555
O33 P13 1.588753 1_555
O33 Ti2 1.976119 1_555
O34 P14 1.588753 1_555
O34 Ti2 1.976119 1_555
O35 P12 1.588753 1_555
O35 Ti2 1.976120 1_555
O36 P17 1.547679 1_555
O37 P15 1.547688 1_555
O38 P16 1.547684 1_555
O39 P13 1.543302 1_555
O40 P14 1.543293 1_555
O41 P12 1.543299 1_555
O42 P6 1.547218 1_555
O43 P7 1.547227 1_555
O44 P8 1.547223 1_555
O45 P9 1.543452 1_555
O46 P10 1.543443 1_555
O47 P11 1.543448 1_555
O48 P5 1.548955 1_555
O49 P3 1.548964 1_555
O50 P4 1.548961 1_655
O51 P1 1.555723 1_555
O52 P2 1.555714 1_655
O53 P0 1.555719 1_545
O54 P12 1.578724 1_555
O54 Ti0 2.155809 1_555
O55 P13 1.578706 1_655
O55 Ti0 2.155809 1_555
O56 P14 1.578714 1_545
O56 Ti0 2.155809 1_555
O57 P15 1.606681 1_545
O57 Ti1 1.988162 1_555
O58 P16 1.606699 1_555
O58 Ti1 1.988162 1_555
O59 P17 1.606689 1_655
O59 Ti1 1.988162 1_555
O60 P11 1.535040 1_555
O61 P9 1.535022 1_455
O62 P10 1.535030 1_565
O63 P7 1.543683 1_565
O64 P8 1.543701 1_555
O65 P6 1.543690 1_455
O66 P0 1.553905 1_555
O67 P1 1.553914 1_555
O68 P2 1.553910 1_555
O69 P3 1.607704 1_555
O69 Ti2 1.987125 1_555
O70 P4 1.607695 1_555
O70 Ti2 1.987125 1_555
O71 P5 1.607700 1_565
O71 Ti2 1.987125 1_555
