# generated using pymatgen
data_Cs3Cu2I5
_symmetry_space_group_name_H-M   'P 1'
_cell_length_a   10.28605124
_cell_length_b   11.76382032
_cell_length_c   14.41229571
_cell_angle_alpha   90.00000000
_cell_angle_beta   90.00000000
_cell_angle_gamma   90.00000000
_symmetry_Int_Tables_number   1
_chemical_formula_structural   Cs3Cu2I5
_chemical_formula_sum   'Cs12 Cu8 I20'
_cell_volume   1743.93474467
_cell_formula_units_Z   4
loop_
 _symmetry_equiv_pos_site_id
 _symmetry_equiv_pos_as_xyz
  1  'x, y, z'
loop_
 _atom_site_type_symbol
 _atom_site_label
 _atom_site_symmetry_multiplicity
 _atom_site_fract_x
 _atom_site_fract_y
 _atom_site_fract_z
 _atom_site_occupancy
  Cs  Cs0  1  0.55277438  0.98812955  0.82410617  1
  Cs  Cs1  1  0.05277438  0.51187045  0.67589383  1
  Cs  Cs2  1  0.44722562  0.48812955  0.17589383  1
  Cs  Cs3  1  0.94722562  0.01187045  0.32410617  1
  Cs  Cs4  1  0.44722562  0.01187045  0.17589383  1
  Cs  Cs5  1  0.94722562  0.48812955  0.32410617  1
  Cs  Cs6  1  0.55277438  0.51187045  0.82410617  1
  Cs  Cs7  1  0.05277438  0.98812955  0.67589383  1
  Cs  Cs8  1  0.90747217  0.75000000  0.04905375  1
  Cs  Cs9  1  0.40747217  0.75000000  0.45094625  1
  Cs  Cs10  1  0.09252783  0.25000000  0.95094625  1
  Cs  Cs11  1  0.59252783  0.25000000  0.54905375  1
  Cu  Cu0  1  0.73924759  0.25000000  0.12619939  1
  Cu  Cu1  1  0.28636527  0.75000000  0.04369402  1
  Cu  Cu2  1  0.78636527  0.75000000  0.45630598  1
  Cu  Cu3  1  0.71363473  0.25000000  0.95630598  1
  Cu  Cu4  1  0.21363473  0.25000000  0.54369402  1
  Cu  Cu5  1  0.26075241  0.75000000  0.87380061  1
  Cu  Cu6  1  0.76075241  0.75000000  0.62619939  1
  Cu  Cu7  1  0.23924759  0.25000000  0.37380061  1
  I  I0  1  0.33952262  0.75000000  0.70900236  1
  I  I1  1  0.83952262  0.75000000  0.79099764  1
  I  I2  1  0.66047738  0.25000000  0.29099764  1
  I  I3  1  0.16047738  0.25000000  0.20900236  1
  I  I4  1  0.96577530  0.25000000  0.51282483  1
  I  I5  1  0.20432096  0.75000000  0.21183228  1
  I  I6  1  0.46577530  0.25000000  0.98717517  1
  I  I7  1  0.03422470  0.75000000  0.48717517  1
  I  I8  1  0.53422470  0.75000000  0.01282483  1
  I  I9  1  0.29567904  0.25000000  0.71183228  1
  I  I10  1  0.79567904  0.25000000  0.78816772  1
  I  I11  1  0.70432096  0.75000000  0.28816772  1
  I  I12  1  0.69235676  0.56231044  0.55041646  1
  I  I13  1  0.19235676  0.93768956  0.94958354  1
  I  I14  1  0.30764324  0.06231044  0.44958354  1
  I  I15  1  0.80764324  0.43768956  0.05041646  1
  I  I16  1  0.30764324  0.43768956  0.44958354  1
  I  I17  1  0.80764324  0.06231044  0.05041646  1
  I  I18  1  0.69235676  0.93768956  0.55041646  1
  I  I19  1  0.19235676  0.56231044  0.94958354  1
loop_
_geom_bond_atom_site_label_1
_geom_bond_atom_site_label_2
_geom_bond_distance
_geom_bond_site_symmetry_2
Cs0 I8 3.909149 1_556
Cs0 I0 3.925667 1_555
Cs0 I6 3.976722 1_565
Cs0 Cu3 3.982212 1_565
Cs0 I10 4.000126 1_565
Cs0 I1 4.095685 1_555
Cs0 I13 4.167294 1_555
Cs0 Cu5 4.169274 1_555
Cs0 I18 4.239401 1_555
Cs0 I17 4.274651 1_566
Cs0 I9 4.370556 1_565
Cs1 I7 3.909149 1_555
Cs1 I1 3.925667 1_455
Cs1 I4 3.976722 1_455
Cs1 Cu4 3.982212 1_555
Cs1 I9 4.000126 1_555
Cs1 I0 4.095685 1_555
Cs1 I12 4.167294 1_455
Cs1 Cu6 4.169274 1_455
Cs1 I19 4.239401 1_555
Cs1 I16 4.274651 1_555
Cs1 I10 4.370556 1_455
Cs2 I6 3.909149 1_554
Cs2 I2 3.925667 1_555
Cs2 I8 3.976722 1_555
Cs2 Cu1 3.982212 1_555
Cs2 I5 4.000126 1_555
Cs2 I3 4.095685 1_555
Cs2 I15 4.167294 1_555
Cs2 Cu0 4.169274 1_555
Cs2 I16 4.239401 1_555
Cs2 I19 4.274651 1_554
Cs2 I11 4.370556 1_555
Cs3 I4 3.909149 1_555
Cs3 I3 3.925667 1_655
Cs3 I7 3.976722 1_645
Cs3 Cu2 3.982212 1_545
Cs3 I11 4.000126 1_545
Cs3 I2 4.095685 1_555
Cs3 I14 4.167294 1_655
Cs3 Cu7 4.169274 1_655
Cs3 I17 4.239401 1_555
Cs3 I18 4.274651 1_545
Cs3 I5 4.370556 1_645
Cs4 I6 3.909149 1_554
Cs4 I2 3.925667 1_555
Cs4 I8 3.976722 1_545
Cs4 Cu1 3.982212 1_545
Cs4 I5 4.000126 1_545
Cs4 I3 4.095685 1_555
Cs4 I17 4.167294 1_555
Cs4 Cu0 4.169274 1_555
Cs4 I14 4.239401 1_555
Cs4 I13 4.274651 1_544
Cs4 I11 4.370556 1_545
Cs5 I4 3.909149 1_555
Cs5 I3 3.925667 1_655
Cs5 I7 3.976722 1_655
Cs5 Cu2 3.982212 1_555
Cs5 I11 4.000126 1_555
Cs5 I2 4.095685 1_555
Cs5 I16 4.167294 1_655
Cs5 Cu7 4.169274 1_655
Cs5 I15 4.239401 1_555
Cs5 I12 4.274651 1_555
Cs5 I5 4.370556 1_655
Cs6 I8 3.909149 1_556
Cs6 I0 3.925667 1_555
Cs6 I6 3.976722 1_555
Cs6 Cu3 3.982212 1_555
Cs6 I10 4.000126 1_555
Cs6 I1 4.095685 1_555
Cs6 I19 4.167294 1_555
Cs6 Cu5 4.169274 1_555
Cs6 I12 4.239401 1_555
Cs6 I15 4.274651 1_556
Cs6 I9 4.370556 1_555
Cs7 I7 3.909149 1_555
Cs7 I1 3.925667 1_455
Cs7 I4 3.976722 1_465
Cs7 Cu4 3.982212 1_565
Cs7 I9 4.000126 1_565
Cs7 I0 4.095685 1_555
Cs7 I18 4.167294 1_455
Cs7 Cu6 4.169274 1_455
Cs7 I13 4.239401 1_555
Cs7 I14 4.274651 1_565
Cs7 I10 4.370556 1_465
Cs8 I1 3.784285 1_554
Cs8 I15 3.814814 1_555
Cs8 I17 3.814814 1_565
Cs8 I5 3.850589 1_655
Cs8 I8 3.874586 1_555
Cs8 Cu1 3.898079 1_655
Cs8 I19 3.939175 1_654
Cs8 I13 3.939175 1_654
Cs8 I11 4.030222 1_555
Cs9 I0 3.784285 1_555
Cs9 I16 3.814814 1_555
Cs9 I14 3.814814 1_565
Cs9 I11 3.850589 1_555
Cs9 I7 3.874586 1_555
Cs9 Cu2 3.898079 1_555
Cs9 I18 3.939175 1_555
Cs9 I12 3.939175 1_555
Cs9 I5 4.030222 1_555
Cs10 I3 3.784285 1_556
Cs10 I13 3.814814 1_545
Cs10 I19 3.814814 1_555
Cs10 I10 3.850589 1_455
Cs10 I6 3.874586 1_555
Cs10 Cu3 3.898079 1_455
Cs10 I17 3.939175 1_456
Cs10 I15 3.939175 1_456
Cs10 I9 4.030222 1_555
Cs11 I2 3.784285 1_555
Cs11 I18 3.814814 1_545
Cs11 I12 3.814814 1_555
Cs11 I9 3.850589 1_555
Cs11 I4 3.874586 1_555
Cs11 Cu4 3.898079 1_555
Cs11 I16 3.939175 1_555
Cs11 I14 3.939175 1_555
Cs11 I10 4.030222 1_555
Cu0 I2 2.509518 1_555
Cu0 I15 2.561812 1_555
Cu0 I17 2.561812 1_555
Cu1 I5 2.566002 1_555
Cu1 I8 2.588022 1_555
Cu1 I19 2.765818 1_554
Cu1 I13 2.765818 1_554
Cu2 I11 2.566002 1_555
Cu2 I7 2.588022 1_655
Cu2 I18 2.765818 1_555
Cu2 I12 2.765818 1_555
Cu3 I10 2.566002 1_555
Cu3 I6 2.588022 1_555
Cu3 I15 2.765818 1_556
Cu3 I17 2.765818 1_556
Cu4 I9 2.566002 1_555
Cu4 I4 2.588022 1_455
Cu4 I14 2.765818 1_555
Cu4 I16 2.765818 1_555
Cu5 I0 2.509518 1_555
Cu5 I19 2.561812 1_555
Cu5 I13 2.561812 1_555
Cu6 I1 2.509518 1_555
Cu6 I18 2.561812 1_555
Cu6 I12 2.561812 1_555
Cu7 I3 2.509518 1_555
Cu7 I16 2.561812 1_555
Cu7 I14 2.561812 1_555
