# generated using pymatgen
data_NaCr(GeO3)2
_symmetry_space_group_name_H-M   'P 1'
_cell_length_a   5.55523971
_cell_length_b   6.75508433
_cell_length_c   6.75508512
_cell_angle_alpha   83.10021518
_cell_angle_beta   76.80982023
_cell_angle_gamma   76.80982532
_symmetry_Int_Tables_number   1
_chemical_formula_structural   NaCr(GeO3)2
_chemical_formula_sum   'Na2 Cr2 Ge4 O12'
_cell_volume   239.67302851
_cell_formula_units_Z   2
loop_
 _symmetry_equiv_pos_site_id
 _symmetry_equiv_pos_as_xyz
  1  'x, y, z'
loop_
 _atom_site_type_symbol
 _atom_site_label
 _atom_site_symmetry_multiplicity
 _atom_site_fract_x
 _atom_site_fract_y
 _atom_site_fract_z
 _atom_site_occupancy
  Na  Na0  1  0.25000000  0.69723200  0.30276800  1
  Na  Na1  1  0.75000000  0.30276800  0.69723200  1
  Cr  Cr0  1  0.75000000  0.91091500  0.08908500  1
  Cr  Cr1  1  0.25000000  0.08908500  0.91091500  1
  Ge  Ge0  1  0.77395600  0.38583300  0.19389300  1
  Ge  Ge1  1  0.72604400  0.80610700  0.61416700  1
  Ge  Ge2  1  0.22604400  0.61416700  0.80610700  1
  Ge  Ge3  1  0.27395600  0.19389300  0.38583300  1
  O  O0  1  0.49337500  0.35069400  0.37516600  1
  O  O1  1  0.00662500  0.62483400  0.64930600  1
  O  O2  1  0.50662500  0.64930600  0.62483400  1
  O  O3  1  0.99337500  0.37516600  0.35069400  1
  O  O4  1  0.19026500  0.08612200  0.63223400  1
  O  O5  1  0.30973500  0.36776600  0.91387800  1
  O  O6  1  0.80973500  0.91387800  0.36776600  1
  O  O7  1  0.69026500  0.63223400  0.08612200  1
  O  O8  1  0.87058700  0.18772700  0.02297400  1
  O  O9  1  0.62941300  0.97702600  0.81227300  1
  O  O10  1  0.12941300  0.81227300  0.97702600  1
  O  O11  1  0.37058800  0.02297400  0.18772700  1
loop_
_geom_bond_atom_site_label_1
_geom_bond_atom_site_label_2
_geom_bond_distance
_geom_bond_site_symmetry_2
Na0 O10 2.432850 1_554
Na0 O11 2.432852 1_565
Na0 O0 2.475724 1_555
Na0 O1 2.475724 1_555
Na0 O7 2.519357 1_555
Na0 O6 2.519357 1_455
Na0 O3 2.811749 1_455
Na0 O2 2.811749 1_555
Na1 O9 2.432850 1_545
Na1 O8 2.432850 1_556
Na1 O2 2.475724 1_555
Na1 O3 2.475724 1_555
Na1 O5 2.519357 1_555
Na1 O4 2.519357 1_655
Na1 O1 2.811749 1_655
Na1 O0 2.811749 1_555
Cr0 O7 1.987852 1_555
Cr0 O6 1.987852 1_555
Cr0 O11 2.052224 1_565
Cr0 O10 2.052229 1_654
Cr0 O8 2.092645 1_565
Cr0 O9 2.092645 1_554
Cr1 O5 1.987852 1_555
Cr1 O4 1.987852 1_555
Cr1 O8 2.052229 1_456
Cr1 O9 2.052229 1_545
Cr1 O10 2.092645 1_545
Cr1 O11 2.092648 1_556
Ge0 O7 1.739751 1_555
Ge0 O3 1.773041 1_555
Ge0 O8 1.781174 1_555
Ge0 O0 1.792561 1_555
Ge1 O6 1.739752 1_555
Ge1 O2 1.773041 1_555
Ge1 O9 1.781174 1_555
Ge1 O1 1.792561 1_655
Ge2 O5 1.739751 1_555
Ge2 O1 1.773041 1_555
Ge2 O10 1.781174 1_555
Ge2 O2 1.792561 1_555
Ge3 O4 1.739752 1_555
Ge3 O0 1.773041 1_555
Ge3 O11 1.781174 1_555
Ge3 O3 1.792561 1_455
