# generated using pymatgen
data_Na2Ga2P2SO12
_symmetry_space_group_name_H-M   'P 1'
_cell_length_a   8.60445723
_cell_length_b   8.60445696
_cell_length_c   21.99529819
_cell_angle_alpha   90.44624037
_cell_angle_beta   89.55375956
_cell_angle_gamma   119.87407870
_symmetry_Int_Tables_number   1
_chemical_formula_structural   Na2Ga2P2SO12
_chemical_formula_sum   'Na12 Ga12 P12 S6 O72'
_cell_volume   1412.01565493
_cell_formula_units_Z   6
loop_
 _symmetry_equiv_pos_site_id
 _symmetry_equiv_pos_as_xyz
  1  'x, y, z'
loop_
 _atom_site_type_symbol
 _atom_site_label
 _atom_site_symmetry_multiplicity
 _atom_site_fract_x
 _atom_site_fract_y
 _atom_site_fract_z
 _atom_site_occupancy
  Na  Na0  1  0.99772337  0.63180365  0.25102649  1
  Na  Na1  1  0.36819635  0.00227663  0.75102649  1
  Na  Na2  1  0.66439037  0.96513665  0.58435949  1
  Na  Na3  1  0.03486335  0.33560963  0.08435949  1
  Na  Na4  1  0.33105637  0.29847065  0.91769349  1
  Na  Na5  1  0.70152935  0.66894363  0.41769349  1
  Na  Na6  1  0.01066486  0.00011456  0.50012718  1
  Na  Na7  1  -0.00011456  0.98933514  0.00012718  1
  Na  Na8  1  0.67733186  0.33344756  0.83346018  1
  Na  Na9  1  0.66655244  0.32266814  0.33346018  1
  Na  Na10  1  0.34399786  0.66678156  0.16679418  1
  Na  Na11  1  0.33321844  0.65600214  0.66679418  1
  Ga  Ga0  1  0.98925322  0.99777187  0.35104736  1
  Ga  Ga1  1  0.00222813  0.01074678  0.85104736  1
  Ga  Ga2  1  0.00233235  0.99873259  0.64899158  1
  Ga  Ga3  1  0.00126741  0.99766765  0.14899158  1
  Ga  Ga4  1  0.65592022  0.33110487  0.68438036  1
  Ga  Ga5  1  0.66889513  0.34407978  0.18438036  1
  Ga  Ga6  1  0.66899935  0.33206559  0.98232458  1
  Ga  Ga7  1  0.66793441  0.33100065  0.48232458  1
  Ga  Ga8  1  0.32258622  0.66443887  0.01771436  1
  Ga  Ga9  1  0.33556113  0.67741378  0.51771436  1
  Ga  Ga10  1  0.33566535  0.66539959  0.31565858  1
  Ga  Ga11  1  0.33460041  0.66433465  0.81565858  1
  P  P0  1  0.70499640  0.71042679  0.24979586  1
  P  P1  1  0.99929853  0.28829591  0.24957441  1
  P  P2  1  0.28957321  0.29500360  0.74979586  1
  P  P3  1  0.71170409  0.00070147  0.74957441  1
  P  P4  1  0.37166340  0.04375979  0.58312886  1
  P  P5  1  0.66596553  0.62162891  0.58290741  1
  P  P6  1  0.95624021  0.62833660  0.08312886  1
  P  P7  1  0.37837109  0.33403447  0.08290741  1
  P  P8  1  0.03832940  0.37709379  0.91646286  1
  P  P9  1  0.33263153  0.95496291  0.91624141  1
  P  P10  1  0.62290621  0.96167060  0.41646286  1
  P  P11  1  0.04503709  0.66736847  0.41624141  1
  S  S0  1  0.29406380  0.00450461  0.25043283  1
  S  S1  1  0.99549539  0.70593620  0.75043283  1
  S  S2  1  0.96073080  0.33783761  0.58376583  1
  S  S3  1  0.66216239  0.03926920  0.08376583  1
  S  S4  1  0.62739680  0.67117161  0.91709983  1
  S  S5  1  0.32882839  0.37260320  0.41709983  1
  O  O0  1  0.21373321  0.03495830  0.30554573  1
  O  O1  1  0.82522032  0.78381181  0.30747764  1
  O  O2  1  0.96910374  0.17406611  0.30625471  1
  O  O3  1  0.21618819  0.17477968  0.80747764  1
  O  O4  1  0.96504170  0.78626679  0.80554573  1
  O  O5  1  0.82593389  0.03089626  0.80625471  1
  O  O6  1  0.78960708  0.96593059  0.69068384  1
  O  O7  1  0.17301516  0.20717135  0.69368371  1
  O  O8  1  0.03544615  0.82084070  0.69575370  1
  O  O9  1  0.79282865  0.82698484  0.19368371  1
  O  O10  1  0.03406941  0.21039292  0.19068384  1
  O  O11  1  0.17915930  0.96455385  0.19575370  1
  O  O12  1  0.88040021  0.36829130  0.63887873  1
  O  O13  1  0.49188732  0.11714481  0.64081064  1
  O  O14  1  0.63577074  0.50739911  0.63958771  1
  O  O15  1  0.88285519  0.50811268  0.14081064  1
  O  O16  1  0.63170870  0.11959979  0.13887873  1
  O  O17  1  0.49260089  0.36422926  0.13958771  1
  O  O18  1  0.45627408  0.29926359  0.02401684  1
  O  O19  1  0.83968216  0.54050435  0.02701671  1
  O  O20  1  0.70211315  0.15417370  0.02908670  1
  O  O21  1  0.45949565  0.16031784  0.52701671  1
  O  O22  1  0.70073641  0.54372592  0.52401684  1
  O  O23  1  0.84582630  0.29788685  0.52908670  1
  O  O24  1  0.54706621  0.70162530  0.97221273  1
  O  O25  1  0.15855332  0.45047881  0.97414464  1
  O  O26  1  0.30243674  0.84073311  0.97292171  1
  O  O27  1  0.54952119  0.84144668  0.47414464  1
  O  O28  1  0.29837470  0.45293379  0.47221273  1
  O  O29  1  0.15926689  0.69756326  0.47292171  1
  O  O30  1  0.12294008  0.63259759  0.35735084  1
  O  O31  1  0.50634816  0.87383835  0.36035071  1
  O  O32  1  0.36877915  0.48750770  0.36242070  1
  O  O33  1  0.12616165  0.49365184  0.86035071  1
  O  O34  1  0.36740241  0.87705992  0.85735084  1
  O  O35  1  0.51249230  0.63122085  0.86242070  1
  O  O36  1  0.02259895  0.83603440  0.40994940  1
  O  O37  1  0.81066953  0.97560460  0.41088263  1
  O  O38  1  0.17003403  0.19345207  0.41008682  1
  O  O39  1  0.02439540  0.18933047  0.91088263  1
  O  O40  1  0.16396560  0.97740105  0.90994940  1
  O  O41  1  0.80654793  0.82996597  0.91008682  1
  O  O42  1  0.97436773  0.17181091  0.58890676  1
  O  O43  1  0.18509077  0.02421943  0.59055379  1
  O  O44  1  0.83195002  0.81431899  0.58922556  1
  O  O45  1  0.97578057  0.81490923  0.09055379  1
  O  O46  1  0.82818909  0.02563227  0.08890676  1
  O  O47  1  0.18568101  0.16804998  0.08922556  1
  O  O48  1  0.68926595  0.16936740  0.74328240  1
  O  O49  1  0.47733653  0.30893760  0.74421563  1
  O  O50  1  0.83670103  0.52678507  0.74341982  1
  O  O51  1  0.69106240  0.52266347  0.24421563  1
  O  O52  1  0.83063260  0.31073405  0.24328240  1
  O  O53  1  0.47321493  0.16329897  0.24341982  1
  O  O54  1  0.64103473  0.50514391  0.92223976  1
  O  O55  1  0.85175777  0.35755243  0.92388679  1
  O  O56  1  0.49861702  0.14765199  0.92255856  1
  O  O57  1  0.64244757  0.14824223  0.42388679  1
  O  O58  1  0.49485609  0.35896527  0.42223976  1
  O  O59  1  0.85234801  0.50138298  0.42255856  1
  O  O60  1  0.35593195  0.50270140  0.07661640  1
  O  O61  1  0.14400253  0.64227160  0.07754963  1
  O  O62  1  0.50336703  0.86011907  0.07675382  1
  O  O63  1  0.35772840  0.85599747  0.57754963  1
  O  O64  1  0.49729860  0.64406805  0.57661640  1
  O  O65  1  0.13988093  0.49663297  0.57675382  1
  O  O66  1  0.30770073  0.83847791  0.25557376  1
  O  O67  1  0.51842377  0.69088643  0.25722079  1
  O  O68  1  0.16528302  0.48098599  0.25589256  1
  O  O69  1  0.30911357  0.48157623  0.75722079  1
  O  O70  1  0.16152209  0.69229927  0.75557376  1
  O  O71  1  0.51901401  0.83471698  0.75589256  1
loop_
_geom_bond_atom_site_label_1
_geom_bond_atom_site_label_2
_geom_bond_distance
_geom_bond_site_symmetry_2
Na0 O51 2.324281 1_555
Na0 O66 2.358527 1_655
Na0 O68 2.375412 1_655
Na0 O52 2.401645 1_555
Na0 O30 2.581040 1_655
Na0 O15 2.633576 1_555
Na0 O1 2.708424 1_555
Na0 O11 2.772122 1_655
Na1 O49 2.324281 1_555
Na1 O70 2.358527 1_545
Na1 O71 2.375412 1_545
Na1 O48 2.401646 1_555
Na1 O34 2.581040 1_545
Na1 O13 2.633576 1_555
Na1 O3 2.708424 1_555
Na1 O8 2.772122 1_545
Na2 O63 2.324289 1_555
Na2 O42 2.358527 1_565
Na2 O44 2.375412 1_555
Na2 O64 2.401637 1_555
Na2 O6 2.581040 1_555
Na2 O27 2.633555 1_555
Na2 O13 2.708424 1_565
Na2 O23 2.772122 1_565
Na3 O61 2.324289 1_555
Na3 O46 2.358527 1_455
Na3 O47 2.375412 1_555
Na3 O60 2.401637 1_555
Na3 O10 2.581040 1_555
Na3 O25 2.633555 1_554
Na3 O15 2.708424 1_455
Na3 O20 2.772122 1_455
Na4 O39 2.324281 1_555
Na4 O54 2.358531 1_555
Na4 O56 2.375425 1_555
Na4 O40 2.401645 1_545
Na4 O18 2.581026 1_556
Na4 O3 2.633576 1_555
Na4 O25 2.708424 1_555
Na4 O35 2.772122 1_555
Na5 O37 2.324281 1_555
Na5 O58 2.358531 1_555
Na5 O59 2.375425 1_555
Na5 O36 2.401646 1_655
Na5 O22 2.581026 1_555
Na5 O1 2.633576 1_555
Na5 O27 2.708424 1_555
Na5 O32 2.772122 1_555
Na6 O43 2.445705 1_555
Na6 O36 2.456753 1_545
Na6 O38 2.511293 1_555
Na6 O44 2.512744 1_445
Na6 O42 2.549214 1_455
Na6 O37 2.558056 1_445
Na7 O45 2.445705 1_455
Na7 O40 2.456753 1_554
Na7 O41 2.511293 1_454
Na7 O47 2.512744 1_565
Na7 O46 2.549214 1_465
Na7 O39 2.558056 1_564
Na8 O55 2.445705 1_555
Na8 O48 2.456753 1_555
Na8 O50 2.511293 1_555
Na8 O56 2.512744 1_555
Na8 O54 2.549214 1_555
Na8 O49 2.558056 1_555
Na9 O57 2.445705 1_555
Na9 O52 2.456753 1_555
Na9 O53 2.511293 1_555
Na9 O59 2.512744 1_555
Na9 O58 2.549214 1_555
Na9 O51 2.558056 1_555
Na10 O67 2.445705 1_555
Na10 O60 2.456753 1_555
Na10 O62 2.511293 1_555
Na10 O68 2.512744 1_555
Na10 O66 2.549214 1_555
Na10 O61 2.558056 1_555
Na11 O69 2.445705 1_555
Na11 O64 2.456753 1_555
Na11 O65 2.511293 1_555
Na11 O71 2.512744 1_555
Na11 O70 2.549214 1_555
Na11 O63 2.558056 1_555
Ga0 O2 1.894651 1_565
Ga0 O1 1.924801 1_555
Ga0 O37 1.951950 1_555
Ga0 O36 2.032043 1_655
Ga0 O0 2.047933 1_665
Ga0 O38 2.080678 1_665
Ga1 O5 1.894651 1_455
Ga1 O3 1.924801 1_555
Ga1 O39 1.951950 1_555
Ga1 O40 2.032043 1_545
Ga1 O4 2.047933 1_445
Ga1 O41 2.080678 1_445
Ga2 O7 1.926374 1_565
Ga2 O6 1.932398 1_455
Ga2 O43 1.949992 1_565
Ga2 O8 1.986347 1_555
Ga2 O44 2.018751 1_455
Ga2 O42 2.101171 1_465
Ga3 O9 1.926374 1_455
Ga3 O10 1.932398 1_565
Ga3 O45 1.949992 1_455
Ga3 O11 1.986347 1_555
Ga3 O47 2.018751 1_565
Ga3 O46 2.101171 1_465
Ga4 O14 1.894651 1_555
Ga4 O13 1.924801 1_555
Ga4 O49 1.951950 1_555
Ga4 O48 2.032043 1_555
Ga4 O12 2.047933 1_555
Ga4 O50 2.080678 1_555
Ga5 O17 1.894651 1_555
Ga5 O15 1.924801 1_555
Ga5 O51 1.951950 1_555
Ga5 O52 2.032043 1_555
Ga5 O16 2.047933 1_555
Ga5 O53 2.080678 1_555
Ga6 O19 1.926374 1_556
Ga6 O18 1.932398 1_556
Ga6 O55 1.949992 1_555
Ga6 O20 1.986347 1_556
Ga6 O56 2.018751 1_555
Ga6 O54 2.101171 1_555
Ga7 O21 1.926374 1_555
Ga7 O22 1.932398 1_555
Ga7 O57 1.949992 1_555
Ga7 O23 1.986347 1_555
Ga7 O59 2.018751 1_555
Ga7 O58 2.101171 1_555
Ga8 O26 1.894651 1_554
Ga8 O25 1.924801 1_554
Ga8 O61 1.951950 1_555
Ga8 O60 2.032043 1_555
Ga8 O24 2.047933 1_554
Ga8 O62 2.080678 1_555
Ga9 O29 1.894651 1_555
Ga9 O27 1.924801 1_555
Ga9 O63 1.951950 1_555
Ga9 O64 2.032043 1_555
Ga9 O28 2.047933 1_555
Ga9 O65 2.080678 1_555
Ga10 O31 1.926374 1_555
Ga10 O30 1.932398 1_555
Ga10 O67 1.949992 1_555
Ga10 O32 1.986347 1_555
Ga10 O68 2.018751 1_555
Ga10 O66 2.101171 1_555
Ga11 O33 1.926374 1_555
Ga11 O34 1.932398 1_555
Ga11 O69 1.949992 1_555
Ga11 O35 1.986347 1_555
Ga11 O71 2.018751 1_555
Ga11 O70 2.101171 1_555
O0 S0 1.475921 1_555
O1 P0 1.560689 1_555
O2 P1 1.532148 1_555
O3 P2 1.560689 1_555
O4 S1 1.475921 1_555
O5 P3 1.532148 1_555
O6 P3 1.548191 1_565
O7 P2 1.532953 1_555
O8 S1 1.488501 1_455
O9 P0 1.532953 1_555
O10 P1 1.548191 1_455
O11 S0 1.488501 1_565
O12 S2 1.475921 1_555
O13 P4 1.560689 1_555
O14 P5 1.532148 1_555
O15 P6 1.560689 1_555
O16 S3 1.475921 1_555
O17 P7 1.532148 1_555
O18 P7 1.548191 1_555
O19 P6 1.532953 1_555
O20 S3 1.488501 1_555
O21 P4 1.532953 1_555
O22 P5 1.548191 1_555
O23 S2 1.488501 1_555
O24 S4 1.475921 1_555
O25 P8 1.560689 1_555
O26 P9 1.532148 1_555
O27 P10 1.560689 1_555
O28 S5 1.475921 1_555
O29 P11 1.532148 1_555
O30 P11 1.548191 1_555
O31 P10 1.532953 1_555
O32 S5 1.488501 1_555
O33 P8 1.532953 1_555
O34 P9 1.548191 1_555
O35 S4 1.488501 1_555
O36 P11 1.563749 1_555
O37 P10 1.563261 1_555
O38 S5 1.472510 1_555
O39 P8 1.563261 1_555
O40 P9 1.563749 1_555
O41 S4 1.472510 1_555
O42 S2 1.495686 1_555
O43 P4 1.536088 1_555
O44 P5 1.564798 1_555
O45 P6 1.536088 1_555
O46 S3 1.495686 1_555
O47 P7 1.564798 1_555
O48 P3 1.563749 1_555
O49 P2 1.563261 1_555
O50 S1 1.472510 1_555
O51 P0 1.563261 1_555
O52 P1 1.563749 1_555
O53 S0 1.472510 1_555
O54 S4 1.495697 1_555
O55 P8 1.536074 1_655
O56 P9 1.564795 1_545
O57 P10 1.536074 1_545
O58 S5 1.495697 1_555
O59 P11 1.564795 1_655
O60 P7 1.563761 1_555
O61 P6 1.563247 1_455
O62 S3 1.472506 1_565
O63 P4 1.563247 1_565
O64 P5 1.563761 1_555
O65 S2 1.472506 1_455
O66 S0 1.495686 1_565
O67 P0 1.536088 1_555
O68 P1 1.564798 1_455
O69 P2 1.536088 1_555
O70 S1 1.495686 1_455
O71 P3 1.564798 1_565
