# generated using pymatgen
data_Li6Cr3P8O29
_symmetry_space_group_name_H-M   'P 1'
_cell_length_a   9.83346500
_cell_length_b   9.83399872
_cell_length_c   13.95901346
_cell_angle_alpha   89.86039380
_cell_angle_beta   89.84836051
_cell_angle_gamma   60.06157474
_symmetry_Int_Tables_number   1
_chemical_formula_structural   Li6Cr3P8O29
_chemical_formula_sum   'Li12 Cr6 P16 O58'
_cell_volume   1169.73997485
_cell_formula_units_Z   2
loop_
 _symmetry_equiv_pos_site_id
 _symmetry_equiv_pos_as_xyz
  1  'x, y, z'
loop_
 _atom_site_type_symbol
 _atom_site_label
 _atom_site_symmetry_multiplicity
 _atom_site_fract_x
 _atom_site_fract_y
 _atom_site_fract_z
 _atom_site_occupancy
  Li  Li0  1  0.22529700  0.68981400  0.05985100  1
  Li  Li1  1  0.77434200  0.31414500  0.93926000  1
  Li  Li2  1  0.91083300  0.31462700  0.43859300  1
  Li  Li3  1  0.31359900  0.77529800  0.43821000  1
  Li  Li4  1  0.31516900  0.90787900  0.93864400  1
  Li  Li5  1  0.22709700  0.08832300  0.56042800  1
  Li  Li6  1  0.08639400  0.22329800  0.06166000  1
  Li  Li7  1  0.09124300  0.68207600  0.56487400  1
  Li  Li8  1  0.68590600  0.22567900  0.56120400  1
  Li  Li9  1  0.32996900  0.33679000  0.88505200  1
  Li  Li10  1  0.70061600  0.07883600  0.06179100  1
  Li  Li11  1  0.77750300  0.90928300  0.43994800  1
  Cr  Cr0  1  0.56684400  0.43290800  0.74754000  1
  Cr  Cr1  1  0.99868600  0.56973300  0.75198000  1
  Cr  Cr2  1  0.43234300  0.00109400  0.75007100  1
  Cr  Cr3  1  0.56493700  0.00109800  0.24992200  1
  Cr  Cr4  1  0.00184400  0.43507200  0.24775500  1
  Cr  Cr5  1  0.43347100  0.56550000  0.24972700  1
  P  P0  1  0.23100900  0.09061000  0.34019700  1
  P  P1  1  0.32222500  0.91028900  0.15832100  1
  P  P2  1  0.66482600  0.66629400  0.86743500  1
  P  P3  1  0.66619800  0.66633100  0.36676100  1
  P  P4  1  0.32211500  0.76793400  0.65818200  1
  P  P5  1  0.91315000  0.32195000  0.65792800  1
  P  P6  1  0.23095100  0.67657800  0.84102100  1
  P  P7  1  0.08917600  0.67643900  0.34499200  1
  P  P8  1  0.67750500  0.23266700  0.34106300  1
  P  P9  1  0.33233100  0.33430400  0.63025100  1
  P  P10  1  0.33488900  0.33276100  0.12894600  1
  P  P11  1  0.67639100  0.09257400  0.84334500  1
  P  P12  1  0.76720600  0.91190900  0.66031000  1
  P  P13  1  0.08998300  0.23175800  0.84235100  1
  P  P14  1  0.91306600  0.77176300  0.16200100  1
  P  P15  1  0.76741700  0.32295600  0.15852600  1
  O  O0  1  0.25136700  0.08023400  0.84328200  1
  O  O1  1  0.91802100  0.33451900  0.15815000  1
  O  O2  1  0.61982900  0.48370200  0.17410500  1
  O  O3  1  0.99677400  0.24557500  0.93130800  1
  O  O4  1  0.75043700  0.33470800  0.65751900  1
  O  O5  1  0.75663300  0.24394000  0.43091600  1
  O  O6  1  0.24203000  0.75758900  0.56853200  1
  O  O7  1  0.25035200  0.66716600  0.34133600  1
  O  O8  1  0.00954300  0.76652800  0.07790700  1
  O  O9  1  0.37605500  0.50999100  0.82585400  1
  O  O10  1  0.08462900  0.66038500  0.84025600  1
  O  O11  1  0.32689500  0.48666200  0.16686500  1
  O  O12  1  0.51617100  0.38039000  0.32571600  1
  O  O13  1  0.75702300  0.24303800  0.06891200  1
  O  O14  1  0.78722900  0.21281500  0.24990400  1
  O  O15  1  0.66549000  0.25513900  0.84048000  1
  O  O16  1  0.18857400  0.48895900  0.66820100  1
  O  O17  1  0.10445500  0.51550700  0.32593200  1
  O  O18  1  0.48909600  0.32315700  0.66644200  1
  O  O19  1  0.33396500  0.33224600  0.52184400  1
  O  O20  1  0.33370300  0.33376000  0.02081300  1
  O  O21  1  0.48847500  0.18616100  0.16660000  1
  O  O22  1  0.11539300  0.37364600  0.82775600  1
  O  O23  1  0.18818800  0.32425500  0.16656200  1
  O  O24  1  0.66555800  0.08217200  0.34150700  1
  O  O25  1  0.78343600  0.00253300  0.75176900  1
  O  O26  1  0.74854200  0.00631700  0.93381000  1
  O  O27  1  0.75709600  0.00190000  0.57005700  1
  O  O28  1  0.50847600  0.11741700  0.82648600  1
  O  O29  1  0.32233900  0.18913300  0.66786800  1
  O  O30  1  0.08092900  0.25265300  0.34013900  1
  O  O31  1  0.74783400  0.91798200  0.16070300  1
  O  O32  1  0.98826800  0.79372600  0.25959900  1
  O  O33  1  0.37882700  0.10459400  0.32419600  1
  O  O34  1  0.00277300  0.75017400  0.43703500  1
  O  O35  1  0.00337900  0.23949200  0.56848900  1
  O  O36  1  0.00082000  0.21456200  0.75059800  1
  O  O37  1  0.61938900  0.89825700  0.67468600  1
  O  O38  1  0.91794400  0.75057400  0.66045600  1
  O  O39  1  0.48298600  0.62000700  0.67252400  1
  O  O40  1  0.67336900  0.81429700  0.33093300  1
  O  O41  1  0.48314100  0.89673700  0.17481300  1
  O  O42  1  0.24381400  0.00008400  0.06805000  1
  O  O43  1  0.24342700  0.99983000  0.43032100  1
  O  O44  1  0.21140400  0.00100400  0.24915600  1
  O  O45  1  0.33330500  0.91851200  0.65845300  1
  O  O46  1  0.80836000  0.67180200  0.82613900  1
  O  O47  1  0.90335600  0.61972400  0.17175700  1
  O  O48  1  0.51064200  0.81427400  0.83326700  1
  O  O49  1  0.66659500  0.66297500  0.47487100  1
  O  O50  1  0.66792100  0.65882700  0.97600400  1
  O  O51  1  0.67057800  0.51335400  0.83027300  1
  O  O52  1  0.90390900  0.48084100  0.67211500  1
  O  O53  1  0.81214000  0.51372200  0.32795900  1
  O  O54  1  0.33345300  0.74840000  0.15873700  1
  O  O55  1  0.21489000  0.78505100  0.75008600  1
  O  O56  1  0.24802100  0.75312000  0.92996300  1
  O  O57  1  0.51082100  0.67579000  0.32942100  1
loop_
_geom_bond_atom_site_label_1
_geom_bond_atom_site_label_2
_geom_bond_distance
_geom_bond_site_symmetry_2
Li0 O8 1.880001 1_555
Li0 O56 1.963689 1_554
Li0 O54 1.997921 1_555
Li0 O11 2.285155 1_555
Li1 O3 1.943737 1_555
Li1 O13 1.975974 1_556
Li1 O15 2.003846 1_555
Li1 O51 2.278577 1_555
Li2 O5 1.961437 1_555
Li2 O35 1.998234 1_655
Li2 O30 2.008062 1_655
Li2 O53 2.292777 1_555
Li3 O43 1.960146 1_555
Li3 O6 1.987210 1_555
Li3 O7 2.004435 1_555
Li3 O57 2.263240 1_555
Li4 O56 1.941961 1_555
Li4 O42 1.985889 1_566
Li4 O0 1.992596 1_565
Li4 O48 2.220668 1_555
Li5 O35 1.948714 1_555
Li5 O43 1.987017 1_545
Li5 O45 2.001836 1_545
Li5 O29 2.247363 1_555
Li6 O42 1.957233 1_555
Li6 O1 1.984839 1_455
Li6 O3 1.987303 1_454
Li6 O23 2.266868 1_555
Li7 O34 1.952090 1_555
Li7 O6 1.962715 1_555
Li7 O38 1.996132 1_455
Li7 O16 2.186944 1_555
Li8 O27 1.951823 1_555
Li8 O5 1.984937 1_555
Li8 O4 2.012583 1_555
Li8 O18 2.227662 1_555
Li9 O20 1.895416 1_556
Li9 O22 2.113629 1_555
Li9 O9 2.133290 1_555
Li9 O28 2.150535 1_555
Li10 O26 1.894338 1_554
Li10 O13 1.954503 1_555
Li10 O31 1.970740 1_545
Li10 O21 2.323764 1_555
Li11 O34 1.974120 1_655
Li11 O27 1.998018 1_565
Li11 O24 2.029583 1_565
Li11 O40 2.281820 1_555
Cr0 O39 1.908568 1_555
Cr0 O51 1.953528 1_555
Cr0 O9 1.965491 1_555
Cr0 O18 1.965977 1_555
Cr0 O15 1.995793 1_555
Cr0 O4 2.006155 1_555
Cr1 O52 1.923295 1_555
Cr1 O46 1.923954 1_555
Cr1 O10 1.946853 1_655
Cr1 O22 1.985430 1_655
Cr1 O16 1.999446 1_655
Cr1 O38 2.002553 1_555
Cr2 O37 1.910873 1_545
Cr2 O28 1.967692 1_555
Cr2 O48 1.974640 1_545
Cr2 O29 1.976342 1_555
Cr2 O45 2.011130 1_545
Cr2 O0 2.018895 1_555
Cr3 O33 1.896318 1_555
Cr3 O41 1.906073 1_545
Cr3 O40 1.957410 1_545
Cr3 O21 1.964354 1_555
Cr3 O31 1.994887 1_545
Cr3 O24 2.011999 1_555
Cr4 O47 1.897746 1_455
Cr4 O17 1.908236 1_555
Cr4 O23 1.957472 1_555
Cr4 O53 1.970933 1_455
Cr4 O1 2.011654 1_455
Cr4 O30 2.021752 1_555
Cr5 O12 1.902046 1_555
Cr5 O2 1.908437 1_555
Cr5 O57 1.956069 1_555
Cr5 O11 1.964456 1_555
Cr5 O54 2.011323 1_555
Cr5 O7 2.018517 1_555
O0 P13 1.542299 1_555
O1 P15 1.540857 1_555
O2 P15 1.537047 1_555
O3 P13 1.506982 1_655
O4 P5 1.541283 1_555
O5 P8 1.510908 1_555
O6 P4 1.510760 1_555
O7 P7 1.542148 1_555
O8 P14 1.492082 1_455
O9 P6 1.559315 1_555
O10 P6 1.524650 1_555
O11 P10 1.569029 1_555
O12 P8 1.540468 1_555
O13 P15 1.509490 1_555
O14 P8 1.614065 1_555
O14 P15 1.619289 1_555
O15 P11 1.548379 1_555
O16 P9 1.563986 1_555
O17 P7 1.537044 1_555
O18 P9 1.574412 1_555
O19 P9 1.513375 1_555
O20 P10 1.509476 1_555
O21 P10 1.569350 1_555
O22 P13 1.548296 1_555
O23 P10 1.574790 1_555
O24 P8 1.541960 1_555
O25 P11 1.610655 1_555
O25 P12 1.611893 1_545
O26 P11 1.488756 1_555
O27 P12 1.512506 1_545
O28 P11 1.562247 1_555
O29 P9 1.568292 1_555
O30 P0 1.539474 1_555
O31 P14 1.541417 1_555
O32 P7 1.610283 1_655
O32 P14 1.617328 1_555
O33 P0 1.542497 1_555
O34 P7 1.510724 1_555
O35 P5 1.511430 1_455
O36 P13 1.610197 1_555
O36 P5 1.619363 1_455
O37 P12 1.537601 1_555
O38 P12 1.538504 1_555
O39 P4 1.536894 1_555
O40 P3 1.571969 1_555
O41 P1 1.538154 1_555
O42 P1 1.510709 1_545
O43 P0 1.510324 1_565
O44 P0 1.614005 1_555
O44 P1 1.618326 1_545
O45 P4 1.538671 1_555
O46 P2 1.548946 1_555
O47 P14 1.550669 1_555
O48 P2 1.562729 1_555
O49 P3 1.509362 1_555
O50 P2 1.516766 1_555
O51 P2 1.566232 1_555
O52 P5 1.532539 1_555
O53 P3 1.566939 1_555
O54 P1 1.539887 1_555
O55 P6 1.612584 1_555
O55 P4 1.613265 1_555
O56 P6 1.505972 1_555
O57 P3 1.573821 1_555
