# generated using pymatgen
data_Na2Nb5Ga3Si6(SO8)6
_symmetry_space_group_name_H-M   'P 1'
_cell_length_a   17.65123703
_cell_length_b   8.78866758
_cell_length_c   22.73035588
_cell_angle_alpha   89.97856138
_cell_angle_beta   90.01524165
_cell_angle_gamma   120.22934629
_symmetry_Int_Tables_number   1
_chemical_formula_structural   Na2Nb5Ga3Si6(SO8)6
_chemical_formula_sum   'Na6 Nb15 Ga9 Si18 S18 O144'
_cell_volume   3046.67900217
_cell_formula_units_Z   3
loop_
 _symmetry_equiv_pos_site_id
 _symmetry_equiv_pos_as_xyz
  1  'x, y, z'
loop_
 _atom_site_type_symbol
 _atom_site_label
 _atom_site_symmetry_multiplicity
 _atom_site_fract_x
 _atom_site_fract_y
 _atom_site_fract_z
 _atom_site_occupancy
  Na  Na0  1  0.99572826  0.98622112  0.49784517  1
  Na  Na1  1  0.50131321  0.99812878  0.99831972  1
  Na  Na2  1  0.33469473  0.32286974  0.84049493  1
  Na  Na3  1  0.83205880  0.33569914  0.83941637  1
  Na  Na4  1  0.32726260  0.32490673  0.33837771  1
  Na  Na5  1  0.83572655  0.34082129  0.34500852  1
  Nb  Nb0  1  0.49406372  0.99388176  0.36285044  1
  Nb  Nb1  1  0.00590254  0.00602742  0.86465184  1
  Nb  Nb2  1  0.49854269  0.00094259  0.64026902  1
  Nb  Nb3  1  0.00079838  0.01204088  0.14584499  1
  Nb  Nb4  1  0.32729554  0.33542850  0.69168710  1
  Nb  Nb5  1  0.82548620  0.32682479  0.68428633  1
  Nb  Nb6  1  0.34037268  0.34582104  0.19152334  1
  Nb  Nb7  1  0.83312378  0.31872765  0.18947254  1
  Nb  Nb8  1  0.16477272  0.66588692  0.01990288  1
  Nb  Nb9  1  0.66504594  0.66046928  0.02490631  1
  Nb  Nb10  1  0.16753041  0.67328359  0.52092794  1
  Nb  Nb11  1  0.67417900  0.66323385  0.52530083  1
  Nb  Nb12  1  0.16330049  0.67926629  0.30751851  1
  Nb  Nb13  1  0.16665436  0.67152237  0.80780286  1
  Nb  Nb14  1  0.66504915  0.64679194  0.81347844  1
  Ga  Ga0  1  0.00784791  0.00082141  0.35291743  1
  Ga  Ga1  1  0.50593390  0.04135682  0.85126683  1
  Ga  Ga2  1  0.99605601  0.00548441  0.64801883  1
  Ga  Ga3  1  0.49339552  0.97300166  0.14578050  1
  Ga  Ga4  1  0.34505480  0.34006375  0.97639635  1
  Ga  Ga5  1  0.83632322  0.32901376  0.97473354  1
  Ga  Ga6  1  0.33142900  0.33254750  0.48068887  1
  Ga  Ga7  1  0.82964298  0.36232946  0.47821489  1
  Ga  Ga8  1  0.67172170  0.66633139  0.31756263  1
  Si  Si0  1  0.14188389  0.00593803  0.24996632  1
  Si  Si1  1  0.35882374  0.72412227  0.24993662  1
  Si  Si2  1  0.99922345  0.27755170  0.25763685  1
  Si  Si3  1  0.13426986  0.27558248  0.74807657  1
  Si  Si4  1  0.64212344  0.27835351  0.75075045  1
  Si  Si5  1  0.36094232  0.00281473  0.75072332  1
  Si  Si6  1  0.69156401  0.05186863  0.57619439  1
  Si  Si7  1  0.33157104  0.61141913  0.57823163  1
  Si  Si8  1  0.84578814  0.63829809  0.58312894  1
  Si  Si9  1  0.47349164  0.62567942  0.07884428  1
  Si  Si10  1  0.83408186  0.04942620  0.07719339  1
  Si  Si11  1  0.80890637  0.65382419  0.92034016  1
  Si  Si12  1  0.01902329  0.38469376  0.91590416  1
  Si  Si13  1  0.51872642  0.36706874  0.91856982  1
  Si  Si14  1  0.17622240  0.96867122  0.91752759  1
  Si  Si15  1  0.30631469  0.96779791  0.41797699  1
  Si  Si16  1  0.67165751  0.38650748  0.41336488  1
  Si  Si17  1  0.01605796  0.66546374  0.41641160  1
  S  S0  1  0.64212596  0.99007524  0.25149295  1
  S  S1  1  0.85220991  0.71171682  0.25073312  1
  S  S2  1  0.50621217  0.29135714  0.24927739  1
  S  S3  1  0.99861521  0.71253277  0.74907110  1
  S  S4  1  0.50144545  0.71879891  0.75202982  1
  S  S5  1  0.85674281  0.00146696  0.75082701  1
  S  S6  1  0.47480401  0.33455555  0.58154786  1
  S  S7  1  0.97598173  0.32882856  0.58178810  1
  S  S8  1  0.18760408  0.04695256  0.58296574  1
  S  S9  1  0.97597837  0.61991216  0.08244587  1
  S  S10  1  0.33646537  0.04661385  0.08296069  1
  S  S11  1  0.19230699  0.33384478  0.08209785  1
  S  S12  1  0.68680211  0.32459983  0.08414821  1
  S  S13  1  0.31239491  0.66741083  0.91613178  1
  S  S14  1  0.66324926  0.95286711  0.91622038  1
  S  S15  1  0.81142024  0.95597638  0.41490020  1
  S  S16  1  0.16632424  0.37561435  0.41697604  1
  S  S17  1  0.52320675  0.66095914  0.41523653  1
  O  O0  1  0.10501063  0.04840319  0.30755655  1
  O  O1  1  0.60578143  0.02988224  0.30359605  1
  O  O2  1  0.42357445  0.80898344  0.30689518  1
  O  O3  1  0.90670603  0.77951069  0.30325300  1
  O  O4  1  0.48785854  0.17759887  0.30213647  1
  O  O5  1  0.97388041  0.14628901  0.31175572  1
  O  O6  1  0.09330901  0.15300302  0.80634875  1
  O  O7  1  0.60793393  0.16453412  0.80960906  1
  O  O8  1  0.48214628  0.78772160  0.80430286  1
  O  O9  1  0.98300352  0.78739241  0.80257372  1
  O  O10  1  0.41526593  0.03570474  0.81007403  1
  O  O11  1  0.91176023  0.02772425  0.80276662  1
  O  O12  1  0.40359806  0.97099854  0.69172712  1
  O  O13  1  0.89096220  0.96708796  0.69654416  1
  O  O14  1  0.08066965  0.18997697  0.68929284  1
  O  O15  1  0.58321329  0.19092527  0.69252901  1
  O  O16  1  0.01213694  0.81646752  0.69596164  1
  O  O17  1  0.51334326  0.81963644  0.69730967  1
  O  O18  1  0.39938832  0.83984543  0.19203868  1
  O  O19  1  0.89525581  0.81960467  0.19659369  1
  O  O20  1  0.00929783  0.18843242  0.19535788  1
  O  O21  1  0.51825197  0.21336245  0.19574968  1
  O  O22  1  0.08141193  0.97339352  0.19106762  1
  O  O23  1  0.59303410  0.96833868  0.19697028  1
  O  O24  1  0.43504872  0.35893096  0.63522129  1
  O  O25  1  0.93728617  0.35853824  0.63705400  1
  O  O26  1  0.24358626  0.12736282  0.63663324  1
  O  O27  1  0.75089637  0.13312525  0.63876141  1
  O  O28  1  0.32019123  0.49256942  0.63816480  1
  O  O29  1  0.82273970  0.50535874  0.64117524  1
  O  O30  1  0.42805548  0.49958307  0.13836481  1
  O  O31  1  0.93528866  0.51026818  0.13647466  1
  O  O32  1  0.31855043  0.12156597  0.13616609  1
  O  O33  1  0.82139043  0.14498703  0.13863456  1
  O  O34  1  0.24459068  0.35921321  0.13635206  1
  O  O35  1  0.74354643  0.35537801  0.13743509  1
  O  O36  1  0.22766387  0.30098422  0.02966175  1
  O  O37  1  0.72541050  0.29691802  0.03128670  1
  O  O38  1  0.40801453  0.52907045  0.02495787  1
  O  O39  1  0.92419470  0.54558530  0.02980353  1
  O  O40  1  0.34681488  0.14940090  0.02954510  1
  O  O41  1  0.85163081  0.18194556  0.02486343  1
  O  O42  1  0.22854597  0.15187093  0.52992198  1
  O  O43  1  0.74095302  0.17684633  0.52285928  1
  O  O44  1  0.35023327  0.52347587  0.52281451  1
  O  O45  1  0.86113474  0.55674453  0.52566136  1
  O  O46  1  0.42228416  0.30157958  0.52866556  1
  O  O47  1  0.92256232  0.29968406  0.53034345  1
  O  O48  1  0.26812642  0.69312269  0.97057467  1
  O  O49  1  0.76471426  0.69720127  0.97542349  1
  O  O50  1  0.08321084  0.47335956  0.97519164  1
  O  O51  1  0.58384894  0.47387623  0.97356061  1
  O  O52  1  0.15774889  0.83550006  0.97528116  1
  O  O53  1  0.65294024  0.84650544  0.96995939  1
  O  O54  1  0.26531102  0.84031283  0.47604168  1
  O  O55  1  0.76477603  0.83895365  0.46820769  1
  O  O56  1  0.15558233  0.46301914  0.47091908  1
  O  O57  1  0.65181581  0.47453696  0.47179003  1
  O  O58  1  0.08342109  0.69367321  0.47363549  1
  O  O59  1  0.57558443  0.68984281  0.46854454  1
  O  O60  1  0.06909836  0.64287103  0.35990528  1
  O  O61  1  0.56347203  0.64025951  0.36089106  1
  O  O62  1  0.24931038  0.87140078  0.36015207  1
  O  O63  1  0.75585472  0.87626399  0.36117875  1
  O  O64  1  0.18043888  0.48319025  0.36414987  1
  O  O65  1  0.68407814  0.50143716  0.35536746  1
  O  O66  1  0.07253836  0.50847413  0.86054230  1
  O  O67  1  0.56853404  0.49295513  0.85919557  1
  O  O68  1  0.18614721  0.86864383  0.86045311  1
  O  O69  1  0.67831660  0.87138994  0.86276745  1
  O  O70  1  0.25739525  0.64397339  0.86351950  1
  O  O71  1  0.74804032  0.63267906  0.86084518  1
  O  O72  1  0.00902086  0.84353885  0.41003687  1
  O  O73  1  0.51672180  0.82650353  0.40926074  1
  O  O74  1  0.40335504  0.98152409  0.40810089  1
  O  O75  1  0.89560547  0.96052059  0.41194622  1
  O  O76  1  0.08533314  0.20126956  0.41473164  1
  O  O77  1  0.58211902  0.19169962  0.40242602  1
  O  O78  1  0.01384713  0.19382698  0.90884962  1
  O  O79  1  0.51428737  0.17856437  0.91602633  1
  O  O80  1  0.08305729  0.96600747  0.90988120  1
  O  O81  1  0.58236726  0.96149885  0.91070699  1
  O  O82  1  0.39947805  0.82403606  0.91257369  1
  O  O83  1  0.90267995  0.82648542  0.90240538  1
  O  O84  1  0.48715933  0.17930280  0.58843492  1
  O  O85  1  0.98795446  0.17414005  0.58986262  1
  O  O86  1  0.10041502  0.02551593  0.58985343  1
  O  O87  1  0.59625773  0.02703004  0.59431477  1
  O  O88  1  0.41665071  0.80461605  0.59304532  1
  O  O89  1  0.92654856  0.83384562  0.59499904  1
  O  O90  1  0.49098867  0.82477523  0.08722065  1
  O  O91  1  0.98833591  0.79710544  0.09235321  1
  O  O92  1  0.41601834  0.03253253  0.08957159  1
  O  O93  1  0.91723504  0.02249566  0.09335565  1
  O  O94  1  0.10119120  0.17882959  0.09103900  1
  O  O95  1  0.59765955  0.17264419  0.09376181  1
  O  O96  1  0.34786920  0.17392182  0.73787907  1
  O  O97  1  0.85102695  0.16581291  0.74467600  1
  O  O98  1  0.23554942  0.30329759  0.74188208  1
  O  O99  1  0.74349969  0.31208014  0.74266697  1
  O  O100  1  0.42305009  0.53265512  0.74308965  1
  O  O101  1  0.92248907  0.52925232  0.74338728  1
  O  O102  1  0.34901778  0.52408753  0.24211886  1
  O  O103  1  0.84074296  0.53080629  0.23923720  1
  O  O104  1  0.42158147  0.30130545  0.24362048  1
  O  O105  1  0.91426592  0.31011232  0.24172061  1
  O  O106  1  0.24162861  0.17093944  0.23692435  1
  O  O107  1  0.73349549  0.15783420  0.24373480  1
  O  O108  1  0.31419377  0.50345341  0.92252812  1
  O  O109  1  0.81536801  0.47949204  0.92733451  1
  O  O110  1  0.42636269  0.36164348  0.91950700  1
  O  O111  1  0.92398001  0.36100266  0.92017442  1
  O  O112  1  0.25546281  0.16217979  0.92899584  1
  O  O113  1  0.74244992  0.12980999  0.92148590  1
  O  O114  1  0.32241857  0.16411652  0.42689795  1
  O  O115  1  0.81991812  0.12796596  0.42227590  1
  O  O116  1  0.24527172  0.35718905  0.42326448  1
  O  O117  1  0.75209203  0.35315673  0.41935021  1
  O  O118  1  0.43377824  0.50838422  0.41954550  1
  O  O119  1  0.92525444  0.48167732  0.42384001  1
  O  O120  1  0.18246316  0.49306912  0.07654866  1
  O  O121  1  0.68104244  0.48856428  0.07912047  1
  O  O122  1  0.06525292  0.63668848  0.07709299  1
  O  O123  1  0.56898125  0.63837708  0.07135928  1
  O  O124  1  0.25745597  0.86412367  0.07552444  1
  O  O125  1  0.74704171  0.85782534  0.07342628  1
  O  O126  1  0.18066651  0.87018127  0.57804383  1
  O  O127  1  0.67590430  0.85271623  0.56835505  1
  O  O128  1  0.24462861  0.63046478  0.57124357  1
  O  O129  1  0.75388003  0.64823416  0.57518710  1
  O  O130  1  0.06529680  0.48990322  0.57608665  1
  O  O131  1  0.56347502  0.49433227  0.57567044  1
  O  O132  1  0.15297785  0.83317553  0.25475154  1
  O  O133  1  0.65638247  0.84031135  0.26045534  1
  O  O134  1  0.26161061  0.68574433  0.26420582  1
  O  O135  1  0.76570040  0.69737362  0.25569296  1
  O  O136  1  0.08404892  0.47038554  0.26101463  1
  O  O137  1  0.57884419  0.47150401  0.25818158  1
  O  O138  1  0.15253337  0.47380696  0.76107635  1
  O  O139  1  0.65458980  0.47788393  0.75779265  1
  O  O140  1  0.07877131  0.69640305  0.75620545  1
  O  O141  1  0.57994260  0.69961734  0.75823595  1
  O  O142  1  0.26185331  0.83324608  0.75950751  1
  O  O143  1  0.76635449  0.85075938  0.75963525  1
loop_
_geom_bond_atom_site_label_1
_geom_bond_atom_site_label_2
_geom_bond_distance
_geom_bond_site_symmetry_2
Na0 O72 2.430965 1_655
Na0 O89 2.552233 1_555
Na0 O75 2.565773 1_555
Na0 O76 2.575199 1_665
Na0 O86 2.695107 1_665
Na0 O85 2.711484 1_565
Na1 O79 2.387151 1_565
Na1 O90 2.481160 1_556
Na1 O81 2.565593 1_555
Na1 O82 2.569414 1_555
Na1 O92 2.668501 1_566
Na1 O95 2.706493 1_566
Na2 O110 2.324531 1_555
Na2 O112 2.451068 1_555
Na2 O108 2.589897 1_555
Na2 O96 2.741775 1_555
Na2 O98 2.794933 1_555
Na2 O100 2.799484 1_555
Na3 O111 2.384760 1_555
Na3 O109 2.460609 1_555
Na3 O113 2.524514 1_555
Na3 O99 2.644740 1_555
Na3 O101 2.733321 1_555
Na3 O97 2.735873 1_555
Na4 O114 2.434971 1_555
Na4 O116 2.512637 1_555
Na4 O118 2.546897 1_555
Na4 O102 2.705527 1_555
Na4 O106 2.715647 1_555
Na4 O104 2.793534 1_555
Na5 O117 2.282358 1_555
Na5 O119 2.295839 1_555
Na5 O115 2.476745 1_555
Na5 O105 2.808148 1_555
Na5 O107 2.867084 1_555
Na5 O103 2.902464 1_555
Nb0 O74 1.859841 1_555
Nb0 O77 1.878058 1_565
Nb0 O2 1.941974 1_555
Nb0 O73 2.006930 1_555
Nb0 O4 2.167922 1_565
Nb0 O1 2.275003 1_565
Nb1 O80 1.875278 1_545
Nb1 O78 1.876495 1_555
Nb1 O83 1.910736 1_445
Nb1 O6 1.948912 1_555
Nb1 O9 2.250853 1_445
Nb1 O11 2.257000 1_455
Nb2 O88 1.925617 1_545
Nb2 O87 1.929031 1_555
Nb2 O12 1.950049 1_545
Nb2 O15 1.980011 1_555
Nb2 O84 2.049731 1_555
Nb2 O17 2.169284 1_545
Nb3 O20 1.859954 1_555
Nb3 O22 1.918944 1_545
Nb3 O93 1.934682 1_455
Nb3 O94 2.055498 1_555
Nb3 O19 2.118662 1_445
Nb3 O91 2.162924 1_445
Nb4 O98 1.882641 1_555
Nb4 O28 1.891075 1_555
Nb4 O96 1.940822 1_555
Nb4 O100 2.068065 1_555
Nb4 O26 2.091209 1_555
Nb4 O24 2.216538 1_555
Nb5 O27 1.856346 1_555
Nb5 O29 1.870837 1_555
Nb5 O99 1.919401 1_555
Nb5 O25 2.138159 1_555
Nb5 O97 2.174978 1_555
Nb5 O101 2.198813 1_555
Nb6 O102 1.887077 1_555
Nb6 O30 1.890867 1_555
Nb6 O106 1.941008 1_555
Nb6 O104 2.042924 1_555
Nb6 O34 2.155000 1_555
Nb6 O32 2.203019 1_555
Nb7 O33 1.841889 1_555
Nb7 O105 1.890968 1_555
Nb7 O107 2.027135 1_555
Nb7 O31 2.116583 1_555
Nb7 O35 2.124718 1_555
Nb7 O103 2.126217 1_555
Nb8 O52 1.857717 1_554
Nb8 O50 1.875157 1_554
Nb8 O48 2.050322 1_554
Nb8 O122 2.094898 1_555
Nb8 O124 2.107322 1_555
Nb8 O120 2.130284 1_555
Nb9 O123 1.922800 1_555
Nb9 O51 1.933772 1_554
Nb9 O125 1.947404 1_555
Nb9 O49 1.973131 1_554
Nb9 O121 2.075774 1_555
Nb9 O53 2.151498 1_554
Nb10 O54 1.903531 1_555
Nb10 O58 1.912775 1_555
Nb10 O128 1.953500 1_555
Nb10 O126 2.081172 1_555
Nb10 O56 2.088187 1_555
Nb10 O130 2.120624 1_555
Nb11 O129 1.862286 1_555
Nb11 O127 1.918857 1_555
Nb11 O57 1.930703 1_555
Nb11 O55 2.034524 1_555
Nb11 O131 2.100448 1_555
Nb11 O59 2.270706 1_555
Nb12 O132 1.883696 1_555
Nb12 O60 1.936573 1_555
Nb12 O136 1.964477 1_555
Nb12 O134 1.971077 1_555
Nb12 O62 2.001692 1_555
Nb12 O64 2.289358 1_555
Nb13 O142 1.908890 1_555
Nb13 O138 1.942878 1_555
Nb13 O66 1.962917 1_555
Nb13 O68 1.988233 1_555
Nb13 O140 2.042081 1_555
Nb13 O70 2.148749 1_555
Nb14 O67 1.868352 1_555
Nb14 O71 1.871503 1_555
Nb14 O139 1.888178 1_555
Nb14 O143 2.163488 1_555
Nb14 O69 2.177714 1_555
Nb14 O141 2.179407 1_555
Ga0 O0 1.859517 1_555
Ga0 O72 1.903774 1_545
Ga0 O5 1.907875 1_455
Ga0 O76 2.126734 1_555
Ga0 O3 2.179186 1_445
Ga0 O75 2.268353 1_445
Ga1 O7 1.829661 1_555
Ga1 O10 1.832935 1_555
Ga1 O79 1.861410 1_555
Ga1 O81 2.256103 1_545
Ga1 O8 2.311693 1_545
Ga1 O82 2.346568 1_545
Ga2 O14 1.817095 1_655
Ga2 O89 1.835808 1_545
Ga2 O13 2.035221 1_545
Ga2 O85 2.043736 1_555
Ga2 O16 2.121562 1_645
Ga2 O86 2.201541 1_655
Ga3 O18 1.809201 1_555
Ga3 O90 1.848295 1_555
Ga3 O92 2.118878 1_565
Ga3 O23 2.126073 1_555
Ga3 O95 2.147513 1_565
Ga3 O21 2.239042 1_565
Ga4 O38 1.831574 1_556
Ga4 O110 1.869384 1_555
Ga4 O112 1.901771 1_555
Ga4 O40 2.078271 1_556
Ga4 O108 2.154995 1_555
Ga4 O36 2.271972 1_556
Ga5 O41 1.841856 1_556
Ga5 O109 1.880930 1_555
Ga5 O111 1.890435 1_555
Ga5 O113 2.086881 1_555
Ga5 O39 2.150247 1_556
Ga5 O37 2.238255 1_556
Ga6 O44 1.811892 1_555
Ga6 O114 1.864319 1_555
Ga6 O42 2.041525 1_555
Ga6 O46 2.067255 1_555
Ga6 O116 2.096137 1_555
Ga6 O118 2.184504 1_555
Ga7 O45 1.853720 1_555
Ga7 O117 1.886419 1_555
Ga7 O43 1.888883 1_555
Ga7 O119 1.921896 1_555
Ga7 O47 2.303242 1_555
Ga7 O115 2.352569 1_555
Ga8 O65 1.789809 1_555
Ga8 O63 1.958073 1_555
Ga8 O61 2.057518 1_555
Ga8 O135 2.085467 1_555
Ga8 O133 2.124026 1_555
Ga8 O137 2.148339 1_555
O0 Si0 1.588054 1_555
O1 S0 1.470808 1_545
O2 Si1 1.637182 1_555
O3 S1 1.458858 1_555
O4 S2 1.490405 1_555
O5 Si2 1.588649 1_555
O6 Si3 1.628775 1_555
O7 Si4 1.595719 1_555
O8 S4 1.450268 1_555
O9 S3 1.473466 1_555
O10 Si5 1.594831 1_555
O11 S5 1.471090 1_555
O12 Si5 1.629782 1_565
O13 S5 1.470713 1_565
O14 Si3 1.590556 1_555
O15 Si4 1.618192 1_555
O16 S3 1.458931 1_455
O17 S4 1.479348 1_555
O18 Si1 1.595390 1_555
O19 S1 1.504980 1_555
O20 Si2 1.670414 1_455
O21 S2 1.463846 1_555
O22 Si0 1.644879 1_565
O23 S0 1.468403 1_555
O24 S6 1.476069 1_555
O25 S7 1.514283 1_555
O26 S8 1.503604 1_555
O27 Si6 1.695953 1_555
O28 Si7 1.665856 1_555
O29 Si8 1.670910 1_555
O30 Si9 1.675191 1_555
O31 S9 1.501774 1_555
O32 S10 1.485618 1_555
O33 Si10 1.701899 1_555
O34 S11 1.488168 1_555
O35 S12 1.506736 1_555
O36 S11 1.440709 1_555
O37 S12 1.461150 1_555
O38 Si9 1.602769 1_555
O39 S9 1.446644 1_555
O40 S10 1.468582 1_555
O41 Si10 1.582137 1_555
O42 S8 1.467950 1_555
O43 Si6 1.572123 1_555
O44 Si7 1.596850 1_555
O45 Si8 1.577913 1_555
O46 S6 1.455135 1_555
O47 S7 1.441714 1_555
O48 S13 1.539994 1_555
O49 Si11 1.619191 1_555
O50 Si12 1.678681 1_555
O51 Si13 1.636613 1_555
O52 Si14 1.677583 1_555
O53 S14 1.492309 1_555
O54 Si15 1.644385 1_555
O55 S15 1.533233 1_555
O56 S16 1.508959 1_555
O57 Si16 1.660938 1_555
O58 Si17 1.694032 1_555
O59 S17 1.466545 1_555
O60 Si17 1.659419 1_555
O61 S17 1.481557 1_555
O62 Si15 1.612314 1_555
O63 S15 1.500665 1_555
O64 S16 1.469657 1_555
O65 Si16 1.606991 1_555
O66 Si12 1.619931 1_555
O67 Si13 1.684785 1_555
O68 Si14 1.625612 1_555
O69 S14 1.500773 1_555
O70 S13 1.487710 1_555
O71 Si11 1.678092 1_555
O72 Si17 1.637483 1_555
O73 S17 1.521797 1_555
O74 Si15 1.670638 1_555
O75 S15 1.467826 1_555
O76 S16 1.479358 1_555
O77 Si16 1.663262 1_555
O78 Si12 1.641285 1_555
O79 Si13 1.619723 1_555
O80 Si14 1.641997 1_555
O81 S14 1.472633 1_555
O82 S13 1.460670 1_555
O83 Si11 1.636888 1_555
O84 S6 1.494419 1_555
O85 S7 1.488521 1_555
O86 S8 1.461733 1_555
O87 Si6 1.636419 1_555
O88 Si7 1.638376 1_555
O89 Si8 1.609899 1_555
O90 Si9 1.627714 1_555
O91 S9 1.477042 1_555
O92 S10 1.478024 1_555
O93 Si10 1.641566 1_555
O94 S11 1.509205 1_555
O95 S12 1.480257 1_555
O96 Si5 1.657999 1_555
O97 S5 1.504175 1_555
O98 Si3 1.684252 1_555
O99 Si4 1.670236 1_555
O100 S4 1.533984 1_555
O101 S3 1.495843 1_555
O102 Si1 1.687025 1_555
O103 S1 1.521008 1_555
O104 S2 1.545034 1_555
O105 Si2 1.700980 1_555
O106 Si0 1.649151 1_555
O107 S0 1.552932 1_545
O108 S13 1.464392 1_555
O109 Si11 1.600478 1_555
O110 Si13 1.607003 1_555
O111 Si12 1.586055 1_655
O112 Si14 1.587938 1_545
O113 S14 1.482567 1_545
O114 Si15 1.614076 1_545
O115 S15 1.451652 1_545
O116 S16 1.488506 1_555
O117 Si16 1.593443 1_555
O118 S17 1.472433 1_555
O119 Si17 1.612318 1_655
O120 S11 1.499675 1_555
O121 S12 1.499116 1_555
O122 S9 1.511902 1_455
O123 Si9 1.641062 1_555
O124 S10 1.514490 1_565
O125 Si10 1.611936 1_565
O126 S8 1.499898 1_565
O127 Si6 1.638507 1_565
O128 Si7 1.633058 1_555
O129 Si8 1.677654 1_555
O130 S7 1.502987 1_455
O131 S6 1.492087 1_555
O132 Si0 1.629362 1_565
O133 S0 1.473283 1_555
O134 Si1 1.606495 1_555
O135 S1 1.471933 1_555
O136 Si2 1.601520 1_455
O137 S2 1.465446 1_555
O138 Si3 1.631282 1_555
O139 Si4 1.661573 1_555
O140 S3 1.500008 1_455
O141 S4 1.484320 1_555
O142 Si5 1.641739 1_565
O143 S5 1.487299 1_565
