# generated using pymatgen
data_Rb3NaMg(WO4)2
_symmetry_space_group_name_H-M   'P 1'
_cell_length_a   6.29409039
_cell_length_b   6.29462785
_cell_length_c   8.87503000
_cell_angle_alpha   89.99999734
_cell_angle_beta   89.99975056
_cell_angle_gamma   120.00280771
_symmetry_Int_Tables_number   1
_chemical_formula_structural   Rb3NaMg(WO4)2
_chemical_formula_sum   'Rb3 Na1 Mg1 W2 O8'
_cell_volume   304.50274178
_cell_formula_units_Z   1
loop_
 _symmetry_equiv_pos_site_id
 _symmetry_equiv_pos_as_xyz
  1  'x, y, z'
loop_
 _atom_site_type_symbol
 _atom_site_label
 _atom_site_symmetry_multiplicity
 _atom_site_fract_x
 _atom_site_fract_y
 _atom_site_fract_z
 _atom_site_occupancy
  Rb  Rb0  1  0.00005100  0.00002500  0.44374500  1
  Rb  Rb1  1  0.33332500  0.66666200  0.81860900  1
  Rb  Rb2  1  0.66666900  0.33333500  0.14045700  1
  Na  Na0  1  0.00005800  0.00002900  0.08036200  1
  Mg  Mg0  1  0.00000400  0.00000200  0.78025600  1
  W  W0  1  0.33328400  0.66664200  0.28465800  1
  W  W1  1  0.66667900  0.33334000  0.69716900  1
  O  O0  1  0.17711000  0.82286700  0.21065700  1
  O  O1  1  0.17711000  0.35424200  0.21065700  1
  O  O2  1  0.64580700  0.82290200  0.21065300  1
  O  O3  1  0.82925900  0.17064800  0.80822900  1
  O  O4  1  0.82925900  0.65861200  0.80822900  1
  O  O5  1  0.34141600  0.17070900  0.80831300  1
  O  O6  1  0.33332800  0.66666400  0.48692200  1
  O  O7  1  0.66664300  0.33332100  0.48608600  1
loop_
_geom_bond_atom_site_label_1
_geom_bond_atom_site_label_2
_geom_bond_distance
_geom_bond_site_symmetry_2
Na0 O1 2.250659 1_555
Na0 O0 2.250663 1_545
Na0 O2 2.250669 1_445
Mg0 O4 1.877455 1_445
Mg0 O3 1.877460 1_455
Mg0 O5 1.877517 1_555
Mg0 Rb0 2.986545 1_555
O0 W0 1.825192 1_555
O0 Rb0 2.829785 1_565
O0 Rb2 3.210057 1_455
O0 Rb2 3.210240 1_565
O1 W0 1.825198 1_555
O1 Rb0 2.829786 1_555
O1 Rb2 3.210062 1_455
O1 Rb2 3.210233 1_555
O2 W0 1.825696 1_555
O2 Rb0 2.829810 1_665
O2 Rb2 3.210382 1_555
O2 Rb2 3.210407 1_565
O3 W1 2.028656 1_555
O3 Rb1 3.148452 1_545
O3 Rb1 3.148948 1_655
O3 Rb2 3.440615 1_556
O4 W1 2.028656 1_555
O4 Rb1 3.148445 1_555
O4 Rb1 3.148953 1_655
O4 Rb2 3.440615 1_556
O5 W1 2.028837 1_555
O5 Rb1 3.148940 1_555
O5 Rb1 3.148958 1_545
O5 Rb2 3.439842 1_556
O6 W0 1.795099 1_555
O6 Rb1 2.943732 1_555
O7 W1 1.873368 1_555
O7 Rb2 3.067468 1_555
