# generated using pymatgen
data_K2Cr3O10
_symmetry_space_group_name_H-M   'P 1'
_cell_length_a   18.24806100
_cell_length_b   7.65577400
_cell_length_c   9.83858696
_cell_angle_alpha   50.07692679
_cell_angle_beta   90.00000000
_cell_angle_gamma   90.00000000
_symmetry_Int_Tables_number   1
_chemical_formula_structural   K2Cr3O10
_chemical_formula_sum   'K8 Cr12 O40'
_cell_volume   1054.09834570
_cell_formula_units_Z   4
loop_
 _symmetry_equiv_pos_site_id
 _symmetry_equiv_pos_as_xyz
  1  'x, y, z'
loop_
 _atom_site_type_symbol
 _atom_site_label
 _atom_site_symmetry_multiplicity
 _atom_site_fract_x
 _atom_site_fract_y
 _atom_site_fract_z
 _atom_site_occupancy
  K  K0  1  0.19634300  0.90994900  0.56386000  1
  K  K1  1  0.69634300  0.09005100  0.93614000  1
  K  K2  1  0.80365700  0.09005100  0.43614000  1
  K  K3  1  0.30365700  0.90994900  0.06386000  1
  K  K4  1  0.40928900  0.50523600  0.62835800  1
  K  K5  1  0.90928900  0.49476400  0.87164200  1
  K  K6  1  0.59071100  0.49476400  0.37164200  1
  K  K7  1  0.09071100  0.50523600  0.12835800  1
  Cr  Cr0  1  0.72047700  0.58077400  0.96241600  1
  Cr  Cr1  1  0.22047700  0.41922600  0.53758400  1
  Cr  Cr2  1  0.27952300  0.41922600  0.03758400  1
  Cr  Cr3  1  0.77952300  0.58077400  0.46241600  1
  Cr  Cr4  1  0.59079600  0.74526900  0.66844100  1
  Cr  Cr5  1  0.09079600  0.25473100  0.83155900  1
  Cr  Cr6  1  0.40920400  0.25473100  0.33155900  1
  Cr  Cr7  1  0.90920400  0.74526900  0.16844100  1
  Cr  Cr8  1  0.50346600  0.91885300  0.84313300  1
  Cr  Cr9  1  0.00346600  0.08114700  0.65686700  1
  Cr  Cr10  1  0.49653400  0.08114700  0.15686700  1
  Cr  Cr11  1  0.99653400  0.91885300  0.34313300  1
  O  O0  1  0.69010800  0.59640200  0.11030700  1
  O  O1  1  0.19010800  0.40359800  0.38969300  1
  O  O2  1  0.30989200  0.40359800  0.88969300  1
  O  O3  1  0.80989200  0.59640200  0.61030700  1
  O  O4  1  0.56876000  0.63581000  0.57857400  1
  O  O5  1  0.06876000  0.36419000  0.92142600  1
  O  O6  1  0.43124000  0.36419000  0.42142600  1
  O  O7  1  0.93124000  0.63581000  0.07857400  1
  O  O8  1  0.76435300  0.81278300  0.81008200  1
  O  O9  1  0.26435300  0.18721700  0.68991800  1
  O  O10  1  0.23564700  0.18721700  0.18991800  1
  O  O11  1  0.73564700  0.81278300  0.31008200  1
  O  O12  1  0.97525100  0.71341400  0.54811900  1
  O  O13  1  0.47525100  0.28658600  0.95188100  1
  O  O14  1  0.06301900  0.87450700  0.74708400  1
  O  O15  1  0.02474900  0.28658600  0.45188100  1
  O  O16  1  0.22606300  0.64061000  0.94513900  1
  O  O17  1  0.72606300  0.35939000  0.55486100  1
  O  O18  1  0.77393700  0.35939000  0.05486100  1
  O  O19  1  0.27393700  0.64061000  0.44513900  1
  O  O20  1  0.86252600  0.97463600  0.03211000  1
  O  O21  1  0.36252600  0.02536400  0.46789000  1
  O  O22  1  0.13747400  0.02536400  0.96789000  1
  O  O23  1  0.63747400  0.97463600  0.53211000  1
  O  O24  1  0.98966300  0.80750000  0.22393500  1
  O  O25  1  0.48966300  0.19250000  0.27606500  1
  O  O26  1  0.01033700  0.19250000  0.77606500  1
  O  O27  1  0.51033700  0.80750000  0.72393500  1
  O  O28  1  0.85479900  0.55154100  0.35530800  1
  O  O29  1  0.35479900  0.44845900  0.14469200  1
  O  O30  1  0.14520100  0.44845900  0.64469200  1
  O  O31  1  0.64520100  0.55154100  0.85530800  1
  O  O32  1  0.07925400  0.00884100  0.32897400  1
  O  O33  1  0.57925400  0.99115900  0.17102600  1
  O  O34  1  0.92074600  0.99115900  0.67102600  1
  O  O35  1  0.42074600  0.00884100  0.82897400  1
  O  O36  1  0.43698100  0.87450700  0.24708400  1
  O  O37  1  0.93698100  0.12549300  0.25291600  1
  O  O38  1  0.56301900  0.12549300  0.75291600  1
  O  O39  1  0.52474900  0.71341400  0.04811900  1
loop_
_geom_bond_atom_site_label_1
_geom_bond_atom_site_label_2
_geom_bond_distance
_geom_bond_site_symmetry_2
K0 O32 2.869369 1_565
K0 O10 2.920971 1_565
K0 O14 2.935038 1_555
K0 O16 2.947834 1_555
K0 O1 2.986642 1_565
K0 O21 3.130111 1_565
K0 O30 3.221735 1_555
K0 O19 3.272984 1_555
K0 O9 3.311085 1_565
K1 O33 2.869369 1_546
K1 O11 2.920971 1_546
K1 O38 2.935038 1_555
K1 O17 2.947834 1_555
K1 O0 2.986642 1_546
K1 O20 3.130111 1_546
K1 O31 3.221735 1_555
K1 O18 3.272984 1_556
K1 O8 3.311085 1_545
K2 O34 2.869369 1_545
K2 O8 2.920971 1_545
K2 O37 2.935038 1_555
K2 O18 2.947834 1_555
K2 O3 2.986642 1_545
K2 O23 3.130111 1_545
K2 O28 3.221735 1_555
K2 O17 3.272984 1_555
K2 O11 3.311085 1_545
K3 O35 2.869369 1_564
K3 O9 2.920971 1_564
K3 O36 2.935038 1_555
K3 O19 2.947834 1_555
K3 O2 2.986642 1_564
K3 O22 3.130111 1_564
K3 O29 3.221735 1_555
K3 O16 3.272984 1_554
K3 O10 3.311085 1_565
K4 O13 2.746575 1_555
K4 O2 2.817508 1_555
K4 O19 2.833039 1_555
K4 O6 2.879779 1_555
K4 O36 2.950861 1_555
K4 O35 2.958738 1_555
K4 O4 3.013148 1_555
K5 O12 2.746575 1_555
K5 O3 2.817508 1_555
K5 O18 2.833039 1_556
K5 O7 2.879779 1_556
K5 O37 2.950861 1_556
K5 O34 2.958738 1_555
K5 O5 3.013148 1_655
K6 O39 2.746575 1_555
K6 O0 2.817508 1_555
K6 O17 2.833039 1_555
K6 O4 2.879779 1_555
K6 O38 2.950861 1_555
K6 O33 2.958738 1_555
K6 O6 3.013148 1_555
K7 O15 2.746575 1_555
K7 O1 2.817508 1_555
K7 O16 2.833039 1_554
K7 O5 2.879779 1_554
K7 O14 2.950861 1_554
K7 O32 2.958738 1_555
K7 O7 3.013148 1_455
Cr0 O8 1.620300 1_555
Cr0 O0 1.631566 1_556
Cr0 O18 1.634905 1_556
Cr0 O31 1.830344 1_555
Cr1 O9 1.620300 1_555
Cr1 O1 1.631566 1_555
Cr1 O19 1.634905 1_555
Cr1 O30 1.830344 1_555
Cr2 O10 1.620300 1_555
Cr2 O2 1.631566 1_554
Cr2 O16 1.634905 1_554
Cr2 O29 1.830344 1_555
Cr3 O11 1.620300 1_555
Cr3 O3 1.631566 1_555
Cr3 O17 1.634905 1_555
Cr3 O28 1.830344 1_555
Cr4 O23 1.607802 1_555
Cr4 O4 1.611417 1_555
Cr4 O27 1.736266 1_555
Cr4 O31 1.750882 1_555
Cr5 O22 1.607802 1_555
Cr5 O5 1.611417 1_555
Cr5 O26 1.736266 1_555
Cr5 O30 1.750882 1_555
Cr6 O21 1.607802 1_555
Cr6 O6 1.611417 1_555
Cr6 O25 1.736266 1_555
Cr6 O29 1.750882 1_555
Cr7 O20 1.607802 1_555
Cr7 O7 1.611417 1_555
Cr7 O24 1.736266 1_555
Cr7 O28 1.750882 1_555
Cr8 O39 1.618830 1_556
Cr8 O35 1.627690 1_565
Cr8 O38 1.633773 1_565
Cr8 O27 1.844176 1_555
Cr9 O15 1.618830 1_555
Cr9 O34 1.627690 1_445
Cr9 O14 1.633773 1_545
Cr9 O26 1.844176 1_555
Cr10 O13 1.618830 1_554
Cr10 O33 1.627690 1_545
Cr10 O36 1.633773 1_545
Cr10 O25 1.844176 1_555
Cr11 O12 1.618830 1_555
Cr11 O32 1.627690 1_665
Cr11 O37 1.633773 1_565
Cr11 O24 1.844176 1_555
