# generated using pymatgen
data_Na4YMg(PO4)3
_symmetry_space_group_name_H-M   'P 1'
_cell_length_a   9.25180020
_cell_length_b   9.25179987
_cell_length_c   22.64539121
_cell_angle_alpha   90.00000000
_cell_angle_beta   90.00000000
_cell_angle_gamma   120.00000119
_symmetry_Int_Tables_number   1
_chemical_formula_structural   Na4YMg(PO4)3
_chemical_formula_sum   'Na24 Y6 Mg6 P18 O72'
_cell_volume   1678.66072354
_cell_formula_units_Z   6
loop_
 _symmetry_equiv_pos_site_id
 _symmetry_equiv_pos_as_xyz
  1  'x, y, z'
loop_
 _atom_site_type_symbol
 _atom_site_label
 _atom_site_symmetry_multiplicity
 _atom_site_fract_x
 _atom_site_fract_y
 _atom_site_fract_z
 _atom_site_occupancy
  Na  Na0  1  0.63788422  0.00853567  0.24788266  1
  Na  Na1  1  0.37065146  0.36211578  0.24788266  1
  Na  Na2  1  0.99146433  0.62934854  0.24788266  1
  Na  Na3  1  0.63788422  0.62934854  0.74788266  1
  Na  Na4  1  0.99146433  0.36211578  0.74788266  1
  Na  Na5  1  0.37065146  0.00853567  0.74788266  1
  Na  Na6  1  0.30455122  0.34186867  0.58121566  1
  Na  Na7  1  0.03731846  0.69544878  0.58121566  1
  Na  Na8  1  0.65813133  0.96268154  0.58121566  1
  Na  Na9  1  0.30455122  0.96268154  0.08121566  1
  Na  Na10  1  0.65813133  0.69544878  0.08121566  1
  Na  Na11  1  0.03731846  0.34186867  0.08121566  1
  Na  Na12  1  0.97121722  0.67520267  0.91454966  1
  Na  Na13  1  0.70398446  0.02878278  0.91454966  1
  Na  Na14  1  0.32479733  0.29601554  0.91454966  1
  Na  Na15  1  0.97121722  0.29601554  0.41454966  1
  Na  Na16  1  0.32479733  0.02878278  0.41454966  1
  Na  Na17  1  0.70398446  0.67520267  0.41454966  1
  Na  Na18  1  -0.00000000  0.00000000  0.49474358  1
  Na  Na19  1  -0.00000000  0.00000000  0.99474358  1
  Na  Na20  1  0.66666700  0.33333300  0.82807658  1
  Na  Na21  1  0.66666700  0.33333300  0.32807658  1
  Na  Na22  1  0.33333300  0.66666700  0.16141058  1
  Na  Na23  1  0.33333300  0.66666700  0.66141058  1
  Y  Y0  1  -0.00000000  0.00000000  0.65187669  1
  Y  Y1  1  -0.00000000  0.00000000  0.15187669  1
  Y  Y2  1  0.66666700  0.33333300  0.98520969  1
  Y  Y3  1  0.66666700  0.33333300  0.48520969  1
  Y  Y4  1  0.33333300  0.66666700  0.31854369  1
  Y  Y5  1  0.33333300  0.66666700  0.81854369  1
  Mg  Mg0  1  -0.00000000  0.00000000  0.34818036  1
  Mg  Mg1  1  -0.00000000  0.00000000  0.84818036  1
  Mg  Mg2  1  0.66666700  0.33333300  0.68151336  1
  Mg  Mg3  1  0.66666700  0.33333300  0.18151336  1
  Mg  Mg4  1  0.33333300  0.66666700  0.01484736  1
  Mg  Mg5  1  0.33333300  0.66666700  0.51484736  1
  P  P0  1  0.30339478  0.00657940  0.25170547  1
  P  P1  1  0.70318462  0.69660522  0.25170547  1
  P  P2  1  0.99342060  0.29681538  0.25170547  1
  P  P3  1  0.30339478  0.29681538  0.75170547  1
  P  P4  1  0.99342060  0.69660522  0.75170547  1
  P  P5  1  0.70318462  0.00657940  0.75170547  1
  P  P6  1  0.97006178  0.33991240  0.58503847  1
  P  P7  1  0.36985162  0.02993822  0.58503847  1
  P  P8  1  0.66008760  0.63014838  0.58503847  1
  P  P9  1  0.97006178  0.63014838  0.08503847  1
  P  P10  1  0.66008760  0.02993822  0.08503847  1
  P  P11  1  0.36985162  0.33991240  0.08503847  1
  P  P12  1  0.63672778  0.67324640  0.91837247  1
  P  P13  1  0.03651762  0.36327222  0.91837247  1
  P  P14  1  0.32675360  0.96348238  0.91837247  1
  P  P15  1  0.63672778  0.96348238  0.41837247  1
  P  P16  1  0.32675360  0.36327222  0.41837247  1
  P  P17  1  0.03651762  0.67324640  0.41837247  1
  O  O0  1  0.21347161  0.02660484  0.30578715  1
  O  O1  1  0.81313323  0.78652839  0.30578715  1
  O  O2  1  0.97339516  0.18686677  0.30578715  1
  O  O3  1  0.21347161  0.18686677  0.80578715  1
  O  O4  1  0.97339516  0.78652839  0.80578715  1
  O  O5  1  0.81313323  0.02660484  0.80578715  1
  O  O6  1  0.77937787  0.97712824  0.69512731  1
  O  O7  1  0.19775037  0.22062213  0.69512731  1
  O  O8  1  0.02287176  0.80224963  0.69512731  1
  O  O9  1  0.77937787  0.80224963  0.19512731  1
  O  O10  1  0.02287176  0.22062213  0.19512731  1
  O  O11  1  0.19775037  0.97712824  0.19512731  1
  O  O12  1  0.88013861  0.35993784  0.63912015  1
  O  O13  1  0.47980023  0.11986139  0.63912015  1
  O  O14  1  0.64006216  0.52019977  0.63912015  1
  O  O15  1  0.88013861  0.52019977  0.13912015  1
  O  O16  1  0.64006216  0.11986139  0.13912015  1
  O  O17  1  0.47980023  0.35993784  0.13912015  1
  O  O18  1  0.44604487  0.31046124  0.02846031  1
  O  O19  1  0.86441737  0.55395513  0.02846031  1
  O  O20  1  0.68953876  0.13558263  0.02846031  1
  O  O21  1  0.44604487  0.13558263  0.52846031  1
  O  O22  1  0.68953876  0.55395513  0.52846031  1
  O  O23  1  0.86441737  0.31046124  0.52846031  1
  O  O24  1  0.54680461  0.69327184  0.97245415  1
  O  O25  1  0.14646623  0.45319539  0.97245415  1
  O  O26  1  0.30672816  0.85353377  0.97245415  1
  O  O27  1  0.54680461  0.85353377  0.47245415  1
  O  O28  1  0.30672816  0.45319539  0.47245415  1
  O  O29  1  0.14646623  0.69327184  0.47245415  1
  O  O30  1  0.11271087  0.64379524  0.36179431  1
  O  O31  1  0.53108337  0.88728913  0.36179431  1
  O  O32  1  0.35620476  0.46891663  0.36179431  1
  O  O33  1  0.11271087  0.46891663  0.86179431  1
  O  O34  1  0.35620476  0.88728913  0.86179431  1
  O  O35  1  0.53108337  0.64379524  0.86179431  1
  O  O36  1  0.02039582  0.83229993  0.41289690  1
  O  O37  1  0.81190411  0.97960418  0.41289690  1
  O  O38  1  0.16770007  0.18809589  0.41289690  1
  O  O39  1  0.02039582  0.18809589  0.91289690  1
  O  O40  1  0.16770007  0.97960418  0.91289690  1
  O  O41  1  0.81190411  0.83229993  0.91289690  1
  O  O42  1  0.99071399  0.18282293  0.58833363  1
  O  O43  1  0.19210893  0.00928601  0.58833363  1
  O  O44  1  0.81717707  0.80789107  0.58833363  1
  O  O45  1  0.99071399  0.80789107  0.08833363  1
  O  O46  1  0.81717707  0.00928601  0.08833363  1
  O  O47  1  0.19210893  0.18282293  0.08833363  1
  O  O48  1  0.68706282  0.16563293  0.74622990  1
  O  O49  1  0.47857111  0.31293718  0.74622990  1
  O  O50  1  0.83436707  0.52142889  0.74622990  1
  O  O51  1  0.68706282  0.52142889  0.24622990  1
  O  O52  1  0.83436707  0.31293718  0.24622990  1
  O  O53  1  0.47857111  0.16563293  0.24622990  1
  O  O54  1  0.65738099  0.51615593  0.92166663  1
  O  O55  1  0.85877593  0.34261901  0.92166663  1
  O  O56  1  0.48384407  0.14122407  0.92166663  1
  O  O57  1  0.65738099  0.14122407  0.42166663  1
  O  O58  1  0.48384407  0.34261901  0.42166663  1
  O  O59  1  0.85877593  0.51615593  0.42166663  1
  O  O60  1  0.35372882  0.49896693  0.07956390  1
  O  O61  1  0.14523711  0.64627118  0.07956390  1
  O  O62  1  0.50103307  0.85476289  0.07956390  1
  O  O63  1  0.35372882  0.85476289  0.57956390  1
  O  O64  1  0.50103307  0.64627118  0.57956390  1
  O  O65  1  0.14523711  0.49896693  0.57956390  1
  O  O66  1  0.32404699  0.84948993  0.25500063  1
  O  O67  1  0.52544193  0.67595301  0.25500063  1
  O  O68  1  0.15051007  0.47455807  0.25500063  1
  O  O69  1  0.32404699  0.47455807  0.75500063  1
  O  O70  1  0.15051007  0.67595301  0.75500063  1
  O  O71  1  0.52544193  0.84948993  0.75500063  1
loop_
_geom_bond_atom_site_label_1
_geom_bond_atom_site_label_2
_geom_bond_distance
_geom_bond_site_symmetry_2
Na0 O52 2.473407 1_555
Na0 O66 2.519794 1_545
Na0 O53 2.535470 1_555
Na0 O16 2.665839 1_555
Na0 O67 2.715709 1_545
Na0 O31 2.789348 1_545
Na1 O53 2.473414 1_555
Na1 O67 2.519794 1_555
Na1 O51 2.535478 1_555
Na1 O17 2.665842 1_555
Na1 O68 2.715718 1_555
Na1 O32 2.789350 1_555
Na2 O51 2.473406 1_555
Na2 O68 2.519786 1_655
Na2 O52 2.535478 1_555
Na2 O15 2.665840 1_555
Na2 O66 2.715711 1_655
Na2 O30 2.789347 1_655
Na3 O50 2.473415 1_555
Na3 O69 2.519794 1_555
Na3 O49 2.535478 1_555
Na3 O14 2.665842 1_555
Na3 O71 2.715718 1_555
Na3 O35 2.789350 1_555
Na4 O48 2.473407 1_555
Na4 O70 2.519794 1_655
Na4 O50 2.535470 1_555
Na4 O12 2.665839 1_555
Na4 O69 2.715710 1_655
Na4 O33 2.789348 1_655
Na5 O49 2.473406 1_555
Na5 O71 2.519786 1_545
Na5 O48 2.535478 1_555
Na5 O13 2.665840 1_555
Na5 O70 2.715711 1_545
Na5 O34 2.789347 1_545
Na6 O64 2.473413 1_555
Na6 O42 2.519794 1_455
Na6 O65 2.535486 1_555
Na6 O28 2.665823 1_555
Na6 O43 2.715709 1_555
Na6 O7 2.789348 1_555
Na7 O65 2.473398 1_555
Na7 O43 2.519794 1_565
Na7 O63 2.535469 1_555
Na7 O29 2.665816 1_555
Na7 O44 2.715718 1_455
Na7 O8 2.789350 1_555
Na8 O63 2.473416 1_555
Na8 O44 2.519786 1_555
Na8 O64 2.535469 1_555
Na8 O27 2.665820 1_555
Na8 O42 2.715711 1_565
Na8 O6 2.789347 1_555
Na9 O62 2.473398 1_555
Na9 O45 2.519794 1_455
Na9 O61 2.535469 1_555
Na9 O26 2.665816 1_554
Na9 O47 2.715718 1_565
Na9 O11 2.789350 1_555
Na10 O60 2.473413 1_555
Na10 O46 2.519794 1_565
Na10 O62 2.535486 1_555
Na10 O24 2.665823 1_554
Na10 O45 2.715710 1_555
Na10 O9 2.789348 1_555
Na11 O61 2.473416 1_555
Na11 O47 2.519786 1_555
Na11 O60 2.535469 1_555
Na11 O25 2.665820 1_554
Na11 O46 2.715711 1_455
Na11 O10 2.789347 1_555
Na12 O40 2.473407 1_655
Na12 O54 2.519785 1_555
Na12 O41 2.535470 1_555
Na12 O4 2.665839 1_555
Na12 O55 2.715719 1_555
Na12 O19 2.789328 1_556
Na13 O41 2.473414 1_545
Na13 O55 2.519784 1_555
Na13 O39 2.535478 1_655
Na13 O5 2.665842 1_555
Na13 O56 2.715701 1_555
Na13 O20 2.789324 1_556
Na14 O39 2.473406 1_555
Na14 O56 2.519800 1_555
Na14 O40 2.535478 1_545
Na14 O3 2.665840 1_555
Na14 O54 2.715715 1_555
Na14 O18 2.789331 1_556
Na15 O38 2.473415 1_655
Na15 O57 2.519785 1_555
Na15 O37 2.535478 1_545
Na15 O2 2.665842 1_555
Na15 O59 2.715701 1_555
Na15 O23 2.789324 1_555
Na16 O36 2.473407 1_545
Na16 O58 2.519785 1_555
Na16 O38 2.535470 1_555
Na16 O0 2.665839 1_555
Na16 O57 2.715719 1_555
Na16 O21 2.789328 1_555
Na17 O37 2.473406 1_555
Na17 O59 2.519800 1_555
Na17 O36 2.535478 1_655
Na17 O1 2.665840 1_555
Na17 O58 2.715715 1_555
Na17 O22 2.789331 1_555
Na18 O38 2.484128 1_555
Na18 O36 2.484128 1_545
Na18 O37 2.484128 1_445
Na18 O44 2.739609 1_445
Na18 O43 2.739609 1_555
Na18 O42 2.739609 1_455
Na19 O39 2.484128 1_555
Na19 O41 2.484128 1_445
Na19 O40 2.484128 1_545
Na19 O45 2.739609 1_446
Na19 O47 2.739609 1_556
Na19 O46 2.739609 1_456
Na20 O50 2.484128 1_555
Na20 O48 2.484128 1_555
Na20 O49 2.484128 1_555
Na20 O56 2.739609 1_555
Na20 O55 2.739609 1_555
Na20 O54 2.739609 1_555
Na21 O51 2.484128 1_555
Na21 O53 2.484128 1_555
Na21 O52 2.484128 1_555
Na21 O57 2.739609 1_555
Na21 O59 2.739609 1_555
Na21 O58 2.739609 1_555
Na22 O62 2.484128 1_555
Na22 O60 2.484128 1_555
Na22 O61 2.484128 1_555
Na22 O68 2.739609 1_555
Na22 O67 2.739609 1_555
Na22 O66 2.739609 1_555
Na23 O63 2.484128 1_555
Na23 O65 2.484128 1_555
Na23 O64 2.484128 1_555
Na23 O69 2.739609 1_555
Na23 O71 2.739609 1_555
Na23 O70 2.739609 1_555
Mg0 O1 2.096828 1_445
Mg0 O2 2.096828 1_455
Mg0 O0 2.096828 1_555
Mg0 O38 2.209841 1_555
Mg0 O36 2.209841 1_545
Mg0 O37 2.209841 1_445
Mg1 O4 2.096828 1_445
Mg1 O3 2.096828 1_555
Mg1 O5 2.096828 1_455
Mg1 O39 2.209841 1_555
Mg1 O41 2.209841 1_445
Mg1 O40 2.209841 1_545
Mg2 O13 2.096828 1_555
Mg2 O14 2.096828 1_555
Mg2 O12 2.096828 1_555
Mg2 O50 2.209841 1_555
Mg2 O48 2.209841 1_555
Mg2 O49 2.209841 1_555
Mg3 O16 2.096828 1_555
Mg3 O15 2.096828 1_555
Mg3 O17 2.096828 1_555
Mg3 O51 2.209841 1_555
Mg3 O53 2.209841 1_555
Mg3 O52 2.209841 1_555
Mg4 O25 2.096828 1_554
Mg4 O26 2.096828 1_554
Mg4 O24 2.096828 1_554
Mg4 O62 2.209841 1_555
Mg4 O60 2.209841 1_555
Mg4 O61 2.209841 1_555
Mg5 O28 2.096828 1_555
Mg5 O27 2.096828 1_555
Mg5 O29 2.096828 1_555
Mg5 O63 2.209841 1_555
Mg5 O65 2.209841 1_555
Mg5 O64 2.209841 1_555
O0 P0 1.542886 1_555
O1 P1 1.542886 1_555
O2 P2 1.542886 1_555
O3 P3 1.542886 1_555
O4 P4 1.542886 1_555
O5 P5 1.542886 1_555
O6 P5 1.550742 1_565
O6 Y0 2.176795 1_665
O7 P3 1.550742 1_555
O7 Y0 2.176795 1_555
O8 P4 1.550742 1_455
O8 Y0 2.176795 1_565
O9 P1 1.550742 1_555
O9 Y1 2.176795 1_665
O10 P2 1.550742 1_455
O10 Y1 2.176795 1_555
O11 P0 1.550742 1_565
O11 Y1 2.176795 1_565
O12 P6 1.542886 1_555
O13 P7 1.542886 1_555
O14 P8 1.542886 1_555
O15 P9 1.542886 1_555
O16 P10 1.542886 1_555
O17 P11 1.542886 1_555
O18 P11 1.550742 1_555
O18 Y2 2.176795 1_554
O19 P9 1.550742 1_555
O19 Y2 2.176795 1_554
O20 P10 1.550742 1_555
O20 Y2 2.176795 1_554
O21 P7 1.550742 1_555
O21 Y3 2.176795 1_555
O22 P8 1.550742 1_555
O22 Y3 2.176795 1_555
O23 P6 1.550742 1_555
O23 Y3 2.176795 1_555
O24 P12 1.542886 1_555
O25 P13 1.542886 1_555
O26 P14 1.542886 1_555
O27 P15 1.542886 1_555
O28 P16 1.542886 1_555
O29 P17 1.542886 1_555
O30 P17 1.550742 1_555
O30 Y4 2.176795 1_555
O31 P15 1.550742 1_555
O31 Y4 2.176795 1_555
O32 P16 1.550742 1_555
O32 Y4 2.176795 1_555
O33 P13 1.550742 1_555
O33 Y5 2.176795 1_555
O34 P14 1.550742 1_555
O34 Y5 2.176795 1_555
O35 P12 1.550742 1_555
O35 Y5 2.176795 1_555
O36 P17 1.556443 1_555
O37 P15 1.556452 1_555
O38 P16 1.556448 1_555
O39 P13 1.556452 1_555
O40 P14 1.556443 1_555
O41 P12 1.556448 1_555
O42 P6 1.559495 1_555
O42 Y0 2.254832 1_655
O43 P7 1.559505 1_555
O43 Y0 2.254832 1_555
O44 P8 1.559501 1_555
O44 Y0 2.254832 1_665
O45 P9 1.559505 1_555
O45 Y1 2.254832 1_665
O46 P10 1.559495 1_555
O46 Y1 2.254832 1_655
O47 P11 1.559501 1_555
O47 Y1 2.254832 1_555
O48 P5 1.556443 1_555
O49 P3 1.556452 1_555
O50 P4 1.556448 1_555
O51 P1 1.556452 1_555
O52 P2 1.556443 1_555
O53 P0 1.556448 1_555
O54 P12 1.559509 1_555
O54 Y2 2.254832 1_555
O55 P13 1.559491 1_655
O55 Y2 2.254832 1_555
O56 P14 1.559498 1_545
O56 Y2 2.254832 1_555
O57 P15 1.559491 1_545
O57 Y3 2.254832 1_555
O58 P16 1.559509 1_555
O58 Y3 2.254832 1_555
O59 P17 1.559498 1_655
O59 Y3 2.254832 1_555
O60 P11 1.556456 1_555
O61 P9 1.556437 1_455
O62 P10 1.556445 1_565
O63 P7 1.556437 1_565
O64 P8 1.556456 1_555
O65 P6 1.556445 1_455
O66 P0 1.559495 1_565
O66 Y4 2.254832 1_555
O67 P1 1.559505 1_555
O67 Y4 2.254832 1_555
O68 P2 1.559501 1_455
O68 Y4 2.254832 1_555
O69 P3 1.559505 1_555
O69 Y5 2.254832 1_555
O70 P4 1.559495 1_455
O70 Y5 2.254832 1_555
O71 P5 1.559501 1_565
O71 Y5 2.254832 1_555
