# generated using pymatgen
data_MgV4O10
_symmetry_space_group_name_H-M   'P 1'
_cell_length_a   5.36845957
_cell_length_b   5.06756528
_cell_length_c   7.85940865
_cell_angle_alpha   107.67778267
_cell_angle_beta   102.04778631
_cell_angle_gamma   100.21044308
_symmetry_Int_Tables_number   1
_chemical_formula_structural   MgV4O10
_chemical_formula_sum   'Mg1 V4 O10'
_cell_volume   192.47274503
_cell_formula_units_Z   1
loop_
 _symmetry_equiv_pos_site_id
 _symmetry_equiv_pos_as_xyz
  1  'x, y, z'
loop_
 _atom_site_type_symbol
 _atom_site_label
 _atom_site_symmetry_multiplicity
 _atom_site_fract_x
 _atom_site_fract_y
 _atom_site_fract_z
 _atom_site_occupancy
  Mg  Mg0  1  -0.00000000  0.50000000  0.50000000  1
  V  V0  1  0.40591480  0.33904777  0.29455549  1
  V  V1  1  0.22453133  0.16538216  0.81603511  1
  V  V2  1  0.59408520  0.66095223  0.70544451  1
  V  V3  1  0.77546867  0.83461784  0.18396489  1
  O  O0  1  0.64872930  0.35835007  0.54725868  1
  O  O1  1  0.05936330  0.11221632  0.31482274  1
  O  O2  1  0.35127070  0.64164993  0.45274132  1
  O  O3  1  0.94063670  0.88778368  0.68517726  1
  O  O4  1  0.77058669  0.69257989  0.95175894  1
  O  O5  1  0.22941331  0.30742011  0.04824106  1
  O  O6  1  0.25246454  0.44297375  0.71962411  1
  O  O7  1  0.51258531  0.97896534  0.19875104  1
  O  O8  1  0.74753546  0.55702625  0.28037589  1
  O  O9  1  0.48741469  0.02103466  0.80124896  1
loop_
_geom_bond_atom_site_label_1
_geom_bond_atom_site_label_2
_geom_bond_distance
_geom_bond_site_symmetry_2
Mg0 O2 2.045437 1_555
Mg0 O0 2.045437 1_455
Mg0 O8 2.089289 1_455
Mg0 O6 2.089289 1_555
Mg0 O1 2.181763 1_555
Mg0 O3 2.181763 1_455
O0 V2 1.771184 1_555
O0 V0 2.099858 1_555
O1 V3 1.751104 1_445
O1 V0 2.069948 1_555
O2 V0 1.771184 1_555
O2 V2 2.099858 1_555
O3 V1 1.751104 1_665
O3 V2 2.069948 1_555
O4 V3 1.739242 1_556
O4 V2 1.913935 1_555
O5 V1 1.739242 1_554
O5 V0 1.913935 1_555
O6 V1 1.787595 1_555
O6 V2 2.009463 1_555
O7 V3 1.709714 1_555
O7 V0 1.985093 1_565
O8 V3 1.787595 1_555
O8 V0 2.009463 1_555
O9 V1 1.709714 1_555
O9 V2 1.985093 1_545
