# generated using pymatgen
data_LaTlO3
_symmetry_space_group_name_H-M   'P 1'
_cell_length_a   3.75191191
_cell_length_b   3.75191191
_cell_length_c   13.02791200
_cell_angle_alpha   90.00000000
_cell_angle_beta   90.00000000
_cell_angle_gamma   119.99999840
_symmetry_Int_Tables_number   1
_chemical_formula_structural   LaTlO3
_chemical_formula_sum   'La2 Tl2 O6'
_cell_volume   158.82202214
_cell_formula_units_Z   2
loop_
 _symmetry_equiv_pos_site_id
 _symmetry_equiv_pos_as_xyz
  1  'x, y, z'
loop_
 _atom_site_type_symbol
 _atom_site_label
 _atom_site_symmetry_multiplicity
 _atom_site_fract_x
 _atom_site_fract_y
 _atom_site_fract_z
 _atom_site_occupancy
  La  La0  1  0.00000000  0.00000000  0.99336600  1
  La  La1  1  0.00000000  0.00000000  0.49336600  1
  Tl  Tl0  1  0.66666700  0.33333300  0.26150100  1
  Tl  Tl1  1  0.33333300  0.66666700  0.76150100  1
  O  O0  1  0.00000000  0.00000000  0.70304300  1
  O  O1  1  0.00000000  0.00000000  0.20304300  1
  O  O2  1  0.66666700  0.33333300  0.87170300  1
  O  O3  1  0.33333300  0.66666700  0.37170300  1
  O  O4  1  0.33333300  0.66666700  0.04538700  1
  O  O5  1  0.66666700  0.33333300  0.54538700  1
loop_
_geom_bond_atom_site_label_1
_geom_bond_atom_site_label_2
_geom_bond_distance
_geom_bond_site_symmetry_2
La0 O4 2.269710 1_546
La0 O4 2.269713 1_556
La0 O4 2.269713 1_446
La0 O2 2.684128 1_455
La0 O2 2.684131 1_445
La0 O2 2.684131 1_555
La0 O1 2.731654 1_556
La1 O5 2.269710 1_455
La1 O5 2.269713 1_555
La1 O5 2.269713 1_445
La1 O3 2.684128 1_545
La1 O3 2.684131 1_445
La1 O3 2.684131 1_555
La1 O0 2.731654 1_555
O0 Tl1 2.296146 1_545
O0 Tl1 2.296149 1_555
O0 Tl1 2.296149 1_445
O1 Tl0 2.296146 1_455
O1 Tl0 2.296149 1_445
O1 Tl0 2.296149 1_555
O2 Tl1 2.598752 1_545
O2 Tl1 2.598752 1_655
O2 Tl1 2.598757 1_555
O3 Tl0 2.598752 1_455
O3 Tl0 2.598752 1_565
O3 Tl0 2.598757 1_555
