# generated using pymatgen
data_MgCo6O7F5
_symmetry_space_group_name_H-M   'P 1'
_cell_length_a   8.33938914
_cell_length_b   5.74464172
_cell_length_c   5.86977843
_cell_angle_alpha   66.42977603
_cell_angle_beta   61.81220565
_cell_angle_gamma   62.98819751
_symmetry_Int_Tables_number   1
_chemical_formula_structural   MgCo6O7F5
_chemical_formula_sum   'Mg1 Co6 O7 F5'
_cell_volume   214.57677706
_cell_formula_units_Z   1
loop_
 _symmetry_equiv_pos_site_id
 _symmetry_equiv_pos_as_xyz
  1  'x, y, z'
loop_
 _atom_site_type_symbol
 _atom_site_label
 _atom_site_symmetry_multiplicity
 _atom_site_fract_x
 _atom_site_fract_y
 _atom_site_fract_z
 _atom_site_occupancy
  Mg  Mg0  1  0.14921870  0.33798319  0.87807338  1
  Co  Co0  1  0.80732323  0.64913377  0.65387838  1
  Co  Co1  1  0.34776382  0.69724040  0.65500768  1
  Co  Co2  1  0.64320565  0.33244789  0.33667220  1
  Co  Co3  1  0.21424255  0.36614832  0.35312179  1
  Co  Co4  1  0.51816755  0.00740293  0.00053305  1
  Co  Co5  1  0.97576943  0.97846190  0.00770773  1
  O  O0  1  0.33503888  0.37209010  0.97992907  1
  O  O1  1  0.66608741  0.01310008  0.64183213  1
  O  O2  1  0.35529045  0.42749049  0.47878363  1
  O  O3  1  0.34330264  -0.00061980  0.35295948  1
  O  O4  1  0.65399353  0.64271242  0.01319547  1
  O  O5  1  0.00406879  0.31073099  0.69527114  1
  O  O6  1  0.00210597  0.68040681  0.31789290  1
  F  F0  1  0.63752524  0.56462863  0.55151557  1
  F  F1  1  0.27729445  0.93858955  0.89635139  1
  F  F2  1  0.93900959  0.23871048  0.20536833  1
  F  F3  1  0.04752551  0.73725096  0.78813309  1
  F  F4  1  0.69139861  0.09894788  0.09853360  1
loop_
_geom_bond_atom_site_label_1
_geom_bond_atom_site_label_2
_geom_bond_distance
_geom_bond_site_symmetry_2
Mg0 O0 2.010454 1_555
Mg0 O5 2.043183 1_555
Mg0 O2 2.178197 1_555
Co0 O1 1.867468 1_565
Co0 O6 1.874978 1_655
Co0 O4 1.875512 1_556
Co0 O5 1.905729 1_655
Co0 F0 2.064757 1_555
Co1 O3 1.923530 1_565
Co1 F0 2.024773 1_555
Co1 O0 2.068208 1_555
Co1 F1 2.078142 1_555
Co1 O2 2.146500 1_555
Co1 F3 2.169101 1_555
Co2 O1 1.996830 1_555
Co2 O2 2.010028 1_555
Co2 O4 2.016891 1_555
Co2 F2 2.073249 1_555
Co2 F4 2.096142 1_555
Co2 F0 2.145448 1_555
Co3 O2 1.858992 1_555
Co3 O3 1.881071 1_555
Co3 O6 1.891448 1_555
Co3 O0 1.923853 1_554
Co3 O5 1.968968 1_555
Co4 O4 1.864699 1_545
Co4 O1 1.866472 1_554
Co4 O3 1.882264 1_555
Co4 O0 1.949763 1_554
Co4 F4 2.100374 1_555
Co4 F1 2.576889 1_544
Co5 O6 1.959071 1_655
Co5 F3 1.971240 1_654
Co5 F4 1.999230 1_565
Co5 O5 2.064739 1_664
Co5 F2 2.076084 1_565
Co5 F1 2.201456 1_654
F1 Mg0 2.025308 1_565
F2 Mg0 1.984777 1_654
F3 Mg0 1.986565 1_555
