# generated using pymatgen
data_NaNbAl3P3(SO8)3
_symmetry_space_group_name_H-M   'P 1'
_cell_length_a   8.46033596
_cell_length_b   8.43352852
_cell_length_c   22.00378220
_cell_angle_alpha   90.43544493
_cell_angle_beta   89.93201606
_cell_angle_gamma   120.07524100
_symmetry_Int_Tables_number   1
_chemical_formula_structural   NaNbAl3P3(SO8)3
_chemical_formula_sum   'Na3 Nb3 Al9 P9 S9 O72'
_cell_volume   1358.56551943
_cell_formula_units_Z   3
loop_
 _symmetry_equiv_pos_site_id
 _symmetry_equiv_pos_as_xyz
  1  'x, y, z'
loop_
 _atom_site_type_symbol
 _atom_site_label
 _atom_site_symmetry_multiplicity
 _atom_site_fract_x
 _atom_site_fract_y
 _atom_site_fract_z
 _atom_site_occupancy
  Na  Na0  1  0.00069104  0.00990933  0.99926793  1
  Na  Na1  1  0.67644834  0.33871027  0.83452170  1
  Na  Na2  1  0.66486435  0.33877248  0.33670421  1
  Nb  Nb0  1  0.00339828  0.99472541  0.64259899  1
  Nb  Nb1  1  0.65827780  0.33285871  0.18554031  1
  Nb  Nb2  1  0.32873442  0.65607388  0.52523546  1
  Al  Al0  1  0.99878603  0.99763835  0.35557489  1
  Al  Al1  1  0.99743893  0.00060958  0.85420119  1
  Al  Al2  1  0.99068552  0.00068646  0.14508264  1
  Al  Al3  1  0.67270104  0.33982165  0.68734113  1
  Al  Al4  1  0.66816022  0.32352776  0.98004119  1
  Al  Al5  1  0.66038343  0.33248659  0.48015040  1
  Al  Al6  1  0.33325995  0.65716926  0.02045897  1
  Al  Al7  1  0.34427315  0.66115087  0.31196805  1
  Al  Al8  1  0.31763183  0.66011597  0.81444174  1
  P  P0  1  0.71828066  0.72840065  0.25158973  1
  P  P1  1  0.99897864  0.70661697  0.75480446  1
  P  P2  1  0.93371331  0.32805503  0.58317077  1
  P  P3  1  0.39814263  0.06200515  0.58364799  1
  P  P4  1  0.66652099  0.60437509  0.58344858  1
  P  P5  1  0.66441906  0.03539074  0.07868533  1
  P  P6  1  0.36803520  0.32897414  0.07782413  1
  P  P7  1  0.04489353  0.37860858  0.91693287  1
  P  P8  1  0.33335309  0.36994223  0.41242416  1
  S  S0  1  0.27601160  0.98757467  0.25184694  1
  S  S1  1  0.00798100  0.28767673  0.25195103  1
  S  S2  1  0.29443157  0.29435143  0.75331309  1
  S  S3  1  0.70443730  0.99745811  0.75316935  1
  S  S4  1  0.96142498  0.62777476  0.08030391  1
  S  S5  1  0.61993531  0.66597818  0.91606255  1
  S  S6  1  0.33236878  0.95268144  0.91679758  1
  S  S7  1  0.62539974  0.95905071  0.41415549  1
  S  S8  1  0.04265103  0.66693500  0.41333066  1
  O  O0  1  0.20167605  0.03019927  0.30566290  1
  O  O1  1  0.83828652  0.80743000  0.30794881  1
  O  O2  1  0.97108691  0.17244132  0.30548111  1
  O  O3  1  0.20652772  0.17362836  0.80579026  1
  O  O4  1  0.96521493  0.80366004  0.80812843  1
  O  O5  1  0.82754659  0.03603633  0.80595775  1
  O  O6  1  0.78752603  0.96782897  0.69696195  1
  O  O7  1  0.17993504  0.21406609  0.69705388  1
  O  O8  1  0.02816623  0.82757799  0.69593255  1
  O  O9  1  0.80669189  0.83642993  0.19405069  1
  O  O10  1  0.03617916  0.20830788  0.19608725  1
  O  O11  1  0.17401077  0.96699623  0.19577928  1
  O  O12  1  0.86233381  0.36591425  0.64086844  1
  O  O13  1  0.50433719  0.13846479  0.64178160  1
  O  O14  1  0.63160921  0.49730881  0.64100186  1
  O  O15  1  0.87834073  0.51222150  0.13702990  1
  O  O16  1  0.63541167  0.13013684  0.13797279  1
  O  O17  1  0.49332444  0.36518914  0.13794838  1
  O  O18  1  0.46665842  0.29631258  0.02543153  1
  O  O19  1  0.83814032  0.54209757  0.02793382  1
  O  O20  1  0.70529319  0.16753303  0.02625599  1
  O  O21  1  0.47021695  0.16912788  0.52580225  1
  O  O22  1  0.70136844  0.53197974  0.52518822  1
  O  O23  1  0.82912403  0.29999308  0.52469074  1
  O  O24  1  0.54129967  0.70144377  0.97092836  1
  O  O25  1  0.16487223  0.46584442  0.97342397  1
  O  O26  1  0.30165969  0.84102779  0.97121873  1
  O  O27  1  0.54337979  0.84678445  0.46952660  1
  O  O28  1  0.30200779  0.46116625  0.47092596  1
  O  O29  1  0.15526183  0.69951796  0.46946185  1
  O  O30  1  0.13038639  0.63549875  0.36004451  1
  O  O31  1  0.50422421  0.87477260  0.36073094  1
  O  O32  1  0.36862507  0.49916765  0.35916068  1
  O  O33  1  0.13008146  0.49608003  0.86013670  1
  O  O34  1  0.36728351  0.87276988  0.86174066  1
  O  O35  1  0.50774296  0.63649858  0.86109719  1
  O  O36  1  0.02496756  0.82978182  0.40669606  1
  O  O37  1  0.80463160  0.97569527  0.40632388  1
  O  O38  1  0.16280473  0.18460674  0.40406222  1
  O  O39  1  0.02405105  0.18526141  0.90752973  1
  O  O40  1  0.16781746  0.97231681  0.90893865  1
  O  O41  1  0.80544499  0.83111675  0.90918528  1
  O  O42  1  0.96747482  0.16583621  0.59215052  1
  O  O43  1  0.20237105  0.03461436  0.59153541  1
  O  O44  1  0.83147082  0.80178192  0.59083320  1
  O  O45  1  0.97683178  0.80787855  0.09088444  1
  O  O46  1  0.83553822  0.02131092  0.09098827  1
  O  O47  1  0.18611178  0.15696509  0.09281816  1
  O  O48  1  0.68739852  0.16290325  0.74494966  1
  O  O49  1  0.47383064  0.30697191  0.74473042  1
  O  O50  1  0.82655482  0.51894396  0.74407174  1
  O  O51  1  0.69665287  0.52985011  0.24374971  1
  O  O52  1  0.84063734  0.30735926  0.24530309  1
  O  O53  1  0.46705051  0.15762559  0.24622720  1
  O  O54  1  0.63847906  0.50065328  0.92363078  1
  O  O55  1  0.85292434  0.35871783  0.92532624  1
  O  O56  1  0.49669744  0.13887302  0.92333812  1
  O  O57  1  0.64470830  0.14292731  0.42186685  1
  O  O58  1  0.50544220  0.35510341  0.42297223  1
  O  O59  1  0.86133001  0.50033477  0.42111462  1
  O  O60  1  0.35530574  0.50005064  0.07245219  1
  O  O61  1  0.13868946  0.64388886  0.07317112  1
  O  O62  1  0.49302025  0.85276778  0.07004650  1
  O  O63  1  0.36571648  0.86545089  0.57413195  1
  O  O64  1  0.50157801  0.63648630  0.57561703  1
  O  O65  1  0.12998766  0.49856843  0.57523198  1
  O  O66  1  0.29967182  0.82873352  0.26053158  1
  O  O67  1  0.52747401  0.70046938  0.26017566  1
  O  O68  1  0.16637408  0.47209652  0.26020726  1
  O  O69  1  0.31472156  0.47582502  0.76112319  1
  O  O70  1  0.17046145  0.69370661  0.76116796  1
  O  O71  1  0.52656800  0.83363257  0.76185916  1
loop_
_geom_bond_atom_site_label_1
_geom_bond_atom_site_label_2
_geom_bond_distance
_geom_bond_site_symmetry_2
Na0 O39 2.460123 1_555
Na0 O46 2.481869 1_456
Na0 O47 2.501028 1_556
Na0 O41 2.529251 1_445
Na0 O40 2.546232 1_545
Na0 O45 2.591180 1_446
Na1 O50 2.447349 1_555
Na1 O55 2.449345 1_555
Na1 O48 2.486818 1_555
Na1 O54 2.492083 1_555
Na1 O56 2.539000 1_555
Na1 O49 2.540447 1_555
Na2 O58 2.370131 1_555
Na2 O59 2.401665 1_555
Na2 O57 2.456130 1_555
Na2 O51 2.543031 1_555
Na2 O53 2.548980 1_555
Na2 O52 2.589618 1_555
Nb0 O43 1.908679 1_565
Nb0 O44 1.914277 1_455
Nb0 O8 1.931316 1_555
Nb0 O42 1.967682 1_465
Nb0 O7 2.071164 1_565
Nb0 O6 2.098001 1_455
Nb1 O17 1.872900 1_555
Nb1 O16 1.922930 1_555
Nb1 O51 1.983429 1_555
Nb1 O15 2.022616 1_555
Nb1 O53 2.052579 1_555
Nb1 O52 2.120718 1_555
Nb2 O65 1.892414 1_555
Nb2 O64 1.908758 1_555
Nb2 O28 1.944065 1_555
Nb2 O63 1.947219 1_555
Nb2 O29 2.084309 1_555
Nb2 O27 2.117661 1_555
Al0 O1 1.819321 1_555
Al0 O38 1.826222 1_665
Al0 O36 1.912442 1_655
Al0 O37 1.916635 1_555
Al0 O0 1.937957 1_665
Al0 O2 1.953133 1_565
Al1 O4 1.839055 1_545
Al1 O39 1.863906 1_655
Al1 O5 1.928976 1_555
Al1 O3 1.955801 1_655
Al1 O41 1.959579 1_545
Al1 O40 1.984593 1_645
Al2 O9 1.833170 1_545
Al2 O46 1.845432 1_555
Al2 O47 1.904654 1_655
Al2 O10 1.941470 1_655
Al2 O45 1.964645 1_545
Al2 O11 2.044821 1_645
Al3 O12 1.820364 1_555
Al3 O14 1.846289 1_555
Al3 O13 1.863004 1_555
Al3 O50 1.881207 1_555
Al3 O49 2.008806 1_555
Al3 O48 2.015828 1_555
Al4 O20 1.816282 1_556
Al4 O55 1.875374 1_555
Al4 O18 1.887783 1_556
Al4 O56 1.948530 1_555
Al4 O19 1.973230 1_556
Al4 O54 2.059137 1_555
Al5 O21 1.814161 1_555
Al5 O22 1.823091 1_555
Al5 O23 1.863641 1_555
Al5 O58 1.896257 1_555
Al5 O57 1.993673 1_555
Al5 O59 2.047478 1_555
Al6 O60 1.835942 1_555
Al6 O25 1.838037 1_554
Al6 O62 1.865477 1_555
Al6 O24 1.941149 1_554
Al6 O61 1.969833 1_555
Al6 O26 2.022717 1_554
Al7 O32 1.814143 1_555
Al7 O67 1.815890 1_555
Al7 O68 1.917252 1_555
Al7 O31 1.938755 1_555
Al7 O66 1.995156 1_555
Al7 O30 2.011699 1_555
Al8 O33 1.805481 1_555
Al8 O70 1.834857 1_555
Al8 O34 1.921871 1_555
Al8 O69 1.930449 1_555
Al8 O35 2.002161 1_555
Al8 O71 2.008239 1_555
O0 S0 1.464690 1_545
O1 P0 1.524831 1_555
O2 S1 1.463475 1_655
O3 S2 1.476454 1_555
O4 P1 1.532000 1_555
O5 S3 1.482345 1_545
O6 S3 1.501831 1_555
O7 S2 1.503980 1_555
O8 P1 1.595794 1_455
O9 P0 1.524713 1_555
O10 S1 1.470636 1_555
O11 S0 1.464925 1_555
O12 P2 1.504562 1_555
O13 P3 1.506247 1_555
O14 P4 1.501827 1_555
O15 S4 1.526957 1_555
O16 P5 1.606388 1_555
O17 P6 1.624744 1_555
O18 P6 1.524582 1_555
O19 S4 1.474016 1_555
O20 P5 1.524717 1_555
O21 P3 1.507176 1_555
O22 P4 1.506884 1_555
O23 P2 1.510953 1_555
O24 S5 1.477015 1_555
O25 P7 1.535355 1_555
O26 S6 1.469460 1_555
O27 S7 1.489772 1_555
O28 P8 1.583627 1_555
O29 S8 1.497966 1_555
O30 S8 1.478665 1_555
O31 S7 1.482541 1_555
O32 P8 1.530679 1_555
O33 P7 1.537462 1_555
O34 S6 1.481671 1_555
O35 S5 1.478903 1_555
O36 S8 1.462492 1_555
O37 S7 1.461219 1_555
O38 P8 1.514830 1_555
O39 P7 1.561900 1_555
O40 S6 1.492481 1_555
O41 S5 1.495870 1_555
O42 P2 1.545368 1_555
O43 P3 1.563087 1_555
O44 P4 1.553513 1_555
O45 S4 1.474633 1_555
O46 P5 1.535256 1_555
O47 P6 1.533104 1_555
O48 S3 1.485196 1_545
O49 S2 1.479308 1_555
O50 P1 1.539442 1_555
O51 P0 1.598663 1_555
O52 S1 1.513209 1_655
O53 S0 1.537312 1_545
O54 S5 1.489688 1_555
O55 P7 1.557794 1_655
O56 S6 1.492737 1_545
O57 S7 1.484050 1_545
O58 P8 1.540495 1_555
O59 S8 1.483063 1_655
O60 P6 1.505170 1_555
O61 S4 1.444903 1_455
O62 P5 1.506233 1_565
O63 P3 1.551119 1_565
O64 P4 1.558983 1_555
O65 P2 1.570237 1_455
O66 S0 1.464184 1_555
O67 P0 1.521820 1_555
O68 S1 1.468021 1_555
O69 S2 1.460846 1_555
O70 P1 1.515033 1_455
O71 S3 1.459269 1_555
