# generated using pymatgen
data_CsAlH24(SeO10)2
_symmetry_space_group_name_H-M   'P 1'
_cell_length_a   12.47514700
_cell_length_b   12.47514700
_cell_length_c   12.47514700
_cell_angle_alpha   90.00000000
_cell_angle_beta   90.00000000
_cell_angle_gamma   90.00000000
_symmetry_Int_Tables_number   1
_chemical_formula_structural   CsAlH24(SeO10)2
_chemical_formula_sum   'Cs4 Al4 H96 Se8 O80'
_cell_volume   1941.49830358
_cell_formula_units_Z   4
loop_
 _symmetry_equiv_pos_site_id
 _symmetry_equiv_pos_as_xyz
  1  'x, y, z'
loop_
 _atom_site_type_symbol
 _atom_site_label
 _atom_site_symmetry_multiplicity
 _atom_site_fract_x
 _atom_site_fract_y
 _atom_site_fract_z
 _atom_site_occupancy
  Cs  Cs0  1  0.50000000  0.00000000  -0.00000000  1
  Cs  Cs1  1  0.00000000  0.00000000  0.50000000  1
  Cs  Cs2  1  0.00000000  0.50000000  -0.00000000  1
  Cs  Cs3  1  0.50000000  0.50000000  0.50000000  1
  Al  Al0  1  0.00000000  0.50000000  0.50000000  1
  Al  Al1  1  0.00000000  0.00000000  -0.00000000  1
  Al  Al2  1  0.50000000  0.00000000  0.50000000  1
  Al  Al3  1  0.50000000  0.50000000  -0.00000000  1
  H  H0  1  0.70143435  0.02464820  0.45194441  1
  H  H1  1  0.20143435  0.47535180  0.54805559  1
  H  H2  1  0.29856565  0.52464820  0.04805559  1
  H  H3  1  0.47535180  0.54805559  0.20143435  1
  H  H4  1  0.04805559  0.29856565  0.52464820  1
  H  H5  1  0.54805559  0.20143435  0.47535180  1
  H  H6  1  0.02464820  0.45194441  0.70143435  1
  H  H7  1  0.45194441  0.70143435  0.02464820  1
  H  H8  1  0.52464820  0.04805559  0.29856565  1
  H  H9  1  0.97535180  0.95194441  0.79856565  1
  H  H10  1  0.95194441  0.79856565  0.97535180  1
  H  H11  1  0.79856565  0.97535180  0.95194441  1
  H  H12  1  0.29856565  0.97535180  0.54805559  1
  H  H13  1  0.79856565  0.52464820  0.45194441  1
  H  H14  1  0.70143435  0.47535180  0.95194441  1
  H  H15  1  0.52464820  0.45194441  0.79856565  1
  H  H16  1  0.95194441  0.70143435  0.47535180  1
  H  H17  1  0.45194441  0.79856565  0.52464820  1
  H  H18  1  0.97535180  0.54805559  0.29856565  1
  H  H19  1  0.54805559  0.29856565  0.97535180  1
  H  H20  1  0.47535180  0.95194441  0.70143435  1
  H  H21  1  0.02464820  0.04805559  0.20143435  1
  H  H22  1  0.04805559  0.20143435  0.02464820  1
  H  H23  1  0.20143435  0.02464820  0.04805559  1
  H  H24  1  0.68574023  0.03366112  0.58085110  1
  H  H25  1  0.18574023  0.46633888  0.41914890  1
  H  H26  1  0.31425977  0.53366112  0.91914890  1
  H  H27  1  0.46633888  0.41914890  0.18574023  1
  H  H28  1  0.91914890  0.31425977  0.53366112  1
  H  H29  1  0.41914890  0.18574023  0.46633888  1
  H  H30  1  0.03366112  0.58085110  0.68574023  1
  H  H31  1  0.58085110  0.68574023  0.03366112  1
  H  H32  1  0.53366112  0.91914890  0.31425977  1
  H  H33  1  0.96633888  0.08085110  0.81425977  1
  H  H34  1  0.08085110  0.81425977  0.96633888  1
  H  H35  1  0.81425977  0.96633888  0.08085110  1
  H  H36  1  0.31425977  0.96633888  0.41914890  1
  H  H37  1  0.81425977  0.53366112  0.58085110  1
  H  H38  1  0.68574023  0.46633888  0.08085110  1
  H  H39  1  0.53366112  0.58085110  0.81425977  1
  H  H40  1  0.08085110  0.68574023  0.46633888  1
  H  H41  1  0.58085110  0.81425977  0.53366112  1
  H  H42  1  0.96633888  0.41914890  0.31425977  1
  H  H43  1  0.41914890  0.31425977  0.96633888  1
  H  H44  1  0.46633888  0.08085110  0.68574023  1
  H  H45  1  0.03366112  0.91914890  0.18574023  1
  H  H46  1  0.91914890  0.18574023  0.03366112  1
  H  H47  1  0.61716806  0.16561280  0.22054777  1
  H  H48  1  0.49759250  0.19814506  0.22495086  1
  H  H49  1  0.99759250  0.30185494  0.77504914  1
  H  H50  1  0.50240750  0.69814506  0.27504914  1
  H  H51  1  0.30185494  0.77504914  0.99759250  1
  H  H52  1  0.27504914  0.50240750  0.69814506  1
  H  H53  1  0.77504914  0.99759250  0.30185494  1
  H  H54  1  0.19814506  0.22495086  0.49759250  1
  H  H55  1  0.22495086  0.49759250  0.19814506  1
  H  H56  1  0.69814506  0.27504914  0.50240750  1
  H  H57  1  0.80185494  0.72495086  0.00240750  1
  H  H58  1  0.72495086  0.00240750  0.80185494  1
  H  H59  1  0.00240750  0.80185494  0.72495086  1
  H  H60  1  0.50240750  0.80185494  0.77504914  1
  H  H61  1  0.00240750  0.69814506  0.22495086  1
  H  H62  1  0.49759250  0.30185494  0.72495086  1
  H  H63  1  0.69814506  0.22495086  0.00240750  1
  H  H64  1  0.72495086  0.49759250  0.30185494  1
  H  H65  1  0.22495086  0.00240750  0.69814506  1
  H  H66  1  0.80185494  0.77504914  0.50240750  1
  H  H67  1  0.77504914  0.50240750  0.80185494  1
  H  H68  1  0.30185494  0.72495086  0.49759250  1
  H  H69  1  0.19814506  0.27504914  0.99759250  1
  H  H70  1  0.27504914  0.99759250  0.19814506  1
  H  H71  1  0.99759250  0.19814506  0.27504914  1
  H  H72  1  0.11716806  0.16561280  0.27945223  1
  H  H73  1  0.27945223  0.11716806  0.16561280  1
  H  H74  1  0.16561280  0.27945223  0.11716806  1
  H  H75  1  0.33438720  0.72054777  0.61716806  1
  H  H76  1  0.77945223  0.38283194  0.83438720  1
  H  H77  1  0.83438720  0.77945223  0.38283194  1
  H  H78  1  0.22054777  0.88283194  0.66561280  1
  H  H79  1  0.72054777  0.61716806  0.33438720  1
  H  H80  1  0.66561280  0.22054777  0.88283194  1
  H  H81  1  0.61716806  0.33438720  0.72054777  1
  H  H82  1  0.88283194  0.66561280  0.22054777  1
  H  H83  1  0.38283194  0.83438720  0.77945223  1
  H  H84  1  0.88283194  0.83438720  0.72054777  1
  H  H85  1  0.72054777  0.88283194  0.83438720  1
  H  H86  1  0.83438720  0.72054777  0.88283194  1
  H  H87  1  0.66561280  0.27945223  0.38283194  1
  H  H88  1  0.22054777  0.61716806  0.16561280  1
  H  H89  1  0.16561280  0.22054777  0.61716806  1
  H  H90  1  0.77945223  0.11716806  0.33438720  1
  H  H91  1  0.27945223  0.38283194  0.66561280  1
  H  H92  1  0.33438720  0.77945223  0.11716806  1
  H  H93  1  0.38283194  0.66561280  0.27945223  1
  H  H94  1  0.11716806  0.33438720  0.77945223  1
  H  H95  1  0.18574023  0.03366112  0.91914890  1
  Se  Se0  1  0.31010955  0.18989045  0.81010955  1
  Se  Se1  1  0.81010955  0.18989045  0.68989045  1
  Se  Se2  1  0.18989045  0.68989045  0.81010955  1
  Se  Se3  1  0.31010955  0.31010955  0.31010955  1
  Se  Se4  1  0.68989045  0.81010955  0.18989045  1
  Se  Se5  1  0.68989045  0.68989045  0.68989045  1
  Se  Se6  1  0.18989045  0.81010955  0.31010955  1
  Se  Se7  1  0.81010955  0.31010955  0.18989045  1
  O  O0  1  0.54482630  0.13632431  0.21136371  1
  O  O1  1  0.04482630  0.36367569  0.78863629  1
  O  O2  1  0.45517370  0.63632431  0.28863629  1
  O  O3  1  0.36367569  0.78863629  0.04482630  1
  O  O4  1  0.28863629  0.45517370  0.63632431  1
  O  O5  1  0.78863629  0.04482630  0.36367569  1
  O  O6  1  0.13632431  0.21136371  0.54482630  1
  O  O7  1  0.21136371  0.54482630  0.13632431  1
  O  O8  1  0.63632431  0.28863629  0.45517370  1
  O  O9  1  0.86367569  0.71136371  0.95517370  1
  O  O10  1  0.71136371  0.95517370  0.86367569  1
  O  O11  1  0.95517370  0.86367569  0.71136371  1
  O  O12  1  0.45517370  0.86367569  0.78863629  1
  O  O13  1  0.95517370  0.63632431  0.21136371  1
  O  O14  1  0.54482630  0.36367569  0.71136371  1
  O  O15  1  0.63632431  0.21136371  0.95517370  1
  O  O16  1  0.71136371  0.54482630  0.36367569  1
  O  O17  1  0.21136371  0.95517370  0.63632431  1
  O  O18  1  0.86367569  0.78863629  0.45517370  1
  O  O19  1  0.78863629  0.45517370  0.86367569  1
  O  O20  1  0.36367569  0.71136371  0.54482630  1
  O  O21  1  0.13632431  0.28863629  0.04482630  1
  O  O22  1  0.28863629  0.04482630  0.13632431  1
  O  O23  1  0.04482630  0.13632431  0.28863629  1
  O  O24  1  0.14967542  0.01337278  0.98683909  1
  O  O25  1  0.98683909  0.14967542  0.01337278  1
  O  O26  1  0.01337278  0.98683909  0.14967542  1
  O  O27  1  0.48662722  0.01316091  0.64967542  1
  O  O28  1  0.48683909  0.35032458  0.98662722  1
  O  O29  1  0.98662722  0.48683909  0.35032458  1
  O  O30  1  0.51316091  0.85032458  0.51337278  1
  O  O31  1  0.01316091  0.64967542  0.48662722  1
  O  O32  1  0.51337278  0.51316091  0.85032458  1
  O  O33  1  0.64967542  0.48662722  0.01316091  1
  O  O34  1  0.85032458  0.51337278  0.51316091  1
  O  O35  1  0.35032458  0.98662722  0.48683909  1
  O  O36  1  0.85032458  0.98662722  0.01316091  1
  O  O37  1  0.01316091  0.85032458  0.98662722  1
  O  O38  1  0.98662722  0.01316091  0.85032458  1
  O  O39  1  0.51337278  0.98683909  0.35032458  1
  O  O40  1  0.51316091  0.64967542  0.01337278  1
  O  O41  1  0.01337278  0.51316091  0.64967542  1
  O  O42  1  0.48683909  0.14967542  0.48662722  1
  O  O43  1  0.98683909  0.35032458  0.51337278  1
  O  O44  1  0.48662722  0.48683909  0.14967542  1
  O  O45  1  0.35032458  0.51337278  0.98683909  1
  O  O46  1  0.14967542  0.48662722  0.48683909  1
  O  O47  1  0.64967542  0.01337278  0.51316091  1
  O  O48  1  0.81428663  0.26076860  0.06700766  1
  O  O49  1  0.31428663  0.23923140  0.93299234  1
  O  O50  1  0.18571337  0.76076860  0.43299234  1
  O  O51  1  0.23923140  0.93299234  0.31428663  1
  O  O52  1  0.43299234  0.18571337  0.76076860  1
  O  O53  1  0.93299234  0.31428663  0.23923140  1
  O  O54  1  0.26076860  0.06700766  0.81428663  1
  O  O55  1  0.06700766  0.81428663  0.26076860  1
  O  O56  1  0.76076860  0.43299234  0.18571337  1
  O  O57  1  0.73923140  0.56700766  0.68571337  1
  O  O58  1  0.56700766  0.68571337  0.73923140  1
  O  O59  1  0.68571337  0.73923140  0.56700766  1
  O  O60  1  0.18571337  0.73923140  0.93299234  1
  O  O61  1  0.68571337  0.76076860  0.06700766  1
  O  O62  1  0.81428663  0.23923140  0.56700766  1
  O  O63  1  0.76076860  0.06700766  0.68571337  1
  O  O64  1  0.56700766  0.81428663  0.23923140  1
  O  O65  1  0.06700766  0.68571337  0.76076860  1
  O  O66  1  0.73923140  0.93299234  0.18571337  1
  O  O67  1  0.93299234  0.18571337  0.73923140  1
  O  O68  1  0.23923140  0.56700766  0.81428663  1
  O  O69  1  0.26076860  0.43299234  0.31428663  1
  O  O70  1  0.43299234  0.31428663  0.26076860  1
  O  O71  1  0.31428663  0.26076860  0.43299234  1
  O  O72  1  0.23329132  0.23329132  0.23329132  1
  O  O73  1  0.26670868  0.73329132  0.23329132  1
  O  O74  1  0.73329132  0.23329132  0.26670868  1
  O  O75  1  0.76670868  0.76670868  0.76670868  1
  O  O76  1  0.76670868  0.73329132  0.26670868  1
  O  O77  1  0.73329132  0.26670868  0.76670868  1
  O  O78  1  0.26670868  0.76670868  0.73329132  1
  O  O79  1  0.23329132  0.26670868  0.73329132  1
loop_
_geom_bond_atom_site_label_1
_geom_bond_atom_site_label_2
_geom_bond_distance
_geom_bond_site_symmetry_2
Cs0 O3 3.187109 1_545
Cs0 O0 3.187109 1_555
Cs0 O22 3.187109 1_555
Cs0 O10 3.187109 1_544
Cs0 O12 3.187109 1_544
Cs0 O15 3.187109 1_554
Cs1 O6 3.187109 1_555
Cs1 O23 3.187109 1_555
Cs1 O5 3.187109 1_455
Cs1 O18 3.187109 1_445
Cs1 O11 3.187109 1_445
Cs1 O17 3.187109 1_545
Cs2 O21 3.187109 1_555
Cs2 O1 3.187109 1_554
Cs2 O7 3.187109 1_555
Cs2 O9 3.187109 1_454
Cs2 O19 3.187109 1_454
Cs2 O13 3.187109 1_455
Cs3 O20 3.187109 1_555
Cs3 O14 3.187109 1_555
Cs3 O16 3.187109 1_555
Cs3 O2 3.187109 1_555
Cs3 O8 3.187109 1_555
Cs3 O4 3.187109 1_555
Al0 O43 1.881837 1_455
Al0 O31 1.881837 1_555
Al0 O34 1.881837 1_455
Al0 O46 1.881837 1_555
Al0 O41 1.881837 1_555
Al0 O29 1.881837 1_455
Al1 O37 1.881837 1_544
Al1 O36 1.881837 1_445
Al1 O26 1.881837 1_545
Al1 O24 1.881837 1_554
Al1 O25 1.881837 1_455
Al1 O38 1.881837 1_454
Al2 O42 1.881837 1_555
Al2 O30 1.881837 1_545
Al2 O39 1.881837 1_545
Al2 O27 1.881837 1_555
Al2 O47 1.881837 1_555
Al2 O35 1.881837 1_545
Al3 O28 1.881837 1_554
Al3 O33 1.881837 1_555
Al3 O45 1.881837 1_554
Al3 O32 1.881837 1_554
Al3 O40 1.881837 1_555
Al3 O44 1.881837 1_555
H0 O47 1.009915 1_555
H0 O5 1.568236 1_555
H1 O46 1.009915 1_555
H1 O4 1.568236 1_555
H2 O45 1.009915 1_554
H2 O7 1.568236 1_555
H3 O44 1.009915 1_555
H3 O2 1.568236 1_555
H4 O43 1.009915 1_455
H4 O6 1.568236 1_555
H5 O42 1.009915 1_555
H5 O8 1.568236 1_555
H6 O41 1.009915 1_555
H6 O1 1.568236 1_555
H7 O40 1.009915 1_555
H7 O3 1.568236 1_555
H8 O39 1.009915 1_545
H8 O0 1.568236 1_555
H9 O38 1.009915 1_565
H9 O11 1.568236 1_555
H10 O37 1.009915 1_655
H10 O9 1.568236 1_555
H11 O36 1.009915 1_556
H11 O10 1.568236 1_555
H12 O35 1.009915 1_555
H12 O17 1.568236 1_555
H13 O34 1.009915 1_555
H13 O16 1.568236 1_555
H14 O33 1.009915 1_556
H14 O19 1.568236 1_555
H15 O32 1.009915 1_555
H15 O14 1.568236 1_555
H16 O31 1.009915 1_655
H16 O18 1.568236 1_555
H17 O30 1.009915 1_555
H17 O20 1.568236 1_555
H18 O29 1.009915 1_555
H18 O13 1.568236 1_555
H19 O28 1.009915 1_555
H19 O15 1.568236 1_555
H20 O27 1.009915 1_565
H20 O12 1.568236 1_555
H21 O26 1.009915 1_545
H21 O23 1.568236 1_555
H22 O25 1.009915 1_455
H22 O21 1.568236 1_555
H23 O24 1.009915 1_554
H23 O22 1.568236 1_555
H24 O47 0.989732 1_555
H24 O63 1.661460 1_555
H25 O46 0.989732 1_555
H25 O69 1.661460 1_555
H26 O45 0.989732 1_555
H26 O68 1.661460 1_555
H27 O44 0.989732 1_555
H27 O70 1.661460 1_555
H28 O43 0.989732 1_555
H28 O62 1.661460 1_555
H29 O42 0.989732 1_555
H29 O71 1.661460 1_555
H30 O41 0.989732 1_555
H30 O65 1.661460 1_555
H31 O40 0.989732 1_555
H31 O61 1.661460 1_555
H32 O39 0.989732 1_555
H32 O64 1.661460 1_555
H33 O38 0.989732 1_555
H33 O67 1.661460 1_555
H34 O37 0.989732 1_555
H34 O60 1.661460 1_555
H35 O36 0.989732 1_555
H35 O66 1.661460 1_555
H36 O35 0.989732 1_555
H36 O51 1.661460 1_555
H37 O34 0.989732 1_555
H37 O57 1.661460 1_555
H38 O33 0.989732 1_555
H38 O56 1.661460 1_555
H39 O32 0.989732 1_555
H39 O58 1.661460 1_555
H40 O31 0.989732 1_555
H40 O50 1.661460 1_555
H41 O30 0.989732 1_555
H41 O59 1.661460 1_555
H42 O29 0.989732 1_555
H42 O53 1.661460 1_555
H43 O28 0.989732 1_555
H43 O49 1.661460 1_555
H44 O27 0.989732 1_555
H44 O52 1.661460 1_555
H45 O26 0.989732 1_555
H45 O55 1.661460 1_555
H46 O25 0.989732 1_555
H46 O48 1.661460 1_555
H47 O0 0.980351 1_555
H48 O0 0.985256 1_555
H48 O70 1.717088 1_555
H49 O1 0.985256 1_655
H49 O67 1.717088 1_555
H50 O2 0.985256 1_555
H50 O64 1.717088 1_555
H51 O3 0.985256 1_556
H51 O60 1.717088 1_555
H52 O4 0.985256 1_555
H52 O68 1.717088 1_555
H53 O5 0.985256 1_565
H53 O66 1.717088 1_555
H54 O6 0.985256 1_555
H54 O71 1.717088 1_555
H55 O7 0.985256 1_555
H55 O69 1.717088 1_555
H56 O8 0.985256 1_555
H56 O62 1.717088 1_555
H57 O9 0.985256 1_554
H57 O61 1.717088 1_555
H58 O10 0.985256 1_545
H58 O63 1.717088 1_555
H59 O11 0.985256 1_455
H59 O65 1.717088 1_555
H60 O12 0.985256 1_555
H60 O58 1.717088 1_555
H61 O13 0.985256 1_455
H61 O55 1.717088 1_555
H62 O14 0.985256 1_555
H62 O52 1.717088 1_555
H63 O15 0.985256 1_554
H63 O48 1.717088 1_555
H64 O16 0.985256 1_555
H64 O56 1.717088 1_555
H65 O17 0.985256 1_545
H65 O54 1.717088 1_555
H66 O18 0.985256 1_555
H66 O59 1.717088 1_555
H67 O19 0.985256 1_555
H67 O57 1.717088 1_555
H68 O20 0.985256 1_555
H68 O50 1.717088 1_555
H69 O21 0.985256 1_556
H69 O49 1.717088 1_555
H70 O22 0.985256 1_565
H70 O51 1.717088 1_555
H71 O23 0.985256 1_655
H71 O53 1.717088 1_555
H72 O23 0.980351 1_555
H73 O22 0.980351 1_555
H74 O21 0.980351 1_555
H75 O20 0.980351 1_555
H76 O19 0.980351 1_555
H77 O18 0.980351 1_555
H78 O17 0.980351 1_555
H79 O16 0.980351 1_555
H80 O15 0.980351 1_555
H81 O14 0.980351 1_555
H82 O13 0.980351 1_555
H83 O12 0.980351 1_555
H84 O11 0.980351 1_555
H85 O10 0.980351 1_555
H86 O9 0.980351 1_555
H87 O8 0.980351 1_555
H88 O7 0.980351 1_555
H89 O6 0.980351 1_555
H90 O5 0.980351 1_555
H91 O4 0.980351 1_555
H92 O3 0.980351 1_555
H93 O2 0.980351 1_555
H94 O1 0.980351 1_555
H95 O24 0.989732 1_555
H95 O54 1.661460 1_555
O48 Se7 1.652764 1_555
O49 Se0 1.652764 1_555
O50 Se6 1.652764 1_555
O51 Se6 1.652764 1_555
O52 Se0 1.652764 1_555
O53 Se7 1.652764 1_555
O54 Se0 1.652764 1_555
O55 Se6 1.652764 1_555
O56 Se7 1.652764 1_555
O57 Se5 1.652764 1_555
O58 Se5 1.652764 1_555
O59 Se5 1.652764 1_555
O60 Se2 1.652764 1_555
O61 Se4 1.652764 1_555
O62 Se1 1.652764 1_555
O63 Se1 1.652764 1_555
O64 Se4 1.652764 1_555
O65 Se2 1.652764 1_555
O66 Se4 1.652764 1_555
O67 Se1 1.652764 1_555
O68 Se2 1.652764 1_555
O69 Se3 1.652764 1_555
O70 Se3 1.652764 1_555
O71 Se3 1.652764 1_555
O72 Se3 1.659857 1_555
O73 Se6 1.659857 1_555
O74 Se7 1.659857 1_555
O75 Se5 1.659857 1_555
O76 Se4 1.659857 1_555
O77 Se1 1.659857 1_555
O78 Se2 1.659857 1_555
O79 Se0 1.659857 1_555
