# generated using pymatgen
data_K4MgMn4O8
_symmetry_space_group_name_H-M   'P 1'
_cell_length_a   3.09197553
_cell_length_b   6.71866743
_cell_length_c   13.02477451
_cell_angle_alpha   83.45090139
_cell_angle_beta   88.78256374
_cell_angle_gamma   90.56373234
_symmetry_Int_Tables_number   1
_chemical_formula_structural   K4MgMn4O8
_chemical_formula_sum   'K4 Mg1 Mn4 O8'
_cell_volume   268.72927369
_cell_formula_units_Z   1
loop_
 _symmetry_equiv_pos_site_id
 _symmetry_equiv_pos_as_xyz
  1  'x, y, z'
loop_
 _atom_site_type_symbol
 _atom_site_label
 _atom_site_symmetry_multiplicity
 _atom_site_fract_x
 _atom_site_fract_y
 _atom_site_fract_z
 _atom_site_occupancy
  K  K0  1  0.23219000  0.36381700  0.07175600  1
  K  K1  1  0.24693200  0.15206500  0.66433500  1
  K  K2  1  0.74585500  0.57957300  0.81849500  1
  K  K3  1  0.76429100  0.99047900  0.35097200  1
  Mg  Mg0  1  0.28035000  0.56542600  0.27934200  1
  Mn  Mn0  1  0.21713200  0.85628200  0.09760700  1
  Mn  Mn1  1  0.73847400  0.05004300  0.91329200  1
  Mn  Mn2  1  0.76008700  0.43288400  0.44518500  1
  Mn  Mn3  1  0.25095600  0.68504500  0.58248800  1
  O  O0  1  0.78867900  0.64080600  0.18634200  1
  O  O1  1  0.24353500  0.23587700  0.87109900  1
  O  O2  1  0.26554800  0.29998800  0.36687200  1
  O  O3  1  0.75032300  0.85469700  0.61531100  1
  O  O4  1  0.71983400  0.06054500  0.07677300  1
  O  O5  1  0.23553900  0.84792900  0.92536400  1
  O  O6  1  0.74772100  0.47976200  0.60181600  1
  O  O7  1  0.26276900  0.67561600  0.41866900  1
loop_
_geom_bond_atom_site_label_1
_geom_bond_atom_site_label_2
_geom_bond_distance
_geom_bond_site_symmetry_2
K0 O4 2.542380 1_555
K0 O4 2.562693 1_455
K0 O1 2.842485 1_554
K0 O0 2.857986 1_455
K0 O0 3.054677 1_555
K1 O3 2.651312 1_445
K1 O3 2.670573 1_545
K1 O6 2.716341 1_555
K1 O6 2.757602 1_455
K1 O1 2.813286 1_555
K2 O1 2.781611 1_555
K2 O1 2.814874 1_655
K2 O5 2.844132 1_655
K2 O5 2.865859 1_555
K2 O6 2.974157 1_555
K2 O3 3.050027 1_555
K3 O2 2.611077 1_665
K3 O2 2.625452 1_565
K3 O7 2.666298 1_555
K3 O7 2.706400 1_655
Mg0 O0 1.989376 1_555
Mg0 O0 1.997080 1_455
Mg0 O2 2.003671 1_555
Mg0 O7 2.036480 1_555
Mn0 O4 2.056254 1_565
Mn0 O4 2.072600 1_465
Mn0 O0 2.168448 1_455
Mn0 O5 2.250046 1_554
Mn0 O0 2.511996 1_555
Mn1 O1 2.016993 1_655
Mn1 O1 2.029695 1_555
Mn1 O5 2.046042 1_545
Mn1 O5 2.057534 1_645
Mn1 O4 2.138076 1_556
Mn2 O6 2.099069 1_555
Mn2 O2 2.103087 1_555
Mn2 O2 2.108958 1_655
Mn2 O7 2.234619 1_655
Mn2 O7 2.255403 1_555
Mn3 O3 1.992635 1_555
Mn3 O3 1.998970 1_455
Mn3 O6 2.061231 1_455
Mn3 O6 2.074563 1_555
Mn3 O7 2.141405 1_555
