# generated using pymatgen
data_LiCrPO4
_symmetry_space_group_name_H-M   'P 1'
_cell_length_a   4.76496200
_cell_length_b   6.35235700
_cell_length_c   10.26081200
_cell_angle_alpha   90.00000000
_cell_angle_beta   90.00000000
_cell_angle_gamma   90.00000000
_symmetry_Int_Tables_number   1
_chemical_formula_structural   LiCrPO4
_chemical_formula_sum   'Li4 Cr4 P4 O16'
_cell_volume   310.58184770
_cell_formula_units_Z   4
loop_
 _symmetry_equiv_pos_site_id
 _symmetry_equiv_pos_as_xyz
  1  'x, y, z'
loop_
 _atom_site_type_symbol
 _atom_site_label
 _atom_site_symmetry_multiplicity
 _atom_site_fract_x
 _atom_site_fract_y
 _atom_site_fract_z
 _atom_site_occupancy
  Li  Li0  1  0.50000000  0.50000000  0.50000000  1
  Li  Li1  1  0.00000000  0.00000000  0.00000000  1
  Li  Li2  1  0.00000000  0.50000000  0.00000000  1
  Li  Li3  1  0.50000000  0.00000000  0.50000000  1
  Cr  Cr0  1  0.44983400  0.75000000  0.21546700  1
  Cr  Cr1  1  0.05016600  0.75000000  0.71546700  1
  Cr  Cr2  1  0.55016600  0.25000000  0.78453300  1
  Cr  Cr3  1  0.94983400  0.25000000  0.28453300  1
  P  P0  1  0.58250300  0.75000000  0.90639800  1
  P  P1  1  0.91749700  0.75000000  0.40639800  1
  P  P2  1  0.08250300  0.25000000  0.59360200  1
  P  P3  1  0.41749700  0.25000000  0.09360200  1
  O  O0  1  0.78646300  0.55325100  0.33878900  1
  O  O1  1  0.30414600  0.25000000  0.95049300  1
  O  O2  1  0.21353700  0.05325100  0.66121100  1
  O  O3  1  0.71353700  0.94674900  0.83878900  1
  O  O4  1  0.78646300  0.94674900  0.33878900  1
  O  O5  1  0.21353700  0.44674900  0.66121100  1
  O  O6  1  0.25658100  0.75000000  0.90065800  1
  O  O7  1  0.71353700  0.55325100  0.83878900  1
  O  O8  1  0.28646300  0.05325100  0.16121100  1
  O  O9  1  0.80414600  0.75000000  0.54950700  1
  O  O10  1  0.19585400  0.25000000  0.45049300  1
  O  O11  1  0.74341900  0.25000000  0.09934200  1
  O  O12  1  0.28646300  0.44674900  0.16121100  1
  O  O13  1  0.69585400  0.75000000  0.04950700  1
  O  O14  1  0.75658100  0.25000000  0.59934200  1
  O  O15  1  0.24341900  0.75000000  0.40065800  1
loop_
_geom_bond_atom_site_label_1
_geom_bond_atom_site_label_2
_geom_bond_distance
_geom_bond_site_symmetry_2
Li0 O5 2.171138 1_555
Li0 O0 2.171138 1_555
Li0 O9 2.209159 1_555
Li0 O10 2.209159 1_555
Li0 O14 2.248512 1_555
Li0 O15 2.248512 1_555
Li1 O8 2.171138 1_555
Li1 O3 2.171138 1_444
Li1 O1 2.209159 1_554
Li1 O13 2.209159 1_445
Li1 O11 2.248512 1_455
Li1 O6 2.248512 1_544
Li2 O12 2.171138 1_555
Li2 O7 2.171138 1_454
Li2 O13 2.209159 1_455
Li2 O1 2.209159 1_554
Li2 O11 2.248512 1_455
Li2 O6 2.248512 1_554
Li3 O2 2.171138 1_555
Li3 O4 2.171138 1_545
Li3 O9 2.209159 1_545
Li3 O10 2.209159 1_555
Li3 O14 2.248512 1_555
Li3 O15 2.248512 1_545
Cr0 O13 2.067377 1_555
Cr0 O15 2.139670 1_555
Cr0 O8 2.150995 1_565
Cr0 O12 2.150995 1_555
Cr0 O0 2.395024 1_555
Cr0 O4 2.395024 1_555
Cr1 O9 2.067377 1_455
Cr1 O6 2.139670 1_555
Cr1 O2 2.150995 1_565
Cr1 O5 2.150995 1_555
Cr1 O3 2.395024 1_455
Cr1 O7 2.395024 1_455
Cr2 O1 2.067377 1_555
Cr2 O14 2.139670 1_555
Cr2 O3 2.150995 1_545
Cr2 O7 2.150995 1_555
Cr2 O2 2.395024 1_555
Cr2 O5 2.395024 1_555
Cr3 O10 2.067377 1_655
Cr3 O11 2.139670 1_555
Cr3 O4 2.150995 1_545
Cr3 O0 2.150995 1_555
Cr3 O8 2.395024 1_655
Cr3 O12 2.395024 1_655
O0 P1 1.559853 1_555
O1 P3 1.564597 1_556
O2 P2 1.559853 1_555
O3 P0 1.559853 1_555
O4 P1 1.559853 1_555
O5 P2 1.559853 1_555
O6 P0 1.554122 1_555
O7 P0 1.559853 1_555
O8 P3 1.559853 1_555
O9 P1 1.564597 1_555
O10 P2 1.564597 1_555
O11 P3 1.554122 1_555
O12 P3 1.559853 1_555
O13 P0 1.564597 1_554
O14 P2 1.554122 1_655
O15 P1 1.554122 1_455
