# generated using pymatgen
data_Li2Ni(PO4)2
_symmetry_space_group_name_H-M   'P 1'
_cell_length_a   4.90117873
_cell_length_b   4.90117873
_cell_length_c   6.34882308
_cell_angle_alpha   89.75731468
_cell_angle_beta   89.75731468
_cell_angle_gamma   66.12487451
_symmetry_Int_Tables_number   1
_chemical_formula_structural   Li2Ni(PO4)2
_chemical_formula_sum   'Li2 Ni1 P2 O8'
_cell_volume   139.45661197
_cell_formula_units_Z   1
loop_
 _symmetry_equiv_pos_site_id
 _symmetry_equiv_pos_as_xyz
  1  'x, y, z'
loop_
 _atom_site_type_symbol
 _atom_site_label
 _atom_site_symmetry_multiplicity
 _atom_site_fract_x
 _atom_site_fract_y
 _atom_site_fract_z
 _atom_site_occupancy
  Li  Li0  1  0.49840400  0.49840400  0.49325500  1
  Li  Li1  1  0.82567500  0.82567500  0.73652200  1
  Ni  Ni0  1  0.49831900  0.49831900  0.00363800  1
  P  P0  1  0.14318400  0.14318400  0.76187300  1
  P  P1  1  0.85676600  0.85676600  0.23578900  1
  O  O0  1  0.79742800  0.26393200  0.76320800  1
  O  O1  1  0.75423000  0.75423000  0.44111900  1
  O  O2  1  0.74690900  0.74690900  0.03574600  1
  O  O3  1  0.20115800  0.73191900  0.23710100  1
  O  O4  1  0.25453400  0.25453400  0.95882700  1
  O  O5  1  0.73191900  0.20115800  0.23710100  1
  O  O6  1  0.25413300  0.25413300  0.56484000  1
  O  O7  1  0.26393200  0.79742800  0.76320800  1
loop_
_geom_bond_atom_site_label_1
_geom_bond_atom_site_label_2
_geom_bond_distance
_geom_bond_site_symmetry_2
Li0 O6 2.055297 1_555
Li0 O1 2.125896 1_555
Li0 O5 2.175239 1_555
Li0 O3 2.175239 1_555
Li0 O0 2.246590 1_555
Li0 O7 2.246590 1_555
Li1 O1 1.967986 1_555
Li1 O2 2.003800 1_556
Li1 O0 2.103292 1_565
Li1 O7 2.103292 1_655
Ni0 O4 2.024254 1_554
Ni0 O2 2.053372 1_555
Ni0 O3 2.067674 1_555
Ni0 O5 2.067674 1_555
Ni0 O0 2.105110 1_554
Ni0 O7 2.105110 1_554
O0 P0 1.552454 1_655
O1 P1 1.548493 1_555
O2 P1 1.561752 1_555
O3 P1 1.545183 1_455
O4 P0 1.553030 1_555
O5 P1 1.545183 1_545
O6 P0 1.544038 1_555
O7 P0 1.552454 1_565
