# generated using pymatgen
data_Na2La4Hf4Si3(S3O16)3
_symmetry_space_group_name_H-M   'P 1'
_cell_length_a   18.52021126
_cell_length_b   9.24272862
_cell_length_c   24.15861976
_cell_angle_alpha   89.86928933
_cell_angle_beta   90.09944394
_cell_angle_gamma   119.94253655
_symmetry_Int_Tables_number   1
_chemical_formula_structural   Na2La4Hf4Si3(S3O16)3
_chemical_formula_sum   'Na6 La12 Hf12 Si9 S27 O144'
_cell_volume   3583.42927705
_cell_formula_units_Z   3
loop_
 _symmetry_equiv_pos_site_id
 _symmetry_equiv_pos_as_xyz
  1  'x, y, z'
loop_
 _atom_site_type_symbol
 _atom_site_label
 _atom_site_symmetry_multiplicity
 _atom_site_fract_x
 _atom_site_fract_y
 _atom_site_fract_z
 _atom_site_occupancy
  Na  Na0  1  0.99349042  0.02624147  0.49919885  1
  Na  Na1  1  0.49387866  0.96333319  0.00508032  1
  Na  Na2  1  0.31572057  0.30586499  0.84156898  1
  Na  Na3  1  0.82286721  0.32819040  0.82509337  1
  Na  Na4  1  0.32572027  0.31788397  0.32256974  1
  Na  Na5  1  0.80573633  0.31434714  0.33391007  1
  La  La0  1  0.00707972  0.00294648  0.34937140  1
  La  La1  1  0.50855480  0.01262124  0.85142849  1
  La  La2  1  0.99967760  0.01278198  0.64535513  1
  La  La3  1  0.50487437  0.98628266  0.14906290  1
  La  La4  1  0.32374529  0.33028362  0.98482740  1
  La  La5  1  0.84567530  0.35109194  0.98449186  1
  La  La6  1  0.34448076  0.33690476  0.48138583  1
  La  La7  1  0.82471619  0.31804053  0.48225788  1
  La  La8  1  0.16199671  0.67457292  0.30121747  1
  La  La9  1  0.67263343  0.66699220  0.30386285  1
  La  La10  1  0.17243514  0.68374738  0.80754303  1
  La  La11  1  0.66135231  0.64952269  0.80175556  1
  Hf  Hf0  1  0.51196187  0.01669702  0.35440820  1
  Hf  Hf1  1  0.00444072  0.99672635  0.85777317  1
  Hf  Hf2  1  0.50647892  0.01695761  0.64636441  1
  Hf  Hf3  1  0.00597500  0.99552986  0.14630840  1
  Hf  Hf4  1  0.33714679  0.33511362  0.67713835  1
  Hf  Hf5  1  0.83611440  0.33646776  0.68039182  1
  Hf  Hf6  1  0.33795016  0.33914996  0.18200857  1
  Hf  Hf7  1  0.83066177  0.32853267  0.18157702  1
  Hf  Hf8  1  0.16030465  0.67854616  0.02240460  1
  Hf  Hf9  1  0.66495669  0.67104720  0.02625876  1
  Hf  Hf10  1  0.16711002  0.66382231  0.52362453  1
  Hf  Hf11  1  0.65922602  0.64273970  0.51760376  1
  Si  Si0  1  0.15379252  0.02802025  0.24570093  1
  Si  Si1  1  0.65707124  0.03235971  0.25275496  1
  Si  Si2  1  0.65414683  0.28060009  0.74607234  1
  Si  Si3  1  0.48454425  0.33690647  0.58400757  1
  Si  Si4  1  0.98415201  0.34762507  0.58067071  1
  Si  Si5  1  0.48234152  0.62443486  0.07994709  1
  Si  Si6  1  0.98113942  0.62743613  0.08627652  1
  Si  Si7  1  0.16465283  0.95582424  0.91554131  1
  Si  Si8  1  0.66398574  0.37272046  0.41374383  1
  S  S0  1  0.35930846  0.68996463  0.25343732  1
  S  S1  1  0.86161424  0.70057210  0.24132243  1
  S  S2  1  0.98775947  0.27753740  0.24249817  1
  S  S3  1  0.48483654  0.27391267  0.25109543  1
  S  S4  1  0.15337850  0.27617626  0.75435742  1
  S  S5  1  0.98622039  0.69789409  0.75200335  1
  S  S6  1  0.48507007  0.69475531  0.74310372  1
  S  S7  1  0.35989300  0.02167806  0.74170953  1
  S  S8  1  0.86101287  0.03008530  0.75368796  1
  S  S9  1  0.19115058  0.03252147  0.58228683  1
  S  S10  1  0.68355032  0.02765318  0.58872208  1
  S  S11  1  0.33229295  0.63171268  0.58710143  1
  S  S12  1  0.82400800  0.62047704  0.58316988  1
  S  S13  1  0.32549747  0.02811571  0.08371765  1
  S  S14  1  0.83194875  0.03123452  0.08735814  1
  S  S15  1  0.18269584  0.34098780  0.08836704  1
  S  S16  1  0.68965121  0.34889385  0.08101264  1
  S  S17  1  0.31272943  0.67871386  0.92103996  1
  S  S18  1  0.81618016  0.68045513  0.91398790  1
  S  S19  1  0.02569626  0.36619167  0.91446948  1
  S  S20  1  0.52704475  0.38042730  0.92279014  1
  S  S21  1  0.66559286  0.94801220  0.92142471  1
  S  S22  1  0.31444299  0.94625258  0.41547221  1
  S  S23  1  0.81355442  0.94442242  0.42198826  1
  S  S24  1  0.16372435  0.38083869  0.42200665  1
  S  S25  1  0.02796755  0.67675662  0.42273496  1
  S  S26  1  0.52721582  0.68626258  0.41538008  1
  O  O0  1  0.11881752  0.05874333  0.30474256  1
  O  O1  1  0.60135324  0.05008829  0.30529796  1
  O  O2  1  0.41372526  0.77824736  0.30131778  1
  O  O3  1  0.90522858  0.76297641  0.29502247  1
  O  O4  1  0.47367210  0.16459470  0.30028997  1
  O  O5  1  0.97420083  0.18659383  0.29566863  1
  O  O6  1  0.10498837  0.16401494  0.80212625  1
  O  O7  1  0.61868566  0.17807782  0.80490966  1
  O  O8  1  0.47117461  0.75736109  0.79603001  1
  O  O9  1  0.97707257  0.78890312  0.80099560  1
  O  O10  1  0.40418406  0.05068611  0.79493809  1
  O  O11  1  0.91599025  0.04971058  0.80165951  1
  O  O12  1  0.40820418  0.00660373  0.69597806  1
  O  O13  1  0.89306697  0.99657635  0.70261666  1
  O  O14  1  0.10673832  0.20852958  0.70273190  1
  O  O15  1  0.58822163  0.16650912  0.69744653  1
  O  O16  1  -0.00049325  0.79509513  0.70148066  1
  O  O17  1  0.49090747  0.80210806  0.69641082  1
  O  O18  1  0.38811330  0.78611300  0.20206262  1
  O  O19  1  0.91030735  0.81621485  0.19618769  1
  O  O20  1  0.99321740  0.18112318  0.19607189  1
  O  O21  1  0.49492347  0.20269859  0.19997584  1
  O  O22  1  0.08877999  0.01122504  0.19682196  1
  O  O23  1  0.60528177  0.00187820  0.19627726  1
  O  O24  1  0.43019344  0.36728309  0.63497415  1
  O  O25  1  0.93316758  0.36364491  0.63613161  1
  O  O26  1  0.24421879  0.12408069  0.63199641  1
  O  O27  1  0.74437743  0.12540765  0.63499027  1
  O  O28  1  0.31221381  0.50603947  0.63387002  1
  O  O29  1  0.81526744  0.51024697  0.63225945  1
  O  O30  1  0.43120707  0.50630589  0.13492238  1
  O  O31  1  0.92603024  0.48874819  0.13461422  1
  O  O32  1  0.31585879  0.12088479  0.13176466  1
  O  O33  1  0.81145193  0.11380544  0.13334737  1
  O  O34  1  0.24346043  0.36740301  0.13392276  1
  O  O35  1  0.74092832  0.36357979  0.13073745  1
  O  O36  1  0.20546260  0.28281821  0.03838334  1
  O  O37  1  0.72398519  0.31263609  0.03146024  1
  O  O38  1  0.42978198  0.53703175  0.02505203  1
  O  O39  1  0.92796812  0.56833400  0.02914147  1
  O  O40  1  0.33899424  0.12255053  0.03231616  1
  O  O41  1  0.85326355  0.13354296  0.03696228  1
  O  O42  1  0.22300596  0.13807466  0.53307636  1
  O  O43  1  0.70639703  0.13271509  0.53918352  1
  O  O44  1  0.35377196  0.57079301  0.53764378  1
  O  O45  1  0.84056532  0.55499117  0.53295024  1
  O  O46  1  0.42475544  0.28600909  0.53068340  1
  O  O47  1  0.92798744  0.31423039  0.52678211  1
  O  O48  1  0.26175066  0.67169545  0.96991325  1
  O  O49  1  0.77899151  0.70046318  0.96526366  1
  O  O50  1  0.07312455  0.44496756  0.96589834  1
  O  O51  1  0.58183729  0.48341687  0.97021381  1
  O  O52  1  0.15567350  0.83818801  0.97089335  1
  O  O53  1  0.66716916  0.85031842  0.97135181  1
  O  O54  1  0.27244881  0.85115285  0.46737730  1
  O  O55  1  0.76206733  0.84997520  0.47170210  1
  O  O56  1  0.16556398  0.48176826  0.47227876  1
  O  O57  1  0.65541051  0.47180844  0.47062963  1
  O  O58  1  0.08307341  0.68313990  0.47057018  1
  O  O59  1  0.57510443  0.69797835  0.46744563  1
  O  O60  1  0.06605694  0.66925959  0.37034694  1
  O  O61  1  0.56474822  0.65727497  0.36710931  1
  O  O62  1  0.26054905  0.86600395  0.36717590  1
  O  O63  1  0.77306635  0.86389014  0.37026982  1
  O  O64  1  0.16477332  0.46687557  0.37106585  1
  O  O65  1  0.67752331  0.48561794  0.36033147  1
  O  O66  1  0.06477101  0.46902466  0.86544729  1
  O  O67  1  0.56550561  0.46416128  0.87001171  1
  O  O68  1  0.17534823  0.86920202  0.86056588  1
  O  O69  1  0.66649137  0.86411885  0.87023760  1
  O  O70  1  0.27146993  0.67698226  0.86856677  1
  O  O71  1  0.76389479  0.65688975  0.86513590  1
  O  O72  1  0.02347461  0.83293571  0.42576746  1
  O  O73  1  0.52270741  0.84281155  0.40917426  1
  O  O74  1  0.39584589  0.95510437  0.40790939  1
  O  O75  1  0.89660261  0.95523523  0.42643151  1
  O  O76  1  0.08570600  0.21550742  0.42612606  1
  O  O77  1  0.57447142  0.19216594  0.40609641  1
  O  O78  1  0.02102900  0.19916747  0.90599925  1
  O  O79  1  0.52225241  0.21448002  0.92519202  1
  O  O80  1  0.07603122  0.96098457  0.90436131  1
  O  O81  1  0.58714454  0.95652044  0.92499367  1
  O  O82  1  0.39580788  0.83431268  0.92396032  1
  O  O83  1  0.89964796  0.83744179  0.90411032  1
  O  O84  1  0.49965914  0.18389470  0.60221823  1
  O  O85  1  0.00329534  0.19267852  0.58607128  1
  O  O86  1  0.10478845  0.99106480  0.59178684  1
  O  O87  1  0.59811516  0.99103313  0.60508877  1
  O  O88  1  0.40101843  0.79556988  0.60397047  1
  O  O89  1  0.89521091  0.78983227  0.59245839  1
  O  O90  1  0.49869594  0.81385754  0.08139869  1
  O  O91  1  0.99927068  0.81515482  0.10191493  1
  O  O92  1  0.39556160  -0.00043473  0.09200316  1
  O  O93  1  0.90064515  0.00344979  0.10311105  1
  O  O94  1  0.09718451  0.20786907  0.10404412  1
  O  O95  1  0.60236600  0.21874074  0.08735530  1
  O  O96  1  0.34852863  0.17090908  0.73183237  1
  O  O97  1  0.85778600  0.18913699  0.74586636  1
  O  O98  1  0.23607571  0.28388722  0.74958381  1
  O  O99  1  0.74628455  0.30198125  0.73352121  1
  O  O100  1  0.40881466  0.52341266  0.73428644  1
  O  O101  1  0.90723526  0.53203895  0.74633620  1
  O  O102  1  0.35727614  0.52455769  0.24520565  1
  O  O103  1  0.85458497  0.53431570  0.23202120  1
  O  O104  1  0.40561884  0.28477565  0.24563482  1
  O  O105  1  0.91324581  0.29851805  0.23399719  1
  O  O106  1  0.24539145  0.19120837  0.23259408  1
  O  O107  1  0.74831756  0.20813510  0.24368636  1
  O  O108  1  0.32376904  0.53058427  0.91941030  1
  O  O109  1  0.83100465  0.53644579  0.91694031  1
  O  O110  1  0.44334329  0.36002282  0.92547508  1
  O  O111  1  0.93867664  0.33246682  0.91814140  1
  O  O112  1  0.24178791  0.14567770  0.91747159  1
  O  O113  1  0.73918695  0.11756358  0.92341343  1
  O  O114  1  0.32635719  0.11867552  0.41911702  1
  O  O115  1  0.82493104  0.11472100  0.42130175  1
  O  O116  1  0.23765802  0.35975777  0.42475070  1
  O  O117  1  0.74104132  0.33565600  0.41828564  1
  O  O118  1  0.44012630  0.54510412  0.42068793  1
  O  O119  1  0.94483408  0.52945823  0.42667075  1
  O  O120  1  0.18093711  0.49659484  0.07713714  1
  O  O121  1  0.69322615  0.51372693  0.07243829  1
  O  O122  1  0.07122242  0.63663844  0.07197612  1
  O  O123  1  0.57631617  0.63807255  0.07245111  1
  O  O124  1  0.24669956  0.86219907  0.07751527  1
  O  O125  1  0.75581586  0.86575131  0.07609540  1
  O  O126  1  0.19408894  0.87544462  0.57460636  1
  O  O127  1  0.68189524  0.86925935  0.57946543  1
  O  O128  1  0.25591239  0.64380975  0.57706273  1
  O  O129  1  0.74679252  0.63072414  0.57689414  1
  O  O130  1  0.07745329  0.51987635  0.57156430  1
  O  O131  1  0.57235046  0.50806272  0.57139062  1
  O  O132  1  0.16062955  0.86035707  0.24834583  1
  O  O133  1  0.67423577  0.88274669  0.26574854  1
  O  O134  1  0.27295706  0.64955569  0.26381149  1
  O  O135  1  0.77881219  0.68193932  0.24085960  1
  O  O136  1  0.06291723  0.44269454  0.24528690  1
  O  O137  1  0.55428454  0.44260222  0.25884375  1
  O  O138  1  0.16620086  0.44361011  0.76323829  1
  O  O139  1  0.66048698  0.46160956  0.74889206  1
  O  O140  1  0.05585708  0.66782622  0.76031991  1
  O  O141  1  0.55885281  0.67543808  0.74546685  1
  O  O142  1  0.27732206  0.87206250  0.74231922  1
  O  O143  1  0.77574283  0.89292696  0.76299620  1
loop_
_geom_bond_atom_site_label_1
_geom_bond_atom_site_label_2
_geom_bond_distance
_geom_bond_site_symmetry_2
Na0 O75 2.357895 1_545
Na0 O76 2.471297 1_655
Na0 O85 2.557070 1_655
Na0 O72 2.766943 1_645
Na1 O90 2.329577 1_555
Na1 O82 2.529372 1_554
Na1 O81 2.617568 1_554
Na1 O79 2.855652 1_564
Na1 O92 2.909051 1_565
Na1 O95 2.972057 1_565
Na2 O112 2.324214 1_555
Na2 O98 2.616659 1_555
Na2 O108 2.753260 1_555
Na2 O110 2.958554 1_555
Na3 O97 2.564906 1_555
Na3 O99 2.571572 1_555
Na3 O101 2.581976 1_555
Na3 O109 2.894821 1_555
Na3 O113 2.968757 1_555
Na4 O104 2.490379 1_555
Na4 O102 2.521266 1_555
Na4 O106 2.563317 1_555
Na4 O114 2.971965 1_555
Na5 O107 2.409388 1_555
Na5 O117 2.423909 1_555
Na5 O115 2.936418 1_555
La0 O0 2.156548 1_555
La0 O5 2.440118 1_455
La0 O3 2.455546 1_445
La0 O72 2.535512 1_545
La0 O76 2.563202 1_555
La0 O75 2.637308 1_445
La1 O7 2.155965 1_555
La1 O8 2.493483 1_545
La1 O79 2.502403 1_555
La1 O81 2.507213 1_545
La1 O10 2.527878 1_555
La1 O82 2.590538 1_545
La2 O85 2.167643 1_655
La2 O14 2.355205 1_655
La2 O13 2.355395 1_545
La2 O89 2.376160 1_545
La2 O16 2.422386 1_645
La2 O86 2.429943 1_645
La3 O23 2.122643 1_565
La3 O90 2.248168 1_555
La3 O18 2.396557 1_555
La3 O21 2.434735 1_565
La3 O95 2.494162 1_565
La3 O92 2.500305 1_565
La4 O38 2.169841 1_556
La4 O112 2.298222 1_555
La4 O40 2.369087 1_556
La4 O36 2.390224 1_556
La4 O108 2.431227 1_555
La4 O110 2.537543 1_555
La5 O39 2.113607 1_556
La5 O37 2.387575 1_556
La5 O111 2.423334 1_555
La5 O41 2.437116 1_556
La5 O109 2.474355 1_555
La5 O113 2.545716 1_555
La6 O46 2.130591 1_555
La6 O118 2.363141 1_555
La6 O114 2.404233 1_555
La6 O42 2.422822 1_555
La6 O44 2.488230 1_555
La6 O116 2.497416 1_555
La7 O47 2.208219 1_555
La7 O117 2.249206 1_555
La7 O115 2.391698 1_555
La7 O45 2.398252 1_555
La7 O43 2.424847 1_555
La7 O119 2.495916 1_555
La8 O132 2.148033 1_555
La8 O134 2.361125 1_555
La8 O62 2.404175 1_555
La8 O136 2.421753 1_555
La8 O60 2.423114 1_555
La8 O64 2.572698 1_555
La9 O133 2.181295 1_555
La9 O65 2.195504 1_555
La9 O137 2.398441 1_555
La9 O135 2.437408 1_555
La9 O63 2.443210 1_555
La9 O61 2.483093 1_555
La10 O68 2.121177 1_555
La10 O70 2.376150 1_555
La10 O140 2.379020 1_555
La10 O138 2.416575 1_555
La10 O142 2.430787 1_555
La10 O66 2.432720 1_555
La11 O139 2.151768 1_555
La11 O143 2.380267 1_555
La11 O67 2.401392 1_555
La11 O71 2.411858 1_555
La11 O141 2.440008 1_555
La11 O69 2.550739 1_555
Hf0 O77 1.913045 1_555
Hf0 O1 1.933599 1_555
Hf0 O73 2.163750 1_545
Hf0 O4 2.244363 1_555
Hf0 O74 2.324537 1_545
Hf0 O2 2.411314 1_545
Hf1 O80 1.887907 1_555
Hf1 O83 2.082055 1_455
Hf1 O78 2.094682 1_565
Hf1 O6 2.188746 1_565
Hf1 O9 2.205845 1_455
Hf1 O11 2.356074 1_465
Hf2 O15 1.907301 1_555
Hf2 O84 1.928904 1_555
Hf2 O87 2.084438 1_545
Hf2 O12 2.142806 1_555
Hf2 O17 2.215160 1_545
Hf2 O88 2.250279 1_545
Hf3 O22 1.906390 1_565
Hf3 O91 1.935486 1_455
Hf3 O19 2.098819 1_455
Hf3 O94 2.105974 1_565
Hf3 O20 2.204246 1_465
Hf3 O93 2.243863 1_465
Hf4 O24 1.894414 1_555
Hf4 O100 2.096522 1_555
Hf4 O96 2.098335 1_555
Hf4 O28 2.126205 1_555
Hf4 O26 2.146614 1_555
Hf4 O98 2.431877 1_555
Hf5 O25 1.997990 1_555
Hf5 O99 1.998255 1_555
Hf5 O27 2.142391 1_555
Hf5 O29 2.165649 1_555
Hf5 O97 2.247444 1_555
Hf5 O101 2.273655 1_555
Hf6 O106 1.990341 1_555
Hf6 O30 1.999750 1_555
Hf6 O102 2.189408 1_555
Hf6 O104 2.191907 1_555
Hf6 O32 2.212697 1_555
Hf6 O34 2.219875 1_555
Hf7 O31 1.997003 1_555
Hf7 O107 2.030196 1_555
Hf7 O105 2.106005 1_555
Hf7 O103 2.113408 1_555
Hf7 O33 2.174241 1_555
Hf7 O35 2.214451 1_555
Hf8 O122 1.916494 1_555
Hf8 O52 1.962334 1_554
Hf8 O124 2.122677 1_555
Hf8 O48 2.295523 1_554
Hf8 O120 2.313482 1_555
Hf8 O50 2.378532 1_554
Hf9 O123 1.881103 1_555
Hf9 O121 2.093705 1_555
Hf9 O53 2.104543 1_554
Hf9 O125 2.121224 1_555
Hf9 O51 2.132824 1_554
Hf9 O49 2.478182 1_554
Hf10 O130 1.913867 1_555
Hf10 O56 2.081399 1_555
Hf10 O58 2.089599 1_555
Hf10 O126 2.150738 1_555
Hf10 O128 2.168164 1_555
Hf10 O54 2.297141 1_555
Hf11 O57 1.919709 1_555
Hf11 O131 1.956338 1_555
Hf11 O129 2.205698 1_555
Hf11 O55 2.209524 1_555
Hf11 O59 2.222808 1_555
Hf11 O127 2.434709 1_555
O0 Si0 1.650272 1_555
O1 Si1 1.696251 1_555
O2 S0 1.482853 1_555
O3 S1 1.484204 1_555
O4 S3 1.504307 1_555
O5 S2 1.484957 1_555
O6 S4 1.510076 1_555
O7 Si2 1.650923 1_555
O8 S6 1.479567 1_555
O9 S5 1.511505 1_555
O10 S7 1.475372 1_555
O11 S8 1.491718 1_555
O12 S7 1.472801 1_555
O13 S8 1.469170 1_565
O14 S4 1.467394 1_555
O15 Si2 1.642593 1_555
O16 S5 1.460410 1_455
O17 S6 1.468642 1_555
O18 S0 1.462454 1_555
O19 S1 1.476663 1_555
O20 S2 1.468734 1_555
O21 S3 1.456219 1_555
O22 Si0 1.636320 1_555
O23 Si1 1.608867 1_555
O24 Si3 1.701795 1_555
O25 Si4 1.689261 1_555
O26 S9 1.514782 1_555
O27 S10 1.522828 1_555
O28 S11 1.525903 1_555
O29 S12 1.516961 1_555
O30 Si5 1.678818 1_555
O31 Si6 1.655238 1_555
O32 S13 1.507469 1_555
O33 S14 1.501827 1_555
O34 S15 1.503316 1_555
O35 S16 1.493810 1_555
O36 S15 1.468341 1_555
O37 S16 1.472049 1_555
O38 Si5 1.604472 1_555
O39 Si6 1.623296 1_555
O40 S13 1.464479 1_555
O41 S14 1.468360 1_555
O42 S9 1.461440 1_555
O43 S10 1.463069 1_555
O44 S11 1.459867 1_555
O45 S12 1.456793 1_555
O46 Si3 1.607728 1_555
O47 Si4 1.596481 1_555
O48 S17 1.494009 1_555
O49 S18 1.474525 1_555
O50 S19 1.485688 1_555
O51 S20 1.511668 1_555
O52 Si7 1.676798 1_555
O53 S21 1.514019 1_555
O54 S22 1.505263 1_555
O55 S23 1.510623 1_555
O56 S24 1.523062 1_555
O57 Si8 1.704213 1_555
O58 S25 1.522053 1_555
O59 S26 1.510413 1_555
O60 S25 1.468509 1_555
O61 S26 1.450872 1_555
O62 S22 1.472625 1_555
O63 S23 1.456450 1_555
O64 S24 1.458583 1_555
O65 Si8 1.597053 1_555
O66 S19 1.463172 1_555
O67 S20 1.476632 1_555
O68 Si7 1.615007 1_555
O69 S21 1.465626 1_555
O70 S17 1.475023 1_555
O71 S18 1.471272 1_555
O72 S25 1.488776 1_555
O73 S26 1.497550 1_555
O74 S22 1.480097 1_555
O75 S23 1.494389 1_555
O76 S24 1.492803 1_555
O77 Si8 1.675115 1_555
O78 S19 1.516809 1_555
O79 S20 1.492488 1_555
O80 Si7 1.686894 1_555
O81 S21 1.496328 1_555
O82 S17 1.493920 1_555
O83 S18 1.520701 1_555
O84 Si3 1.632159 1_555
O85 Si4 1.643035 1_455
O86 S9 1.465194 1_565
O87 S10 1.497144 1_565
O88 S11 1.468507 1_555
O89 S12 1.476309 1_555
O90 Si5 1.621445 1_555
O91 Si6 1.639140 1_555
O92 S13 1.460874 1_555
O93 S14 1.467478 1_555
O94 S15 1.490016 1_555
O95 S16 1.463751 1_555
O96 S7 1.513880 1_555
O97 S8 1.512211 1_555
O98 S4 1.501897 1_555
O99 Si2 1.645514 1_555
O100 S6 1.521744 1_555
O101 S5 1.506738 1_555
O102 S0 1.523859 1_555
O103 S1 1.493501 1_555
O104 S3 1.525210 1_555
O105 S2 1.500062 1_555
O106 Si0 1.642717 1_555
O107 Si1 1.673970 1_555
O108 S17 1.482417 1_555
O109 S18 1.488770 1_555
O110 S20 1.466713 1_555
O111 S19 1.483658 1_655
O112 Si7 1.618600 1_545
O113 S21 1.477754 1_545
O114 S22 1.498575 1_545
O115 S23 1.480218 1_545
O116 S24 1.477569 1_555
O117 Si8 1.628893 1_555
O118 S26 1.489769 1_555
O119 S25 1.463044 1_655
O120 S15 1.479234 1_555
O121 S16 1.505417 1_555
O122 Si6 1.664396 1_455
O123 Si5 1.691086 1_555
O124 S13 1.506680 1_565
O125 S14 1.499749 1_565
O126 S9 1.491744 1_565
O127 S10 1.466592 1_565
O128 S11 1.492964 1_555
O129 S12 1.487071 1_555
O130 Si4 1.680001 1_455
O131 Si3 1.634444 1_555
O132 Si0 1.617709 1_565
O133 Si1 1.596345 1_565
O134 S0 1.471257 1_555
O135 S1 1.455250 1_555
O136 S2 1.466724 1_455
O137 S3 1.455643 1_555
O138 S4 1.460068 1_555
O139 Si2 1.619202 1_555
O140 S5 1.462029 1_455
O141 S6 1.464792 1_555
O142 S7 1.462877 1_565
O143 S8 1.467316 1_565
