# generated using pymatgen
data_Al2CuCl8
_symmetry_space_group_name_H-M   'P 1'
_cell_length_a   7.34712311
_cell_length_b   6.73685037
_cell_length_c   12.30260951
_cell_angle_alpha   85.28339298
_cell_angle_beta   90.00000000
_cell_angle_gamma   90.00000000
_symmetry_Int_Tables_number   1
_chemical_formula_structural   Al2CuCl8
_chemical_formula_sum   'Al4 Cu2 Cl16'
_cell_volume   606.87362805
_cell_formula_units_Z   2
loop_
 _symmetry_equiv_pos_site_id
 _symmetry_equiv_pos_as_xyz
  1  'x, y, z'
loop_
 _atom_site_type_symbol
 _atom_site_label
 _atom_site_symmetry_multiplicity
 _atom_site_fract_x
 _atom_site_fract_y
 _atom_site_fract_z
 _atom_site_occupancy
  Al  Al0  1  0.73591817  0.81006825  0.18243306  1
  Al  Al1  1  0.76408183  0.81006825  0.68243306  1
  Al  Al2  1  0.26408183  0.18993175  0.81756694  1
  Al  Al3  1  0.23591817  0.18993175  0.31756694  1
  Cu  Cu0  1  0.50000000  0.00000000  0.50000000  1
  Cu  Cu1  1  -0.00000000  0.00000000  0.00000000  1
  Cl  Cl0  1  0.74798486  0.10707179  0.59287571  1
  Cl  Cl1  1  0.24798486  0.89292821  0.90712429  1
  Cl  Cl2  1  0.99054834  0.70655390  0.11034542  1
  Cl  Cl3  1  0.49054834  0.29344610  0.38965458  1
  Cl  Cl4  1  0.00945166  0.29344610  0.88965458  1
  Cl  Cl5  1  0.50945166  0.70655390  0.61034542  1
  Cl  Cl6  1  0.26714135  0.16079566  0.14872259  1
  Cl  Cl7  1  0.76714135  0.83920434  0.35127741  1
  Cl  Cl8  1  0.73285865  0.83920434  0.85127741  1
  Cl  Cl9  1  0.23285865  0.16079566  0.64872259  1
  Cl  Cl10  1  0.51314509  0.64153002  0.13944333  1
  Cl  Cl11  1  0.01314509  0.35846998  0.36055667  1
  Cl  Cl12  1  0.48685491  0.35846998  0.86055667  1
  Cl  Cl13  1  0.98685491  0.64153002  0.63944333  1
  Cl  Cl14  1  0.75201514  0.10707179  0.09287571  1
  Cl  Cl15  1  0.25201514  0.89292821  0.40712429  1
loop_
_geom_bond_atom_site_label_1
_geom_bond_atom_site_label_2
_geom_bond_distance
_geom_bond_site_symmetry_2
Al0 Cl10 2.084843 1_555
Al0 Cl7 2.114964 1_555
Al0 Cl14 2.206548 1_565
Al0 Cl2 2.207814 1_555
Al1 Cl13 2.084843 1_555
Al1 Cl8 2.114964 1_555
Al1 Cl0 2.206548 1_565
Al1 Cl5 2.207814 1_555
Al2 Cl12 2.084843 1_555
Al2 Cl9 2.114964 1_555
Al2 Cl1 2.206548 1_545
Al2 Cl4 2.207814 1_555
Al3 Cl11 2.084843 1_555
Al3 Cl6 2.114964 1_555
Al3 Cl15 2.206548 1_545
Al3 Cl3 2.207814 1_555
Cl0 Cu0 2.298046 1_555
Cl1 Cu1 2.298046 1_566
Cl2 Cu1 2.305325 1_665
Cl3 Cu0 2.305325 1_555
Cl4 Cu1 2.305325 1_556
Cl5 Cu0 2.305325 1_565
Cl6 Cu1 2.949471 1_555
Cl7 Cu0 2.949471 1_565
Cl8 Cu1 2.949471 1_666
Cl9 Cu0 2.949471 1_555
Cl14 Cu1 2.298046 1_655
Cl15 Cu0 2.298046 1_565
