# generated using pymatgen
data_SbIF5
_symmetry_space_group_name_H-M   'P 1'
_cell_length_a   16.45767800
_cell_length_b   8.56084400
_cell_length_c   17.05865621
_cell_angle_alpha   80.34027861
_cell_angle_beta   90.00000000
_cell_angle_gamma   90.00000000
_symmetry_Int_Tables_number   1
_chemical_formula_structural   SbIF5
_chemical_formula_sum   'Sb16 I16 F80'
_cell_volume   2369.34510741
_cell_formula_units_Z   16
loop_
 _symmetry_equiv_pos_site_id
 _symmetry_equiv_pos_as_xyz
  1  'x, y, z'
loop_
 _atom_site_type_symbol
 _atom_site_label
 _atom_site_symmetry_multiplicity
 _atom_site_fract_x
 _atom_site_fract_y
 _atom_site_fract_z
 _atom_site_occupancy
  Sb  Sb0  1  0.21923400  0.13694100  0.27485000  1
  Sb  Sb1  1  0.71923400  0.86305900  0.22515000  1
  Sb  Sb2  1  0.78076600  0.86305900  0.72515000  1
  Sb  Sb3  1  0.28076600  0.13694100  0.77485000  1
  Sb  Sb4  1  0.24015800  0.02240500  0.03335100  1
  Sb  Sb5  1  0.74015800  0.97759500  0.46664900  1
  Sb  Sb6  1  0.75984200  0.97759500  0.96664900  1
  Sb  Sb7  1  0.25984200  0.02240500  0.53335100  1
  Sb  Sb8  1  0.99483300  0.91253400  0.26896700  1
  Sb  Sb9  1  0.49483300  0.08746600  0.23103300  1
  Sb  Sb10  1  0.00516700  0.08746600  0.73103300  1
  Sb  Sb11  1  0.50516700  0.91253400  0.76896700  1
  Sb  Sb12  1  0.28605500  0.58605600  0.30280500  1
  Sb  Sb13  1  0.78605500  0.41394400  0.19719500  1
  Sb  Sb14  1  0.71394500  0.41394400  0.69719500  1
  Sb  Sb15  1  0.21394500  0.58605600  0.80280500  1
  I  I0  1  0.50764700  0.73003100  0.52000200  1
  I  I1  1  0.00764700  0.26996900  0.97999800  1
  I  I2  1  0.49235300  0.26996900  0.47999800  1
  I  I3  1  0.99235300  0.73003100  0.02000200  1
  I  I4  1  0.58459000  0.49816200  0.40565500  1
  I  I5  1  0.08459000  0.50183800  0.09434500  1
  I  I6  1  0.41541000  0.50183800  0.59434500  1
  I  I7  1  0.91541000  0.49816200  0.90565500  1
  I  I8  1  0.51890600  0.65213100  0.08553800  1
  I  I9  1  0.01890600  0.34786900  0.41446200  1
  I  I10  1  0.48109400  0.34786900  0.91446200  1
  I  I11  1  0.98109400  0.65213100  0.58553800  1
  I  I12  1  0.38414500  0.56970900  0.02193200  1
  I  I13  1  0.88414500  0.43029100  0.47806800  1
  I  I14  1  0.61585500  0.43029100  0.97806800  1
  I  I15  1  0.11585500  0.56970900  0.52193200  1
  F  F0  1  0.17429500  0.28013100  0.18259300  1
  F  F1  1  0.67429500  0.71986900  0.31740700  1
  F  F2  1  0.82570500  0.71986900  0.81740700  1
  F  F3  1  0.32570500  0.28013100  0.68259300  1
  F  F4  1  0.24970800  0.99524400  0.64749900  1
  F  F5  1  0.74970800  0.00475600  0.85250100  1
  F  F6  1  0.75029200  0.00475600  0.35250100  1
  F  F7  1  0.25029200  0.99524400  0.14749900  1
  F  F8  1  0.28082800  0.80523000  0.31166600  1
  F  F9  1  0.78082800  0.19477000  0.18833400  1
  F  F10  1  0.71917200  0.19477000  0.68833400  1
  F  F11  1  0.21917200  0.80523000  0.81166600  1
  F  F12  1  0.24294200  0.24544500  0.52474600  1
  F  F13  1  0.74294200  0.75455500  0.97525400  1
  F  F14  1  0.75705800  0.75455500  0.47525400  1
  F  F15  1  0.25705800  0.24544500  0.02474600  1
  F  F16  1  0.37598800  0.05556400  0.54452700  1
  F  F17  1  0.87598800  0.94443600  0.95547300  1
  F  F18  1  0.62401200  0.94443600  0.45547300  1
  F  F19  1  0.12401200  0.05556400  0.04452700  1
  F  F20  1  0.13974800  0.22408000  0.34203800  1
  F  F21  1  0.63974800  0.77592000  0.15796200  1
  F  F22  1  0.86025200  0.77592000  0.65796200  1
  F  F23  1  0.36025200  0.22408000  0.84203800  1
  F  F24  1  0.28956200  0.35379600  0.29663000  1
  F  F25  1  0.78956200  0.64620400  0.20337000  1
  F  F26  1  0.71043800  0.64620400  0.70337000  1
  F  F27  1  0.21043800  0.35379600  0.79663000  1
  F  F28  1  0.11300700  0.97423600  0.26072000  1
  F  F29  1  0.61300700  0.02576400  0.23928000  1
  F  F30  1  0.88699300  0.02576400  0.73928000  1
  F  F31  1  0.38699300  0.97423600  0.76072000  1
  F  F32  1  0.27671100  0.04987300  0.41908100  1
  F  F33  1  0.77671100  0.95012700  0.08091900  1
  F  F34  1  0.72328900  0.95012700  0.58091900  1
  F  F35  1  0.22328900  0.04987300  0.91908100  1
  F  F36  1  0.14667700  0.98695100  0.52045500  1
  F  F37  1  0.64667700  0.01304900  0.97954500  1
  F  F38  1  0.85332300  0.01304900  0.47954500  1
  F  F39  1  0.35332300  0.98695100  0.02045500  1
  F  F40  1  0.28068100  0.80032500  0.54057000  1
  F  F41  1  0.78068100  0.19967500  0.95943000  1
  F  F42  1  0.71931900  0.19967500  0.45943000  1
  F  F43  1  0.21931900  0.80032500  0.04057000  1
  F  F44  1  0.97489700  0.10093600  0.31170700  1
  F  F45  1  0.47489700  0.89906400  0.18829300  1
  F  F46  1  0.02510300  0.89906400  0.68829300  1
  F  F47  1  0.52510300  0.10093600  0.81170700  1
  F  F48  1  0.01824200  0.79897600  0.37256100  1
  F  F49  1  0.51824200  0.20102400  0.12743900  1
  F  F50  1  0.98175800  0.20102400  0.62743900  1
  F  F51  1  0.48175800  0.79897600  0.87256100  1
  F  F52  1  0.02184700  0.72940200  0.22427400  1
  F  F53  1  0.52184700  0.27059800  0.27572600  1
  F  F54  1  0.97815300  0.27059800  0.77572600  1
  F  F55  1  0.47815300  0.72940200  0.72427400  1
  F  F56  1  0.37867300  0.55262400  0.37076300  1
  F  F57  1  0.87867300  0.44737600  0.12923700  1
  F  F58  1  0.62132700  0.44737600  0.62923700  1
  F  F59  1  0.12132700  0.55262400  0.87076300  1
  F  F60  1  0.97981800  0.02781900  0.16405600  1
  F  F61  1  0.47981800  0.97218100  0.33594400  1
  F  F62  1  0.02018200  0.97218100  0.83594400  1
  F  F63  1  0.52018200  0.02781900  0.66405600  1
  F  F64  1  0.38245900  0.14829200  0.22140100  1
  F  F65  1  0.88245900  0.85170800  0.27859900  1
  F  F66  1  0.61754100  0.85170800  0.77859900  1
  F  F67  1  0.11754100  0.14829200  0.72140100  1
  F  F68  1  0.69194100  0.40012100  0.26318400  1
  F  F69  1  0.19194100  0.59987900  0.23681600  1
  F  F70  1  0.30805900  0.59987900  0.73681600  1
  F  F71  1  0.80805900  0.40012100  0.76318400  1
  F  F72  1  0.71787600  0.47102000  0.10518400  1
  F  F73  1  0.21787600  0.52898000  0.39481600  1
  F  F74  1  0.28212400  0.52898000  0.89481600  1
  F  F75  1  0.78212400  0.47102000  0.60518400  1
  F  F76  1  0.85450200  0.38036900  0.28845300  1
  F  F77  1  0.35450200  0.61963100  0.21154700  1
  F  F78  1  0.14549800  0.61963100  0.71154700  1
  F  F79  1  0.64549800  0.38036900  0.78845300  1
loop_
_geom_bond_atom_site_label_1
_geom_bond_atom_site_label_2
_geom_bond_distance
_geom_bond_site_symmetry_2
F0 Sb0 1.969521 1_555
F0 I5 2.662575 1_555
F1 Sb1 1.969521 1_555
F1 I4 2.662575 1_555
F2 Sb2 1.969521 1_555
F2 I7 2.662575 1_555
F3 Sb3 1.969521 1_555
F3 I6 2.662575 1_555
F4 Sb7 1.929137 1_565
F5 Sb6 1.929137 1_545
F6 Sb5 1.929137 1_545
F7 Sb4 1.929137 1_565
F8 Sb12 1.909446 1_555
F9 Sb13 1.909446 1_555
F10 Sb14 1.909446 1_555
F11 Sb15 1.909446 1_555
F12 Sb7 1.910679 1_555
F13 Sb6 1.910679 1_555
F14 Sb5 1.910679 1_555
F15 Sb4 1.910679 1_555
F16 Sb7 1.946509 1_555
F17 Sb6 1.946509 1_555
F18 Sb5 1.946509 1_555
F19 Sb4 1.946509 1_555
F20 Sb0 1.966805 1_555
F20 I9 2.654057 1_555
F21 Sb1 1.966805 1_555
F21 I8 2.654057 1_555
F22 Sb2 1.966805 1_555
F22 I11 2.654057 1_555
F23 Sb3 1.966805 1_555
F23 I10 2.654057 1_555
F24 Sb12 2.009532 1_555
F24 Sb0 2.270599 1_555
F25 Sb13 2.009532 1_555
F25 Sb1 2.270599 1_555
F26 Sb14 2.009532 1_555
F26 Sb2 2.270599 1_555
F27 Sb15 2.009532 1_555
F27 Sb3 2.270599 1_555
F28 Sb8 2.014048 1_455
F28 Sb0 2.273169 1_565
F29 Sb9 2.014048 1_555
F29 Sb1 2.273169 1_545
F30 Sb10 2.014048 1_655
F30 Sb2 2.273169 1_545
F31 Sb11 2.014048 1_555
F31 Sb3 2.273169 1_565
F32 Sb7 1.943781 1_555
F33 Sb6 1.943781 1_554
F34 Sb5 1.943781 1_555
F35 Sb4 1.943781 1_556
F36 Sb7 1.905671 1_565
F37 Sb6 1.905671 1_545
F38 Sb5 1.905671 1_545
F39 Sb4 1.905671 1_565
F40 Sb7 1.915398 1_565
F41 Sb6 1.915398 1_545
F42 Sb5 1.915398 1_545
F43 Sb4 1.915398 1_565
F44 Sb8 1.906629 1_545
F45 Sb9 1.906629 1_565
F46 Sb10 1.906629 1_565
F47 Sb11 1.906629 1_545
F48 Sb8 1.907845 1_455
F49 Sb9 1.907845 1_555
F50 Sb10 1.907845 1_655
F51 Sb11 1.907845 1_555
F52 Sb8 1.907334 1_455
F53 Sb9 1.907334 1_555
F54 Sb10 1.907334 1_655
F55 Sb11 1.907334 1_555
F56 Sb12 1.907328 1_555
F57 Sb13 1.907328 1_555
F58 Sb14 1.907328 1_555
F59 Sb15 1.907328 1_555
F60 Sb8 1.909235 1_545
F61 Sb9 1.909235 1_565
F62 Sb10 1.909235 1_565
F63 Sb11 1.909235 1_545
F64 Sb9 1.920878 1_555
F65 Sb8 1.920878 1_555
F66 Sb11 1.920878 1_555
F67 Sb10 1.920878 1_555
F68 Sb13 1.906711 1_555
F69 Sb12 1.906711 1_555
F70 Sb15 1.906711 1_555
F71 Sb14 1.906711 1_555
F72 Sb13 1.924579 1_555
F73 Sb12 1.924579 1_555
F74 Sb15 1.924579 1_555
F75 Sb14 1.924579 1_555
F76 Sb13 1.903902 1_555
F77 Sb12 1.903902 1_555
F78 Sb15 1.903902 1_555
F79 Sb14 1.903902 1_555
