# generated using pymatgen
data_K2RbGdV2O8
_symmetry_space_group_name_H-M   'P 1'
_cell_length_a   6.06874359
_cell_length_b   6.06874359
_cell_length_c   7.85268600
_cell_angle_alpha   90.00000000
_cell_angle_beta   90.00000000
_cell_angle_gamma   119.99999553
_symmetry_Int_Tables_number   1
_chemical_formula_structural   K2RbGdV2O8
_chemical_formula_sum   'K2 Rb1 Gd1 V2 O8'
_cell_volume   250.46466217
_cell_formula_units_Z   1
loop_
 _symmetry_equiv_pos_site_id
 _symmetry_equiv_pos_as_xyz
  1  'x, y, z'
loop_
 _atom_site_type_symbol
 _atom_site_label
 _atom_site_symmetry_multiplicity
 _atom_site_fract_x
 _atom_site_fract_y
 _atom_site_fract_z
 _atom_site_occupancy
  K  K0  1  0.66666700  0.33333300  0.79982600  1
  K  K1  1  0.33333300  0.66666700  0.20017400  1
  Rb  Rb0  1  0.00000000  0.00000000  0.50000000  1
  Gd  Gd0  1  0.00000000  0.00000000  0.00000000  1
  V  V0  1  0.66666700  0.33333300  0.25184500  1
  V  V1  1  0.33333300  0.66666700  0.74815500  1
  O  O0  1  0.82436500  0.17563500  0.17408800  1
  O  O1  1  0.82436500  0.64873100  0.17408800  1
  O  O2  1  0.35126900  0.17563500  0.17408800  1
  O  O3  1  0.64873100  0.82436500  0.82591200  1
  O  O4  1  0.17563500  0.35126900  0.82591200  1
  O  O5  1  0.17563500  0.82436500  0.82591200  1
  O  O6  1  0.33333300  0.66666700  0.53353400  1
  O  O7  1  0.66666700  0.33333300  0.46646600  1
loop_
_geom_bond_atom_site_label_1
_geom_bond_atom_site_label_2
_geom_bond_distance
_geom_bond_site_symmetry_2
K0 O7 2.617771 1_555
K0 O3 3.042739 1_555
K0 O4 3.042739 1_555
K0 O4 3.042739 1_655
K0 O3 3.042739 1_545
K0 O5 3.042739 1_655
K0 O5 3.042739 1_545
K1 O6 2.617771 1_555
K1 O1 3.042739 1_555
K1 O2 3.042739 1_555
K1 O2 3.042739 1_565
K1 O1 3.042739 1_455
K1 O0 3.042739 1_565
K1 O0 3.042739 1_455
Gd0 O2 2.297206 1_555
Gd0 O3 2.297206 1_444
Gd0 O1 2.297206 1_445
Gd0 O4 2.297206 1_554
Gd0 O0 2.297210 1_455
Gd0 O5 2.297210 1_544
O0 V0 1.766507 1_555
O0 Rb0 3.155671 1_655
O1 V0 1.766517 1_555
O1 Rb0 3.155668 1_665
O2 V0 1.766517 1_555
O2 Rb0 3.155668 1_555
O3 V1 1.766517 1_555
O3 Rb0 3.155668 1_665
O4 V1 1.766517 1_555
O4 Rb0 3.155668 1_555
O5 V1 1.766507 1_555
O5 Rb0 3.155671 1_565
O6 V1 1.685351 1_555
O6 Rb0 3.513669 1_565
O6 Rb0 3.513674 1_555
O6 Rb0 3.513674 1_665
O7 V0 1.685351 1_555
O7 Rb0 3.513669 1_655
O7 Rb0 3.513674 1_555
O7 Rb0 3.513674 1_665
