# generated using pymatgen
data_Sr2Mg(MoO3)2
_symmetry_space_group_name_H-M   'P 1'
_cell_length_a   5.97299422
_cell_length_b   5.71573514
_cell_length_c   6.40159610
_cell_angle_alpha   56.29366706
_cell_angle_beta   62.19112739
_cell_angle_gamma   58.49961650
_symmetry_Int_Tables_number   1
_chemical_formula_structural   Sr2Mg(MoO3)2
_chemical_formula_sum   'Sr2 Mg1 Mo2 O6'
_cell_volume   150.13882817
_cell_formula_units_Z   1
loop_
 _symmetry_equiv_pos_site_id
 _symmetry_equiv_pos_as_xyz
  1  'x, y, z'
loop_
 _atom_site_type_symbol
 _atom_site_label
 _atom_site_symmetry_multiplicity
 _atom_site_fract_x
 _atom_site_fract_y
 _atom_site_fract_z
 _atom_site_occupancy
  Sr  Sr0  1  0.69272146  0.77728686  0.83727022  1
  Sr  Sr1  1  0.30727854  0.22271314  0.16272978  1
  Mg  Mg0  1  -0.00000000  0.50000000  0.50000000  1
  Mo  Mo0  1  0.50000000  0.50000000  0.50000000  1
  Mo  Mo1  1  -0.00000000  -0.00000000  0.00000000  1
  O  O0  1  0.77261600  0.09378286  0.36098514  1
  O  O1  1  0.22738400  0.90621714  0.63901486  1
  O  O2  1  0.16868849  0.34890804  0.78410204  1
  O  O3  1  0.30169857  0.65109196  0.21589796  1
  O  O4  1  0.69830143  0.34890804  0.78410204  1
  O  O5  1  0.83131151  0.65109196  0.21589796  1
loop_
_geom_bond_atom_site_label_1
_geom_bond_atom_site_label_2
_geom_bond_distance
_geom_bond_site_symmetry_2
Mg0 O2 2.031253 1_555
Mg0 O5 2.031253 1_455
Mg0 O3 2.031253 1_555
Mg0 O4 2.031253 1_455
Mg0 O0 2.667171 1_465
Mg0 O1 2.667171 1_545
Mo0 O4 2.157367 1_555
Mo0 O3 2.157367 1_555
Mo0 O2 2.157367 1_555
Mo0 O5 2.157367 1_555
Mo0 O1 2.413428 1_555
Mo0 O0 2.413428 1_555
Mo1 O5 2.154965 1_445
Mo1 O2 2.154965 1_554
Mo1 O3 2.154965 1_545
Mo1 O4 2.154965 1_454
Mo1 O0 2.271062 1_455
Mo1 O1 2.271062 1_544
O0 Sr0 2.493879 1_545
O0 Sr1 3.161024 1_555
O0 Sr1 3.161024 1_655
O1 Sr1 2.493879 1_565
O1 Sr0 3.161024 1_555
O1 Sr0 3.161024 1_455
O2 Sr1 2.527485 1_556
O2 Sr0 2.634613 1_455
O2 Sr0 3.108179 1_545
O3 Sr0 2.527486 1_554
O3 Sr1 2.634613 1_555
O3 Sr1 3.108178 1_565
O4 Sr1 2.527486 1_556
O4 Sr0 2.634613 1_555
O4 Sr0 3.108178 1_545
O5 Sr0 2.527485 1_554
O5 Sr1 2.634613 1_655
O5 Sr1 3.108179 1_565
