# generated using pymatgen
data_Co9Cu3O16
_symmetry_space_group_name_H-M   'P 1'
_cell_length_a   5.63482784
_cell_length_b   5.63461155
_cell_length_c   8.15889681
_cell_angle_alpha   89.99634047
_cell_angle_beta   89.99686314
_cell_angle_gamma   87.10229321
_symmetry_Int_Tables_number   1
_chemical_formula_structural   Co9Cu3O16
_chemical_formula_sum   'Co9 Cu3 O16'
_cell_volume   258.71429143
_cell_formula_units_Z   1
loop_
 _symmetry_equiv_pos_site_id
 _symmetry_equiv_pos_as_xyz
  1  'x, y, z'
loop_
 _atom_site_type_symbol
 _atom_site_label
 _atom_site_symmetry_multiplicity
 _atom_site_fract_x
 _atom_site_fract_y
 _atom_site_fract_z
 _atom_site_occupancy
  Co  Co0  1  0.24992613  0.49898180  0.12497322  1
  Co  Co1  1  0.75005862  0.50098371  0.12498617  1
  Co  Co2  1  0.00100458  0.25006591  0.37503147  1
  Co  Co3  1  0.99901756  0.74994360  0.37502197  1
  Co  Co4  1  0.74963148  0.00101013  0.62531494  1
  Co  Co5  1  0.25039043  0.99901736  0.62530831  1
  Co  Co6  1  0.00000075  0.49999675  0.74998105  1
  Co  Co7  1  0.50097267  0.24961991  0.87470362  1
  Co  Co8  1  0.49901230  0.75035613  0.87470056  1
  Cu  Cu0  1  -0.00011826  0.00005169  0.00101090  1
  Cu  Cu1  1  0.50016320  -0.00017144  0.24994361  1
  Cu  Cu2  1  0.49989205  0.50019334  0.49900178  1
  O  O0  1  0.48730395  0.72601097  0.10685633  1
  O  O1  1  0.51266653  0.27394595  0.10687521  1
  O  O2  1  0.01170865  0.27353190  0.14318415  1
  O  O3  1  0.98828536  0.72645280  0.14317077  1
  O  O4  1  0.77346849  0.51170861  0.35684419  1
  O  O5  1  0.22653685  0.48828512  0.35682139  1
  O  O6  1  0.77397389  0.01266031  0.39318290  1
  O  O7  1  0.22606498  0.98736443  0.39316365  1
  O  O8  1  0.99258458  0.22775690  0.61027875  1
  O  O9  1  0.00744163  0.77224709  0.61027359  1
  O  O10  1  0.48722797  0.22644272  0.64222404  1
  O  O11  1  0.51281074  0.77360564  0.64224283  1
  O  O12  1  0.72634194  0.98719826  0.85774638  1
  O  O13  1  0.27363442  0.01276748  0.85775385  1
  O  O14  1  0.27228003  0.50743022  0.88969640  1
  O  O15  1  0.72771945  0.49254369  0.88970597  1
loop_
_geom_bond_atom_site_label_1
_geom_bond_atom_site_label_2
_geom_bond_distance
_geom_bond_site_symmetry_2
Co0 O5 1.897369 1_555
Co0 O2 1.899990 1_555
Co0 O0 1.902718 1_555
Co0 O1 1.905694 1_555
Co0 O3 1.909800 1_455
Co0 O14 1.924464 1_554
Co1 O4 1.897485 1_555
Co1 O3 1.900112 1_555
Co1 O1 1.902832 1_555
Co1 O0 1.905744 1_555
Co1 O2 1.909770 1_655
Co1 O15 1.924504 1_554
Co2 O2 1.897394 1_555
Co2 O5 1.900320 1_555
Co2 O6 1.902859 1_455
Co2 O7 1.905626 1_545
Co2 O4 1.910021 1_455
Co2 O8 1.924201 1_455
Co3 O3 1.897464 1_555
Co3 O4 1.900456 1_555
Co3 O7 1.903007 1_655
Co3 O6 1.905653 1_565
Co3 O5 1.910039 1_655
Co3 O9 1.924256 1_655
Co4 O9 1.896739 1_645
Co4 O6 1.900264 1_555
Co4 O11 1.901177 1_545
Co4 O12 1.902771 1_545
Co4 O10 1.904958 1_555
Co4 O8 1.923109 1_555
Co5 O8 1.896629 1_465
Co5 O7 1.900384 1_555
Co5 O10 1.901345 1_565
Co5 O13 1.902876 1_565
Co5 O11 1.904970 1_555
Co5 O9 1.923203 1_555
Co6 O9 1.913254 1_555
Co6 O8 1.913293 1_455
Co6 O15 1.913539 1_455
Co6 O14 1.913580 1_555
Co7 O14 1.896452 1_555
Co7 O1 1.900612 1_556
Co7 O13 1.901076 1_555
Co7 O10 1.903125 1_555
Co7 O12 1.904829 1_545
Co7 O15 1.922984 1_555
Co8 O15 1.896517 1_555
Co8 O0 1.900470 1_556
Co8 O12 1.900979 1_555
Co8 O11 1.902965 1_555
Co8 O13 1.904807 1_565
Co8 O14 1.922912 1_555
Cu0 O2 1.932653 1_555
Cu0 O3 1.932903 1_445
Cu0 O12 1.938757 1_444
Cu0 O13 1.939509 1_554
Cu1 O0 1.939098 1_545
Cu1 O6 1.939841 1_555
Cu1 O1 1.940075 1_555
Cu1 O7 1.940771 1_545
Cu2 O5 1.932199 1_555
Cu2 O4 1.932812 1_555
Cu2 O11 1.938059 1_555
Cu2 O10 1.939252 1_555
