# generated using pymatgen
data_MgTe2Mo2W2(Se2S)2
_symmetry_space_group_name_H-M   'P 1'
_cell_length_a   6.66912800
_cell_length_b   6.66911984
_cell_length_c   93.43715201
_cell_angle_alpha   90.00157705
_cell_angle_beta   90.00014354
_cell_angle_gamma   120.00000345
_symmetry_Int_Tables_number   1
_chemical_formula_structural   MgTe2Mo2W2(Se2S)2
_chemical_formula_sum   'Mg8 Te16 Mo16 W16 Se32 S16'
_cell_volume   3599.04919687
_cell_formula_units_Z   8
loop_
 _symmetry_equiv_pos_site_id
 _symmetry_equiv_pos_as_xyz
  1  'x, y, z'
loop_
 _atom_site_type_symbol
 _atom_site_label
 _atom_site_symmetry_multiplicity
 _atom_site_fract_x
 _atom_site_fract_y
 _atom_site_fract_z
 _atom_site_occupancy
  Mg  Mg0_0  1  0.00000850  0.00001250  0.09524600  1
  Mg  Mg0_1  1  0.00000850  0.00001250  0.59524600  1
  Mg  Mg0_2  1  0.00000850  0.50001250  0.09524600  1
  Mg  Mg0_3  1  0.00000850  0.50001250  0.59524600  1
  Mg  Mg0_4  1  0.50000850  0.00001250  0.09524600  1
  Mg  Mg0_5  1  0.50000850  0.00001250  0.59524600  1
  Mg  Mg0_6  1  0.50000850  0.50001250  0.09524600  1
  Mg  Mg0_7  1  0.50000850  0.50001250  0.59524600  1
  Te  Te0_0  1  0.33333350  0.16666800  0.02327950  1
  Te  Te0_1  1  0.33333350  0.16666800  0.52327950  1
  Te  Te0_2  1  0.33333350  0.66666800  0.02327950  1
  Te  Te0_3  1  0.33333350  0.66666800  0.52327950  1
  Te  Te0_4  1  0.83333350  0.16666800  0.02327950  1
  Te  Te0_5  1  0.83333350  0.16666800  0.52327950  1
  Te  Te0_6  1  0.83333350  0.66666800  0.02327950  1
  Te  Te0_7  1  0.83333350  0.66666800  0.52327950  1
  Te  Te1_0  1  0.33334200  0.16668350  0.06412150  1
  Te  Te1_1  1  0.33334200  0.16668350  0.56412150  1
  Te  Te1_2  1  0.33334200  0.66668350  0.06412150  1
  Te  Te1_3  1  0.33334200  0.66668350  0.56412150  1
  Te  Te1_4  1  0.83334200  0.16668350  0.06412150  1
  Te  Te1_5  1  0.83334200  0.16668350  0.56412150  1
  Te  Te1_6  1  0.83334200  0.66668350  0.06412150  1
  Te  Te1_7  1  0.83334200  0.66668350  0.56412150  1
  Mo  Mo0_0  1  0.16667200  0.33334350  0.04356800  1
  Mo  Mo0_1  1  0.16667200  0.33334350  0.54356800  1
  Mo  Mo0_2  1  0.16667200  0.83334350  0.04356800  1
  Mo  Mo0_3  1  0.16667200  0.83334350  0.54356800  1
  Mo  Mo0_4  1  0.66667200  0.33334350  0.04356800  1
  Mo  Mo0_5  1  0.66667200  0.33334350  0.54356800  1
  Mo  Mo0_6  1  0.66667200  0.83334350  0.04356800  1
  Mo  Mo0_7  1  0.66667200  0.83334350  0.54356800  1
  Mo  Mo1_0  1  0.16668000  0.33336000  0.23475250  1
  Mo  Mo1_1  1  0.16668000  0.33336000  0.73475250  1
  Mo  Mo1_2  1  0.16668000  0.83336000  0.23475250  1
  Mo  Mo1_3  1  0.16668000  0.83336000  0.73475250  1
  Mo  Mo1_4  1  0.66668000  0.33336000  0.23475250  1
  Mo  Mo1_5  1  0.66668000  0.33336000  0.73475250  1
  Mo  Mo1_6  1  0.66668000  0.83336000  0.23475250  1
  Mo  Mo1_7  1  0.66668000  0.83336000  0.73475250  1
  W  W0_0  1  0.33331850  0.16663800  0.14582600  1
  W  W0_1  1  0.33331850  0.16663800  0.64582600  1
  W  W0_2  1  0.33331850  0.66663800  0.14582600  1
  W  W0_3  1  0.33331850  0.66663800  0.64582600  1
  W  W0_4  1  0.83331850  0.16663800  0.14582600  1
  W  W0_5  1  0.83331850  0.16663800  0.64582600  1
  W  W0_6  1  0.83331850  0.66663800  0.14582600  1
  W  W0_7  1  0.83331850  0.66663800  0.64582600  1
  W  W1_0  1  0.33332650  0.16665200  0.32880050  1
  W  W1_1  1  0.33332650  0.16665200  0.82880050  1
  W  W1_2  1  0.33332650  0.66665200  0.32880050  1
  W  W1_3  1  0.33332650  0.66665200  0.82880050  1
  W  W1_4  1  0.83332650  0.16665200  0.32880050  1
  W  W1_5  1  0.83332650  0.16665200  0.82880050  1
  W  W1_6  1  0.83332650  0.66665200  0.32880050  1
  W  W1_7  1  0.83332650  0.66665200  0.82880050  1
  Se  Se0_0  1  0.16666650  0.33333150  0.34674750  1
  Se  Se0_1  1  0.16666650  0.33333150  0.84674750  1
  Se  Se0_2  1  0.16666650  0.83333150  0.34674750  1
  Se  Se0_3  1  0.16666650  0.83333150  0.84674750  1
  Se  Se0_4  1  0.66666650  0.33333150  0.34674750  1
  Se  Se0_5  1  0.66666650  0.33333150  0.84674750  1
  Se  Se0_6  1  0.66666650  0.83333150  0.34674750  1
  Se  Se0_7  1  0.66666650  0.83333150  0.84674750  1
  Se  Se1_0  1  0.33334300  0.16668850  0.21688400  1
  Se  Se1_1  1  0.33334300  0.16668850  0.71688400  1
  Se  Se1_2  1  0.33334300  0.66668850  0.21688400  1
  Se  Se1_3  1  0.33334300  0.66668850  0.71688400  1
  Se  Se1_4  1  0.83334300  0.16668850  0.21688400  1
  Se  Se1_5  1  0.83334300  0.16668850  0.71688400  1
  Se  Se1_6  1  0.83334300  0.66668850  0.21688400  1
  Se  Se1_7  1  0.83334300  0.66668850  0.71688400  1
  Se  Se2_0  1  0.33334800  0.16669600  0.25262350  1
  Se  Se2_1  1  0.33334800  0.16669600  0.75262350  1
  Se  Se2_2  1  0.33334800  0.66669600  0.25262350  1
  Se  Se2_3  1  0.33334800  0.66669600  0.75262350  1
  Se  Se2_4  1  0.83334800  0.16669600  0.25262350  1
  Se  Se2_5  1  0.83334800  0.16669600  0.75262350  1
  Se  Se2_6  1  0.83334800  0.66669600  0.25262350  1
  Se  Se2_7  1  0.83334800  0.66669600  0.75262350  1
  Se  Se3_0  1  0.16665450  0.33330950  0.31083900  1
  Se  Se3_1  1  0.16665450  0.33330950  0.81083900  1
  Se  Se3_2  1  0.16665450  0.83330950  0.31083900  1
  Se  Se3_3  1  0.16665450  0.83330950  0.81083900  1
  Se  Se3_4  1  0.66665450  0.33330950  0.31083900  1
  Se  Se3_5  1  0.66665450  0.33330950  0.81083900  1
  Se  Se3_6  1  0.66665450  0.83330950  0.31083900  1
  Se  Se3_7  1  0.66665450  0.83330950  0.81083900  1
  S  S0_0  1  0.16665600  0.33331500  0.16208000  1
  S  S0_1  1  0.16665600  0.33331500  0.66208000  1
  S  S0_2  1  0.16665600  0.83331500  0.16208000  1
  S  S0_3  1  0.16665600  0.83331500  0.66208000  1
  S  S0_4  1  0.66665600  0.33331500  0.16208000  1
  S  S0_5  1  0.66665600  0.33331500  0.66208000  1
  S  S0_6  1  0.66665600  0.83331500  0.16208000  1
  S  S0_7  1  0.66665600  0.83331500  0.66208000  1
  S  S1_0  1  0.16665150  0.33330400  0.12943200  1
  S  S1_1  1  0.16665150  0.33330400  0.62943200  1
  S  S1_2  1  0.16665150  0.83330400  0.12943200  1
  S  S1_3  1  0.16665150  0.83330400  0.62943200  1
  S  S1_4  1  0.66665150  0.33330400  0.12943200  1
  S  S1_5  1  0.66665150  0.33330400  0.62943200  1
  S  S1_6  1  0.66665150  0.83330400  0.12943200  1
  S  S1_7  1  0.66665150  0.83330400  0.62943200  1
loop_
_geom_bond_atom_site_label_1
_geom_bond_atom_site_label_2
_geom_bond_distance
_geom_bond_site_symmetry_2
Mg0_0 Mg0_2 3.334560 1_545
Mg0_0 Mg0_2 3.334560 1_555
Mg0_0 Mg0_6 3.334562 1_445
Mg0_0 Mg0_6 3.334562 1_555
Mg0_0 Mg0_4 3.334564 1_455
Mg0_0 Mg0_4 3.334564 1_555
Mg0_0 Te1_6 3.487621 1_445
Mg0_0 Te1_0 3.487720 1_555
Mg0_0 Te1_4 3.487725 1_455
Mg0_1 Mg0_3 3.334560 1_545
Mg0_1 Mg0_3 3.334560 1_555
Mg0_1 Mg0_7 3.334562 1_445
Mg0_1 Mg0_7 3.334562 1_555
Mg0_1 Mg0_5 3.334564 1_455
Mg0_1 Mg0_5 3.334564 1_555
Mg0_1 Te1_7 3.487621 1_445
Mg0_1 Te1_1 3.487720 1_555
Mg0_1 Te1_5 3.487725 1_455
Mg0_2 Mg0_4 3.334562 1_455
Mg0_2 Mg0_4 3.334562 1_565
Mg0_2 Mg0_6 3.334564 1_455
Mg0_2 Mg0_6 3.334564 1_555
Mg0_2 Te1_4 3.487621 1_455
Mg0_2 Te1_2 3.487720 1_555
Mg0_2 Te1_6 3.487725 1_455
Mg0_3 Mg0_5 3.334562 1_455
Mg0_3 Mg0_5 3.334562 1_565
Mg0_3 Mg0_7 3.334564 1_455
Mg0_3 Mg0_7 3.334564 1_555
Mg0_3 Te1_5 3.487621 1_455
Mg0_3 Te1_3 3.487720 1_555
Mg0_3 Te1_7 3.487725 1_455
Mg0_4 Mg0_6 3.334560 1_555
Mg0_4 Mg0_6 3.334560 1_545
Mg0_4 Te1_2 3.487621 1_545
Mg0_4 Te1_4 3.487720 1_555
Mg0_4 Te1_0 3.487725 1_555
Mg0_5 Mg0_7 3.334560 1_545
Mg0_5 Mg0_7 3.334560 1_555
Mg0_5 Te1_3 3.487621 1_545
Mg0_5 Te1_5 3.487720 1_555
Mg0_5 Te1_1 3.487725 1_555
Mg0_6 Te1_0 3.487621 1_555
Mg0_6 Te1_6 3.487720 1_555
Mg0_6 Te1_2 3.487725 1_555
Mg0_7 Te1_1 3.487621 1_555
Mg0_7 Te1_7 3.487720 1_555
Mg0_7 Te1_3 3.487725 1_555
Mo0_0 Te0_0 2.701867 1_555
Mo0_0 Te0_4 2.701869 1_455
Mo0_0 Te0_2 2.701880 1_555
Mo0_0 Te1_2 2.719283 1_555
Mo0_0 Te1_0 2.719308 1_555
Mo0_0 Te1_4 2.719315 1_455
Mo0_1 Te0_1 2.701867 1_555
Mo0_1 Te0_5 2.701869 1_455
Mo0_1 Te0_3 2.701880 1_555
Mo0_1 Te1_3 2.719283 1_555
Mo0_1 Te1_1 2.719308 1_555
Mo0_1 Te1_5 2.719315 1_455
Mo0_2 Te0_2 2.701867 1_555
Mo0_2 Te0_6 2.701869 1_455
Mo0_2 Te0_0 2.701880 1_565
Mo0_2 Te1_0 2.719283 1_565
Mo0_2 Te1_2 2.719308 1_555
Mo0_2 Te1_6 2.719315 1_455
Mo0_3 Te0_3 2.701867 1_555
Mo0_3 Te0_7 2.701869 1_455
Mo0_3 Te0_1 2.701880 1_565
Mo0_3 Te1_1 2.719283 1_565
Mo0_3 Te1_3 2.719308 1_555
Mo0_3 Te1_7 2.719315 1_455
Mo0_4 Te0_4 2.701867 1_555
Mo0_4 Te0_0 2.701869 1_555
Mo0_4 Te0_6 2.701880 1_555
Mo0_4 Te1_6 2.719283 1_555
Mo0_4 Te1_4 2.719308 1_555
Mo0_4 Te1_0 2.719315 1_555
Mo0_5 Te0_5 2.701867 1_555
Mo0_5 Te0_1 2.701869 1_555
Mo0_5 Te0_7 2.701880 1_555
Mo0_5 Te1_7 2.719283 1_555
Mo0_5 Te1_5 2.719308 1_555
Mo0_5 Te1_1 2.719315 1_555
Mo0_6 Te0_6 2.701867 1_555
Mo0_6 Te0_2 2.701869 1_555
Mo0_6 Te0_4 2.701880 1_565
Mo0_6 Te1_4 2.719283 1_565
Mo0_6 Te1_6 2.719308 1_555
Mo0_6 Te1_2 2.719315 1_555
Mo0_7 Te0_7 2.701867 1_555
Mo0_7 Te0_3 2.701869 1_555
Mo0_7 Te0_5 2.701880 1_565
Mo0_7 Te1_5 2.719283 1_565
Mo0_7 Te1_7 2.719308 1_555
Mo0_7 Te1_3 2.719315 1_555
Mo1_0 Se1_0 2.548307 1_555
Mo1_0 Se1_4 2.548314 1_455
Mo1_0 Se1_2 2.548340 1_555
Mo1_0 Se2_2 2.548442 1_555
Mo1_0 Se2_0 2.548486 1_555
Mo1_0 Se2_4 2.548492 1_455
Mo1_1 Se1_1 2.548307 1_555
Mo1_1 Se1_5 2.548314 1_455
Mo1_1 Se1_3 2.548340 1_555
Mo1_1 Se2_3 2.548442 1_555
Mo1_1 Se2_1 2.548486 1_555
Mo1_1 Se2_5 2.548492 1_455
Mo1_2 Se1_2 2.548307 1_555
Mo1_2 Se1_6 2.548314 1_455
Mo1_2 Se1_0 2.548340 1_565
Mo1_2 Se2_0 2.548442 1_565
Mo1_2 Se2_2 2.548486 1_555
Mo1_2 Se2_6 2.548492 1_455
Mo1_3 Se1_3 2.548307 1_555
Mo1_3 Se1_7 2.548314 1_455
Mo1_3 Se1_1 2.548340 1_565
Mo1_3 Se2_1 2.548442 1_565
Mo1_3 Se2_3 2.548486 1_555
Mo1_3 Se2_7 2.548492 1_455
Mo1_4 Se1_4 2.548307 1_555
Mo1_4 Se1_0 2.548314 1_555
Mo1_4 Se1_6 2.548340 1_555
Mo1_4 Se2_6 2.548442 1_555
Mo1_4 Se2_4 2.548486 1_555
Mo1_4 Se2_0 2.548492 1_555
Mo1_5 Se1_5 2.548307 1_555
Mo1_5 Se1_1 2.548314 1_555
Mo1_5 Se1_7 2.548340 1_555
Mo1_5 Se2_7 2.548442 1_555
Mo1_5 Se2_5 2.548486 1_555
Mo1_5 Se2_1 2.548492 1_555
Mo1_6 Se1_6 2.548307 1_555
Mo1_6 Se1_2 2.548314 1_555
Mo1_6 Se1_4 2.548340 1_565
Mo1_6 Se2_4 2.548442 1_565
Mo1_6 Se2_6 2.548486 1_555
Mo1_6 Se2_2 2.548492 1_555
Mo1_7 Se1_7 2.548307 1_555
Mo1_7 Se1_3 2.548314 1_555
Mo1_7 Se1_5 2.548340 1_565
Mo1_7 Se2_5 2.548442 1_565
Mo1_7 Se2_7 2.548486 1_555
Mo1_7 Se2_3 2.548492 1_555
Se0_0 W1_2 2.553117 1_555
Se0_0 W1_4 2.553138 1_455
Se0_0 W1_0 2.553141 1_555
Se0_1 W1_3 2.553117 1_555
Se0_1 W1_5 2.553138 1_455
Se0_1 W1_1 2.553141 1_555
Se0_2 W1_0 2.553117 1_565
Se0_2 W1_6 2.553138 1_455
Se0_2 W1_2 2.553141 1_555
Se0_3 W1_1 2.553117 1_565
Se0_3 W1_7 2.553138 1_455
Se0_3 W1_3 2.553141 1_555
Se0_4 W1_6 2.553117 1_555
Se0_4 W1_0 2.553138 1_555
Se0_4 W1_4 2.553141 1_555
Se0_5 W1_7 2.553117 1_555
Se0_5 W1_1 2.553138 1_555
Se0_5 W1_5 2.553141 1_555
Se0_6 W1_4 2.553117 1_565
Se0_6 W1_2 2.553138 1_555
Se0_6 W1_6 2.553141 1_555
Se0_7 W1_5 2.553117 1_565
Se0_7 W1_3 2.553138 1_555
Se0_7 W1_7 2.553141 1_555
Se3_0 W1_2 2.554019 1_555
Se3_0 W1_4 2.554024 1_455
Se3_0 W1_0 2.554024 1_555
Se3_1 W1_3 2.554019 1_555
Se3_1 W1_5 2.554024 1_455
Se3_1 W1_1 2.554024 1_555
Se3_2 W1_0 2.554019 1_565
Se3_2 W1_6 2.554024 1_455
Se3_2 W1_2 2.554024 1_555
Se3_3 W1_1 2.554019 1_565
Se3_3 W1_7 2.554024 1_455
Se3_3 W1_3 2.554024 1_555
Se3_4 W1_6 2.554019 1_555
Se3_4 W1_0 2.554024 1_555
Se3_4 W1_4 2.554024 1_555
Se3_5 W1_7 2.554019 1_555
Se3_5 W1_1 2.554024 1_555
Se3_5 W1_5 2.554024 1_555
Se3_6 W1_4 2.554019 1_565
Se3_6 W1_2 2.554024 1_555
Se3_6 W1_6 2.554024 1_555
Se3_7 W1_5 2.554019 1_565
Se3_7 W1_3 2.554024 1_555
Se3_7 W1_7 2.554024 1_555
S0_0 W0_2 2.452127 1_555
S0_0 W0_4 2.452133 1_455
S0_0 W0_0 2.452146 1_555
S0_1 W0_3 2.452127 1_555
S0_1 W0_5 2.452133 1_455
S0_1 W0_1 2.452146 1_555
S0_2 W0_0 2.452127 1_565
S0_2 W0_6 2.452133 1_455
S0_2 W0_2 2.452146 1_555
S0_3 W0_1 2.452127 1_565
S0_3 W0_7 2.452133 1_455
S0_3 W0_3 2.452146 1_555
S0_4 W0_6 2.452127 1_555
S0_4 W0_0 2.452133 1_555
S0_4 W0_4 2.452146 1_555
S0_5 W0_7 2.452127 1_555
S0_5 W0_1 2.452133 1_555
S0_5 W0_5 2.452146 1_555
S0_6 W0_4 2.452127 1_565
S0_6 W0_2 2.452133 1_555
S0_6 W0_6 2.452146 1_555
S0_7 W0_5 2.452127 1_565
S0_7 W0_3 2.452133 1_555
S0_7 W0_7 2.452146 1_555
S1_0 W0_2 2.460221 1_555
S1_0 W0_0 2.460274 1_555
S1_0 W0_4 2.460280 1_455
S1_1 W0_3 2.460221 1_555
S1_1 W0_1 2.460274 1_555
S1_1 W0_5 2.460280 1_455
S1_2 W0_0 2.460221 1_565
S1_2 W0_2 2.460274 1_555
S1_2 W0_6 2.460280 1_455
S1_3 W0_1 2.460221 1_565
S1_3 W0_3 2.460274 1_555
S1_3 W0_7 2.460280 1_455
S1_4 W0_6 2.460221 1_555
S1_4 W0_4 2.460274 1_555
S1_4 W0_0 2.460280 1_555
S1_5 W0_7 2.460221 1_555
S1_5 W0_5 2.460274 1_555
S1_5 W0_1 2.460280 1_555
S1_6 W0_4 2.460221 1_565
S1_6 W0_6 2.460274 1_555
S1_6 W0_2 2.460280 1_555
S1_7 W0_5 2.460221 1_565
S1_7 W0_7 2.460274 1_555
S1_7 W0_3 2.460280 1_555
