# generated using pymatgen
data_NaTaSiGe(PO6)2
_symmetry_space_group_name_H-M   'P 1'
_cell_length_a   8.63253321
_cell_length_b   8.62451237
_cell_length_c   22.24997240
_cell_angle_alpha   90.43976087
_cell_angle_beta   90.00000000
_cell_angle_gamma   120.03076911
_symmetry_Int_Tables_number   1
_chemical_formula_structural   NaTaSiGe(PO6)2
_chemical_formula_sum   'Na6 Ta6 Si6 Ge6 P12 O72'
_cell_volume   1434.10553518
_cell_formula_units_Z   6
loop_
 _symmetry_equiv_pos_site_id
 _symmetry_equiv_pos_as_xyz
  1  'x, y, z'
loop_
 _atom_site_type_symbol
 _atom_site_label
 _atom_site_symmetry_multiplicity
 _atom_site_fract_x
 _atom_site_fract_y
 _atom_site_fract_z
 _atom_site_occupancy
  Na  Na0  1  0.00089402  0.00573932  0.49527068  1
  Na  Na1  1  0.00484530  0.00573932  0.99527068  1
  Na  Na2  1  0.67108473  0.33529032  0.82882177  1
  Na  Na3  1  0.66420659  0.33529032  0.32882177  1
  Na  Na4  1  0.33739959  0.66789604  0.16195674  1
  Na  Na5  1  0.33049544  0.66789604  0.66195674  1
  Ta  Ta0  1  0.00227142  0.00027616  0.64239195  1
  Ta  Ta1  1  0.99800475  0.00027616  0.14239195  1
  Ta  Ta2  1  0.66427236  0.33218805  0.97588312  1
  Ta  Ta3  1  0.66791669  0.33218805  0.47588312  1
  Ta  Ta4  1  0.33584847  0.66251986  0.30904739  1
  Ta  Ta5  1  0.32667039  0.66251986  0.80904739  1
  Si  Si0  1  0.72419900  0.71013215  0.25148534  1
  Si  Si1  1  0.98593315  0.71013215  0.75148534  1
  Si  Si2  1  0.96018942  0.34713012  0.58447102  1
  Si  Si3  1  0.38694170  0.34713012  0.08447102  1
  Si  Si4  1  0.05218445  0.37076470  0.91712194  1
  Si  Si5  1  0.31857925  0.37076470  0.41712194  1
  Ge  Ge0  1  0.00087446  0.99937133  0.35362798  1
  Ge  Ge1  1  0.99849687  0.99937133  0.85362798  1
  Ge  Ge2  1  0.67586350  0.33986044  0.68733739  1
  Ge  Ge3  1  0.66399794  0.33986044  0.18733739  1
  Ge  Ge4  1  0.33151981  0.65676158  0.02038562  1
  Ge  Ge5  1  0.32524077  0.65676158  0.52038562  1
  P  P0  1  0.29048864  0.01045296  0.25073528  1
  P  P1  1  0.98426693  0.27800065  0.25050858  1
  P  P2  1  0.29373372  0.27800065  0.75050858  1
  P  P3  1  0.71996432  0.01045296  0.75073528  1
  P  P4  1  0.39135846  0.04489414  0.58418044  1
  P  P5  1  0.65397408  0.61229887  0.58459422  1
  P  P6  1  0.95832579  0.61229887  0.08459422  1
  P  P7  1  0.65353668  0.04489414  0.08418044  1
  P  P8  1  0.62378094  0.67887588  0.91777225  1
  P  P9  1  0.32147500  0.94160005  0.91862234  1
  P  P10  1  0.62012404  0.94160005  0.41862234  1
  P  P11  1  0.05509394  0.67887588  0.41777225  1
  O  O0  1  0.20925186  0.04450476  0.30757227  1
  O  O1  1  0.84355374  0.80392562  0.31125266  1
  O  O2  1  0.95917504  0.16776362  0.30722197  1
  O  O3  1  0.20858857  0.16776362  0.80722197  1
  O  O4  1  0.96037188  0.80392562  0.81125266  1
  O  O5  1  0.83525290  0.04450476  0.80757227  1
  O  O6  1  0.80563457  0.98027110  0.69404265  1
  O  O7  1  0.17466157  0.20065511  0.69392509  1
  O  O8  1  0.02342562  0.83215585  0.69207319  1
  O  O9  1  0.80873023  0.83215585  0.19207319  1
  O  O10  1  0.02599353  0.20065511  0.19392509  1
  O  O11  1  0.17463653  0.98027110  0.19404265  1
  O  O12  1  0.86782549  0.37506420  0.64393071  1
  O  O13  1  0.50213284  0.13167540  0.64129469  1
  O  O14  1  0.62170473  0.49860962  0.64105714  1
  O  O15  1  0.87690590  0.49860962  0.14105714  1
  O  O16  1  0.62954357  0.13167540  0.14129469  1
  O  O17  1  0.50723972  0.37506420  0.14393071  1
  O  O18  1  0.47262875  0.30931574  0.02470816  1
  O  O19  1  0.84214687  0.52837334  0.02780647  1
  O  O20  1  0.69213939  0.16181670  0.02770650  1
  O  O21  1  0.46967831  0.16181670  0.52770650  1
  O  O22  1  0.68622746  0.52837334  0.52780647  1
  O  O23  1  0.83668798  0.30931574  0.52470816  1
  O  O24  1  0.54139560  0.70987291  0.97478208  1
  O  O25  1  0.17332652  0.46238549  0.97663588  1
  O  O26  1  0.29763647  0.83030221  0.97496664  1
  O  O27  1  0.53266474  0.83030221  0.47496664  1
  O  O28  1  0.28905798  0.46238549  0.47663588  1
  O  O29  1  0.16847631  0.70987291  0.47478208  1
  O  O30  1  0.13647397  0.64526557  0.36112571  1
  O  O31  1  0.50397380  0.86222664  0.36137187  1
  O  O32  1  0.35530396  0.49515489  0.35773459  1
  O  O33  1  0.13984993  0.49515489  0.85773459  1
  O  O34  1  0.35825184  0.86222664  0.86137187  1
  O  O35  1  0.50879060  0.64526557  0.86112571  1
  O  O36  1  0.03160661  0.84291404  0.41125723  1
  O  O37  1  0.80568077  0.96226556  0.41116370  1
  O  O38  1  0.14192096  0.17539382  0.40759388  1
  O  O39  1  0.03347286  0.17539382  0.90759388  1
  O  O40  1  0.15658479  0.96226556  0.91116370  1
  O  O41  1  0.81130742  0.84291404  0.91125723  1
  O  O42  1  0.98081347  0.16815205  0.58967011  1
  O  O43  1  0.20125775  0.02402990  0.58981471  1
  O  O44  1  0.82734976  0.79936966  0.58984959  1
  O  O45  1  0.97201990  0.79936966  0.08984959  1
  O  O46  1  0.82277215  0.02402990  0.08981471  1
  O  O47  1  0.18733858  0.16815205  0.08967011  1
  O  O48  1  0.69206717  0.17147431  0.74319764  1
  O  O49  1  0.47622480  0.29265459  0.74151373  1
  O  O50  1  0.80926807  0.51352786  0.74453812  1
  O  O51  1  0.70426079  0.51352786  0.24453812  1
  O  O52  1  0.81643079  0.29265459  0.24151373  1
  O  O53  1  0.47940815  0.17147431  0.24319764  1
  O  O54  1  0.64088227  0.50726365  0.92338188  1
  O  O55  1  0.85388946  0.35169794  0.92266662  1
  O  O56  1  0.49242316  0.13093784  0.92344766  1
  O  O57  1  0.63851568  0.13093784  0.42344766  1
  O  O58  1  0.49780947  0.35169794  0.42266662  1
  O  O59  1  0.86638238  0.50726365  0.42338188  1
  O  O60  1  0.37071130  0.52572386  0.07729809  1
  O  O61  1  0.14752671  0.64157968  0.07669213  1
  O  O62  1  0.48605284  0.86069841  0.07544234  1
  O  O63  1  0.37464457  0.86069841  0.57544234  1
  O  O64  1  0.49405197  0.64157968  0.57669213  1
  O  O65  1  0.15501157  0.52572386  0.57729809  1
  O  O66  1  0.30208367  0.83695728  0.25653132  1
  O  O67  1  0.52450966  0.69204720  0.25618173  1
  O  O68  1  0.15137923  0.46992096  0.25633719  1
  O  O69  1  0.31854073  0.46992096  0.75633719  1
  O  O70  1  0.16753654  0.69204720  0.75618173  1
  O  O71  1  0.53487261  0.83695728  0.75653132  1
loop_
_geom_bond_atom_site_label_1
_geom_bond_atom_site_label_2
_geom_bond_distance
_geom_bond_site_symmetry_2
Na0 O38 2.385271 1_555
Na0 O37 2.416461 1_445
Na0 O36 2.422593 1_545
Na0 O42 2.569355 1_455
Na0 O43 2.676473 1_555
Na0 O44 2.688718 1_445
Na1 O39 2.385271 1_555
Na1 O40 2.416461 1_545
Na1 O41 2.422593 1_445
Na1 O47 2.569355 1_556
Na1 O46 2.676473 1_456
Na1 O45 2.688718 1_446
Na2 O50 2.347679 1_555
Na2 O48 2.423484 1_555
Na2 O49 2.471519 1_555
Na2 O55 2.577247 1_555
Na2 O54 2.652098 1_555
Na2 O56 2.693310 1_555
Na3 O51 2.347679 1_555
Na3 O53 2.423484 1_555
Na3 O52 2.471519 1_555
Na3 O58 2.577247 1_555
Na3 O59 2.652098 1_555
Na3 O57 2.693310 1_555
Na4 O60 2.334909 1_555
Na4 O61 2.440955 1_555
Na4 O62 2.455699 1_555
Na4 O67 2.589254 1_555
Na4 O66 2.654194 1_555
Na4 O68 2.685984 1_555
Na5 O65 2.334909 1_555
Na5 O64 2.440955 1_555
Na5 O63 2.455699 1_555
Na5 O70 2.589254 1_555
Na5 O71 2.654194 1_555
Na5 O69 2.685984 1_555
Ge0 O1 1.805252 1_455
Ge0 O38 1.830524 1_565
Ge0 O0 1.934593 1_565
Ge0 O2 1.962441 1_465
Ge0 O36 1.979953 1_555
Ge0 O37 2.011733 1_455
Ge1 O4 1.805252 1_555
Ge1 O39 1.830524 1_665
Ge1 O5 1.934593 1_565
Ge1 O3 1.962441 1_665
Ge1 O41 1.979953 1_555
Ge1 O40 2.011733 1_655
Ge2 O12 1.808838 1_555
Ge2 O50 1.853016 1_555
Ge2 O13 1.949101 1_555
Ge2 O14 1.953409 1_555
Ge2 O49 1.973348 1_555
Ge2 O48 1.975955 1_555
Ge3 O17 1.808838 1_555
Ge3 O51 1.853016 1_555
Ge3 O16 1.949101 1_555
Ge3 O15 1.953409 1_555
Ge3 O52 1.973348 1_555
Ge3 O53 1.975955 1_555
Ge4 O25 1.818319 1_554
Ge4 O60 1.843871 1_555
Ge4 O24 1.923105 1_554
Ge4 O26 1.951497 1_554
Ge4 O61 1.975812 1_555
Ge4 O62 1.998054 1_555
Ge5 O28 1.818319 1_555
Ge5 O65 1.843871 1_555
Ge5 O29 1.923105 1_555
Ge5 O27 1.951497 1_555
Ge5 O64 1.975812 1_555
Ge5 O63 1.998054 1_555
O0 P0 1.541996 1_555
O1 Si0 1.622843 1_555
O2 P1 1.534742 1_555
O3 P2 1.534742 1_555
O4 Si1 1.622843 1_555
O5 P3 1.541996 1_555
O6 P3 1.547092 1_565
O6 Ta0 1.985399 1_665
O7 P2 1.545113 1_555
O7 Ta0 1.977704 1_555
O8 Si1 1.624864 1_455
O8 Ta0 1.909784 1_565
O9 Si0 1.624864 1_555
O9 Ta1 1.909784 1_565
O10 P1 1.545113 1_455
O10 Ta1 1.977704 1_455
O11 P0 1.547092 1_565
O11 Ta1 1.985399 1_465
O12 Si2 1.622168 1_555
O13 P4 1.535755 1_555
O14 P5 1.537143 1_555
O15 P6 1.537143 1_555
O16 P7 1.535755 1_555
O17 Si3 1.622168 1_555
O18 Si3 1.629870 1_555
O18 Ta2 1.905954 1_554
O19 P6 1.544542 1_555
O19 Ta2 1.981124 1_554
O20 P7 1.545937 1_555
O20 Ta2 1.981489 1_554
O21 P4 1.545937 1_555
O21 Ta3 1.981489 1_555
O22 P5 1.544542 1_555
O22 Ta3 1.981124 1_555
O23 Si2 1.629870 1_555
O23 Ta3 1.905954 1_555
O24 P8 1.539926 1_555
O25 Si4 1.621203 1_555
O26 P9 1.534977 1_555
O27 P10 1.534977 1_555
O28 Si5 1.621203 1_555
O29 P11 1.539926 1_555
O30 P11 1.537642 1_555
O30 Ta4 2.018248 1_555
O31 P10 1.547960 1_555
O31 Ta4 1.973706 1_555
O32 Si5 1.636693 1_555
O32 Ta4 1.884648 1_555
O33 Si4 1.636693 1_555
O33 Ta5 1.884648 1_555
O34 P9 1.547960 1_555
O34 Ta5 1.973706 1_555
O35 P8 1.537642 1_555
O35 Ta5 2.018248 1_555
O36 P11 1.534243 1_555
O37 P10 1.529655 1_555
O38 Si5 1.622426 1_555
O39 Si4 1.622430 1_555
O40 P9 1.529646 1_555
O41 P8 1.534248 1_555
O42 Si2 1.644868 1_555
O42 Ta0 1.949656 1_655
O43 P4 1.563943 1_555
O43 Ta0 2.003155 1_555
O44 P5 1.561050 1_555
O44 Ta0 1.999805 1_665
O45 P6 1.561054 1_555
O45 Ta1 1.999805 1_565
O46 P7 1.563934 1_555
O46 Ta1 2.003155 1_555
O47 Si3 1.644873 1_555
O47 Ta1 1.949656 1_455
O48 P3 1.533956 1_555
O49 P2 1.529343 1_555
O50 Si1 1.622492 1_555
O51 Si0 1.622496 1_555
O52 P1 1.529335 1_555
O53 P0 1.533961 1_555
O54 P8 1.565095 1_555
O54 Ta2 2.004373 1_555
O55 Si4 1.640439 1_655
O55 Ta2 1.958842 1_555
O56 P9 1.562396 1_545
O56 Ta2 1.991522 1_555
O57 P10 1.562388 1_545
O57 Ta3 1.991522 1_555
O58 Si5 1.640456 1_555
O58 Ta3 1.958842 1_555
O59 P11 1.565086 1_655
O59 Ta3 2.004373 1_555
O60 Si3 1.623995 1_555
O61 P6 1.533017 1_455
O62 P7 1.532359 1_565
O63 P4 1.532351 1_565
O64 P5 1.533034 1_555
O65 Si2 1.623985 1_455
O66 P0 1.555148 1_565
O66 Ta4 2.044392 1_555
O67 Si0 1.654674 1_555
O67 Ta4 1.921021 1_555
O68 P1 1.563436 1_455
O68 Ta4 1.998239 1_555
O69 P2 1.563439 1_555
O69 Ta5 1.998239 1_555
O70 Si1 1.654666 1_455
O70 Ta5 1.921021 1_555
O71 P3 1.555153 1_565
O71 Ta5 2.044392 1_555
