# generated using pymatgen
data_MgTi2(NiO3)2
_symmetry_space_group_name_H-M   'P 1'
_cell_length_a   5.42967372
_cell_length_b   5.79400813
_cell_length_c   5.31739998
_cell_angle_alpha   125.23276550
_cell_angle_beta   70.16697449
_cell_angle_gamma   121.80233623
_symmetry_Int_Tables_number   1
_chemical_formula_structural   MgTi2(NiO3)2
_chemical_formula_sum   'Mg1 Ti2 Ni2 O6'
_cell_volume   115.97599476
_cell_formula_units_Z   1
loop_
 _symmetry_equiv_pos_site_id
 _symmetry_equiv_pos_as_xyz
  1  'x, y, z'
loop_
 _atom_site_type_symbol
 _atom_site_label
 _atom_site_symmetry_multiplicity
 _atom_site_fract_x
 _atom_site_fract_y
 _atom_site_fract_z
 _atom_site_occupancy
  Mg  Mg0  1  0.72420085  0.20098599  0.27795455  1
  Ti  Ti0  1  0.32870095  0.48179913  0.03844359  1
  Ti  Ti1  1  0.53399934  0.82056721  0.64405654  1
  Ni  Ni0  1  0.10765529  0.02901604  0.48637774  1
  Ni  Ni1  1  0.95041825  0.62523284  0.86281330  1
  O  O0  1  0.15775745  0.47045423  0.42369013  1
  O  O1  1  0.71730648  0.82431097  0.25050996  1
  O  O2  1  0.32574571  0.84359146  0.07272542  1
  O  O3  1  0.89470208  0.25041340  0.89570686  1
  O  O4  1  0.36101971  0.10453317  0.76862878  1
  O  O5  1  0.65234288  0.56570556  0.64544213  1
loop_
_geom_bond_atom_site_label_1
_geom_bond_atom_site_label_2
_geom_bond_distance
_geom_bond_site_symmetry_2
Mg0 O5 2.005854 1_555
Mg0 O3 2.045904 1_554
Mg0 O1 2.082292 1_545
Mg0 O2 2.105333 1_545
Mg0 O0 2.132579 1_655
Ni0 O2 2.059479 1_545
Ni0 O4 2.084561 1_555
Ni0 O3 2.086629 1_455
Ni0 O1 2.215811 1_445
Ni1 O2 2.048478 1_656
Ni1 O1 2.051102 1_556
Ni1 O5 2.072535 1_555
Ni1 O0 2.094785 1_655
Ni1 O3 2.132683 1_555
O0 Ti0 1.965472 1_555
O0 Ti1 2.043373 1_555
O1 Ti1 1.996637 1_555
O1 Ti0 2.069091 1_555
O2 Ti0 2.005052 1_555
O2 Ti1 2.133370 1_554
O3 Ti1 2.149687 1_545
O3 Ti0 2.153188 1_656
O4 Ti0 1.866086 1_556
O4 Ti1 1.994248 1_545
O5 Ti1 1.899828 1_555
O5 Ti0 2.339083 1_556
