# generated using pymatgen
data_MgMo(WS3)2
_symmetry_space_group_name_H-M   'P 1'
_cell_length_a   6.38045800
_cell_length_b   6.38027887
_cell_length_c   58.22581800
_cell_angle_alpha   89.99955654
_cell_angle_beta   90.00039436
_cell_angle_gamma   120.00047749
_symmetry_Int_Tables_number   1
_chemical_formula_structural   MgMo(WS3)2
_chemical_formula_sum   'Mg8 Mo8 W16 S48'
_cell_volume   2052.74808792
_cell_formula_units_Z   8
loop_
 _symmetry_equiv_pos_site_id
 _symmetry_equiv_pos_as_xyz
  1  'x, y, z'
loop_
 _atom_site_type_symbol
 _atom_site_label
 _atom_site_symmetry_multiplicity
 _atom_site_fract_x
 _atom_site_fract_y
 _atom_site_fract_z
 _atom_site_occupancy
  Mg  Mg0_0  1  0.00694450  0.49305500  0.42331750  1
  Mg  Mg0_1  1  0.00694450  0.49305500  0.92331750  1
  Mg  Mg0_2  1  0.00694450  0.99305500  0.42331750  1
  Mg  Mg0_3  1  0.00694450  0.99305500  0.92331750  1
  Mg  Mg0_4  1  0.50694450  0.49305500  0.42331750  1
  Mg  Mg0_5  1  0.50694450  0.49305500  0.92331750  1
  Mg  Mg0_6  1  0.50694450  0.99305500  0.42331750  1
  Mg  Mg0_7  1  0.50694450  0.99305500  0.92331750  1
  Mo  Mo0_0  1  0.16665500  0.33331050  0.05780650  1
  Mo  Mo0_1  1  0.16665500  0.33331050  0.55780650  1
  Mo  Mo0_2  1  0.16665500  0.83331050  0.05780650  1
  Mo  Mo0_3  1  0.16665500  0.83331050  0.55780650  1
  Mo  Mo0_4  1  0.66665500  0.33331050  0.05780650  1
  Mo  Mo0_5  1  0.66665500  0.33331050  0.55780650  1
  Mo  Mo0_6  1  0.66665500  0.83331050  0.05780650  1
  Mo  Mo0_7  1  0.66665500  0.83331050  0.55780650  1
  W  W0_0  1  0.16665500  0.33331000  0.28918350  1
  W  W0_1  1  0.16665500  0.33331000  0.78918350  1
  W  W0_2  1  0.16665500  0.83331000  0.28918350  1
  W  W0_3  1  0.16665500  0.83331000  0.78918350  1
  W  W0_4  1  0.66665500  0.33331000  0.28918350  1
  W  W0_5  1  0.66665500  0.33331000  0.78918350  1
  W  W0_6  1  0.66665500  0.83331000  0.28918350  1
  W  W0_7  1  0.66665500  0.83331000  0.78918350  1
  W  W1_0  1  0.33334550  0.16669200  0.17350450  1
  W  W1_1  1  0.33334550  0.16669200  0.67350450  1
  W  W1_2  1  0.33334550  0.66669200  0.17350450  1
  W  W1_3  1  0.33334550  0.66669200  0.67350450  1
  W  W1_4  1  0.83334550  0.16669200  0.17350450  1
  W  W1_5  1  0.83334550  0.16669200  0.67350450  1
  W  W1_6  1  0.83334550  0.66669200  0.17350450  1
  W  W1_7  1  0.83334550  0.66669200  0.67350450  1
  S  S0_0  1  0.16667800  0.33335700  0.20047900  1
  S  S0_1  1  0.16667800  0.33335700  0.70047900  1
  S  S0_2  1  0.16667800  0.83335700  0.20047900  1
  S  S0_3  1  0.16667800  0.83335700  0.70047900  1
  S  S0_4  1  0.66667800  0.33335700  0.20047900  1
  S  S0_5  1  0.66667800  0.33335700  0.70047900  1
  S  S0_6  1  0.66667800  0.83335700  0.20047900  1
  S  S0_7  1  0.66667800  0.83335700  0.70047900  1
  S  S1_0  1  0.33332050  0.16664100  0.03099650  1
  S  S1_1  1  0.33332050  0.16664100  0.53099650  1
  S  S1_2  1  0.33332050  0.66664100  0.03099650  1
  S  S1_3  1  0.33332050  0.66664100  0.53099650  1
  S  S1_4  1  0.83332050  0.16664100  0.03099650  1
  S  S1_5  1  0.83332050  0.16664100  0.53099650  1
  S  S1_6  1  0.83332050  0.66664100  0.03099650  1
  S  S1_7  1  0.83332050  0.66664100  0.53099650  1
  S  S2_0  1  0.33332150  0.16664250  0.26218800  1
  S  S2_1  1  0.33332150  0.16664250  0.76218800  1
  S  S2_2  1  0.33332150  0.66664250  0.26218800  1
  S  S2_3  1  0.33332150  0.66664250  0.76218800  1
  S  S2_4  1  0.83332150  0.16664250  0.26218800  1
  S  S2_5  1  0.83332150  0.16664250  0.76218800  1
  S  S2_6  1  0.83332150  0.66664250  0.26218800  1
  S  S2_7  1  0.83332150  0.66664250  0.76218800  1
  S  S3_0  1  0.33332050  0.16664150  0.08463350  1
  S  S3_1  1  0.33332050  0.16664150  0.58463350  1
  S  S3_2  1  0.33332050  0.66664150  0.08463350  1
  S  S3_3  1  0.33332050  0.66664150  0.58463350  1
  S  S3_4  1  0.83332050  0.16664150  0.08463350  1
  S  S3_5  1  0.83332050  0.16664150  0.58463350  1
  S  S3_6  1  0.83332050  0.66664150  0.08463350  1
  S  S3_7  1  0.83332050  0.66664150  0.58463350  1
  S  S4_0  1  0.33332150  0.16664250  0.31615850  1
  S  S4_1  1  0.33332150  0.16664250  0.81615850  1
  S  S4_2  1  0.33332150  0.66664250  0.31615850  1
  S  S4_3  1  0.33332150  0.66664250  0.81615850  1
  S  S4_4  1  0.83332150  0.16664250  0.31615850  1
  S  S4_5  1  0.83332150  0.16664250  0.81615850  1
  S  S4_6  1  0.83332150  0.66664250  0.31615850  1
  S  S4_7  1  0.83332150  0.66664250  0.81615850  1
  S  S5_0  1  0.16668200  0.33336500  0.14651550  1
  S  S5_1  1  0.16668200  0.33336500  0.64651550  1
  S  S5_2  1  0.16668200  0.83336500  0.14651550  1
  S  S5_3  1  0.16668200  0.83336500  0.64651550  1
  S  S5_4  1  0.66668200  0.33336500  0.14651550  1
  S  S5_5  1  0.66668200  0.33336500  0.64651550  1
  S  S5_6  1  0.66668200  0.83336500  0.14651550  1
  S  S5_7  1  0.66668200  0.83336500  0.64651550  1
loop_
_geom_bond_atom_site_label_1
_geom_bond_atom_site_label_2
_geom_bond_distance
_geom_bond_site_symmetry_2
Mg0_0 Mg0_2 3.190139 1_545
Mg0_0 Mg0_2 3.190139 1_555
Mg0_0 Mg0_6 3.190161 1_445
Mg0_0 Mg0_6 3.190161 1_555
Mg0_0 Mg0_4 3.190229 1_455
Mg0_0 Mg0_4 3.190229 1_555
Mg0_1 Mg0_3 3.190139 1_545
Mg0_1 Mg0_3 3.190139 1_555
Mg0_1 Mg0_7 3.190161 1_445
Mg0_1 Mg0_7 3.190161 1_555
Mg0_1 Mg0_5 3.190229 1_555
Mg0_1 Mg0_5 3.190229 1_455
Mg0_2 Mg0_4 3.190161 1_455
Mg0_2 Mg0_4 3.190161 1_565
Mg0_2 Mg0_6 3.190229 1_455
Mg0_2 Mg0_6 3.190229 1_555
Mg0_3 Mg0_5 3.190161 1_565
Mg0_3 Mg0_5 3.190161 1_455
Mg0_3 Mg0_7 3.190229 1_555
Mg0_3 Mg0_7 3.190229 1_455
Mg0_4 Mg0_6 3.190139 1_545
Mg0_4 Mg0_6 3.190139 1_555
Mg0_5 Mg0_7 3.190139 1_555
Mg0_5 Mg0_7 3.190139 1_545
Mo0_0 S1_2 2.414340 1_555
Mo0_0 S1_4 2.414398 1_455
Mo0_0 S1_0 2.414405 1_555
Mo0_0 S3_2 2.414994 1_555
Mo0_0 S3_0 2.415023 1_555
Mo0_0 S3_4 2.415047 1_455
Mo0_1 S1_3 2.414340 1_555
Mo0_1 S1_5 2.414398 1_455
Mo0_1 S1_1 2.414405 1_555
Mo0_1 S3_3 2.414994 1_555
Mo0_1 S3_1 2.415023 1_555
Mo0_1 S3_5 2.415047 1_455
Mo0_2 S1_0 2.414340 1_565
Mo0_2 S1_6 2.414398 1_455
Mo0_2 S1_2 2.414405 1_555
Mo0_2 S3_0 2.414994 1_565
Mo0_2 S3_2 2.415023 1_555
Mo0_2 S3_6 2.415047 1_455
Mo0_3 S1_1 2.414340 1_565
Mo0_3 S1_7 2.414398 1_455
Mo0_3 S1_3 2.414405 1_555
Mo0_3 S3_1 2.414994 1_565
Mo0_3 S3_3 2.415023 1_555
Mo0_3 S3_7 2.415047 1_455
Mo0_4 S1_6 2.414340 1_555
Mo0_4 S1_0 2.414398 1_555
Mo0_4 S1_4 2.414405 1_555
Mo0_4 S3_6 2.414994 1_555
Mo0_4 S3_4 2.415023 1_555
Mo0_4 S3_0 2.415047 1_555
Mo0_5 S1_7 2.414340 1_555
Mo0_5 S1_1 2.414398 1_555
Mo0_5 S1_5 2.414405 1_555
Mo0_5 S3_7 2.414994 1_555
Mo0_5 S3_5 2.415023 1_555
Mo0_5 S3_1 2.415047 1_555
Mo0_6 S1_4 2.414340 1_565
Mo0_6 S1_2 2.414398 1_555
Mo0_6 S1_6 2.414405 1_555
Mo0_6 S3_4 2.414994 1_565
Mo0_6 S3_6 2.415023 1_555
Mo0_6 S3_2 2.415047 1_555
Mo0_7 S1_5 2.414340 1_565
Mo0_7 S1_3 2.414398 1_555
Mo0_7 S1_7 2.414405 1_555
Mo0_7 S3_5 2.414994 1_565
Mo0_7 S3_7 2.415023 1_555
Mo0_7 S3_3 2.415047 1_555
S0_0 W1_2 2.420563 1_555
S0_0 W1_4 2.420594 1_455
S0_0 W1_0 2.420598 1_555
S0_1 W1_3 2.420563 1_555
S0_1 W1_5 2.420594 1_455
S0_1 W1_1 2.420598 1_555
S0_2 W1_0 2.420563 1_565
S0_2 W1_6 2.420594 1_455
S0_2 W1_2 2.420598 1_555
S0_3 W1_1 2.420563 1_565
S0_3 W1_7 2.420594 1_455
S0_3 W1_3 2.420598 1_555
S0_4 W1_6 2.420563 1_555
S0_4 W1_0 2.420594 1_555
S0_4 W1_4 2.420598 1_555
S0_5 W1_7 2.420563 1_555
S0_5 W1_1 2.420594 1_555
S0_5 W1_5 2.420598 1_555
S0_6 W1_4 2.420563 1_565
S0_6 W1_2 2.420594 1_555
S0_6 W1_6 2.420598 1_555
S0_7 W1_5 2.420563 1_565
S0_7 W1_3 2.420594 1_555
S0_7 W1_7 2.420598 1_555
S2_0 W0_2 2.421346 1_545
S2_0 W0_4 2.421391 1_555
S2_0 W0_0 2.421398 1_555
S2_1 W0_3 2.421346 1_545
S2_1 W0_5 2.421391 1_555
S2_1 W0_1 2.421398 1_555
S2_2 W0_0 2.421346 1_555
S2_2 W0_6 2.421391 1_555
S2_2 W0_2 2.421398 1_555
S2_3 W0_1 2.421346 1_555
S2_3 W0_7 2.421391 1_555
S2_3 W0_3 2.421398 1_555
S2_4 W0_6 2.421346 1_545
S2_4 W0_0 2.421391 1_655
S2_4 W0_4 2.421398 1_555
S2_5 W0_7 2.421346 1_545
S2_5 W0_1 2.421391 1_655
S2_5 W0_5 2.421398 1_555
S2_6 W0_4 2.421346 1_555
S2_6 W0_2 2.421391 1_655
S2_6 W0_6 2.421398 1_555
S2_7 W0_5 2.421346 1_555
S2_7 W0_3 2.421391 1_655
S2_7 W0_7 2.421398 1_555
S4_0 W0_2 2.420583 1_545
S4_0 W0_0 2.420603 1_555
S4_0 W0_4 2.420625 1_555
S4_1 W0_3 2.420583 1_545
S4_1 W0_1 2.420603 1_555
S4_1 W0_5 2.420625 1_555
S4_2 W0_0 2.420583 1_555
S4_2 W0_2 2.420603 1_555
S4_2 W0_6 2.420625 1_555
S4_3 W0_1 2.420583 1_555
S4_3 W0_3 2.420603 1_555
S4_3 W0_7 2.420625 1_555
S4_4 W0_6 2.420583 1_545
S4_4 W0_4 2.420603 1_555
S4_4 W0_0 2.420625 1_655
S4_5 W0_7 2.420583 1_545
S4_5 W0_5 2.420603 1_555
S4_5 W0_1 2.420625 1_655
S4_6 W0_4 2.420583 1_555
S4_6 W0_6 2.420603 1_555
S4_6 W0_2 2.420625 1_655
S4_7 W0_5 2.420583 1_555
S4_7 W0_7 2.420603 1_555
S4_7 W0_3 2.420625 1_655
S5_0 W1_2 2.421089 1_555
S5_0 W1_0 2.421143 1_555
S5_0 W1_4 2.421167 1_455
S5_1 W1_3 2.421089 1_555
S5_1 W1_1 2.421143 1_555
S5_1 W1_5 2.421167 1_455
S5_2 W1_0 2.421089 1_565
S5_2 W1_2 2.421143 1_555
S5_2 W1_6 2.421167 1_455
S5_3 W1_1 2.421089 1_565
S5_3 W1_3 2.421143 1_555
S5_3 W1_7 2.421167 1_455
S5_4 W1_6 2.421089 1_555
S5_4 W1_4 2.421143 1_555
S5_4 W1_0 2.421167 1_555
S5_5 W1_7 2.421089 1_555
S5_5 W1_5 2.421143 1_555
S5_5 W1_1 2.421167 1_555
S5_6 W1_4 2.421089 1_565
S5_6 W1_6 2.421143 1_555
S5_6 W1_2 2.421167 1_555
S5_7 W1_5 2.421089 1_565
S5_7 W1_7 2.421143 1_555
S5_7 W1_3 2.421167 1_555
