# generated using pymatgen
data_Na4NbZnSi2PO12
_symmetry_space_group_name_H-M   'P 1'
_cell_length_a   9.13913470
_cell_length_b   9.13913438
_cell_length_c   22.22426752
_cell_angle_alpha   89.87954443
_cell_angle_beta   90.12045557
_cell_angle_gamma   119.54389141
_symmetry_Int_Tables_number   1
_chemical_formula_structural   Na4NbZnSi2PO12
_chemical_formula_sum   'Na24 Nb6 Zn6 Si12 P6 O72'
_cell_volume   1614.89649544
_cell_formula_units_Z   6
loop_
 _symmetry_equiv_pos_site_id
 _symmetry_equiv_pos_as_xyz
  1  'x, y, z'
loop_
 _atom_site_type_symbol
 _atom_site_label
 _atom_site_symmetry_multiplicity
 _atom_site_fract_x
 _atom_site_fract_y
 _atom_site_fract_z
 _atom_site_occupancy
  Na  Na0  1  0.64538703  0.01811125  0.24780310  1
  Na  Na1  1  0.37848359  0.36201680  0.24326363  1
  Na  Na2  1  0.97554851  0.61736073  0.24549758  1
  Na  Na3  1  0.63798320  0.62151641  0.74326363  1
  Na  Na4  1  0.98188875  0.35461297  0.74780310  1
  Na  Na5  1  0.38263927  0.02445149  0.74549758  1
  Na  Na6  1  0.31205403  0.35144425  0.58113610  1
  Na  Na7  1  0.04515059  0.69534980  0.57659663  1
  Na  Na8  1  0.64221551  0.95069373  0.57883058  1
  Na  Na9  1  0.30465020  0.95484941  0.07659663  1
  Na  Na10  1  0.64855575  0.68794597  0.08113610  1
  Na  Na11  1  0.04930627  0.35778449  0.07883058  1
  Na  Na12  1  0.97872003  0.68477825  0.91447010  1
  Na  Na13  1  0.71181659  0.02868380  0.90993063  1
  Na  Na14  1  0.30888151  0.28402773  0.91216458  1
  Na  Na15  1  0.97131620  0.28818341  0.40993063  1
  Na  Na16  1  0.31522175  0.02127997  0.41447010  1
  Na  Na17  1  0.71597227  0.69111849  0.41216458  1
  Na  Na18  1  0.99523396  0.99362793  0.49203112  1
  Na  Na19  1  0.00637207  0.00476604  0.99203112  1
  Na  Na20  1  0.66190096  0.32696093  0.82536412  1
  Na  Na21  1  0.67303907  0.33809904  0.32536412  1
  Na  Na22  1  0.32856696  0.66029493  0.15869812  1
  Na  Na23  1  0.33970507  0.67143304  0.65869812  1
  Nb  Nb0  1  0.99824284  0.00056564  0.64720039  1
  Nb  Nb1  1  0.99943436  0.00175716  0.14720039  1
  Nb  Nb2  1  0.66490984  0.33389864  0.98053339  1
  Nb  Nb3  1  0.66610136  0.33509016  0.48053339  1
  Nb  Nb4  1  0.33157584  0.66723264  0.31386739  1
  Nb  Nb5  1  0.33276736  0.66842416  0.81386739  1
  Zn  Zn0  1  0.98857163  0.99251791  0.34835463  1
  Zn  Zn1  1  0.00748209  0.01142837  0.84835463  1
  Zn  Zn2  1  0.65523863  0.32585091  0.68168763  1
  Zn  Zn3  1  0.67414909  0.34476137  0.18168763  1
  Zn  Zn4  1  0.32190463  0.65918491  0.01502163  1
  Zn  Zn5  1  0.34081509  0.67809537  0.51502163  1
  Si  Si0  1  0.70406517  0.70365367  0.25277326  1
  Si  Si1  1  0.99931287  0.29397823  0.25332105  1
  Si  Si2  1  0.29634633  0.29593483  0.75277326  1
  Si  Si3  1  0.70602177  0.00068713  0.75332105  1
  Si  Si4  1  0.37073217  0.03698667  0.58610626  1
  Si  Si5  1  0.66597987  0.62731123  0.58665405  1
  Si  Si6  1  0.96301333  0.62926783  0.08610626  1
  Si  Si7  1  0.37268877  0.33402013  0.08665405  1
  Si  Si8  1  0.03739817  0.37032067  0.91944026  1
  Si  Si9  1  0.33264587  0.96064523  0.91998805  1
  Si  Si10  1  0.62967933  0.96260183  0.41944026  1
  Si  Si11  1  0.03935477  0.66735413  0.41998805  1
  P  P0  1  0.28944437  0.99729507  0.25261876  1
  P  P1  1  0.00270493  0.71055563  0.75261876  1
  P  P2  1  0.95611137  0.33062807  0.58595176  1
  P  P3  1  0.66937193  0.04388863  0.08595176  1
  P  P4  1  0.62277737  0.66396207  0.91928576  1
  P  P5  1  0.33603793  0.37722263  0.41928576  1
  O  O0  1  0.21190358  0.02438090  0.30879652  1
  O  O1  1  0.81702549  0.78255761  0.31135806  1
  O  O2  1  0.97936950  0.18609245  0.31224643  1
  O  O3  1  0.21744239  0.18297451  0.81135806  1
  O  O4  1  0.97561910  0.78809642  0.80879652  1
  O  O5  1  0.81390755  0.02063050  0.81224643  1
  O  O6  1  0.80315560  0.96899694  0.69319972  1
  O  O7  1  0.16550432  0.19604992  0.69328210  1
  O  O8  1  0.02983893  0.82819740  0.69557131  1
  O  O9  1  0.80395008  0.83449568  0.19328210  1
  O  O10  1  0.03100306  0.19684440  0.19319972  1
  O  O11  1  0.17180260  0.97016107  0.19557131  1
  O  O12  1  0.87857058  0.35771390  0.64212952  1
  O  O13  1  0.48369249  0.11589061  0.64469106  1
  O  O14  1  0.64603650  0.51942545  0.64557943  1
  O  O15  1  0.88410939  0.51630751  0.14469106  1
  O  O16  1  0.64228610  0.12142942  0.14212952  1
  O  O17  1  0.48057455  0.35396350  0.14557943  1
  O  O18  1  0.46982260  0.30232994  0.02653272  1
  O  O19  1  0.83217132  0.52938292  0.02661510  1
  O  O20  1  0.69650593  0.16153040  0.02890431  1
  O  O21  1  0.47061708  0.16782868  0.52661510  1
  O  O22  1  0.69767006  0.53017740  0.52653272  1
  O  O23  1  0.83846960  0.30349407  0.52890431  1
  O  O24  1  0.54523658  0.69104790  0.97546352  1
  O  O25  1  0.15035849  0.44922461  0.97802506  1
  O  O26  1  0.31270250  0.85275945  0.97891343  1
  O  O27  1  0.55077539  0.84964151  0.47802506  1
  O  O28  1  0.30895210  0.45476342  0.47546352  1
  O  O29  1  0.14724055  0.68729750  0.47891343  1
  O  O30  1  0.13648860  0.63566394  0.35986672  1
  O  O31  1  0.49883732  0.86271692  0.35994910  1
  O  O32  1  0.36317193  0.49486440  0.36223831  1
  O  O33  1  0.13728308  0.50116268  0.85994910  1
  O  O34  1  0.36433606  0.86351140  0.85986672  1
  O  O35  1  0.50513560  0.63682807  0.86223831  1
  O  O36  1  0.01762018  0.83123909  0.41298651  1
  O  O37  1  0.81918926  0.99563884  0.41326298  1
  O  O38  1  0.19091280  0.19903764  0.41139605  1
  O  O39  1  0.00436116  0.18081074  0.91326298  1
  O  O40  1  0.16876091  0.98237982  0.91298651  1
  O  O41  1  0.80096236  0.80908720  0.91139605  1
  O  O42  1  0.96138592  0.15935770  0.58784614  1
  O  O43  1  0.18473282  0.03340004  0.58855290  1
  O  O44  1  0.84447157  0.81532416  0.58863775  1
  O  O45  1  0.96659996  0.81526718  0.08855290  1
  O  O46  1  0.84064230  0.03861408  0.08784614  1
  O  O47  1  0.18467584  0.15552843  0.08863775  1
  O  O48  1  0.68428718  0.16457209  0.74631951  1
  O  O49  1  0.48585626  0.32897184  0.74659598  1
  O  O50  1  0.85757980  0.53237064  0.74472905  1
  O  O51  1  0.67102816  0.51414374  0.24659598  1
  O  O52  1  0.83542791  0.31571282  0.24631951  1
  O  O53  1  0.46762936  0.14242020  0.24472905  1
  O  O54  1  0.62805292  0.49269070  0.92117914  1
  O  O55  1  0.85139982  0.36673304  0.92188590  1
  O  O56  1  0.51113857  0.14865716  0.92197075  1
  O  O57  1  0.63326696  0.14860018  0.42188590  1
  O  O58  1  0.50730930  0.37194708  0.42117914  1
  O  O59  1  0.85134284  0.48886143  0.42197075  1
  O  O60  1  0.35095318  0.49790609  0.07965351  1
  O  O61  1  0.15252226  0.66230584  0.07992998  1
  O  O62  1  0.52424580  0.86570464  0.07806305  1
  O  O63  1  0.33769416  0.84747774  0.57992998  1
  O  O64  1  0.50209391  0.64904682  0.57965351  1
  O  O65  1  0.13429536  0.47575420  0.57806305  1
  O  O66  1  0.29471892  0.82602470  0.25451314  1
  O  O67  1  0.51806582  0.70006704  0.25521990  1
  O  O68  1  0.17780457  0.48199116  0.25530475  1
  O  O69  1  0.29993296  0.48193418  0.75521990  1
  O  O70  1  0.17397530  0.70528108  0.75451314  1
  O  O71  1  0.51800884  0.82219543  0.75530475  1
loop_
_geom_bond_atom_site_label_1
_geom_bond_atom_site_label_2
_geom_bond_distance
_geom_bond_site_symmetry_2
Na0 O53 2.398712 1_555
Na0 O52 2.399240 1_555
Na0 O16 2.534702 1_555
Na0 O67 2.548155 1_545
Na0 O66 2.797751 1_545
Na0 O31 2.854108 1_545
Na0 O9 2.966182 1_545
Na0 O2 3.015687 1_555
Na1 O51 2.328183 1_555
Na1 O17 2.380321 1_555
Na1 O53 2.510906 1_555
Na1 O68 2.573707 1_555
Na1 O67 2.712600 1_555
Na1 O32 2.944087 1_555
Na1 O10 2.977617 1_555
Na2 O52 2.399696 1_555
Na2 O15 2.410428 1_555
Na2 O51 2.459064 1_555
Na2 O66 2.588197 1_655
Na2 O68 2.692065 1_655
Na2 O30 2.897485 1_655
Na2 O1 2.948891 1_555
Na2 O11 3.022310 1_655
Na3 O49 2.328183 1_555
Na3 O14 2.380320 1_555
Na3 O50 2.510906 1_555
Na3 O71 2.573707 1_555
Na3 O69 2.712600 1_555
Na3 O35 2.944087 1_555
Na3 O6 2.977617 1_555
Na4 O50 2.398712 1_555
Na4 O48 2.399240 1_555
Na4 O12 2.534702 1_555
Na4 O69 2.548155 1_655
Na4 O70 2.797751 1_655
Na4 O33 2.854108 1_655
Na4 O7 2.966182 1_655
Na4 O5 3.015687 1_555
Na5 O48 2.399696 1_555
Na5 O13 2.410428 1_555
Na5 O49 2.459064 1_555
Na5 O70 2.588197 1_545
Na5 O71 2.692065 1_545
Na5 O34 2.897485 1_545
Na5 O3 2.948891 1_555
Na5 O8 3.022310 1_545
Na6 O65 2.398727 1_555
Na6 O64 2.399246 1_555
Na6 O28 2.534686 1_555
Na6 O43 2.548155 1_555
Na6 O42 2.797751 1_455
Na6 O7 2.854108 1_555
Na6 O21 2.966182 1_555
Na6 O14 3.015687 1_555
Na7 O63 2.328176 1_555
Na7 O29 2.380294 1_555
Na7 O65 2.510891 1_555
Na7 O44 2.573707 1_455
Na7 O43 2.712600 1_565
Na7 O8 2.944087 1_555
Na7 O22 2.977617 1_455
Na8 O64 2.399687 1_555
Na8 O27 2.410407 1_555
Na8 O63 2.459074 1_555
Na8 O42 2.588197 1_565
Na8 O44 2.692065 1_555
Na8 O6 2.897485 1_555
Na8 O13 2.948891 1_565
Na8 O23 3.022310 1_565
Na9 O61 2.328176 1_555
Na9 O26 2.380294 1_554
Na9 O62 2.510891 1_555
Na9 O47 2.573707 1_565
Na9 O45 2.712600 1_455
Na9 O11 2.944087 1_555
Na9 O18 2.977617 1_565
Na10 O62 2.398727 1_555
Na10 O60 2.399246 1_555
Na10 O24 2.534686 1_554
Na10 O45 2.548155 1_555
Na10 O46 2.797751 1_565
Na10 O9 2.854108 1_555
Na10 O19 2.966182 1_555
Na10 O17 3.015687 1_555
Na11 O60 2.399688 1_555
Na11 O25 2.410407 1_554
Na11 O61 2.459074 1_555
Na11 O46 2.588197 1_455
Na11 O47 2.692065 1_555
Na11 O10 2.897485 1_555
Na11 O15 2.948891 1_455
Na11 O20 3.022310 1_455
Na12 O41 2.398712 1_555
Na12 O40 2.399240 1_655
Na12 O4 2.534702 1_555
Na12 O55 2.548163 1_555
Na12 O54 2.797743 1_555
Na12 O19 2.854089 1_556
Na12 O33 2.966182 1_655
Na12 O26 3.015687 1_655
Na13 O39 2.328183 1_655
Na13 O5 2.380321 1_555
Na13 O41 2.510906 1_545
Na13 O56 2.573690 1_555
Na13 O55 2.712589 1_555
Na13 O20 2.944061 1_556
Na13 O34 2.977617 1_545
Na14 O40 2.399696 1_545
Na14 O3 2.410428 1_555
Na14 O39 2.459064 1_555
Na14 O54 2.588201 1_555
Na14 O56 2.692079 1_555
Na14 O18 2.897471 1_556
Na14 O25 2.948891 1_555
Na14 O35 3.022310 1_555
Na15 O37 2.328183 1_545
Na15 O2 2.380320 1_555
Na15 O38 2.510906 1_655
Na15 O59 2.573689 1_555
Na15 O57 2.712589 1_555
Na15 O23 2.944061 1_555
Na15 O30 2.977617 1_655
Na16 O38 2.398712 1_555
Na16 O36 2.399240 1_545
Na16 O0 2.534702 1_555
Na16 O57 2.548163 1_555
Na16 O58 2.797743 1_555
Na16 O21 2.854089 1_555
Na16 O31 2.966182 1_545
Na16 O29 3.015687 1_545
Na17 O36 2.399696 1_655
Na17 O1 2.410428 1_555
Na17 O37 2.459064 1_555
Na17 O58 2.588201 1_555
Na17 O59 2.692079 1_555
Na17 O22 2.897471 1_555
Na17 O27 2.948891 1_555
Na17 O32 3.022310 1_555
Na18 O36 2.375358 1_655
Na18 O37 2.381290 1_555
Na18 O38 2.573379 1_665
Na18 O44 2.635719 1_555
Na18 O43 2.664557 1_665
Na18 O42 2.720773 1_565
Na19 O40 2.375358 1_545
Na19 O39 2.381290 1_555
Na19 O41 2.573379 1_445
Na19 O47 2.635719 1_556
Na19 O45 2.664557 1_446
Na19 O46 2.720773 1_456
Na20 O48 2.375358 1_555
Na20 O49 2.381290 1_555
Na20 O50 2.573379 1_555
Na20 O56 2.635719 1_555
Na20 O55 2.664557 1_555
Na20 O54 2.720773 1_555
Na21 O52 2.375358 1_555
Na21 O51 2.381290 1_555
Na21 O53 2.573379 1_555
Na21 O59 2.635719 1_555
Na21 O57 2.664557 1_555
Na21 O58 2.720773 1_555
Na22 O60 2.375358 1_555
Na22 O61 2.381290 1_555
Na22 O62 2.573379 1_555
Na22 O68 2.635719 1_555
Na22 O67 2.664557 1_555
Na22 O66 2.720773 1_555
Na23 O64 2.375358 1_555
Na23 O63 2.381290 1_555
Na23 O65 2.573379 1_555
Na23 O71 2.635719 1_555
Na23 O69 2.664557 1_555
Na23 O70 2.720773 1_555
Nb0 O6 1.950977 1_545
Nb0 O7 1.971092 1_655
Nb0 O8 2.039793 1_645
Nb0 O44 2.047014 1_545
Nb0 O43 2.048670 1_655
Nb0 O42 2.105161 1_555
Nb1 O10 1.950977 1_655
Nb1 O9 1.971092 1_545
Nb1 O11 2.039793 1_645
Nb1 O47 2.047014 1_655
Nb1 O45 2.048670 1_545
Nb1 O46 2.105161 1_555
Nb2 O18 1.950977 1_556
Nb2 O19 1.971092 1_556
Nb2 O20 2.039793 1_556
Nb2 O56 2.047014 1_555
Nb2 O55 2.048670 1_555
Nb2 O54 2.105161 1_555
Nb3 O22 1.950977 1_555
Nb3 O21 1.971092 1_555
Nb3 O23 2.039793 1_555
Nb3 O59 2.047014 1_555
Nb3 O57 2.048670 1_555
Nb3 O58 2.105161 1_555
Nb4 O30 1.950977 1_555
Nb4 O31 1.971092 1_555
Nb4 O32 2.039793 1_555
Nb4 O68 2.047014 1_555
Nb4 O67 2.048670 1_555
Nb4 O66 2.105161 1_555
Nb5 O34 1.950977 1_555
Nb5 O33 1.971092 1_555
Nb5 O35 2.039793 1_555
Nb5 O71 2.047014 1_555
Nb5 O69 2.048670 1_555
Nb5 O70 2.105161 1_555
O0 P0 1.516662 1_545
O0 Zn0 2.108069 1_445
O1 Si0 1.595344 1_555
O1 Zn0 1.962253 1_555
O2 Si1 1.593334 1_555
O2 Zn0 1.980213 1_545
O3 Si2 1.595344 1_555
O3 Zn1 1.962253 1_555
O4 P1 1.516662 1_655
O4 Zn1 2.108069 1_665
O5 Si3 1.593334 1_555
O5 Zn1 1.980213 1_655
O6 Si3 1.708038 1_565
O7 Si2 1.712663 1_555
O8 P1 1.599219 1_555
O9 Si0 1.712663 1_555
O10 Si1 1.708038 1_455
O11 P0 1.599219 1_555
O12 P2 1.516662 1_555
O12 Zn2 2.108069 1_555
O13 Si4 1.595344 1_555
O13 Zn2 1.962253 1_555
O14 Si5 1.593334 1_555
O14 Zn2 1.980213 1_555
O15 Si6 1.595344 1_555
O15 Zn3 1.962253 1_555
O16 P3 1.516662 1_555
O16 Zn3 2.108069 1_555
O17 Si7 1.593334 1_555
O17 Zn3 1.980213 1_555
O18 Si7 1.708038 1_555
O19 Si6 1.712663 1_555
O20 P3 1.599219 1_555
O21 Si4 1.712663 1_555
O22 Si5 1.708038 1_555
O23 P2 1.599219 1_555
O24 P4 1.516662 1_555
O24 Zn4 2.108069 1_556
O25 Si8 1.595344 1_555
O25 Zn4 1.962253 1_556
O26 Si9 1.593334 1_555
O26 Zn4 1.980213 1_556
O27 Si10 1.595344 1_555
O27 Zn5 1.962253 1_555
O28 P5 1.516662 1_555
O28 Zn5 2.108069 1_555
O29 Si11 1.593334 1_555
O29 Zn5 1.980213 1_555
O30 Si11 1.708038 1_555
O31 Si10 1.712663 1_555
O32 P5 1.599219 1_555
O33 Si8 1.712663 1_555
O34 Si9 1.708038 1_555
O35 P4 1.599219 1_555
O36 Si11 1.612223 1_555
O36 Zn0 2.163707 1_455
O37 Si10 1.610840 1_555
O37 Zn0 2.128655 1_555
O38 P5 1.520512 1_555
O38 Zn0 2.345869 1_445
O39 Si8 1.610840 1_555
O39 Zn1 2.128655 1_555
O40 Si9 1.612223 1_555
O40 Zn1 2.163707 1_565
O41 P4 1.520512 1_555
O41 Zn1 2.345869 1_665
O42 P2 1.590053 1_555
O43 Si4 1.684942 1_555
O44 Si5 1.688556 1_555
O45 Si6 1.684942 1_555
O46 P3 1.590053 1_555
O47 Si7 1.688556 1_555
O48 Si3 1.612223 1_555
O48 Zn2 2.163707 1_555
O49 Si2 1.610840 1_555
O49 Zn2 2.128655 1_555
O50 P1 1.520512 1_655
O50 Zn2 2.345869 1_555
O51 Si0 1.610840 1_555
O51 Zn3 2.128655 1_555
O52 Si1 1.612223 1_555
O52 Zn3 2.163707 1_555
O53 P0 1.520512 1_545
O53 Zn3 2.345869 1_555
O54 P4 1.590066 1_555
O55 Si8 1.684928 1_655
O56 Si9 1.688555 1_545
O57 Si10 1.684928 1_545
O58 P5 1.590067 1_555
O59 Si11 1.688555 1_655
O60 Si7 1.612235 1_555
O60 Zn4 2.163707 1_555
O61 Si6 1.610826 1_455
O61 Zn4 2.128655 1_555
O62 P3 1.520506 1_565
O62 Zn4 2.345869 1_555
O63 Si4 1.610826 1_565
O63 Zn5 2.128655 1_555
O64 Si5 1.612235 1_555
O64 Zn5 2.163707 1_555
O65 P2 1.520506 1_455
O65 Zn5 2.345869 1_555
O66 P0 1.590053 1_555
O67 Si0 1.684942 1_555
O68 Si1 1.688556 1_455
O69 Si2 1.684942 1_555
O70 P1 1.590053 1_555
O71 Si3 1.688556 1_565
