# generated using pymatgen
data_SbSI
_symmetry_space_group_name_H-M   'P 1'
_cell_length_a   4.10202463
_cell_length_b   8.84451577
_cell_length_c   10.50935264
_cell_angle_alpha   90.00000000
_cell_angle_beta   90.00000000
_cell_angle_gamma   90.00000000
_symmetry_Int_Tables_number   1
_chemical_formula_structural   SbSI
_chemical_formula_sum   'Sb4 S4 I4'
_cell_volume   381.28374378
_cell_formula_units_Z   4
loop_
 _symmetry_equiv_pos_site_id
 _symmetry_equiv_pos_as_xyz
  1  'x, y, z'
loop_
 _atom_site_type_symbol
 _atom_site_label
 _atom_site_symmetry_multiplicity
 _atom_site_fract_x
 _atom_site_fract_y
 _atom_site_fract_z
 _atom_site_occupancy
  Sb  Sb0  1  0.75000000  0.10845701  0.87574941  1
  Sb  Sb1  1  0.75000000  0.60845701  0.62425059  1
  Sb  Sb2  1  0.25000000  0.89154299  0.12425059  1
  Sb  Sb3  1  0.25000000  0.39154299  0.37574941  1
  S  S0  1  0.75000000  0.34734399  0.53997786  1
  S  S1  1  0.25000000  0.65265601  0.46002214  1
  S  S2  1  0.25000000  0.15265601  0.03997786  1
  S  S3  1  0.75000000  0.84734399  0.96002214  1
  I  I0  1  0.75000000  0.51400256  0.17829292  1
  I  I1  1  0.25000000  0.48599744  0.82170708  1
  I  I2  1  0.75000000  0.01400256  0.32170708  1
  I  I3  1  0.25000000  0.98599744  0.67829292  1
loop_
_geom_bond_atom_site_label_1
_geom_bond_atom_site_label_2
_geom_bond_distance
_geom_bond_site_symmetry_2
S0 Sb1 2.473417 1_555
S0 Sb3 2.708933 1_655
S0 Sb3 2.708933 1_555
S1 Sb3 2.473417 1_555
S1 Sb1 2.708933 1_555
S1 Sb1 2.708933 1_455
S2 Sb2 2.473417 1_545
S2 Sb0 2.708933 1_554
S2 Sb0 2.708933 1_454
S3 Sb0 2.473417 1_565
S3 Sb2 2.708933 1_556
S3 Sb2 2.708933 1_656
I0 Sb3 3.112226 1_655
I0 Sb3 3.112226 1_555
I1 Sb1 3.112226 1_555
I1 Sb1 3.112226 1_455
I2 Sb2 3.112226 1_545
I2 Sb2 3.112226 1_645
I3 Sb0 3.112226 1_465
I3 Sb0 3.112226 1_565
