# generated using pymatgen
data_Rb3BiBr6
_symmetry_space_group_name_H-M   'P 1'
_cell_length_a   8.65541900
_cell_length_b   13.66525200
_cell_length_c   27.33746000
_cell_angle_alpha   90.00000000
_cell_angle_beta   90.00000000
_cell_angle_gamma   90.00000000
_symmetry_Int_Tables_number   1
_chemical_formula_structural   Rb3BiBr6
_chemical_formula_sum   'Rb24 Bi8 Br48'
_cell_volume   3233.43326508
_cell_formula_units_Z   8
loop_
 _symmetry_equiv_pos_site_id
 _symmetry_equiv_pos_as_xyz
  1  'x, y, z'
loop_
 _atom_site_type_symbol
 _atom_site_label
 _atom_site_symmetry_multiplicity
 _atom_site_fract_x
 _atom_site_fract_y
 _atom_site_fract_z
 _atom_site_occupancy
  Rb  Rb0  1  0.56606900  0.34442600  0.34107100  1
  Rb  Rb1  1  0.06320400  0.17866000  0.04616300  1
  Rb  Rb2  1  0.56320400  0.32134000  0.95383700  1
  Rb  Rb3  1  0.43679600  0.67866000  0.45383700  1
  Rb  Rb4  1  0.93679600  0.82134000  0.54616300  1
  Rb  Rb5  1  0.93679600  0.82134000  0.95383700  1
  Rb  Rb6  1  0.43679600  0.67866000  0.04616300  1
  Rb  Rb7  1  0.56320400  0.32134000  0.54616300  1
  Rb  Rb8  1  0.06980200  0.49376800  0.15925100  1
  Rb  Rb9  1  0.56980200  0.00623200  0.84074900  1
  Rb  Rb10  1  0.43019800  0.99376800  0.34074900  1
  Rb  Rb11  1  0.93019800  0.50623200  0.65925100  1
  Rb  Rb12  1  0.93019800  0.50623200  0.84074900  1
  Rb  Rb13  1  0.43019800  0.99376800  0.15925100  1
  Rb  Rb14  1  0.56980200  0.00623200  0.65925100  1
  Rb  Rb15  1  0.06980200  0.49376800  0.34074900  1
  Rb  Rb16  1  0.06320400  0.17866000  0.45383700  1
  Rb  Rb17  1  0.06606900  0.15557400  0.84107100  1
  Rb  Rb18  1  0.93393100  0.84442600  0.34107100  1
  Rb  Rb19  1  0.43393100  0.65557400  0.65892900  1
  Rb  Rb20  1  0.43393100  0.65557400  0.84107100  1
  Rb  Rb21  1  0.93393100  0.84442600  0.15892900  1
  Rb  Rb22  1  0.06606900  0.15557400  0.65892900  1
  Rb  Rb23  1  0.56606900  0.34442600  0.15892900  1
  Bi  Bi0  1  0.00000000  0.50000000  0.50000000  1
  Bi  Bi1  1  0.50000000  0.00000000  0.50000000  1
  Bi  Bi2  1  0.50000000  0.00000000  0.00000000  1
  Bi  Bi3  1  0.00000000  0.50000000  0.00000000  1
  Bi  Bi4  1  0.00254500  0.83049900  0.75000000  1
  Bi  Bi5  1  0.50254500  0.66950100  0.25000000  1
  Bi  Bi6  1  0.49745500  0.33049900  0.75000000  1
  Bi  Bi7  1  0.99745500  0.16950100  0.25000000  1
  Br  Br0  1  0.79037600  0.77129800  0.82790300  1
  Br  Br1  1  0.82670000  0.38477400  0.43110500  1
  Br  Br2  1  0.32670000  0.11522600  0.56889500  1
  Br  Br3  1  0.67330000  0.88477400  0.06889500  1
  Br  Br4  1  0.28322700  0.43532200  0.45168600  1
  Br  Br5  1  0.17330000  0.61522600  0.56889500  1
  Br  Br6  1  0.67330000  0.88477400  0.43110500  1
  Br  Br7  1  0.32670000  0.11522600  0.93110500  1
  Br  Br8  1  0.85497100  0.36186200  0.25000000  1
  Br  Br9  1  0.35497100  0.13813800  0.75000000  1
  Br  Br10  1  0.64502900  0.86186200  0.25000000  1
  Br  Br11  1  0.14502900  0.63813800  0.75000000  1
  Br  Br12  1  0.14126700  0.97651700  0.25000000  1
  Br  Br13  1  0.64126700  0.52348300  0.75000000  1
  Br  Br14  1  0.35873300  0.47651700  0.25000000  1
  Br  Br15  1  0.85873300  0.02348300  0.75000000  1
  Br  Br16  1  0.20962400  0.22870200  0.17209700  1
  Br  Br17  1  0.70962400  0.27129800  0.82790300  1
  Br  Br18  1  0.29037600  0.72870200  0.32790300  1
  Br  Br19  1  0.79037600  0.77129800  0.67209700  1
  Br  Br20  1  0.17330000  0.61522600  0.93110500  1
  Br  Br21  1  0.29037600  0.72870200  0.17209700  1
  Br  Br22  1  0.70962400  0.27129800  0.67209700  1
  Br  Br23  1  0.20962400  0.22870200  0.32790300  1
  Br  Br24  1  0.79554100  0.11012500  0.17216600  1
  Br  Br25  1  0.29554100  0.38987500  0.82783400  1
  Br  Br26  1  0.70445900  0.61012500  0.32783400  1
  Br  Br27  1  0.20445900  0.88987500  0.67216600  1
  Br  Br28  1  0.20445900  0.88987500  0.82783400  1
  Br  Br29  1  0.70445900  0.61012500  0.17216600  1
  Br  Br30  1  0.29554100  0.38987500  0.67216600  1
  Br  Br31  1  0.79554100  0.11012500  0.32783400  1
  Br  Br32  1  0.00403900  0.66946700  0.06176600  1
  Br  Br33  1  0.50403900  0.83053300  0.93823400  1
  Br  Br34  1  0.49596100  0.16946700  0.43823400  1
  Br  Br35  1  0.99596100  0.33053300  0.56176600  1
  Br  Br36  1  0.99596100  0.33053300  0.93823400  1
  Br  Br37  1  0.49596100  0.16946700  0.06176600  1
  Br  Br38  1  0.50403900  0.83053300  0.56176600  1
  Br  Br39  1  0.00403900  0.66946700  0.43823400  1
  Br  Br40  1  0.28322700  0.43532200  0.04831400  1
  Br  Br41  1  0.78322700  0.06467800  0.95168600  1
  Br  Br42  1  0.21677300  0.93532200  0.45168600  1
  Br  Br43  1  0.71677300  0.56467800  0.54831400  1
  Br  Br44  1  0.71677300  0.56467800  0.95168600  1
  Br  Br45  1  0.21677300  0.93532200  0.04831400  1
  Br  Br46  1  0.78322700  0.06467800  0.54831400  1
  Br  Br47  1  0.82670000  0.38477400  0.06889500  1
loop_
_geom_bond_atom_site_label_1
_geom_bond_atom_site_label_2
_geom_bond_distance
_geom_bond_site_symmetry_2
Bi0 Br39 2.866237 1_555
Bi0 Br35 2.866237 1_455
Bi0 Br5 2.876898 1_555
Bi0 Br1 2.876898 1_455
Bi0 Br43 2.921513 1_455
Bi0 Br4 2.921513 1_555
Bi1 Br38 2.866237 1_545
Bi1 Br34 2.866237 1_555
Bi1 Br2 2.876898 1_555
Bi1 Br6 2.876898 1_545
Bi1 Br46 2.921513 1_555
Bi1 Br42 2.921513 1_545
Bi2 Br37 2.866237 1_555
Bi2 Br33 2.866237 1_544
Bi2 Br3 2.876898 1_545
Bi2 Br7 2.876898 1_554
Bi2 Br45 2.921513 1_545
Bi2 Br41 2.921513 1_554
Bi3 Br32 2.866237 1_555
Bi3 Br36 2.866237 1_454
Bi3 Br20 2.876898 1_554
Bi3 Br47 2.876898 1_455
Bi3 Br40 2.921513 1_555
Bi3 Br44 2.921513 1_454
Bi4 Br28 2.870557 1_555
Bi4 Br27 2.870557 1_555
Bi4 Br11 2.903582 1_555
Bi4 Br15 2.916179 1_465
Bi4 Br0 2.926154 1_455
Bi4 Br19 2.926154 1_455
Bi5 Br26 2.870557 1_555
Bi5 Br29 2.870557 1_555
Bi5 Br10 2.903582 1_555
Bi5 Br14 2.916179 1_555
Bi5 Br18 2.926154 1_555
Bi5 Br21 2.926154 1_555
Bi6 Br25 2.870557 1_555
Bi6 Br30 2.870557 1_555
Bi6 Br9 2.903582 1_555
Bi6 Br13 2.916179 1_555
Bi6 Br17 2.926154 1_555
Bi6 Br22 2.926154 1_555
Bi7 Br31 2.870557 1_555
Bi7 Br24 2.870557 1_555
Bi7 Br8 2.903582 1_555
Bi7 Br12 2.916179 1_645
Bi7 Br23 2.926154 1_655
Bi7 Br16 2.926154 1_655
Br0 Rb20 3.485505 1_555
Br0 Rb5 3.731761 1_555
Br0 Rb9 3.751679 1_565
Br0 Rb12 3.835132 1_555
Br1 Rb0 3.383926 1_555
Br1 Rb16 3.536919 1_655
Br1 Rb15 3.570331 1_655
Br1 Rb7 3.980749 1_555
Br2 Rb22 3.383926 1_555
Br2 Rb7 3.536919 1_555
Br2 Rb14 3.570331 1_555
Br2 Rb16 3.980749 1_555
Br3 Rb21 3.383926 1_555
Br3 Rb6 3.536919 1_555
Br3 Rb13 3.570331 1_555
Br3 Rb5 3.980749 1_554
Br4 Rb3 3.581577 1_555
Br4 Rb15 3.639757 1_555
Br4 Rb7 3.869008 1_555
Br4 Rb16 3.991450 1_555
Br4 Rb0 4.084152 1_555
Br5 Rb19 3.383926 1_555
Br5 Rb4 3.536919 1_455
Br5 Rb11 3.570331 1_455
Br5 Rb3 3.980749 1_555
Br6 Rb18 3.383926 1_555
Br6 Rb3 3.536919 1_555
Br6 Rb10 3.570331 1_555
Br6 Rb4 3.980749 1_555
Br7 Rb17 3.383926 1_555
Br7 Rb2 3.536919 1_555
Br7 Rb9 3.570331 1_555
Br7 Rb1 3.980749 1_556
Br8 Rb0 3.536660 1_555
Br8 Rb23 3.536660 1_555
Br8 Rb15 3.586262 1_655
Br8 Rb8 3.586262 1_655
Br9 Rb22 3.536660 1_555
Br9 Rb17 3.536660 1_555
Br9 Rb9 3.586262 1_555
Br9 Rb14 3.586262 1_555
Br10 Rb18 3.536660 1_555
Br10 Rb21 3.536660 1_555
Br10 Rb10 3.586262 1_555
Br10 Rb13 3.586262 1_555
Br11 Rb20 3.536660 1_555
Br11 Rb19 3.536660 1_555
Br11 Rb12 3.586262 1_455
Br11 Rb11 3.586262 1_455
Br12 Rb10 3.530477 1_555
Br12 Rb13 3.530477 1_555
Br12 Rb18 3.560492 1_455
Br12 Rb21 3.560492 1_455
Br13 Rb12 3.530477 1_555
Br13 Rb11 3.530477 1_555
Br13 Rb19 3.560492 1_555
Br13 Rb20 3.560492 1_555
Br14 Rb15 3.530477 1_555
Br14 Rb8 3.530477 1_555
Br14 Rb0 3.560492 1_555
Br14 Rb23 3.560492 1_555
Br15 Rb9 3.530477 1_555
Br15 Rb14 3.530477 1_555
Br15 Rb22 3.560492 1_655
Br15 Rb17 3.560492 1_655
Br16 Rb23 3.485505 1_555
Br16 Rb1 3.731761 1_555
Br16 Rb13 3.751679 1_545
Br16 Rb8 3.835132 1_555
Br17 Rb17 3.485505 1_655
Br17 Rb2 3.731761 1_555
Br17 Rb12 3.751679 1_555
Br17 Rb9 3.835132 1_555
Br18 Rb18 3.485505 1_455
Br18 Rb3 3.731761 1_555
Br18 Rb15 3.751679 1_555
Br18 Rb10 3.835132 1_555
Br19 Rb19 3.485505 1_555
Br19 Rb4 3.731761 1_555
Br19 Rb14 3.751679 1_565
Br19 Rb11 3.835132 1_555
Br20 Rb20 3.383926 1_555
Br20 Rb5 3.536919 1_455
Br20 Rb12 3.570331 1_455
Br20 Rb6 3.980749 1_556
Br21 Rb21 3.485505 1_455
Br21 Rb6 3.731761 1_555
Br21 Rb8 3.751679 1_555
Br21 Rb13 3.835132 1_555
Br22 Rb22 3.485505 1_655
Br22 Rb7 3.731761 1_555
Br22 Rb11 3.751679 1_555
Br22 Rb14 3.835132 1_555
Br23 Rb0 3.485505 1_555
Br23 Rb16 3.731761 1_555
Br23 Rb10 3.751679 1_545
Br23 Rb15 3.835132 1_555
Br24 Rb13 3.557020 1_545
Br24 Rb23 3.785136 1_555
Br24 Rb21 3.840411 1_545
Br25 Rb12 3.557020 1_455
Br25 Rb17 3.785136 1_555
Br25 Rb20 3.840411 1_555
Br26 Rb15 3.557020 1_655
Br26 Rb18 3.785136 1_555
Br26 Rb0 3.840411 1_555
Br27 Rb14 3.557020 1_565
Br27 Rb19 3.785136 1_555
Br27 Rb22 3.840411 1_565
Br28 Rb9 3.557020 1_565
Br28 Rb20 3.785136 1_555
Br28 Rb17 3.840411 1_565
Br29 Rb8 3.557020 1_655
Br29 Rb21 3.785136 1_555
Br29 Rb23 3.840411 1_555
Br30 Rb11 3.557020 1_455
Br30 Rb22 3.785136 1_555
Br30 Rb19 3.840411 1_555
Br31 Rb10 3.557020 1_545
Br31 Rb0 3.785136 1_555
Br31 Rb18 3.840411 1_545
Br32 Rb21 3.624882 1_455
Br32 Rb8 3.631920 1_555
Br32 Rb5 3.653962 1_454
Br32 Rb6 3.771994 1_555
Br33 Rb20 3.624882 1_555
Br33 Rb9 3.631920 1_565
Br33 Rb6 3.653962 1_556
Br33 Rb5 3.771994 1_555
Br34 Rb0 3.624882 1_555
Br34 Rb10 3.631920 1_545
Br34 Rb7 3.653962 1_555
Br34 Rb16 3.771994 1_555
Br35 Rb22 3.624882 1_655
Br35 Rb11 3.631920 1_555
Br35 Rb16 3.653962 1_655
Br35 Rb7 3.771994 1_555
Br36 Rb17 3.624882 1_655
Br36 Rb12 3.631920 1_555
Br36 Rb1 3.653962 1_656
Br36 Rb2 3.771994 1_555
Br37 Rb23 3.624882 1_555
Br37 Rb13 3.631920 1_545
Br37 Rb2 3.653962 1_554
Br37 Rb1 3.771994 1_555
Br38 Rb19 3.624882 1_555
Br38 Rb14 3.631920 1_565
Br38 Rb3 3.653962 1_555
Br38 Rb4 3.771994 1_555
Br39 Rb18 3.624882 1_455
Br39 Rb15 3.631920 1_555
Br39 Rb4 3.653962 1_455
Br39 Rb3 3.771994 1_555
Br40 Rb6 3.581577 1_555
Br40 Rb8 3.639757 1_555
Br40 Rb2 3.869008 1_554
Br40 Rb1 3.991450 1_555
Br40 Rb23 4.084152 1_555
Br41 Rb5 3.581577 1_545
Br41 Rb9 3.639757 1_555
Br41 Rb1 3.869008 1_656
Br41 Rb2 3.991450 1_555
Br41 Rb17 4.084152 1_655
Br42 Rb16 3.581577 1_565
Br42 Rb10 3.639757 1_555
Br42 Rb4 3.869008 1_455
Br42 Rb3 3.991450 1_555
Br42 Rb18 4.084152 1_455
Br43 Rb7 3.581577 1_555
Br43 Rb11 3.639757 1_555
Br43 Rb3 3.869008 1_555
Br43 Rb4 3.991450 1_555
Br43 Rb19 4.084152 1_555
Br44 Rb2 3.581577 1_555
Br44 Rb12 3.639757 1_555
Br44 Rb6 3.869008 1_556
Br44 Rb5 3.991450 1_555
Br44 Rb20 4.084152 1_555
Br45 Rb1 3.581577 1_565
Br45 Rb13 3.639757 1_555
Br45 Rb5 3.869008 1_454
Br45 Rb6 3.991450 1_555
Br45 Rb21 4.084152 1_455
Br46 Rb4 3.581577 1_545
Br46 Rb14 3.639757 1_555
Br46 Rb16 3.869008 1_655
Br46 Rb7 3.991450 1_555
Br46 Rb22 4.084152 1_655
Br47 Rb23 3.383926 1_555
Br47 Rb1 3.536919 1_655
Br47 Rb8 3.570331 1_655
Br47 Rb2 3.980749 1_554
