# generated using pymatgen
data_Eu3AuO6
_symmetry_space_group_name_H-M   'P 1'
_cell_length_a   3.74612538
_cell_length_b   5.60966614
_cell_length_c   7.04245214
_cell_angle_alpha   91.06011989
_cell_angle_beta   103.37783929
_cell_angle_gamma   90.77716693
_symmetry_Int_Tables_number   1
_chemical_formula_structural   Eu3AuO6
_chemical_formula_sum   'Eu3 Au1 O6'
_cell_volume   143.92908578
_cell_formula_units_Z   1
loop_
 _symmetry_equiv_pos_site_id
 _symmetry_equiv_pos_as_xyz
  1  'x, y, z'
loop_
 _atom_site_type_symbol
 _atom_site_label
 _atom_site_symmetry_multiplicity
 _atom_site_fract_x
 _atom_site_fract_y
 _atom_site_fract_z
 _atom_site_occupancy
  Eu  Eu0  1  0.61393365  0.52544086  0.77013355  1
  Eu  Eu1  1  0.38606635  0.47455914  0.22986645  1
  Eu  Eu2  1  0.00000000  -0.00000000  0.50000000  1
  Au  Au0  1  0.00000000  -0.00000000  -0.00000000  1
  O  O0  1  0.16210229  0.29751035  0.88534537  1
  O  O1  1  0.87336526  0.21020854  0.20553992  1
  O  O2  1  0.12663474  0.78979146  0.79446008  1
  O  O3  1  0.48628757  0.74610692  0.48003018  1
  O  O4  1  0.83789771  0.70248965  0.11465463  1
  O  O5  1  0.51371243  0.25389308  0.51996982  1
loop_
_geom_bond_atom_site_label_1
_geom_bond_atom_site_label_2
_geom_bond_distance
_geom_bond_site_symmetry_2
Eu0 O5 2.268105 1_555
Eu0 O3 2.364854 1_555
Eu0 O2 2.382927 1_655
Eu0 O2 2.401986 1_555
Eu0 O0 2.402773 1_555
Eu0 O0 2.418406 1_655
Eu0 O4 2.554092 1_556
Eu1 O3 2.268105 1_555
Eu1 O5 2.364854 1_555
Eu1 O1 2.382927 1_455
Eu1 O1 2.401986 1_555
Eu1 O4 2.402773 1_555
Eu1 O4 2.418406 1_455
Eu1 O0 2.554092 1_554
Eu2 O3 2.354721 1_445
Eu2 O5 2.354721 1_555
Eu2 O5 2.355499 1_455
Eu2 O3 2.355499 1_545
Eu2 O2 2.359303 1_545
Eu2 O1 2.359303 1_455
Au0 O1 1.995144 1_455
Au0 O2 1.995144 1_544
Au0 O4 2.013788 1_445
Au0 O0 2.013788 1_554
