# generated using pymatgen
data_P4SO6
_symmetry_space_group_name_H-M   'P 1'
_cell_length_a   9.78681700
_cell_length_b   8.48213200
_cell_length_c   10.31065893
_cell_angle_alpha   89.88733284
_cell_angle_beta   90.00000000
_cell_angle_gamma   90.00000000
_symmetry_Int_Tables_number   1
_chemical_formula_structural   P4SO6
_chemical_formula_sum   'P16 S4 O24'
_cell_volume   855.91783473
_cell_formula_units_Z   4
loop_
 _symmetry_equiv_pos_site_id
 _symmetry_equiv_pos_as_xyz
  1  'x, y, z'
loop_
 _atom_site_type_symbol
 _atom_site_label
 _atom_site_symmetry_multiplicity
 _atom_site_fract_x
 _atom_site_fract_y
 _atom_site_fract_z
 _atom_site_occupancy
  P  P0  1  0.48974700  0.18509000  0.12042500  1
  P  P1  1  0.98974700  0.81491000  0.37957500  1
  P  P2  1  0.51025300  0.81491000  0.87957500  1
  P  P3  1  0.01025300  0.18509000  0.62042500  1
  P  P4  1  0.30068100  0.19564700  0.34571800  1
  P  P5  1  0.80068100  0.80435300  0.15428200  1
  P  P6  1  0.69931900  0.80435300  0.65428200  1
  P  P7  1  0.19931900  0.19564700  0.84571800  1
  P  P8  1  0.60165300  0.20565800  0.38831100  1
  P  P9  1  0.10165300  0.79434200  0.11168900  1
  P  P10  1  0.39834700  0.79434200  0.61168900  1
  P  P11  1  0.89834700  0.20565800  0.88831100  1
  P  P12  1  0.45898600  0.47340100  0.27179100  1
  P  P13  1  0.95898600  0.52659900  0.22820900  1
  P  P14  1  0.54101400  0.52659900  0.72820900  1
  P  P15  1  0.04101400  0.47340100  0.77179100  1
  S  S0  1  0.45381900  0.69667100  0.26090100  1
  S  S1  1  0.95381900  0.30332900  0.23909900  1
  S  S2  1  0.54618100  0.30332900  0.73909900  1
  S  S3  1  0.04618100  0.69667100  0.76090100  1
  O  O0  1  0.44264000  0.15476300  0.42722100  1
  O  O1  1  0.94264000  0.84523700  0.07277900  1
  O  O2  1  0.55736000  0.84523700  0.57277900  1
  O  O3  1  0.05736000  0.15476300  0.92722100  1
  O  O4  1  0.60443100  0.14561700  0.23445400  1
  O  O5  1  0.10443100  0.85438300  0.26554600  1
  O  O6  1  0.39556900  0.85438300  0.76554600  1
  O  O7  1  0.89556900  0.14561700  0.73445400  1
  O  O8  1  0.34583500  0.13801300  0.19752800  1
  O  O9  1  0.84583500  0.86198700  0.30247200  1
  O  O10  1  0.65416500  0.86198700  0.80247200  1
  O  O11  1  0.15416500  0.13801300  0.69752800  1
  O  O12  1  0.32156100  0.39241200  0.32797800  1
  O  O13  1  0.82156100  0.60758800  0.17202200  1
  O  O14  1  0.67843900  0.60758800  0.67202200  1
  O  O15  1  0.17843900  0.39241200  0.82797800  1
  O  O16  1  0.48229200  0.38315700  0.13557600  1
  O  O17  1  0.98229200  0.61684300  0.36442400  1
  O  O18  1  0.51770800  0.61684300  0.86442400  1
  O  O19  1  0.01770800  0.38315700  0.63557600  1
  O  O20  1  0.92249200  0.40109200  0.86350300  1
  O  O21  1  0.42249200  0.59890800  0.63649700  1
  O  O22  1  0.07750800  0.59890800  0.13649700  1
  O  O23  1  0.57750800  0.40109200  0.36350300  1
loop_
_geom_bond_atom_site_label_1
_geom_bond_atom_site_label_2
_geom_bond_distance
_geom_bond_site_symmetry_2
P12 S0 1.897585 1_555
P13 S1 1.897585 1_555
P14 S2 1.897585 1_555
P15 S3 1.897585 1_555
O0 P4 1.659979 1_555
O0 P8 1.663878 1_555
O1 P5 1.659979 1_555
O1 P9 1.663878 1_655
O2 P6 1.659979 1_555
O2 P10 1.663878 1_555
O3 P7 1.659979 1_555
O3 P11 1.663878 1_455
O4 P0 1.659102 1_555
O4 P8 1.667285 1_555
O5 P1 1.659102 1_455
O5 P9 1.667285 1_555
O6 P2 1.659102 1_555
O6 P10 1.667285 1_555
O7 P3 1.659102 1_655
O7 P11 1.667285 1_555
O8 P4 1.664872 1_555
O8 P0 1.665504 1_555
O9 P5 1.664872 1_555
O9 P1 1.665504 1_555
O10 P6 1.664872 1_555
O10 P2 1.665504 1_555
O11 P7 1.664872 1_555
O11 P3 1.665504 1_555
O12 P12 1.617054 1_555
O12 P4 1.691015 1_555
O13 P13 1.617054 1_555
O13 P5 1.691015 1_555
O14 P14 1.617054 1_555
O14 P6 1.691015 1_555
O15 P15 1.617054 1_555
O15 P7 1.691015 1_555
O16 P12 1.617007 1_555
O16 P0 1.689160 1_555
O17 P13 1.617007 1_555
O17 P1 1.689160 1_555
O18 P14 1.617007 1_555
O18 P2 1.689160 1_555
O19 P15 1.617007 1_555
O19 P3 1.689160 1_555
O20 P15 1.616654 1_655
O20 P11 1.693386 1_555
O21 P14 1.616654 1_555
O21 P10 1.693386 1_555
O22 P13 1.616654 1_455
O22 P9 1.693386 1_555
O23 P12 1.616654 1_555
O23 P8 1.693386 1_555
