# generated using pymatgen
data_Ba5Bi3
_symmetry_space_group_name_H-M   'P 1'
_cell_length_a   10.28896437
_cell_length_b   10.28890659
_cell_length_c   7.98879513
_cell_angle_alpha   90.00000000
_cell_angle_beta   90.00000000
_cell_angle_gamma   120.00024750
_symmetry_Int_Tables_number   1
_chemical_formula_structural   Ba5Bi3
_chemical_formula_sum   'Ba10 Bi6'
_cell_volume   732.40570773
_cell_formula_units_Z   2
loop_
 _symmetry_equiv_pos_site_id
 _symmetry_equiv_pos_as_xyz
  1  'x, y, z'
loop_
 _atom_site_type_symbol
 _atom_site_label
 _atom_site_symmetry_multiplicity
 _atom_site_fract_x
 _atom_site_fract_y
 _atom_site_fract_z
 _atom_site_occupancy
  Ba  Ba0  1  0.33333400  0.66666700  -0.00000000  1
  Ba  Ba1  1  0.66666600  0.33333300  0.50000000  1
  Ba  Ba2  1  0.66666600  0.33333300  -0.00000000  1
  Ba  Ba3  1  0.33333400  0.66666700  0.50000000  1
  Ba  Ba4  1  0.74572904  -0.00000000  0.25000000  1
  Ba  Ba5  1  0.74572904  0.74572904  0.75000000  1
  Ba  Ba6  1  0.00000000  0.25427096  0.75000000  1
  Ba  Ba7  1  -0.00000000  0.74572904  0.25000000  1
  Ba  Ba8  1  0.25427096  0.25427096  0.25000000  1
  Ba  Ba9  1  0.25427096  0.00000000  0.75000000  1
  Bi  Bi0  1  0.39109120  0.99999900  0.25000000  1
  Bi  Bi1  1  0.39109120  0.39109120  0.75000000  1
  Bi  Bi2  1  -0.00000000  0.60890680  0.75000000  1
  Bi  Bi3  1  0.00000000  0.39109320  0.25000000  1
  Bi  Bi4  1  0.60890880  0.60890880  0.25000000  1
  Bi  Bi5  1  0.60890880  0.00000100  0.75000000  1
loop_
_geom_bond_atom_site_label_1
_geom_bond_atom_site_label_2
_geom_bond_distance
_geom_bond_site_symmetry_2
Ba0 Bi0 3.750486 1_555
Ba0 Bi5 3.750495 1_564
Ba0 Bi3 3.750498 1_555
Ba0 Bi1 3.750501 1_554
Ba0 Bi4 3.750510 1_555
Ba0 Bi2 3.750511 1_554
Ba0 Ba3 3.994398 1_555
Ba0 Ba3 3.994398 1_554
Ba0 Ba4 4.382098 1_565
Ba0 Ba8 4.382099 1_555
Ba0 Ba6 4.382099 1_554
Ba0 Ba9 4.382108 1_564
Ba0 Ba5 4.382115 1_554
Ba0 Ba7 4.382125 1_555
Ba1 Bi5 3.750486 1_555
Ba1 Bi0 3.750495 1_545
Ba1 Bi2 3.750498 1_655
Ba1 Bi4 3.750501 1_555
Ba1 Bi1 3.750510 1_555
Ba1 Bi3 3.750511 1_655
Ba1 Ba2 3.994398 1_556
Ba1 Ba2 3.994398 1_555
Ba1 Ba9 4.382098 1_555
Ba1 Ba5 4.382099 1_555
Ba1 Ba7 4.382099 1_655
Ba1 Ba4 4.382108 1_555
Ba1 Ba8 4.382115 1_555
Ba1 Ba6 4.382125 1_655
Ba2 Bi5 3.750486 1_554
Ba2 Bi0 3.750495 1_545
Ba2 Bi2 3.750498 1_654
Ba2 Bi4 3.750501 1_555
Ba2 Bi1 3.750510 1_554
Ba2 Bi3 3.750511 1_655
Ba2 Ba9 4.382098 1_554
Ba2 Ba5 4.382099 1_554
Ba2 Ba7 4.382099 1_655
Ba2 Ba4 4.382108 1_555
Ba2 Ba8 4.382115 1_555
Ba2 Ba6 4.382125 1_654
Ba3 Bi0 3.750486 1_555
Ba3 Bi5 3.750495 1_565
Ba3 Bi3 3.750498 1_555
Ba3 Bi1 3.750501 1_555
Ba3 Bi4 3.750510 1_555
Ba3 Bi2 3.750511 1_555
Ba3 Ba4 4.382098 1_565
Ba3 Ba8 4.382099 1_555
Ba3 Ba6 4.382099 1_555
Ba3 Ba9 4.382108 1_565
Ba3 Ba5 4.382115 1_555
Ba3 Ba7 4.382125 1_555
Ba4 Bi4 3.536787 1_545
Ba4 Bi3 3.536802 1_655
Ba4 Bi0 3.648851 1_545
Ba4 Bi5 4.235204 1_554
Ba4 Bi5 4.235204 1_555
Ba5 Bi5 3.536814 1_565
Ba5 Bi2 3.536828 1_655
Ba5 Bi1 3.648832 1_555
Ba5 Bi4 4.235199 1_556
Ba5 Bi4 4.235199 1_555
Ba6 Bi5 3.536799 1_455
Ba6 Bi1 3.536810 1_555
Ba6 Bi2 3.648815 1_555
Ba6 Bi3 4.235207 1_556
Ba6 Bi3 4.235207 1_555
Ba7 Bi0 3.536799 1_555
Ba7 Bi4 3.536810 1_455
Ba7 Bi3 3.648815 1_555
Ba7 Bi2 4.235207 1_555
Ba7 Bi2 4.235207 1_554
Ba8 Bi0 3.536814 1_545
Ba8 Bi3 3.536828 1_555
Ba8 Bi4 3.648832 1_555
Ba8 Bi1 4.235199 1_554
Ba8 Bi1 4.235199 1_555
Ba9 Bi1 3.536787 1_555
Ba9 Bi2 3.536802 1_545
Ba9 Bi5 3.648851 1_555
Ba9 Bi0 4.235204 1_546
Ba9 Bi0 4.235204 1_545
