# generated using pymatgen
data_Bi3NF6
_symmetry_space_group_name_H-M   'P 1'
_cell_length_a   5.80738400
_cell_length_b   5.82520600
_cell_length_c   18.82476700
_cell_angle_alpha   90.00000000
_cell_angle_beta   90.00000000
_cell_angle_gamma   90.00000000
_symmetry_Int_Tables_number   1
_chemical_formula_structural   Bi3NF6
_chemical_formula_sum   'Bi12 N4 F24'
_cell_volume   636.82696067
_cell_formula_units_Z   4
loop_
 _symmetry_equiv_pos_site_id
 _symmetry_equiv_pos_as_xyz
  1  'x, y, z'
loop_
 _atom_site_type_symbol
 _atom_site_label
 _atom_site_symmetry_multiplicity
 _atom_site_fract_x
 _atom_site_fract_y
 _atom_site_fract_z
 _atom_site_occupancy
  Bi  Bi0  1  0.01257900  0.70331100  0.56838500  1
  Bi  Bi1  1  0.51257900  0.29668900  0.93161500  1
  Bi  Bi2  1  0.48742100  0.70331100  0.43161500  1
  Bi  Bi3  1  0.98742100  0.29668900  0.06838500  1
  Bi  Bi4  1  0.98742100  0.29668900  0.43161500  1
  Bi  Bi5  1  0.48742100  0.70331100  0.06838500  1
  Bi  Bi6  1  0.51257900  0.29668900  0.56838500  1
  Bi  Bi7  1  0.01257900  0.70331100  0.93161500  1
  Bi  Bi8  1  0.52572400  0.21852500  0.25000000  1
  Bi  Bi9  1  0.02572400  0.78147500  0.25000000  1
  Bi  Bi10  1  0.97427600  0.21852500  0.75000000  1
  Bi  Bi11  1  0.47427600  0.78147500  0.75000000  1
  N  N0  1  0.75000000  0.51662000  0.50000000  1
  N  N1  1  0.25000000  0.48338000  0.00000000  1
  N  N2  1  0.25000000  0.48338000  0.50000000  1
  N  N3  1  0.75000000  0.51662000  0.00000000  1
  F  F0  1  0.75000000  0.01163700  0.50000000  1
  F  F1  1  0.25000000  0.98836300  0.00000000  1
  F  F2  1  0.25000000  0.98836300  0.50000000  1
  F  F3  1  0.75000000  0.01163700  0.00000000  1
  F  F4  1  0.36933900  0.59297300  0.25000000  1
  F  F5  1  0.86933900  0.40702700  0.25000000  1
  F  F6  1  0.13066100  0.59297300  0.75000000  1
  F  F7  1  0.63066100  0.40702700  0.75000000  1
  F  F8  1  0.23611500  0.03761100  0.32151400  1
  F  F9  1  0.73611500  0.96238900  0.17848600  1
  F  F10  1  0.26388500  0.03761100  0.67848600  1
  F  F11  1  0.76388500  0.96238900  0.82151400  1
  F  F12  1  0.76388500  0.96238900  0.67848600  1
  F  F13  1  0.26388500  0.03761100  0.82151400  1
  F  F14  1  0.73611500  0.96238900  0.32151400  1
  F  F15  1  0.23611500  0.03761100  0.17848600  1
  F  F16  1  0.05638800  0.62470600  0.12884600  1
  F  F17  1  0.55638800  0.37529400  0.37115400  1
  F  F18  1  0.44361200  0.62470600  0.87115400  1
  F  F19  1  0.94361200  0.37529400  0.62884600  1
  F  F20  1  0.94361200  0.37529400  0.87115400  1
  F  F21  1  0.44361200  0.62470600  0.62884600  1
  F  F22  1  0.55638800  0.37529400  0.12884600  1
  F  F23  1  0.05638800  0.62470600  0.37115400  1
loop_
_geom_bond_atom_site_label_1
_geom_bond_atom_site_label_2
_geom_bond_distance
_geom_bond_site_symmetry_2
Bi0 F19 2.259837 1_455
Bi0 N0 2.272712 1_455
Bi0 N2 2.280269 1_555
Bi0 F2 2.513069 1_555
Bi0 F0 2.684842 1_465
Bi0 F21 2.787645 1_555
Bi1 F18 2.259837 1_555
Bi1 N1 2.272712 1_556
Bi1 N3 2.280269 1_556
Bi1 F3 2.513069 1_556
Bi1 F1 2.684842 1_546
Bi1 F20 2.787645 1_555
Bi2 F17 2.259837 1_555
Bi2 N0 2.272712 1_555
Bi2 N2 2.280269 1_555
Bi2 F2 2.513069 1_555
Bi2 F0 2.684842 1_565
Bi2 F23 2.787645 1_555
Bi3 F16 2.259837 1_655
Bi3 N1 2.272712 1_655
Bi3 N3 2.280269 1_555
Bi3 F3 2.513069 1_555
Bi3 F1 2.684842 1_645
Bi3 F22 2.787645 1_555
Bi4 F23 2.259837 1_655
Bi4 N2 2.272712 1_655
Bi4 N0 2.280269 1_555
Bi4 F0 2.513069 1_555
Bi4 F2 2.684842 1_645
Bi4 F17 2.787645 1_555
Bi5 F22 2.259837 1_555
Bi5 N3 2.272712 1_555
Bi5 N1 2.280269 1_555
Bi5 F1 2.513069 1_555
Bi5 F3 2.684842 1_565
Bi5 F16 2.787645 1_555
Bi6 F21 2.259837 1_555
Bi6 N2 2.272712 1_555
Bi6 N0 2.280269 1_555
Bi6 F0 2.513069 1_555
Bi6 F2 2.684842 1_545
Bi6 F19 2.787645 1_555
Bi7 F20 2.259837 1_455
Bi7 N3 2.272712 1_456
Bi7 N1 2.280269 1_556
Bi7 F1 2.513069 1_556
Bi7 F3 2.684842 1_466
Bi7 F18 2.787645 1_555
Bi8 F5 2.277670 1_555
Bi8 F9 2.351891 1_545
Bi8 F14 2.351891 1_545
Bi8 F4 2.362752 1_555
Bi8 F15 2.398262 1_555
Bi8 F8 2.398262 1_555
Bi8 F17 2.463177 1_555
Bi8 F22 2.463177 1_555
Bi9 F4 2.277670 1_555
Bi9 F15 2.351891 1_565
Bi9 F8 2.351891 1_565
Bi9 F5 2.362752 1_455
Bi9 F14 2.398262 1_455
Bi9 F9 2.398262 1_455
Bi9 F23 2.463177 1_555
Bi9 F16 2.463177 1_555
Bi10 F7 2.277670 1_555
Bi10 F12 2.351891 1_545
Bi10 F11 2.351891 1_545
Bi10 F6 2.362752 1_655
Bi10 F13 2.398262 1_655
Bi10 F10 2.398262 1_655
Bi10 F19 2.463177 1_555
Bi10 F20 2.463177 1_555
Bi11 F6 2.277670 1_555
Bi11 F13 2.351891 1_565
Bi11 F10 2.351891 1_565
Bi11 F7 2.362752 1_555
Bi11 F12 2.398262 1_555
Bi11 F11 2.398262 1_555
Bi11 F18 2.463177 1_555
Bi11 F21 2.463177 1_555
