# generated using pymatgen
data_Na5Ca2Mg2PS5O24
_symmetry_space_group_name_H-M   'P 1'
_cell_length_a   9.10095484
_cell_length_b   9.09950076
_cell_length_c   22.94302670
_cell_angle_alpha   90.07880533
_cell_angle_beta   89.84179233
_cell_angle_gamma   119.99486808
_symmetry_Int_Tables_number   1
_chemical_formula_structural   Na5Ca2Mg2PS5O24
_chemical_formula_sum   'Na15 Ca6 Mg6 P3 S15 O72'
_cell_volume   1645.53327237
_cell_formula_units_Z   3
loop_
 _symmetry_equiv_pos_site_id
 _symmetry_equiv_pos_as_xyz
  1  'x, y, z'
loop_
 _atom_site_type_symbol
 _atom_site_label
 _atom_site_symmetry_multiplicity
 _atom_site_fract_x
 _atom_site_fract_y
 _atom_site_fract_z
 _atom_site_occupancy
  Na  Na0  1  0.35981451  0.34833236  0.24898799  1
  Na  Na1  1  0.00651459  0.64774465  0.24469616  1
  Na  Na2  1  0.63751885  0.64725027  0.74652911  1
  Na  Na3  1  0.99379153  0.35296395  0.75598309  1
  Na  Na4  1  0.32163672  0.34655188  0.58418368  1
  Na  Na5  1  0.66716376  0.96615450  0.58787247  1
  Na  Na6  1  0.30022624  0.96759789  0.08702133  1
  Na  Na7  1  0.69376075  0.02689554  0.91587452  1
  Na  Na8  1  0.69679434  0.66600026  0.42053047  1
  Na  Na9  1  0.00494354  0.98534074  0.50002401  1
  Na  Na10  1  0.99968299  0.99943959  0.00071197  1
  Na  Na11  1  0.64988080  0.32181536  0.83689846  1
  Na  Na12  1  0.65117237  0.28745828  0.32906879  1
  Na  Na13  1  0.35032266  0.67875000  0.16590960  1
  Na  Na14  1  0.34185442  0.69413173  0.66841580  1
  Ca  Ca0  1  0.00865952  0.01046043  0.34392875  1
  Ca  Ca1  1  0.99492107  0.98497411  0.65237075  1
  Ca  Ca2  1  0.66418915  0.33158911  0.68573962  1
  Ca  Ca3  1  0.67304726  0.33478801  0.47997684  1
  Ca  Ca4  1  0.32463034  0.66777121  0.51308164  1
  Ca  Ca5  1  0.33552906  0.67265526  0.82516856  1
  Mg  Mg0  1  0.00270922  0.99870027  0.85227101  1
  Mg  Mg1  1  0.99630396  0.99712591  0.15124421  1
  Mg  Mg2  1  0.66529376  0.32601682  0.17853922  1
  Mg  Mg3  1  0.67130443  0.34253540  0.98795911  1
  Mg  Mg4  1  0.32857004  0.65322872  0.01623301  1
  Mg  Mg5  1  0.33665041  0.68384947  0.31347175  1
  P  P0  1  0.30675711  0.00269472  0.24321244  1
  P  P1  1  0.70376378  0.00009773  0.75477504  1
  P  P2  1  0.66332787  0.64011320  0.58163758  1
  S  S0  1  0.69653768  0.69399037  0.24822281  1
  S  S1  1  0.99876526  0.30402845  0.24587904  1
  S  S2  1  0.29484470  0.29735242  0.75267038  1
  S  S3  1  0.00046531  0.70045445  0.75541306  1
  S  S4  1  0.97379323  0.33221336  0.58631447  1
  S  S5  1  0.36512855  0.03269791  0.58226420  1
  S  S6  1  0.96382223  0.63031089  0.08450573  1
  S  S7  1  0.66650100  0.03630584  0.08096432  1
  S  S8  1  0.37207134  0.33424316  0.08406663  1
  S  S9  1  0.63765399  0.66467918  0.91927756  1
  S  S10  1  0.02454175  0.35976948  0.91892031  1
  S  S11  1  0.33661190  0.97719243  0.92361576  1
  S  S12  1  0.63150794  0.96131977  0.41425588  1
  S  S13  1  0.33417650  0.37341831  0.41253355  1
  S  S14  1  0.03007568  0.66541588  0.40972068  1
  O  O0  1  0.23026301  0.04416789  0.29645194  1
  O  O1  1  0.79053368  0.76115183  0.30362035  1
  O  O2  1  0.96470852  0.20882343  0.30064547  1
  O  O3  1  0.19570967  0.18708258  0.80155674  1
  O  O4  1  0.99728248  0.80087460  0.80542380  1
  O  O5  1  0.81517505  0.00844234  0.80752501  1
  O  O6  1  0.78375755  0.98779130  0.69649175  1
  O  O7  1  0.21444238  0.22355866  0.69595080  1
  O  O8  1  0.01967794  0.78821230  0.70002784  1
  O  O9  1  0.78687448  0.81026069  0.19945617  1
  O  O10  1  0.02353455  0.21239883  0.19682100  1
  O  O11  1  0.18801890  0.96898115  0.18955038  1
  O  O12  1  0.89453056  0.34125830  0.64154684  1
  O  O13  1  0.46591707  0.11461365  0.63509877  1
  O  O14  1  0.65223432  0.53985608  0.63767668  1
  O  O15  1  0.88596742  0.53426436  0.13906658  1
  O  O16  1  0.63915509  0.12416350  0.13077812  1
  O  O17  1  0.46959024  0.35940630  0.13889224  1
  O  O18  1  0.46190714  0.30807231  0.03467991  1
  O  O19  1  0.85861593  0.54121510  0.03385000  1
  O  O20  1  0.69023226  0.13485235  0.02647265  1
  O  O21  1  0.45282268  0.13052450  0.52970961  1
  O  O22  1  0.66587794  0.54668596  0.52575386  1
  O  O23  1  0.86576489  0.31514233  0.53614173  1
  O  O24  1  0.53786520  0.69071701  0.96580991  1
  O  O25  1  0.13989535  0.45805101  0.96680468  1
  O  O26  1  0.31114149  0.86807373  0.97555074  1
  O  O27  1  0.55790220  0.87873805  0.47106322  1
  O  O28  1  0.32870652  0.45254271  0.46830852  1
  O  O29  1  0.11932498  0.67248933  0.46345850  1
  O  O30  1  0.12492139  0.66432731  0.35715043  1
  O  O31  1  0.52192130  0.85887765  0.36540724  1
  O  O32  1  0.33721496  0.47823783  0.36197353  1
  O  O33  1  0.08887726  0.44644972  0.86217480  1
  O  O34  1  0.37132633  0.90299854  0.87134814  1
  O  O35  1  0.54911455  0.63570226  0.86239479  1
  O  O36  1  0.00389896  0.81540593  0.41010266  1
  O  O37  1  0.79922454  0.96932196  0.41061069  1
  O  O38  1  0.18581122  0.20082335  0.41161397  1
  O  O39  1  0.00579656  0.18556968  0.91717586  1
  O  O40  1  0.18405497  0.99468449  0.91574658  1
  O  O41  1  0.80648107  0.82732566  0.91654128  1
  O  O42  1  0.99467978  0.17882628  0.58534192  1
  O  O43  1  0.19885965  0.02600200  0.58408738  1
  O  O44  1  0.81927332  0.82183594  0.57980444  1
  O  O45  1  0.98513999  0.80565851  0.08781743  1
  O  O46  1  0.81606434  0.01409529  0.08952253  1
  O  O47  1  0.20097961  0.17466477  0.08844364  1
  O  O48  1  0.69539071  0.16668981  0.75670321  1
  O  O49  1  0.47150090  0.32801037  0.75531352  1
  O  O50  1  0.83467965  0.53456387  0.75607931  1
  O  O51  1  0.68259277  0.52345976  0.23882315  1
  O  O52  1  0.85703538  0.33896241  0.23602157  1
  O  O53  1  0.48584420  0.16124903  0.23488782  1
  O  O54  1  0.66198915  0.51864744  0.93073944  1
  O  O55  1  0.84972921  0.33496438  0.92752472  1
  O  O56  1  0.49280787  0.14822791  0.93077338  1
  O  O57  1  0.65276404  0.13292268  0.41160156  1
  O  O58  1  0.49638420  0.36782731  0.40954089  1
  O  O59  1  0.85828071  0.50957046  0.40808400  1
  O  O60  1  0.35045041  0.48468278  0.07544666  1
  O  O61  1  0.14013090  0.65384943  0.07879490  1
  O  O62  1  0.50580650  0.86492176  0.07634685  1
  O  O63  1  0.34367306  0.86015768  0.58108343  1
  O  O64  1  0.49919081  0.65642543  0.58330755  1
  O  O65  1  0.14517722  0.48412759  0.58300017  1
  O  O66  1  0.31385601  0.83540147  0.25161668  1
  O  O67  1  0.51965829  0.66551317  0.25239603  1
  O  O68  1  0.16124312  0.47425592  0.25072001  1
  O  O69  1  0.30343619  0.46645754  0.75649281  1
  O  O70  1  0.14014253  0.66104257  0.75887553  1
  O  O71  1  0.52660175  0.83646360  0.75677737  1
loop_
_geom_bond_atom_site_label_1
_geom_bond_atom_site_label_2
_geom_bond_distance
_geom_bond_site_symmetry_2
Na0 O67 2.500893 1_555
Na0 O53 2.503401 1_555
Na0 O51 2.557342 1_555
Na0 O68 2.578832 1_555
Na0 O0 2.640988 1_555
Na0 O17 2.697167 1_555
Na0 O32 2.896718 1_555
Na0 O10 2.925768 1_555
Na1 O52 2.441970 1_455
Na1 O66 2.447649 1_555
Na1 O51 2.579954 1_455
Na1 O68 2.592026 1_555
Na1 O15 2.649184 1_455
Na1 O30 2.773507 1_555
Na1 O11 2.836320 1_555
Na1 O1 2.960720 1_455
Na2 O71 2.402918 1_555
Na2 O50 2.482246 1_555
Na2 O49 2.524595 1_555
Na2 O69 2.645595 1_555
Na2 O14 2.707812 1_555
Na2 O35 2.762137 1_555
Na2 O6 2.927344 1_555
Na3 O48 2.376106 1_555
Na3 O70 2.429805 1_655
Na3 O69 2.469502 1_655
Na3 O33 2.584234 1_655
Na3 O50 2.687016 1_555
Na3 O12 2.763488 1_555
Na4 O64 2.450828 1_555
Na4 O65 2.481422 1_555
Na4 O43 2.549077 1_555
Na4 O42 2.577460 1_455
Na4 O7 2.771682 1_555
Na4 O28 2.818893 1_555
Na4 O14 2.894095 1_555
Na5 O44 2.343250 1_555
Na5 O64 2.446108 1_555
Na5 O63 2.604818 1_555
Na5 O42 2.620111 1_565
Na5 O6 2.679447 1_555
Na5 O27 2.832261 1_555
Na5 O13 2.968558 1_565
Na5 O23 3.003280 1_565
Na6 O47 2.463418 1_565
Na6 O61 2.479970 1_555
Na6 O45 2.483876 1_455
Na6 O62 2.485574 1_555
Na6 O11 2.564360 1_555
Na6 O26 2.729992 1_554
Na6 O16 2.858580 1_565
Na6 O18 2.940780 1_565
Na7 O55 2.442574 1_555
Na7 O39 2.459858 1_655
Na7 O41 2.492641 1_545
Na7 O56 2.587454 1_555
Na7 O20 2.725613 1_556
Na7 O5 2.756432 1_555
Na7 O34 2.762478 1_545
Na7 O24 2.888690 1_545
Na8 O58 2.409267 1_555
Na8 O36 2.432131 1_655
Na8 O37 2.442706 1_555
Na8 O59 2.521090 1_555
Na8 O22 2.604616 1_555
Na8 O1 2.815540 1_555
Na9 O44 2.428176 1_455
Na9 O43 2.516985 1_565
Na9 O36 2.573730 1_555
Na9 O42 2.663470 1_465
Na9 O38 2.726539 1_565
Na9 O37 2.735388 1_455
Na10 O39 2.541466 1_664
Na10 O41 2.555553 1_554
Na10 O40 2.582971 1_654
Na10 O45 2.625933 1_555
Na10 O47 2.653476 1_665
Na10 O46 2.676825 1_565
Na11 O48 2.474385 1_555
Na11 O49 2.500184 1_555
Na11 O50 2.598420 1_555
Na11 O56 2.629062 1_555
Na11 O55 2.729148 1_555
Na11 O54 2.765654 1_555
Na12 O57 2.364525 1_555
Na12 O53 2.556426 1_555
Na12 O58 2.634394 1_555
Na12 O59 2.669066 1_555
Na12 O52 2.718433 1_555
Na12 O51 2.894042 1_555
Na13 O66 2.543697 1_555
Na13 O67 2.555382 1_555
Na13 O62 2.586756 1_555
Na13 O68 2.645712 1_555
Na13 O61 2.700351 1_555
Na13 O60 2.723617 1_555
Na14 O63 2.506089 1_555
Na14 O71 2.539413 1_555
Na14 O64 2.540638 1_555
Na14 O70 2.682555 1_555
Na14 O65 2.699094 1_555
Na14 O69 2.789460 1_555
Ca0 O0 2.172177 1_555
Ca0 O2 2.265655 1_455
Ca0 O38 2.285938 1_555
Ca0 O37 2.320734 1_445
Ca0 O36 2.321061 1_545
Ca0 O1 2.333267 1_445
Ca1 O6 2.181070 1_555
Ca1 O8 2.205000 1_655
Ca1 O44 2.272921 1_555
Ca1 O43 2.308962 1_665
Ca1 O7 2.317924 1_665
Ca1 O42 2.342621 1_565
Ca2 O13 2.224246 1_555
Ca2 O14 2.243184 1_555
Ca2 O12 2.287891 1_555
Ca2 O48 2.327705 1_555
Ca2 O49 2.356246 1_555
Ca2 O50 2.358702 1_555
Ca3 O22 2.223729 1_555
Ca3 O21 2.245483 1_555
Ca3 O23 2.257266 1_555
Ca3 O59 2.324473 1_555
Ca3 O57 2.350268 1_555
Ca3 O58 2.405389 1_555
Ca4 O29 2.209372 1_555
Ca4 O28 2.226901 1_555
Ca4 O27 2.245130 1_555
Ca4 O63 2.284614 1_555
Ca4 O65 2.301567 1_555
Ca4 O64 2.304138 1_555
Ca5 O34 2.221481 1_555
Ca5 O71 2.259991 1_555
Ca5 O35 2.298801 1_555
Ca5 O70 2.305021 1_555
Ca5 O33 2.317572 1_555
Ca5 O69 2.352632 1_555
Mg0 O5 2.033703 1_465
Mg0 O4 2.074648 1_455
Mg0 O3 2.088355 1_565
Mg0 O40 2.218065 1_555
Mg0 O41 2.236676 1_455
Mg0 O39 2.248370 1_565
Mg1 O11 2.082819 1_655
Mg1 O9 2.121503 1_555
Mg1 O10 2.121898 1_665
Mg1 O45 2.231647 1_555
Mg1 O46 2.233063 1_565
Mg1 O47 2.266819 1_665
Mg2 O53 2.032715 1_555
Mg2 O16 2.046965 1_555
Mg2 O52 2.145938 1_555
Mg2 O15 2.152668 1_555
Mg2 O17 2.154708 1_555
Mg2 O51 2.208434 1_555
Mg3 O19 2.050920 1_556
Mg3 O18 2.066690 1_556
Mg3 O54 2.107358 1_555
Mg3 O56 2.149442 1_555
Mg3 O55 2.159458 1_555
Mg3 O20 2.170891 1_556
Mg4 O25 2.084426 1_554
Mg4 O24 2.102890 1_554
Mg4 O60 2.133086 1_555
Mg4 O61 2.235509 1_555
Mg4 O26 2.243699 1_554
Mg4 O62 2.261182 1_555
Mg5 O31 2.029853 1_555
Mg5 O66 2.061995 1_555
Mg5 O30 2.096774 1_555
Mg5 O32 2.180407 1_555
Mg5 O67 2.242709 1_555
Mg5 O68 2.284644 1_555
O0 P0 1.541361 1_555
O1 S0 1.483862 1_555
O2 S1 1.468931 1_555
O3 S2 1.473487 1_555
O4 S3 1.475039 1_655
O5 P1 1.558234 1_555
O6 P1 1.551247 1_565
O7 S2 1.480319 1_555
O8 S3 1.464550 1_555
O9 S0 1.474995 1_555
O10 S1 1.482159 1_455
O11 P0 1.566047 1_565
O12 S4 1.478837 1_555
O13 S5 1.478656 1_555
O14 P2 1.551104 1_555
O15 S6 1.487216 1_555
O16 S7 1.483947 1_555
O17 S8 1.491484 1_555
O18 S8 1.482516 1_555
O19 S6 1.467025 1_555
O20 S7 1.490544 1_555
O21 S5 1.473273 1_555
O22 P2 1.543933 1_555
O23 S4 1.472705 1_555
O24 S9 1.493238 1_555
O25 S10 1.474388 1_555
O26 S11 1.493659 1_555
O27 S12 1.485485 1_555
O28 S13 1.480309 1_555
O29 S14 1.461849 1_555
O30 S14 1.484144 1_555
O31 S12 1.481025 1_555
O32 S13 1.494190 1_555
O33 S10 1.482158 1_555
O34 S11 1.484110 1_555
O35 S9 1.488100 1_555
O36 S14 1.498219 1_555
O37 S12 1.493426 1_555
O38 S13 1.473087 1_555
O39 S10 1.507591 1_555
O40 S11 1.485949 1_555
O41 S9 1.510368 1_555
O42 S4 1.499967 1_555
O43 S5 1.484159 1_555
O44 P2 1.550407 1_555
O45 S6 1.509805 1_555
O46 S7 1.486211 1_555
O47 S8 1.510641 1_555
O48 P1 1.555965 1_555
O49 S2 1.489422 1_555
O50 S3 1.509338 1_655
O51 S0 1.507597 1_555
O52 S1 1.492566 1_555
O53 P0 1.556405 1_555
O54 S9 1.476310 1_555
O55 S10 1.503468 1_655
O56 S11 1.502815 1_545
O57 S12 1.475665 1_545
O58 S13 1.503704 1_555
O59 S14 1.496760 1_655
O60 S8 1.490661 1_555
O61 S6 1.514265 1_455
O62 S7 1.517279 1_565
O63 S5 1.482310 1_565
O64 P2 1.573631 1_555
O65 S4 1.480996 1_455
O66 P0 1.567774 1_565
O67 S0 1.499941 1_555
O68 S1 1.519393 1_455
O69 S2 1.503660 1_555
O70 S3 1.485704 1_555
O71 P1 1.555069 1_565
