# generated using pymatgen
data_DyFeSi
_symmetry_space_group_name_H-M   'P 1'
_cell_length_a   4.03922325
_cell_length_b   4.03922325
_cell_length_c   6.38439647
_cell_angle_alpha   90.00000000
_cell_angle_beta   90.00000000
_cell_angle_gamma   90.00000000
_symmetry_Int_Tables_number   1
_chemical_formula_structural   DyFeSi
_chemical_formula_sum   'Dy2 Fe2 Si2'
_cell_volume   104.16349991
_cell_formula_units_Z   2
loop_
 _symmetry_equiv_pos_site_id
 _symmetry_equiv_pos_as_xyz
  1  'x, y, z'
loop_
 _atom_site_type_symbol
 _atom_site_label
 _atom_site_symmetry_multiplicity
 _atom_site_fract_x
 _atom_site_fract_y
 _atom_site_fract_z
 _atom_site_occupancy
  Dy  Dy0  1  0.25000000  0.25000000  0.68793181  1
  Dy  Dy1  1  0.75000000  0.75000000  0.31206819  1
  Fe  Fe0  1  0.75000000  0.25000000  0.00000000  1
  Fe  Fe1  1  0.25000000  0.75000000  0.00000000  1
  Si  Si0  1  0.75000000  0.75000000  0.82124618  1
  Si  Si1  1  0.25000000  0.25000000  0.17875382  1
loop_
_geom_bond_atom_site_label_1
_geom_bond_atom_site_label_2
_geom_bond_distance
_geom_bond_site_symmetry_2
Dy0 Fe1 2.836963 1_556
Dy0 Fe0 2.836963 1_556
Dy0 Fe1 2.836963 1_546
Dy0 Fe0 2.836963 1_456
Dy0 Si0 2.980283 1_445
Dy0 Si0 2.980283 1_455
Dy0 Si0 2.980283 1_545
Dy0 Si0 2.980283 1_555
Dy0 Si1 3.250794 1_555
Dy1 Fe0 2.836963 1_555
Dy1 Fe0 2.836963 1_565
Dy1 Fe1 2.836963 1_555
Dy1 Fe1 2.836963 1_655
Dy1 Si1 2.980283 1_565
Dy1 Si1 2.980283 1_665
Dy1 Si1 2.980283 1_555
Dy1 Si1 2.980283 1_655
Dy1 Si0 3.250794 1_555
Fe0 Si1 2.319752 1_555
Fe0 Si0 2.319752 1_554
Fe0 Si0 2.319752 1_544
Fe0 Si1 2.319752 1_655
Fe1 Si1 2.319752 1_565
Fe1 Si1 2.319752 1_555
Fe1 Si0 2.319752 1_554
Fe1 Si0 2.319752 1_454
