# generated using pymatgen
data_YNi5
_symmetry_space_group_name_H-M   'P 1'
_cell_length_a   4.84287833
_cell_length_b   4.84287091
_cell_length_c   3.90625613
_cell_angle_alpha   90.00000000
_cell_angle_beta   90.00000000
_cell_angle_gamma   120.00032358
_symmetry_Int_Tables_number   1
_chemical_formula_structural   YNi5
_chemical_formula_sum   'Y1 Ni5'
_cell_volume   79.34076485
_cell_formula_units_Z   1
loop_
 _symmetry_equiv_pos_site_id
 _symmetry_equiv_pos_as_xyz
  1  'x, y, z'
loop_
 _atom_site_type_symbol
 _atom_site_label
 _atom_site_symmetry_multiplicity
 _atom_site_fract_x
 _atom_site_fract_y
 _atom_site_fract_z
 _atom_site_occupancy
  Y  Y0  1  -0.00000000  -0.00000000  -0.00000000  1
  Ni  Ni0  1  -0.00000000  0.50000000  0.50000000  1
  Ni  Ni1  1  0.33333400  0.66666700  0.00000000  1
  Ni  Ni2  1  0.66666600  0.33333300  -0.00000000  1
  Ni  Ni3  1  0.50000000  -0.00000000  0.50000000  1
  Ni  Ni4  1  0.50000000  0.50000000  0.50000000  1
loop_
_geom_bond_atom_site_label_1
_geom_bond_atom_site_label_2
_geom_bond_distance
_geom_bond_site_symmetry_2
Ni0 Ni1 2.401908 1_555
Ni0 Ni1 2.401908 1_556
Ni0 Ni2 2.401908 1_456
Ni0 Ni2 2.401908 1_455
Ni0 Ni3 2.421425 1_455
Ni0 Ni3 2.421425 1_565
Ni0 Ni4 2.421439 1_455
Ni0 Ni4 2.421439 1_555
Ni0 Y0 3.110958 1_555
Ni0 Y0 3.110958 1_556
Ni0 Y0 3.110958 1_565
Ni0 Y0 3.110958 1_566
Ni1 Ni3 2.401904 1_565
Ni1 Ni3 2.401904 1_564
Ni1 Ni4 2.401909 1_555
Ni1 Ni4 2.401909 1_554
Ni1 Ni2 2.796021 1_565
Ni1 Y0 2.796025 1_555
Ni1 Y0 2.796025 1_665
Ni1 Ni2 2.796034 1_455
Ni1 Ni2 2.796037 1_555
Ni1 Y0 2.796041 1_565
Ni2 Ni3 2.401904 1_555
Ni2 Ni3 2.401904 1_554
Ni2 Ni4 2.401909 1_555
Ni2 Ni4 2.401909 1_554
Ni2 Y0 2.796025 1_665
Ni2 Y0 2.796025 1_555
Ni2 Y0 2.796041 1_655
Ni3 Ni4 2.421435 1_555
Ni3 Ni4 2.421435 1_545
Ni3 Y0 3.110961 1_655
Ni3 Y0 3.110961 1_556
Ni3 Y0 3.110961 1_555
Ni3 Y0 3.110961 1_656
Ni4 Y0 3.110950 1_666
Ni4 Y0 3.110950 1_556
Ni4 Y0 3.110950 1_555
Ni4 Y0 3.110950 1_665
