# generated using pymatgen
data_Na6La2Al2Si3(SO8)3
_symmetry_space_group_name_H-M   'P 1'
_cell_length_a   9.26181926
_cell_length_b   9.09768221
_cell_length_c   22.92139185
_cell_angle_alpha   91.53368553
_cell_angle_beta   89.99830157
_cell_angle_gamma   119.41453230
_symmetry_Int_Tables_number   1
_chemical_formula_structural   Na6La2Al2Si3(SO8)3
_chemical_formula_sum   'Na18 La6 Al6 Si9 S9 O72'
_cell_volume   1681.61217062
_cell_formula_units_Z   3
loop_
 _symmetry_equiv_pos_site_id
 _symmetry_equiv_pos_as_xyz
  1  'x, y, z'
loop_
 _atom_site_type_symbol
 _atom_site_label
 _atom_site_symmetry_multiplicity
 _atom_site_fract_x
 _atom_site_fract_y
 _atom_site_fract_z
 _atom_site_occupancy
  Na  Na0  1  0.63666208  0.99127165  0.27248354  1
  Na  Na1  1  0.35016995  0.36085087  0.25806623  1
  Na  Na2  1  0.64251786  0.64242007  0.72648632  1
  Na  Na3  1  0.97319840  0.35680620  0.73401522  1
  Na  Na4  1  0.02949096  0.68610671  0.59586984  1
  Na  Na5  1  0.67404833  0.96241787  0.58227107  1
  Na  Na6  1  0.31422253  0.97471393  0.10172451  1
  Na  Na7  1  0.02154622  0.32406130  0.08949957  1
  Na  Na8  1  0.97207395  0.64695638  0.89256564  1
  Na  Na9  1  0.70300377  0.03949909  0.90614231  1
  Na  Na10  1  0.95027606  0.29517779  0.42314113  1
  Na  Na11  1  0.35059107  0.02720145  0.41418846  1
  Na  Na12  1  0.96953469  0.98627869  0.50737278  1
  Na  Na13  1  0.98337406  0.01615112  0.00059452  1
  Na  Na14  1  0.67038674  0.31986950  0.81495003  1
  Na  Na15  1  0.67894140  0.34990865  0.34231146  1
  Na  Na16  1  0.31866502  0.67311283  0.18093310  1
  Na  Na17  1  0.33211115  0.65842700  0.66048212  1
  La  La0  1  0.00245461  0.02316424  0.83123760  1
  La  La1  1  0.99545944  0.00893829  0.17384349  1
  La  La2  1  0.67588560  0.33426658  0.98940829  1
  La  La3  1  0.34529782  0.66096621  0.02160201  1
  La  La4  1  0.35294932  0.65388533  0.51616734  1
  La  La5  1  0.31787401  0.67128794  0.80348594  1
  Al  Al0  1  0.99639587  0.02167072  0.34091711  1
  Al  Al1  1  0.95553290  0.97240347  0.64676698  1
  Al  Al2  1  0.68637489  0.34489429  0.67962236  1
  Al  Al3  1  0.66201613  0.29067102  0.20324692  1
  Al  Al4  1  0.67612277  0.30087085  0.49937661  1
  Al  Al5  1  0.32000631  0.69702625  0.31856198  1
  Si  Si0  1  0.30046180  0.00123832  0.25310273  1
  Si  Si1  1  0.01532469  0.33252567  0.25351550  1
  Si  Si2  1  0.98410068  0.69506265  0.73933060  1
  Si  Si3  1  0.69031595  0.01365318  0.74011927  1
  Si  Si4  1  0.95744056  0.31416907  0.58714971  1
  Si  Si5  1  0.68050035  0.60863360  0.58398524  1
  Si  Si6  1  0.66560457  0.03299858  0.09275108  1
  Si  Si7  1  0.02545446  0.35603142  0.91914112  1
  Si  Si8  1  0.64373915  0.96861072  0.41481419  1
  S  S0  1  0.68427825  0.68698308  0.25606506  1
  S  S1  1  0.31498578  0.29142005  0.73767443  1
  S  S2  1  0.38512699  0.06199341  0.58203480  1
  S  S3  1  0.96884071  0.64077884  0.09101450  1
  S  S4  1  0.36847675  0.33219866  0.09617086  1
  S  S5  1  0.65165530  0.67373440  0.91002088  1
  S  S6  1  0.32093013  0.97560394  0.92174891  1
  S  S7  1  0.31561874  0.34088411  0.40571750  1
  S  S8  1  0.04179303  0.68399996  0.41254708  1
  O  O0  1  0.17502515  0.02804595  0.29787778  1
  O  O1  1  0.81090179  0.79222613  0.30108960  1
  O  O2  1  0.97325130  0.16875744  0.29497025  1
  O  O3  1  0.26763793  0.22886217  0.79801384  1
  O  O4  1  0.98293178  0.76916694  0.80578851  1
  O  O5  1  0.77980902  0.05598787  0.80587941  1
  O  O6  1  0.81754511  0.99618429  0.69420301  1
  O  O7  1  0.18873943  0.18001917  0.69448103  1
  O  O8  1  0.99430209  0.82890453  0.69059614  1
  O  O9  1  0.72797327  0.77254498  0.19944950  1
  O  O10  1  0.07515908  0.29031946  0.19087122  1
  O  O11  1  0.21823938  0.96856467  0.18863692  1
  O  O12  1  0.85762944  0.34524606  0.64006532  1
  O  O13  1  0.49319272  0.15868759  0.63120501  1
  O  O14  1  0.66336310  0.50583016  0.64225305  1
  O  O15  1  0.85258395  0.53416857  0.13510090  1
  O  O16  1  0.66249534  0.16251400  0.14480234  1
  O  O17  1  0.46868391  0.33009237  0.14580287  1
  O  O18  1  0.45040879  0.34531520  0.03910470  1
  O  O19  1  0.90270762  0.57922772  0.03039836  1
  O  O20  1  0.66910729  0.10892188  0.02750719  1
  O  O21  1  0.46764331  0.14286567  0.52491578  1
  O  O22  1  0.69203256  0.49590364  0.52698351  1
  O  O23  1  0.84260442  0.27659573  0.52593261  1
  O  O24  1  0.56529407  0.67933514  0.96421978  1
  O  O25  1  0.11075341  0.44388689  0.98335014  1
  O  O26  1  0.32614202  0.89782303  0.97766421  1
  O  O27  1  0.58944231  0.87112820  0.47622098  1
  O  O28  1  0.27579828  0.40663205  0.46014330  1
  O  O29  1  0.13358715  0.71747311  0.46922814  1
  O  O30  1  0.14555641  0.66133083  0.36657973  1
  O  O31  1  0.49513394  0.85862968  0.36452645  1
  O  O32  1  0.34033433  0.45279354  0.35731709  1
  O  O33  1  0.13188492  0.47126568  0.86458582  1
  O  O34  1  0.33872127  0.87684720  0.87250309  1
  O  O35  1  0.56218926  0.68059259  0.85794321  1
  O  O36  1  0.02402927  0.83352536  0.40015189  1
  O  O37  1  0.83008623  0.00526129  0.39348750  1
  O  O38  1  0.16139596  0.16951445  0.39756883  1
  O  O39  1  0.99471644  0.16360359  0.91698612  1
  O  O40  1  0.16053189  0.97203876  0.91770900  1
  O  O41  1  0.82001310  0.82501185  0.91376614  1
  O  O42  1  0.97145245  0.14006731  0.59513332  1
  O  O43  1  0.21894027  0.04290245  0.58195918  1
  O  O44  1  0.85066740  0.80295141  0.58719223  1
  O  O45  1  0.00813765  0.81914520  0.09406713  1
  O  O46  1  0.83797663  0.02523823  0.09664658  1
  O  O47  1  0.20493127  0.17290560  0.09171573  1
  O  O48  1  0.66640262  0.17532969  0.72778445  1
  O  O49  1  0.48339392  0.31700340  0.72960584  1
  O  O50  1  0.81383353  0.50846482  0.73798554  1
  O  O51  1  0.66863876  0.51496414  0.25128038  1
  O  O52  1  0.83378900  0.32823884  0.24922735  1
  O  O53  1  0.49107729  0.17501397  0.25259574  1
  O  O54  1  0.66803805  0.51977869  0.90756168  1
  O  O55  1  0.84022118  0.34386920  0.91301153  1
  O  O56  1  0.46304612  0.14861674  0.91774216  1
  O  O57  1  0.65317108  0.16185732  0.42628433  1
  O  O58  1  0.46024362  0.31697434  0.41347843  1
  O  O59  1  0.88281894  0.52446451  0.41303543  1
  O  O60  1  0.33761099  0.47812210  0.10268892  1
  O  O61  1  0.12901438  0.63558748  0.09695800  1
  O  O62  1  0.48941265  0.85487661  0.09788884  1
  O  O63  1  0.37012615  0.88885973  0.58155886  1
  O  O64  1  0.52815456  0.65444610  0.58393483  1
  O  O65  1  0.13396806  0.49063873  0.58031541  1
  O  O66  1  0.33824658  0.84751369  0.26672421  1
  O  O67  1  0.51662004  0.66467051  0.27028778  1
  O  O68  1  0.17638538  0.51080671  0.27512147  1
  O  O69  1  0.32639020  0.46258027  0.73555505  1
  O  O70  1  0.13892379  0.65609207  0.73103647  1
  O  O71  1  0.52165762  0.82987870  0.73750491  1
loop_
_geom_bond_atom_site_label_1
_geom_bond_atom_site_label_2
_geom_bond_distance
_geom_bond_site_symmetry_2
Na0 O66 2.409791 1_555
Na0 O31 2.491561 1_555
Na0 O67 2.610452 1_555
Na0 O53 2.659903 1_565
Na0 O2 2.757257 1_565
Na0 O52 2.757764 1_565
Na1 O32 2.420005 1_555
Na1 O67 2.422429 1_555
Na1 O51 2.576751 1_555
Na1 O68 2.594798 1_555
Na1 O53 2.594848 1_555
Na1 O10 2.759281 1_555
Na1 O0 2.820445 1_555
Na1 O17 2.857914 1_555
Na2 O14 2.327323 1_555
Na2 O50 2.447209 1_555
Na2 O71 2.465242 1_555
Na2 O69 2.570132 1_555
Na2 O49 2.582153 1_555
Na3 O12 2.381515 1_555
Na3 O70 2.383099 1_655
Na3 O50 2.466618 1_555
Na3 O48 2.489907 1_555
Na3 O69 2.921335 1_655
Na4 O44 2.377678 1_455
Na4 O65 2.425303 1_555
Na4 O8 2.602532 1_455
Na4 O63 2.789201 1_555
Na4 O43 2.859706 1_565
Na4 O12 2.914780 1_455
Na4 O29 3.034990 1_555
Na5 O42 2.426529 1_565
Na5 O64 2.442238 1_555
Na5 O27 2.542728 1_555
Na5 O63 2.553572 1_555
Na5 O44 2.670806 1_555
Na5 O6 2.828461 1_555
Na5 O23 2.844127 1_565
Na6 O11 2.172349 1_555
Na6 O62 2.358301 1_555
Na6 O45 2.473109 1_555
Na6 O47 2.478563 1_565
Na6 O61 2.693850 1_555
Na6 O26 2.925259 1_554
Na6 O16 2.965705 1_565
Na6 O17 2.966900 1_565
Na7 O46 2.406655 1_455
Na7 O10 2.434705 1_555
Na7 O61 2.501121 1_555
Na7 O60 2.563672 1_555
Na7 O25 2.654832 1_554
Na7 O47 2.660164 1_555
Na8 O4 2.282796 1_555
Na8 O55 2.464904 1_555
Na8 O54 2.491438 1_555
Na8 O40 2.638906 1_655
Na8 O41 2.653750 1_555
Na8 O33 2.725040 1_655
Na9 O39 2.371689 1_555
Na9 O5 2.392412 1_555
Na9 O55 2.414048 1_555
Na9 O41 2.666107 1_545
Na9 O56 2.854536 1_555
Na9 O20 2.887356 1_556
Na10 O37 2.382864 1_555
Na10 O57 2.403057 1_555
Na10 O59 2.470083 1_555
Na10 O23 2.535738 1_555
Na10 O38 2.762938 1_655
Na10 O28 2.790806 1_655
Na11 O58 2.313877 1_555
Na11 O57 2.457838 1_555
Na11 O36 2.662920 1_545
Na11 O38 2.673356 1_555
Na11 O31 2.713495 1_545
Na11 O21 2.731451 1_555
Na11 O29 2.863293 1_545
Na12 O44 2.387623 1_555
Na12 O42 2.414394 1_565
Na12 O43 2.703389 1_665
Na12 O36 2.955017 1_655
Na12 O37 2.958982 1_565
Na13 O39 2.341462 1_554
Na13 O41 2.550429 1_544
Na13 O46 2.601340 1_555
Na13 O40 2.658671 1_644
Na13 O47 2.751960 1_655
Na13 O45 2.909415 1_645
Na14 O48 2.352459 1_555
Na14 O50 2.396662 1_555
Na14 O49 2.603843 1_555
Na14 O55 2.685274 1_555
Na14 O54 2.765249 1_555
Na15 O59 2.373260 1_555
Na15 O58 2.506668 1_555
Na15 O57 2.542405 1_555
Na15 O53 2.625584 1_555
Na15 O52 2.627367 1_555
Na15 O51 2.631763 1_555
Na16 O66 2.442871 1_555
Na16 O61 2.506560 1_555
Na16 O62 2.541323 1_555
Na16 O60 2.555326 1_555
Na16 O68 2.614775 1_555
Na16 O67 2.776536 1_555
Na17 O70 2.404497 1_555
Na17 O71 2.407259 1_555
Na17 O65 2.484540 1_555
Na17 O69 2.491967 1_555
Na17 O64 2.537255 1_555
Na17 O63 2.696186 1_555
La0 O4 2.286950 1_445
La0 O5 2.300762 1_455
La0 O39 2.335849 1_455
La0 O3 2.382398 1_555
La0 O41 2.621783 1_445
La0 O40 2.647035 1_545
La1 O11 2.293127 1_645
La1 O10 2.311024 1_655
La1 O46 2.346718 1_555
La1 O9 2.437481 1_545
La1 O45 2.523699 1_645
La1 O47 2.615401 1_655
La2 O20 2.222372 1_556
La2 O55 2.295235 1_555
La2 O19 2.356265 1_556
La2 O18 2.422539 1_556
La2 O56 2.453233 1_555
La2 O54 2.581322 1_555
La3 O25 2.254201 1_554
La3 O62 2.339547 1_555
La3 O24 2.363622 1_554
La3 O26 2.486127 1_554
La3 O60 2.505157 1_555
La3 O61 2.572220 1_555
La4 O64 2.244472 1_555
La4 O27 2.320942 1_555
La4 O28 2.342261 1_555
La4 O65 2.374692 1_555
La4 O63 2.517183 1_555
La4 O29 2.609204 1_555
La5 O70 2.299271 1_555
La5 O33 2.301612 1_555
La5 O71 2.317993 1_555
La5 O34 2.350363 1_555
La5 O69 2.454548 1_555
La5 O35 2.547921 1_555
Al0 O2 1.817404 1_555
Al0 O0 1.903273 1_655
Al0 O37 1.905399 1_555
Al0 O38 1.928300 1_655
Al0 O1 2.125511 1_545
Al0 O36 2.322406 1_645
Al1 O6 1.766713 1_555
Al1 O8 1.836637 1_555
Al1 O44 1.897704 1_555
Al1 O42 1.903907 1_565
Al1 O7 2.304623 1_665
Al2 O14 1.815623 1_555
Al2 O12 1.825653 1_555
Al2 O48 1.855671 1_555
Al2 O50 1.888298 1_555
Al2 O13 2.055482 1_555
Al2 O49 2.111436 1_555
Al3 O16 1.753711 1_555
Al3 O52 1.790355 1_555
Al3 O53 1.822218 1_555
Al3 O51 2.266404 1_555
Al3 O17 2.392656 1_555
Al4 O23 1.771596 1_555
Al4 O22 1.803754 1_555
Al4 O21 1.859038 1_555
Al4 O57 2.018433 1_555
Al5 O66 1.781748 1_555
Al5 O68 1.824082 1_555
Al5 O30 1.852312 1_555
Al5 O31 1.864740 1_555
Al5 O67 2.266280 1_555
Al5 O32 2.505635 1_555
O0 Si0 1.651467 1_555
O1 S0 1.483719 1_555
O2 Si1 1.667347 1_655
O3 S1 1.491989 1_555
O4 Si2 1.651452 1_555
O5 Si3 1.662163 1_555
O6 Si3 1.642080 1_565
O7 S1 1.468642 1_555
O8 Si2 1.642932 1_555
O9 S0 1.482689 1_555
O10 Si1 1.641888 1_555
O11 Si0 1.614289 1_565
O12 Si4 1.626019 1_555
O13 S2 1.458775 1_555
O14 Si5 1.613921 1_555
O15 S3 1.465556 1_555
O16 Si6 1.664551 1_555
O17 S4 1.474669 1_555
O18 S4 1.490096 1_555
O19 S3 1.496894 1_555
O20 Si6 1.657679 1_555
O21 S2 1.529289 1_555
O22 Si5 1.675166 1_555
O23 Si4 1.683535 1_555
O24 S5 1.490740 1_555
O25 Si7 1.657083 1_555
O26 S6 1.492585 1_555
O27 Si8 1.627656 1_555
O28 S7 1.492254 1_555
O29 S8 1.492671 1_555
O30 S8 1.503086 1_555
O31 Si8 1.676244 1_555
O32 S7 1.466719 1_555
O33 Si7 1.639967 1_555
O34 S6 1.483121 1_555
O35 S5 1.473171 1_555
O36 S8 1.482844 1_555
O37 Si8 1.665031 1_545
O38 S7 1.517520 1_555
O39 Si7 1.629135 1_655
O40 S6 1.472784 1_555
O41 S5 1.489519 1_555
O42 Si4 1.666302 1_555
O43 S2 1.461737 1_555
O44 Si5 1.694376 1_555
O45 S3 1.477967 1_455
O46 Si6 1.634858 1_555
O47 S4 1.496969 1_555
O48 Si3 1.623187 1_555
O49 S1 1.472054 1_555
O50 Si2 1.654485 1_555
O51 S0 1.500101 1_555
O52 Si1 1.665388 1_655
O53 Si0 1.695815 1_555
O54 S5 1.480716 1_555
O55 Si7 1.669725 1_655
O56 S6 1.480265 1_545
O57 Si8 1.729757 1_545
O58 S7 1.470197 1_555
O59 S8 1.475262 1_655
O60 S4 1.492861 1_555
O61 S3 1.513519 1_455
O62 Si6 1.647896 1_565
O63 S2 1.511468 1_565
O64 Si5 1.655991 1_555
O65 Si4 1.646308 1_455
O66 Si0 1.637064 1_565
O67 S0 1.500877 1_555
O68 Si1 1.637588 1_555
O69 S1 1.510219 1_555
O70 Si2 1.647356 1_455
O71 Si3 1.633505 1_565
