# generated using pymatgen
data_LiAg2Sn
_symmetry_space_group_name_H-M   'P 1'
_cell_length_a   4.68203629
_cell_length_b   4.68203633
_cell_length_c   4.68203553
_cell_angle_alpha   60.00000561
_cell_angle_beta   60.00000533
_cell_angle_gamma   59.99999540
_symmetry_Int_Tables_number   1
_chemical_formula_structural   LiAg2Sn
_chemical_formula_sum   'Li1 Ag2 Sn1'
_cell_volume   72.57537418
_cell_formula_units_Z   1
loop_
 _symmetry_equiv_pos_site_id
 _symmetry_equiv_pos_as_xyz
  1  'x, y, z'
loop_
 _atom_site_type_symbol
 _atom_site_label
 _atom_site_symmetry_multiplicity
 _atom_site_fract_x
 _atom_site_fract_y
 _atom_site_fract_z
 _atom_site_occupancy
  Li  Li0  1  0.00000000  -0.00000000  -0.00000000  1
  Ag  Ag0  1  0.75000000  0.75000000  0.75000000  1
  Ag  Ag1  1  0.25000000  0.25000000  0.25000000  1
  Sn  Sn0  1  0.50000000  0.50000000  0.50000000  1
loop_
_geom_bond_atom_site_label_1
_geom_bond_atom_site_label_2
_geom_bond_distance
_geom_bond_site_symmetry_2
Li0 Sn0 3.310699 1_544
Li0 Sn0 3.310699 1_545
Li0 Sn0 3.310699 1_455
Li0 Sn0 3.310699 1_454
Li0 Sn0 3.310700 1_445
Li0 Sn0 3.310700 1_554
Ag0 Li0 2.867150 1_665
Ag0 Sn0 2.867150 1_556
Ag0 Li0 2.867150 1_666
Ag0 Sn0 2.867150 1_555
Ag0 Sn0 2.867150 1_655
Ag0 Li0 2.867150 1_566
Ag0 Sn0 2.867150 1_565
Ag0 Li0 2.867150 1_656
Ag1 Sn0 2.867150 1_554
Ag1 Li0 2.867150 1_556
Ag1 Li0 2.867150 1_555
Ag1 Sn0 2.867150 1_555
Ag1 Li0 2.867150 1_655
Ag1 Sn0 2.867150 1_455
Ag1 Sn0 2.867150 1_545
Ag1 Li0 2.867150 1_565
