# generated using pymatgen
data_RbSF5
_symmetry_space_group_name_H-M   'P 1'
_cell_length_a   6.06291462
_cell_length_b   7.60377248
_cell_length_c   9.76935768
_cell_angle_alpha   90.00000000
_cell_angle_beta   90.00000000
_cell_angle_gamma   90.00000000
_symmetry_Int_Tables_number   1
_chemical_formula_structural   RbSF5
_chemical_formula_sum   'Rb4 S4 F20'
_cell_volume   450.37738638
_cell_formula_units_Z   4
loop_
 _symmetry_equiv_pos_site_id
 _symmetry_equiv_pos_as_xyz
  1  'x, y, z'
loop_
 _atom_site_type_symbol
 _atom_site_label
 _atom_site_symmetry_multiplicity
 _atom_site_fract_x
 _atom_site_fract_y
 _atom_site_fract_z
 _atom_site_occupancy
  Rb  Rb0  1  0.25000000  0.65344768  0.65874238  1
  Rb  Rb1  1  0.75000000  0.34655232  0.34125762  1
  Rb  Rb2  1  0.75000000  0.15344768  0.84125762  1
  Rb  Rb3  1  0.25000000  0.84655232  0.15874238  1
  S  S0  1  0.25000000  0.15318561  0.59335526  1
  S  S1  1  0.75000000  0.84681439  0.40664474  1
  S  S2  1  0.75000000  0.65318561  0.90664474  1
  S  S3  1  0.25000000  0.34681439  0.09335526  1
  F  F0  1  0.25000000  0.21516774  0.75081072  1
  F  F1  1  0.75000000  0.78483226  0.24918928  1
  F  F2  1  0.75000000  0.71516774  0.74918928  1
  F  F3  1  0.25000000  0.28483226  0.25081072  1
  F  F4  1  0.95671550  0.68437409  0.42629269  1
  F  F5  1  0.45671550  0.31562591  0.57370731  1
  F  F6  1  0.04328450  0.18437409  0.07370731  1
  F  F7  1  0.54328450  0.81562591  0.92629269  1
  F  F8  1  0.45071976  0.49633444  0.14510439  1
  F  F9  1  0.95071976  0.50366556  0.85489561  1
  F  F10  1  0.54928024  0.99633444  0.35489561  1
  F  F11  1  0.04928024  0.00366556  0.64510439  1
  F  F12  1  0.54928024  0.50366556  0.85489561  1
  F  F13  1  0.04928024  0.49633444  0.14510439  1
  F  F14  1  0.45071976  0.00366556  0.64510439  1
  F  F15  1  0.95071976  0.99633444  0.35489561  1
  F  F16  1  0.45671550  0.18437409  0.07370731  1
  F  F17  1  0.95671550  0.81562591  0.92629269  1
  F  F18  1  0.54328450  0.68437409  0.42629269  1
  F  F19  1  0.04328450  0.31562591  0.57370731  1
loop_
_geom_bond_atom_site_label_1
_geom_bond_atom_site_label_2
_geom_bond_distance
_geom_bond_site_symmetry_2
F0 S0 1.608819 1_555
F1 S1 1.608819 1_555
F2 S2 1.608819 1_555
F3 S3 1.608819 1_555
F4 S1 1.770090 1_555
F4 Rb0 2.893797 1_655
F4 Rb1 2.976442 1_555
F5 S0 1.770090 1_555
F5 Rb1 2.893797 1_555
F5 Rb0 2.976442 1_555
F6 S3 1.770090 1_555
F6 Rb2 2.893797 1_454
F6 Rb3 2.976442 1_545
F7 S2 1.770090 1_555
F7 Rb3 2.893797 1_556
F7 Rb2 2.976442 1_565
F8 S3 1.740438 1_555
F8 Rb1 2.874323 1_555
F8 Rb3 2.930897 1_555
F9 S2 1.740438 1_555
F9 Rb0 2.874323 1_655
F9 Rb2 2.930897 1_555
F10 S1 1.740438 1_555
F10 Rb3 2.874323 1_555
F10 Rb1 2.930897 1_565
F11 S0 1.740438 1_555
F11 Rb2 2.874323 1_455
F11 Rb0 2.930897 1_545
F12 S2 1.740438 1_555
F12 Rb0 2.874323 1_555
F12 Rb2 2.930897 1_555
F13 S3 1.740438 1_555
F13 Rb1 2.874323 1_455
F13 Rb3 2.930897 1_555
F14 S0 1.740438 1_555
F14 Rb2 2.874323 1_555
F14 Rb0 2.930897 1_545
F15 S1 1.740438 1_555
F15 Rb3 2.874323 1_655
F15 Rb1 2.930897 1_565
F16 S3 1.770090 1_555
F16 Rb2 2.893797 1_554
F16 Rb3 2.976442 1_545
F17 S2 1.770090 1_555
F17 Rb3 2.893797 1_656
F17 Rb2 2.976442 1_565
F18 S1 1.770090 1_555
F18 Rb0 2.893797 1_555
F18 Rb1 2.976442 1_555
F19 S0 1.770090 1_555
F19 Rb1 2.893797 1_455
F19 Rb0 2.976442 1_555
