# generated using pymatgen
data_LiCuPO4
_symmetry_space_group_name_H-M   'P 1'
_cell_length_a   9.71432900
_cell_length_b   5.01813400
_cell_length_c   8.53886445
_cell_angle_alpha   53.97257186
_cell_angle_beta   90.00000000
_cell_angle_gamma   90.00000000
_symmetry_Int_Tables_number   1
_chemical_formula_structural   LiCuPO4
_chemical_formula_sum   'Li4 Cu4 P4 O16'
_cell_volume   336.63688580
_cell_formula_units_Z   4
loop_
 _symmetry_equiv_pos_site_id
 _symmetry_equiv_pos_as_xyz
  1  'x, y, z'
loop_
 _atom_site_type_symbol
 _atom_site_label
 _atom_site_symmetry_multiplicity
 _atom_site_fract_x
 _atom_site_fract_y
 _atom_site_fract_z
 _atom_site_occupancy
  Li  Li0  1  0.33021000  0.21804500  0.48440200  1
  Li  Li1  1  0.66979000  0.78195500  0.51559800  1
  Li  Li2  1  0.16979000  0.21804500  0.98440200  1
  Li  Li3  1  0.83021000  0.78195500  0.01559800  1
  Cu  Cu0  1  0.13025100  0.74321000  0.48893600  1
  Cu  Cu1  1  0.36974900  0.74321000  0.98893600  1
  Cu  Cu2  1  0.86974900  0.25679000  0.51106400  1
  Cu  Cu3  1  0.63025100  0.25679000  0.01106400  1
  P  P0  1  0.90547200  0.05459200  0.24675500  1
  P  P1  1  0.09452800  0.94540800  0.75324500  1
  P  P2  1  0.40547200  0.94540800  0.25324500  1
  P  P3  1  0.59452800  0.05459200  0.74675500  1
  O  O0  1  0.32643100  0.89600900  0.42589900  1
  O  O1  1  0.62221800  0.35581500  0.75237000  1
  O  O2  1  0.37778200  0.64418500  0.24763000  1
  O  O3  1  0.43818900  0.02005100  0.72083300  1
  O  O4  1  0.17356900  0.89600900  0.92589900  1
  O  O5  1  0.93818900  0.97994900  0.77916700  1
  O  O6  1  0.56181100  0.97994900  0.27916700  1
  O  O7  1  0.63653900  0.73584100  0.94721200  1
  O  O8  1  0.86346100  0.73584100  0.44721200  1
  O  O9  1  0.36346100  0.26415900  0.05278800  1
  O  O10  1  0.12221800  0.64418500  0.74763000  1
  O  O11  1  0.82643100  0.10399100  0.07410100  1
  O  O12  1  0.06181100  0.02005100  0.22083300  1
  O  O13  1  0.13653900  0.26415900  0.55278800  1
  O  O14  1  0.87778200  0.35581500  0.25237000  1
  O  O15  1  0.67356900  0.10399100  0.57410100  1
loop_
_geom_bond_atom_site_label_1
_geom_bond_atom_site_label_2
_geom_bond_distance
_geom_bond_site_symmetry_2
Li0 O2 1.946320 1_555
Li0 O3 1.950291 1_555
Li0 O0 1.952449 1_545
Li0 O13 2.023140 1_555
Li1 O1 1.946320 1_555
Li1 O6 1.950291 1_555
Li1 O15 1.952449 1_565
Li1 O8 2.023140 1_555
Li2 O10 1.946320 1_555
Li2 O12 1.950291 1_556
Li2 O4 1.952449 1_545
Li2 O9 2.023140 1_556
Li3 O14 1.946320 1_555
Li3 O5 1.950291 1_554
Li3 O11 1.952449 1_565
Li3 O7 2.023140 1_554
Cu0 O10 1.959911 1_555
Cu0 O12 1.967653 1_565
Cu0 O0 2.006007 1_555
Cu0 O13 2.130286 1_555
Cu1 O2 1.959911 1_556
Cu1 O3 1.967653 1_565
Cu1 O4 2.006007 1_555
Cu1 O9 2.130286 1_556
Cu2 O14 1.959911 1_555
Cu2 O5 1.967653 1_545
Cu2 O15 2.006007 1_555
Cu2 O8 2.130286 1_555
Cu3 O1 1.959911 1_554
Cu3 O6 1.967653 1_545
Cu3 O11 2.006007 1_555
Cu3 O7 2.130286 1_554
O0 P2 1.547442 1_555
O1 P3 1.563577 1_555
O2 P2 1.563577 1_555
O3 P3 1.559072 1_555
O4 P1 1.547442 1_555
O5 P1 1.559072 1_655
O6 P2 1.559072 1_555
O7 P3 1.560193 1_565
O8 P0 1.560193 1_565
O9 P2 1.560193 1_545
O10 P1 1.563577 1_555
O11 P0 1.547442 1_555
O12 P0 1.559072 1_455
O13 P1 1.560193 1_545
O14 P0 1.563577 1_555
O15 P3 1.547442 1_555
