# generated using pymatgen
data_Li3PWCO7
_symmetry_space_group_name_H-M   'P 1'
_cell_length_a   6.67115900
_cell_length_b   5.11244300
_cell_length_c   9.27897270
_cell_angle_alpha   84.04527126
_cell_angle_beta   90.00000000
_cell_angle_gamma   90.00000000
_symmetry_Int_Tables_number   1
_chemical_formula_structural   Li3PWCO7
_chemical_formula_sum   'Li6 P2 W2 C2 O14'
_cell_volume   314.76029683
_cell_formula_units_Z   2
loop_
 _symmetry_equiv_pos_site_id
 _symmetry_equiv_pos_as_xyz
  1  'x, y, z'
loop_
 _atom_site_type_symbol
 _atom_site_label
 _atom_site_symmetry_multiplicity
 _atom_site_fract_x
 _atom_site_fract_y
 _atom_site_fract_z
 _atom_site_occupancy
  Li  Li0  1  0.96272700  0.18175800  0.74323000  1
  Li  Li1  1  0.03727300  0.81824200  0.25677000  1
  Li  Li2  1  0.25000000  0.32479900  0.11383500  1
  Li  Li3  1  0.75000000  0.67520100  0.88616500  1
  Li  Li4  1  0.53727300  0.18175800  0.74323000  1
  Li  Li5  1  0.46272700  0.81824200  0.25677000  1
  P  P0  1  0.25000000  0.26950800  0.39060400  1
  P  P1  1  0.75000000  0.73049200  0.60939600  1
  W  W0  1  0.75000000  0.34606000  0.32439600  1
  W  W1  1  0.25000000  0.65394000  0.67560400  1
  C  C0  1  0.75000000  0.15933800  0.04025600  1
  C  C1  1  0.25000000  0.84066200  0.95974400  1
  O  O0  1  0.75000000  0.68377500  0.44837900  1
  O  O1  1  0.75000000  0.40956800  0.03415300  1
  O  O2  1  0.25000000  0.97455000  0.82797100  1
  O  O3  1  0.75000000  0.02545000  0.17202900  1
  O  O4  1  0.57006200  0.59358100  0.69766700  1
  O  O5  1  0.25000000  0.59043200  0.96584700  1
  O  O6  1  0.92993800  0.59358100  0.69766700  1
  O  O7  1  0.42993800  0.40641900  0.30233300  1
  O  O8  1  0.07006200  0.40641900  0.30233300  1
  O  O9  1  0.25000000  0.97428900  0.37311400  1
  O  O10  1  0.75000000  0.03822000  0.92457400  1
  O  O11  1  0.25000000  0.96178000  0.07542600  1
  O  O12  1  0.75000000  0.02571100  0.62688600  1
  O  O13  1  0.25000000  0.31622500  0.55162100  1
loop_
_geom_bond_atom_site_label_1
_geom_bond_atom_site_label_2
_geom_bond_distance
_geom_bond_site_symmetry_2
Li0 O12 1.998632 1_555
Li0 O6 2.115349 1_555
Li0 O10 2.264438 1_555
Li0 O2 2.289194 1_645
Li1 O9 1.998632 1_555
Li1 O8 2.115349 1_555
Li1 O11 2.264438 1_555
Li1 O3 2.289194 1_465
Li2 O5 1.828373 1_554
Li2 O11 1.925792 1_545
Li2 O7 2.196757 1_555
Li2 O8 2.196757 1_555
Li3 O1 1.828373 1_556
Li3 O10 1.925792 1_565
Li3 O6 2.196757 1_555
Li3 O4 2.196757 1_555
Li4 O12 1.998632 1_555
Li4 O4 2.115349 1_555
Li4 O10 2.264438 1_555
Li4 O2 2.289194 1_545
Li5 O9 1.998632 1_555
Li5 O7 2.115349 1_555
Li5 O11 2.264438 1_555
Li5 O3 2.289194 1_565
C0 O1 1.274657 1_555
C0 O10 1.293653 1_554
C0 O3 1.337879 1_555
C1 O5 1.274657 1_555
C1 O11 1.293653 1_556
C1 O2 1.337879 1_555
O0 P1 1.537314 1_555
O0 W0 2.171772 1_555
O1 W0 2.679008 1_555
O2 W1 2.272956 1_555
O3 W0 2.272956 1_555
O4 P1 1.575688 1_555
O4 W1 2.164033 1_555
O5 W1 2.679008 1_555
O6 P1 1.575688 1_555
O6 W1 2.164033 1_655
O7 P0 1.575688 1_555
O7 W0 2.164033 1_555
O8 P0 1.575688 1_555
O8 W0 2.164033 1_455
O9 P0 1.534639 1_565
O12 P1 1.534639 1_545
O13 P0 1.537314 1_555
O13 W1 2.171772 1_555
