# generated using pymatgen
data_Na10La4Ga4Si5S7O48
_symmetry_space_group_name_H-M   'P 1'
_cell_length_a   18.41125832
_cell_length_b   9.26864278
_cell_length_c   23.24423248
_cell_angle_alpha   89.46168700
_cell_angle_beta   88.58820825
_cell_angle_gamma   120.18016646
_symmetry_Int_Tables_number   1
_chemical_formula_structural   Na10La4Ga4Si5S7O48
_chemical_formula_sum   'Na30 La12 Ga12 Si15 S21 O144'
_cell_volume   3426.76480918
_cell_formula_units_Z   3
loop_
 _symmetry_equiv_pos_site_id
 _symmetry_equiv_pos_as_xyz
  1  'x, y, z'
loop_
 _atom_site_type_symbol
 _atom_site_label
 _atom_site_symmetry_multiplicity
 _atom_site_fract_x
 _atom_site_fract_y
 _atom_site_fract_z
 _atom_site_occupancy
  Na  Na0  1  0.32589592  -0.00065141  0.25049467  1
  Na  Na1  1  0.81406905  0.98131839  0.25973235  1
  Na  Na2  1  0.18844948  0.38483646  0.24104645  1
  Na  Na3  1  0.66438812  0.35031443  0.24755057  1
  Na  Na4  1  0.99487409  0.63904977  0.26710472  1
  Na  Na5  1  0.49555238  0.61776460  0.25976045  1
  Na  Na6  1  0.83041934  0.65014670  0.73270154  1
  Na  Na7  1  0.99043246  0.35292780  0.75049771  1
  Na  Na8  1  0.49476306  0.34754852  0.75623830  1
  Na  Na9  1  0.17427815  0.99748430  0.73174851  1
  Na  Na10  1  0.01979579  0.71191785  0.58696387  1
  Na  Na11  1  0.32986247  0.99091301  0.59463243  1
  Na  Na12  1  0.02432671  0.32659539  0.08719847  1
  Na  Na13  1  0.50838759  0.33056432  0.09403133  1
  Na  Na14  1  0.15864046  0.30096803  0.93236802  1
  Na  Na15  1  0.65996884  0.29669732  0.93327563  1
  Na  Na16  1  0.16569747  0.01969928  0.42742839  1
  Na  Na17  1  0.66206065  0.04344740  0.42042053  1
  Na  Na18  1  0.98785343  0.99452929  0.50992577  1
  Na  Na19  1  0.51258945  0.99537201  0.48668164  1
  Na  Na20  1  0.00246092  0.00493123  0.00307885  1
  Na  Na21  1  0.50779190  0.00069789  0.01127014  1
  Na  Na22  1  0.34804166  0.33117898  0.83486387  1
  Na  Na23  1  0.85084930  0.31295038  0.82661686  1
  Na  Na24  1  0.35478775  0.36502660  0.34051218  1
  Na  Na25  1  0.84403106  0.36494848  0.34306059  1
  Na  Na26  1  0.18017423  0.66149191  0.17398406  1
  Na  Na27  1  0.67950361  0.65885390  0.16405200  1
  Na  Na28  1  0.17104251  0.67657794  0.66992633  1
  Na  Na29  1  0.69212798  0.72525299  0.65103486  1
  La  La0  1  0.98573528  0.98124415  0.35470079  1
  La  La1  1  0.98601978  0.98319767  0.84564002  1
  La  La2  1  0.49419288  0.01472037  0.84694247  1
  La  La3  1  0.51440542  0.01097380  0.63923225  1
  La  La4  1  0.99339263  0.99727693  0.16294264  1
  La  La5  1  0.82314639  0.33065512  0.18073623  1
  La  La6  1  0.34098016  0.33636474  0.98932997  1
  La  La7  1  0.83374610  0.33311355  0.98763410  1
  La  La8  1  0.17293165  0.65823236  0.02088750  1
  La  La9  1  0.17060534  0.66635257  0.51879498  1
  La  La10  1  0.16308887  0.66694236  0.81334646  1
  La  La11  1  0.67116899  0.69587722  0.81145548  1
  Ga  Ga0  1  0.47894946  0.95881768  0.34333453  1
  Ga  Ga1  1  0.00852032  0.99041747  0.64885535  1
  Ga  Ga2  1  0.49860685  0.02378418  0.15914909  1
  Ga  Ga3  1  0.33062197  0.31934869  0.67664931  1
  Ga  Ga4  1  0.82991599  0.30543913  0.67949565  1
  Ga  Ga5  1  0.33848425  0.35960975  0.18754930  1
  Ga  Ga6  1  0.33792710  0.35577410  0.48399264  1
  Ga  Ga7  1  0.84340966  0.36035656  0.48668240  1
  Ga  Ga8  1  0.65508688  0.62983483  0.01868903  1
  Ga  Ga9  1  0.65245743  0.72791749  0.51476061  1
  Ga  Ga10  1  0.15865043  0.64003594  0.31715937  1
  Ga  Ga11  1  0.64257612  0.60382444  0.32235853  1
  Si  Si0  1  0.35432923  0.70971049  0.25024507  1
  Si  Si1  1  0.82808943  0.68256815  0.25625875  1
  Si  Si2  1  0.00270708  0.32312201  0.24942533  1
  Si  Si3  1  0.49201727  0.28084719  0.25222515  1
  Si  Si4  1  0.99032984  0.68023056  0.73612395  1
  Si  Si5  1  0.34912067  0.02090908  0.73566963  1
  Si  Si6  1  0.85759702  0.00597757  0.73462241  1
  Si  Si7  1  0.18876950  0.06553488  0.57957033  1
  Si  Si8  1  0.70180175  0.06637719  0.57410116  1
  Si  Si9  1  0.18720929  0.33173050  0.09020613  1
  Si  Si10  1  0.66461742  0.32014889  0.08410186  1
  Si  Si11  1  0.01011190  0.34592838  0.91721727  1
  Si  Si12  1  0.52111161  0.37129869  0.91573301  1
  Si  Si13  1  0.01537717  0.64663466  0.42042531  1
  Si  Si14  1  0.51283234  0.66852486  0.41419126  1
  S  S0  1  0.16126351  0.00112263  0.25485380  1
  S  S1  1  0.63350308  0.98545463  0.25424787  1
  S  S2  1  0.15543576  0.29409358  0.74074592  1
  S  S3  1  0.66341141  0.30957523  0.74939677  1
  S  S4  1  0.48846304  0.67534402  0.74529557  1
  S  S5  1  0.47976843  0.35695970  0.57833092  1
  S  S6  1  0.97461836  0.32363682  0.58385495  1
  S  S7  1  0.33551749  0.61138126  0.58528600  1
  S  S8  1  0.83442740  0.62545142  0.58231108  1
  S  S9  1  0.48980887  0.64777241  0.09124420  1
  S  S10  1  0.99146881  0.65667810  0.08728523  1
  S  S11  1  0.33823874  0.03335156  0.09716250  1
  S  S12  1  0.82304704  0.99138924  0.08348349  1
  S  S13  1  0.32434359  0.65934083  0.91230240  1
  S  S14  1  0.80994784  0.67122100  0.92303907  1
  S  S15  1  0.16794668  0.98231185  0.91566844  1
  S  S16  1  0.66022418  0.95840308  0.92591587  1
  S  S17  1  0.32308233  0.97479502  0.41146188  1
  S  S18  1  0.80245571  0.95532305  0.41890209  1
  S  S19  1  0.17819447  0.37084231  0.41206108  1
  S  S20  1  0.66646089  0.37428193  0.41950873  1
  O  O0  1  0.12291991  0.02968361  0.30695053  1
  O  O1  1  0.59679181  0.01646317  0.30744802  1
  O  O2  1  0.41391737  0.76379527  0.30591263  1
  O  O3  1  0.90664957  0.76197058  0.30043260  1
  O  O4  1  0.47290171  0.13716901  0.30188488  1
  O  O5  1  0.98725131  0.18253047  0.29800963  1
  O  O6  1  0.12346685  0.20458724  0.79727778  1
  O  O7  1  0.63192668  0.22371677  0.80640186  1
  O  O8  1  0.48933468  0.75720627  0.79974212  1
  O  O9  1  0.96970643  0.76027146  0.79206335  1
  O  O10  1  0.41004256  0.05560152  0.79112694  1
  O  O11  1  0.90371993  0.04309354  0.79669892  1
  O  O12  1  0.39464797  0.00249524  0.67776374  1
  O  O13  1  0.92014155  0.99240035  0.68600222  1
  O  O14  1  0.10011414  0.19396657  0.69424870  1
  O  O15  1  0.60153854  0.21501792  0.70540124  1
  O  O16  1  0.01793025  0.81450336  0.68081732  1
  O  O17  1  0.49990053  0.78326074  0.69527216  1
  O  O18  1  0.40148145  0.85049222  0.19834264  1
  O  O19  1  0.86119306  0.80489127  0.19856686  1
  O  O20  1  0.01817077  0.25927915  0.18699602  1
  O  O21  1  0.51758650  0.22374445  0.19199914  1
  O  O22  1  0.10536645  0.96234593  0.20559851  1
  O  O23  1  0.58731888  0.98405578  0.20271632  1
  O  O24  1  0.44305807  0.36885113  0.63521961  1
  O  O25  1  0.93390018  0.34163845  0.63715742  1
  O  O26  1  0.24696936  0.14860074  0.63565878  1
  O  O27  1  0.74660626  0.15081213  0.63370483  1
  O  O28  1  0.34066828  0.52032682  0.63586958  1
  O  O29  1  0.82568108  0.52899137  0.63611257  1
  O  O30  1  0.44750436  0.52509453  0.14180538  1
  O  O31  1  0.94753717  0.57303623  0.14268721  1
  O  O32  1  0.33776788  0.13471334  0.14591872  1
  O  O33  1  0.81319708  0.05674365  0.13979565  1
  O  O34  1  0.24774052  0.33383089  0.14309676  1
  O  O35  1  0.72013951  0.35237418  0.14102026  1
  O  O36  1  0.22697829  0.33904787  0.02528998  1
  O  O37  1  0.70836713  0.30186525  0.02505148  1
  O  O38  1  0.44068220  0.57721512  0.03914278  1
  O  O39  1  0.94396042  0.55413882  0.03847702  1
  O  O40  1  0.34932681  0.12419805  0.04133986  1
  O  O41  1  0.83506519  0.11250868  0.03694604  1
  O  O42  1  0.23907612  0.17144559  0.51851168  1
  O  O43  1  0.75171723  0.17533287  0.51591158  1
  O  O44  1  0.33382182  0.53025615  0.53019238  1
  O  O45  1  0.85161080  0.54551314  0.53140824  1
  O  O46  1  0.42161880  0.33474282  0.53155640  1
  O  O47  1  0.92918190  0.32227503  0.53213089  1
  O  O48  1  0.28292045  0.66832891  0.96619731  1
  O  O49  1  0.75784508  0.67451821  0.97210280  1
  O  O50  1  0.06621759  0.45483876  0.97299233  1
  O  O51  1  0.57377061  0.48170514  0.97134428  1
  O  O52  1  0.17418967  0.89002556  0.96550532  1
  O  O53  1  0.66522773  0.86020049  0.97417355  1
  O  O54  1  0.28914153  0.88781949  0.46859648  1
  O  O55  1  0.75712082  0.84580089  0.47078954  1
  O  O56  1  0.17258892  0.45638759  0.46308671  1
  O  O57  1  0.65830629  0.46862041  0.46646189  1
  O  O58  1  0.06674383  0.66917219  0.47891002  1
  O  O59  1  0.57612715  0.72568664  0.46870431  1
  O  O60  1  0.06788289  0.63302555  0.36218895  1
  O  O61  1  0.55664295  0.62799772  0.35799762  1
  O  O62  1  0.26634381  0.87796268  0.36456831  1
  O  O63  1  0.76311594  0.86994247  0.36548578  1
  O  O64  1  0.18102911  0.46335951  0.35797629  1
  O  O65  1  0.67323476  0.45893186  0.36121945  1
  O  O66  1  0.05855224  0.43936862  0.85568953  1
  O  O67  1  0.56785486  0.45516378  0.85305661  1
  O  O68  1  0.16924531  0.90321931  0.86069225  1
  O  O69  1  0.66467529  0.89037628  0.86909768  1
  O  O70  1  0.28283570  0.67945887  0.86187825  1
  O  O71  1  0.77797076  0.68911291  0.86702598  1
  O  O72  1  0.01425535  0.82177987  0.41598259  1
  O  O73  1  0.50836619  0.84250345  0.40365767  1
  O  O74  1  0.40778411  0.99173746  0.40496807  1
  O  O75  1  0.88979839  0.98664915  0.42438103  1
  O  O76  1  0.10483576  0.19863730  0.41311296  1
  O  O77  1  0.59333288  0.20108557  0.41724890  1
  O  O78  1  0.01064738  0.17007404  0.92200625  1
  O  O79  1  0.51876207  0.18998095  0.92233097  1
  O  O80  1  0.08991359  0.99047742  0.92106233  1
  O  O81  1  0.58203240  0.96747276  0.92955893  1
  O  O82  1  0.41289219  0.79365025  0.91424727  1
  O  O83  1  0.89674951  0.80727880  0.92957730  1
  O  O84  1  0.48549783  0.20222278  0.57850944  1
  O  O85  1  0.98474143  0.17672103  0.58470847  1
  O  O86  1  0.09125165  0.03559172  0.58613370  1
  O  O87  1  0.60591301  0.03568636  0.57021723  1
  O  O88  1  0.40902196  0.78327220  0.58126977  1
  O  O89  1  0.91407204  0.79389594  0.58403820  1
  O  O90  1  0.49908558  0.81110893  0.10193197  1
  O  O91  1  0.00093760  0.82244409  0.08179157  1
  O  O92  1  0.41304261  0.01227184  0.09840495  1
  O  O93  1  0.90138282  0.98201061  0.08228841  1
  O  O94  1  0.09145976  0.16906543  0.09186451  1
  O  O95  1  0.57122615  0.14999785  0.09408570  1
  O  O96  1  0.34467733  0.19633698  0.73502066  1
  O  O97  1  0.84289454  0.16605417  0.73171264  1
  O  O98  1  0.24127461  0.31947644  0.73257284  1
  O  O99  1  0.74648009  0.32713633  0.73792460  1
  O  O100  1  0.40923769  0.51254250  0.74283244  1
  O  O101  1  0.90667526  0.49654362  0.72683652  1
  O  O102  1  0.34034173  0.52038217  0.23867372  1
  O  O103  1  0.80848243  0.49080797  0.24914403  1
  O  O104  1  0.41113991  0.31384061  0.24393038  1
  O  O105  1  0.92112305  0.35021425  0.25039350  1
  O  O106  1  0.24457547  0.15404419  0.24410499  1
  O  O107  1  0.72265203  0.12674145  0.25082694  1
  O  O108  1  0.31826700  0.49414962  0.90923072  1
  O  O109  1  0.80688709  0.50797018  0.92198095  1
  O  O110  1  0.42657112  0.34352026  0.91594309  1
  O  O111  1  0.91696796  0.32758695  0.91588335  1
  O  O112  1  0.24049864  0.15664068  0.91333397  1
  O  O113  1  0.73214029  0.13354540  0.92406348  1
  O  O114  1  0.32724456  0.13944923  0.41324028  1
  O  O115  1  0.80462826  0.11710907  0.41854626  1
  O  O116  1  0.25602250  0.35809481  0.41275506  1
  O  O117  1  0.74457631  0.36137345  0.42074907  1
  O  O118  1  0.42057284  0.49775816  0.42902640  1
  O  O119  1  0.91938731  0.47800207  0.42642128  1
  O  O120  1  0.17397529  0.49620446  0.09630276  1
  O  O121  1  0.65137876  0.48610698  0.07766365  1
  O  O122  1  0.07440511  0.66616205  0.08836402  1
  O  O123  1  0.57329546  0.65762156  0.08358936  1
  O  O124  1  0.26033653  0.86987279  0.09796539  1
  O  O125  1  0.74770072  0.82603223  0.07452335  1
  O  O126  1  0.18103104  0.87836850  0.57929999  1
  O  O127  1  0.68850224  0.87223191  0.57414767  1
  O  O128  1  0.25850910  0.62525500  0.59175610  1
  O  O129  1  0.76035338  0.64188888  0.57532818  1
  O  O130  1  0.05991905  0.48001667  0.58403729  1
  O  O131  1  0.56440221  0.50742757  0.57046537  1
  O  O132  1  0.17439529  0.85600082  0.26316487  1
  O  O133  1  0.63640029  0.82925924  0.25665069  1
  O  O134  1  0.25973787  0.68923674  0.26328251  1
  O  O135  1  0.73975769  0.68499694  0.27265241  1
  O  O136  1  0.09100918  0.50577256  0.25762897  1
  O  O137  1  0.57530831  0.46490814  0.26288017  1
  O  O138  1  0.15895118  0.45776317  0.74069521  1
  O  O139  1  0.67335468  0.47891589  0.74931990  1
  O  O140  1  0.07202581  0.65519622  0.74277609  1
  O  O141  1  0.56027120  0.64032068  0.74317295  1
  O  O142  1  0.25270429  0.86558907  0.74249001  1
  O  O143  1  0.76874141  0.82635940  0.73490305  1
loop_
_geom_bond_atom_site_label_1
_geom_bond_atom_site_label_2
_geom_bond_distance
_geom_bond_site_symmetry_2
Na0 O132 2.420395 1_545
Na0 O134 2.505930 1_545
Na0 O104 2.522561 1_555
Na0 O106 2.546547 1_555
Na0 O4 2.663818 1_555
Na0 O32 2.677952 1_555
Na0 O18 2.681130 1_545
Na0 O62 2.838857 1_545
Na1 O135 2.385678 1_555
Na1 O63 2.617870 1_555
Na1 O19 2.618682 1_555
Na1 O107 2.642977 1_565
Na1 O133 2.840729 1_555
Na1 O33 2.870172 1_565
Na1 O5 2.937418 1_565
Na1 O105 2.968463 1_565
Na2 O102 2.420866 1_555
Na2 O134 2.507507 1_555
Na2 O136 2.572810 1_555
Na2 O34 2.648665 1_555
Na2 O106 2.805710 1_555
Na2 O64 2.838032 1_555
Na3 O103 2.295114 1_555
Na3 O137 2.382158 1_555
Na3 O35 2.653258 1_555
Na3 O21 2.713143 1_555
Na3 O135 2.763090 1_555
Na3 O107 2.772480 1_555
Na3 O65 2.815546 1_555
Na3 O1 3.003991 1_555
Na4 O105 2.356313 1_555
Na4 O3 2.520286 1_555
Na4 O136 2.625167 1_655
Na4 O60 2.629504 1_655
Na4 O132 2.876716 1_655
Na5 O133 2.334437 1_555
Na5 O104 2.476268 1_555
Na5 O137 2.502750 1_555
Na5 O61 2.551777 1_555
Na5 O102 2.589390 1_555
Na5 O2 2.689807 1_555
Na5 O30 2.904729 1_555
Na6 O143 2.413114 1_555
Na6 O101 2.453674 1_555
Na6 O29 2.503554 1_555
Na6 O139 2.519784 1_555
Na6 O99 2.588102 1_555
Na6 O9 2.662927 1_555
Na6 O13 2.923749 1_555
Na7 O140 2.425626 1_655
Na7 O97 2.431349 1_555
Na7 O101 2.558177 1_555
Na7 O11 2.682701 1_555
Na7 O66 2.714959 1_655
Na7 O138 2.748142 1_655
Na7 O25 2.840019 1_555
Na8 O141 2.363540 1_555
Na8 O96 2.455490 1_555
Na8 O10 2.462831 1_555
Na8 O67 2.590806 1_555
Na9 O142 2.329926 1_555
Na9 O26 2.578915 1_565
Na9 O98 2.594153 1_565
Na9 O96 2.728710 1_565
Na9 O140 2.762379 1_555
Na9 O16 2.803763 1_555
Na9 O14 2.910283 1_565
Na9 O6 2.944521 1_565
Na10 O16 2.394273 1_555
Na10 O89 2.421457 1_455
Na10 O126 2.566749 1_555
Na10 O86 2.600124 1_565
Na10 O130 2.601349 1_555
Na10 O58 2.732843 1_555
Na11 O12 2.270871 1_565
Na11 O126 2.429996 1_555
Na11 O84 2.545148 1_565
Na11 O26 2.751709 1_565
Na12 O94 2.342958 1_555
Na12 O20 2.381590 1_555
Na12 O120 2.405707 1_555
Na12 O122 2.800296 1_555
Na12 O50 2.823628 1_554
Na12 O93 2.843958 1_445
Na13 O121 2.297448 1_555
Na13 O95 2.467040 1_555
Na13 O21 2.517885 1_555
Na13 O92 2.563945 1_555
Na13 O123 2.646853 1_555
Na13 O30 2.783691 1_555
Na13 O40 2.885066 1_555
Na13 O32 2.942201 1_555
Na14 O78 2.380809 1_555
Na14 O36 2.464653 1_556
Na14 O112 2.502389 1_555
Na14 O80 2.514235 1_545
Na14 O108 2.597243 1_555
Na14 O50 2.864837 1_555
Na15 O79 2.292123 1_555
Na15 O37 2.323742 1_556
Na15 O109 2.418663 1_555
Na15 O113 2.471956 1_555
Na15 O81 2.643204 1_545
Na16 O76 2.448172 1_555
Na16 O72 2.472503 1_545
Na16 O42 2.563621 1_555
Na16 O114 2.610108 1_555
Na16 O116 2.725242 1_555
Na16 O0 2.940796 1_555
Na17 O115 2.355807 1_555
Na17 O77 2.367028 1_555
Na17 O73 2.529212 1_545
Na17 O117 2.547796 1_555
Na17 O43 2.710807 1_555
Na17 O59 2.757233 1_545
Na17 O1 2.875396 1_555
Na18 O89 2.357050 1_555
Na18 O85 2.454382 1_565
Na18 O86 2.521328 1_665
Na18 O75 2.695434 1_555
Na18 O72 2.892090 1_655
Na18 O76 2.977620 1_665
Na19 O77 2.328986 1_565
Na19 O73 2.384502 1_555
Na19 O87 2.528763 1_565
Na19 O74 2.729199 1_555
Na19 O88 2.877118 1_555
Na20 O78 2.369953 1_554
Na20 O91 2.469974 1_545
Na20 O80 2.513014 1_544
Na20 O93 2.514868 1_445
Na20 O83 2.588587 1_444
Na20 O94 2.641529 1_555
Na21 O95 2.349548 1_555
Na21 O81 2.424216 1_544
Na21 O79 2.635816 1_554
Na21 O92 2.678607 1_555
Na21 O90 2.680506 1_545
Na21 O82 2.953947 1_544
Na22 O110 2.372202 1_555
Na22 O108 2.530841 1_555
Na22 O112 2.531880 1_555
Na22 O100 2.565297 1_555
Na22 O96 2.633554 1_555
Na23 O111 2.401945 1_555
Na23 O97 2.571654 1_555
Na23 O101 2.716828 1_555
Na23 O99 2.898962 1_555
Na23 O113 2.950186 1_555
Na24 O116 2.420855 1_555
Na24 O118 2.426055 1_555
Na24 O114 2.512315 1_555
Na24 O104 2.596449 1_555
Na24 O102 2.845984 1_555
Na25 O119 2.342287 1_555
Na25 O117 2.527817 1_555
Na25 O105 2.592800 1_555
Na25 O115 2.658526 1_555
Na25 O103 2.710161 1_555
Na26 O120 2.346636 1_555
Na26 O136 2.442536 1_555
Na26 O124 2.443802 1_555
Na26 O134 2.510278 1_555
Na26 O132 2.794785 1_555
Na26 O122 2.833532 1_555
Na27 O121 2.478303 1_555
Na27 O125 2.482476 1_555
Na27 O123 2.734954 1_555
Na27 O135 2.746061 1_555
Na27 O137 2.902863 1_555
Na27 O133 2.999512 1_555
Na27 O19 3.043983 1_555
Na28 O142 2.388869 1_555
Na28 O140 2.389226 1_555
Na28 O138 2.516754 1_555
Na28 O128 2.600646 1_555
Na28 O126 2.744175 1_555
Na28 O130 2.830658 1_555
Na29 O127 2.259623 1_555
Na29 O143 2.347123 1_555
Na29 O129 2.482745 1_555
Na29 O141 2.981715 1_555
La0 O3 2.237219 1_555
La0 O5 2.262192 1_565
La0 O72 2.294977 1_655
La0 O75 2.386467 1_555
La0 O76 2.543131 1_665
La0 O0 2.554449 1_665
La1 O11 2.194796 1_565
La1 O9 2.313698 1_555
La1 O78 2.380001 1_665
La1 O83 2.500865 1_555
La1 O6 2.544339 1_665
La1 O80 2.602805 1_655
La2 O10 2.215226 1_555
La2 O79 2.295179 1_555
La2 O82 2.372161 1_545
La2 O7 2.445391 1_555
La2 O8 2.597680 1_545
La2 O81 2.710038 1_545
La3 O87 2.221777 1_555
La3 O12 2.323147 1_555
La3 O17 2.363722 1_545
La3 O15 2.375209 1_555
La3 O88 2.469614 1_545
La3 O84 2.521153 1_555
La4 O19 2.301886 1_555
La4 O20 2.311295 1_665
La4 O94 2.331933 1_665
La4 O22 2.470586 1_655
La4 O93 2.514927 1_555
La4 O91 2.544436 1_655
La5 O35 2.226219 1_555
La5 O103 2.287105 1_555
La5 O105 2.393542 1_555
La5 O31 2.400829 1_555
La5 O107 2.434625 1_555
La5 O33 2.640266 1_555
La6 O36 2.251925 1_556
La6 O110 2.271084 1_555
La6 O40 2.370772 1_556
La6 O38 2.393079 1_556
La6 O108 2.526302 1_555
La6 O112 2.536849 1_555
La7 O111 2.255315 1_555
La7 O37 2.322303 1_556
La7 O41 2.345740 1_556
La7 O39 2.386436 1_556
La7 O113 2.410995 1_555
La7 O109 2.448779 1_555
La8 O50 2.253152 1_554
La8 O120 2.304304 1_555
La8 O48 2.325064 1_554
La8 O122 2.398335 1_555
La8 O52 2.483930 1_554
La8 O124 2.584898 1_555
La9 O58 2.157296 1_555
La9 O126 2.358470 1_555
La9 O56 2.362591 1_555
La9 O54 2.379759 1_555
La9 O130 2.386485 1_555
La9 O128 2.526557 1_555
La10 O66 2.215407 1_555
La10 O140 2.338569 1_555
La10 O142 2.362121 1_555
La10 O68 2.412839 1_555
La10 O70 2.452456 1_555
La10 O138 2.556544 1_555
La11 O67 2.265579 1_555
La11 O69 2.305117 1_555
La11 O143 2.339595 1_555
La11 O71 2.405524 1_555
La11 O141 2.463949 1_555
La11 O139 2.502907 1_555
Ga0 O2 1.833689 1_555
Ga0 O4 1.957995 1_565
Ga0 O73 2.004425 1_555
Ga0 O74 2.044487 1_555
Ga0 O1 2.103682 1_565
Ga1 O13 1.831579 1_455
Ga1 O16 1.872977 1_555
Ga1 O86 1.964384 1_565
Ga1 O14 2.107773 1_565
Ga1 O89 2.368031 1_455
Ga1 O85 2.478011 1_465
Ga2 O21 1.878477 1_555
Ga2 O18 1.900492 1_545
Ga2 O95 1.933348 1_555
Ga2 O92 2.104787 1_555
Ga2 O23 2.123203 1_545
Ga2 O90 2.391802 1_545
Ga3 O26 1.853225 1_555
Ga3 O96 1.868875 1_555
Ga3 O28 2.003615 1_555
Ga3 O98 2.071805 1_555
Ga3 O24 2.088459 1_555
Ga3 O100 2.285518 1_555
Ga4 O27 1.854302 1_555
Ga4 O97 1.869361 1_555
Ga4 O101 1.985434 1_555
Ga4 O25 2.000354 1_555
Ga4 O99 2.111326 1_555
Ga4 O29 2.333088 1_555
Ga5 O34 1.898506 1_555
Ga5 O102 1.902078 1_555
Ga5 O30 2.069003 1_555
Ga5 O104 2.081670 1_555
Ga5 O106 2.208282 1_555
Ga5 O32 2.300549 1_555
Ga6 O118 1.881174 1_555
Ga6 O42 1.910750 1_555
Ga6 O44 1.981371 1_555
Ga6 O46 2.004117 1_555
Ga6 O116 2.274048 1_555
Ga6 O114 2.538685 1_555
Ga7 O43 1.806441 1_555
Ga7 O119 1.857128 1_555
Ga7 O45 1.956910 1_555
Ga7 O47 2.090458 1_555
Ga7 O117 2.411299 1_555
Ga7 O115 2.570120 1_555
Ga8 O51 1.838587 1_554
Ga8 O121 1.878322 1_555
Ga8 O49 2.006550 1_554
Ga8 O123 2.212479 1_555
Ga8 O125 2.221370 1_555
Ga8 O53 2.283123 1_554
Ga9 O59 1.779549 1_555
Ga9 O127 1.822754 1_555
Ga9 O55 1.927893 1_555
Ga9 O131 2.235391 1_555
Ga10 O136 1.890330 1_555
Ga10 O60 1.922456 1_555
Ga10 O134 2.064272 1_555
Ga10 O64 2.102360 1_555
Ga10 O132 2.239970 1_555
Ga10 O62 2.401235 1_555
Ga11 O61 1.880141 1_555
Ga11 O137 1.901991 1_555
Ga11 O135 1.905424 1_555
Ga11 O65 1.924214 1_555
O0 S0 1.478730 1_555
O1 S1 1.493126 1_545
O2 Si0 1.630458 1_555
O3 Si1 1.644712 1_555
O4 Si3 1.646078 1_555
O5 Si2 1.624205 1_655
O6 S2 1.487222 1_555
O7 S3 1.484441 1_555
O8 S4 1.477981 1_555
O9 Si4 1.631645 1_555
O10 Si5 1.655167 1_555
O11 Si6 1.642394 1_555
O12 Si5 1.623561 1_555
O13 Si6 1.644172 1_565
O14 S2 1.479695 1_555
O15 S3 1.477166 1_555
O16 Si4 1.661814 1_455
O17 S4 1.466674 1_555
O18 Si0 1.640622 1_555
O19 Si1 1.640603 1_555
O20 Si2 1.643815 1_555
O21 Si3 1.641170 1_555
O22 S0 1.480876 1_565
O23 S1 1.482343 1_555
O24 S5 1.500377 1_555
O25 S6 1.486199 1_555
O26 Si7 1.642829 1_555
O27 Si8 1.624803 1_555
O28 S7 1.473437 1_555
O29 S8 1.487788 1_555
O30 S9 1.523192 1_555
O31 S10 1.487631 1_555
O32 S11 1.481483 1_555
O33 S12 1.492238 1_545
O34 Si9 1.673311 1_555
O35 Si10 1.628387 1_555
O36 Si9 1.646596 1_555
O37 Si10 1.627465 1_555
O38 S9 1.478703 1_555
O39 S10 1.479454 1_555
O40 S11 1.492620 1_555
O41 S12 1.481550 1_545
O42 Si7 1.682464 1_555
O43 Si8 1.635182 1_555
O44 S7 1.484176 1_555
O45 S8 1.510865 1_555
O46 S5 1.486807 1_555
O47 S6 1.478067 1_555
O48 S13 1.475369 1_555
O49 S14 1.482563 1_555
O50 Si11 1.676001 1_555
O51 Si12 1.657454 1_555
O52 S15 1.474313 1_555
O53 S16 1.471534 1_555
O54 S17 1.495517 1_555
O55 S18 1.502422 1_555
O56 S19 1.462859 1_555
O57 S20 1.456050 1_555
O58 Si13 1.629768 1_555
O59 Si14 1.645872 1_555
O60 Si13 1.686456 1_555
O61 Si14 1.661252 1_555
O62 S17 1.488859 1_555
O63 S18 1.476129 1_555
O64 S19 1.500003 1_555
O65 S20 1.529764 1_555
O66 Si11 1.651698 1_555
O67 Si12 1.646709 1_555
O68 S15 1.484815 1_555
O69 S16 1.486865 1_555
O70 S13 1.475075 1_555
O71 S14 1.483626 1_555
O72 Si13 1.636169 1_555
O73 Si14 1.671497 1_555
O74 S17 1.490340 1_555
O75 S18 1.492584 1_555
O76 S19 1.484086 1_555
O77 S20 1.491456 1_555
O78 Si11 1.637671 1_555
O79 Si12 1.664765 1_555
O80 S15 1.478562 1_555
O81 S16 1.484087 1_555
O82 S13 1.474360 1_555
O83 S14 1.468557 1_555
O84 S5 1.489999 1_555
O85 S6 1.464320 1_555
O86 Si7 1.675876 1_555
O87 Si8 1.645972 1_555
O88 S7 1.483777 1_555
O89 S8 1.513801 1_555
O90 S9 1.460132 1_555
O91 S10 1.460552 1_455
O92 S11 1.485995 1_555
O93 S12 1.487470 1_555
O94 Si9 1.644856 1_555
O95 Si10 1.656661 1_555
O96 Si5 1.668552 1_555
O97 Si6 1.637687 1_555
O98 S2 1.483118 1_555
O99 S3 1.471550 1_555
O100 S4 1.483436 1_555
O101 Si4 1.644443 1_555
O102 Si0 1.666120 1_555
O103 Si1 1.637078 1_555
O104 Si3 1.678942 1_555
O105 Si2 1.642387 1_655
O106 S0 1.487518 1_555
O107 S1 1.498578 1_545
O108 S13 1.480573 1_555
O109 S14 1.486045 1_555
O110 Si12 1.626346 1_555
O111 Si11 1.637172 1_655
O112 S15 1.490880 1_545
O113 S16 1.491641 1_545
O114 S17 1.490095 1_545
O115 S18 1.479771 1_545
O116 S19 1.496256 1_555
O117 S20 1.502851 1_555
O118 Si14 1.663461 1_555
O119 Si13 1.670980 1_655
O120 Si9 1.667098 1_555
O121 Si10 1.679976 1_555
O122 S10 1.485577 1_455
O123 S9 1.499261 1_555
O124 S11 1.471897 1_565
O125 S12 1.483001 1_555
O126 Si7 1.667794 1_565
O127 Si8 1.689663 1_565
O128 S7 1.490818 1_555
O129 S8 1.459057 1_555
O130 S6 1.509652 1_455
O131 S5 1.484139 1_555
O132 S0 1.493122 1_565
O133 S1 1.475848 1_555
O134 Si0 1.673757 1_555
O135 Si1 1.672421 1_555
O136 Si2 1.673174 1_555
O137 Si3 1.649135 1_555
O138 S2 1.485499 1_555
O139 S3 1.485955 1_555
O140 Si4 1.643726 1_455
O141 S4 1.511389 1_555
O142 Si5 1.631310 1_565
O143 Si6 1.645865 1_565
