# generated using pymatgen
data_MgTi4Bi2O11
_symmetry_space_group_name_H-M   'P 1'
_cell_length_a   3.82728671
_cell_length_b   7.93888507
_cell_length_c   7.94059291
_cell_angle_alpha   82.83046189
_cell_angle_beta   76.04226823
_cell_angle_gamma   76.03443131
_symmetry_Int_Tables_number   1
_chemical_formula_structural   MgTi4Bi2O11
_chemical_formula_sum   'Mg1 Ti4 Bi2 O11'
_cell_volume   226.65640658
_cell_formula_units_Z   1
loop_
 _symmetry_equiv_pos_site_id
 _symmetry_equiv_pos_as_xyz
  1  'x, y, z'
loop_
 _atom_site_type_symbol
 _atom_site_label
 _atom_site_symmetry_multiplicity
 _atom_site_fract_x
 _atom_site_fract_y
 _atom_site_fract_z
 _atom_site_occupancy
  Mg  Mg0  1  0.81347000  0.94943300  0.42508500  1
  Ti  Ti0  1  0.61044400  0.30700400  0.47240600  1
  Ti  Ti1  1  0.38736500  0.68753900  0.53860800  1
  Ti  Ti2  1  0.65697700  0.89010400  0.79624300  1
  Ti  Ti3  1  0.33692600  0.12942000  0.19764900  1
  Bi  Bi0  1  0.11687000  0.62474000  0.13980500  1
  Bi  Bi1  1  0.89055000  0.36667000  0.85289900  1
  O  O0  1  0.71023000  0.62904600  0.95083800  1
  O  O1  1  0.29420200  0.36372400  0.04830300  1
  O  O2  1  0.63782100  0.09191500  0.63255800  1
  O  O3  1  0.36660400  0.90585600  0.36233700  1
  O  O4  1  0.43571100  0.45449300  0.67482200  1
  O  O5  1  0.56100500  0.54598400  0.33257100  1
  O  O6  1  0.79981300  0.15313600  0.24813800  1
  O  O7  1  0.20422300  0.83330700  0.75866900  1
  O  O8  1  0.14300100  0.28923600  0.42530100  1
  O  O9  1  0.85888600  0.71997100  0.56317200  1
  O  O10  1  0.49732900  0.00842000  0.99726400  1
loop_
_geom_bond_atom_site_label_1
_geom_bond_atom_site_label_2
_geom_bond_distance
_geom_bond_site_symmetry_2
Mg0 O9 1.997879 1_555
Mg0 O2 2.002345 1_565
Mg0 O6 2.004905 1_565
Mg0 O3 2.007563 1_655
Mg0 O3 2.008164 1_555
Bi0 O1 2.177512 1_555
Bi0 O0 2.400613 1_454
Bi0 O0 2.406399 1_554
Bi0 O5 2.468229 1_455
Bi0 O5 2.475203 1_555
Bi1 O0 2.207133 1_555
Bi1 O4 2.423129 1_555
Bi1 O4 2.423185 1_655
Bi1 O1 2.434063 1_656
Bi1 O1 2.434275 1_556
O0 Ti2 2.263965 1_555
O1 Ti3 2.071044 1_555
O2 Ti2 1.931611 1_545
O2 Ti0 1.994962 1_555
O3 Ti3 2.065944 1_565
O3 Ti1 2.085919 1_555
O4 Ti0 1.993722 1_555
O4 Ti1 2.014673 1_555
O5 Ti1 1.988761 1_555
O5 Ti0 2.066511 1_555
O6 Ti3 1.963789 1_655
O6 Ti3 1.963983 1_555
O6 Ti0 2.163745 1_555
O7 Ti2 1.988748 1_555
O7 Ti2 1.988819 1_455
O7 Ti1 2.099125 1_555
O8 Ti0 1.954036 1_555
O8 Ti0 1.954704 1_455
O8 Ti3 2.213390 1_555
O9 Ti1 1.940685 1_655
O9 Ti1 1.941058 1_555
O9 Ti2 2.297143 1_555
O10 Ti2 1.852102 1_545
O10 Ti3 1.859336 1_556
