# generated using pymatgen
data_NaBPt3
_symmetry_space_group_name_H-M   'P 1'
_cell_length_a   5.55482910
_cell_length_b   5.55482843
_cell_length_c   5.53961418
_cell_angle_alpha   90.00000000
_cell_angle_beta   90.00000000
_cell_angle_gamma   119.99999794
_symmetry_Int_Tables_number   1
_chemical_formula_structural   NaBPt3
_chemical_formula_sum   'Na2 B2 Pt6'
_cell_volume   148.03060367
_cell_formula_units_Z   2
loop_
 _symmetry_equiv_pos_site_id
 _symmetry_equiv_pos_as_xyz
  1  'x, y, z'
loop_
 _atom_site_type_symbol
 _atom_site_label
 _atom_site_symmetry_multiplicity
 _atom_site_fract_x
 _atom_site_fract_y
 _atom_site_fract_z
 _atom_site_occupancy
  Na  Na0  1  0.00000000  0.00000000  0.50000000  1
  Na  Na1  1  0.00000000  0.00000000  -0.00000000  1
  B  B0  1  0.66666700  0.33333300  0.50000000  1
  B  B1  1  0.33333300  0.66666700  0.50000000  1
  Pt  Pt0  1  0.50000000  0.50000000  0.75802103  1
  Pt  Pt1  1  -0.00000000  0.50000000  0.75802103  1
  Pt  Pt2  1  0.50000000  -0.00000000  0.75802103  1
  Pt  Pt3  1  0.00000000  0.50000000  0.24197897  1
  Pt  Pt4  1  0.50000000  0.50000000  0.24197897  1
  Pt  Pt5  1  0.50000000  0.00000000  0.24197897  1
loop_
_geom_bond_atom_site_label_1
_geom_bond_atom_site_label_2
_geom_bond_distance
_geom_bond_site_symmetry_2
Na0 Na1 2.769807 1_555
Na0 Na1 2.769807 1_556
Na0 Pt3 3.123625 1_545
Na0 Pt3 3.123625 1_555
Na0 Pt1 3.123625 1_545
Na0 Pt1 3.123625 1_555
Na0 Pt4 3.123625 1_555
Na0 Pt0 3.123625 1_555
Na0 Pt4 3.123625 1_445
Na0 Pt0 3.123625 1_445
Na0 Pt5 3.123625 1_455
Na0 Pt5 3.123625 1_555
Na0 Pt2 3.123625 1_455
Na0 Pt2 3.123625 1_555
Na1 Pt1 3.083973 1_544
Na1 Pt1 3.083973 1_554
Na1 Pt3 3.083973 1_555
Na1 Pt3 3.083973 1_545
Na1 Pt4 3.083973 1_445
Na1 Pt0 3.083973 1_444
Na1 Pt4 3.083973 1_555
Na1 Pt0 3.083973 1_554
Na1 Pt5 3.083973 1_455
Na1 Pt5 3.083973 1_555
Na1 Pt2 3.083973 1_454
Na1 Pt2 3.083973 1_554
B0 Pt2 2.148102 1_555
B0 Pt5 2.148102 1_555
B0 Pt3 2.148102 1_655
B0 Pt1 2.148102 1_655
B0 Pt0 2.148106 1_555
B0 Pt4 2.148106 1_555
B0 Na0 3.207079 1_655
B0 Na0 3.207083 1_665
B0 Na0 3.207084 1_555
B1 Pt5 2.148102 1_565
B1 Pt2 2.148102 1_565
B1 Pt3 2.148102 1_555
B1 Pt1 2.148102 1_555
B1 Pt0 2.148106 1_555
B1 Pt4 2.148106 1_555
B1 Na0 3.207079 1_565
B1 Na0 3.207083 1_555
B1 Na0 3.207084 1_665
