# generated using pymatgen
data_Na14Ti4Ga4Si9(SO16)3
_symmetry_space_group_name_H-M   'P 1'
_cell_length_a   17.90978914
_cell_length_b   8.96017773
_cell_length_c   22.01791276
_cell_angle_alpha   90.17564892
_cell_angle_beta   90.02093922
_cell_angle_gamma   120.06578317
_symmetry_Int_Tables_number   1
_chemical_formula_structural   Na14Ti4Ga4Si9(SO16)3
_chemical_formula_sum   'Na42 Ti12 Ga12 Si27 S9 O144'
_cell_volume   3057.89466778
_cell_formula_units_Z   3
loop_
 _symmetry_equiv_pos_site_id
 _symmetry_equiv_pos_as_xyz
  1  'x, y, z'
loop_
 _atom_site_type_symbol
 _atom_site_label
 _atom_site_symmetry_multiplicity
 _atom_site_fract_x
 _atom_site_fract_y
 _atom_site_fract_z
 _atom_site_occupancy
  Na  Na0  1  0.81815135  0.00557287  0.25311730  1
  Na  Na1  1  0.17757806  0.35955376  0.25316065  1
  Na  Na2  1  0.68851592  0.36973737  0.25228410  1
  Na  Na3  1  0.99768868  0.62966923  0.24850002  1
  Na  Na4  1  0.50141622  0.63772895  0.25127773  1
  Na  Na5  1  0.31758372  0.62922080  0.75099397  1
  Na  Na6  1  0.99942477  0.36185416  0.74680665  1
  Na  Na7  1  0.49818083  0.36646147  0.74622082  1
  Na  Na8  1  0.18755616  0.00770824  0.74968784  1
  Na  Na9  1  0.68201296  0.00032291  0.75026820  1
  Na  Na10  1  0.14905949  0.32731058  0.58267628  1
  Na  Na11  1  0.64946758  0.33008262  0.58186990  1
  Na  Na12  1  0.33538749  0.97870743  0.58575684  1
  Na  Na13  1  0.83337361  0.96896263  0.58231514  1
  Na  Na14  1  0.14610027  0.96719969  0.08186058  1
  Na  Na15  1  0.65153001  0.97228903  0.08064007  1
  Na  Na16  1  0.33347213  0.69452984  0.08212520  1
  Na  Na17  1  0.83539982  0.69270481  0.08584610  1
  Na  Na18  1  0.48182236  0.67442835  0.91493849  1
  Na  Na19  1  0.98154568  0.67161053  0.91982699  1
  Na  Na20  1  0.34904931  0.03003738  0.91132703  1
  Na  Na21  1  0.84819065  0.02886142  0.91260358  1
  Na  Na22  1  0.16945860  0.29791535  0.91222838  1
  Na  Na23  1  0.66709015  0.29361301  0.91303067  1
  Na  Na24  1  0.48366523  0.29606044  0.42249395  1
  Na  Na25  1  0.97976365  0.28798488  0.41825761  1
  Na  Na26  1  0.16673313  0.04077161  0.41543654  1
  Na  Na27  1  0.67187970  0.04408735  0.41646235  1
  Na  Na28  1  0.34867467  0.66740040  0.41543125  1
  Na  Na29  1  0.84834088  0.66524529  0.41766608  1
  Na  Na30  1  0.99913330  0.99457104  0.50025221  1
  Na  Na31  1  0.50374761  0.00657289  0.50193957  1
  Na  Na32  1  0.00220678  0.99964267  0.00102939  1
  Na  Na33  1  0.50256210  0.00346388  0.99766992  1
  Na  Na34  1  0.33088485  0.33461246  0.82952212  1
  Na  Na35  1  0.82779379  0.33315672  0.83079731  1
  Na  Na36  1  0.32844187  0.32065298  0.33490708  1
  Na  Na37  1  0.83065318  0.32750797  0.33314178  1
  Na  Na38  1  0.16046647  0.65820474  0.16790117  1
  Na  Na39  1  0.66437418  0.65805500  0.16770800  1
  Na  Na40  1  0.16329469  0.66900597  0.66716045  1
  Na  Na41  1  0.66333331  0.66347377  0.66543274  1
  Ti  Ti0  1  0.99827551  0.01175215  0.64255176  1
  Ti  Ti1  1  0.50624844  0.01103194  0.65142943  1
  Ti  Ti2  1  0.00531733  0.00162371  0.15199575  1
  Ti  Ti3  1  0.50475334  0.98614130  0.14693807  1
  Ti  Ti4  1  0.82721818  0.32353511  0.68185382  1
  Ti  Ti5  1  0.32921732  0.34785070  0.18665800  1
  Ti  Ti6  1  0.16453880  0.66872875  0.01919127  1
  Ti  Ti7  1  0.66714073  0.66717119  0.01923769  1
  Ti  Ti8  1  0.16585776  0.66616311  0.52017553  1
  Ti  Ti9  1  0.67205569  0.65926709  0.52431043  1
  Ti  Ti10  1  0.17664334  0.67381512  0.30957044  1
  Ti  Ti11  1  0.67787072  0.68136853  0.80759377  1
  Ga  Ga0  1  0.99851773  0.01323292  0.34838640  1
  Ga  Ga1  1  0.50223853  0.00477796  0.35193719  1
  Ga  Ga2  1  0.00164129  0.99666785  0.84891972  1
  Ga  Ga3  1  0.49922248  0.98540562  0.84656847  1
  Ga  Ga4  1  0.33569828  0.31989663  0.68834947  1
  Ga  Ga5  1  0.83618039  0.35165353  0.18856305  1
  Ga  Ga6  1  0.32445547  0.34230846  0.98147829  1
  Ga  Ga7  1  0.82275134  0.34270082  0.98295732  1
  Ga  Ga8  1  0.32411652  0.30493086  0.48331256  1
  Ga  Ga9  1  0.82588097  0.32155226  0.48560785  1
  Ga  Ga10  1  0.68266050  0.68607879  0.31616594  1
  Ga  Ga11  1  0.18178959  0.67851726  0.81357719  1
  Si  Si0  1  0.14775170  0.00031160  0.25273845  1
  Si  Si1  1  0.64718642  0.99655390  0.25317664  1
  Si  Si2  1  0.35888671  0.72006102  0.25070573  1
  Si  Si3  1  0.85619657  0.71307644  0.25143407  1
  Si  Si4  1  0.99802080  0.29230274  0.25010027  1
  Si  Si5  1  0.14487855  0.29322546  0.75136961  1
  Si  Si6  1  0.64787764  0.29433556  0.75363059  1
  Si  Si7  1  0.49837141  0.70464254  0.74994399  1
  Si  Si8  1  0.35620143  0.99965382  0.75127241  1
  Si  Si9  1  0.85954657  0.00577163  0.75122791  1
  Si  Si10  1  0.47699338  0.33616268  0.58285803  1
  Si  Si11  1  0.97822851  0.34327867  0.58249554  1
  Si  Si12  1  0.18624423  0.03881681  0.58474981  1
  Si  Si13  1  0.68229013  0.03299201  0.58154219  1
  Si  Si14  1  0.83871052  0.62181095  0.58123379  1
  Si  Si15  1  0.47855693  0.61447119  0.08233684  1
  Si  Si16  1  0.97738004  0.61856217  0.08269194  1
  Si  Si17  1  0.18254236  0.33267227  0.08187618  1
  Si  Si18  1  0.68519791  0.33362922  0.08503385  1
  Si  Si19  1  0.31441632  0.66961122  0.91722793  1
  Si  Si20  1  0.81350944  0.66943801  0.91561470  1
  Si  Si21  1  0.16779882  0.95971306  0.91479962  1
  Si  Si22  1  0.66833832  0.96192432  0.91708282  1
  Si  Si23  1  0.31354151  0.95752284  0.41630726  1
  Si  Si24  1  0.81470398  0.96341365  0.41787674  1
  Si  Si25  1  0.16801985  0.37434379  0.41696943  1
  Si  Si26  1  0.66674457  0.37511952  0.41416866  1
  S  S0  1  0.49714987  0.28604078  0.24949441  1
  S  S1  1  0.99819543  0.70773871  0.75028062  1
  S  S2  1  0.33491892  0.62405991  0.58214736  1
  S  S3  1  0.33574174  0.04961854  0.08269271  1
  S  S4  1  0.83528697  0.04629316  0.08220983  1
  S  S5  1  0.02167403  0.37833798  0.91647966  1
  S  S6  1  0.52163590  0.37859810  0.91715516  1
  S  S7  1  0.02321940  0.66613879  0.41582824  1
  S  S8  1  0.52224974  0.66598717  0.41654545  1
  O  O0  1  0.10697972  0.04514213  0.31119513  1
  O  O1  1  0.60308164  0.03878926  0.31025302  1
  O  O2  1  0.41914609  0.79730363  0.31033885  1
  O  O3  1  0.91783442  0.79819103  0.31088812  1
  O  O4  1  0.48379149  0.18701946  0.30638020  1
  O  O5  1  0.97862878  0.17694379  0.31114341  1
  O  O6  1  0.10460309  0.16961397  0.81159488  1
  O  O7  1  0.60490586  0.16995668  0.81253920  1
  O  O8  1  0.47789734  0.77819645  0.81203634  1
  O  O9  1  0.98512231  0.78057590  0.80816355  1
  O  O10  1  0.41608478  0.03529053  0.81185980  1
  O  O11  1  0.91801338  0.03975113  0.81207605  1
  O  O12  1  0.40116272  0.96618401  0.69124531  1
  O  O13  1  0.90262500  0.97416923  0.69092613  1
  O  O14  1  0.08124941  0.19734563  0.69246014  1
  O  O15  1  0.58546462  0.20609541  0.69283856  1
  O  O16  1  0.01280856  0.82066923  0.69818496  1
  O  O17  1  0.51883320  0.84348066  0.69453339  1
  O  O18  1  0.40201699  0.83260972  0.18935202  1
  O  O19  1  0.90135377  0.83574435  0.19080719  1
  O  O20  1  0.01899551  0.19522367  0.19392584  1
  O  O21  1  0.51107866  0.20039600  0.19664694  1
  O  O22  1  0.08599478  0.96608814  0.19177644  1
  O  O23  1  0.58262532  0.96393766  0.19245263  1
  O  O24  1  0.43604344  0.36679533  0.64379796  1
  O  O25  1  0.93332340  0.36477226  0.64422143  1
  O  O26  1  0.24942222  0.12262802  0.64324651  1
  O  O27  1  0.74724092  0.12591393  0.64137712  1
  O  O28  1  0.31848490  0.51718300  0.63665937  1
  O  O29  1  0.81700158  0.48960767  0.63903938  1
  O  O30  1  0.43161141  0.50043707  0.14345531  1
  O  O31  1  0.93728651  0.50634892  0.14348835  1
  O  O32  1  0.32107702  0.13152550  0.13613258  1
  O  O33  1  0.81851464  0.12016032  0.13676577  1
  O  O34  1  0.24896548  0.36719672  0.14108359  1
  O  O35  1  0.74790130  0.37215214  0.14340567  1
  O  O36  1  0.22391848  0.28658881  0.02396579  1
  O  O37  1  0.72010534  0.28157155  0.02420022  1
  O  O38  1  0.41715381  0.53197669  0.02317502  1
  O  O39  1  0.91753115  0.53304848  0.02148409  1
  O  O40  1  0.34762231  0.14767783  0.02631620  1
  O  O41  1  0.84599289  0.14677462  0.02658124  1
  O  O42  1  0.22171749  0.15897380  0.52349817  1
  O  O43  1  0.72201739  0.15785451  0.52291131  1
  O  O44  1  0.34566219  0.54444661  0.52630441  1
  O  O45  1  0.85196395  0.54008551  0.51953597  1
  O  O46  1  0.41658828  0.29833160  0.52158293  1
  O  O47  1  0.91827353  0.29970823  0.52274871  1
  O  O48  1  0.26332145  0.69488040  0.97625321  1
  O  O49  1  0.76536347  0.69762871  0.97576866  1
  O  O50  1  0.07820474  0.46443897  0.97048158  1
  O  O51  1  0.57792339  0.46515784  0.97141492  1
  O  O52  1  0.15153521  0.83287261  0.97487525  1
  O  O53  1  0.65231892  0.83321871  0.97641391  1
  O  O54  1  0.26594041  0.83316322  0.47556246  1
  O  O55  1  0.76388681  0.83175681  0.47520489  1
  O  O56  1  0.15239539  0.47161255  0.47582593  1
  O  O57  1  0.64967780  0.46666936  0.47390281  1
  O  O58  1  0.07867745  0.69217448  0.47037017  1
  O  O59  1  0.57737204  0.69250833  0.46949790  1
  O  O60  1  0.06344788  0.64082255  0.36083240  1
  O  O61  1  0.55830285  0.63547621  0.35979692  1
  O  O62  1  0.24732183  0.85926854  0.35894069  1
  O  O63  1  0.75314689  0.88870052  0.35711403  1
  O  O64  1  0.18271498  0.50009649  0.35775787  1
  O  O65  1  0.67956269  0.49412390  0.35391099  1
  O  O66  1  0.05900133  0.48302116  0.86134416  1
  O  O67  1  0.55925453  0.48315469  0.86228368  1
  O  O68  1  0.18197724  0.86623845  0.85563975  1
  O  O69  1  0.68279712  0.86522159  0.85846654  1
  O  O70  1  0.25142856  0.62090439  0.85822478  1
  O  O71  1  0.74656080  0.63358823  0.85946098  1
  O  O72  1  0.01607875  0.82371773  0.41362783  1
  O  O73  1  0.51375958  0.82414334  0.41325267  1
  O  O74  1  0.40806709  0.97218999  0.41013319  1
  O  O75  1  0.90816230  0.97005657  0.41384031  1
  O  O76  1  0.08204430  0.18274417  0.41330445  1
  O  O77  1  0.57863491  0.18151995  0.41137605  1
  O  O78  1  0.01502238  0.20605285  0.91462411  1
  O  O79  1  0.51453678  0.20675135  0.91503716  1
  O  O80  1  0.08072596  0.97809124  0.91235649  1
  O  O81  1  0.58237382  0.98152215  0.91408009  1
  O  O82  1  0.40808954  0.84737932  0.91486797  1
  O  O83  1  0.90866594  0.84368425  0.91085647  1
  O  O84  1  0.48643989  0.16000613  0.58828308  1
  O  O85  1  0.98908633  0.16837173  0.58868844  1
  O  O86  1  0.09132557  0.02086424  0.59334207  1
  O  O87  1  0.58914867  0.02263363  0.59060902  1
  O  O88  1  0.40980307  0.80042204  0.58675958  1
  O  O89  1  0.91824468  0.81852238  0.59047898  1
  O  O90  1  0.48668692  0.81017874  0.08881346  1
  O  O91  1  0.98750980  0.81378420  0.08746029  1
  O  O92  1  0.41032575  0.02197095  0.08876454  1
  O  O93  1  0.91004702  0.01922774  0.08684907  1
  O  O94  1  0.08974888  0.15822209  0.09003694  1
  O  O95  1  0.58839383  0.16043654  0.09371355  1
  O  O96  1  0.34516281  0.16983715  0.74849070  1
  O  O97  1  0.84719070  0.17545079  0.74589467  1
  O  O98  1  0.24111544  0.31807023  0.74256082  1
  O  O99  1  0.74162048  0.30721994  0.74430111  1
  O  O100  1  0.41212306  0.51650892  0.74234771  1
  O  O101  1  0.92184043  0.53265565  0.74551215  1
  O  O102  1  0.34740157  0.52227809  0.24417397  1
  O  O103  1  0.84495339  0.52052729  0.24761667  1
  O  O104  1  0.42030139  0.30787581  0.24353876  1
  O  O105  1  0.91181577  0.30739506  0.24192740  1
  O  O106  1  0.24301764  0.17408752  0.24036831  1
  O  O107  1  0.74142441  0.16452870  0.24203791  1
  O  O108  1  0.32513869  0.49760118  0.92140104  1
  O  O109  1  0.82217657  0.49569100  0.91949458  1
  O  O110  1  0.43428545  0.35699297  0.92417771  1
  O  O111  1  0.93431287  0.35551881  0.92334443  1
  O  O112  1  0.25720743  0.14786130  0.92295112  1
  O  O113  1  0.75864352  0.14962519  0.92357819  1
  O  O114  1  0.32210663  0.14853511  0.41888702  1
  O  O115  1  0.82594631  0.15672799  0.42314171  1
  O  O116  1  0.25824392  0.36725887  0.42256267  1
  O  O117  1  0.75418347  0.36077589  0.41929761  1
  O  O118  1  0.43364631  0.51297238  0.42177580  1
  O  O119  1  0.93712937  0.51139595  0.42032977  1
  O  O120  1  0.18188175  0.51401281  0.07721267  1
  O  O121  1  0.67976500  0.51066658  0.07506794  1
  O  O122  1  0.07778926  0.65301063  0.07511882  1
  O  O123  1  0.57801123  0.65320315  0.07811792  1
  O  O124  1  0.25510620  0.87250296  0.07929858  1
  O  O125  1  0.75474980  0.86723845  0.07783835  1
  O  O126  1  0.18062624  0.85008748  0.57452562  1
  O  O127  1  0.67923928  0.84863747  0.57645778  1
  O  O128  1  0.25440843  0.64145416  0.57789502  1
  O  O129  1  0.74954366  0.63851714  0.57816921  1
  O  O130  1  0.07822863  0.50629200  0.57724848  1
  O  O131  1  0.57587641  0.50080138  0.57534646  1
  O  O132  1  0.15120335  0.82219818  0.25708012  1
  O  O133  1  0.64871919  0.81446291  0.25595068  1
  O  O134  1  0.25996886  0.68452725  0.25384040  1
  O  O135  1  0.75926130  0.69318256  0.25225700  1
  O  O136  1  0.08519277  0.48367443  0.25637657  1
  O  O137  1  0.57515297  0.46120359  0.25328708  1
  O  O138  1  0.14838730  0.48180840  0.75644152  1
  O  O139  1  0.65052000  0.47943635  0.75827119  1
  O  O140  1  0.07690798  0.68987661  0.75511951  1
  O  O141  1  0.58551825  0.68754132  0.75698649  1
  O  O142  1  0.25901910  0.82562159  0.75198624  1
  O  O143  1  0.76102874  0.83539560  0.75476708  1
loop_
_geom_bond_atom_site_label_1
_geom_bond_atom_site_label_2
_geom_bond_distance
_geom_bond_site_symmetry_2
Na0 O105 2.376375 1_555
Na0 O107 2.437077 1_555
Na0 O135 2.447277 1_545
Na0 O63 2.547592 1_545
Na0 O133 2.634112 1_545
Na0 O33 2.761623 1_555
Na0 O5 2.795338 1_555
Na0 O19 2.946016 1_545
Na1 O136 2.413088 1_555
Na1 O106 2.482630 1_555
Na1 O134 2.520081 1_555
Na1 O64 2.600791 1_555
Na1 O102 2.640934 1_555
Na1 O0 2.760820 1_555
Na1 O34 2.764870 1_555
Na1 O20 2.780453 1_555
Na2 O103 2.427752 1_555
Na2 O107 2.464354 1_555
Na2 O135 2.514995 1_555
Na2 O65 2.537485 1_555
Na2 O137 2.541943 1_555
Na2 O35 2.618726 1_555
Na2 O1 2.870877 1_555
Na2 O21 3.009331 1_555
Na3 O103 2.399769 1_555
Na3 O132 2.411663 1_655
Na3 O136 2.500543 1_655
Na3 O105 2.504411 1_555
Na3 O31 2.553820 1_555
Na3 O60 2.718971 1_655
Na3 O3 2.892219 1_555
Na3 O22 2.897456 1_655
Na4 O133 2.300211 1_555
Na4 O102 2.417183 1_555
Na4 O137 2.518151 1_555
Na4 O104 2.563061 1_555
Na4 O61 2.601271 1_555
Na4 O30 2.674172 1_555
Na4 O2 2.829734 1_555
Na4 O23 2.846261 1_555
Na5 O100 2.373913 1_555
Na5 O98 2.419439 1_555
Na5 O142 2.459010 1_555
Na5 O70 2.626468 1_555
Na5 O138 2.632932 1_555
Na5 O28 2.710379 1_555
Na5 O8 2.824515 1_555
Na5 O12 2.929935 1_555
Na6 O138 2.332993 1_655
Na6 O97 2.379202 1_555
Na6 O101 2.530758 1_555
Na6 O140 2.550983 1_655
Na6 O25 2.556055 1_555
Na6 O66 2.738170 1_655
Na6 O14 2.811950 1_655
Na6 O11 2.886390 1_555
Na7 O139 2.401987 1_555
Na7 O96 2.404095 1_555
Na7 O141 2.503228 1_555
Na7 O100 2.503449 1_555
Na7 O24 2.515089 1_555
Na7 O67 2.766893 1_555
Na7 O15 2.851591 1_555
Na7 O10 2.951598 1_555
Na8 O96 2.443415 1_555
Na8 O98 2.451143 1_555
Na8 O142 2.528900 1_545
Na8 O140 2.529634 1_545
Na8 O26 2.579537 1_555
Na8 O68 2.636345 1_545
Na8 O6 2.884201 1_555
Na8 O16 2.935952 1_545
Na9 O99 2.404055 1_555
Na9 O141 2.452078 1_545
Na9 O143 2.508495 1_545
Na9 O97 2.563773 1_555
Na9 O27 2.660959 1_555
Na9 O69 2.678738 1_545
Na9 O17 2.809541 1_545
Na9 O7 2.861637 1_555
Na10 O86 2.413112 1_555
Na10 O85 2.483436 1_455
Na10 O128 2.484864 1_555
Na10 O130 2.496983 1_555
Na10 O56 2.674233 1_555
Na10 O14 2.697453 1_555
Na10 O42 2.760801 1_555
Na10 O28 2.885641 1_555
Na11 O87 2.411319 1_555
Na11 O129 2.427971 1_555
Na11 O131 2.473657 1_555
Na11 O84 2.531936 1_555
Na11 O57 2.676221 1_555
Na11 O15 2.694544 1_555
Na11 O43 2.784427 1_555
Na11 O29 2.884338 1_555
Na12 O84 2.357250 1_565
Na12 O126 2.422591 1_555
Na12 O88 2.542075 1_555
Na12 O128 2.621109 1_555
Na12 O12 2.631921 1_555
Na12 O54 2.736333 1_555
Na12 O26 2.759786 1_565
Na12 O46 2.857696 1_565
Na13 O127 2.411681 1_555
Na13 O85 2.448444 1_565
Na13 O89 2.492812 1_555
Na13 O129 2.563816 1_555
Na13 O55 2.658763 1_555
Na13 O13 2.682978 1_555
Na13 O27 2.865737 1_565
Na13 O47 2.885284 1_565
Na14 O94 2.389482 1_565
Na14 O122 2.447525 1_555
Na14 O91 2.461987 1_455
Na14 O124 2.488792 1_555
Na14 O22 2.647108 1_555
Na14 O52 2.665916 1_554
Na14 O36 2.790052 1_565
Na14 O32 2.963050 1_565
Na15 O125 2.459786 1_555
Na15 O95 2.472009 1_565
Na15 O123 2.477498 1_555
Na15 O90 2.561931 1_555
Na15 O53 2.611395 1_554
Na15 O37 2.710036 1_565
Na15 O23 2.738648 1_555
Na15 O33 2.871162 1_565
Na16 O120 2.365903 1_555
Na16 O90 2.403100 1_555
Na16 O92 2.544548 1_565
Na16 O124 2.599971 1_555
Na16 O48 2.648453 1_554
Na16 O18 2.658907 1_555
Na16 O34 2.855703 1_555
Na16 O38 2.868682 1_555
Na17 O91 2.374474 1_555
Na17 O121 2.434733 1_555
Na17 O93 2.535342 1_565
Na17 O125 2.613034 1_555
Na17 O19 2.615660 1_555
Na17 O49 2.739232 1_554
Na17 O35 2.797377 1_555
Na17 O39 2.883739 1_555
Na18 O81 2.418689 1_555
Na18 O108 2.439653 1_555
Na18 O8 2.465984 1_555
Na18 O82 2.489135 1_555
Na18 O110 2.536424 1_555
Na18 O38 2.681303 1_556
Na18 O67 2.928314 1_555
Na18 O53 2.968608 1_555
Na19 O80 2.416367 1_655
Na19 O109 2.474550 1_555
Na19 O83 2.477507 1_555
Na19 O111 2.518715 1_555
Na19 O39 2.541341 1_556
Na19 O9 2.637086 1_555
Na19 O52 2.899049 1_655
Na19 O66 2.962194 1_655
Na20 O82 2.353198 1_545
Na20 O112 2.371556 1_555
Na20 O10 2.487153 1_555
Na20 O110 2.550768 1_555
Na20 O79 2.568064 1_555
Na20 O40 2.744546 1_556
Na20 O68 2.863003 1_545
Na20 O48 2.971076 1_545
Na21 O113 2.353475 1_555
Na21 O83 2.393305 1_545
Na21 O11 2.520625 1_555
Na21 O111 2.544361 1_555
Na21 O78 2.587770 1_655
Na21 O41 2.727841 1_556
Na21 O69 2.824876 1_545
Na21 O49 2.925513 1_545
Na22 O108 2.452529 1_555
Na22 O78 2.459635 1_555
Na22 O80 2.484863 1_545
Na22 O6 2.494957 1_555
Na22 O112 2.540102 1_555
Na22 O36 2.667078 1_556
Na22 O70 2.776653 1_555
Na23 O81 2.423126 1_545
Na23 O79 2.437667 1_555
Na23 O109 2.443873 1_555
Na23 O7 2.471916 1_555
Na23 O113 2.555053 1_555
Na23 O37 2.647089 1_556
Na23 O71 2.894042 1_555
Na23 O51 3.002379 1_555
Na24 O77 2.398770 1_555
Na24 O46 2.495939 1_555
Na24 O114 2.508518 1_555
Na24 O118 2.514948 1_555
Na24 O74 2.527150 1_545
Na24 O4 2.734521 1_555
Na24 O57 2.809103 1_555
Na24 O61 2.982494 1_555
Na25 O115 2.395515 1_555
Na25 O76 2.446833 1_655
Na25 O75 2.471206 1_545
Na25 O119 2.474542 1_555
Na25 O5 2.553007 1_555
Na25 O47 2.575506 1_555
Na26 O72 2.409498 1_545
Na26 O76 2.419632 1_555
Na26 O114 2.447182 1_555
Na26 O0 2.540746 1_555
Na26 O116 2.541958 1_555
Na26 O42 2.586560 1_555
Na26 O62 2.935343 1_545
Na26 O58 2.965653 1_545
Na27 O115 2.421232 1_555
Na27 O117 2.456909 1_555
Na27 O73 2.513051 1_545
Na27 O77 2.525685 1_555
Na27 O43 2.530891 1_555
Na27 O1 2.632051 1_555
Na27 O63 2.790188 1_545
Na27 O59 2.972150 1_545
Na28 O116 2.349191 1_555
Na28 O74 2.386334 1_555
Na28 O118 2.522115 1_555
Na28 O73 2.560526 1_555
Na28 O2 2.616989 1_555
Na28 O44 2.670785 1_555
Na28 O64 2.866240 1_555
Na28 O54 2.889469 1_555
Na29 O117 2.382972 1_555
Na29 O75 2.384060 1_555
Na29 O45 2.526060 1_555
Na29 O119 2.574745 1_555
Na29 O72 2.603042 1_655
Na29 O3 2.651255 1_555
Na29 O55 2.893059 1_555
Na29 O65 2.966210 1_555
Na30 O75 2.441164 1_555
Na30 O76 2.495191 1_665
Na30 O89 2.503030 1_555
Na30 O85 2.551758 1_565
Na30 O72 2.553720 1_655
Na30 O86 2.566636 1_665
Na31 O87 2.438691 1_555
Na31 O84 2.451884 1_555
Na31 O77 2.479257 1_555
Na31 O74 2.565554 1_545
Na31 O88 2.576825 1_545
Na31 O73 2.606048 1_545
Na32 O91 2.458594 1_455
Na32 O94 2.462983 1_565
Na32 O80 2.469512 1_554
Na32 O83 2.517161 1_454
Na32 O93 2.572178 1_465
Na32 O78 2.586338 1_564
Na33 O81 2.398020 1_545
Na33 O82 2.398670 1_545
Na33 O79 2.510624 1_555
Na33 O95 2.574134 1_556
Na33 O90 2.575997 1_546
Na33 O92 2.655961 1_556
Na34 O96 2.406415 1_555
Na34 O98 2.455640 1_555
Na34 O100 2.470325 1_555
Na34 O108 2.523583 1_555
Na34 O112 2.565852 1_555
Na34 O110 2.726857 1_555
Na35 O99 2.387189 1_555
Na35 O109 2.464645 1_555
Na35 O97 2.467425 1_555
Na35 O113 2.528452 1_555
Na35 O101 2.562139 1_555
Na35 O111 2.728267 1_555
Na36 O114 2.377523 1_555
Na36 O116 2.450057 1_555
Na36 O106 2.523071 1_555
Na36 O102 2.603472 1_555
Na36 O118 2.627124 1_555
Na36 O104 2.637531 1_555
Na37 O117 2.443467 1_555
Na37 O115 2.482925 1_555
Na37 O103 2.485804 1_555
Na37 O107 2.520205 1_555
Na37 O105 2.537974 1_555
Na37 O119 2.620345 1_555
Na38 O136 2.442549 1_555
Na38 O132 2.503790 1_555
Na38 O120 2.506928 1_555
Na38 O122 2.509227 1_555
Na38 O134 2.526950 1_555
Na38 O124 2.670210 1_555
Na39 O135 2.431199 1_555
Na39 O133 2.488977 1_555
Na39 O123 2.493044 1_555
Na39 O121 2.515794 1_555
Na39 O137 2.532479 1_555
Na39 O125 2.652103 1_555
Na40 O142 2.442882 1_555
Na40 O130 2.473923 1_555
Na40 O138 2.514137 1_555
Na40 O126 2.530833 1_555
Na40 O140 2.543478 1_555
Na40 O128 2.643818 1_555
Na41 O131 2.490916 1_555
Na41 O127 2.493668 1_555
Na41 O141 2.520483 1_555
Na41 O129 2.543832 1_555
Na41 O143 2.565460 1_555
Na41 O139 2.567510 1_555
Ga0 O5 1.865945 1_555
Ga0 O3 1.918833 1_545
Ga0 O0 1.992945 1_655
Ga0 O75 2.055032 1_545
Ga0 O76 2.072756 1_655
Ga0 O72 2.365516 1_645
Ga1 O1 1.910126 1_555
Ga1 O2 1.930282 1_545
Ga1 O77 1.976771 1_555
Ga1 O74 2.020430 1_545
Ga1 O4 2.081364 1_555
Ga1 O73 2.198319 1_545
Ga2 O6 1.903375 1_565
Ga2 O11 1.905452 1_465
Ga2 O9 2.014182 1_455
Ga2 O80 2.054500 1_555
Ga2 O83 2.058527 1_455
Ga2 O78 2.280952 1_565
Ga3 O8 1.857866 1_555
Ga3 O10 1.915462 1_565
Ga3 O7 1.936721 1_565
Ga3 O82 2.108453 1_555
Ga3 O81 2.116411 1_555
Ga3 O79 2.391167 1_565
Ga4 O24 1.901502 1_555
Ga4 O26 1.936374 1_555
Ga4 O96 1.956823 1_555
Ga4 O100 1.990081 1_555
Ga4 O98 2.065990 1_555
Ga4 O28 2.252398 1_555
Ga5 O31 1.918336 1_555
Ga5 O103 1.937643 1_555
Ga5 O35 1.952691 1_555
Ga5 O105 1.978068 1_555
Ga5 O107 2.059130 1_555
Ga5 O33 2.242950 1_555
Ga6 O36 1.862763 1_556
Ga6 O38 1.910385 1_556
Ga6 O108 1.918399 1_555
Ga6 O112 2.007300 1_555
Ga6 O40 2.218859 1_556
Ga6 O110 2.285118 1_555
Ga7 O37 1.870711 1_556
Ga7 O39 1.897132 1_556
Ga7 O109 1.964082 1_555
Ga7 O113 2.003803 1_555
Ga7 O41 2.218103 1_556
Ga7 O111 2.345435 1_555
Ga8 O42 1.860552 1_555
Ga8 O46 1.885144 1_555
Ga8 O114 1.978497 1_555
Ga8 O116 2.038742 1_555
Ga8 O44 2.192759 1_555
Ga8 O118 2.347799 1_555
Ga9 O43 1.887033 1_555
Ga9 O45 1.919548 1_555
Ga9 O47 1.941570 1_555
Ga9 O115 2.015449 1_555
Ga9 O117 2.087583 1_555
Ga9 O119 2.355898 1_555
Ga10 O63 1.842637 1_555
Ga10 O65 1.888164 1_555
Ga10 O135 1.944398 1_555
Ga10 O133 2.039613 1_555
Ga10 O61 2.254184 1_555
Ga10 O137 2.403660 1_555
Ga11 O70 1.853580 1_555
Ga11 O68 1.916164 1_555
Ga11 O142 1.917051 1_555
Ga11 O138 1.994088 1_555
Ga11 O66 2.272399 1_555
Ga11 O140 2.320786 1_555
O0 Si0 1.625609 1_555
O1 Si1 1.625978 1_545
O2 Si2 1.616378 1_555
O3 Si3 1.631913 1_555
O4 S0 1.485786 1_555
O5 Si4 1.626233 1_555
O6 Si5 1.647605 1_555
O7 Si6 1.633043 1_555
O8 Si7 1.635508 1_555
O9 S1 1.501077 1_555
O10 Si8 1.638594 1_545
O11 Si9 1.631297 1_555
O12 Si8 1.650907 1_555
O12 Ti1 1.928145 1_565
O13 Si9 1.629606 1_565
O13 Ti0 1.899472 1_565
O14 Si5 1.652333 1_555
O14 Ti0 1.921650 1_455
O15 Si6 1.665263 1_555
O15 Ti1 1.844884 1_555
O16 S1 1.466312 1_455
O16 Ti0 2.226827 1_465
O17 Si7 1.650203 1_555
O17 Ti1 1.884944 1_565
O18 Si2 1.633135 1_555
O18 Ti3 1.903421 1_555
O19 Si3 1.662274 1_555
O19 Ti2 1.908474 1_665
O20 Si4 1.657915 1_455
O20 Ti2 1.867003 1_555
O21 S0 1.480412 1_555
O21 Ti3 2.159936 1_545
O22 Si0 1.666009 1_565
O22 Ti2 1.848814 1_565
O23 Si1 1.693481 1_555
O23 Ti3 1.807535 1_555
O24 Si10 1.616703 1_555
O25 Si11 1.638709 1_555
O25 Ti4 1.932300 1_555
O26 Si12 1.626261 1_555
O27 Si13 1.674436 1_555
O27 Ti4 1.851870 1_555
O28 S2 1.472806 1_555
O29 Si14 1.649971 1_555
O29 Ti4 1.848700 1_555
O30 Si15 1.646299 1_555
O30 Ti5 1.906339 1_555
O31 Si16 1.613681 1_555
O32 S3 1.476526 1_555
O32 Ti5 2.172417 1_555
O33 S4 1.471665 1_555
O34 Si17 1.684634 1_555
O34 Ti5 1.830965 1_555
O35 Si18 1.624781 1_555
O36 Si17 1.627724 1_555
O37 Si18 1.640572 1_555
O38 Si15 1.622073 1_555
O39 Si16 1.649823 1_555
O40 S3 1.475678 1_555
O41 S4 1.476996 1_555
O42 Si12 1.644912 1_555
O43 Si13 1.623684 1_555
O44 S2 1.479863 1_555
O45 Si14 1.614396 1_555
O46 Si10 1.653534 1_555
O47 Si11 1.616088 1_555
O48 Si19 1.668633 1_555
O48 Ti6 1.914650 1_556
O49 Si20 1.666904 1_555
O49 Ti7 1.899188 1_556
O50 S5 1.498280 1_555
O50 Ti6 2.010589 1_556
O51 S6 1.501696 1_555
O51 Ti7 2.006824 1_556
O52 Si21 1.674499 1_555
O52 Ti6 1.876510 1_556
O53 Si22 1.672355 1_555
O53 Ti7 1.891363 1_556
O54 Si23 1.651814 1_555
O54 Ti8 1.933826 1_555
O55 Si24 1.657528 1_555
O55 Ti9 1.930603 1_555
O56 Si25 1.659806 1_555
O56 Ti8 1.902284 1_555
O57 Si26 1.655611 1_555
O57 Ti9 1.914533 1_555
O58 S7 1.499451 1_555
O58 Ti8 2.014877 1_555
O59 S8 1.467247 1_555
O59 Ti9 2.219826 1_555
O60 S7 1.483080 1_555
O60 Ti10 2.207827 1_555
O61 S8 1.492734 1_555
O62 Si23 1.650126 1_555
O62 Ti10 1.850814 1_555
O63 Si24 1.645422 1_555
O64 Si25 1.658512 1_555
O64 Ti10 1.933909 1_555
O65 Si26 1.647294 1_555
O66 S5 1.476386 1_555
O67 S6 1.471848 1_555
O67 Ti11 2.313399 1_555
O68 Si21 1.633809 1_555
O69 Si22 1.643689 1_555
O69 Ti11 1.954276 1_555
O70 Si19 1.628786 1_555
O71 Si20 1.637097 1_555
O71 Ti11 1.878995 1_555
O72 S7 1.481083 1_555
O73 S8 1.501034 1_555
O74 Si23 1.636803 1_555
O75 Si24 1.647248 1_555
O76 Si25 1.635578 1_555
O77 Si26 1.661185 1_555
O78 S5 1.488029 1_555
O79 S6 1.480759 1_555
O80 Si21 1.649005 1_555
O81 Si22 1.635996 1_555
O82 Si19 1.636277 1_555
O83 Si20 1.639523 1_555
O84 Si10 1.674196 1_555
O84 Ti1 2.079960 1_555
O85 Si11 1.679039 1_555
O85 Ti0 1.909036 1_555
O86 Si12 1.636459 1_555
O86 Ti0 1.955352 1_455
O87 Si13 1.635969 1_555
O87 Ti1 1.963712 1_555
O88 S2 1.476998 1_555
O88 Ti1 2.299539 1_565
O89 Si14 1.630656 1_555
O89 Ti0 1.966392 1_565
O90 Si15 1.690909 1_555
O90 Ti3 1.924719 1_555
O91 Si16 1.668713 1_555
O91 Ti2 2.097779 1_665
O92 S3 1.481621 1_555
O92 Ti3 2.269076 1_545
O93 S4 1.478987 1_555
O93 Ti2 2.294123 1_655
O94 Si17 1.623751 1_555
O94 Ti2 2.000933 1_555
O95 Si18 1.660363 1_555
O95 Ti3 1.929941 1_545
O96 Si8 1.634229 1_545
O97 Si9 1.646944 1_555
O97 Ti4 2.088878 1_555
O98 Si5 1.635226 1_555
O99 Si6 1.637213 1_555
O99 Ti4 2.010050 1_555
O100 Si7 1.626243 1_555
O101 S1 1.480357 1_555
O101 Ti4 2.268890 1_555
O102 Si2 1.684263 1_555
O102 Ti5 1.905255 1_555
O103 Si3 1.635599 1_555
O104 S0 1.489839 1_555
O104 Ti5 2.223654 1_555
O105 Si4 1.625879 1_555
O106 Si0 1.658533 1_555
O106 Ti5 1.951968 1_555
O107 Si1 1.622127 1_545
O108 Si19 1.648684 1_555
O109 Si20 1.642551 1_555
O110 S6 1.485169 1_555
O111 S5 1.480711 1_655
O112 Si21 1.652710 1_545
O113 Si22 1.654590 1_545
O114 Si23 1.640834 1_545
O115 Si24 1.644249 1_545
O116 Si25 1.653178 1_555
O117 Si26 1.638075 1_555
O118 S8 1.494082 1_555
O119 S7 1.472573 1_655
O120 Si17 1.634345 1_555
O120 Ti6 2.022944 1_555
O121 Si18 1.652482 1_555
O121 Ti7 1.963859 1_555
O122 Si16 1.673722 1_455
O122 Ti6 1.932173 1_555
O123 Si15 1.637893 1_555
O123 Ti7 2.011675 1_555
O124 S3 1.520688 1_565
O124 Ti6 2.175400 1_555
O125 S4 1.531007 1_565
O125 Ti7 2.122798 1_555
O126 Si12 1.657591 1_565
O126 Ti8 1.941339 1_555
O127 Si13 1.628665 1_565
O127 Ti9 1.995789 1_555
O128 S2 1.528848 1_555
O128 Ti8 2.128692 1_555
O129 Si14 1.678317 1_555
O129 Ti9 1.904070 1_555
O130 Si11 1.653609 1_455
O130 Ti8 1.963168 1_555
O131 Si10 1.650419 1_555
O131 Ti9 1.951020 1_555
O132 Si0 1.630868 1_565
O132 Ti10 1.981662 1_555
O133 Si1 1.646811 1_555
O134 Si2 1.636991 1_555
O134 Ti10 1.897501 1_555
O135 Si3 1.654109 1_555
O136 Si4 1.647060 1_455
O136 Ti10 2.036496 1_555
O137 S0 1.491335 1_555
O138 Si5 1.662550 1_555
O139 Si6 1.638211 1_555
O139 Ti11 1.947445 1_555
O140 S1 1.500119 1_455
O141 Si7 1.650202 1_555
O141 Ti11 2.017698 1_555
O142 Si8 1.655877 1_555
O143 Si9 1.658824 1_565
O143 Ti11 1.851294 1_555
