# generated using pymatgen
data_Na6Ca4Ti4Si3(S3O16)3
_symmetry_space_group_name_H-M   'P 1'
_cell_length_a   17.99514643
_cell_length_b   8.95457350
_cell_length_c   23.03870790
_cell_angle_alpha   89.88238974
_cell_angle_beta   89.88277174
_cell_angle_gamma   119.89281630
_symmetry_Int_Tables_number   1
_chemical_formula_structural   Na6Ca4Ti4Si3(S3O16)3
_chemical_formula_sum   'Na18 Ca12 Ti12 Si9 S27 O144'
_cell_volume   3218.49955685
_cell_formula_units_Z   3
loop_
 _symmetry_equiv_pos_site_id
 _symmetry_equiv_pos_as_xyz
  1  'x, y, z'
loop_
 _atom_site_type_symbol
 _atom_site_label
 _atom_site_symmetry_multiplicity
 _atom_site_fract_x
 _atom_site_fract_y
 _atom_site_fract_z
 _atom_site_occupancy
  Na  Na0  1  0.99630065  0.62835945  0.24977316  1
  Na  Na1  1  0.50019769  0.61571922  0.24273414  1
  Na  Na2  1  0.00123727  0.38208926  0.74179395  1
  Na  Na3  1  0.49686727  0.36751773  0.74872735  1
  Na  Na4  1  0.67577139  0.33054579  0.91327436  1
  Na  Na5  1  0.17311752  0.02555109  0.41724234  1
  Na  Na6  1  0.99244767  0.00052157  0.50553927  1
  Na  Na7  1  0.49960857  0.99924972  0.50048371  1
  Na  Na8  1  0.99672646  0.99287773  0.99319593  1
  Na  Na9  1  0.49245208  0.98618527  0.00133565  1
  Na  Na10  1  0.30719956  0.30035249  0.83497857  1
  Na  Na11  1  0.83924303  0.36303765  0.83768923  1
  Na  Na12  1  0.33629392  0.31372292  0.34013643  1
  Na  Na13  1  0.81643356  0.32780235  0.34393400  1
  Na  Na14  1  0.17877786  0.65665151  0.15953664  1
  Na  Na15  1  0.66471314  0.65987839  0.16039621  1
  Na  Na16  1  0.16366307  0.65413883  0.66839160  1
  Na  Na17  1  0.68131983  0.70508748  0.66239112  1
  Ca  Ca0  1  0.99303255  0.99980752  0.35654450  1
  Ca  Ca1  1  0.49329004  0.98581297  0.85566651  1
  Ca  Ca2  1  0.31699526  0.32474530  0.68393928  1
  Ca  Ca3  1  0.83368827  0.32629265  0.67696076  1
  Ca  Ca4  1  0.33268527  0.33894379  0.17723781  1
  Ca  Ca5  1  0.82479835  0.32031709  0.17977718  1
  Ca  Ca6  1  0.83935923  0.34081832  0.98771182  1
  Ca  Ca7  1  0.33970691  0.34017637  0.48867220  1
  Ca  Ca8  1  0.16981764  0.66515849  0.31281609  1
  Ca  Ca9  1  0.67648200  0.66341935  0.31563478  1
  Ca  Ca10  1  0.17554989  0.68498444  0.81268241  1
  Ca  Ca11  1  0.67141660  0.67613115  0.81244463  1
  Ti  Ti0  1  0.50283592  0.02126314  0.36418382  1
  Ti  Ti1  1  0.01043893  0.99393378  0.85963975  1
  Ti  Ti2  1  0.00412891  0.02552346  0.64756508  1
  Ti  Ti3  1  0.50824067  0.99978580  0.64488901  1
  Ti  Ti4  1  0.00870902  0.01729289  0.14392702  1
  Ti  Ti5  1  0.49585549  0.98232933  0.14247956  1
  Ti  Ti6  1  0.32363067  0.33534524  0.99031342  1
  Ti  Ti7  1  0.82352703  0.31284175  0.49196143  1
  Ti  Ti8  1  0.16182842  0.66298995  0.01338271  1
  Ti  Ti9  1  0.67068047  0.67430149  0.01386902  1
  Ti  Ti10  1  0.16977396  0.66636583  0.51656518  1
  Ti  Ti11  1  0.66545592  0.65828661  0.51659679  1
  Si  Si0  1  0.14123696  0.28473384  0.75396698  1
  Si  Si1  1  0.98575994  0.34179854  0.58364280  1
  Si  Si2  1  0.68273479  0.01729862  0.58549909  1
  Si  Si3  1  0.48678386  0.62452614  0.08412548  1
  Si  Si4  1  0.18410036  0.34994753  0.08547125  1
  Si  Si5  1  0.81701374  0.67236344  0.91415550  1
  Si  Si6  1  0.17548064  0.97212561  0.91788448  1
  Si  Si7  1  0.31243598  0.96064154  0.41546190  1
  Si  Si8  1  0.67549890  0.37748392  0.41816525  1
  S  S0  1  0.14354438  0.00116639  0.24806662  1
  S  S1  1  0.63590232  0.99978197  0.24994070  1
  S  S2  1  0.36335029  0.72552064  0.25076692  1
  S  S3  1  0.85700165  0.71437749  0.24368404  1
  S  S4  1  0.99920348  0.29118719  0.24447111  1
  S  S5  1  0.49862000  0.27558910  0.25113314  1
  S  S6  1  0.64402364  0.28665965  0.74800943  1
  S  S7  1  0.99728799  0.72027898  0.75039782  1
  S  S8  1  0.50056888  0.70805886  0.74439723  1
  S  S9  1  0.35908951  0.00070752  0.74323043  1
  S  S10  1  0.86158612  0.00089823  0.74989862  1
  S  S11  1  0.49186275  0.33431237  0.58752327  1
  S  S12  1  0.17301524  0.01362984  0.58060333  1
  S  S13  1  0.33444757  0.65407381  0.58393609  1
  S  S14  1  0.83097709  0.63248708  0.57951465  1
  S  S15  1  0.99231039  0.65015330  0.08771347  1
  S  S16  1  0.33167661  0.02675344  0.08144677  1
  S  S17  1  0.83397038  0.01436168  0.08459333  1
  S  S18  1  0.67337995  0.33153064  0.08193469  1
  S  S19  1  0.31142899  0.65719382  0.92296216  1
  S  S20  1  0.02222883  0.36968872  0.91515192  1
  S  S21  1  0.51654061  0.37803274  0.91992496  1
  S  S22  1  0.66639587  0.96364274  0.91996469  1
  S  S23  1  0.81110289  0.96622801  0.42278162  1
  S  S24  1  0.16701634  0.37050138  0.42012833  1
  S  S25  1  0.01664525  0.65500308  0.41935717  1
  S  S26  1  0.52200832  0.67588010  0.41336246  1
  O  O0  1  0.10329520  0.00588220  0.30333457  1
  O  O1  1  0.59078537  0.00606727  0.30241216  1
  O  O2  1  0.41307339  0.82212244  0.30151754  1
  O  O3  1  0.90124144  0.78998713  0.29872927  1
  O  O4  1  0.49961406  0.18392619  0.30572430  1
  O  O5  1  0.99548040  0.20194309  0.29827838  1
  O  O6  1  0.08245642  0.16170716  0.80924376  1
  O  O7  1  0.60415382  0.20123023  0.80353079  1
  O  O8  1  0.49633211  0.78956927  0.79806861  1
  O  O9  1  0.99505944  0.80612432  0.80586518  1
  O  O10  1  0.40294357  0.01230036  0.79835525  1
  O  O11  1  0.90844130  -0.00048540  0.80136671  1
  O  O12  1  0.41240831  0.99818752  0.69359399  1
  O  O13  1  0.90667998  0.99709638  0.69431562  1
  O  O14  1  0.08442578  0.17453406  0.69311392  1
  O  O15  1  0.58969399  0.17483188  0.69805904  1
  O  O16  1  0.99604004  0.81687296  0.69866824  1
  O  O17  1  0.50166637  0.81306613  0.69266849  1
  O  O18  1  0.40988130  0.82085813  0.19508619  1
  O  O19  1  0.91005725  0.81946517  0.19367880  1
  O  O20  1  -0.00002379  0.18917065  0.19285989  1
  O  O21  1  0.49961658  0.18020654  0.19920091  1
  O  O22  1  0.08920655  0.00433363  0.19801039  1
  O  O23  1  0.58721356  0.99525398  0.19556223  1
  O  O24  1  0.45534624  0.36350772  0.64017284  1
  O  O25  1  0.96391663  0.39090793  0.64533113  1
  O  O26  1  0.22892456  0.09041509  0.63056699  1
  O  O27  1  0.73522496  0.07628688  0.64350480  1
  O  O28  1  0.32004623  0.54755799  0.63523172  1
  O  O29  1  0.81019104  0.53437663  0.63351487  1
  O  O30  1  0.46418542  0.53838936  0.14721890  1
  O  O31  1  0.95569337  0.54783968  0.14100142  1
  O  O32  1  0.31396539  0.08757303  0.13555620  1
  O  O33  1  0.81852669  0.08971536  0.13637547  1
  O  O34  1  0.23578455  0.39271260  0.14390019  1
  O  O35  1  0.72838962  0.36439281  0.13251428  1
  O  O36  1  0.23219968  0.30605263  0.03191280  1
  O  O37  1  0.70672830  0.29293965  0.02937687  1
  O  O38  1  0.41286562  0.51649093  0.03484698  1
  O  O39  1  0.93707995  0.57598693  0.03736799  1
  O  O40  1  0.34831577  0.14462532  0.03212129  1
  O  O41  1  0.85152331  0.12080395  0.03282038  1
  O  O42  1  0.20716066  0.11831537  0.52749544  1
  O  O43  1  0.73077946  0.15719344  0.53159406  1
  O  O44  1  0.35215919  0.58566836  0.53145605  1
  O  O45  1  0.84170264  0.53855899  0.53006341  1
  O  O46  1  0.43804813  0.29905123  0.53629462  1
  O  O47  1  0.91165840  0.30927627  0.53399735  1
  O  O48  1  0.25872380  0.66717185  0.97114335  1
  O  O49  1  0.76026982  0.69060552  0.97204421  1
  O  O50  1  0.07629346  0.46970922  0.96716048  1
  O  O51  1  0.58091275  0.48642434  0.96561938  1
  O  O52  1  0.15804913  0.83214964  0.97226199  1
  O  O53  1  0.66365779  0.85774879  0.97126673  1
  O  O54  1  0.26087401  0.83169847  0.47235735  1
  O  O55  1  0.75805392  0.84856822  0.47029385  1
  O  O56  1  0.16472580  0.47084920  0.47081432  1
  O  O57  1  0.65651125  0.48086587  0.47139037  1
  O  O58  1  0.08065196  0.67545078  0.46463605  1
  O  O59  1  0.57557193  0.69017630  0.46456902  1
  O  O60  1  0.04589288  0.63304307  0.36135715  1
  O  O61  1  0.55854193  0.65643385  0.35865492  1
  O  O62  1  0.25346675  0.88372250  0.35971811  1
  O  O63  1  0.77019814  0.90555975  0.36624401  1
  O  O64  1  0.16893906  0.45436471  0.36534826  1
  O  O65  1  0.69532863  0.47570295  0.35813553  1
  O  O66  1  0.05978095  0.46449200  0.86145475  1
  O  O67  1  0.54611647  0.45949238  0.86231560  1
  O  O68  1  0.19770435  0.91301711  0.85931258  1
  O  O69  1  0.66790957  0.88235979  0.86573777  1
  O  O70  1  0.27074058  0.63692910  0.86675885  1
  O  O71  1  0.75115358  0.61918749  0.86139617  1
  O  O72  1  0.01580627  0.82173084  0.42102177  1
  O  O73  1  0.51818226  0.84136634  0.41112127  1
  O  O74  1  0.41009042  0.97516701  0.40780872  1
  O  O75  1  0.89614992  0.97898464  0.42561285  1
  O  O76  1  0.08906583  0.19499496  0.42372786  1
  O  O77  1  0.58341389  0.18386690  0.41105221  1
  O  O78  1  0.01964606  0.20077230  0.91655907  1
  O  O79  1  0.51636086  0.21028368  0.92198580  1
  O  O80  1  0.08525577  0.98327719  0.91251993  1
  O  O81  1  0.58850623  0.98245686  0.92407641  1
  O  O82  1  0.39667022  0.81420193  0.92625221  1
  O  O83  1  0.91060976  0.85137150  0.90767646  1
  O  O84  1  0.50505844  0.18128691  0.59488002  1
  O  O85  1  0.99292558  0.16087800  0.59033604  1
  O  O86  1  0.08528975  0.98897566  0.59167212  1
  O  O87  1  0.58565588  0.00310493  0.59350378  1
  O  O88  1  0.41058511  0.83214831  0.59291758  1
  O  O89  1  0.90879947  0.80398298  0.58371822  1
  O  O90  1  0.49386050  0.82486280  0.09327955  1
  O  O91  1  0.00459910  0.82851439  0.09541879  1
  O  O92  1  0.41176352  0.01015493  0.08850324  1
  O  O93  1  0.91064363  0.99085023  0.09395164  1
  O  O94  1  0.08657092  0.16903037  0.09417757  1
  O  O95  1  0.58567196  0.17819688  0.09393999  1
  O  O96  1  0.35431971  0.16112770  0.73952839  1
  O  O97  1  0.85811176  0.16370862  0.74999230  1
  O  O98  1  0.23212753  0.29460120  0.75519076  1
  O  O99  1  0.73070507  0.31461825  0.74412678  1
  O  O100  1  0.42557606  0.53357344  0.74088742  1
  O  O101  1  0.92057508  0.54445852  0.75191795  1
  O  O102  1  0.35947987  0.55614732  0.25063296  1
  O  O103  1  0.84938919  0.54045879  0.24109460  1
  O  O104  1  0.42080943  0.29297188  0.25344447  1
  O  O105  1  0.92304601  0.31390599  0.24171354  1
  O  O106  1  0.23029391  0.14715771  0.24439397  1
  O  O107  1  0.72223905  0.15224614  0.24813608  1
  O  O108  1  0.32177950  0.50261368  0.93183953  1
  O  O109  1  0.82680475  0.50491796  0.92567453  1
  O  O110  1  0.43154584  0.35444081  0.93229723  1
  O  O111  1  0.93586223  0.34409557  0.92288824  1
  O  O112  1  0.25587042  0.16189518  0.93748695  1
  O  O113  1  0.74261070  0.13697219  0.92370441  1
  O  O114  1  0.32634513  0.15083071  0.42499508  1
  O  O115  1  0.82143391  0.14103942  0.43133790  1
  O  O116  1  0.24312242  0.34861262  0.42346197  1
  O  O117  1  0.75440140  0.34446901  0.43512378  1
  O  O118  1  0.43444874  0.53085769  0.42036948  1
  O  O119  1  0.93096726  0.50760159  0.43072588  1
  O  O120  1  0.16323974  0.50088227  0.06615052  1
  O  O121  1  0.66194509  0.48423920  0.07343870  1
  O  O122  1  0.07872541  0.66984773  0.07787639  1
  O  O123  1  0.58291875  0.66849219  0.06336621  1
  O  O124  1  0.25918027  0.84967045  0.06980937  1
  O  O125  1  0.75677962  0.83932846  0.07697197  1
  O  O126  1  0.16226035  0.83759819  0.57188916  1
  O  O127  1  0.66306670  0.82553095  0.56461066  1
  O  O128  1  0.25633570  0.67227908  0.57662111  1
  O  O129  1  0.75595154  0.66182070  0.56759931  1
  O  O130  1  0.08123198  0.49528157  0.56073454  1
  O  O131  1  0.57881527  0.48841394  0.57732188  1
  O  O132  1  0.14067788  0.83240202  0.24205450  1
  O  O133  1  0.64048508  0.83844301  0.24835424  1
  O  O134  1  0.27819165  0.70797610  0.24701456  1
  O  O135  1  0.77231493  0.70177902  0.24040726  1
  O  O136  1  0.07711371  0.46403983  0.24080616  1
  O  O137  1  0.57549549  0.45123760  0.24980924  1
  O  O138  1  0.13995302  0.46250287  0.74817977  1
  O  O139  1  0.64070062  0.44927719  0.74210613  1
  O  O140  1  0.07539893  0.70481023  0.74900781  1
  O  O141  1  0.57943959  0.69464462  0.74099651  1
  O  O142  1  0.27432985  0.84626975  0.73972076  1
  O  O143  1  0.77498127  0.84939893  0.74605681  1
loop_
_geom_bond_atom_site_label_1
_geom_bond_atom_site_label_2
_geom_bond_distance
_geom_bond_site_symmetry_2
Na0 O132 2.320603 1_655
Na0 O103 2.361632 1_555
Na0 O105 2.450354 1_555
Na0 O136 2.540753 1_655
Na0 O31 2.612169 1_555
Na0 O60 2.716515 1_655
Na1 O30 2.303621 1_555
Na1 O133 2.313293 1_555
Na1 O102 2.319741 1_555
Na1 O137 2.453788 1_555
Na1 O104 2.516849 1_555
Na1 O61 2.828714 1_555
Na2 O138 2.231934 1_555
Na2 O25 2.335484 1_455
Na2 O97 2.338696 1_455
Na2 O140 2.513666 1_555
Na2 O101 2.525650 1_455
Na2 O66 2.915449 1_555
Na3 O96 2.306299 1_555
Na3 O139 2.316829 1_555
Na3 O100 2.406401 1_555
Na3 O141 2.545305 1_555
Na3 O24 2.606840 1_555
Na3 O67 2.757325 1_555
Na4 O109 2.383587 1_555
Na4 O79 2.519229 1_555
Na4 O71 2.536740 1_555
Na4 O113 2.566433 1_555
Na4 O81 2.712908 1_545
Na4 O37 2.787104 1_556
Na4 O7 2.816417 1_555
Na4 O51 2.947870 1_555
Na5 O114 2.411014 1_555
Na5 O72 2.490133 1_545
Na5 O116 2.519166 1_555
Na5 O76 2.626738 1_555
Na5 O42 2.650501 1_555
Na5 O62 2.699881 1_545
Na5 O0 2.879482 1_555
Na5 O58 2.927133 1_545
Na6 O85 2.424420 1_555
Na6 O89 2.437741 1_545
Na6 O75 2.472301 1_545
Na6 O76 2.561887 1_655
Na6 O86 2.631473 1_645
Na6 O72 2.685440 1_645
Na7 O77 2.596295 1_565
Na7 O73 2.613285 1_555
Na7 O74 2.621046 1_555
Na7 O88 2.631350 1_555
Na7 O87 2.636694 1_565
Na7 O84 2.693034 1_565
Na8 O83 2.440186 1_555
Na8 O78 2.443623 1_665
Na8 O80 2.474886 1_655
Na8 O93 2.783053 1_556
Na8 O91 2.815610 1_656
Na8 O94 2.828967 1_666
Na9 O82 2.390012 1_554
Na9 O81 2.490435 1_554
Na9 O92 2.547125 1_565
Na9 O90 2.568784 1_555
Na9 O79 2.583630 1_564
Na9 O95 2.734381 1_565
Na10 O98 2.268894 1_555
Na10 O112 2.608707 1_555
Na10 O108 2.806119 1_555
Na10 O96 2.857688 1_555
Na11 O109 2.462799 1_555
Na11 O101 2.508201 1_555
Na11 O111 2.685368 1_555
Na11 O113 2.740340 1_555
Na11 O99 2.797536 1_555
Na11 O97 2.828318 1_555
Na12 O114 2.389221 1_555
Na12 O104 2.570494 1_555
Na12 O118 2.630988 1_555
Na12 O116 2.665599 1_555
Na12 O106 2.814872 1_555
Na12 O102 2.865976 1_555
Na13 O117 2.416579 1_555
Na13 O115 2.645137 1_555
Na13 O119 2.749709 1_555
Na13 O107 2.754832 1_555
Na13 O103 2.905421 1_555
Na14 O120 2.505743 1_555
Na14 O136 2.579722 1_555
Na14 O134 2.583099 1_555
Na14 O124 2.614294 1_555
Na14 O122 2.649546 1_555
Na14 O132 2.764683 1_555
Na15 O125 2.518267 1_555
Na15 O121 2.534743 1_555
Na15 O135 2.565406 1_555
Na15 O137 2.700445 1_555
Na15 O123 2.701034 1_555
Na15 O133 2.749146 1_555
Na16 O138 2.399969 1_555
Na16 O142 2.497261 1_555
Na16 O140 2.624488 1_555
Na16 O128 2.644195 1_555
Na16 O126 2.769300 1_555
Na16 O130 2.881310 1_555
Na17 O143 2.465493 1_555
Na17 O141 2.542509 1_555
Na17 O127 2.586905 1_555
Na17 O129 2.689466 1_555
Na17 O139 2.731778 1_555
Na17 O131 2.733350 1_555
Na17 O27 2.992872 1_565
Ca0 O3 2.226783 1_555
Ca0 O5 2.233934 1_565
Ca0 O75 2.295591 1_555
Ca0 O0 2.307590 1_665
Ca0 O76 2.334189 1_665
Ca0 O72 2.358277 1_655
Ca1 O10 2.198802 1_565
Ca1 O8 2.226447 1_555
Ca1 O7 2.299689 1_565
Ca1 O82 2.311713 1_555
Ca1 O81 2.341568 1_555
Ca1 O79 2.393856 1_565
Ca2 O98 2.162616 1_555
Ca2 O28 2.263718 1_555
Ca2 O26 2.265065 1_555
Ca2 O96 2.283551 1_555
Ca2 O100 2.326932 1_555
Ca2 O24 2.542138 1_555
Ca3 O27 2.191855 1_555
Ca3 O25 2.235491 1_555
Ca3 O29 2.330656 1_555
Ca3 O99 2.373662 1_555
Ca3 O97 2.403011 1_555
Ca3 O101 2.494731 1_555
Ca4 O34 2.168682 1_555
Ca4 O30 2.245736 1_555
Ca4 O32 2.314447 1_555
Ca4 O106 2.358279 1_555
Ca4 O102 2.440633 1_555
Ca4 O104 2.534928 1_555
Ca5 O35 2.244935 1_555
Ca5 O33 2.247932 1_555
Ca5 O103 2.285146 1_555
Ca5 O105 2.297030 1_555
Ca5 O107 2.315441 1_555
Ca5 O31 2.386985 1_555
Ca6 O109 2.139318 1_555
Ca6 O39 2.272145 1_556
Ca6 O111 2.277147 1_555
Ca6 O113 2.321963 1_555
Ca6 O41 2.330612 1_556
Ca6 O37 2.402213 1_556
Ca7 O114 2.165656 1_555
Ca7 O46 2.264277 1_555
Ca7 O44 2.317975 1_555
Ca7 O118 2.318346 1_555
Ca7 O116 2.329100 1_555
Ca7 O42 2.386788 1_555
Ca8 O62 2.083924 1_555
Ca8 O64 2.233545 1_555
Ca8 O134 2.342801 1_555
Ca8 O60 2.378168 1_555
Ca8 O136 2.409902 1_555
Ca8 O132 2.439615 1_555
Ca9 O65 2.112370 1_555
Ca9 O63 2.297513 1_555
Ca9 O61 2.312882 1_555
Ca9 O135 2.343215 1_555
Ca9 O137 2.407037 1_555
Ca9 O133 2.506923 1_555
Ca10 O68 2.163768 1_555
Ca10 O138 2.309046 1_555
Ca10 O66 2.319989 1_555
Ca10 O70 2.326552 1_555
Ca10 O142 2.343080 1_555
Ca10 O140 2.400052 1_555
Ca11 O71 2.079498 1_555
Ca11 O69 2.246532 1_555
Ca11 O143 2.305704 1_555
Ca11 O141 2.400011 1_555
Ca11 O67 2.405783 1_555
Ca11 O139 2.440506 1_555
O0 S0 1.474656 1_555
O1 S1 1.471569 1_545
O1 Ti0 2.180574 1_555
O2 S2 1.467286 1_555
O2 Ti0 2.241090 1_565
O3 S3 1.473376 1_555
O4 S5 1.505443 1_555
O4 Ti0 2.003841 1_555
O5 S4 1.456735 1_555
O6 Si0 1.667794 1_555
O6 Ti1 1.824999 1_545
O7 S6 1.476927 1_555
O8 S8 1.458191 1_555
O9 S7 1.503360 1_555
O9 Ti1 1.996443 1_655
O10 S9 1.472905 1_555
O11 S10 1.459982 1_555
O11 Ti1 2.296749 1_645
O12 S9 1.498678 1_565
O12 Ti3 2.049558 1_555
O13 S10 1.524120 1_565
O13 Ti2 1.961180 1_665
O14 Si0 1.729288 1_555
O14 Ti2 1.749198 1_555
O15 S6 1.521973 1_555
O15 Ti3 1.957320 1_545
O16 S7 1.477918 1_555
O16 Ti2 2.148804 1_665
O17 S8 1.510509 1_555
O17 Ti3 1.953464 1_555
O18 S2 1.534320 1_555
O18 Ti5 1.925755 1_555
O19 S3 1.489903 1_555
O19 Ti4 2.110013 1_665
O20 S4 1.505194 1_455
O20 Ti4 1.977852 1_555
O21 S5 1.476718 1_555
O21 Ti5 2.177672 1_545
O22 S0 1.522825 1_555
O22 Ti4 1.959259 1_555
O23 S1 1.519252 1_555
O23 Ti5 2.007714 1_555
O24 S11 1.463128 1_555
O25 Si1 1.593841 1_555
O26 S12 1.458932 1_555
O27 Si2 1.570945 1_555
O28 S13 1.456453 1_555
O29 S14 1.457934 1_555
O30 Si3 1.597987 1_555
O31 S15 1.473469 1_555
O32 S16 1.458218 1_555
O33 S17 1.464457 1_555
O34 Si4 1.573517 1_555
O35 S18 1.462936 1_555
O36 Si4 1.662217 1_555
O36 Ti6 1.804641 1_554
O37 S18 1.466693 1_555
O38 Si3 1.649912 1_555
O38 Ti6 1.918250 1_554
O39 S15 1.457455 1_555
O40 S16 1.474375 1_555
O40 Ti6 2.189265 1_554
O41 S17 1.457630 1_555
O42 S12 1.473576 1_555
O43 Si2 1.663954 1_555
O43 Ti7 1.797711 1_555
O44 S13 1.461064 1_555
O45 S14 1.485769 1_555
O45 Ti7 2.076613 1_555
O46 S11 1.460102 1_555
O47 Si1 1.670833 1_555
O47 Ti7 1.873698 1_555
O48 S19 1.490052 1_555
O48 Ti8 1.979023 1_556
O49 Si5 1.734833 1_555
O49 Ti9 1.818621 1_556
O50 S20 1.524811 1_555
O50 Ti8 1.964077 1_556
O51 S21 1.510194 1_555
O51 Ti9 1.995408 1_556
O52 Si6 1.684930 1_555
O52 Ti8 1.814845 1_556
O53 S22 1.499044 1_555
O53 Ti9 1.969407 1_556
O54 Si7 1.683222 1_555
O54 Ti10 1.866669 1_555
O55 S23 1.485942 1_555
O55 Ti11 1.993257 1_555
O56 S24 1.487876 1_555
O56 Ti10 2.008453 1_555
O57 Si8 1.672016 1_555
O57 Ti11 1.840452 1_555
O58 S25 1.497958 1_555
O58 Ti10 2.036541 1_555
O59 S26 1.489803 1_555
O59 Ti11 2.145100 1_555
O60 S25 1.484112 1_555
O61 S26 1.470625 1_555
O62 Si7 1.590750 1_555
O63 S23 1.463502 1_555
O64 S24 1.458757 1_555
O65 Si8 1.579158 1_555
O66 S20 1.458845 1_555
O67 S21 1.477528 1_555
O68 Si6 1.572492 1_555
O69 S22 1.454189 1_555
O70 S19 1.455365 1_555
O71 Si5 1.598302 1_555
O72 S25 1.501125 1_555
O73 S26 1.518127 1_555
O73 Ti0 2.068365 1_565
O74 Si7 1.704974 1_555
O74 Ti0 1.808521 1_565
O75 S23 1.478416 1_555
O76 S24 1.498678 1_555
O77 Si8 1.708013 1_555
O77 Ti0 1.815756 1_555
O78 S20 1.490239 1_555
O78 Ti1 2.209645 1_545
O79 S21 1.501165 1_555
O80 Si6 1.680396 1_555
O80 Ti1 1.854795 1_555
O81 S22 1.495604 1_555
O82 S19 1.478730 1_555
O83 Si5 1.653913 1_555
O83 Ti1 1.944698 1_655
O84 S11 1.512056 1_555
O84 Ti3 2.014336 1_545
O85 Si1 1.694787 1_555
O85 Ti2 1.867131 1_655
O86 S12 1.502195 1_565
O86 Ti2 2.090169 1_565
O87 Si2 1.696840 1_555
O87 Ti3 1.815197 1_545
O88 S13 1.512464 1_555
O88 Ti3 2.040049 1_555
O89 S14 1.478649 1_555
O89 Ti2 2.381633 1_665
O90 Si3 1.747236 1_555
O90 Ti5 1.797393 1_555
O91 S15 1.510158 1_455
O91 Ti4 1.998865 1_565
O92 S16 1.529666 1_555
O92 Ti5 2.068976 1_545
O93 S17 1.511649 1_565
O93 Ti4 2.022084 1_665
O94 Si4 1.705333 1_555
O94 Ti4 1.792339 1_555
O95 S18 1.513080 1_555
O95 Ti5 2.024361 1_545
O96 S9 1.483436 1_555
O97 S10 1.490049 1_555
O98 Si0 1.593708 1_555
O99 S6 1.453919 1_555
O100 S8 1.472484 1_555
O101 S7 1.489581 1_555
O102 S2 1.483194 1_555
O103 S3 1.495154 1_555
O104 S5 1.484800 1_555
O105 S4 1.483846 1_555
O106 S0 1.455320 1_555
O107 S1 1.471296 1_545
O108 S19 1.499502 1_555
O108 Ti6 2.025105 1_555
O109 Si5 1.616033 1_555
O110 S21 1.463260 1_555
O110 Ti6 2.290068 1_555
O111 S20 1.464048 1_655
O112 Si6 1.655251 1_545
O112 Ti6 1.872563 1_555
O113 S22 1.475351 1_545
O114 Si7 1.608782 1_545
O115 S23 1.495033 1_545
O115 Ti7 2.066436 1_555
O116 S24 1.479152 1_555
O117 Si8 1.635925 1_555
O117 Ti7 1.923162 1_555
O118 S26 1.467548 1_555
O119 S25 1.468464 1_655
O119 Ti7 2.321143 1_555
O120 Si4 1.633918 1_555
O120 Ti8 1.901411 1_555
O121 S18 1.493346 1_555
O121 Ti9 2.127823 1_555
O122 S15 1.491874 1_455
O122 Ti8 2.128548 1_555
O123 Si3 1.641180 1_555
O123 Ti9 1.925551 1_555
O124 S16 1.493143 1_565
O124 Ti8 2.157000 1_555
O125 S17 1.499647 1_565
O125 Ti9 2.105641 1_555
O126 S12 1.503272 1_565
O126 Ti10 2.051312 1_555
O127 Si2 1.644360 1_565
O127 Ti11 1.881243 1_555
O128 S13 1.503345 1_555
O128 Ti10 2.066517 1_555
O129 S14 1.523750 1_555
O129 Ti11 1.997566 1_555
O130 Si1 1.660975 1_455
O130 Ti10 1.864166 1_555
O131 S11 1.500913 1_555
O131 Ti11 2.078550 1_555
O132 S0 1.492916 1_565
O133 S1 1.488058 1_555
O134 S2 1.463270 1_555
O135 S3 1.473089 1_555
O136 S4 1.484743 1_455
O137 S5 1.489759 1_555
O138 Si0 1.608753 1_555
O139 S6 1.492823 1_555
O140 S7 1.479823 1_455
O141 S8 1.484744 1_555
O142 S9 1.464214 1_565
O143 S10 1.473338 1_565
