# generated using pymatgen
data_In3SnI5
_symmetry_space_group_name_H-M   'P 1'
_cell_length_a   9.08662915
_cell_length_b   9.08662915
_cell_length_c   17.83981326
_cell_angle_alpha   82.53458072
_cell_angle_beta   82.53458072
_cell_angle_gamma   90.20803250
_symmetry_Int_Tables_number   1
_chemical_formula_structural   In3SnI5
_chemical_formula_sum   'In12 Sn4 I20'
_cell_volume   1447.79592711
_cell_formula_units_Z   4
loop_
 _symmetry_equiv_pos_site_id
 _symmetry_equiv_pos_as_xyz
  1  'x, y, z'
loop_
 _atom_site_type_symbol
 _atom_site_label
 _atom_site_symmetry_multiplicity
 _atom_site_fract_x
 _atom_site_fract_y
 _atom_site_fract_z
 _atom_site_occupancy
  In  In0  1  0.96080200  0.03919800  0.75000000  1
  In  In1  1  0.03919800  0.96080200  0.25000000  1
  In  In2  1  0.74405100  0.53360700  0.74890700  1
  In  In3  1  0.46639300  0.25594900  0.75109300  1
  In  In4  1  0.25594900  0.46639300  0.25109300  1
  In  In5  1  0.53360700  0.74405100  0.24890700  1
  In  In6  1  0.24440200  0.75559800  0.75000000  1
  In  In7  1  0.75559800  0.24440200  0.25000000  1
  In  In8  1  0.20548300  0.44375800  0.52731200  1
  In  In9  1  0.55624200  0.79451700  0.97268800  1
  In  In10  1  0.79451700  0.55624200  0.47268800  1
  In  In11  1  0.44375800  0.20548300  0.02731200  1
  Sn  Sn0  1  0.65385700  0.94053500  0.58586000  1
  Sn  Sn1  1  0.05946500  0.34614300  0.91414000  1
  Sn  Sn2  1  0.34614300  0.05946500  0.41414000  1
  Sn  Sn3  1  0.94053500  0.65385700  0.08586000  1
  I  I0  1  0.80370200  0.24863700  0.61340100  1
  I  I1  1  0.75136300  0.19629800  0.88659900  1
  I  I2  1  0.19629800  0.75136300  0.38659900  1
  I  I3  1  0.24863700  0.80370200  0.11340100  1
  I  I4  1  0.59577700  0.89212900  0.76146400  1
  I  I5  1  0.10787100  0.40422300  0.73853600  1
  I  I6  1  0.40422300  0.10787100  0.23853600  1
  I  I7  1  0.89212900  0.59577700  0.26146400  1
  I  I8  1  0.94272400  0.76418200  0.60529400  1
  I  I9  1  0.23581800  0.05727600  0.89470600  1
  I  I10  1  0.05727600  0.23581800  0.39470600  1
  I  I11  1  0.76418200  0.94272400  0.10529400  1
  I  I12  1  0.32209400  0.09326800  0.60361100  1
  I  I13  1  0.90673200  0.67790600  0.89638900  1
  I  I14  1  0.67790600  0.90673200  0.39638900  1
  I  I15  1  0.09326800  0.32209400  0.10361100  1
  I  I16  1  0.48491800  0.62370500  0.60292100  1
  I  I17  1  0.37629500  0.51508200  0.89707900  1
  I  I18  1  0.51508200  0.37629500  0.39707900  1
  I  I19  1  0.62370500  0.48491800  0.10292100  1
loop_
_geom_bond_atom_site_label_1
_geom_bond_atom_site_label_2
_geom_bond_distance
_geom_bond_site_symmetry_2
I0 Sn0 3.230591 1_545
I0 In0 3.364016 1_555
I0 In10 3.514817 1_555
I1 Sn1 3.230591 1_655
I1 In0 3.364016 1_555
I1 In11 3.514817 1_556
I2 Sn2 3.230591 1_565
I2 In1 3.364016 1_555
I2 In8 3.514817 1_555
I3 Sn3 3.230591 1_455
I3 In1 3.364016 1_555
I3 In9 3.514817 1_554
I4 Sn0 3.081671 1_555
I4 In6 3.461480 1_555
I4 In3 3.503025 1_565
I4 In0 3.542553 1_565
I4 In2 3.552674 1_555
I5 Sn1 3.081671 1_555
I5 In6 3.461480 1_555
I5 In2 3.503025 1_455
I5 In0 3.542553 1_455
I5 In3 3.552674 1_555
I6 Sn2 3.081671 1_555
I6 In7 3.461480 1_555
I6 In5 3.503025 1_545
I6 In1 3.542553 1_545
I6 In4 3.552674 1_555
I7 Sn3 3.081671 1_555
I7 In7 3.461480 1_555
I7 In4 3.503025 1_655
I7 In1 3.542553 1_655
I7 In5 3.552674 1_555
I8 Sn0 3.114551 1_555
I8 In2 3.404180 1_555
I8 In10 3.598749 1_555
I9 Sn1 3.114551 1_555
I9 In3 3.404180 1_555
I9 In11 3.598749 1_556
I10 Sn2 3.114551 1_555
I10 In4 3.404180 1_555
I10 In8 3.598749 1_555
I11 Sn3 3.114551 1_555
I11 In5 3.404180 1_555
I11 In9 3.598749 1_554
I12 Sn0 3.318241 1_545
I12 Sn2 3.412579 1_555
I12 In8 3.520101 1_555
I12 In3 3.566486 1_555
I13 Sn1 3.318241 1_655
I13 Sn3 3.412579 1_556
I13 In9 3.520101 1_555
I13 In2 3.566486 1_555
I14 Sn2 3.318241 1_565
I14 Sn0 3.412579 1_555
I14 In10 3.520101 1_555
I14 In5 3.566486 1_555
I15 Sn3 3.318241 1_455
I15 Sn1 3.412579 1_554
I15 In11 3.520101 1_555
I15 In4 3.566486 1_555
I16 Sn0 3.218088 1_555
I16 In10 3.517387 1_555
I16 In8 3.517538 1_555
I16 In6 3.527511 1_555
I17 Sn1 3.218088 1_555
I17 In11 3.517387 1_556
I17 In9 3.517538 1_555
I17 In6 3.527511 1_555
I18 Sn2 3.218088 1_555
I18 In8 3.517387 1_555
I18 In10 3.517538 1_555
I18 In7 3.527511 1_555
I19 Sn3 3.218088 1_555
I19 In9 3.517387 1_554
I19 In11 3.517538 1_555
I19 In7 3.527511 1_555
