# generated using pymatgen
data_CrP
_symmetry_space_group_name_H-M   'P 1'
_cell_length_a   3.05751337
_cell_length_b   5.31431090
_cell_length_c   5.88707233
_cell_angle_alpha   89.99987572
_cell_angle_beta   90.00000000
_cell_angle_gamma   90.00000000
_symmetry_Int_Tables_number   1
_chemical_formula_structural   CrP
_chemical_formula_sum   'Cr4 P4'
_cell_volume   95.65654587
_cell_formula_units_Z   4
loop_
 _symmetry_equiv_pos_site_id
 _symmetry_equiv_pos_as_xyz
  1  'x, y, z'
loop_
 _atom_site_type_symbol
 _atom_site_label
 _atom_site_symmetry_multiplicity
 _atom_site_fract_x
 _atom_site_fract_y
 _atom_site_fract_z
 _atom_site_occupancy
  Cr  Cr0  1  0.25000000  0.50892305  0.31122560  1
  Cr  Cr1  1  0.75000000  0.49107695  0.68877440  1
  Cr  Cr2  1  0.25000000  0.00892405  0.18877540  1
  Cr  Cr3  1  0.75000000  0.99107595  0.81122460  1
  P  P0  1  0.25000000  0.68303908  0.93371816  1
  P  P1  1  0.75000000  0.31696092  0.06628184  1
  P  P2  1  0.25000000  0.18303808  0.56628084  1
  P  P3  1  0.75000000  0.81696192  0.43371916  1
loop_
_geom_bond_atom_site_label_1
_geom_bond_atom_site_label_2
_geom_bond_distance
_geom_bond_site_symmetry_2
Cr0 P2 2.292138 1_555
Cr0 P1 2.336059 1_555
Cr0 P1 2.336059 1_455
Cr0 P3 2.353071 1_555
Cr0 P3 2.353071 1_455
Cr0 P0 2.407344 1_554
Cr1 P3 2.292138 1_555
Cr1 P0 2.336059 1_655
Cr1 P0 2.336059 1_555
Cr1 P2 2.353071 1_555
Cr1 P2 2.353071 1_655
Cr1 P1 2.407344 1_556
Cr2 P0 2.292150 1_544
Cr2 P3 2.336056 1_545
Cr2 P3 2.336056 1_445
Cr2 P1 2.353062 1_455
Cr2 P1 2.353062 1_555
Cr2 P2 2.407333 1_555
Cr3 P1 2.292150 1_566
Cr3 P2 2.336056 1_565
Cr3 P2 2.336056 1_665
Cr3 P0 2.353062 1_655
Cr3 P0 2.353062 1_555
Cr3 P3 2.407333 1_555
