# generated using pymatgen
data_MgMo2(IrO6)2
_symmetry_space_group_name_H-M   'P 1'
_cell_length_a   5.15949655
_cell_length_b   5.36177310
_cell_length_c   7.51050647
_cell_angle_alpha   89.97591080
_cell_angle_beta   90.38475065
_cell_angle_gamma   89.90366141
_symmetry_Int_Tables_number   1
_chemical_formula_structural   MgMo2(IrO6)2
_chemical_formula_sum   'Mg1 Mo2 Ir2 O12'
_cell_volume   207.76602775
_cell_formula_units_Z   1
loop_
 _symmetry_equiv_pos_site_id
 _symmetry_equiv_pos_as_xyz
  1  'x, y, z'
loop_
 _atom_site_type_symbol
 _atom_site_label
 _atom_site_symmetry_multiplicity
 _atom_site_fract_x
 _atom_site_fract_y
 _atom_site_fract_z
 _atom_site_occupancy
  Mg  Mg0  1  0.02756500  0.93841000  0.25082100  1
  Mo  Mo0  1  0.99927000  0.49536500  0.98285700  1
  Mo  Mo1  1  0.50184300  0.00607300  0.52023600  1
  Ir  Ir0  1  0.99931700  0.49939400  0.49456600  1
  Ir  Ir1  1  0.50324700  0.00103600  0.00687200  1
  O  O0  1  0.09805000  0.47610700  0.74719300  1
  O  O1  1  0.18314000  0.19077000  0.06558700  1
  O  O2  1  0.18665500  0.19116200  0.43501300  1
  O  O3  1  0.28982200  0.71273200  0.05555900  1
  O  O4  1  0.28467600  0.72737100  0.43869200  1
  O  O5  1  0.40339500  0.99210300  0.75416000  1
  O  O6  1  0.63528100  0.01421300  0.25017000  1
  O  O7  1  0.70068800  0.29466800  0.54314100  1
  O  O8  1  0.70048000  0.29537400  0.95673000  1
  O  O9  1  0.79886400  0.79134100  0.95409700  1
  O  O10  1  0.79359000  0.79549400  0.54585400  1
  O  O11  1  0.90661900  0.54088600  0.24845100  1
loop_
_geom_bond_atom_site_label_1
_geom_bond_atom_site_label_2
_geom_bond_distance
_geom_bond_site_symmetry_2
Mg0 O6 2.063696 1_465
Mg0 O2 2.100978 1_565
Mg0 O1 2.104207 1_565
Mg0 O11 2.221955 1_455
Mg0 O4 2.235972 1_555
Mg0 O3 2.338463 1_555
Mg0 O9 2.636263 1_454
Mg0 O10 2.644257 1_455
Mo0 O0 1.848038 1_655
Mo0 O8 1.888536 1_555
Mo0 O9 1.904055 1_555
Mo0 O3 1.974639 1_656
Mo0 O1 1.984771 1_656
Mo0 O11 2.068797 1_556
Mo1 O5 1.833650 1_545
Mo1 O7 1.865403 1_555
Mo1 O10 1.888882 1_545
Mo1 O4 1.964883 1_545
Mo1 O2 2.004789 1_555
Mo1 O6 2.146815 1_555
Ir0 O11 1.918964 1_555
Ir0 O7 1.930004 1_555
Ir0 O10 1.948314 1_555
Ir0 O4 1.962620 1_655
Ir0 O0 1.965111 1_655
Ir0 O2 1.966389 1_655
Ir1 O8 1.917826 1_554
Ir1 O3 1.935586 1_545
Ir1 O9 1.936571 1_544
Ir1 O6 1.947206 1_555
Ir1 O5 1.963956 1_544
Ir1 O1 1.990388 1_555
