# generated using pymatgen
data_Tb4Sb3
_symmetry_space_group_name_H-M   'P 1'
_cell_length_a   7.97904177
_cell_length_b   7.97904145
_cell_length_c   7.97904149
_cell_angle_alpha   109.47121804
_cell_angle_beta   109.47121728
_cell_angle_gamma   109.47122114
_symmetry_Int_Tables_number   1
_chemical_formula_structural   Tb4Sb3
_chemical_formula_sum   'Tb8 Sb6'
_cell_volume   391.04822733
_cell_formula_units_Z   2
loop_
 _symmetry_equiv_pos_site_id
 _symmetry_equiv_pos_as_xyz
  1  'x, y, z'
loop_
 _atom_site_type_symbol
 _atom_site_label
 _atom_site_symmetry_multiplicity
 _atom_site_fract_x
 _atom_site_fract_y
 _atom_site_fract_z
 _atom_site_occupancy
  Tb  Tb0  1  0.35697765  0.50000000  0.99999900  1
  Tb  Tb1  1  0.64302235  0.64302235  0.64302135  1
  Tb  Tb2  1  0.50000100  0.00000100  0.35697865  1
  Tb  Tb3  1  0.99999900  0.35697765  0.50000000  1
  Tb  Tb4  1  0.49999900  0.99999900  0.85697765  1
  Tb  Tb5  1  0.00000100  0.85697865  0.50000000  1
  Tb  Tb6  1  0.85697865  0.50000000  0.00000100  1
  Tb  Tb7  1  0.14302135  0.14302135  0.14302235  1
  Sb  Sb0  1  0.75000000  0.87500100  0.12500100  1
  Sb  Sb1  1  0.62500100  0.37500000  0.25000100  1
  Sb  Sb2  1  0.87500000  0.12500000  0.74999900  1
  Sb  Sb3  1  0.12500000  0.75000000  0.87499900  1
  Sb  Sb4  1  0.37499900  0.24999900  0.62500000  1
  Sb  Sb5  1  0.25000000  0.62500000  0.37500100  1
loop_
_geom_bond_atom_site_label_1
_geom_bond_atom_site_label_2
_geom_bond_distance
_geom_bond_site_symmetry_2
Sb0 Tb7 3.074349 1_665
Sb0 Tb4 3.074353 1_554
Sb0 Tb5 3.074353 1_655
Sb0 Tb0 3.074355 1_554
Sb0 Tb2 3.310126 1_565
Sb0 Tb3 3.310126 1_565
Sb0 Tb6 3.310146 1_555
Sb0 Tb1 3.310148 1_554
Sb1 Tb3 3.074341 1_555
Sb1 Tb1 3.074348 1_555
Sb1 Tb4 3.074360 1_544
Sb1 Tb0 3.074369 1_554
Sb1 Tb2 3.310126 1_555
Sb1 Tb6 3.310133 1_555
Sb1 Tb5 3.310140 1_655
Sb1 Tb7 3.310146 1_555
Sb2 Tb2 3.074345 1_555
Sb2 Tb5 3.074353 1_645
Sb2 Tb6 3.074357 1_556
Sb2 Tb7 3.074364 1_656
Sb2 Tb3 3.310124 1_555
Sb2 Tb1 3.310133 1_545
Sb2 Tb0 3.310134 1_655
Sb2 Tb4 3.310146 1_545
Sb3 Tb4 3.074343 1_555
Sb3 Tb3 3.074349 1_455
Sb3 Tb7 3.074357 1_566
Sb3 Tb6 3.074364 1_456
Sb3 Tb5 3.310131 1_555
Sb3 Tb0 3.310133 1_555
Sb3 Tb1 3.310134 1_455
Sb3 Tb2 3.310146 1_566
Sb4 Tb5 3.074338 1_545
Sb4 Tb0 3.074348 1_555
Sb4 Tb2 3.074355 1_555
Sb4 Tb1 3.074369 1_555
Sb4 Tb4 3.310133 1_545
Sb4 Tb7 3.310134 1_555
Sb4 Tb3 3.310139 1_455
Sb4 Tb6 3.310146 1_556
Sb5 Tb1 3.074351 1_555
Sb5 Tb6 3.074352 1_455
Sb5 Tb3 3.074354 1_455
Sb5 Tb2 3.074365 1_565
Sb5 Tb4 3.310127 1_555
Sb5 Tb5 3.310129 1_555
Sb5 Tb7 3.310139 1_555
Sb5 Tb0 3.310148 1_554
