# generated using pymatgen
data_Na7Hf3ZnSi3(PO8)3
_symmetry_space_group_name_H-M   'P 1'
_cell_length_a   9.13911771
_cell_length_b   9.13023388
_cell_length_c   22.69336665
_cell_angle_alpha   90.11679423
_cell_angle_beta   90.12646383
_cell_angle_gamma   120.05781473
_symmetry_Int_Tables_number   1
_chemical_formula_structural   Na7Hf3ZnSi3(PO8)3
_chemical_formula_sum   'Na21 Hf9 Zn3 Si9 P9 O72'
_cell_volume   1638.92283503
_cell_formula_units_Z   3
loop_
 _symmetry_equiv_pos_site_id
 _symmetry_equiv_pos_as_xyz
  1  'x, y, z'
loop_
 _atom_site_type_symbol
 _atom_site_label
 _atom_site_symmetry_multiplicity
 _atom_site_fract_x
 _atom_site_fract_y
 _atom_site_fract_z
 _atom_site_occupancy
  Na  Na0  1  0.63777713  0.01263336  0.24709997  1
  Na  Na1  1  0.37525210  0.36272404  0.24740181  1
  Na  Na2  1  0.98853817  0.62768382  0.24939212  1
  Na  Na3  1  0.63855402  0.62351579  0.74809564  1
  Na  Na4  1  0.98579990  0.36806724  0.74535695  1
  Na  Na5  1  0.37217870  0.00818723  0.74563852  1
  Na  Na6  1  0.02846603  0.69034891  0.58457699  1
  Na  Na7  1  0.66706998  0.97392887  0.58087489  1
  Na  Na8  1  0.31270852  0.97683678  0.08423446  1
  Na  Na9  1  0.66124646  0.69171119  0.08418229  1
  Na  Na10  1  0.02785395  0.33289224  0.08134285  1
  Na  Na11  1  0.33407821  0.30469082  0.91812146  1
  Na  Na12  1  0.96905552  0.28899901  0.41504175  1
  Na  Na13  1  0.32018943  0.03110056  0.41401906  1
  Na  Na14  1  0.71069188  0.67954197  0.41391970  1
  Na  Na15  1  0.00619424  0.00990931  0.49274230  1
  Na  Na16  1  0.98937241  0.99717029  0.99685747  1
  Na  Na17  1  0.68185174  0.34296721  0.83250642  1
  Na  Na18  1  0.66564240  0.33310610  0.33168224  1
  Na  Na19  1  0.33799296  0.66816262  0.16551047  1
  Na  Na20  1  0.32576046  0.65527900  0.66399740  1
  Hf  Hf0  1  0.99044275  0.99061607  0.85454624  1
  Hf  Hf1  1  0.00660288  0.00487342  0.64667518  1
  Hf  Hf2  1  0.00029663  0.00332271  0.14867514  1
  Hf  Hf3  1  0.67185392  0.33194885  0.97980049  1
  Hf  Hf4  1  0.66837907  0.33152384  0.48095577  1
  Hf  Hf5  1  0.33794993  0.66517652  0.01649031  1
  Hf  Hf6  1  0.32947150  0.65846934  0.51735176  1
  Hf  Hf7  1  0.33342538  0.66624723  0.31742312  1
  Hf  Hf8  1  0.32792257  0.66323396  0.81650368  1
  Zn  Zn0  1  0.99914911  0.99939360  0.35386792  1
  Zn  Zn1  1  0.67829712  0.34417756  0.67966963  1
  Zn  Zn2  1  0.65918452  0.32815100  0.17693220  1
  Si  Si0  1  0.99893625  0.70450513  0.74898087  1
  Si  Si1  1  0.96249117  0.33453371  0.58562949  1
  Si  Si2  1  0.66505750  0.04056407  0.08591713  1
  Si  Si3  1  0.37528471  0.33412170  0.08439398  1
  Si  Si4  1  0.62870239  0.66574923  0.91623543  1
  Si  Si5  1  0.03589136  0.37065799  0.91636200  1
  Si  Si6  1  0.62713478  0.96008197  0.41765767  1
  Si  Si7  1  0.33310456  0.37060499  0.41541145  1
  Si  Si8  1  0.03925553  0.66767257  0.41696516  1
  P  P0  1  0.29290649  -0.00034729  0.25160808  1
  P  P1  1  0.70734646  0.70601139  0.25122781  1
  P  P2  1  -0.00070089  0.29446879  0.25147979  1
  P  P3  1  0.29173658  0.29119952  0.75160810  1
  P  P4  1  0.70800658  0.99862338  0.74973013  1
  P  P5  1  0.37594786  0.04290878  0.58533731  1
  P  P6  1  0.66426559  0.62554870  0.58565925  1
  P  P7  1  0.95874127  0.62518526  0.08497743  1
  P  P8  1  0.33375447  0.95967805  0.91670062  1
  O  O0  1  0.20912801  0.02434520  0.30572805  1
  O  O1  1  0.81532802  0.78930783  0.30583416  1
  O  O2  1  0.97262040  0.18537579  0.30549166  1
  O  O3  1  0.20561809  0.18273687  0.80664777  1
  O  O4  1  0.97669486  0.80734859  0.80409288  1
  O  O5  1  0.82551675  0.02569603  0.80296846  1
  O  O6  1  0.79186796  0.96967288  0.69426004  1
  O  O7  1  0.17242658  0.20473511  0.69765433  1
  O  O8  1  0.03263500  0.82671296  0.69099299  1
  O  O9  1  0.79349740  0.81924227  0.19522241  1
  O  O10  1  0.02679397  0.20705978  0.19539211  1
  O  O11  1  0.17987273  0.97189813  0.19519110  1
  O  O12  1  0.88524415  0.37089935  0.64402154  1
  O  O13  1  0.48250814  0.11997583  0.64091529  1
  O  O14  1  0.63540597  0.52284923  0.64146015  1
  O  O15  1  0.89008202  0.51937541  0.14131108  1
  O  O16  1  0.62836757  0.11316081  0.14549890  1
  O  O17  1  0.48992567  0.37832458  0.14315069  1
  O  O18  1  0.45969237  0.29858363  0.02642455  1
  O  O19  1  0.84064421  0.54088926  0.03155854  1
  O  O20  1  0.70435740  0.16768305  0.03009606  1
  O  O21  1  0.45838250  0.15102463  0.52943520  1
  O  O22  1  0.69458109  0.54237701  0.53038965  1
  O  O23  1  0.84017681  0.30167776  0.52733943  1
  O  O24  1  0.53819944  0.69239723  0.97457460  1
  O  O25  1  0.15645249  0.46157767  0.97419955  1
  O  O26  1  0.30748497  0.85083147  0.97194416  1
  O  O27  1  0.53565672  0.84222878  0.47518083  1
  O  O28  1  0.30397708  0.46784174  0.47057531  1
  O  O29  1  0.15997661  0.69579937  0.47422957  1
  O  O30  1  0.12559107  0.62961265  0.35884592  1
  O  O31  1  0.50389074  0.87257328  0.35918514  1
  O  O32  1  0.37033335  0.49366123  0.35709553  1
  O  O33  1  0.12954668  0.48893489  0.85833968  1
  O  O34  1  0.35791307  0.87360779  0.86145389  1
  O  O35  1  0.50780922  0.63726231  0.85854734  1
  O  O36  1  0.02051832  0.83324718  0.41248018  1
  O  O37  1  0.81201720  0.98030153  0.41260797  1
  O  O38  1  0.16684841  0.18653740  0.41147259  1
  O  O39  1  0.03484104  0.19131112  0.90991849  1
  O  O40  1  0.17865203  0.98440548  0.90979845  1
  O  O41  1  0.81468103  0.83394864  0.91150189  1
  O  O42  1  0.97093485  0.15795834  0.58997580  1
  O  O43  1  0.19285530  0.01622026  0.58945732  1
  O  O44  1  0.83019097  0.80517540  0.59023705  1
  O  O45  1  0.97699188  0.80487361  0.09089304  1
  O  O46  1  0.83313720  0.01511552  0.09081532  1
  O  O47  1  0.18475193  0.16172766  0.09083155  1
  O  O48  1  0.68474664  0.15299440  0.74617091  1
  O  O49  1  0.46609058  0.30804463  0.74537765  1
  O  O50  1  0.83010587  0.51881651  0.74736071  1
  O  O51  1  0.68608981  0.52777500  0.24496236  1
  O  O52  1  0.84544130  0.31974123  0.24431677  1
  O  O53  1  0.47158604  0.15594913  0.24615926  1
  O  O54  1  0.63323376  0.48989242  0.92305683  1
  O  O55  1  0.85084724  0.35244041  0.92204470  1
  O  O56  1  0.49104213  0.13822507  0.92250917  1
  O  O57  1  0.63635074  0.14489755  0.42297494  1
  O  O58  1  0.50622805  0.36035042  0.42348354  1
  O  O59  1  0.85321993  0.49481125  0.42371855  1
  O  O60  1  0.34477726  0.49793567  0.07668280  1
  O  O61  1  0.13908132  0.65175239  0.07515869  1
  O  O62  1  0.49623787  0.85130710  0.07674842  1
  O  O63  1  0.35597453  0.86307248  0.57812108  1
  O  O64  1  0.51544483  0.65997430  0.57773378  1
  O  O65  1  0.14826799  0.50645980  0.57799171  1
  O  O66  1  0.30553398  0.83306289  0.25358954  1
  O  O67  1  0.52840799  0.69346529  0.25330185  1
  O  O68  1  0.16657724  0.47256744  0.25322870  1
  O  O69  1  0.30799427  0.47064320  0.75551705  1
  O  O70  1  0.17501231  0.69359823  0.75465570  1
  O  O71  1  0.53194377  0.83379524  0.75586215  1
loop_
_geom_bond_atom_site_label_1
_geom_bond_atom_site_label_2
_geom_bond_distance
_geom_bond_site_symmetry_2
Na0 O53 2.451607 1_555
Na0 O52 2.477603 1_555
Na0 O16 2.500552 1_555
Na0 O67 2.568115 1_545
Na0 O66 2.635432 1_545
Na0 O31 2.839345 1_545
Na0 O2 2.957491 1_555
Na0 O9 3.007526 1_545
Na1 O53 2.450512 1_555
Na1 O51 2.461025 1_555
Na1 O68 2.564541 1_555
Na1 O17 2.564851 1_555
Na1 O67 2.619035 1_555
Na1 O32 2.769498 1_555
Na2 O52 2.437875 1_555
Na2 O51 2.440308 1_555
Na2 O66 2.544479 1_655
Na2 O15 2.625337 1_555
Na2 O68 2.639919 1_655
Na2 O30 2.775392 1_655
Na2 O1 2.943693 1_555
Na2 O11 2.994607 1_655
Na3 O50 2.378063 1_555
Na3 O49 2.497083 1_555
Na3 O71 2.557272 1_555
Na3 O14 2.581807 1_555
Na3 O69 2.623416 1_555
Na3 O35 2.808618 1_555
Na4 O50 2.425499 1_555
Na4 O48 2.452446 1_555
Na4 O12 2.479573 1_555
Na4 O70 2.591499 1_655
Na4 O69 2.614262 1_655
Na4 O33 2.835290 1_655
Na4 O7 2.975623 1_655
Na4 O5 3.010749 1_555
Na5 O49 2.424515 1_555
Na5 O48 2.474814 1_555
Na5 O70 2.521530 1_545
Na5 O13 2.587629 1_555
Na5 O71 2.655165 1_545
Na5 O34 2.879002 1_545
Na5 O8 2.955780 1_545
Na5 O3 3.033856 1_555
Na6 O65 2.425108 1_555
Na6 O44 2.510524 1_455
Na6 O43 2.577173 1_565
Na6 O63 2.596483 1_555
Na6 O8 2.706160 1_555
Na6 O29 2.769781 1_555
Na6 O12 2.870437 1_455
Na6 O22 2.914698 1_455
Na7 O42 2.428926 1_565
Na7 O64 2.482268 1_555
Na7 O63 2.495604 1_555
Na7 O44 2.634842 1_555
Na7 O27 2.677725 1_555
Na7 O6 2.820460 1_555
Na7 O23 2.866066 1_565
Na7 O13 2.955575 1_565
Na8 O62 2.466163 1_555
Na8 O47 2.493366 1_565
Na8 O61 2.578374 1_555
Na8 O45 2.660620 1_455
Na8 O26 2.784220 1_554
Na8 O11 2.788400 1_555
Na8 O16 2.860550 1_565
Na8 O18 2.868041 1_565
Na9 O60 2.528802 1_555
Na9 O45 2.535420 1_555
Na9 O46 2.561195 1_565
Na9 O62 2.574305 1_555
Na9 O24 2.728809 1_554
Na9 O9 2.780505 1_555
Na9 O17 2.822460 1_555
Na9 O19 2.876465 1_555
Na10 O60 2.510150 1_555
Na10 O46 2.542253 1_455
Na10 O61 2.562470 1_555
Na10 O47 2.605671 1_555
Na10 O25 2.704557 1_554
Na10 O20 2.806923 1_455
Na10 O10 2.831905 1_555
Na10 O15 2.912388 1_455
Na11 O54 2.390274 1_555
Na11 O39 2.397129 1_555
Na11 O40 2.537770 1_545
Na11 O56 2.561604 1_555
Na11 O18 2.722837 1_556
Na11 O3 2.771906 1_555
Na11 O25 2.938981 1_555
Na11 O35 2.960642 1_555
Na12 O38 2.417369 1_655
Na12 O37 2.439989 1_545
Na12 O59 2.585098 1_555
Na12 O57 2.646648 1_555
Na12 O2 2.664267 1_555
Na12 O23 2.836149 1_555
Na12 O28 2.931097 1_655
Na12 O30 2.985256 1_655
Na13 O36 2.410066 1_545
Na13 O38 2.444097 1_555
Na13 O57 2.541426 1_555
Na13 O58 2.617143 1_555
Na13 O0 2.645551 1_555
Na13 O21 2.870974 1_555
Na13 O31 2.982967 1_545
Na13 O29 2.986385 1_545
Na14 O37 2.419111 1_555
Na14 O36 2.451140 1_655
Na14 O58 2.565365 1_555
Na14 O59 2.606140 1_555
Na14 O1 2.644907 1_555
Na14 O22 2.899397 1_555
Na14 O32 2.983944 1_555
Na14 O27 3.013240 1_555
Na15 O38 2.410382 1_555
Na15 O37 2.456115 1_445
Na15 O36 2.477288 1_545
Na15 O42 2.688345 1_455
Na15 O43 2.759540 1_555
Na15 O44 2.827922 1_445
Na16 O41 2.472434 1_555
Na16 O39 2.546982 1_665
Na16 O46 2.618843 1_566
Na16 O40 2.669327 1_655
Na16 O47 2.697464 1_666
Na16 O45 2.732500 1_556
Na17 O50 2.447888 1_555
Na17 O55 2.524519 1_555
Na17 O54 2.609485 1_555
Na17 O48 2.623005 1_555
Na17 O49 2.692547 1_555
Na17 O56 2.733648 1_555
Na18 O53 2.574233 1_555
Na18 O51 2.598082 1_555
Na18 O52 2.619166 1_555
Na18 O57 2.621596 1_555
Na18 O58 2.626562 1_555
Na18 O59 2.630036 1_555
Na19 O62 2.559131 1_555
Na19 O60 2.562650 1_555
Na19 O67 2.575079 1_555
Na19 O66 2.605333 1_555
Na19 O68 2.613747 1_555
Na19 O61 2.690846 1_555
Na20 O65 2.460519 1_555
Na20 O70 2.597222 1_555
Na20 O64 2.603872 1_555
Na20 O69 2.631200 1_555
Na20 O63 2.639355 1_555
Na20 O71 2.728645 1_555
Hf0 O4 1.976743 1_555
Hf0 O41 2.002973 1_555
Hf0 O5 2.054709 1_565
Hf0 O39 2.084431 1_665
Hf0 O40 2.149996 1_655
Hf0 O3 2.165016 1_665
Hf1 O8 2.026657 1_545
Hf1 O42 2.043848 1_455
Hf1 O7 2.044091 1_555
Hf1 O43 2.104240 1_555
Hf1 O6 2.121248 1_445
Hf1 O44 2.144933 1_445
Hf2 O10 2.045090 1_555
Hf2 O46 2.055720 1_455
Hf2 O47 2.057125 1_555
Hf2 O9 2.084838 1_445
Hf2 O11 2.086943 1_545
Hf2 O45 2.156439 1_445
Hf3 O20 2.022897 1_556
Hf3 O55 2.032909 1_555
Hf3 O54 2.092304 1_555
Hf3 O18 2.095365 1_556
Hf3 O19 2.105559 1_556
Hf3 O56 2.145386 1_555
Hf4 O23 2.017386 1_555
Hf4 O57 2.051804 1_555
Hf4 O59 2.063536 1_555
Hf4 O58 2.085657 1_555
Hf4 O21 2.111373 1_555
Hf4 O22 2.133117 1_555
Hf5 O24 1.966942 1_554
Hf5 O25 2.006205 1_554
Hf5 O60 2.074827 1_555
Hf5 O62 2.090394 1_555
Hf5 O26 2.109794 1_554
Hf5 O61 2.208857 1_555
Hf6 O28 1.948203 1_555
Hf6 O29 1.999214 1_555
Hf6 O27 2.031997 1_555
Hf6 O65 2.068296 1_555
Hf6 O64 2.175507 1_555
Hf6 O63 2.232697 1_555
Hf7 O31 1.979962 1_555
Hf7 O32 1.985998 1_555
Hf7 O30 1.994005 1_555
Hf7 O68 2.202941 1_555
Hf7 O66 2.208941 1_555
Hf7 O67 2.218982 1_555
Hf8 O33 1.960699 1_555
Hf8 O35 2.013413 1_555
Hf8 O34 2.066011 1_555
Hf8 O70 2.093016 1_555
Hf8 O69 2.169959 1_555
Hf8 O71 2.215148 1_555
O0 P0 1.523612 1_555
O0 Zn0 2.121398 1_445
O1 P1 1.525391 1_555
O1 Zn0 2.108336 1_555
O2 P2 1.522149 1_655
O2 Zn0 2.136876 1_545
O3 P3 1.545581 1_555
O4 Si0 1.635462 1_555
O5 P4 1.549588 1_545
O6 P4 1.564510 1_555
O7 P3 1.561783 1_555
O8 Si0 1.653803 1_455
O9 P1 1.580632 1_555
O10 P2 1.586907 1_555
O11 P0 1.581491 1_565
O12 Si1 1.612980 1_555
O12 Zn1 1.958660 1_555
O13 P5 1.529311 1_555
O13 Zn1 2.117067 1_555
O14 P6 1.520165 1_555
O14 Zn1 2.052204 1_555
O15 P7 1.537094 1_555
O15 Zn2 2.115949 1_555
O16 Si2 1.612751 1_555
O16 Zn2 1.969970 1_555
O17 Si3 1.614488 1_555
O17 Zn2 1.973939 1_555
O18 Si3 1.638423 1_555
O19 P7 1.544376 1_555
O20 Si2 1.634372 1_555
O21 P5 1.554253 1_555
O22 P6 1.560440 1_555
O23 Si1 1.656894 1_555
O24 Si4 1.643525 1_555
O25 Si5 1.642794 1_555
O26 P8 1.544129 1_555
O27 Si6 1.634079 1_555
O28 Si7 1.630908 1_555
O29 Si8 1.637202 1_555
O30 Si8 1.661405 1_555
O31 Si6 1.659928 1_555
O32 Si7 1.659683 1_555
O33 Si5 1.648450 1_555
O34 P8 1.552146 1_555
O35 Si4 1.645162 1_555
O36 Si8 1.607762 1_555
O36 Zn0 2.100557 1_455
O37 Si6 1.609546 1_555
O37 Zn0 2.108205 1_555
O38 Si7 1.606803 1_555
O38 Zn0 2.082329 1_445
O39 Si5 1.638927 1_555
O40 P8 1.550664 1_555
O41 Si4 1.626514 1_555
O42 Si1 1.655303 1_555
O43 P5 1.568566 1_555
O44 P6 1.583447 1_555
O45 P7 1.569166 1_555
O46 Si2 1.668184 1_555
O47 Si3 1.669554 1_555
O48 P4 1.529303 1_545
O48 Zn1 2.332664 1_555
O49 P3 1.529146 1_555
O49 Zn1 2.338240 1_555
O50 Si0 1.623396 1_555
O50 Zn1 2.142790 1_555
O51 P1 1.545456 1_555
O51 Zn2 2.302979 1_555
O52 P2 1.543054 1_655
O52 Zn2 2.315551 1_555
O53 P0 1.544518 1_555
O53 Zn2 2.280591 1_555
O54 Si4 1.634401 1_555
O55 Si5 1.619729 1_655
O56 P8 1.546620 1_545
O57 Si6 1.650987 1_545
O58 Si7 1.640991 1_555
O59 Si8 1.648991 1_655
O60 Si3 1.662511 1_555
O61 P7 1.557640 1_455
O62 Si2 1.654091 1_565
O63 P5 1.566735 1_565
O64 P6 1.551896 1_555
O65 Si1 1.646008 1_455
O66 P0 1.582683 1_565
O67 P1 1.581892 1_555
O68 P2 1.578633 1_555
O69 P3 1.571519 1_555
O70 Si0 1.666021 1_455
O71 P4 1.565032 1_555
