# generated using pymatgen
data_Ce(SO4)2
_symmetry_space_group_name_H-M   'P 1'
_cell_length_a   8.99469646
_cell_length_b   9.43545442
_cell_length_c   13.45665355
_cell_angle_alpha   90.00000000
_cell_angle_beta   90.00000000
_cell_angle_gamma   90.00000000
_symmetry_Int_Tables_number   1
_chemical_formula_structural   Ce(SO4)2
_chemical_formula_sum   'Ce8 S16 O64'
_cell_volume   1142.05338238
_cell_formula_units_Z   8
loop_
 _symmetry_equiv_pos_site_id
 _symmetry_equiv_pos_as_xyz
  1  'x, y, z'
loop_
 _atom_site_type_symbol
 _atom_site_label
 _atom_site_symmetry_multiplicity
 _atom_site_fract_x
 _atom_site_fract_y
 _atom_site_fract_z
 _atom_site_occupancy
  Ce  Ce0  1  0.71890130  0.96524763  0.60413374  1
  Ce  Ce1  1  0.21890130  0.53475237  0.60413374  1
  Ce  Ce2  1  0.78109870  0.46524763  0.39586626  1
  Ce  Ce3  1  0.28109870  0.03475237  0.39586626  1
  Ce  Ce4  1  0.28109870  0.53475237  0.10413374  1
  Ce  Ce5  1  0.78109870  0.96524763  0.10413374  1
  Ce  Ce6  1  0.21890130  0.03475237  0.89586626  1
  Ce  Ce7  1  0.71890130  0.46524763  0.89586626  1
  S  S0  1  0.50328544  0.27770219  0.55911310  1
  S  S1  1  0.00328544  0.22229781  0.55911310  1
  S  S2  1  0.31984685  0.89431905  0.65558822  1
  S  S3  1  0.31984685  0.39431905  0.84441178  1
  S  S4  1  0.68015315  0.10568095  0.34441178  1
  S  S5  1  0.99671456  0.27770219  0.05911310  1
  S  S6  1  0.81984685  0.10568095  0.84441178  1
  S  S7  1  0.18015315  0.39431905  0.34441178  1
  S  S8  1  0.68015315  0.60568095  0.15558822  1
  S  S9  1  0.50328544  0.77770219  0.94088690  1
  S  S10  1  0.00328544  0.72229781  0.94088690  1
  S  S11  1  0.49671456  0.22229781  0.05911310  1
  S  S12  1  0.81984685  0.60568095  0.65558822  1
  S  S13  1  0.49671456  0.72229781  0.44088690  1
  S  S14  1  0.99671456  0.77770219  0.44088690  1
  S  S15  1  0.18015315  0.89431905  0.15558822  1
  O  O0  1  0.08248939  0.87661682  0.37882329  1
  O  O1  1  0.22642403  0.92278641  0.05292546  1
  O  O2  1  0.22642403  0.42278641  0.44707454  1
  O  O3  1  0.39489677  0.80379796  0.37787560  1
  O  O4  1  0.91706558  0.35806526  0.98277810  1
  O  O5  1  0.01870423  0.91397963  0.16549484  1
  O  O6  1  0.91751061  0.12338318  0.62117671  1
  O  O7  1  0.89489677  0.19620204  0.12212440  1
  O  O8  1  0.09979776  0.17763204  0.01042772  1
  O  O9  1  0.75728856  0.00897401  0.27630044  1
  O  O10  1  0.27357597  0.92278641  0.55292546  1
  O  O11  1  0.98129577  0.08602037  0.83450516  1
  O  O12  1  0.77907618  0.25246219  0.81855879  1
  O  O13  1  0.77357597  0.07721359  0.94707454  1
  O  O14  1  0.58293442  0.85806526  0.01722190  1
  O  O15  1  0.41706558  0.64193474  0.51722190  1
  O  O16  1  0.27907618  0.74753781  0.68144121  1
  O  O17  1  0.08293442  0.14193474  0.48277810  1
  O  O18  1  0.72092382  0.75246219  0.18144121  1
  O  O19  1  0.48129577  0.91397963  0.66549484  1
  O  O20  1  0.74271144  0.00897401  0.77630044  1
  O  O21  1  0.59979776  0.32236796  0.01042772  1
  O  O22  1  0.77907618  0.75246219  0.68144121  1
  O  O23  1  0.01870423  0.41397963  0.33450516  1
  O  O24  1  0.27907618  0.24753781  0.81855879  1
  O  O25  1  0.91706558  0.85806526  0.51722190  1
  O  O26  1  0.39489677  0.30379796  0.12212440  1
  O  O27  1  0.98129577  0.58602037  0.66549484  1
  O  O28  1  0.41751061  0.37661682  0.62117671  1
  O  O29  1  0.59979776  0.82236796  0.48957228  1
  O  O30  1  0.25728856  0.49102599  0.27630044  1
  O  O31  1  0.40020224  0.67763204  0.98957228  1
  O  O32  1  0.75728856  0.50897401  0.22369956  1
  O  O33  1  0.91751061  0.62338318  0.87882329  1
  O  O34  1  0.22092382  0.24753781  0.31855879  1
  O  O35  1  0.10510323  0.80379796  0.87787560  1
  O  O36  1  0.72092382  0.25246219  0.31855879  1
  O  O37  1  0.22092382  0.74753781  0.18144121  1
  O  O38  1  0.90020224  0.82236796  0.98957228  1
  O  O39  1  0.48129577  0.41397963  0.83450516  1
  O  O40  1  0.51870423  0.58602037  0.16549484  1
  O  O41  1  0.27357597  0.42278641  0.94707454  1
  O  O42  1  0.90020224  0.32236796  0.51042772  1
  O  O43  1  0.58248939  0.12338318  0.12117671  1
  O  O44  1  0.60510323  0.19620204  0.62212440  1
  O  O45  1  0.08293442  0.64193474  0.01722190  1
  O  O46  1  0.77357597  0.57721359  0.55292546  1
  O  O47  1  0.41751061  0.87661682  0.87882329  1
  O  O48  1  0.09979776  0.67763204  0.48957228  1
  O  O49  1  0.24271144  0.49102599  0.77630044  1
  O  O50  1  0.72642403  0.07721359  0.44707454  1
  O  O51  1  0.72642403  0.57721359  0.05292546  1
  O  O52  1  0.51870423  0.08602037  0.33450516  1
  O  O53  1  0.41706558  0.14193474  0.98277810  1
  O  O54  1  0.58248939  0.62338318  0.37882329  1
  O  O55  1  0.60510323  0.69620204  0.87787560  1
  O  O56  1  0.08248939  0.37661682  0.12117671  1
  O  O57  1  0.74271144  0.50897401  0.72369956  1
  O  O58  1  0.89489677  0.69620204  0.37787560  1
  O  O59  1  0.40020224  0.17763204  0.51042772  1
  O  O60  1  0.24271144  0.99102599  0.72369956  1
  O  O61  1  0.25728856  0.99102599  0.22369956  1
  O  O62  1  0.10510323  0.30379796  0.62212440  1
  O  O63  1  0.58293442  0.35806526  0.48277810  1
loop_
_geom_bond_atom_site_label_1
_geom_bond_atom_site_label_2
_geom_bond_distance
_geom_bond_site_symmetry_2
Ce0 O29 2.311217 1_555
Ce0 O22 2.325113 1_555
Ce0 O6 2.338854 1_565
Ce0 O19 2.341663 1_555
Ce0 O25 2.359584 1_555
Ce0 O20 2.362963 1_565
Ce0 O50 2.363791 1_565
Ce0 O44 2.419723 1_565
Ce1 O48 2.311217 1_555
Ce1 O16 2.325113 1_555
Ce1 O28 2.338854 1_555
Ce1 O27 2.341663 1_455
Ce1 O15 2.359584 1_555
Ce1 O49 2.362963 1_555
Ce1 O2 2.363791 1_555
Ce1 O62 2.419723 1_555
Ce2 O42 2.311217 1_555
Ce2 O36 2.325113 1_555
Ce2 O54 2.338854 1_555
Ce2 O23 2.341663 1_655
Ce2 O63 2.359584 1_555
Ce2 O32 2.362963 1_555
Ce2 O46 2.363791 1_555
Ce2 O58 2.419723 1_555
Ce3 O59 2.311217 1_555
Ce3 O34 2.325113 1_555
Ce3 O0 2.338854 1_545
Ce3 O52 2.341663 1_555
Ce3 O17 2.359584 1_555
Ce3 O61 2.362963 1_545
Ce3 O10 2.363791 1_545
Ce3 O3 2.419723 1_545
Ce4 O31 2.311217 1_554
Ce4 O37 2.325113 1_555
Ce4 O56 2.338854 1_555
Ce4 O40 2.341663 1_555
Ce4 O45 2.359584 1_555
Ce4 O30 2.362963 1_555
Ce4 O41 2.363791 1_554
Ce4 O26 2.419723 1_555
Ce5 O38 2.311217 1_554
Ce5 O18 2.325113 1_555
Ce5 O43 2.338854 1_565
Ce5 O5 2.341663 1_655
Ce5 O14 2.359584 1_555
Ce5 O9 2.362963 1_565
Ce5 O13 2.363791 1_564
Ce5 O7 2.419723 1_565
Ce6 O8 2.311217 1_556
Ce6 O24 2.325113 1_555
Ce6 O47 2.338854 1_545
Ce6 O11 2.341663 1_455
Ce6 O53 2.359584 1_555
Ce6 O60 2.362963 1_545
Ce6 O1 2.363791 1_546
Ce6 O35 2.419723 1_545
Ce7 O21 2.311217 1_556
Ce7 O12 2.325113 1_555
Ce7 O33 2.338854 1_555
Ce7 O39 2.341663 1_555
Ce7 O4 2.359584 1_555
Ce7 O57 2.362963 1_555
Ce7 O51 2.363791 1_556
Ce7 O55 2.419723 1_555
O0 S14 1.470988 1_455
O1 S15 1.467616 1_555
O2 S7 1.467616 1_555
O3 S13 1.465962 1_555
O4 S5 1.464030 1_556
O5 S15 1.470042 1_555
O6 S1 1.470988 1_655
O7 S5 1.465962 1_555
O8 S5 1.476632 1_455
O9 S4 1.467667 1_555
O10 S2 1.467616 1_555
O11 S6 1.470042 1_555
O12 S6 1.474311 1_555
O13 S6 1.467616 1_555
O14 S9 1.464030 1_554
O15 S13 1.464030 1_555
O16 S2 1.474311 1_555
O17 S1 1.464030 1_555
O18 S8 1.474311 1_555
O19 S2 1.470042 1_555
O20 S6 1.467667 1_555
O21 S11 1.476632 1_555
O22 S12 1.474311 1_555
O23 S7 1.470042 1_555
O24 S3 1.474311 1_555
O25 S14 1.464030 1_555
O26 S11 1.465962 1_555
O27 S12 1.470042 1_555
O28 S0 1.470988 1_555
O29 S13 1.476632 1_555
O30 S7 1.467667 1_555
O31 S9 1.476632 1_555
O32 S8 1.467667 1_555
O33 S10 1.470988 1_655
O34 S7 1.474311 1_555
O35 S10 1.465962 1_555
O36 S4 1.474311 1_555
O37 S15 1.474311 1_555
O38 S10 1.476632 1_655
O39 S3 1.470042 1_555
O40 S8 1.470042 1_555
O41 S3 1.467616 1_555
O42 S1 1.476632 1_655
O43 S11 1.470988 1_555
O44 S0 1.465962 1_555
O45 S10 1.464030 1_554
O46 S12 1.467616 1_555
O47 S9 1.470988 1_555
O48 S14 1.476632 1_455
O49 S3 1.467667 1_555
O50 S4 1.467616 1_555
O51 S8 1.467616 1_555
O52 S4 1.470042 1_555
O53 S11 1.464030 1_556
O54 S13 1.470988 1_555
O55 S9 1.465962 1_555
O56 S5 1.470988 1_455
O57 S12 1.467667 1_555
O58 S14 1.465962 1_555
O59 S0 1.476632 1_555
O60 S2 1.467667 1_555
O61 S15 1.467667 1_555
O62 S1 1.465962 1_555
O63 S0 1.464030 1_555
