# generated using pymatgen
data_MgAl2(CuO2)4
_symmetry_space_group_name_H-M   'P 1'
_cell_length_a   6.15251480
_cell_length_b   6.15251898
_cell_length_c   6.15250738
_cell_angle_alpha   60.05853890
_cell_angle_beta   60.05852739
_cell_angle_gamma   60.05857029
_symmetry_Int_Tables_number   1
_chemical_formula_structural   MgAl2(CuO2)4
_chemical_formula_sum   'Mg1 Al2 Cu4 O8'
_cell_volume   164.89923880
_cell_formula_units_Z   1
loop_
 _symmetry_equiv_pos_site_id
 _symmetry_equiv_pos_as_xyz
  1  'x, y, z'
loop_
 _atom_site_type_symbol
 _atom_site_label
 _atom_site_symmetry_multiplicity
 _atom_site_fract_x
 _atom_site_fract_y
 _atom_site_fract_z
 _atom_site_occupancy
  Mg  Mg0  1  0.12554200  0.12554200  0.12554200  1
  Al  Al0  1  0.62442700  0.62442600  0.62442700  1
  Al  Al1  1  0.37551000  0.37551100  0.37551000  1
  Cu  Cu0  1  0.97695100  0.56718600  0.97695100  1
  Cu  Cu1  1  0.97763800  0.97763800  0.97763900  1
  Cu  Cu2  1  0.56718600  0.97695100  0.97695100  1
  Cu  Cu3  1  0.97695100  0.97695100  0.56718600  1
  O  O0  1  0.26205200  0.74571700  0.74571800  1
  O  O1  1  0.25364900  0.25365000  0.74124600  1
  O  O2  1  0.25365000  0.74124600  0.25364900  1
  O  O3  1  0.25364600  0.25364600  0.25364500  1
  O  O4  1  0.74571800  0.74571700  0.26205200  1
  O  O5  1  0.74124600  0.25365000  0.25364900  1
  O  O6  1  0.74571700  0.26205200  0.74571800  1
  O  O7  1  0.74511600  0.74511600  0.74511700  1
loop_
_geom_bond_atom_site_label_1
_geom_bond_atom_site_label_2
_geom_bond_distance
_geom_bond_site_symmetry_2
Mg0 O3 1.929734 1_555
Mg0 O1 1.931935 1_554
Mg0 O5 1.931937 1_455
Mg0 O2 1.931939 1_545
Al0 O7 1.818051 1_555
Al0 O6 1.821745 1_555
Al0 O4 1.821745 1_555
Al0 O0 1.821748 1_555
Al1 O3 1.835751 1_555
Al1 O2 1.838628 1_555
Al1 O1 1.838629 1_555
Al1 O5 1.838632 1_555
Cu0 O4 2.044418 1_556
Cu0 O0 2.044419 1_655
Cu0 O7 2.044737 1_555
Cu0 Mg0 2.220300 1_656
Cu0 O5 2.402553 1_556
Cu0 O1 2.402554 1_655
Cu0 O3 2.419502 1_656
Cu1 O4 2.044894 1_556
Cu1 O6 2.044899 1_565
Cu1 O0 2.044899 1_655
Cu1 Mg0 2.227998 1_666
Cu1 O2 2.414655 1_656
Cu1 O5 2.414656 1_566
Cu1 O1 2.414660 1_665
Cu2 O6 2.044419 1_565
Cu2 O4 2.044422 1_556
Cu2 O7 2.044737 1_555
Cu2 Mg0 2.220299 1_566
Cu2 O2 2.402553 1_556
Cu2 O1 2.402558 1_565
Cu2 O3 2.419502 1_566
Cu3 O0 2.044423 1_655
Cu3 O6 2.044423 1_565
Cu3 O7 2.044742 1_555
Cu3 Mg0 2.220295 1_665
Cu3 O5 2.402557 1_565
Cu3 O2 2.402557 1_655
Cu3 O3 2.419507 1_665
