# generated using pymatgen
data_CeBN2
_symmetry_space_group_name_H-M   'P 1'
_cell_length_a   6.41872400
_cell_length_b   6.79649540
_cell_length_c   7.70279414
_cell_angle_alpha   106.55512823
_cell_angle_beta   90.18766893
_cell_angle_gamma   115.64397287
_symmetry_Int_Tables_number   1
_chemical_formula_structural   CeBN2
_chemical_formula_sum   'Ce6 B6 N12'
_cell_volume   287.24348698
_cell_formula_units_Z   6
loop_
 _symmetry_equiv_pos_site_id
 _symmetry_equiv_pos_as_xyz
  1  'x, y, z'
loop_
 _atom_site_type_symbol
 _atom_site_label
 _atom_site_symmetry_multiplicity
 _atom_site_fract_x
 _atom_site_fract_y
 _atom_site_fract_z
 _atom_site_occupancy
  Ce  Ce0  1  0.53678800  0.77877400  0.06618700  1
  Ce  Ce1  1  0.46321200  0.22122600  0.93381300  1
  Ce  Ce2  1  0.46504600  0.21764400  0.42429900  1
  Ce  Ce3  1  0.53495400  0.78235600  0.57570100  1
  Ce  Ce4  1  0.95329400  0.64843900  0.29431200  1
  Ce  Ce5  1  0.04670600  0.35156100  0.70568800  1
  B  B0  1  0.89927700  0.20523300  0.33165200  1
  B  B1  1  0.09922100  0.78379200  0.98787400  1
  B  B2  1  0.90077900  0.21620800  0.01212600  1
  B  B3  1  0.10072300  0.79476700  0.66834800  1
  B  B4  1  0.27776100  0.42922600  0.23053800  1
  B  B5  1  0.72223900  0.57077400  0.76946200  1
  N  N0  1  0.15433300  0.36824900  0.04495100  1
  N  N1  1  0.84566700  0.63175100  0.95504900  1
  N  N2  1  0.23129400  0.79885000  0.83024200  1
  N  N3  1  0.76306300  0.05370000  0.43126300  1
  N  N4  1  0.23693700  0.94630000  0.56873700  1
  N  N5  1  0.76870600  0.20115000  0.16975800  1
  N  N6  1  0.46786400  0.48245400  0.74723000  1
  N  N7  1  0.53213600  0.51754600  0.25277000  1
  N  N8  1  0.76397100  0.08348600  0.83390100  1
  N  N9  1  0.23602900  0.91651400  0.16609900  1
  N  N10  1  0.15100400  0.36953200  0.38438100  1
  N  N11  1  0.84899600  0.63046800  0.61561900  1
loop_
_geom_bond_atom_site_label_1
_geom_bond_atom_site_label_2
_geom_bond_distance
_geom_bond_site_symmetry_2
Ce0 N5 2.466073 1_565
Ce0 N9 2.521679 1_555
Ce0 N7 2.574328 1_555
Ce0 N6 2.586464 1_554
Ce0 N1 2.626875 1_554
Ce0 N2 2.741588 1_554
Ce0 N0 2.765270 1_555
Ce0 N3 2.852831 1_565
Ce0 N8 3.021854 1_564
Ce1 N2 2.466073 1_545
Ce1 N8 2.521679 1_555
Ce1 N6 2.574328 1_555
Ce1 N7 2.586464 1_556
Ce1 N0 2.626875 1_556
Ce1 N5 2.741588 1_556
Ce1 N1 2.765270 1_555
Ce1 N4 2.852831 1_545
Ce1 N9 3.021854 1_546
Ce2 N9 2.315661 1_545
Ce2 N4 2.371795 1_545
Ce2 N3 2.604193 1_555
Ce2 N6 2.616734 1_555
Ce2 N7 2.620011 1_555
Ce2 N10 2.683538 1_555
Ce2 N5 2.782939 1_555
Ce2 N11 2.784326 1_555
Ce3 N8 2.315661 1_565
Ce3 N3 2.371795 1_565
Ce3 N4 2.604193 1_555
Ce3 N7 2.616734 1_555
Ce3 N6 2.620011 1_555
Ce3 N11 2.683538 1_555
Ce3 N2 2.782939 1_555
Ce3 N10 2.784326 1_555
Ce4 N9 2.400753 1_655
Ce4 N7 2.439706 1_555
Ce4 N4 2.495435 1_655
Ce4 N11 2.588605 1_555
Ce4 N5 2.603594 1_555
Ce4 N1 2.659088 1_554
Ce5 N8 2.400753 1_455
Ce5 N6 2.439706 1_555
Ce5 N3 2.495435 1_455
Ce5 N10 2.588605 1_555
Ce5 N2 2.603594 1_555
Ce5 N0 2.659088 1_556
B0 N3 1.445395 1_555
B0 N10 1.482614 1_655
B0 N5 1.487139 1_555
B1 N9 1.438833 1_556
B1 N1 1.474184 1_455
B1 N2 1.485227 1_555
B2 N8 1.438833 1_554
B2 N0 1.474184 1_655
B2 N5 1.485227 1_555
B3 N4 1.445395 1_555
B3 N11 1.482614 1_455
B3 N2 1.487139 1_555
B4 N7 1.465204 1_555
B4 N0 1.487873 1_555
B4 N10 1.491789 1_555
B5 N6 1.465204 1_555
B5 N1 1.487873 1_555
B5 N11 1.491789 1_555
