# generated using pymatgen
data_CNCl
_symmetry_space_group_name_H-M   'P 1'
_cell_length_a   4.23871000
_cell_length_b   5.72755600
_cell_length_c   5.95916000
_cell_angle_alpha   90.00000000
_cell_angle_beta   90.00000000
_cell_angle_gamma   90.00000000
_symmetry_Int_Tables_number   1
_chemical_formula_structural   CNCl
_chemical_formula_sum   'C2 N2 Cl2'
_cell_volume   144.67320234
_cell_formula_units_Z   2
loop_
 _symmetry_equiv_pos_site_id
 _symmetry_equiv_pos_as_xyz
  1  'x, y, z'
loop_
 _atom_site_type_symbol
 _atom_site_label
 _atom_site_symmetry_multiplicity
 _atom_site_fract_x
 _atom_site_fract_y
 _atom_site_fract_z
 _atom_site_occupancy
  C  C0  1  0.00000000  0.42697200  0.00000000  1
  C  C1  1  0.50000000  0.57302800  0.50000000  1
  N  N0  1  0.50000000  0.36860000  0.50000000  1
  N  N1  1  0.00000000  0.63140000  0.00000000  1
  Cl  Cl0  1  0.00000000  0.14484400  0.00000000  1
  Cl  Cl1  1  0.50000000  0.85515600  0.50000000  1
loop_
_geom_bond_atom_site_label_1
_geom_bond_atom_site_label_2
_geom_bond_distance
_geom_bond_site_symmetry_2
C0 N1 1.170873 1_555
C0 Cl0 1.615904 1_555
C1 N0 1.170873 1_555
C1 Cl1 1.615904 1_555
