# generated using pymatgen
data_ErGeRh
_symmetry_space_group_name_H-M   'P 1'
_cell_length_a   4.26478196
_cell_length_b   6.84352410
_cell_length_c   7.49358998
_cell_angle_alpha   90.00000000
_cell_angle_beta   90.00000000
_cell_angle_gamma   90.00000000
_symmetry_Int_Tables_number   1
_chemical_formula_structural   ErGeRh
_chemical_formula_sum   'Er4 Ge4 Rh4'
_cell_volume   218.70895220
_cell_formula_units_Z   4
loop_
 _symmetry_equiv_pos_site_id
 _symmetry_equiv_pos_as_xyz
  1  'x, y, z'
loop_
 _atom_site_type_symbol
 _atom_site_label
 _atom_site_symmetry_multiplicity
 _atom_site_fract_x
 _atom_site_fract_y
 _atom_site_fract_z
 _atom_site_occupancy
  Er  Er0  1  0.25000000  0.50240221  0.30414619  1
  Er  Er1  1  0.75000000  0.49759779  0.69585381  1
  Er  Er2  1  0.25000000  0.00240221  0.19585381  1
  Er  Er3  1  0.75000000  0.99759779  0.80414619  1
  Ge  Ge0  1  0.25000000  0.28777721  0.89309973  1
  Ge  Ge1  1  0.75000000  0.71222279  0.10690027  1
  Ge  Ge2  1  0.25000000  0.78777721  0.60690027  1
  Ge  Ge3  1  0.75000000  0.21222279  0.39309973  1
  Rh  Rh0  1  0.75000000  0.84514756  0.43399045  1
  Rh  Rh1  1  0.25000000  0.15485244  0.56600955  1
  Rh  Rh2  1  0.75000000  0.34514756  0.06600955  1
  Rh  Rh3  1  0.25000000  0.65485244  0.93399045  1
loop_
_geom_bond_atom_site_label_1
_geom_bond_atom_site_label_2
_geom_bond_distance
_geom_bond_site_symmetry_2
Er0 Rh3 2.963513 1_554
Er0 Ge1 2.965410 1_455
Er0 Ge1 2.965410 1_555
Er0 Rh2 2.981557 1_455
Er0 Rh2 2.981557 1_555
Er0 Ge3 2.989151 1_555
Er0 Ge3 2.989151 1_455
Er0 Ge2 2.993520 1_555
Er0 Rh1 3.083457 1_555
Er0 Rh0 3.315960 1_555
Er0 Rh0 3.315960 1_455
Er1 Rh2 2.963513 1_556
Er1 Ge0 2.965410 1_555
Er1 Ge0 2.965410 1_655
Er1 Rh3 2.981557 1_655
Er1 Rh3 2.981557 1_555
Er1 Ge2 2.989151 1_655
Er1 Ge2 2.989151 1_555
Er1 Ge3 2.993520 1_555
Er1 Rh0 3.083457 1_555
Er1 Rh1 3.315960 1_555
Er1 Rh1 3.315960 1_655
Er2 Rh1 2.963513 1_555
Er2 Ge3 2.965410 1_455
Er2 Ge3 2.965410 1_555
Er2 Rh0 2.981557 1_445
Er2 Rh0 2.981557 1_545
Er2 Ge1 2.989151 1_545
Er2 Ge1 2.989151 1_445
Er2 Ge0 2.993520 1_554
Er2 Rh3 3.083457 1_544
Er2 Rh2 3.315960 1_555
Er2 Rh2 3.315960 1_455
Er3 Rh0 2.963513 1_555
Er3 Ge2 2.965410 1_655
Er3 Ge2 2.965410 1_555
Er3 Rh1 2.981557 1_665
Er3 Rh1 2.981557 1_565
Er3 Ge0 2.989151 1_565
Er3 Ge0 2.989151 1_665
Er3 Ge1 2.993520 1_556
Er3 Rh2 3.083457 1_566
Er3 Rh3 3.315960 1_655
Er3 Rh3 3.315960 1_555
Ge0 Rh2 2.525889 1_556
Ge0 Rh2 2.525889 1_456
Ge0 Rh3 2.530707 1_555
Ge0 Rh1 2.614440 1_555
Ge1 Rh3 2.525889 1_554
Ge1 Rh3 2.525889 1_654
Ge1 Rh2 2.530707 1_555
Ge1 Rh0 2.614440 1_555
Ge2 Rh0 2.525889 1_555
Ge2 Rh0 2.525889 1_455
Ge2 Rh1 2.530707 1_565
Ge2 Rh3 2.614440 1_555
Ge3 Rh1 2.525889 1_555
Ge3 Rh1 2.525889 1_655
Ge3 Rh0 2.530707 1_545
Ge3 Rh2 2.614440 1_555
