# generated using pymatgen
data_Yb2Ru2O7
_symmetry_space_group_name_H-M   'P 1'
_cell_length_a   7.21350740
_cell_length_b   7.21350740
_cell_length_c   7.21350740
_cell_angle_alpha   60.00000000
_cell_angle_beta   60.00000000
_cell_angle_gamma   60.00000000
_symmetry_Int_Tables_number   1
_chemical_formula_structural   Yb2Ru2O7
_chemical_formula_sum   'Yb4 Ru4 O14'
_cell_volume   265.41437906
_cell_formula_units_Z   2
loop_
 _symmetry_equiv_pos_site_id
 _symmetry_equiv_pos_as_xyz
  1  'x, y, z'
loop_
 _atom_site_type_symbol
 _atom_site_label
 _atom_site_symmetry_multiplicity
 _atom_site_fract_x
 _atom_site_fract_y
 _atom_site_fract_z
 _atom_site_occupancy
  Yb  Yb0  1  0.12500000  0.12500000  0.12500000  1
  Yb  Yb1  1  0.62500000  0.12500000  0.12500000  1
  Yb  Yb2  1  0.12500000  0.12500000  0.62500000  1
  Yb  Yb3  1  0.12500000  0.62500000  0.12500000  1
  Ru  Ru0  1  0.62500000  0.62500000  0.62500000  1
  Ru  Ru1  1  0.12500000  0.62500000  0.62500000  1
  Ru  Ru2  1  0.62500000  0.62500000  0.12500000  1
  Ru  Ru3  1  0.62500000  0.12500000  0.62500000  1
  O  O0  1  0.00000000  0.00000000  0.00000000  1
  O  O1  1  0.25000000  0.25000000  0.25000000  1
  O  O2  1  0.30346700  0.30346700  0.69653300  1
  O  O3  1  0.55346700  0.55346700  0.94653300  1
  O  O4  1  0.69653300  0.30346700  0.69653300  1
  O  O5  1  0.69653300  0.30346700  0.30346700  1
  O  O6  1  0.30346700  0.69653300  0.69653300  1
  O  O7  1  0.30346700  0.69653300  0.30346700  1
  O  O8  1  0.69653300  0.69653300  0.30346700  1
  O  O9  1  0.94653300  0.55346700  0.55346700  1
  O  O10  1  0.55346700  0.94653300  0.94653300  1
  O  O11  1  0.94653300  0.94653300  0.55346700  1
  O  O12  1  0.94653300  0.55346700  0.94653300  1
  O  O13  1  0.55346700  0.94653300  0.55346700  1
loop_
_geom_bond_atom_site_label_1
_geom_bond_atom_site_label_2
_geom_bond_distance
_geom_bond_site_symmetry_2
O0 Yb1 2.208677 1_455
O0 Yb0 2.208677 1_555
O0 Yb2 2.208677 1_554
O0 Yb3 2.208677 1_545
O1 Yb0 2.208677 1_555
O1 Yb1 2.208677 1_555
O1 Yb2 2.208677 1_555
O1 Yb3 2.208677 1_555
O2 Ru1 1.945427 1_555
O2 Ru3 1.945427 1_555
O2 Yb2 2.562582 1_555
O2 Yb0 2.562582 1_556
O3 Ru2 1.945427 1_556
O3 Ru0 1.945427 1_555
O3 Yb3 2.562582 1_556
O3 Yb1 2.562582 1_556
O4 Ru3 1.945427 1_555
O4 Ru0 1.945427 1_555
O4 Yb2 2.562582 1_655
O4 Yb1 2.562582 1_556
O5 Ru2 1.945427 1_555
O5 Ru3 1.945427 1_555
O5 Yb1 2.562582 1_555
O5 Yb0 2.562582 1_655
O6 Ru1 1.945427 1_555
O6 Ru0 1.945427 1_555
O6 Yb2 2.562582 1_565
O6 Yb3 2.562582 1_556
O7 Ru1 1.945427 1_555
O7 Ru2 1.945427 1_555
O7 Yb0 2.562582 1_565
O7 Yb3 2.562582 1_555
O8 Ru2 1.945427 1_555
O8 Ru0 1.945427 1_555
O8 Yb3 2.562582 1_655
O8 Yb1 2.562582 1_565
O9 Ru1 1.945427 1_655
O9 Ru0 1.945427 1_555
O9 Yb2 2.562582 1_655
O9 Yb3 2.562582 1_655
O10 Ru3 1.945427 1_565
O10 Ru2 1.945427 1_556
O10 Yb1 2.562582 1_566
O10 Yb0 2.562582 1_566
O11 Ru1 1.945427 1_655
O11 Ru3 1.945427 1_565
O11 Yb0 2.562582 1_665
O11 Yb2 2.562582 1_665
O12 Ru1 1.945427 1_655
O12 Ru2 1.945427 1_556
O12 Yb3 2.562582 1_656
O12 Yb0 2.562582 1_656
O13 Ru0 1.945427 1_555
O13 Ru3 1.945427 1_565
O13 Yb2 2.562582 1_565
O13 Yb1 2.562582 1_565
