# generated using pymatgen
data_BPPbO5
_symmetry_space_group_name_H-M   'P 1'
_cell_length_a   7.01423055
_cell_length_b   7.01423055
_cell_length_c   6.93855800
_cell_angle_alpha   90.00000000
_cell_angle_beta   90.00000000
_cell_angle_gamma   120.00000516
_symmetry_Int_Tables_number   1
_chemical_formula_structural   BPPbO5
_chemical_formula_sum   'B3 P3 Pb3 O15'
_cell_volume   295.63776122
_cell_formula_units_Z   3
loop_
 _symmetry_equiv_pos_site_id
 _symmetry_equiv_pos_as_xyz
  1  'x, y, z'
loop_
 _atom_site_type_symbol
 _atom_site_label
 _atom_site_symmetry_multiplicity
 _atom_site_fract_x
 _atom_site_fract_y
 _atom_site_fract_z
 _atom_site_occupancy
  B  B0  1  0.09814200  0.09814200  0.00000000  1
  B  B1  1  0.00000000  0.90185800  0.66666700  1
  B  B2  1  0.90185800  0.00000000  0.33333300  1
  P  P0  1  0.60002300  0.60002300  0.50000000  1
  P  P1  1  0.00000000  0.39997700  0.16666700  1
  P  P2  1  0.39997700  0.00000000  0.83333300  1
  Pb  Pb0  1  0.61053400  0.61053400  0.00000000  1
  Pb  Pb1  1  0.00000000  0.38946600  0.66666700  1
  Pb  Pb2  1  0.38946600  0.00000000  0.33333300  1
  O  O0  1  0.86099300  0.44257300  0.02449000  1
  O  O1  1  0.55742700  0.41842000  0.35782300  1
  O  O2  1  0.58158000  0.13900700  0.69115700  1
  O  O3  1  0.95743200  0.00000000  0.83333300  1
  O  O4  1  0.00000000  0.95743200  0.16666700  1
  O  O5  1  0.04256800  0.04256800  0.50000000  1
  O  O6  1  0.33147500  0.14576600  0.96200800  1
  O  O7  1  0.85423400  0.18570900  0.29534200  1
  O  O8  1  0.81429100  0.66852500  0.62867500  1
  O  O9  1  0.18570900  0.85423400  0.70465800  1
  O  O10  1  0.66852500  0.81429100  0.37132500  1
  O  O11  1  0.14576600  0.33147500  0.03799200  1
  O  O12  1  0.44257300  0.86099300  0.97551000  1
  O  O13  1  0.13900700  0.58158000  0.30884300  1
  O  O14  1  0.41842000  0.55742700  0.64217700  1
loop_
_geom_bond_atom_site_label_1
_geom_bond_atom_site_label_2
_geom_bond_distance
_geom_bond_site_symmetry_2
B0 O4 1.451172 1_545
B0 O3 1.451172 1_454
B0 O11 1.520851 1_555
B0 O6 1.520851 1_554
B1 O3 1.451167 1_465
B1 O5 1.451172 1_565
B1 O9 1.520850 1_555
B1 O8 1.520851 1_455
B2 O4 1.451167 1_645
B2 O5 1.451172 1_655
B2 O7 1.520850 1_555
B2 O10 1.520851 1_545
O0 P1 1.518042 1_655
O0 Pb0 2.563745 1_555
O0 Pb1 2.759858 1_654
O1 P0 1.518042 1_555
O1 Pb2 2.563745 1_555
O1 Pb0 2.759858 1_555
O2 P2 1.518038 1_555
O2 Pb1 2.563745 1_655
O2 Pb2 2.759864 1_555
O3 Pb1 2.841399 1_655
O3 Pb0 2.841402 1_546
O4 Pb2 2.841399 1_565
O4 Pb0 2.841402 1_455
O5 Pb2 2.841402 1_555
O5 Pb1 2.841402 1_555
O6 P2 1.601450 1_555
O6 Pb0 2.854352 1_556
O6 Pb2 2.874868 1_556
O7 P1 1.601449 1_655
O7 Pb2 2.854351 1_555
O7 Pb1 2.874868 1_655
O8 P0 1.601449 1_555
O8 Pb1 2.854352 1_655
O8 Pb0 2.874868 1_556
O9 P2 1.601449 1_565
O9 Pb1 2.854351 1_555
O9 Pb2 2.874868 1_565
O10 P0 1.601449 1_555
O10 Pb2 2.854352 1_565
O10 Pb0 2.874868 1_555
O11 P1 1.601450 1_555
O11 Pb0 2.854352 1_555
O11 Pb1 2.874868 1_554
O12 P2 1.518042 1_565
O12 Pb0 2.563745 1_556
O12 Pb2 2.759858 1_566
O13 P1 1.518038 1_555
O13 Pb2 2.563745 1_565
O13 Pb1 2.759864 1_555
O14 P0 1.518042 1_555
O14 Pb1 2.563745 1_555
O14 Pb0 2.759858 1_556
