# generated using pymatgen
data_Na2ScNb3Si4(SO12)2
_symmetry_space_group_name_H-M   'P 1'
_cell_length_a   8.89706191
_cell_length_b   8.92057770
_cell_length_c   23.12098356
_cell_angle_alpha   90.43588024
_cell_angle_beta   90.21577397
_cell_angle_gamma   120.00623059
_symmetry_Int_Tables_number   1
_chemical_formula_structural   Na2ScNb3Si4(SO12)2
_chemical_formula_sum   'Na6 Sc3 Nb9 Si12 S6 O72'
_cell_volume   1588.98608947
_cell_formula_units_Z   3
loop_
 _symmetry_equiv_pos_site_id
 _symmetry_equiv_pos_as_xyz
  1  'x, y, z'
loop_
 _atom_site_type_symbol
 _atom_site_label
 _atom_site_symmetry_multiplicity
 _atom_site_fract_x
 _atom_site_fract_y
 _atom_site_fract_z
 _atom_site_occupancy
  Na  Na0  1  0.99088110  0.98679785  0.49935959  1
  Na  Na1  1  0.99993609  0.99468285  0.99880311  1
  Na  Na2  1  0.65912920  0.32240577  0.83122550  1
  Na  Na3  1  0.66825598  0.32165041  0.32484624  1
  Na  Na4  1  0.32515335  0.65706444  0.16266534  1
  Na  Na5  1  0.34630372  0.66427552  0.66691626  1
  Sc  Sc0  1  0.65193399  0.33299907  0.69046762  1
  Sc  Sc1  1  0.67309931  0.33739943  0.18657964  1
  Sc  Sc2  1  0.34929545  0.68181282  0.51847644  1
  Nb  Nb0  1  0.99800646  0.00224903  0.35276009  1
  Nb  Nb1  1  0.00548101  0.01525957  0.85793295  1
  Nb  Nb2  1  0.98551471  0.99481245  0.64892996  1
  Nb  Nb3  1  0.02310482  0.01240978  0.14277670  1
  Nb  Nb4  1  0.66200242  0.34472754  0.97596863  1
  Nb  Nb5  1  0.67923486  0.34514534  0.47728586  1
  Nb  Nb6  1  0.32413990  0.66040284  0.01890454  1
  Nb  Nb7  1  0.31964207  0.67714885  0.31052485  1
  Nb  Nb8  1  0.34199908  0.66455455  0.81385589  1
  Si  Si0  1  0.29380552  0.01065913  0.25047783  1
  Si  Si1  1  0.99924038  0.28878818  0.24993556  1
  Si  Si2  1  0.28607814  0.28923596  0.75064378  1
  Si  Si3  1  0.70742834  0.00254212  0.75254185  1
  Si  Si4  1  0.66319145  0.62191672  0.58570273  1
  Si  Si5  1  0.95306297  0.62029590  0.08502853  1
  Si  Si6  1  0.38842808  0.34394976  0.08433190  1
  Si  Si7  1  0.62401805  0.67356429  0.91790329  1
  Si  Si8  1  0.04254977  0.38432042  0.91516106  1
  Si  Si9  1  0.33453325  0.95169649  0.91617123  1
  Si  Si10  1  0.62141567  0.95533713  0.41697869  1
  Si  Si11  1  0.04941253  0.67465316  0.41866547  1
  S  S0  1  0.71006405  0.71372199  0.25024578  1
  S  S1  1  0.00152933  0.71408171  0.75018281  1
  S  S2  1  0.95548100  0.33265034  0.58403823  1
  S  S3  1  0.37635969  0.04614009  0.58331717  1
  S  S4  1  0.66687289  0.04311543  0.08316910  1
  S  S5  1  0.33387019  0.37716953  0.41693278  1
  O  O0  1  0.18342049  0.01442068  0.30638307  1
  O  O1  1  0.81753795  0.80072086  0.30369467  1
  O  O2  1  0.98196325  0.16801564  0.30642529  1
  O  O3  1  0.18643601  0.16698881  0.80628627  1
  O  O4  1  0.97841407  0.79662755  0.80200579  1
  O  O5  1  0.83117774  0.01511445  0.80677552  1
  O  O6  1  0.80136949  0.96737813  0.69355680  1
  O  O7  1  0.16285292  0.18550620  0.69274340  1
  O  O8  1  0.02331104  0.82294771  0.69696639  1
  O  O9  1  0.78895912  0.81964686  0.19885767  1
  O  O10  1  0.02325760  0.18718664  0.19386540  1
  O  O11  1  0.16846833  0.97117998  0.19263826  1
  O  O12  1  0.87274600  0.35180987  0.63493456  1
  O  O13  1  0.48149395  0.12455923  0.63548406  1
  O  O14  1  0.65022648  0.50814371  0.64013697  1
  O  O15  1  0.87763970  0.50689142  0.14164554  1
  O  O16  1  0.63985634  0.11881693  0.13573868  1
  O  O17  1  0.49366636  0.36452583  0.14215259  1
  O  O18  1  0.47136593  0.30640604  0.02617727  1
  O  O19  1  0.83294629  0.52376521  0.02686315  1
  O  O20  1  0.69451727  0.14833413  0.03117903  1
  O  O21  1  0.46155333  0.15197766  0.53100882  1
  O  O22  1  0.68972293  0.52115675  0.52691850  1
  O  O23  1  0.84494808  0.30391339  0.52985374  1
  O  O24  1  0.53156649  0.69913250  0.97403187  1
  O  O25  1  0.16434697  0.46993473  0.97276720  1
  O  O26  1  0.30516618  0.83207414  0.97257450  1
  O  O27  1  0.54681913  0.84049647  0.47334756  1
  O  O28  1  0.30543105  0.45133884  0.46915951  1
  O  O29  1  0.15886823  0.69585709  0.47517131  1
  O  O30  1  0.13402173  0.63731582  0.35987083  1
  O  O31  1  0.49816317  0.85678380  0.35972059  1
  O  O32  1  0.36260706  0.48117701  0.36490314  1
  O  O33  1  0.13572221  0.50095007  0.85871777  1
  O  O34  1  0.36190963  0.85845427  0.85898811  1
  O  O35  1  0.50170611  0.63643336  0.85968197  1
  O  O36  1  0.01701682  0.83555173  0.40641749  1
  O  O37  1  0.81731973  0.98759802  0.40513704  1
  O  O38  1  0.17959959  0.19872368  0.40976025  1
  O  O39  1  0.02782634  0.19332124  0.90973768  1
  O  O40  1  0.16341510  0.97188860  0.90671814  1
  O  O41  1  0.81575083  0.83740770  0.90781464  1
  O  O42  1  0.96889743  0.16949343  0.58758206  1
  O  O43  1  0.20146606  0.03173394  0.58816773  1
  O  O44  1  0.84662048  0.81609063  0.59024490  1
  O  O45  1  0.96731622  0.81359284  0.09156190  1
  O  O46  1  0.82333215  0.02157194  0.08982240  1
  O  O47  1  0.18760079  0.16722215  0.08936366  1
  O  O48  1  0.70046460  0.17545914  0.74399289  1
  O  O49  1  0.47572261  0.31097973  0.74734908  1
  O  O50  1  0.84954428  0.54253756  0.74307280  1
  O  O51  1  0.69644400  0.54372888  0.24768318  1
  O  O52  1  0.83512473  0.31429893  0.24783671  1
  O  O53  1  0.48096672  0.17503423  0.24780277  1
  O  O54  1  0.63818568  0.49752846  0.92351592  1
  O  O55  1  0.85066982  0.35578610  0.92511324  1
  O  O56  1  0.50537104  0.14184751  0.92594341  1
  O  O57  1  0.63910394  0.14779786  0.42711052  1
  O  O58  1  0.48945075  0.35290318  0.42395496  1
  O  O59  1  0.85247948  0.49675861  0.42542626  1
  O  O60  1  0.35780495  0.50798241  0.07409083  1
  O  O61  1  0.15182218  0.65662733  0.07366605  1
  O  O62  1  0.51193725  0.86696583  0.07637709  1
  O  O63  1  0.35264071  0.87038564  0.57755189  1
  O  O64  1  0.49720898  0.64653316  0.57827462  1
  O  O65  1  0.12856017  0.48299952  0.57585335  1
  O  O66  1  0.30272866  0.82777326  0.25713266  1
  O  O67  1  0.53590673  0.69642868  0.25842918  1
  O  O68  1  0.18369775  0.47446958  0.26042330  1
  O  O69  1  0.29287459  0.47570646  0.75616144  1
  O  O70  1  0.16252727  0.70412616  0.75309507  1
  O  O71  1  0.51796809  0.82552765  0.75688207  1
loop_
_geom_bond_atom_site_label_1
_geom_bond_atom_site_label_2
_geom_bond_distance
_geom_bond_site_symmetry_2
Na0 O44 2.548749 1_555
Na0 O36 2.601093 1_655
Na0 O43 2.663551 1_665
Na0 O37 2.667663 1_555
Na0 O42 2.669519 1_565
Na0 O38 2.756041 1_665
Na1 O41 2.590188 1_555
Na1 O45 2.623346 1_556
Na1 O47 2.625881 1_666
Na1 O40 2.646216 1_655
Na1 O39 2.657380 1_665
Na1 O46 2.710960 1_566
Na2 O49 2.498160 1_555
Na2 O48 2.523690 1_555
Na2 O56 2.670973 1_555
Na2 O55 2.675784 1_555
Na2 O54 2.696645 1_555
Na2 O50 2.764034 1_555
Na3 O53 2.328678 1_555
Na3 O52 2.343989 1_555
Na3 O51 2.594361 1_555
Na3 O57 2.778700 1_555
Na3 O59 2.808871 1_555
Na3 O58 2.884574 1_555
Na4 O60 2.529129 1_555
Na4 O61 2.565640 1_555
Na4 O62 2.686551 1_555
Na4 O68 2.715315 1_555
Na4 O66 2.717716 1_555
Na4 O67 2.800012 1_555
Na5 O64 2.501273 1_555
Na5 O71 2.542009 1_555
Na5 O69 2.563937 1_555
Na5 O70 2.713883 1_555
Na5 O65 2.754112 1_555
Na5 O63 2.758234 1_555
Nb0 O2 1.894409 1_555
Nb0 O0 1.928429 1_655
Nb0 O37 1.968467 1_545
Nb0 O36 2.014212 1_645
Nb0 O1 2.040858 1_545
Nb0 O38 2.129697 1_655
Nb1 O39 1.910670 1_555
Nb1 O3 1.925998 1_555
Nb1 O5 1.946313 1_455
Nb1 O40 1.983653 1_545
Nb1 O41 2.015088 1_445
Nb1 O4 2.241287 1_445
Nb2 O6 1.850481 1_555
Nb2 O7 1.920054 1_665
Nb2 O44 1.973288 1_555
Nb2 O8 2.058122 1_655
Nb2 O42 2.173572 1_565
Nb2 O43 2.273353 1_665
Nb3 O47 1.895331 1_555
Nb3 O11 1.899463 1_545
Nb3 O10 1.948322 1_555
Nb3 O45 1.969063 1_445
Nb3 O46 2.189810 1_455
Nb3 O9 2.334379 1_445
Nb4 O54 1.919832 1_555
Nb4 O19 1.943458 1_556
Nb4 O18 1.944789 1_556
Nb4 O56 1.997165 1_555
Nb4 O55 2.015182 1_555
Nb4 O20 2.306652 1_556
Nb5 O59 1.896380 1_555
Nb5 O22 1.901609 1_555
Nb5 O57 1.977281 1_555
Nb5 O23 2.078935 1_555
Nb5 O58 2.116324 1_555
Nb5 O21 2.230661 1_555
Nb6 O25 1.894993 1_554
Nb6 O26 1.950213 1_554
Nb6 O61 1.979477 1_555
Nb6 O24 1.995933 1_554
Nb6 O60 1.999340 1_555
Nb6 O62 2.195343 1_555
Nb7 O66 1.891578 1_555
Nb7 O30 1.894406 1_555
Nb7 O31 1.948684 1_555
Nb7 O68 1.960631 1_555
Nb7 O67 2.207321 1_555
Nb7 O32 2.341202 1_555
Nb8 O35 1.885154 1_555
Nb8 O34 1.943401 1_555
Nb8 O33 1.983041 1_555
Nb8 O69 2.008341 1_555
Nb8 O71 2.011000 1_555
Nb8 O70 2.280858 1_555
O0 Si0 1.636547 1_555
O1 S0 1.509331 1_555
O2 Si1 1.657562 1_555
O3 Si2 1.641109 1_555
O4 S1 1.469726 1_655
O5 Si3 1.631290 1_555
O6 Si3 1.709149 1_565
O7 Si2 1.675048 1_555
O8 S1 1.525236 1_555
O9 S0 1.468750 1_555
O10 Si1 1.650964 1_455
O11 Si0 1.656727 1_565
O12 S2 1.444003 1_555
O12 Sc0 2.286674 1_555
O13 S3 1.464003 1_555
O13 Sc0 2.121884 1_555
O14 Si4 1.590852 1_555
O14 Sc0 1.961314 1_555
O15 Si5 1.592193 1_555
O15 Sc1 1.990787 1_555
O16 S4 1.463973 1_555
O16 Sc1 2.158007 1_555
O17 Si6 1.585100 1_555
O17 Sc1 2.009994 1_555
O18 Si6 1.646935 1_555
O19 Si5 1.656298 1_555
O20 S4 1.474765 1_555
O21 S3 1.495702 1_555
O22 Si4 1.704980 1_555
O23 S2 1.528404 1_555
O24 Si7 1.613672 1_555
O25 Si8 1.636285 1_555
O26 Si9 1.628656 1_555
O27 Si10 1.592281 1_555
O27 Sc2 1.931077 1_555
O28 S5 1.455164 1_555
O28 Sc2 2.199529 1_555
O29 Si11 1.579056 1_555
O29 Sc2 2.022400 1_555
O30 Si11 1.666474 1_555
O31 Si10 1.653824 1_555
O32 S5 1.468123 1_555
O33 Si8 1.624468 1_555
O34 Si9 1.639368 1_555
O35 Si7 1.651566 1_555
O36 Si11 1.625644 1_555
O37 Si10 1.642810 1_555
O38 S5 1.501444 1_555
O39 Si8 1.645991 1_555
O40 Si9 1.634149 1_555
O41 Si7 1.617109 1_555
O42 S2 1.521451 1_555
O43 S3 1.500626 1_555
O44 Si4 1.686207 1_555
O45 Si5 1.670140 1_555
O46 S4 1.504907 1_555
O47 Si6 1.696596 1_555
O48 Si3 1.588210 1_555
O48 Sc0 2.079022 1_555
O49 Si2 1.601309 1_555
O49 Sc0 1.984327 1_555
O50 S1 1.456744 1_655
O50 Sc0 2.174099 1_555
O51 S0 1.460329 1_555
O51 Sc1 2.236664 1_555
O52 Si1 1.586870 1_555
O52 Sc1 2.100639 1_555
O53 Si0 1.576947 1_555
O53 Sc1 2.144001 1_555
O54 Si7 1.643063 1_555
O55 Si8 1.612880 1_655
O56 Si9 1.628331 1_545
O57 Si10 1.658499 1_545
O58 S5 1.512546 1_555
O59 Si11 1.684496 1_655
O60 Si6 1.635537 1_555
O61 Si5 1.653107 1_455
O62 S4 1.490685 1_565
O63 S3 1.478541 1_565
O63 Sc2 2.147302 1_555
O64 Si4 1.606716 1_555
O64 Sc2 2.037059 1_555
O65 S2 1.465016 1_455
O65 Sc2 2.309529 1_555
O66 Si0 1.680735 1_565
O67 S0 1.491337 1_555
O68 Si1 1.663657 1_455
O69 Si2 1.637993 1_555
O70 S1 1.480140 1_555
O71 Si3 1.639011 1_565
