# generated using pymatgen
data_CeAl2
_symmetry_space_group_name_H-M   'P 1'
_cell_length_a   5.61973076
_cell_length_b   5.61973140
_cell_length_c   5.61972975
_cell_angle_alpha   59.99999139
_cell_angle_beta   59.99999981
_cell_angle_gamma   60.00000115
_symmetry_Int_Tables_number   1
_chemical_formula_structural   CeAl2
_chemical_formula_sum   'Ce2 Al4'
_cell_volume   125.49646010
_cell_formula_units_Z   2
loop_
 _symmetry_equiv_pos_site_id
 _symmetry_equiv_pos_as_xyz
  1  'x, y, z'
loop_
 _atom_site_type_symbol
 _atom_site_label
 _atom_site_symmetry_multiplicity
 _atom_site_fract_x
 _atom_site_fract_y
 _atom_site_fract_z
 _atom_site_occupancy
  Ce  Ce0  1  0.87500000  0.87500000  0.87500000  1
  Ce  Ce1  1  0.12500000  0.12500000  0.12500000  1
  Al  Al0  1  0.50000000  0.50000000  0.50000000  1
  Al  Al1  1  0.50000000  0.50000000  -0.00000000  1
  Al  Al2  1  0.00000000  0.50000000  0.50000000  1
  Al  Al3  1  0.50000000  0.00000000  0.50000000  1
loop_
_geom_bond_atom_site_label_1
_geom_bond_atom_site_label_2
_geom_bond_distance
_geom_bond_site_symmetry_2
Ce0 Ce1 3.441367 1_665
Ce0 Ce1 3.441368 1_666
Ce0 Ce1 3.441368 1_566
Ce0 Ce1 3.441368 1_656
Al0 Al1 2.809865 1_556
Al0 Al1 2.809865 1_555
Al0 Al2 2.809865 1_555
Al0 Al2 2.809865 1_655
Al0 Al3 2.809866 1_555
Al0 Al3 2.809866 1_565
Al0 Ce1 3.294859 1_556
Al0 Ce0 3.294859 1_554
Al0 Ce0 3.294859 1_545
Al0 Ce1 3.294859 1_565
Al0 Ce1 3.294859 1_655
Al0 Ce0 3.294859 1_455
Al1 Al3 2.809865 1_564
Al1 Al3 2.809865 1_555
Al1 Al2 2.809865 1_555
Al1 Al2 2.809865 1_654
Al1 Ce1 3.294859 1_655
Al1 Ce0 3.294859 1_454
Al1 Ce0 3.294859 1_554
Al1 Ce1 3.294859 1_555
Al1 Ce0 3.294860 1_544
Al1 Ce1 3.294860 1_565
Al2 Al3 2.809866 1_555
Al2 Al3 2.809866 1_465
Al2 Ce0 3.294858 1_454
Al2 Ce1 3.294858 1_556
Al2 Ce0 3.294859 1_445
Al2 Ce1 3.294859 1_565
Al2 Ce1 3.294859 1_555
Al2 Ce0 3.294859 1_455
Al3 Ce0 3.294859 1_544
Al3 Ce1 3.294859 1_556
Al3 Ce0 3.294859 1_545
Al3 Ce1 3.294859 1_555
Al3 Ce1 3.294859 1_655
Al3 Ce0 3.294859 1_445
