# generated using pymatgen
data_Yb2MgTi2O6
_symmetry_space_group_name_H-M   'P 1'
_cell_length_a   6.03021238
_cell_length_b   6.03021184
_cell_length_c   6.03021190
_cell_angle_alpha   52.00588802
_cell_angle_beta   52.00588792
_cell_angle_gamma   52.00588144
_symmetry_Int_Tables_number   1
_chemical_formula_structural   Yb2MgTi2O6
_chemical_formula_sum   'Yb2 Mg1 Ti2 O6'
_cell_volume   125.91242676
_cell_formula_units_Z   1
loop_
 _symmetry_equiv_pos_site_id
 _symmetry_equiv_pos_as_xyz
  1  'x, y, z'
loop_
 _atom_site_type_symbol
 _atom_site_label
 _atom_site_symmetry_multiplicity
 _atom_site_fract_x
 _atom_site_fract_y
 _atom_site_fract_z
 _atom_site_occupancy
  Yb  Yb0  1  0.37748209  0.37748209  0.37748209  1
  Yb  Yb1  1  0.62251791  0.62251791  0.62251791  1
  Mg  Mg0  1  0.00000000  0.00000000  0.00000000  1
  Ti  Ti0  1  0.17176734  0.17176734  0.17176734  1
  Ti  Ti1  1  0.82823266  0.82823266  0.82823266  1
  O  O0  1  0.00159604  0.80462227  0.41406112  1
  O  O1  1  0.41406112  0.00159604  0.80462227  1
  O  O2  1  0.80462227  0.41406112  0.00159604  1
  O  O3  1  0.19537773  0.58593888  0.99840396  1
  O  O4  1  0.58593888  0.99840396  0.19537773  1
  O  O5  1  0.99840396  0.19537773  0.58593888  1
loop_
_geom_bond_atom_site_label_1
_geom_bond_atom_site_label_2
_geom_bond_distance
_geom_bond_site_symmetry_2
Mg0 O2 2.004104 1_455
Mg0 O3 2.004104 1_544
Mg0 O0 2.004104 1_545
Mg0 O5 2.004104 1_454
Mg0 O1 2.004104 1_554
Mg0 O4 2.004104 1_445
O0 Ti1 2.095446 1_455
O0 Yb0 2.171839 1_555
O0 Ti0 2.249011 1_565
O0 Yb1 2.421726 1_455
O1 Ti1 2.095446 1_545
O1 Yb0 2.171839 1_555
O1 Ti0 2.249011 1_556
O1 Yb1 2.421726 1_545
O2 Ti1 2.095446 1_554
O2 Yb0 2.171839 1_555
O2 Ti0 2.249011 1_655
O2 Yb1 2.421726 1_554
O3 Ti0 2.095446 1_556
O3 Yb1 2.171839 1_555
O3 Ti1 2.249011 1_455
O3 Yb0 2.421726 1_556
O4 Ti0 2.095446 1_565
O4 Yb1 2.171839 1_555
O4 Ti1 2.249011 1_554
O4 Yb0 2.421726 1_565
O5 Ti0 2.095446 1_655
O5 Yb1 2.171839 1_555
O5 Ti1 2.249011 1_545
O5 Yb0 2.421726 1_655
