# generated using pymatgen
data_K2Bi8Se13
_symmetry_space_group_name_H-M   'P 1'
_cell_length_a   13.87817265
_cell_length_b   13.87817265
_cell_length_c   12.28560345
_cell_angle_alpha   87.74253999
_cell_angle_beta   87.74253999
_cell_angle_gamma   17.34850783
_symmetry_Int_Tables_number   1
_chemical_formula_structural   K2Bi8Se13
_chemical_formula_sum   'K2 Bi8 Se13'
_cell_volume   705.01610796
_cell_formula_units_Z   1
loop_
 _symmetry_equiv_pos_site_id
 _symmetry_equiv_pos_as_xyz
  1  'x, y, z'
loop_
 _atom_site_type_symbol
 _atom_site_label
 _atom_site_symmetry_multiplicity
 _atom_site_fract_x
 _atom_site_fract_y
 _atom_site_fract_z
 _atom_site_occupancy
  K  K0  1  0.41224335  0.41224335  0.05353771  1
  K  K1  1  0.58775665  0.58775665  0.94646229  1
  Bi  Bi0  1  0.44148518  0.44148518  0.38115524  1
  Bi  Bi1  1  0.71771397  0.71771397  0.13076404  1
  Bi  Bi2  1  0.28228603  0.28228603  0.86923596  1
  Bi  Bi3  1  0.92449460  0.92449460  0.70436971  1
  Bi  Bi4  1  0.07550540  0.07550540  0.29563029  1
  Bi  Bi5  1  0.81141810  0.81141810  0.45508649  1
  Bi  Bi6  1  0.18858190  0.18858190  0.54491351  1
  Bi  Bi7  1  0.55851482  0.55851482  0.61884476  1
  Se  Se0  1  0.14038228  0.14038228  0.11759390  1
  Se  Se1  1  -0.00000000  -0.00000000  0.50000000  1
  Se  Se2  1  0.70953032  0.70953032  0.91166910  1
  Se  Se3  1  0.29046968  0.29046968  0.08833090  1
  Se  Se4  1  0.85961772  0.85961772  0.88240610  1
  Se  Se5  1  0.37034212  0.37034212  0.57067323  1
  Se  Se6  1  0.74437599  0.74437599  0.64083852  1
  Se  Se7  1  0.25562401  0.25562401  0.35916148  1
  Se  Se8  1  0.62965788  0.62965788  0.42932677  1
  Se  Se9  1  0.48101987  0.48101987  0.79836997  1
  Se  Se10  1  0.51898013  0.51898013  0.20163003  1
  Se  Se11  1  0.89017924  0.89017924  0.27453236  1
  Se  Se12  1  0.10982076  0.10982076  0.72546764  1
loop_
_geom_bond_atom_site_label_1
_geom_bond_atom_site_label_2
_geom_bond_distance
_geom_bond_site_symmetry_2
K0 Se4 3.335903 1_454
K0 Se4 3.335903 1_544
K0 Se3 3.351625 1_555
K0 Se11 3.462361 1_455
K0 Se11 3.462361 1_545
K0 Se10 3.508897 1_555
K0 Se9 3.594080 1_554
K1 Se0 3.335903 1_656
K1 Se0 3.335903 1_566
K1 Se2 3.351625 1_555
K1 Se12 3.462361 1_565
K1 Se12 3.462361 1_655
K1 Se9 3.508897 1_555
K1 Se10 3.594080 1_556
Bi0 Se11 2.868030 1_455
Bi0 Se11 2.868030 1_545
Bi0 Se5 2.978189 1_555
Bi0 Se10 3.002047 1_555
Bi0 Se1 3.045888 1_565
Bi0 Se1 3.045888 1_655
Bi1 Se2 2.709965 1_554
Bi1 Se3 2.924907 1_565
Bi1 Se3 2.924907 1_655
Bi1 Se0 2.989460 1_655
Bi1 Se0 2.989460 1_565
Bi2 Se3 2.709965 1_556
Bi2 Se2 2.924907 1_545
Bi2 Se2 2.924907 1_455
Bi2 Se4 2.989460 1_455
Bi2 Se4 2.989460 1_545
Bi3 Se4 2.764570 1_555
Bi3 Se9 2.874523 1_655
Bi3 Se9 2.874523 1_565
Bi3 Se5 3.079153 1_565
Bi3 Se5 3.079153 1_655
Bi3 Se1 3.190906 1_665
Bi4 Se0 2.764570 1_555
Bi4 Se10 2.874523 1_455
Bi4 Se10 2.874523 1_545
Bi4 Se8 3.079153 1_545
Bi4 Se8 3.079153 1_455
Bi4 Se1 3.190906 1_555
Bi5 Se7 2.873546 1_565
Bi5 Se7 2.873546 1_655
Bi5 Se6 2.873552 1_555
Bi5 Se5 3.032240 1_565
Bi5 Se5 3.032240 1_655
Bi5 Se11 3.034614 1_555
Bi6 Se6 2.873546 1_545
Bi6 Se6 2.873546 1_455
Bi6 Se7 2.873552 1_555
Bi6 Se8 3.032240 1_455
Bi6 Se8 3.032240 1_545
Bi6 Se12 3.034614 1_555
Bi7 Se12 2.868030 1_565
Bi7 Se12 2.868030 1_655
Bi7 Se8 2.978189 1_555
Bi7 Se9 3.002047 1_555
Bi7 Se1 3.045888 1_565
Bi7 Se1 3.045888 1_655
