# generated using pymatgen
data_Ba4Al5
_symmetry_space_group_name_H-M   'P 1'
_cell_length_a   6.11650028
_cell_length_b   6.11650747
_cell_length_c   18.04104006
_cell_angle_alpha   89.99980170
_cell_angle_beta   90.00002320
_cell_angle_gamma   119.99996110
_symmetry_Int_Tables_number   1
_chemical_formula_structural   Ba4Al5
_chemical_formula_sum   'Ba8 Al10'
_cell_volume   584.51933751
_cell_formula_units_Z   2
loop_
 _symmetry_equiv_pos_site_id
 _symmetry_equiv_pos_as_xyz
  1  'x, y, z'
loop_
 _atom_site_type_symbol
 _atom_site_label
 _atom_site_symmetry_multiplicity
 _atom_site_fract_x
 _atom_site_fract_y
 _atom_site_fract_z
 _atom_site_occupancy
  Ba  Ba0  1  -0.00000006  0.00000089  0.35602829  1
  Ba  Ba1  1  0.00000036  0.00000072  0.85591498  1
  Ba  Ba2  1  0.00000027  0.00000054  0.64414969  1
  Ba  Ba3  1  -0.00000031  0.00000038  0.14390538  1
  Ba  Ba4  1  0.33333356  0.66666512  0.92912980  1
  Ba  Ba5  1  0.66666850  0.33333599  0.42953040  1
  Ba  Ba6  1  0.66666715  0.33333530  0.07043291  1
  Ba  Ba7  1  0.33333384  0.66666767  0.57090490  1
  Al  Al0  1  0.49048739  0.98097379  0.75001651  1
  Al  Al1  1  0.50950936  0.49048991  0.24998255  1
  Al  Al2  1  0.98097955  0.49048891  0.24998255  1
  Al  Al3  1  0.01901615  0.50951181  0.75001963  1
  Al  Al4  1  0.49049566  0.50951181  0.75001963  1
  Al  Al5  1  0.50951021  0.01902041  0.24998271  1
  Al  Al6  1  0.33333444  0.66666789  0.36102808  1
  Al  Al7  1  0.66666918  0.33333736  0.86096381  1
  Al  Al8  1  0.33333418  0.66666836  0.13892684  1
  Al  Al9  1  0.66666257  0.33332413  0.63908032  1
loop_
_geom_bond_atom_site_label_1
_geom_bond_atom_site_label_2
_geom_bond_distance
_geom_bond_site_symmetry_2
Al0 Al9 2.736624 1_565
Al0 Al7 2.736828 1_565
Al0 Al4 2.883726 1_555
Al0 Al3 2.883729 1_555
Al0 Ba2 3.607068 1_665
Al0 Ba2 3.607071 1_565
Al0 Ba1 3.607369 1_665
Al0 Ba1 3.607375 1_565
Al0 Ba7 3.635052 1_555
Al0 Ba4 3.635074 1_555
Al1 Al6 2.738082 1_555
Al1 Al8 2.738213 1_555
Al1 Al5 2.883749 1_555
Al1 Al2 2.883751 1_555
Al1 Ba0 3.608773 1_555
Al1 Ba0 3.608791 1_665
Al1 Ba3 3.609080 1_665
Al1 Ba3 3.609085 1_555
Al1 Ba5 3.642057 1_555
Al1 Ba6 3.642091 1_555
Al2 Al6 2.738089 1_655
Al2 Al8 2.738218 1_655
Al2 Al5 2.883743 1_555
Al2 Ba0 3.608767 1_655
Al2 Ba0 3.608797 1_665
Al2 Ba3 3.609081 1_655
Al2 Ba3 3.609084 1_665
Al2 Ba5 3.642054 1_555
Al2 Ba6 3.642090 1_555
Al3 Al9 2.736682 1_455
Al3 Al7 2.736718 1_455
Al3 Al4 2.883805 1_555
Al3 Ba2 3.607078 1_565
Al3 Ba2 3.607124 1_555
Al3 Ba1 3.607332 1_565
Al3 Ba1 3.607355 1_555
Al3 Ba4 3.635052 1_555
Al3 Ba7 3.635122 1_555
Al4 Al9 2.736687 1_555
Al4 Al7 2.736721 1_555
Al4 Ba2 3.607079 1_665
Al4 Ba2 3.607123 1_555
Al4 Ba1 3.607332 1_665
Al4 Ba1 3.607355 1_555
Al4 Ba4 3.635049 1_555
Al4 Ba7 3.635121 1_555
Al5 Al6 2.738072 1_545
Al5 Al8 2.738219 1_545
Al5 Ba0 3.608774 1_655
Al5 Ba0 3.608780 1_555
Al5 Ba3 3.609079 1_655
Al5 Ba3 3.609083 1_555
Al5 Ba5 3.642071 1_555
Al5 Ba6 3.642092 1_555
Al6 Ba0 3.532510 1_665
Al6 Ba0 3.532520 1_565
Al6 Ba0 3.532523 1_555
Al6 Ba5 3.741366 1_555
Al6 Ba5 3.741367 1_455
Al6 Ba5 3.741388 1_565
Al6 Ba7 3.786396 1_555
Al7 Ba1 3.532525 1_665
Al7 Ba1 3.532545 1_655
Al7 Ba1 3.532551 1_555
Al7 Ba4 3.739359 1_555
Al7 Ba4 3.739363 1_655
Al7 Ba4 3.739400 1_545
Al7 Ba6 3.779040 1_556
Al8 Ba3 3.532501 1_665
Al8 Ba3 3.532506 1_565
Al8 Ba3 3.532517 1_555
Al8 Ba6 3.741322 1_555
Al8 Ba6 3.741323 1_565
Al8 Ba6 3.741326 1_455
Al8 Ba4 3.784957 1_554
Al9 Ba2 3.532520 1_655
Al9 Ba2 3.532525 1_555
Al9 Ba2 3.532605 1_665
Al9 Ba7 3.739386 1_545
Al9 Ba7 3.739450 1_655
Al9 Ba7 3.739454 1_555
Al9 Ba5 3.780499 1_555
