# generated using pymatgen
data_Na5Y3Ti(PO4)6
_symmetry_space_group_name_H-M   'P 1'
_cell_length_a   9.17321539
_cell_length_b   9.16942414
_cell_length_c   23.23671595
_cell_angle_alpha   89.92914466
_cell_angle_beta   89.95830499
_cell_angle_gamma   120.03628414
_symmetry_Int_Tables_number   1
_chemical_formula_structural   Na5Y3Ti(PO4)6
_chemical_formula_sum   'Na15 Y9 Ti3 P18 O72'
_cell_volume   1692.03472524
_cell_formula_units_Z   3
loop_
 _symmetry_equiv_pos_site_id
 _symmetry_equiv_pos_as_xyz
  1  'x, y, z'
loop_
 _atom_site_type_symbol
 _atom_site_label
 _atom_site_symmetry_multiplicity
 _atom_site_fract_x
 _atom_site_fract_y
 _atom_site_fract_z
 _atom_site_occupancy
  Na  Na0  1  0.63852159  0.00013777  0.25392442  1
  Na  Na1  1  0.36228711  0.36252910  0.25496834  1
  Na  Na2  1  0.99913669  0.63761382  0.25416002  1
  Na  Na3  1  0.64068694  0.64183366  0.75107697  1
  Na  Na4  1  0.00104656  0.36112013  0.75128118  1
  Na  Na5  1  0.03268684  0.69845230  0.57990355  1
  Na  Na6  1  0.66289962  0.96576969  0.57982142  1
  Na  Na7  1  0.66266482  0.69808318  0.07951178  1
  Na  Na8  1  0.03380071  0.33389378  0.07936120  1
  Na  Na9  1  0.01068871  0.01126194  0.49627118  1
  Na  Na10  1  0.01018323  0.99958353  0.99497649  1
  Na  Na11  1  0.65649350  0.32288546  0.83647181  1
  Na  Na12  1  0.66704603  0.33366433  0.34350135  1
  Na  Na13  1  0.33335215  0.67834396  0.16659328  1
  Na  Na14  1  0.33385116  0.66589372  0.66715131  1
  Y  Y0  1  0.99808136  0.99835905  0.35581361  1
  Y  Y1  1  0.00122306  0.00003880  0.85330719  1
  Y  Y2  1  0.01209727  0.00908962  0.64972965  1
  Y  Y3  1  0.00847513  0.99948689  0.14544402  1
  Y  Y4  1  0.65502060  0.32567188  0.68433442  1
  Y  Y5  1  0.66245821  0.32893607  0.18095625  1
  Y  Y6  1  0.33321067  0.67353807  0.01388494  1
  Y  Y7  1  0.33237155  0.65696500  0.51453356  1
  Y  Y8  1  0.33333951  0.66565701  0.32759966  1
  Ti  Ti0  1  0.66629105  0.33408608  0.97696656  1
  Ti  Ti1  1  0.66368161  0.33267092  0.48145985  1
  Ti  Ti2  1  0.33297434  0.67483063  0.82194848  1
  P  P0  1  0.29769621  0.99602434  0.25093773  1
  P  P1  1  0.69928200  0.70245685  0.24812696  1
  P  P2  1  0.00325681  0.30062374  0.24828111  1
  P  P3  1  0.29937464  0.31396587  0.75450323  1
  P  P4  1  0.01126465  0.70134586  0.75155319  1
  P  P5  1  0.69177955  0.98921094  0.75200688  1
  P  P6  1  0.95057802  0.33172905  0.58189433  1
  P  P7  1  0.37595392  0.04257287  0.57854036  1
  P  P8  1  0.66938724  0.62502567  0.58197615  1
  P  P9  1  0.95133971  0.61830455  0.07909761  1
  P  P10  1  0.66826220  0.04442896  0.07939963  1
  P  P11  1  0.37797658  0.33357715  0.07816418  1
  P  P12  1  0.62208802  0.65411240  0.91747422  1
  P  P13  1  0.03150099  0.37765994  0.91792482  1
  P  P14  1  0.34664100  0.97069783  0.91672464  1
  P  P15  1  0.63666522  0.98327346  0.42037709  1
  P  P16  1  0.34628565  0.36126990  0.41782253  1
  P  P17  1  0.01674385  0.65355962  0.42054762  1
  O  O0  1  0.21254365  0.02491184  0.30260324  1
  O  O1  1  0.81607256  0.79139390  0.29894921  1
  O  O2  1  0.97595424  0.18376750  0.29914961  1
  O  O3  1  0.21382078  0.19836654  0.80542003  1
  O  O4  1  0.97435848  0.78837878  0.80058057  1
  O  O5  1  0.81391336  0.02057047  0.80132212  1
  O  O6  1  0.76175762  0.95255800  0.69572584  1
  O  O7  1  0.18943388  0.23752770  0.69974257  1
  O  O8  1  0.04034656  0.80084115  0.69453126  1
  O  O9  1  0.77751472  0.80430672  0.19180749  1
  O  O10  1  0.02772140  0.22301547  0.19203994  1
  O  O11  1  0.19077512  0.96982636  0.19635069  1
  O  O12  1  0.87865628  0.35373720  0.63914755  1
  O  O13  1  0.47624207  0.11720776  0.63392596  1
  O  O14  1  0.65033932  0.53385780  0.63943499  1
  O  O15  1  0.88083450  0.52710436  0.13698744  1
  O  O16  1  0.65010326  0.11427982  0.13753216  1
  O  O17  1  0.46972714  0.35520098  0.13590965  1
  O  O18  1  0.48411526  0.32226403  0.02776985  1
  O  O19  1  0.83219585  0.51314721  0.02856338  1
  O  O20  1  0.68006998  0.16290839  0.02905572  1
  O  O21  1  0.47759952  0.15761443  0.52727069  1
  O  O22  1  0.68126962  0.51988888  0.53141493  1
  O  O23  1  0.83246452  0.31630442  0.53118047  1
  O  O24  1  0.54906998  0.67875292  0.97322023  1
  O  O25  1  0.12975895  0.45019324  0.97357887  1
  O  O26  1  0.31866364  0.86826338  0.97076875  1
  O  O27  1  0.54784389  0.87040045  0.47225107  1
  O  O28  1  0.32055918  0.45442051  0.46717972  1
  O  O29  1  0.12950412  0.67774260  0.47234571  1
  O  O30  1  0.09215040  0.62598004  0.36401196  1
  O  O31  1  0.53429140  0.90717687  0.36386817  1
  O  O32  1  0.37526189  0.46090116  0.36037491  1
  O  O33  1  0.13205914  0.49780907  0.86543900  1
  O  O34  1  0.36334832  0.86483145  0.86470899  1
  O  O35  1  0.50411270  0.63694046  0.86490038  1
  O  O36  1  0.99468308  0.80786197  0.41538888  1
  O  O37  1  0.81321905  0.00550769  0.41538315  1
  O  O38  1  0.19199198  0.18466598  0.41426515  1
  O  O39  1  0.00572301  0.20147701  0.90936425  1
  O  O40  1  0.19565618  0.99414546  0.90798744  1
  O  O41  1  0.79904849  0.80436645  0.90942788  1
  O  O42  1  0.95749712  0.16586004  0.58357584  1
  O  O43  1  0.19762167  0.02128140  0.58131139  1
  O  O44  1  0.83674954  0.79942954  0.58287439  1
  O  O45  1  0.95668996  0.78982623  0.07940894  1
  O  O46  1  0.83559962  0.03797040  0.07954134  1
  O  O47  1  0.19911575  0.17751619  0.07866541  1
  O  O48  1  0.67673221  0.14844100  0.74691892  1
  O  O49  1  0.48111895  0.34721466  0.74836605  1
  O  O50  1  0.85621329  0.52017790  0.74677724  1
  O  O51  1  0.67760393  0.52342414  0.24500843  1
  O  O52  1  0.84559212  0.32172586  0.24519205  1
  O  O53  1  0.47584064  0.15382849  0.24615199  1
  O  O54  1  0.63318800  0.48791071  0.92361939  1
  O  O55  1  0.85450455  0.36648873  0.92412369  1
  O  O56  1  0.51272714  0.14474690  0.92204124  1
  O  O57  1  0.65084999  0.15891918  0.42876177  1
  O  O58  1  0.50832735  0.35011612  0.42851697  1
  O  O59  1  0.84130517  0.49198658  0.42951201  1
  O  O60  1  0.36038474  0.49308602  0.07472347  1
  O  O61  1  0.12518115  0.63269148  0.07510305  1
  O  O62  1  0.52060357  0.86208246  0.07624541  1
  O  O63  1  0.35663839  0.86479039  0.57445834  1
  O  O64  1  0.52131939  0.65909952  0.57730401  1
  O  O65  1  0.12498094  0.49137995  0.57649643  1
  O  O66  1  0.31620502  0.83713939  0.25628060  1
  O  O67  1  0.52317223  0.68634949  0.25486903  1
  O  O68  1  0.16251305  0.47768706  0.25484771  1
  O  O69  1  0.31247367  0.49098675  0.76320323  1
  O  O70  1  0.16846007  0.67970554  0.76402924  1
  O  O71  1  0.51733744  0.82611809  0.76421979  1
loop_
_geom_bond_atom_site_label_1
_geom_bond_atom_site_label_2
_geom_bond_distance
_geom_bond_site_symmetry_2
Na0 O67 2.520059 1_545
Na0 O53 2.520062 1_555
Na0 O66 2.560164 1_545
Na0 O52 2.595222 1_555
Na0 O31 2.709719 1_545
Na0 O16 2.881437 1_555
Na0 O2 2.883078 1_555
Na1 O51 2.514496 1_555
Na1 O68 2.531898 1_555
Na1 O67 2.570520 1_555
Na1 O32 2.593317 1_555
Na1 O53 2.604867 1_555
Na1 O0 2.903097 1_555
Na1 O17 2.948281 1_555
Na2 O52 2.516899 1_555
Na2 O66 2.546082 1_655
Na2 O68 2.568437 1_655
Na2 O51 2.598236 1_555
Na2 O30 2.710860 1_655
Na2 O1 2.874558 1_555
Na2 O15 2.920252 1_555
Na2 O11 2.966423 1_655
Na3 O49 2.342324 1_555
Na3 O71 2.478674 1_555
Na3 O69 2.624142 1_555
Na3 O50 2.714961 1_555
Na3 O14 2.794943 1_555
Na3 O6 2.797592 1_555
Na3 O4 2.896384 1_555
Na3 O35 2.916436 1_555
Na4 O50 2.417204 1_455
Na4 O69 2.500472 1_555
Na4 O70 2.547847 1_555
Na4 O48 2.618563 1_455
Na4 O7 2.768723 1_555
Na4 O12 2.825405 1_455
Na4 O33 2.925189 1_555
Na4 O5 2.944759 1_455
Na5 O44 2.399712 1_455
Na5 O65 2.436764 1_555
Na5 O43 2.563094 1_565
Na5 O63 2.575794 1_555
Na5 O29 2.690365 1_555
Na5 O8 2.814498 1_555
Na6 O42 2.390386 1_565
Na6 O64 2.437601 1_555
Na6 O63 2.482388 1_555
Na6 O27 2.685487 1_555
Na6 O44 2.703634 1_555
Na6 O6 2.864141 1_555
Na7 O45 2.389747 1_555
Na7 O62 2.434544 1_555
Na7 O60 2.453078 1_555
Na7 O24 2.652812 1_554
Na7 O46 2.698172 1_565
Na7 O9 2.801880 1_555
Na8 O46 2.393652 1_455
Na8 O61 2.432904 1_555
Na8 O47 2.555945 1_555
Na8 O60 2.595890 1_555
Na8 O25 2.646623 1_554
Na8 O10 2.797968 1_555
Na9 O38 2.503172 1_555
Na9 O43 2.588698 1_555
Na9 O37 2.593526 1_455
Na9 O36 2.601391 1_445
Na9 O42 2.657299 1_455
Na9 O44 2.692844 1_445
Na10 O47 2.574744 1_566
Na10 O45 2.614133 1_456
Na10 O40 2.657665 1_555
Na10 O46 2.666718 1_466
Na10 O41 2.729590 1_455
Na10 O39 2.730042 1_565
Na11 O56 2.488471 1_555
Na11 O54 2.601338 1_555
Na11 O55 2.624471 1_555
Na11 O49 2.681823 1_555
Na11 O48 2.688533 1_555
Na11 O50 2.764102 1_555
Na12 O58 2.502308 1_555
Na12 O57 2.503582 1_555
Na12 O59 2.519098 1_555
Na12 O53 2.834101 1_555
Na12 O52 2.843868 1_555
Na12 O51 2.845346 1_555
Na13 O66 2.593142 1_555
Na13 O67 2.668814 1_555
Na13 O68 2.673233 1_555
Na13 O62 2.699126 1_555
Na13 O61 2.747589 1_555
Na13 O60 2.816766 1_555
Na14 O69 2.695885 1_555
Na14 O64 2.724386 1_555
Na14 O70 2.751998 1_555
Na14 O65 2.759349 1_555
Na14 O63 2.759893 1_555
Na14 O71 2.759920 1_555
O0 P0 1.525830 1_545
O0 Y0 2.230371 1_445
O1 P1 1.528734 1_555
O1 Y0 2.229895 1_555
O2 P2 1.528330 1_655
O2 Y0 2.237291 1_545
O3 P3 1.517251 1_555
O3 Y1 2.188611 1_555
O4 P4 1.523648 1_655
O4 Y1 2.203645 1_665
O5 P5 1.526828 1_545
O5 Y1 2.184773 1_655
O6 P5 1.565621 1_555
O6 Y2 2.342638 1_665
O7 P3 1.556899 1_555
O7 Y2 2.232036 1_555
O8 P4 1.553050 1_555
O8 Y2 2.299571 1_565
O9 P1 1.557080 1_555
O9 Y3 2.246851 1_655
O10 P2 1.557692 1_555
O10 Y3 2.246769 1_545
O11 P0 1.547672 1_555
O11 Y3 2.174197 1_555
O12 P6 1.542262 1_555
O12 Y4 2.201110 1_555
O13 P7 1.531216 1_555
O13 Y4 2.141362 1_555
O14 P8 1.537096 1_555
O14 Y4 2.193542 1_555
O15 P9 1.543244 1_555
O15 Y5 2.169550 1_555
O16 P10 1.539897 1_555
O16 Y5 2.164915 1_555
O17 P11 1.543824 1_555
O17 Y5 2.169717 1_555
O18 P11 1.558753 1_555
O18 Ti0 2.003371 1_554
O19 P9 1.566135 1_555
O19 Ti0 1.988819 1_554
O20 P10 1.561838 1_555
O20 Ti0 2.034399 1_554
O21 P7 1.553078 1_555
O21 Ti1 1.968149 1_555
O22 P8 1.558656 1_555
O22 Ti1 2.012062 1_555
O23 P6 1.559319 1_555
O23 Ti1 1.997323 1_555
O24 P12 1.525975 1_555
O24 Y6 2.172192 1_556
O25 P13 1.526717 1_555
O25 Y6 2.176089 1_556
O26 P14 1.510110 1_555
O26 Y6 2.108066 1_556
O27 P15 1.529468 1_555
O27 Y7 2.195948 1_555
O28 P16 1.518039 1_555
O28 Y7 2.115543 1_555
O29 P17 1.529918 1_555
O29 Y7 2.194892 1_555
O30 P17 1.562967 1_555
O30 Y8 2.221264 1_555
O31 P15 1.562381 1_555
O31 Y8 2.220988 1_555
O32 P16 1.562229 1_555
O32 Y8 2.229929 1_555
O33 P13 1.590512 1_555
O33 Ti2 2.012746 1_555
O34 P14 1.605700 1_555
O34 Ti2 1.902337 1_555
O35 P12 1.587514 1_555
O35 Ti2 2.031953 1_555
O36 P17 1.530822 1_655
O36 Y0 2.215384 1_555
O37 P15 1.532039 1_545
O37 Y0 2.214514 1_545
O38 P16 1.529189 1_555
O38 Y0 2.212329 1_445
O39 P13 1.524384 1_555
O39 Y1 2.244950 1_555
O40 P14 1.517934 1_555
O40 Y1 2.213161 1_565
O41 P12 1.525847 1_555
O41 Y1 2.240263 1_665
O42 P6 1.554110 1_555
O42 Y2 2.323070 1_655
O43 P7 1.548695 1_555
O43 Y2 2.289429 1_555
O44 P8 1.567516 1_555
O44 Y2 2.368932 1_665
O45 P9 1.548798 1_555
O45 Y3 2.317360 1_655
O46 P10 1.565511 1_555
O46 Y3 2.355171 1_645
O47 P11 1.545752 1_555
O47 Y3 2.294075 1_545
O48 P5 1.538221 1_545
O48 Y4 2.261437 1_555
O49 P3 1.543854 1_555
O49 Y4 2.260605 1_555
O50 P4 1.558924 1_655
O50 Y4 2.325394 1_555
O51 P1 1.553461 1_555
O51 Y5 2.274569 1_555
O52 P2 1.553907 1_655
O52 Y5 2.273557 1_555
O53 P0 1.552009 1_545
O53 Y5 2.245478 1_555
O54 P12 1.583692 1_555
O54 Ti0 2.010800 1_555
O55 P13 1.581307 1_655
O55 Ti0 2.014785 1_555
O56 P14 1.565269 1_545
O56 Ti0 2.046262 1_555
O57 P15 1.562000 1_545
O57 Ti1 1.966958 1_555
O58 P16 1.560254 1_555
O58 Ti1 1.949412 1_555
O59 P17 1.562095 1_655
O59 Ti1 1.963647 1_555
O60 P11 1.551664 1_555
O60 Y6 2.281694 1_555
O61 P9 1.535640 1_455
O61 Y6 2.254912 1_555
O62 P10 1.539122 1_565
O62 Y6 2.253505 1_555
O63 P7 1.552119 1_565
O63 Y7 2.280853 1_555
O64 P8 1.542477 1_555
O64 Y7 2.258719 1_555
O65 P6 1.540424 1_455
O65 Y7 2.257556 1_555
O66 P0 1.553693 1_555
O66 Y8 2.341978 1_555
O67 P1 1.554634 1_555
O67 Y8 2.364047 1_555
O68 P2 1.555616 1_555
O68 Y8 2.364603 1_555
O69 P3 1.579750 1_555
O69 Ti2 2.104554 1_555
O70 P4 1.577865 1_555
O70 Ti2 2.039881 1_555
O71 P5 1.574868 1_555
O71 Ti2 2.056069 1_555
