# generated using pymatgen
data_Na8Y3NbSi4(PO12)2
_symmetry_space_group_name_H-M   'P 1'
_cell_length_a   9.40321709
_cell_length_b   9.40777973
_cell_length_c   22.91561693
_cell_angle_alpha   90.15369767
_cell_angle_beta   89.98784873
_cell_angle_gamma   119.97452998
_symmetry_Int_Tables_number   1
_chemical_formula_structural   Na8Y3NbSi4(PO12)2
_chemical_formula_sum   'Na24 Y9 Nb3 Si12 P6 O72'
_cell_volume   1756.04347227
_cell_formula_units_Z   3
loop_
 _symmetry_equiv_pos_site_id
 _symmetry_equiv_pos_as_xyz
  1  'x, y, z'
loop_
 _atom_site_type_symbol
 _atom_site_label
 _atom_site_symmetry_multiplicity
 _atom_site_fract_x
 _atom_site_fract_y
 _atom_site_fract_z
 _atom_site_occupancy
  Na  Na0  1  0.63182912  0.99759176  0.25578087  1
  Na  Na1  1  0.36713937  0.36831514  0.25260491  1
  Na  Na2  1  0.00176045  0.63228129  0.25261172  1
  Na  Na3  1  0.63858895  0.63700521  0.74181456  1
  Na  Na4  1  0.99521834  0.35475358  0.74415365  1
  Na  Na5  1  0.36629152  0.00851521  0.74976941  1
  Na  Na6  1  0.29774060  0.34108118  0.58256802  1
  Na  Na7  1  0.03574155  0.69800257  0.57947048  1
  Na  Na8  1  0.66592719  0.95786685  0.57965891  1
  Na  Na9  1  0.29370766  0.95799871  0.07777743  1
  Na  Na10  1  0.65975592  0.69614090  0.08046882  1
  Na  Na11  1  0.04388017  0.34376717  0.08045555  1
  Na  Na12  1  0.97682846  0.67917060  0.91487411  1
  Na  Na13  1  0.70659268  0.03118495  0.91242802  1
  Na  Na14  1  0.31890900  0.29118314  0.91219204  1
  Na  Na15  1  0.97882335  0.30315882  0.41869560  1
  Na  Na16  1  0.33000567  0.02606489  0.41924610  1
  Na  Na17  1  0.69439691  0.67447960  0.41842812  1
  Na  Na18  1  0.99554457  0.99897877  0.49931412  1
  Na  Na19  1  0.00465652  -0.00001143  0.99699376  1
  Na  Na20  1  0.66044411  0.32512303  0.82862751  1
  Na  Na21  1  0.66437784  0.33109843  0.33740860  1
  Na  Na22  1  0.32667655  0.65935511  0.16530207  1
  Na  Na23  1  0.33385602  0.65882954  0.66108866  1
  Y  Y0  1  0.00029801  0.99993392  0.35119820  1
  Y  Y1  1  0.00040027  0.00291293  0.84857583  1
  Y  Y2  1  0.99433073  0.00298101  0.64946646  1
  Y  Y3  1  0.00239078  0.99922647  0.14531932  1
  Y  Y4  1  0.66630076  0.33408030  0.68334991  1
  Y  Y5  1  0.66747729  0.33604776  0.18234880  1
  Y  Y6  1  0.33181394  0.66495385  0.01552969  1
  Y  Y7  1  0.33380018  0.66471657  0.51457161  1
  Y  Y8  1  0.33343009  0.66562675  0.32251217  1
  Nb  Nb0  1  0.66475036  0.33777402  0.97883773  1
  Nb  Nb1  1  0.67300605  0.33903009  0.48246221  1
  Nb  Nb2  1  0.33679296  0.66529821  0.81848452  1
  Si  Si0  1  0.30274032  0.30862995  0.75246834  1
  Si  Si1  1  0.68904756  0.99261530  0.75264636  1
  Si  Si2  1  0.96361209  0.33324218  0.58434046  1
  Si  Si3  1  0.66868333  0.63164888  0.58430652  1
  Si  Si4  1  0.96065310  0.62823238  0.08245154  1
  Si  Si5  1  0.37108319  0.33262423  0.08258457  1
  Si  Si6  1  0.62987868  0.66241250  0.91911693  1
  Si  Si7  1  0.03192121  0.37137021  0.91821088  1
  Si  Si8  1  0.33852271  0.96637609  0.91894005  1
  Si  Si9  1  0.63614715  0.97653054  0.41769096  1
  Si  Si10  1  0.34021983  0.36277898  0.41742195  1
  Si  Si11  1  0.02557260  0.66195372  0.41779504  1
  P  P0  1  0.30064683  0.99564990  0.24895115  1
  P  P1  1  0.69642665  0.70007394  0.24877466  1
  P  P2  1  0.00246931  0.30230094  0.24887823  1
  P  P3  1  0.01026671  0.70061543  0.75215650  1
  P  P4  1  0.37347050  0.04188271  0.58219621  1
  P  P5  1  0.66864972  0.04522821  0.08081334  1
  O  O0  1  0.21586007  0.01512756  0.30313638  1
  O  O1  1  0.79952811  0.78614020  0.30308677  1
  O  O2  1  0.98667484  0.19990916  0.30307275  1
  O  O3  1  0.22188749  0.19600560  0.80952936  1
  O  O4  1  0.98328539  0.77960908  0.80660114  1
  O  O5  1  0.80004547  0.02049985  0.80992767  1
  O  O6  1  0.76686200  0.95232249  0.69520155  1
  O  O7  1  0.18657161  0.22898194  0.69476406  1
  O  O8  1  0.03868728  0.80831898  0.69773334  1
  O  O9  1  0.78295605  0.80191997  0.19353450  1
  O  O10  1  0.01730766  0.21554263  0.19336749  1
  O  O11  1  0.19791258  0.98060842  0.19370518  1
  O  O12  1  0.88207151  0.35134450  0.64379276  1
  O  O13  1  0.46913013  0.11782383  0.63885754  1
  O  O14  1  0.64451033  0.52941350  0.64347642  1
  O  O15  1  0.88116870  0.52337063  0.14089795  1
  O  O16  1  0.64824820  0.12133368  0.13711099  1
  O  O17  1  0.47298573  0.35061557  0.14123285  1
  O  O18  1  0.48304484  0.31794497  0.02595275  1
  O  O19  1  0.83511914  0.51385113  0.02585523  1
  O  O20  1  0.68225091  0.15698414  0.02730159  1
  O  O21  1  0.47258693  0.15302842  0.52920879  1
  O  O22  1  0.67560968  0.51470227  0.52888973  1
  O  O23  1  0.83846466  0.32138102  0.52874471  1
  O  O24  1  0.55746397  0.69527901  0.97741592  1
  O  O25  1  0.13824200  0.44637860  0.97652040  1
  O  O26  1  0.30874025  0.86285476  0.97756585  1
  O  O27  1  0.55466091  0.85823009  0.47337011  1
  O  O28  1  0.30288416  0.44530388  0.47295396  1
  O  O29  1  0.14147996  0.69744711  0.47410596  1
  O  O30  1  0.09952772  0.62079054  0.35958288  1
  O  O31  1  0.52221979  0.90050417  0.35904289  1
  O  O32  1  0.38062486  0.47762079  0.35911757  1
  O  O33  1  0.13662086  0.50061057  0.86311921  1
  O  O34  1  0.36096267  0.86072350  0.86352411  1
  O  O35  1  0.49902688  0.63757067  0.86400391  1
  O  O36  1  0.99087337  0.81394751  0.41212582  1
  O  O37  1  0.82235520  0.00841427  0.41198253  1
  O  O38  1  0.18487601  0.17733144  0.41203014  1
  O  O39  1  0.00334408  0.18751122  0.91135211  1
  O  O40  1  0.18342293  0.99457656  0.91123412  1
  O  O41  1  0.81493078  0.81071992  0.91008045  1
  O  O42  1  0.97029448  0.16280346  0.58079862  1
  O  O43  1  0.20459005  0.03251765  0.58278166  1
  O  O44  1  0.84334252  0.80420643  0.58104755  1
  O  O45  1  0.96023582  0.80191869  0.07959353  1
  O  O46  1  0.82906313  0.03674655  0.08126894  1
  O  O47  1  0.19327459  0.16309665  0.07935388  1
  O  O48  1  0.66002602  0.14928591  0.74863200  1
  O  O49  1  0.49017220  0.34210595  0.74936119  1
  O  O50  1  0.86045166  0.52561041  0.74761414  1
  O  O51  1  0.67854531  0.52616864  0.24781872  1
  O  O52  1  0.84579948  0.31889371  0.24804843  1
  O  O53  1  0.47568286  0.14938590  0.24735086  1
  O  O54  1  0.63216620  0.48509265  0.92232489  1
  O  O55  1  0.85041237  0.36328168  0.92205493  1
  O  O56  1  0.51387864  0.14693234  0.92257364  1
  O  O57  1  0.64835228  0.15827533  0.42723321  1
  O  O58  1  0.50739603  0.34674978  0.42720695  1
  O  O59  1  0.84168864  0.49200889  0.42681593  1
  O  O60  1  0.35514796  0.49655963  0.07979304  1
  O  O61  1  0.14451835  0.65406990  0.07931574  1
  O  O62  1  0.51753183  0.87235314  0.07694101  1
  O  O63  1  0.35388870  0.86955820  0.57765784  1
  O  O64  1  0.50918063  0.65554043  0.57970002  1
  O  O65  1  0.14361699  0.49750302  0.58001663  1
  O  O66  1  0.31392705  0.83746803  0.25115144  1
  O  O67  1  0.52376269  0.68430468  0.25101684  1
  O  O68  1  0.15935374  0.47497660  0.25103670  1
  O  O69  1  0.31157103  0.49138169  0.76190155  1
  O  O70  1  0.16969042  0.68748523  0.75943784  1
  O  O71  1  0.50391714  0.82244172  0.76190966  1
loop_
_geom_bond_atom_site_label_1
_geom_bond_atom_site_label_2
_geom_bond_distance
_geom_bond_site_symmetry_2
Na0 O53 2.515795 1_565
Na0 O31 2.562398 1_555
Na0 O66 2.591541 1_555
Na0 O67 2.595561 1_555
Na0 O52 2.672481 1_565
Na0 O16 2.934512 1_565
Na1 O51 2.539173 1_555
Na1 O67 2.575542 1_555
Na1 O68 2.604812 1_555
Na1 O32 2.624389 1_555
Na1 O53 2.719841 1_555
Na1 O17 2.773825 1_555
Na2 O52 2.555779 1_455
Na2 O68 2.564834 1_555
Na2 O66 2.584985 1_555
Na2 O30 2.639593 1_555
Na2 O51 2.685813 1_455
Na2 O15 2.777663 1_455
Na3 O49 2.410017 1_555
Na3 O14 2.479887 1_555
Na3 O71 2.657456 1_555
Na3 O69 2.708834 1_555
Na3 O50 2.766540 1_555
Na3 O6 2.799418 1_555
Na4 O50 2.496100 1_555
Na4 O12 2.527603 1_555
Na4 O69 2.616036 1_655
Na4 O70 2.734156 1_655
Na4 O48 2.755799 1_555
Na4 O7 2.835128 1_655
Na5 O48 2.393439 1_555
Na5 O70 2.648124 1_545
Na5 O71 2.661385 1_545
Na5 O13 2.733448 1_555
Na5 O49 2.748351 1_555
Na5 O8 2.941240 1_545
Na5 O34 2.946297 1_545
Na5 O3 3.034778 1_555
Na6 O65 2.529996 1_555
Na6 O43 2.579420 1_555
Na6 O64 2.613979 1_555
Na6 O42 2.671079 1_455
Na6 O28 2.690541 1_555
Na6 O7 2.779752 1_555
Na7 O44 2.465500 1_455
Na7 O65 2.549335 1_555
Na7 O63 2.594609 1_555
Na7 O29 2.611992 1_555
Na7 O43 2.726993 1_565
Na7 O8 2.894571 1_555
Na8 O64 2.464370 1_555
Na8 O42 2.528854 1_565
Na8 O63 2.620248 1_555
Na8 O27 2.629577 1_555
Na8 O44 2.698888 1_555
Na8 O6 2.822284 1_555
Na9 O61 2.477347 1_555
Na9 O26 2.491974 1_554
Na9 O47 2.537055 1_565
Na9 O62 2.602614 1_555
Na9 O45 2.718446 1_455
Na9 O11 2.846287 1_555
Na10 O45 2.482849 1_555
Na10 O60 2.521076 1_555
Na10 O24 2.548551 1_554
Na10 O62 2.599877 1_555
Na10 O46 2.775775 1_565
Na10 O9 2.807309 1_555
Na11 O60 2.535623 1_555
Na11 O25 2.558793 1_554
Na11 O46 2.567820 1_455
Na11 O61 2.580359 1_555
Na11 O47 2.692345 1_555
Na11 O10 2.815631 1_555
Na12 O41 2.396803 1_555
Na12 O55 2.597001 1_555
Na12 O40 2.612828 1_655
Na12 O4 2.647221 1_555
Na12 O54 2.820473 1_555
Na13 O39 2.418564 1_655
Na13 O5 2.526971 1_555
Na13 O56 2.548305 1_555
Na13 O55 2.722730 1_555
Na13 O41 2.730057 1_545
Na13 O20 2.938754 1_556
Na14 O40 2.420203 1_545
Na14 O3 2.518342 1_555
Na14 O54 2.585946 1_555
Na14 O39 2.620057 1_555
Na14 O56 2.783415 1_555
Na15 O37 2.408010 1_555
Na15 O59 2.672331 1_555
Na15 O57 2.705820 1_555
Na15 O38 2.733034 1_655
Na15 O2 2.833188 1_555
Na15 O23 2.890219 1_555
Na15 O28 2.922437 1_655
Na15 O30 2.946969 1_655
Na16 O38 2.420082 1_555
Na16 O57 2.611524 1_555
Na16 O58 2.624158 1_555
Na16 O36 2.796041 1_445
Na16 O21 2.821178 1_555
Na16 O0 2.851576 1_555
Na16 O31 2.947713 1_545
Na16 O29 2.970587 1_545
Na17 O36 2.420790 1_555
Na17 O58 2.687836 1_555
Na17 O59 2.698095 1_555
Na17 O37 2.750348 1_565
Na17 O1 2.836012 1_555
Na17 O22 2.907406 1_555
Na17 O32 2.917286 1_555
Na17 O27 2.925290 1_555
Na18 O42 2.503691 1_565
Na18 O44 2.512120 1_555
Na18 O37 2.609948 1_565
Na18 O36 2.632291 1_555
Na18 O43 2.645864 1_665
Na18 O38 2.648993 1_665
Na19 O47 2.515706 1_556
Na19 O45 2.543690 1_446
Na19 O40 2.602694 1_545
Na19 O39 2.646568 1_555
Na19 O41 2.669895 1_445
Na19 O46 2.672278 1_456
Na20 O48 2.464584 1_555
Na20 O49 2.479296 1_555
Na20 O50 2.648366 1_555
Na20 O56 2.655910 1_555
Na20 O55 2.694470 1_555
Na20 O54 2.707042 1_555
Na21 O58 2.578643 1_555
Na21 O57 2.583826 1_555
Na21 O59 2.594601 1_555
Na21 O53 2.698406 1_555
Na21 O52 2.703641 1_555
Na21 O51 2.715928 1_555
Na22 O68 2.575679 1_555
Na22 O60 2.578818 1_555
Na22 O61 2.595150 1_555
Na22 O66 2.622088 1_555
Na22 O67 2.629092 1_555
Na22 O62 2.786209 1_555
Na23 O65 2.495668 1_555
Na23 O64 2.499348 1_555
Na23 O63 2.695925 1_555
Na23 O69 2.748083 1_555
Na23 O71 2.790559 1_555
Na23 O70 2.818874 1_555
Nb0 O18 1.949785 1_556
Nb0 O19 1.952118 1_556
Nb0 O54 2.031237 1_555
Nb0 O56 2.083672 1_555
Nb0 O55 2.093016 1_555
Nb0 O20 2.107886 1_556
Nb1 O22 1.952954 1_555
Nb1 O23 1.957766 1_555
Nb1 O59 1.985242 1_555
Nb1 O57 2.035158 1_555
Nb1 O58 2.036658 1_555
Nb1 O21 2.115462 1_555
Nb2 O35 1.970557 1_555
Nb2 O69 2.003885 1_555
Nb2 O71 2.005973 1_555
Nb2 O34 2.017287 1_555
Nb2 O33 2.020698 1_555
Nb2 O70 2.161841 1_555
O0 P0 1.534713 1_545
O0 Y0 2.247768 1_545
O1 P1 1.534681 1_555
O1 Y0 2.240492 1_655
O2 P2 1.534818 1_655
O2 Y0 2.241431 1_645
O3 Si0 1.616332 1_555
O3 Y1 2.160011 1_555
O4 P3 1.535099 1_655
O4 Y1 2.239605 1_665
O5 Si1 1.614422 1_545
O5 Y1 2.161964 1_655
O6 Si1 1.638907 1_555
O6 Y2 2.209914 1_565
O7 Si0 1.637279 1_555
O7 Y2 2.239257 1_455
O8 P3 1.545806 1_555
O8 Y2 2.350630 1_465
O9 P1 1.552274 1_555
O9 Y3 2.259817 1_655
O10 P2 1.553045 1_555
O10 Y3 2.253055 1_545
O11 P0 1.555297 1_555
O11 Y3 2.228002 1_555
O12 Si2 1.613005 1_555
O12 Y4 2.152998 1_555
O13 P4 1.535847 1_555
O13 Y4 2.199248 1_555
O14 Si3 1.613585 1_555
O14 Y4 2.153875 1_555
O15 Si4 1.611073 1_555
O15 Y5 2.124932 1_555
O16 P5 1.531656 1_555
O16 Y5 2.193526 1_555
O17 Si5 1.609446 1_555
O17 Y5 2.122045 1_555
O18 Si5 1.719116 1_555
O19 Si4 1.719681 1_555
O20 P5 1.580486 1_555
O21 P4 1.571278 1_555
O22 Si3 1.700424 1_555
O23 Si2 1.699719 1_555
O24 Si6 1.597446 1_555
O24 Y6 2.177632 1_556
O25 Si7 1.604201 1_555
O25 Y6 2.142765 1_556
O26 Si8 1.601904 1_555
O26 Y6 2.163944 1_556
O27 Si9 1.615185 1_555
O27 Y7 2.179287 1_555
O28 Si10 1.616250 1_555
O28 Y7 2.155191 1_555
O29 Si11 1.612187 1_555
O29 Y7 2.187184 1_555
O30 Si11 1.636756 1_555
O30 Y8 2.193442 1_555
O31 Si9 1.641723 1_555
O31 Y8 2.192243 1_555
O32 Si10 1.641372 1_555
O32 Y8 2.195767 1_555
O33 Si7 1.689080 1_555
O34 Si8 1.687537 1_555
O35 Si6 1.695686 1_555
O36 Si11 1.623342 1_655
O36 Y0 2.208357 1_655
O37 Si9 1.627341 1_545
O37 Y0 2.208639 1_645
O38 Si10 1.626414 1_555
O38 Y0 2.198882 1_545
O39 Si7 1.619539 1_555
O39 Y1 2.241602 1_555
O40 Si8 1.617281 1_555
O40 Y1 2.272926 1_565
O41 Si6 1.610250 1_555
O41 Y1 2.271339 1_665
O42 Si2 1.637548 1_555
O42 Y2 2.267233 1_555
O43 P4 1.545944 1_555
O43 Y2 2.402787 1_455
O44 Si3 1.635471 1_555
O44 Y2 2.302866 1_565
O45 Si4 1.637452 1_555
O45 Y3 2.263010 1_655
O46 P5 1.549849 1_555
O46 Y3 2.348174 1_645
O47 Si5 1.636915 1_555
O47 Y3 2.264912 1_545
O48 Si1 1.630349 1_545
O48 Y4 2.274918 1_555
O49 Si0 1.629712 1_555
O49 Y4 2.271590 1_555
O50 P3 1.545191 1_655
O50 Y4 2.334157 1_555
O51 P1 1.558969 1_555
O51 Y5 2.293576 1_555
O52 P2 1.557199 1_655
O52 Y5 2.318869 1_555
O53 P0 1.556844 1_545
O53 Y5 2.324528 1_555
O54 Si6 1.680841 1_555
O55 Si7 1.672363 1_655
O56 Si8 1.676829 1_545
O57 Si9 1.669245 1_545
O58 Si10 1.667750 1_555
O59 Si11 1.681652 1_655
O60 Si5 1.623758 1_555
O60 Y6 2.255332 1_555
O61 Si4 1.622818 1_455
O61 Y6 2.251292 1_555
O62 P5 1.536937 1_565
O62 Y6 2.327817 1_555
O63 P4 1.540715 1_565
O63 Y7 2.336830 1_555
O64 Si3 1.627337 1_555
O64 Y7 2.257994 1_555
O65 Si2 1.627864 1_455
O65 Y7 2.263270 1_555
O66 P0 1.555247 1_555
O66 Y8 2.373154 1_555
O67 P1 1.555648 1_555
O67 Y8 2.367344 1_555
O68 P2 1.556489 1_555
O68 Y8 2.372936 1_555
O69 Si0 1.692612 1_555
O70 P3 1.573416 1_555
O71 Si1 1.689797 1_555
