# generated using pymatgen
data_MgAg2(SbO3)2
_symmetry_space_group_name_H-M   'P 1'
_cell_length_a   6.18940674
_cell_length_b   6.18940798
_cell_length_c   6.18945528
_cell_angle_alpha   55.98800746
_cell_angle_beta   55.98787428
_cell_angle_gamma   55.98957143
_symmetry_Int_Tables_number   1
_chemical_formula_structural   MgAg2(SbO3)2
_chemical_formula_sum   'Mg1 Ag2 Sb2 O6'
_cell_volume   152.07983845
_cell_formula_units_Z   1
loop_
 _symmetry_equiv_pos_site_id
 _symmetry_equiv_pos_as_xyz
  1  'x, y, z'
loop_
 _atom_site_type_symbol
 _atom_site_label
 _atom_site_symmetry_multiplicity
 _atom_site_fract_x
 _atom_site_fract_y
 _atom_site_fract_z
 _atom_site_occupancy
  Mg  Mg0  1  0.00000000  0.00000000  0.00000000  1
  Ag  Ag0  1  0.40316000  0.40318300  0.40317100  1
  Ag  Ag1  1  0.59684000  0.59681700  0.59682900  1
  Sb  Sb0  1  0.18948100  0.18948500  0.18948700  1
  Sb  Sb1  1  0.81051900  0.81051400  0.81051300  1
  O  O0  1  0.84216400  0.38099600  0.05865200  1
  O  O1  1  0.61899400  0.94135200  0.15784400  1
  O  O2  1  0.94135500  0.15784200  0.61899200  1
  O  O3  1  0.05864500  0.84215900  0.38100700  1
  O  O4  1  0.38100700  0.05864800  0.84215600  1
  O  O5  1  0.15783600  0.61900300  0.94134800  1
loop_
_geom_bond_atom_site_label_1
_geom_bond_atom_site_label_2
_geom_bond_distance
_geom_bond_site_symmetry_2
Mg0 O1 2.151924 1_445
Mg0 O4 2.151930 1_554
Mg0 O0 2.151930 1_455
Mg0 O5 2.151936 1_544
Mg0 O3 2.151959 1_545
Mg0 O2 2.151964 1_454
Ag0 O3 2.318808 1_555
Ag0 O4 2.318839 1_555
Ag0 O0 2.318859 1_555
Ag1 O2 2.318805 1_555
Ag1 O1 2.318838 1_555
Ag1 O5 2.318859 1_555
O0 Sb1 2.156588 1_554
O0 Sb0 2.169117 1_655
O1 Sb0 2.156598 1_565
O1 Sb1 2.169178 1_554
O2 Sb0 2.156524 1_655
O2 Sb1 2.169116 1_545
O3 Sb1 2.156526 1_455
O3 Sb0 2.169106 1_565
O4 Sb1 2.156594 1_545
O4 Sb0 2.169173 1_556
O5 Sb0 2.156588 1_556
O5 Sb1 2.169117 1_455
