# generated using pymatgen
data_ZrFeP
_symmetry_space_group_name_H-M   'P 1'
_cell_length_a   3.74744727
_cell_length_b   6.30495478
_cell_length_c   7.00323895
_cell_angle_alpha   90.00113025
_cell_angle_beta   89.99999937
_cell_angle_gamma   90.00000125
_symmetry_Int_Tables_number   1
_chemical_formula_structural   ZrFeP
_chemical_formula_sum   'Zr4 Fe4 P4'
_cell_volume   165.46892727
_cell_formula_units_Z   4
loop_
 _symmetry_equiv_pos_site_id
 _symmetry_equiv_pos_as_xyz
  1  'x, y, z'
loop_
 _atom_site_type_symbol
 _atom_site_label
 _atom_site_symmetry_multiplicity
 _atom_site_fract_x
 _atom_site_fract_y
 _atom_site_fract_z
 _atom_site_occupancy
  Zr  Zr0  1  0.25000003  0.51228008  0.31241465  1
  Zr  Zr1  1  0.75000006  0.48773254  0.68759130  1
  Zr  Zr2  1  0.24999997  0.01226553  0.18750475  1
  Zr  Zr3  1  0.74999998  0.98769527  0.81248893  1
  Fe  Fe0  1  0.75000000  0.85532925  0.43710951  1
  Fe  Fe1  1  0.25000000  0.14473149  0.56293437  1
  Fe  Fe2  1  0.74999994  0.35526096  0.06291628  1
  Fe  Fe3  1  0.25000002  0.64471697  0.93704742  1
  P  P0  1  0.24999998  0.28394403  0.89046505  1
  P  P1  1  0.75000002  0.71605260  0.10952196  1
  P  P2  1  0.25000000  0.78392848  0.60955173  1
  P  P3  1  0.74999999  0.21606280  0.39045405  1
loop_
_geom_bond_atom_site_label_1
_geom_bond_atom_site_label_2
_geom_bond_distance
_geom_bond_site_symmetry_2
Fe0 P2 2.274192 1_555
Fe0 P2 2.274192 1_655
Fe0 P3 2.297765 1_565
Fe0 P1 2.456476 1_555
Fe0 Zr2 2.746929 1_665
Fe0 Zr2 2.746930 1_565
Fe0 Zr3 2.758147 1_555
Fe0 Zr1 2.906710 1_555
Fe0 Zr0 2.991912 1_555
Fe0 Zr0 2.991913 1_655
Fe1 P3 2.274247 1_555
Fe1 P3 2.274247 1_455
Fe1 P2 2.298160 1_545
Fe1 P0 2.455959 1_555
Fe1 Zr3 2.746933 1_545
Fe1 Zr3 2.746933 1_445
Fe1 Zr2 2.758673 1_555
Fe1 Zr0 2.906629 1_555
Fe1 Zr1 2.991615 1_455
Fe1 Zr1 2.991616 1_555
Fe2 P0 2.274112 1_554
Fe2 P0 2.274112 1_654
Fe2 P1 2.298065 1_555
Fe2 P3 2.456005 1_555
Fe2 Zr0 2.746619 1_555
Fe2 Zr0 2.746619 1_655
Fe2 Zr1 2.758016 1_554
Fe2 Zr3 2.906269 1_544
Fe2 Zr2 2.991475 1_555
Fe2 Zr2 2.991475 1_655
Fe3 P1 2.274222 1_456
Fe3 P1 2.274222 1_556
Fe3 P0 2.297925 1_555
Fe3 P2 2.455760 1_555
Fe3 Zr1 2.746352 1_455
Fe3 Zr1 2.746352 1_555
Fe3 Zr0 2.758232 1_556
Fe3 Zr2 2.906310 1_566
Fe3 Zr3 2.991336 1_555
Fe3 Zr3 2.991336 1_455
P0 Zr1 2.679630 1_455
P0 Zr1 2.679631 1_555
P0 Zr2 2.694742 1_556
P0 Zr3 2.701447 1_445
P0 Zr3 2.701447 1_545
P1 Zr0 2.679652 1_555
P1 Zr0 2.679652 1_655
P1 Zr3 2.694563 1_554
P1 Zr2 2.701300 1_665
P1 Zr2 2.701301 1_565
P2 Zr3 2.679773 1_555
P2 Zr3 2.679774 1_455
P2 Zr0 2.695096 1_555
P2 Zr1 2.701322 1_455
P2 Zr1 2.701322 1_555
P3 Zr2 2.679911 1_655
P3 Zr2 2.679911 1_555
P3 Zr1 2.695182 1_555
P3 Zr0 2.701414 1_555
P3 Zr0 2.701415 1_655
