# generated using pymatgen
data_ThI2
_symmetry_space_group_name_H-M   'P 1'
_cell_length_a   3.98364160
_cell_length_b   3.98364215
_cell_length_c   32.96039990
_cell_angle_alpha   90.00000000
_cell_angle_beta   90.00000000
_cell_angle_gamma   120.00000455
_symmetry_Int_Tables_number   1
_chemical_formula_structural   ThI2
_chemical_formula_sum   'Th4 I8'
_cell_volume   452.98483340
_cell_formula_units_Z   4
loop_
 _symmetry_equiv_pos_site_id
 _symmetry_equiv_pos_as_xyz
  1  'x, y, z'
loop_
 _atom_site_type_symbol
 _atom_site_label
 _atom_site_symmetry_multiplicity
 _atom_site_fract_x
 _atom_site_fract_y
 _atom_site_fract_z
 _atom_site_occupancy
  Th  Th0  1  0.66666700  0.33333300  0.75000000  1
  Th  Th1  1  0.33333300  0.66666700  0.25000000  1
  Th  Th2  1  0.00000000  -0.00000000  0.50000000  1
  Th  Th3  1  0.00000000  -0.00000000  0.00000000  1
  I  I0  1  0.33333300  0.66666700  0.43063754  1
  I  I1  1  0.66666700  0.33333300  0.93063754  1
  I  I2  1  0.66666700  0.33333300  0.56936246  1
  I  I3  1  0.33333300  0.66666700  0.06936246  1
  I  I4  1  0.00000000  -0.00000000  0.18158671  1
  I  I5  1  0.00000000  0.00000000  0.68158671  1
  I  I6  1  0.00000000  -0.00000000  0.81841329  1
  I  I7  1  0.00000000  -0.00000000  0.31841329  1
loop_
_geom_bond_atom_site_label_1
_geom_bond_atom_site_label_2
_geom_bond_distance
_geom_bond_site_symmetry_2
I0 Th2 3.242926 1_565
I0 Th2 3.242928 1_665
I0 Th2 3.242928 1_555
I1 Th3 3.242926 1_656
I1 Th3 3.242928 1_556
I1 Th3 3.242928 1_666
I2 Th2 3.242926 1_655
I2 Th2 3.242928 1_555
I2 Th2 3.242928 1_665
I3 Th3 3.242926 1_565
I3 Th3 3.242928 1_665
I3 Th3 3.242928 1_555
I4 Th1 3.220947 1_545
I4 Th1 3.220949 1_445
I4 Th1 3.220949 1_555
I5 Th0 3.220947 1_455
I5 Th0 3.220949 1_555
I5 Th0 3.220949 1_445
I6 Th0 3.220947 1_455
I6 Th0 3.220949 1_555
I6 Th0 3.220949 1_445
I7 Th1 3.220947 1_545
I7 Th1 3.220949 1_445
I7 Th1 3.220949 1_555
