# generated using pymatgen
data_MgTi8(NiO3)8
_symmetry_space_group_name_H-M   'P 1'
_cell_length_a   5.58204162
_cell_length_b   11.14796776
_cell_length_c   11.09818333
_cell_angle_alpha   54.91036153
_cell_angle_beta   54.88984598
_cell_angle_gamma   54.52082085
_symmetry_Int_Tables_number   1
_chemical_formula_structural   MgTi8(NiO3)8
_chemical_formula_sum   'Mg1 Ti8 Ni8 O24'
_cell_volume   428.89159274
_cell_formula_units_Z   1
loop_
 _symmetry_equiv_pos_site_id
 _symmetry_equiv_pos_as_xyz
  1  'x, y, z'
loop_
 _atom_site_type_symbol
 _atom_site_label
 _atom_site_symmetry_multiplicity
 _atom_site_fract_x
 _atom_site_fract_y
 _atom_site_fract_z
 _atom_site_occupancy
  Mg  Mg0  1  0.79881600  0.39852900  0.40078800  1
  Ti  Ti0  1  0.34963600  0.17862800  0.16733200  1
  Ti  Ti1  1  0.12677400  0.06503900  0.57935300  1
  Ti  Ti2  1  0.14654300  0.58770000  0.05815200  1
  Ti  Ti3  1  0.16222400  0.58584800  0.58267400  1
  Ti  Ti4  1  0.00626800  0.48869200  0.49012000  1
  Ti  Ti5  1  0.85223900  0.42276700  0.92551100  1
  Ti  Ti6  1  0.87052700  0.93073900  0.41001000  1
  Ti  Ti7  1  0.81565100  0.93569900  0.92803700  1
  Ni  Ni0  1  0.14478200  0.06605600  0.07176000  1
  Ni  Ni1  1  0.34500700  0.67951800  0.16878400  1
  Ni  Ni2  1  0.35974100  0.15715100  0.67524100  1
  Ni  Ni3  1  0.53409000  0.28594200  0.27494100  1
  Ni  Ni4  1  0.35126300  0.67948100  0.67886400  1
  Ni  Ni5  1  0.64285500  0.32082600  0.82412200  1
  Ni  Ni6  1  0.65349300  0.82415200  0.32084700  1
  Ni  Ni7  1  0.63947200  0.82479900  0.82191300  1
  O  O0  1  0.12349700  0.37186100  0.19637700  1
  O  O1  1  0.42413400  0.03881000  0.36793000  1
  O  O2  1  0.72842600  0.22013400  0.02654700  1
  O  O3  1  0.18655600  0.28235500  0.48640400  1
  O  O4  1  0.57451800  0.48551100  0.09611100  1
  O  O5  1  0.05083700  0.38617200  0.70804700  1
  O  O6  1  0.03737500  0.87177300  0.23164700  1
  O  O7  1  0.96196200  0.11346600  0.27602100  1
  O  O8  1  0.45557500  0.01501700  0.87640500  1
  O  O9  1  0.38197000  0.53721300  0.38752500  1
  O  O10  1  0.76595700  0.19098500  0.54137900  1
  O  O11  1  0.76408100  0.71562000  0.03006300  1
  O  O12  1  0.22689400  0.28016900  0.97278700  1
  O  O13  1  0.22867900  0.78746200  0.47161600  1
  O  O14  1  0.57287500  0.47624800  0.61100400  1
  O  O15  1  0.56605400  0.97440600  0.11597300  1
  O  O16  1  0.04875800  0.87882200  0.71996100  1
  O  O17  1  0.94516400  0.10793300  0.78199300  1
  O  O18  1  0.94515400  0.60096800  0.28888800  1
  O  O19  1  0.43730100  0.52709200  0.88041800  1
  O  O20  1  0.77278100  0.70559100  0.52631100  1
  O  O21  1  0.21858700  0.77908100  0.97070500  1
  O  O22  1  0.56094700  0.96484000  0.60513100  1
  O  O23  1  0.93685400  0.61405200  0.78565500  1
loop_
_geom_bond_atom_site_label_1
_geom_bond_atom_site_label_2
_geom_bond_distance
_geom_bond_site_symmetry_2
Mg0 O9 1.944882 1_555
Mg0 O10 1.958123 1_555
Mg0 O0 1.984956 1_655
Mg0 O3 2.227475 1_655
Mg0 O18 2.247971 1_555
Mg0 O14 2.335621 1_555
Ni0 O8 1.994960 1_554
Ni0 O6 2.015958 1_545
Ni0 O2 2.078507 1_455
Ni0 O7 2.133075 1_455
Ni0 O15 2.185499 1_545
Ni0 O12 2.188723 1_554
Ni1 O6 2.024311 1_555
Ni1 O9 2.054523 1_555
Ni1 O11 2.059664 1_555
Ni1 O4 2.137750 1_555
Ni1 O21 2.152328 1_554
Ni1 O18 2.242745 1_455
Ni2 O10 1.991115 1_555
Ni2 O8 2.025805 1_555
Ni2 O22 2.140236 1_545
Ni2 O17 2.152416 1_455
Ni2 O3 2.162400 1_555
Ni2 O5 2.204644 1_555
Ni3 O4 1.982581 1_555
Ni3 O3 2.004450 1_555
Ni3 O7 2.019208 1_555
Ni3 O0 2.391851 1_555
Ni4 O16 1.980209 1_555
Ni4 O19 2.009971 1_555
Ni4 O20 2.033099 1_555
Ni4 O14 2.206185 1_555
Ni4 O13 2.208758 1_555
Ni4 O23 2.258060 1_455
Ni5 O2 2.061025 1_556
Ni5 O12 2.067372 1_555
Ni5 O14 2.077119 1_555
Ni5 O17 2.101927 1_555
Ni5 O19 2.181461 1_555
Ni5 O5 2.201994 1_655
Ni6 O6 2.032184 1_655
Ni6 O15 2.040240 1_555
Ni6 O13 2.089286 1_555
Ni6 O18 2.148260 1_555
Ni6 O20 2.156349 1_555
Ni6 O1 2.179518 1_565
Ni7 O8 2.037073 1_565
Ni7 O23 2.056351 1_555
Ni7 O21 2.113270 1_555
Ni7 O22 2.125575 1_555
Ni7 O16 2.168583 1_655
Ni7 O11 2.221419 1_556
O0 Ti0 1.873900 1_555
O0 Ti2 2.011964 1_555
O1 Ti0 1.970197 1_555
O1 Ti1 2.022772 1_555
O1 Ti6 2.255101 1_545
O2 Ti0 1.905362 1_555
O2 Ti5 2.201469 1_554
O3 Ti4 1.918265 1_555
O3 Ti1 2.171141 1_555
O4 Ti5 1.834357 1_554
O4 Ti2 2.151554 1_555
O5 Ti3 2.080410 1_555
O5 Ti4 2.098035 1_555
O5 Ti5 2.179340 1_455
O6 Ti6 1.970436 1_455
O7 Ti6 1.863458 1_545
O7 Ti0 2.116685 1_655
O8 Ti7 1.956882 1_545
O9 Ti4 1.961923 1_555
O9 Ti3 2.002846 1_555
O10 Ti1 1.794152 1_655
O11 Ti2 1.846356 1_655
O11 Ti7 2.152967 1_554
O12 Ti5 1.902665 1_455
O12 Ti0 2.098545 1_556
O13 Ti6 1.904090 1_455
O13 Ti3 1.991310 1_555
O14 Ti3 1.995605 1_555
O14 Ti4 2.028278 1_655
O15 Ti7 1.863284 1_554
O15 Ti0 2.115356 1_565
O16 Ti1 1.864818 1_565
O16 Ti7 2.167286 1_455
O17 Ti7 1.876643 1_545
O17 Ti1 2.089311 1_655
O18 Ti4 1.958975 1_655
O18 Ti2 2.184982 1_655
O19 Ti2 1.886335 1_556
O19 Ti5 2.122514 1_555
O20 Ti3 2.033376 1_655
O20 Ti4 2.136080 1_655
O20 Ti6 2.306172 1_555
O21 Ti2 1.954972 1_556
O21 Ti7 2.011867 1_455
O22 Ti6 1.923390 1_555
O22 Ti1 2.119177 1_565
O23 Ti5 1.923545 1_555
O23 Ti3 1.962521 1_655
