# generated using pymatgen
data_Na8Ca2Ta2Si5SO24
_symmetry_space_group_name_H-M   'P 1'
_cell_length_a   9.37430611
_cell_length_b   9.34638486
_cell_length_c   22.66409276
_cell_angle_alpha   89.64314710
_cell_angle_beta   90.75290273
_cell_angle_gamma   120.01476664
_symmetry_Int_Tables_number   1
_chemical_formula_structural   Na8Ca2Ta2Si5SO24
_chemical_formula_sum   'Na24 Ca6 Ta6 Si15 S3 O72'
_cell_volume   1719.29178751
_cell_formula_units_Z   3
loop_
 _symmetry_equiv_pos_site_id
 _symmetry_equiv_pos_as_xyz
  1  'x, y, z'
loop_
 _atom_site_type_symbol
 _atom_site_label
 _atom_site_symmetry_multiplicity
 _atom_site_fract_x
 _atom_site_fract_y
 _atom_site_fract_z
 _atom_site_occupancy
  Na  Na0  1  0.65228896  0.03285236  0.24393622  1
  Na  Na1  1  0.36370358  0.33655392  0.25209289  1
  Na  Na2  1  0.98354252  0.62594170  0.24345657  1
  Na  Na3  1  0.62583345  0.64067897  0.76125621  1
  Na  Na4  1  0.01056425  0.37225496  0.76042190  1
  Na  Na5  1  0.36080978  0.98680595  0.75114340  1
  Na  Na6  1  0.29307105  0.35408439  0.57949439  1
  Na  Na7  1  0.05153939  0.70078814  0.58867180  1
  Na  Na8  1  0.64466199  0.94275558  0.57852392  1
  Na  Na9  1  0.32194601  0.96350646  0.08556394  1
  Na  Na10  1  0.66497770  0.70474478  0.06910363  1
  Na  Na11  1  0.02808584  0.35117612  0.07442603  1
  Na  Na12  1  0.98300151  0.67447551  0.89888826  1
  Na  Na13  1  0.71489230  0.00909422  0.90746424  1
  Na  Na14  1  0.32391964  0.31860667  0.90208217  1
  Na  Na15  1  0.97941249  0.28481373  0.40984708  1
  Na  Na16  1  0.32693744  0.03302321  0.40414482  1
  Na  Na17  1  0.69756924  0.68658186  0.41069058  1
  Na  Na18  1  0.00064302  0.01915286  0.49694971  1
  Na  Na19  1  0.98411543  0.99648580  0.99167135  1
  Na  Na20  1  0.67172105  0.34570070  0.82987833  1
  Na  Na21  1  0.66654567  0.33086541  0.32242568  1
  Na  Na22  1  0.33256230  0.68484869  0.15989079  1
  Na  Na23  1  0.33304579  0.66490511  0.67056704  1
  Ca  Ca0  1  0.99875788  0.00076834  0.34977813  1
  Ca  Ca1  1  0.99805912  0.99942020  0.84373970  1
  Ca  Ca2  1  0.67144267  0.33396231  0.18194849  1
  Ca  Ca3  1  0.33601254  0.66710069  0.01193876  1
  Ca  Ca4  1  0.33423206  0.66556220  0.52275870  1
  Ca  Ca5  1  0.33217572  0.65639468  0.81435909  1
  Ta  Ta0  1  0.99618760  -0.00001744  0.64644125  1
  Ta  Ta1  1  0.98841177  0.99348894  0.15390210  1
  Ta  Ta2  1  0.66708668  0.33442864  0.68455868  1
  Ta  Ta3  1  0.69216687  0.34449192  0.98544125  1
  Ta  Ta4  1  0.65280640  0.32403836  0.48156045  1
  Ta  Ta5  1  0.35246497  0.67248612  0.31139860  1
  Si  Si0  1  0.29189474  0.98912346  0.25356398  1
  Si  Si1  1  0.69719813  0.70127365  0.25449377  1
  Si  Si2  1  0.01184848  0.30608305  0.25376137  1
  Si  Si3  1  0.30170597  0.29182125  0.74700652  1
  Si  Si4  1  0.99456915  0.69923700  0.74643367  1
  Si  Si5  1  0.70430827  0.00673115  0.74679309  1
  Si  Si6  1  0.94436156  0.32110193  0.58312192  1
  Si  Si7  1  0.36537481  0.04917767  0.58475040  1
  Si  Si8  1  0.68019142  0.62805061  0.58242139  1
  Si  Si9  1  0.97286616  0.64897119  0.08914516  1
  Si  Si10  1  0.67163588  0.03260275  0.08897264  1
  Si  Si11  1  0.64238660  0.65831781  0.91984895  1
  Si  Si12  1  0.02635797  0.35940310  0.92012359  1
  Si  Si13  1  0.62625059  0.96964095  0.42109718  1
  Si  Si14  1  0.34129094  0.37469305  0.42028316  1
  S  S0  1  0.36005698  0.31913505  0.08447673  1
  S  S1  1  0.34712491  0.98636807  0.92019918  1
  S  S2  1  0.03205595  0.65156513  0.41694169  1
  O  O0  1  0.21817398  0.01389318  0.31260016  1
  O  O1  1  0.79750520  0.76610702  0.31423978  1
  O  O2  1  0.98297362  0.20440999  0.31300438  1
  O  O3  1  0.24578184  0.18681887  0.80704403  1
  O  O4  1  0.95194717  0.75910379  0.80626302  1
  O  O5  1  0.80788070  0.05059181  0.80729368  1
  O  O6  1  0.81898085  0.99347034  0.69122162  1
  O  O7  1  0.17215690  0.17533697  0.69137738  1
  O  O8  1  0.00320074  0.82489041  0.69018854  1
  O  O9  1  0.80577810  0.83591345  0.19796942  1
  O  O10  1  0.03169392  0.19386056  0.19645539  1
  O  O11  1  0.16112883  0.96996548  0.19534689  1
  O  O12  1  0.83817679  0.32871987  0.63819638  1
  O  O13  1  0.48674152  0.15648300  0.63888309  1
  O  O14  1  0.67255019  0.51089787  0.63746225  1
  O  O15  1  0.89303307  0.54731998  0.14736495  1
  O  O16  1  0.63865140  0.10201642  0.14794289  1
  O  O17  1  0.44952655  0.33737063  0.13973099  1
  O  O18  1  0.45255985  0.30470198  0.03319393  1
  O  O19  1  0.84154327  0.52873003  0.03208954  1
  O  O20  1  0.68806373  0.16566315  0.03346391  1
  O  O21  1  0.46714952  0.16825971  0.52467359  1
  O  O22  1  0.69743099  0.52646881  0.52347643  1
  O  O23  1  0.82472397  0.30228194  0.52345408  1
  O  O24  1  0.56109771  0.69026322  0.97691312  1
  O  O25  1  0.11994652  0.44332095  0.98091083  1
  O  O26  1  0.32766720  0.88727615  0.97394534  1
  O  O27  1  0.54241983  0.87181049  0.47994300  1
  O  O28  1  0.30923275  0.44829928  0.47852250  1
  O  O29  1  0.12342501  0.66945332  0.47171982  1
  O  O30  1  0.12230333  0.63945568  0.36443548  1
  O  O31  1  0.49820171  0.85979889  0.36183805  1
  O  O32  1  0.36340394  0.50692414  0.36177464  1
  O  O33  1  0.09167474  0.47658156  0.86197108  1
  O  O34  1  0.37433117  0.91176627  0.86722446  1
  O  O35  1  0.52901283  0.61583437  0.86011391  1
  O  O36  1  0.00366579  0.79263542  0.41264064  1
  O  O37  1  0.80927908  0.99500736  0.41651295  1
  O  O38  1  0.19497267  0.18562851  0.41406696  1
  O  O39  1  0.00294108  0.17609918  0.91639709  1
  O  O40  1  0.20183277  0.00717869  0.91492360  1
  O  O41  1  0.83286803  0.80730931  0.91672811  1
  O  O42  1  0.95707158  0.15006132  0.58623643  1
  O  O43  1  0.18603201  0.04283724  0.58609421  1
  O  O44  1  0.85098823  0.81140866  0.58538280  1
  O  O45  1  0.96918450  0.82686532  0.08994612  1
  O  O46  1  0.85597269  0.03927368  0.09173356  1
  O  O47  1  0.19538716  0.15995367  0.08541450  1
  O  O48  1  0.67704009  0.16828277  0.73681958  1
  O  O49  1  0.49186522  0.32424938  0.73635741  1
  O  O50  1  0.83412407  0.50859557  0.73724783  1
  O  O51  1  0.64509467  0.51323087  0.24275268  1
  O  O52  1  0.86086163  0.34068954  0.24603346  1
  O  O53  1  0.47504925  0.14282508  0.24530378  1
  O  O54  1  0.64265277  0.47676361  0.93268323  1
  O  O55  1  0.83154459  0.33629267  0.92835234  1
  O  O56  1  0.49941878  0.15496644  0.92758889  1
  O  O57  1  0.63094497  0.15401971  0.42025746  1
  O  O58  1  0.52509031  0.37924921  0.42134369  1
  O  O59  1  0.86819172  0.49212921  0.41713686  1
  O  O60  1  0.33312890  0.46107287  0.07825369  1
  O  O61  1  0.15649270  0.68083418  0.08027240  1
  O  O62  1  0.52289426  0.84545373  0.08007934  1
  O  O63  1  0.34279163  0.86772641  0.58499753  1
  O  O64  1  0.51874289  0.64568994  0.58521565  1
  O  O65  1  0.12276405  0.48427438  0.58462247  1
  O  O66  1  0.29029736  0.80767437  0.25704273  1
  O  O67  1  0.52431806  0.71579248  0.25610887  1
  O  O68  1  0.19332084  0.48509421  0.25703030  1
  O  O69  1  0.30505829  0.46586057  0.74396879  1
  O  O70  1  0.16397077  0.69488334  0.74365526  1
  O  O71  1  0.52740397  0.83991260  0.74469968  1
loop_
_geom_bond_atom_site_label_1
_geom_bond_atom_site_label_2
_geom_bond_distance
_geom_bond_site_symmetry_2
Na0 O16 2.285895 1_555
Na0 O53 2.351232 1_555
Na0 O52 2.544501 1_555
Na0 O67 2.595906 1_545
Na1 O51 2.319985 1_555
Na1 O53 2.508019 1_555
Na1 O68 2.591547 1_555
Na1 O17 2.679526 1_555
Na2 O15 2.313098 1_555
Na2 O52 2.316533 1_555
Na2 O66 2.519073 1_655
Na2 O51 2.798433 1_555
Na2 O68 2.874681 1_655
Na3 O35 2.394524 1_555
Na3 O71 2.482099 1_555
Na3 O69 2.631933 1_555
Na3 O49 2.632225 1_555
Na3 O50 2.842617 1_555
Na3 O4 2.856267 1_555
Na4 O33 2.462953 1_555
Na4 O69 2.476381 1_555
Na4 O50 2.590919 1_455
Na4 O70 2.639492 1_555
Na4 O48 2.775156 1_455
Na4 O5 2.841734 1_455
Na5 O70 2.416337 1_555
Na5 O71 2.549257 1_555
Na5 O48 2.599668 1_565
Na5 O34 2.736172 1_555
Na5 O49 2.773048 1_565
Na5 O3 2.888704 1_565
Na5 O13 2.921925 1_565
Na6 O28 2.426074 1_555
Na6 O65 2.448084 1_555
Na6 O64 2.479761 1_555
Na6 O43 2.563192 1_555
Na6 O42 2.753300 1_455
Na6 O7 2.938370 1_555
Na7 O63 2.374514 1_555
Na7 O65 2.430005 1_555
Na7 O44 2.559102 1_455
Na7 O8 2.725952 1_555
Na7 O43 2.789353 1_565
Na7 O29 2.796368 1_555
Na8 O27 2.382546 1_555
Na8 O64 2.417823 1_555
Na8 O63 2.558420 1_555
Na8 O42 2.583675 1_565
Na8 O44 2.763586 1_555
Na8 O6 2.923933 1_555
Na9 O61 2.302065 1_555
Na9 O62 2.620809 1_555
Na9 O47 2.637769 1_565
Na9 O26 2.640890 1_554
Na9 O45 2.891078 1_455
Na10 O24 2.269460 1_554
Na10 O62 2.308827 1_555
Na10 O45 2.524518 1_555
Na10 O46 2.764032 1_565
Na10 O60 2.798265 1_555
Na10 O19 2.987901 1_555
Na11 O25 2.293149 1_554
Na11 O60 2.509138 1_555
Na11 O46 2.559701 1_455
Na11 O61 2.692617 1_555
Na11 O20 2.905392 1_455
Na11 O47 2.916221 1_555
Na12 O4 2.304543 1_555
Na12 O41 2.335573 1_555
Na12 O33 2.661887 1_655
Na12 O40 2.760871 1_665
Na12 O55 2.821572 1_555
Na12 O54 2.886011 1_555
Na13 O39 2.354069 1_655
Na13 O5 2.401508 1_555
Na13 O41 2.626725 1_545
Na13 O55 2.725953 1_555
Na14 O3 2.404617 1_555
Na14 O40 2.555838 1_555
Na14 O39 2.635119 1_555
Na14 O35 2.643900 1_555
Na14 O54 2.670817 1_555
Na14 O56 2.803808 1_555
Na15 O2 2.330405 1_555
Na15 O37 2.362743 1_545
Na15 O38 2.611469 1_655
Na15 O59 2.626496 1_555
Na15 O57 2.870988 1_555
Na16 O0 2.267788 1_555
Na16 O38 2.322032 1_555
Na16 O57 2.507479 1_555
Na16 O36 2.732550 1_545
Na16 O58 2.838471 1_555
Na16 O31 2.962846 1_545
Na16 O21 3.012284 1_555
Na17 O1 2.354893 1_555
Na17 O58 2.505733 1_555
Na17 O36 2.523860 1_655
Na17 O37 2.530775 1_555
Na18 O37 2.471155 1_445
Na18 O42 2.512238 1_455
Na18 O38 2.546759 1_555
Na18 O43 2.584497 1_555
Na18 O44 2.656212 1_445
Na18 O36 2.871575 1_545
Na19 O39 2.331450 1_665
Na19 O41 2.342557 1_555
Na19 O40 2.662350 1_665
Na19 O45 2.689983 1_556
Na19 O46 2.703596 1_566
Na19 O47 2.770069 1_666
Na20 O50 2.601618 1_555
Na20 O49 2.636025 1_555
Na20 O55 2.697213 1_555
Na20 O48 2.707302 1_555
Na20 O54 2.718415 1_555
Na20 O56 2.802694 1_555
Na21 O53 2.483128 1_555
Na21 O52 2.497550 1_555
Na21 O51 2.549753 1_555
Na21 O57 2.679844 1_555
Na21 O59 2.745157 1_555
Na21 O58 2.771215 1_555
Na22 O61 2.417109 1_555
Na22 O62 2.465805 1_555
Na22 O66 2.613899 1_555
Na22 O67 2.730400 1_555
Na22 O68 2.760912 1_555
Na22 O60 2.803089 1_555
Na23 O69 2.404548 1_555
Na23 O71 2.406291 1_555
Na23 O70 2.419420 1_555
Na23 O65 2.672217 1_555
Na23 O63 2.673671 1_555
Na23 O64 2.685166 1_555
Ca0 O2 2.144266 1_555
Ca0 O0 2.178897 1_655
Ca0 O1 2.204711 1_545
Ca0 O38 2.296297 1_655
Ca0 O37 2.327964 1_545
Ca0 O36 2.422684 1_645
Ca1 O5 2.213323 1_565
Ca1 O4 2.235169 1_555
Ca1 O3 2.261768 1_665
Ca1 O39 2.323116 1_665
Ca1 O41 2.367912 1_555
Ca1 O40 2.457426 1_665
Ca2 O16 2.176230 1_555
Ca2 O15 2.187472 1_555
Ca2 O52 2.255698 1_555
Ca2 O51 2.284549 1_555
Ca2 O17 2.292993 1_555
Ca2 O53 2.321583 1_555
Ca3 O24 2.171194 1_554
Ca3 O25 2.171224 1_554
Ca3 O26 2.262638 1_554
Ca3 O62 2.296125 1_555
Ca3 O61 2.352478 1_555
Ca3 O60 2.424990 1_555
Ca4 O28 2.174074 1_555
Ca4 O27 2.174645 1_555
Ca4 O29 2.292584 1_555
Ca4 O64 2.298637 1_555
Ca4 O63 2.333445 1_555
Ca4 O65 2.334443 1_555
Ca5 O35 2.295322 1_555
Ca5 O33 2.307040 1_555
Ca5 O69 2.313614 1_555
Ca5 O70 2.382734 1_555
Ca5 O71 2.384450 1_555
Ca5 O34 2.523506 1_555
O0 Si0 1.584190 1_545
O1 Si1 1.578493 1_555
O2 Si2 1.586010 1_655
O3 Si3 1.605257 1_555
O4 Si4 1.599610 1_555
O5 Si5 1.601474 1_555
O6 Si5 1.711150 1_565
O6 Ta0 1.932790 1_565
O7 Si3 1.704058 1_555
O7 Ta0 1.927777 1_455
O8 Si4 1.702863 1_455
O8 Ta0 1.936789 1_465
O9 Si1 1.730171 1_555
O9 Ta1 1.897817 1_555
O10 Si2 1.743598 1_555
O10 Ta1 1.963154 1_445
O11 Si0 1.736808 1_555
O11 Ta1 1.966145 1_455
O12 Si6 1.630524 1_555
O12 Ta2 1.951892 1_555
O13 Si7 1.625596 1_555
O13 Ta2 1.964260 1_555
O14 Si8 1.633113 1_555
O14 Ta2 1.938378 1_555
O15 Si9 1.582021 1_555
O16 Si10 1.589060 1_555
O17 S0 1.460397 1_555
O18 S0 1.505492 1_555
O18 Ta3 2.361774 1_554
O19 Si9 1.744358 1_555
O19 Ta3 1.901362 1_554
O20 Si10 1.716695 1_555
O20 Ta3 1.973267 1_554
O21 Si7 1.719251 1_555
O21 Ta4 1.896175 1_555
O22 Si8 1.699181 1_555
O22 Ta4 1.969069 1_555
O23 Si6 1.698014 1_555
O23 Ta4 1.955858 1_555
O24 Si11 1.612703 1_555
O25 Si12 1.605046 1_555
O26 S1 1.482428 1_555
O27 Si13 1.589284 1_555
O28 Si14 1.591984 1_555
O29 S2 1.460914 1_555
O30 S2 1.506180 1_555
O30 Ta5 2.364869 1_555
O31 Si13 1.743723 1_555
O31 Ta5 1.956851 1_555
O32 Si14 1.749077 1_555
O32 Ta5 1.960150 1_555
O33 Si12 1.625964 1_555
O34 S1 1.479559 1_555
O35 Si11 1.633028 1_555
O36 S2 1.472258 1_555
O37 Si13 1.615014 1_555
O38 Si14 1.611499 1_555
O39 Si12 1.617263 1_555
O40 S1 1.472302 1_545
O41 Si11 1.626979 1_555
O42 Si6 1.662428 1_555
O42 Ta0 2.107468 1_555
O43 Si7 1.653049 1_555
O43 Ta0 2.131258 1_455
O44 Si8 1.660855 1_555
O44 Ta0 2.110657 1_565
O45 Si9 1.680412 1_555
O45 Ta1 2.073464 1_555
O46 Si10 1.698030 1_555
O46 Ta1 2.046410 1_545
O47 S0 1.516456 1_555
O47 Ta1 2.371406 1_445
O48 Si5 1.666336 1_555
O48 Ta2 1.985483 1_555
O49 Si3 1.672628 1_555
O49 Ta2 1.994560 1_555
O50 Si4 1.672014 1_555
O50 Ta2 1.988147 1_555
O51 Si1 1.594318 1_555
O52 Si2 1.609170 1_655
O53 Si0 1.607529 1_545
O54 Si11 1.721067 1_555
O54 Ta3 1.927329 1_555
O55 Si12 1.740804 1_655
O55 Ta3 1.879608 1_555
O56 S1 1.515144 1_545
O56 Ta3 2.210506 1_555
O57 Si13 1.701681 1_545
O57 Ta4 2.047363 1_555
O58 Si14 1.701943 1_555
O58 Ta4 2.031901 1_555
O59 S2 1.513356 1_655
O59 Ta4 2.356311 1_555
O60 S0 1.474875 1_555
O61 Si9 1.608644 1_455
O62 Si10 1.612882 1_565
O63 Si7 1.600530 1_565
O64 Si8 1.604385 1_555
O65 Si6 1.603560 1_455
O66 Si0 1.689809 1_555
O66 Ta5 2.037691 1_555
O67 Si1 1.693468 1_555
O67 Ta5 1.929709 1_555
O68 Si2 1.688043 1_555
O68 Ta5 2.043533 1_555
O69 Si3 1.612204 1_555
O70 Si4 1.610821 1_455
O71 Si5 1.611030 1_565
