# generated using pymatgen
data_MgMn2(SbO3)4
_symmetry_space_group_name_H-M   'P 1'
_cell_length_a   9.46858200
_cell_length_b   6.00840388
_cell_length_c   6.14272315
_cell_angle_alpha   79.40191052
_cell_angle_beta   58.83395808
_cell_angle_gamma   57.48500678
_symmetry_Int_Tables_number   1
_chemical_formula_structural   MgMn2(SbO3)4
_chemical_formula_sum   'Mg1 Mn2 Sb4 O12'
_cell_volume   249.99479074
_cell_formula_units_Z   1
loop_
 _symmetry_equiv_pos_site_id
 _symmetry_equiv_pos_as_xyz
  1  'x, y, z'
loop_
 _atom_site_type_symbol
 _atom_site_label
 _atom_site_symmetry_multiplicity
 _atom_site_fract_x
 _atom_site_fract_y
 _atom_site_fract_z
 _atom_site_occupancy
  Mg  Mg0  1  0.32519137  0.00246381  0.49991282  1
  Mn  Mn0  1  0.15974194  0.58663572  0.45272416  1
  Mn  Mn1  1  0.49784764  0.41505144  0.54781482  1
  Sb  Sb0  1  0.99070101  0.00249871  0.00463527  1
  Sb  Sb1  1  0.32872498  0.00115905  0.99754779  1
  Sb  Sb2  1  0.66522857  0.99591314  0.99889409  1
  Sb  Sb3  1  0.82882317  0.51216109  0.48720453  1
  O  O0  1  0.86258752  0.72740556  0.68999726  1
  O  O1  1  0.14074659  0.20303719  0.86152330  1
  O  O2  1  0.17709533  0.81171268  0.14708134  1
  O  O3  1  0.20256091  0.76301077  0.66595648  1
  O  O4  1  0.45333973  0.23561803  0.33727598  1
  O  O5  1  0.51313449  0.79846016  0.13924115  1
  O  O6  1  0.48280601  0.18650110  0.85049804  1
  O  O7  1  0.79551976  0.27141337  0.31315645  1
  O  O8  1  0.50532754  0.75457298  0.66681068  1
  O  O9  1  0.84826515  0.79803458  0.15525107  1
  O  O10  1  0.80759008  0.19268392  0.85884187  1
  O  O11  1  0.15087920  0.25208370  0.32563291  1
loop_
_geom_bond_atom_site_label_1
_geom_bond_atom_site_label_2
_geom_bond_distance
_geom_bond_site_symmetry_2
Mg0 O1 2.035494 1_555
Mg0 O5 2.037378 1_545
Mg0 O3 2.118686 1_545
Mg0 O4 2.119133 1_555
Mg0 O8 2.166980 1_545
Mg0 O11 2.167187 1_555
Mn0 O2 2.089599 1_555
Mn0 O0 2.099225 1_455
Mn0 O3 2.127250 1_555
Mn0 O4 2.210377 1_555
Mn0 O11 2.341687 1_555
Mn1 O6 2.088065 1_555
Mn1 O7 2.098611 1_555
Mn1 O4 2.139610 1_555
Mn1 O3 2.211061 1_555
Mn1 O8 2.336289 1_555
O0 Sb2 1.977406 1_555
O0 Sb3 2.185367 1_555
O1 Sb1 2.045241 1_555
O1 Sb0 2.097866 1_456
O2 Sb1 2.051332 1_564
O2 Sb0 2.061316 1_465
O3 Sb0 2.025140 1_466
O4 Sb2 2.024464 1_544
O5 Sb1 2.046131 1_564
O5 Sb2 2.097647 1_554
O6 Sb1 2.048683 1_555
O6 Sb2 2.060362 1_545
O7 Sb0 1.977066 1_555
O7 Sb3 2.177852 1_555
O8 Sb1 2.011547 1_565
O8 Sb3 2.240098 1_555
O9 Sb0 2.062932 1_565
O9 Sb2 2.104129 1_554
O9 Sb3 2.409394 1_555
O10 Sb2 2.023298 1_545
O10 Sb0 2.052973 1_556
O10 Sb3 2.695274 1_555
O11 Sb1 2.011460 1_554
O11 Sb3 2.245220 1_455
