# generated using pymatgen
data_Na2In8SiS11O48
_symmetry_space_group_name_H-M   'P 1'
_cell_length_a   17.82362611
_cell_length_b   8.90903718
_cell_length_c   23.42650809
_cell_angle_alpha   89.97134357
_cell_angle_beta   89.98654934
_cell_angle_gamma   120.07569574
_symmetry_Int_Tables_number   1
_chemical_formula_structural   Na2In8SiS11O48
_chemical_formula_sum   'Na6 In24 Si3 S33 O144'
_cell_volume   3219.09011262
_cell_formula_units_Z   3
loop_
 _symmetry_equiv_pos_site_id
 _symmetry_equiv_pos_as_xyz
  1  'x, y, z'
loop_
 _atom_site_type_symbol
 _atom_site_label
 _atom_site_symmetry_multiplicity
 _atom_site_fract_x
 _atom_site_fract_y
 _atom_site_fract_z
 _atom_site_occupancy
  Na  Na0  1  0.00150869  0.98867276  0.49913468  1
  Na  Na1  1  0.50159131  0.01415092  0.99412233  1
  Na  Na2  1  0.33912825  0.33369450  0.83620933  1
  Na  Na3  1  0.83944983  0.34840139  0.82826904  1
  Na  Na4  1  0.33111457  0.33027132  0.33446686  1
  Na  Na5  1  0.84199274  0.34686438  0.33821154  1
  In  In0  1  0.00163970  0.99095098  0.35303365  1
  In  In1  1  0.49941124  0.99979108  0.35399716  1
  In  In2  1  0.99896928  0.99025516  0.85030165  1
  In  In3  1  0.50084364  0.01247955  0.85220731  1
  In  In4  1  0.99928754  0.99370990  0.65366446  1
  In  In5  1  0.50109829  0.00000698  0.64731175  1
  In  In6  1  0.99983074  0.00112255  0.14597984  1
  In  In7  1  0.50011295  0.99965865  0.14948571  1
  In  In8  1  0.33239704  0.33427798  0.68453288  1
  In  In9  1  0.83929724  0.34493617  0.68642565  1
  In  In10  1  0.33211424  0.33313513  0.18170536  1
  In  In11  1  0.83499846  0.33224709  0.18272211  1
  In  In12  1  0.33812801  0.33446469  0.97898827  1
  In  In13  1  0.83398603  0.33493788  0.98153130  1
  In  In14  1  0.33302772  0.33292291  0.48486811  1
  In  In15  1  0.84038892  0.34381027  0.48263845  1
  In  In16  1  0.16507983  0.66452097  0.01722585  1
  In  In17  1  0.66392248  0.65852086  0.01580513  1
  In  In18  1  0.16183344  0.66832739  0.51967096  1
  In  In19  1  0.66665400  0.66799532  0.52159795  1
  In  In20  1  0.16109677  0.66454129  0.31644475  1
  In  In21  1  0.66747576  0.66634855  0.31429337  1
  In  In22  1  0.16141458  0.66823192  0.81027305  1
  In  In23  1  0.66329908  0.65805337  0.81480483  1
  Si  Si0  1  0.99848128  0.70521317  0.75051834  1
  Si  Si1  1  0.52011730  0.37275009  0.91655132  1
  Si  Si2  1  0.01867560  0.66511993  0.41686300  1
  S  S0  1  0.14830551  0.00331439  0.24868352  1
  S  S1  1  0.64697512  0.00123428  0.25099572  1
  S  S2  1  0.35243334  0.70599823  0.25119388  1
  S  S3  1  0.85252806  0.70473970  0.24923622  1
  S  S4  1  0.99954702  0.28894026  0.25021844  1
  S  S5  1  0.49939369  0.29333184  0.25054873  1
  S  S6  1  0.14885060  0.29536388  0.75057732  1
  S  S7  1  0.64626386  0.29100434  0.74887574  1
  S  S8  1  0.49956648  0.70963258  0.75037582  1
  S  S9  1  0.35445981  0.00179976  0.74895363  1
  S  S10  1  0.85024698  0.99704843  0.75155106  1
  S  S11  1  0.47957606  0.33264907  0.58348839  1
  S  S12  1  0.98079471  0.32619091  0.58387698  1
  S  S13  1  0.18629745  0.04129806  0.58323376  1
  S  S14  1  0.68882175  0.04577647  0.58300481  1
  S  S15  1  0.33283166  0.62802706  0.58286247  1
  S  S16  1  0.83292913  0.62942520  0.58241564  1
  S  S17  1  0.48052605  0.62943512  0.08413671  1
  S  S18  1  0.98061926  0.62731054  0.08335731  1
  S  S19  1  0.33285569  0.03669604  0.08368444  1
  S  S20  1  0.83193955  0.03756865  0.08285065  1
  S  S21  1  0.18752489  0.33425888  0.08217326  1
  S  S22  1  0.68685725  0.33300926  0.08403678  1
  S  S23  1  0.31076862  0.66634570  0.91595842  1
  S  S24  1  0.81474308  0.66842342  0.91737330  1
  S  S25  1  0.01955754  0.36921703  0.91665140  1
  S  S26  1  0.16606430  0.95905142  0.91735416  1
  S  S27  1  0.66808085  0.96254873  0.91682175  1
  S  S28  1  0.31457510  0.96257189  0.41628210  1
  S  S29  1  0.81138989  0.95841262  0.41658165  1
  S  S30  1  0.16910134  0.37509715  0.41664359  1
  S  S31  1  0.66580956  0.37372212  0.41622779  1
  S  S32  1  0.52003924  0.66479373  0.41619322  1
  O  O0  1  0.11103035  0.03729347  0.29989197  1
  O  O1  1  0.60736871  0.03143553  0.30204436  1
  O  O2  1  0.40847960  0.78443794  0.30196061  1
  O  O3  1  0.90544513  0.78167273  0.30060690  1
  O  O4  1  0.48417578  0.18458134  0.30174630  1
  O  O5  1  0.98441632  0.18056425  0.30171217  1
  O  O6  1  0.11035931  0.18917707  0.80218546  1
  O  O7  1  0.60834919  0.18344931  0.80032605  1
  O  O8  1  0.48433999  0.78760241  0.80167633  1
  O  O9  1  0.97859167  0.78123091  0.80808648  1
  O  O10  1  0.40812776  0.03430073  0.80022203  1
  O  O11  1  0.90564089  0.03403341  0.80254292  1
  O  O12  1  0.39406481  0.97784578  0.69673495  1
  O  O13  1  0.88803008  0.97220051  0.69892885  1
  O  O14  1  0.09776863  0.22298471  0.69819447  1
  O  O15  1  0.59208788  0.21276028  0.69731323  1
  O  O16  1  0.01664056  0.81720552  0.69214628  1
  O  O17  1  0.51054962  0.81144854  0.69782871  1
  O  O18  1  0.39158674  0.81095254  0.19899984  1
  O  O19  1  0.89177393  0.80957080  0.19734861  1
  O  O20  1  0.01035138  0.20823167  0.19789409  1
  O  O21  1  0.51304403  0.21552454  0.19851824  1
  O  O22  1  0.09517477  0.97740427  0.19713685  1
  O  O23  1  0.59437027  0.97323037  0.19890219  1
  O  O24  1  0.44041992  0.36416539  0.63437815  1
  O  O25  1  0.94045940  0.35421611  0.63428943  1
  O  O26  1  0.23984749  0.12340764  0.63441296  1
  O  O27  1  0.74257612  0.12340082  0.63443817  1
  O  O28  1  0.31744767  0.51874525  0.63403861  1
  O  O29  1  0.81797229  0.52268062  0.63362599  1
  O  O30  1  0.44141468  0.52453800  0.13662205  1
  O  O31  1  0.94245149  0.51994059  0.13531261  1
  O  O32  1  0.32000156  0.11347953  0.13639979  1
  O  O33  1  0.81668871  0.11390605  0.13508834  1
  O  O34  1  0.24017023  0.36602233  0.13495344  1
  O  O35  1  0.73839124  0.35485842  0.13627926  1
  O  O36  1  0.22838453  0.30408799  0.03205958  1
  O  O37  1  0.72518974  0.30042819  0.03274332  1
  O  O38  1  0.42472727  0.55213883  0.03378151  1
  O  O39  1  0.92552299  0.54920473  0.03251078  1
  O  O40  1  0.34836273  0.14618856  0.03318811  1
  O  O41  1  0.84869167  0.15022434  0.03235704  1
  O  O42  1  0.22582244  0.14760599  0.53077453  1
  O  O43  1  0.72749403  0.15136520  0.53092509  1
  O  O44  1  0.34979442  0.55178969  0.53134213  1
  O  O45  1  0.84644993  0.55160843  0.53069451  1
  O  O46  1  0.42665226  0.30224064  0.53134031  1
  O  O47  1  0.92733819  0.29380275  0.53183590  1
  O  O48  1  0.27369071  0.69545678  0.96897370  1
  O  O49  1  0.77604284  0.69262253  0.96984084  1
  O  O50  1  0.07047497  0.44554989  0.96962710  1
  O  O51  1  0.57492757  0.44737872  0.97548737  1
  O  O52  1  0.15341290  0.85473671  0.96997588  1
  O  O53  1  0.65680415  0.86385569  0.96988436  1
  O  O54  1  0.27705974  0.85836436  0.46799358  1
  O  O55  1  0.77187506  0.84907883  0.46782797  1
  O  O56  1  0.15826020  0.45347390  0.46891097  1
  O  O57  1  0.65187716  0.45408802  0.46734191  1
  O  O58  1  0.07738121  0.70247150  0.47364515  1
  O  O59  1  0.57286304  0.69157941  0.46761876  1
  O  O60  1  0.05646853  0.62892250  0.35832320  1
  O  O61  1  0.55827350  0.63466245  0.36416503  1
  O  O62  1  0.26317440  0.88779590  0.36380222  1
  O  O63  1  0.75926915  0.87955800  0.36412710  1
  O  O64  1  0.18533528  0.47958623  0.36427001  1
  O  O65  1  0.68076175  0.48078376  0.36394650  1
  O  O66  1  0.05912548  0.48009810  0.86665889  1
  O  O67  1  0.55973705  0.48869634  0.85940180  1
  O  O68  1  0.18354959  0.88215236  0.86712986  1
  O  O69  1  0.68402463  0.88886594  0.86524403  1
  O  O70  1  0.25782199  0.64275112  0.86477225  1
  O  O71  1  0.76176380  0.63706736  0.86575558  1
  O  O72  1  0.00941574  0.84050763  0.41409999  1
  O  O73  1  0.51161086  0.82006925  0.40881745  1
  O  O74  1  0.40176829  0.98220050  0.40929458  1
  O  O75  1  0.89861521  0.97950837  0.41051271  1
  O  O76  1  0.08955510  0.20354886  0.41059895  1
  O  O77  1  0.58666813  0.20248043  0.40868566  1
  O  O78  1  0.01000774  0.19642311  0.90906398  1
  O  O79  1  0.50955413  0.17809758  0.91446886  1
  O  O80  1  0.08913368  0.97717876  0.91164145  1
  O  O81  1  0.58882311  0.97563982  0.91117385  1
  O  O82  1  0.39893143  0.81846703  0.91087339  1
  O  O83  1  0.90048721  0.82411589  0.91233602  1
  O  O84  1  0.48846077  0.17805659  0.59095019  1
  O  O85  1  0.98935771  0.16803607  0.59038499  1
  O  O86  1  0.10031031  0.02772313  0.58703709  1
  O  O87  1  0.60145703  0.02502711  0.59014696  1
  O  O88  1  0.41089519  0.79988021  0.59080173  1
  O  O89  1  0.91005328  0.80562330  0.58684360  1
  O  O90  1  0.48791625  0.80461940  0.09050717  1
  O  O91  1  0.98868291  0.79937184  0.09139937  1
  O  O92  1  0.41244176  0.02054280  0.09010329  1
  O  O93  1  0.91039076  0.02306285  0.09099982  1
  O  O94  1  0.10140049  0.17826435  0.09039694  1
  O  O95  1  0.59883588  0.17356893  0.08982005  1
  O  O96  1  0.34549060  0.16028307  0.74303897  1
  O  O97  1  0.83829259  0.14999530  0.74481217  1
  O  O98  1  0.23653261  0.30910662  0.74473755  1
  O  O99  1  0.73177680  0.30284330  0.74241454  1
  O  O100  1  0.42030311  0.53300483  0.74441354  1
  O  O101  1  0.91084957  0.51141243  0.74794228  1
  O  O102  1  0.34446508  0.53088316  0.24465604  1
  O  O103  1  0.84290154  0.52801988  0.24313934  1
  O  O104  1  0.42054341  0.31107969  0.24415118  1
  O  O105  1  0.92022277  0.30716566  0.24454768  1
  O  O106  1  0.23668815  0.16358099  0.24299293  1
  O  O107  1  0.73450818  0.15852027  0.24450972  1
  O  O108  1  0.31637350  0.50619891  0.92223882  1
  O  O109  1  0.82254232  0.50775105  0.92320185  1
  O  O110  1  0.42341283  0.35490642  0.91896382  1
  O  O111  1  0.93188510  0.35335954  0.92325227  1
  O  O112  1  0.24414760  0.13447531  0.92371008  1
  O  O113  1  0.74649915  0.14051981  0.92257607  1
  O  O114  1  0.32425952  0.13987856  0.42198604  1
  O  O115  1  0.81667018  0.12849254  0.42246256  1
  O  O116  1  0.24744512  0.35298881  0.42183600  1
  O  O117  1  0.74205231  0.35199690  0.42221866  1
  O  O118  1  0.43200216  0.50755080  0.42213088  1
  O  O119  1  0.92157597  0.49036342  0.41925929  1
  O  O120  1  0.17847706  0.48922401  0.07484475  1
  O  O121  1  0.67986413  0.48904852  0.07873358  1
  O  O122  1  0.06663562  0.64427999  0.07582616  1
  O  O123  1  0.56689903  0.65053235  0.07820799  1
  O  O124  1  0.25568248  0.86376853  0.07673564  1
  O  O125  1  0.75464236  0.86576261  0.07458808  1
  O  O126  1  0.18154761  0.87239862  0.57794764  1
  O  O127  1  0.67873520  0.87081724  0.57550906  1
  O  O128  1  0.25522292  0.64375767  0.57388176  1
  O  O129  1  0.75378578  0.64396710  0.57570147  1
  O  O130  1  0.06719027  0.48037191  0.57737876  1
  O  O131  1  0.56566246  0.48890902  0.57572331  1
  O  O132  1  0.15897754  0.85107423  0.25486614  1
  O  O133  1  0.65518090  0.84547539  0.25822780  1
  O  O134  1  0.26668140  0.68881789  0.25921282  1
  O  O135  1  0.76579072  0.68665114  0.25618578  1
  O  O136  1  0.07791526  0.46014452  0.25525775  1
  O  O137  1  0.57706792  0.46573356  0.25764986  1
  O  O138  1  0.16161177  0.46995275  0.75792479  1
  O  O139  1  0.65629185  0.46412557  0.75480267  1
  O  O140  1  0.08449133  0.68843870  0.75527550  1
  O  O141  1  0.57766588  0.69526830  0.75553641  1
  O  O142  1  0.26971488  0.84646788  0.75618471  1
  O  O143  1  0.76473139  0.83855048  0.75964099  1
loop_
_geom_bond_atom_site_label_1
_geom_bond_atom_site_label_2
_geom_bond_distance
_geom_bond_site_symmetry_2
Na0 O72 2.433016 1_555
Na0 O86 2.617447 1_565
Na0 O89 2.620906 1_455
Na0 O76 2.722624 1_565
Na0 O85 2.742278 1_465
Na0 O75 2.744462 1_455
Na1 O79 2.329132 1_555
Na1 O81 2.616293 1_545
Na1 O82 2.645485 1_545
Na1 O95 2.754081 1_556
Na1 O92 2.770009 1_556
Na1 O90 2.860410 1_546
Na2 O110 2.401674 1_555
Na2 O112 2.683477 1_555
Na2 O108 2.686178 1_555
Na2 O100 2.700095 1_555
Na2 O96 2.709706 1_555
Na2 O98 2.754006 1_555
Na3 O101 2.326680 1_555
Na3 O97 2.629491 1_555
Na3 O99 2.667377 1_555
Na3 O109 2.735652 1_555
Na3 O111 2.756152 1_555
Na3 O113 2.823922 1_555
Na4 O116 2.599156 1_555
Na4 O114 2.623807 1_555
Na4 O118 2.665316 1_555
Na4 O106 2.670170 1_555
Na4 O102 2.692078 1_555
Na4 O104 2.705247 1_555
Na5 O119 2.331844 1_555
Na5 O115 2.645712 1_555
Na5 O117 2.669870 1_555
Na5 O105 2.716152 1_555
Na5 O103 2.745114 1_555
Na5 O107 2.843929 1_555
In0 O72 2.011597 1_555
In0 O0 2.171013 1_565
In0 O3 2.173375 1_455
In0 O76 2.211389 1_565
In0 O5 2.216138 1_465
In0 O75 2.237524 1_455
In1 O74 2.111134 1_555
In1 O77 2.123524 1_565
In1 O73 2.146457 1_555
In1 O2 2.163432 1_555
In1 O1 2.172121 1_565
In1 O4 2.174531 1_565
In2 O9 1.975312 1_555
In2 O83 2.185511 1_555
In2 O11 2.195825 1_565
In2 O6 2.196223 1_665
In2 O80 2.202197 1_655
In2 O78 2.224379 1_665
In3 O79 2.025163 1_555
In3 O7 2.130869 1_555
In3 O10 2.138804 1_555
In3 O8 2.216632 1_545
In3 O81 2.234125 1_545
In3 O82 2.241760 1_545
In4 O16 1.966532 1_655
In4 O13 2.170579 1_555
In4 O14 2.179671 1_665
In4 O85 2.216813 1_565
In4 O89 2.262849 1_555
In4 O86 2.285067 1_665
In5 O15 2.125322 1_555
In5 O17 2.128994 1_545
In5 O12 2.154100 1_545
In5 O87 2.154451 1_555
In5 O88 2.155583 1_545
In5 O84 2.160190 1_555
In6 O91 2.132957 1_545
In6 O93 2.133413 1_555
In6 O20 2.138773 1_655
In6 O94 2.143997 1_655
In6 O22 2.174714 1_645
In6 O19 2.184576 1_545
In7 O90 2.144640 1_555
In7 O23 2.148286 1_555
In7 O21 2.151546 1_565
In7 O18 2.156637 1_555
In7 O92 2.168820 1_565
In7 O95 2.171323 1_565
In8 O26 2.127455 1_555
In8 O98 2.138568 1_555
In8 O28 2.146673 1_555
In8 O24 2.154810 1_555
In8 O96 2.167140 1_555
In8 O100 2.186425 1_555
In9 O101 2.002542 1_555
In9 O25 2.144555 1_555
In9 O29 2.187124 1_555
In9 O99 2.193539 1_555
In9 O97 2.203150 1_555
In9 O27 2.223437 1_555
In10 O34 2.110151 1_555
In10 O30 2.118033 1_555
In10 O32 2.140408 1_555
In10 O106 2.158154 1_555
In10 O102 2.222842 1_555
In10 O104 2.230254 1_555
In11 O31 2.117769 1_555
In11 O33 2.121705 1_555
In11 O35 2.130150 1_555
In11 O105 2.189968 1_555
In11 O103 2.195784 1_555
In11 O107 2.217374 1_555
In12 O110 2.010571 1_555
In12 O112 2.160863 1_555
In12 O40 2.182577 1_556
In12 O38 2.189553 1_556
In12 O108 2.202595 1_555
In12 O36 2.216522 1_556
In13 O109 2.142882 1_555
In13 O39 2.147959 1_556
In13 O41 2.150573 1_556
In13 O113 2.153005 1_555
In13 O111 2.155753 1_555
In13 O37 2.166822 1_556
In14 O42 2.090162 1_555
In14 O44 2.120127 1_555
In14 O46 2.121874 1_555
In14 O116 2.193924 1_555
In14 O114 2.210331 1_555
In14 O118 2.222201 1_555
In15 O119 2.026462 1_555
In15 O45 2.123205 1_555
In15 O47 2.149622 1_555
In15 O43 2.192537 1_555
In15 O115 2.244093 1_555
In15 O117 2.282530 1_555
In16 O52 2.119365 1_554
In16 O48 2.136609 1_554
In16 O50 2.144393 1_554
In16 O122 2.162712 1_555
In16 O120 2.165598 1_555
In16 O124 2.198350 1_555
In17 O51 1.989590 1_554
In17 O49 2.153014 1_554
In17 O53 2.179577 1_554
In17 O125 2.220618 1_555
In17 O121 2.227451 1_555
In17 O123 2.237862 1_555
In18 O58 1.995050 1_555
In18 O130 2.154684 1_555
In18 O126 2.157571 1_555
In18 O128 2.190281 1_555
In18 O56 2.227585 1_555
In18 O54 2.249807 1_555
In19 O129 2.097130 1_555
In19 O131 2.124112 1_555
In19 O127 2.125770 1_555
In19 O55 2.161234 1_555
In19 O59 2.188734 1_555
In19 O57 2.194566 1_555
In20 O60 1.986599 1_555
In20 O136 2.205978 1_555
In20 O64 2.206562 1_555
In20 O62 2.207531 1_555
In20 O132 2.214646 1_555
In20 O134 2.230807 1_555
In21 O65 2.129032 1_555
In21 O63 2.129793 1_555
In21 O135 2.153451 1_555
In21 O133 2.160643 1_555
In21 O137 2.160688 1_555
In21 O61 2.163551 1_555
In22 O140 1.954520 1_555
In22 O138 2.152380 1_555
In22 O142 2.185808 1_555
In22 O68 2.193421 1_555
In22 O66 2.193609 1_555
In22 O70 2.241858 1_555
In23 O67 1.995316 1_555
In23 O143 2.146469 1_555
In23 O139 2.182348 1_555
In23 O71 2.206646 1_555
In23 O141 2.207947 1_555
In23 O69 2.236605 1_555
O0 S0 1.474359 1_555
O1 S1 1.480267 1_555
O2 S2 1.484035 1_555
O3 S3 1.470046 1_555
O4 S5 1.478536 1_555
O5 S4 1.482523 1_555
O6 S6 1.474878 1_555
O7 S7 1.475479 1_555
O8 S8 1.479901 1_555
O9 Si0 1.626172 1_555
O10 S9 1.471264 1_555
O11 S10 1.478252 1_545
O12 S9 1.480255 1_565
O13 S10 1.473602 1_555
O14 S6 1.470891 1_555
O15 S7 1.484642 1_555
O16 Si0 1.626326 1_455
O17 S8 1.482317 1_555
O18 S2 1.483509 1_555
O19 S3 1.477424 1_555
O20 S4 1.481951 1_455
O21 S5 1.481603 1_555
O22 S0 1.479857 1_565
O23 S1 1.482242 1_565
O24 S11 1.477676 1_555
O25 S12 1.467557 1_555
O26 S13 1.478243 1_555
O27 S14 1.478268 1_555
O28 S15 1.480369 1_555
O29 S16 1.469453 1_555
O30 S17 1.488820 1_555
O31 S18 1.485070 1_555
O32 S19 1.484352 1_555
O33 S20 1.489945 1_555
O34 S21 1.491349 1_555
O35 S22 1.483566 1_555
O36 S21 1.475462 1_555
O37 S22 1.481111 1_555
O38 S17 1.473028 1_555
O39 S18 1.477801 1_555
O40 S19 1.468257 1_555
O41 S20 1.481211 1_555
O42 S13 1.494412 1_555
O43 S14 1.482261 1_555
O44 S15 1.488589 1_555
O45 S16 1.474769 1_555
O46 S11 1.483360 1_555
O47 S12 1.484154 1_555
O48 S23 1.489362 1_555
O49 S24 1.477144 1_555
O50 S25 1.486287 1_555
O51 Si1 1.628865 1_555
O52 S26 1.490928 1_555
O53 S27 1.476612 1_555
O54 S28 1.467258 1_555
O55 S29 1.482200 1_555
O56 S30 1.469742 1_555
O57 S31 1.478867 1_555
O58 Si2 1.620845 1_555
O59 S32 1.473218 1_555
O60 Si2 1.629775 1_555
O61 S32 1.485034 1_555
O62 S28 1.477914 1_555
O63 S29 1.487896 1_555
O64 S30 1.477962 1_555
O65 S31 1.491559 1_555
O66 S25 1.464577 1_555
O67 Si1 1.620239 1_555
O68 S26 1.471550 1_555
O69 S27 1.469433 1_555
O70 S23 1.474649 1_555
O71 S24 1.472553 1_555
O72 Si2 1.652673 1_555
O73 S32 1.474502 1_555
O74 S28 1.483260 1_555
O75 S29 1.476330 1_555
O76 S30 1.481382 1_555
O77 S31 1.480507 1_555
O78 S25 1.472434 1_555
O79 Si1 1.648637 1_555
O80 S26 1.464973 1_555
O81 S27 1.480515 1_555
O82 S23 1.478310 1_555
O83 S24 1.465805 1_555
O84 S11 1.473390 1_555
O85 S12 1.499058 1_555
O86 S13 1.478372 1_555
O87 S14 1.482646 1_555
O88 S15 1.476446 1_555
O89 S16 1.483901 1_555
O90 S17 1.506543 1_555
O91 S18 1.478316 1_555
O92 S19 1.503390 1_555
O93 S20 1.479718 1_555
O94 S21 1.478610 1_555
O95 S22 1.504490 1_555
O96 S9 1.504779 1_555
O97 S10 1.489236 1_545
O98 S6 1.511353 1_555
O99 S7 1.481830 1_555
O100 S8 1.504559 1_555
O101 Si0 1.649698 1_555
O102 S2 1.501909 1_555
O103 S3 1.502687 1_555
O104 S5 1.498468 1_555
O105 S4 1.507691 1_555
O106 S0 1.511070 1_555
O107 S1 1.493052 1_555
O108 S23 1.486576 1_555
O109 S24 1.512029 1_555
O110 Si1 1.650655 1_555
O111 S25 1.504764 1_655
O112 S26 1.490598 1_545
O113 S27 1.504931 1_545
O114 S28 1.506593 1_545
O115 S29 1.476854 1_545
O116 S30 1.509689 1_555
O117 S31 1.472248 1_555
O118 S32 1.496835 1_555
O119 Si2 1.649710 1_655
O120 S21 1.477984 1_555
O121 S22 1.461854 1_555
O122 S18 1.473766 1_455
O123 S17 1.460983 1_555
O124 S19 1.472549 1_565
O125 S20 1.471467 1_565
O126 S13 1.469432 1_565
O127 S14 1.487340 1_565
O128 S15 1.473684 1_555
O129 S16 1.488164 1_555
O130 S12 1.469984 1_455
O131 S11 1.477868 1_555
O132 S0 1.468040 1_565
O133 S1 1.476108 1_565
O134 S2 1.469734 1_555
O135 S3 1.480763 1_555
O136 S4 1.468442 1_455
O137 S5 1.473949 1_555
O138 S6 1.465055 1_555
O139 S7 1.467642 1_555
O140 Si0 1.616961 1_455
O141 S8 1.465369 1_555
O142 S9 1.459402 1_565
O143 S10 1.481698 1_555
