# generated using pymatgen
data_MgCo2(MoO4)2
_symmetry_space_group_name_H-M   'P 1'
_cell_length_a   4.92451358
_cell_length_b   5.12789957
_cell_length_c   5.95549100
_cell_angle_alpha   90.00000000
_cell_angle_beta   90.00000000
_cell_angle_gamma   87.39913230
_symmetry_Int_Tables_number   1
_chemical_formula_structural   MgCo2(MoO4)2
_chemical_formula_sum   'Mg1 Co2 Mo2 O8'
_cell_volume   150.23558706
_cell_formula_units_Z   1
loop_
 _symmetry_equiv_pos_site_id
 _symmetry_equiv_pos_as_xyz
  1  'x, y, z'
loop_
 _atom_site_type_symbol
 _atom_site_label
 _atom_site_symmetry_multiplicity
 _atom_site_fract_x
 _atom_site_fract_y
 _atom_site_fract_z
 _atom_site_occupancy
  Mg  Mg0  1  0.00000000  0.75000000  0.38619300  1
  Co  Co0  1  0.50000000  0.25000000  0.64024100  1
  Co  Co1  1  0.50000000  0.75000000  0.34421400  1
  Mo  Mo0  1  0.00000000  0.25000000  0.15193600  1
  Mo  Mo1  1  0.00000000  0.75000000  0.85116200  1
  O  O0  1  0.75105400  0.42496700  0.36088500  1
  O  O1  1  0.24894600  0.07503300  0.36088500  1
  O  O2  1  0.25276700  0.59457700  0.61883100  1
  O  O3  1  0.74723300  0.90542300  0.61883100  1
  O  O4  1  0.78353100  0.92385600  0.12828500  1
  O  O5  1  0.21646900  0.57614400  0.12828500  1
  O  O6  1  0.20714200  0.06141500  0.88965000  1
  O  O7  1  0.79285800  0.43858500  0.88965000  1
loop_
_geom_bond_atom_site_label_1
_geom_bond_atom_site_label_2
_geom_bond_distance
_geom_bond_site_symmetry_2
Mg0 O3 2.003525 1_455
Mg0 O2 2.003525 1_555
Mg0 O5 2.050394 1_555
Mg0 O4 2.050394 1_455
Mg0 O1 2.118749 1_565
Mg0 O0 2.118749 1_455
Co0 O3 2.103678 1_545
Co0 O2 2.103678 1_555
Co0 O1 2.280801 1_555
Co0 O0 2.280801 1_555
Co0 O7 2.312556 1_555
Co0 O6 2.312556 1_555
Co1 O1 2.032077 1_565
Co1 O0 2.032077 1_555
Co1 O5 2.123910 1_555
Co1 O4 2.123910 1_555
Co1 O2 2.209155 1_555
Co1 O3 2.209155 1_555
Mo0 O0 1.938197 1_455
Mo0 O1 1.938197 1_555
Mo0 O4 2.028557 1_445
Mo0 O5 2.028557 1_555
Mo0 O7 2.079946 1_454
Mo0 O6 2.079946 1_554
Mo1 O6 1.947058 1_565
Mo1 O7 1.947058 1_455
Mo1 O3 2.002261 1_455
Mo1 O2 2.002261 1_555
Mo1 O4 2.137463 1_456
Mo1 O5 2.137463 1_556
