# generated using pymatgen
data_H2Se
_symmetry_space_group_name_H-M   'P 1'
_cell_length_a   3.46686252
_cell_length_b   3.46686252
_cell_length_c   3.46686252
_cell_angle_alpha   60.00000000
_cell_angle_beta   60.00000000
_cell_angle_gamma   60.00000000
_symmetry_Int_Tables_number   1
_chemical_formula_structural   H2Se
_chemical_formula_sum   'H2 Se1'
_cell_volume   29.46421420
_cell_formula_units_Z   1
loop_
 _symmetry_equiv_pos_site_id
 _symmetry_equiv_pos_as_xyz
  1  'x, y, z'
loop_
 _atom_site_type_symbol
 _atom_site_label
 _atom_site_symmetry_multiplicity
 _atom_site_fract_x
 _atom_site_fract_y
 _atom_site_fract_z
 _atom_site_occupancy
  H  H0  1  0.75000000  0.75000000  0.75000000  1
  H  H1  1  0.25000000  0.25000000  0.25000000  1
  Se  Se0  1  0.00000000  0.00000000  0.00000000  1
loop_
_geom_bond_atom_site_label_1
_geom_bond_atom_site_label_2
_geom_bond_distance
_geom_bond_site_symmetry_2
H0 Se0 2.123011 1_666
H0 Se0 2.123011 1_566
H0 Se0 2.123011 1_656
H0 Se0 2.123011 1_665
H1 Se0 2.123011 1_556
H1 Se0 2.123011 1_555
H1 Se0 2.123011 1_655
H1 Se0 2.123011 1_565
