# generated using pymatgen
data_YbCoB4
_symmetry_space_group_name_H-M   'P 1'
_cell_length_a   3.30178900
_cell_length_b   5.90176300
_cell_length_c   11.42225300
_cell_angle_alpha   90.00000000
_cell_angle_beta   90.00000000
_cell_angle_gamma   90.00000000
_symmetry_Int_Tables_number   1
_chemical_formula_structural   YbCoB4
_chemical_formula_sum   'Yb4 Co4 B16'
_cell_volume   222.57831848
_cell_formula_units_Z   4
loop_
 _symmetry_equiv_pos_site_id
 _symmetry_equiv_pos_as_xyz
  1  'x, y, z'
loop_
 _atom_site_type_symbol
 _atom_site_label
 _atom_site_symmetry_multiplicity
 _atom_site_fract_x
 _atom_site_fract_y
 _atom_site_fract_z
 _atom_site_occupancy
  Yb  Yb0  1  0.00000000  0.37289700  0.65072700  1
  Yb  Yb1  1  0.00000000  0.62710300  0.34927300  1
  Yb  Yb2  1  0.00000000  0.87289700  0.84927300  1
  Yb  Yb3  1  0.00000000  0.12710300  0.15072700  1
  Co  Co0  1  0.00000000  0.36599000  0.91164700  1
  Co  Co1  1  0.00000000  0.63401000  0.08835300  1
  Co  Co2  1  0.00000000  0.86599000  0.58835300  1
  Co  Co3  1  0.00000000  0.13401000  0.41164700  1
  B  B0  1  0.50000000  0.02474200  0.68985000  1
  B  B1  1  0.50000000  0.97525800  0.31015000  1
  B  B2  1  0.50000000  0.52474200  0.81015000  1
  B  B3  1  0.50000000  0.47525800  0.18985000  1
  B  B4  1  0.50000000  0.11145700  0.54608000  1
  B  B5  1  0.50000000  0.88854300  0.45392000  1
  B  B6  1  0.50000000  0.61145700  0.95392000  1
  B  B7  1  0.50000000  0.38854300  0.04608000  1
  B  B8  1  0.50000000  0.28140900  0.31714400  1
  B  B9  1  0.50000000  0.71859100  0.68285600  1
  B  B10  1  0.50000000  0.78140900  0.18285600  1
  B  B11  1  0.50000000  0.21859100  0.81714400  1
  B  B12  1  0.50000000  0.36023400  0.46854900  1
  B  B13  1  0.50000000  0.63976600  0.53145100  1
  B  B14  1  0.50000000  0.86023400  0.03145100  1
  B  B15  1  0.50000000  0.13976600  0.96854900  1
loop_
_geom_bond_atom_site_label_1
_geom_bond_atom_site_label_2
_geom_bond_distance
_geom_bond_site_symmetry_2
B0 B4 1.720074 1_555
B0 B9 1.808596 1_545
B0 B11 1.850114 1_555
B0 Co2 2.224252 1_545
B0 Co2 2.224252 1_645
B0 Yb2 2.616195 1_545
B0 Yb2 2.616195 1_645
B0 Yb0 2.673398 1_555
B0 Yb0 2.673398 1_655
B1 B5 1.720074 1_555
B1 B8 1.808596 1_565
B1 B10 1.850114 1_555
B1 Co3 2.224252 1_565
B1 Co3 2.224252 1_665
B1 Yb3 2.616195 1_565
B1 Yb3 2.616195 1_665
B1 Yb1 2.673398 1_655
B1 Yb1 2.673398 1_555
B2 B6 1.720074 1_555
B2 B9 1.850114 1_555
B2 Co0 2.224252 1_655
B2 Co0 2.224252 1_555
B2 Yb0 2.616195 1_655
B2 Yb0 2.616195 1_555
B2 Yb2 2.673398 1_555
B2 Yb2 2.673398 1_655
B3 B7 1.720074 1_555
B3 B8 1.850114 1_555
B3 Co1 2.224252 1_555
B3 Co1 2.224252 1_655
B3 Yb1 2.616195 1_655
B3 Yb1 2.616195 1_555
B3 Yb3 2.673398 1_555
B3 Yb3 2.673398 1_655
B4 B5 1.684901 1_545
B4 Co2 2.248843 1_545
B4 Co2 2.248843 1_645
B4 Co3 2.258543 1_555
B4 Co3 2.258543 1_655
B4 Yb0 2.556349 1_655
B4 Yb0 2.556349 1_555
B5 Co3 2.248843 1_665
B5 Co3 2.248843 1_565
B5 Co2 2.258543 1_655
B5 Co2 2.258543 1_555
B5 Yb1 2.556349 1_555
B5 Yb1 2.556349 1_655
B6 B7 1.684901 1_556
B6 Co0 2.248843 1_555
B6 Co0 2.248843 1_655
B6 Co1 2.258543 1_556
B6 Co1 2.258543 1_656
B6 Yb2 2.556349 1_655
B6 Yb2 2.556349 1_555
B7 Co1 2.248843 1_655
B7 Co1 2.248843 1_555
B7 Co0 2.258543 1_554
B7 Co0 2.258543 1_654
B7 Yb3 2.556349 1_655
B7 Yb3 2.556349 1_555
B8 Co3 2.155780 1_655
B8 Co3 2.155780 1_555
B8 Yb1 2.650012 1_555
B8 Yb1 2.650012 1_655
B8 Yb3 2.677320 1_655
B8 Yb3 2.677320 1_555
B9 Co2 2.155780 1_655
B9 Co2 2.155780 1_555
B9 Yb0 2.650012 1_555
B9 Yb0 2.650012 1_655
B9 Yb2 2.677320 1_555
B9 Yb2 2.677320 1_655
B10 B14 1.790864 1_555
B10 B3 1.808596 1_555
B10 Co1 2.155780 1_655
B10 Co1 2.155780 1_555
B10 Yb3 2.650012 1_565
B10 Yb3 2.650012 1_665
B10 Yb1 2.677320 1_655
B10 Yb1 2.677320 1_555
B11 B15 1.790864 1_555
B11 B2 1.808596 1_555
B11 Co0 2.155780 1_555
B11 Co0 2.155780 1_655
B11 Yb2 2.650012 1_545
B11 Yb2 2.650012 1_645
B11 Yb0 2.677320 1_555
B11 Yb0 2.677320 1_655
B12 B4 1.714622 1_555
B12 B8 1.790864 1_555
B12 B13 1.799398 1_555
B12 Co3 2.220458 1_555
B12 Co3 2.220458 1_655
B12 Yb0 2.657275 1_555
B12 Yb0 2.657275 1_655
B12 Yb1 2.657481 1_655
B12 Yb1 2.657481 1_555
B13 B5 1.714622 1_555
B13 B9 1.790864 1_555
B13 Co2 2.220458 1_655
B13 Co2 2.220458 1_555
B13 Yb1 2.657275 1_555
B13 Yb1 2.657275 1_655
B13 Yb0 2.657481 1_655
B13 Yb0 2.657481 1_555
B14 B6 1.714622 1_554
B14 B15 1.799398 1_564
B14 Co1 2.220458 1_555
B14 Co1 2.220458 1_655
B14 Yb2 2.657275 1_554
B14 Yb2 2.657275 1_654
B14 Yb3 2.657481 1_565
B14 Yb3 2.657481 1_665
B15 B7 1.714622 1_556
B15 Co0 2.220458 1_555
B15 Co0 2.220458 1_655
B15 Yb3 2.657275 1_656
B15 Yb3 2.657275 1_556
B15 Yb2 2.657481 1_545
B15 Yb2 2.657481 1_645
