# generated using pymatgen
data_Na8MgMn2O8
_symmetry_space_group_name_H-M   'P 1'
_cell_length_a   9.04960615
_cell_length_b   5.83804238
_cell_length_c   5.82904295
_cell_angle_alpha   73.26500866
_cell_angle_beta   117.76495522
_cell_angle_gamma   101.65679228
_symmetry_Int_Tables_number   1
_chemical_formula_structural   Na8MgMn2O8
_chemical_formula_sum   'Na8 Mg1 Mn2 O8'
_cell_volume   260.12251584
_cell_formula_units_Z   1
loop_
 _symmetry_equiv_pos_site_id
 _symmetry_equiv_pos_as_xyz
  1  'x, y, z'
loop_
 _atom_site_type_symbol
 _atom_site_label
 _atom_site_symmetry_multiplicity
 _atom_site_fract_x
 _atom_site_fract_y
 _atom_site_fract_z
 _atom_site_occupancy
  Na  Na0  1  0.05140210  0.03510542  0.55552307  1
  Na  Na1  1  0.10044026  0.49964507  0.11478976  1
  Na  Na2  1  0.31868582  0.46303977  0.71724565  1
  Na  Na3  1  0.38016797  0.07264246  0.13537306  1
  Na  Na4  1  0.68038849  0.10545572  0.69786877  1
  Na  Na5  1  0.71357976  0.53952220  0.93130926  1
  Na  Na6  1  0.70347690  0.99434804  0.28607722  1
  Na  Na7  1  0.93125706  0.52643599  0.54799940  1
  Mg  Mg0  1  0.36222867  0.91551943  0.60993867  1
  Mn  Mn0  1  0.49200081  0.54512600  0.32081900  1
  Mn  Mn1  1  0.01569049  0.99842397  0.03895225  1
  O  O0  1  0.12339298  0.24990260  0.86287098  1
  O  O1  1  0.13033243  0.78060681  0.39308282  1
  O  O2  1  0.44216169  0.78681591  0.99462338  1
  O  O3  1  0.40506176  0.26642508  0.51780690  1
  O  O4  1  0.50470568  0.76956110  0.52038971  1
  O  O5  1  0.63564982  0.37149761  0.28616744  1
  O  O6  1  0.91707992  0.79241364  0.79286437  1
  O  O7  1  0.89117640  0.17932318  0.10977129  1
loop_
_geom_bond_atom_site_label_1
_geom_bond_atom_site_label_2
_geom_bond_distance
_geom_bond_site_symmetry_2
Na0 O0 2.254503 1_555
Na0 O6 2.267390 1_445
Na0 O7 2.299100 1_455
Na0 O1 2.341682 1_545
Na1 O6 2.365162 1_454
Na1 O7 2.373410 1_455
Na1 O0 2.442295 1_554
Na1 O1 2.517800 1_555
Na1 O3 2.934795 1_555
Na2 O3 2.292975 1_555
Na2 O0 2.300671 1_555
Na2 O1 2.484311 1_555
Na2 O2 2.580499 1_555
Na2 O4 2.598596 1_555
Na3 O2 2.316864 1_544
Na3 O0 2.362167 1_554
Na3 O4 2.366458 1_545
Na3 O5 2.553782 1_555
Na3 O3 2.679839 1_555
Na4 O5 2.353238 1_555
Na4 O7 2.363515 1_556
Na4 O4 2.412334 1_545
Na4 O3 2.476784 1_555
Na4 O6 2.851069 1_545
Na5 O5 2.376820 1_556
Na5 O6 2.412935 1_555
Na5 O4 2.463499 1_555
Na5 O7 2.575934 1_556
Na6 O7 2.313791 1_565
Na6 O5 2.402468 1_565
Na6 O2 2.496183 1_554
Na6 O4 2.669494 1_555
Na6 O6 2.729111 1_555
Na7 O0 2.335142 1_655
Na7 O1 2.434473 1_655
Na7 O6 2.447931 1_555
Na7 O5 2.513391 1_555
Mg0 O2 1.963172 1_555
Mg0 O3 1.968479 1_565
Mg0 O4 1.997045 1_555
Mg0 O1 2.013981 1_555
Mn0 O5 1.911342 1_555
Mn0 O2 1.929457 1_554
Mn0 O4 1.943088 1_555
Mn0 O3 1.957882 1_555
Mn1 O0 1.909159 1_564
Mn1 O6 1.915119 1_454
Mn1 O7 1.928929 1_465
Mn1 O1 1.995145 1_555
