# generated using pymatgen
data_Co2SiO4
_symmetry_space_group_name_H-M   'P 1'
_cell_length_a   10.22578846
_cell_length_b   4.78452233
_cell_length_c   7.63109627
_cell_angle_alpha   51.48338256
_cell_angle_beta   90.00000000
_cell_angle_gamma   90.00000000
_symmetry_Int_Tables_number   1
_chemical_formula_structural   Co2SiO4
_chemical_formula_sum   'Co8 Si4 O16'
_cell_volume   292.12348389
_cell_formula_units_Z   4
loop_
 _symmetry_equiv_pos_site_id
 _symmetry_equiv_pos_as_xyz
  1  'x, y, z'
loop_
 _atom_site_type_symbol
 _atom_site_label
 _atom_site_symmetry_multiplicity
 _atom_site_fract_x
 _atom_site_fract_y
 _atom_site_fract_z
 _atom_site_occupancy
  Co  Co0  1  0.72573584  0.75997717  0.74678991  1
  Co  Co1  1  0.50000000  -0.00000000  0.00000000  1
  Co  Co2  1  0.77426416  0.75997717  0.24678991  1
  Co  Co3  1  0.22573584  0.24002283  0.75321009  1
  Co  Co4  1  0.00000000  -0.00000000  0.50000000  1
  Co  Co5  1  0.27426416  0.24002283  0.25321009  1
  Co  Co6  1  0.50000000  0.50000000  0.50000000  1
  Co  Co7  1  0.00000000  0.50000000  0.00000000  1
  Si  Si0  1  0.40559083  0.67851594  0.75047044  1
  Si  Si1  1  0.59440917  0.32148406  0.24952956  1
  Si  Si2  1  0.09440917  0.67851594  0.25047044  1
  Si  Si3  1  0.90559083  0.32148406  0.74952956  1
  O  O0  1  0.90795665  0.98157126  0.74962345  1
  O  O1  1  0.16513771  0.75035964  0.03285093  1
  O  O2  1  0.94677491  0.53873518  0.24864638  1
  O  O3  1  0.05322509  0.46126482  0.75135362  1
  O  O4  1  0.83486229  0.24964036  0.96714907  1
  O  O5  1  0.55322509  0.53873518  0.74864638  1
  O  O6  1  0.83738859  0.68801963  0.53129426  1
  O  O7  1  0.16261141  0.31198037  0.46870574  1
  O  O8  1  0.40795665  0.01842874  0.75037655  1
  O  O9  1  0.33738859  0.31198037  0.96870574  1
  O  O10  1  0.66261141  0.68801963  0.03129426  1
  O  O11  1  0.44677491  0.46126482  0.25135362  1
  O  O12  1  0.33486229  0.75035964  0.53285093  1
  O  O13  1  0.09204335  0.01842874  0.25037655  1
  O  O14  1  0.59204335  0.98157126  0.24962345  1
  O  O15  1  0.66513771  0.24964036  0.46714907  1
loop_
_geom_bond_atom_site_label_1
_geom_bond_atom_site_label_2
_geom_bond_distance
_geom_bond_site_symmetry_2
Co0 O15 2.049336 1_565
Co0 O5 2.052785 1_555
Co0 O10 2.077939 1_556
Co0 O0 2.150621 1_555
Co0 O6 2.198071 1_555
Co0 O4 2.218345 1_555
Co1 O8 2.076804 1_554
Co1 O14 2.076804 1_545
Co1 O5 2.112237 1_554
Co1 O11 2.112237 1_545
Co1 O9 2.146193 1_554
Co1 O10 2.146193 1_545
Co2 O4 2.049336 1_564
Co2 O2 2.052785 1_555
Co2 O6 2.077939 1_555
Co2 O14 2.150621 1_555
Co2 O10 2.198071 1_555
Co2 O15 2.218345 1_555
Co3 O1 2.049336 1_546
Co3 O3 2.052785 1_555
Co3 O7 2.077939 1_555
Co3 O8 2.150621 1_555
Co3 O9 2.198071 1_555
Co3 O12 2.218345 1_555
Co4 O13 2.076804 1_555
Co4 O0 2.076804 1_445
Co4 O3 2.112237 1_545
Co4 O2 2.112237 1_455
Co4 O6 2.146193 1_445
Co4 O7 2.146193 1_555
Co5 O12 2.049336 1_545
Co5 O11 2.052785 1_555
Co5 O9 2.077939 1_554
Co5 O13 2.150621 1_555
Co5 O7 2.198071 1_555
Co5 O1 2.218345 1_555
Co6 O8 2.088610 1_555
Co6 O14 2.088610 1_555
Co6 O11 2.090179 1_555
Co6 O5 2.090179 1_555
Co6 O15 2.173311 1_555
Co6 O12 2.173311 1_555
Co7 O0 2.088610 1_454
Co7 O13 2.088610 1_555
Co7 O3 2.090179 1_554
Co7 O2 2.090179 1_455
Co7 O4 2.173311 1_454
Co7 O1 2.173311 1_555
O0 Si3 1.626054 1_565
O1 Si2 1.639551 1_555
O2 Si2 1.654746 1_655
O3 Si3 1.654746 1_455
O4 Si3 1.639551 1_555
O5 Si0 1.654746 1_555
O6 Si3 1.642502 1_555
O7 Si2 1.642502 1_555
O8 Si0 1.626054 1_545
O9 Si0 1.642502 1_555
O10 Si1 1.642502 1_555
O11 Si1 1.654746 1_555
O12 Si0 1.639551 1_555
O13 Si2 1.626054 1_545
O14 Si1 1.626054 1_565
O15 Si1 1.639551 1_555
