# generated using pymatgen
data_Na3CaTaSi(PO6)2
_symmetry_space_group_name_H-M   'P 1'
_cell_length_a   9.20953683
_cell_length_b   9.26288976
_cell_length_c   22.37251850
_cell_angle_alpha   90.06376912
_cell_angle_beta   90.00000000
_cell_angle_gamma   119.80964769
_symmetry_Int_Tables_number   1
_chemical_formula_structural   Na3CaTaSi(PO6)2
_chemical_formula_sum   'Na18 Ca6 Ta6 Si6 P12 O72'
_cell_volume   1655.99594932
_cell_formula_units_Z   6
loop_
 _symmetry_equiv_pos_site_id
 _symmetry_equiv_pos_as_xyz
  1  'x, y, z'
loop_
 _atom_site_type_symbol
 _atom_site_label
 _atom_site_symmetry_multiplicity
 _atom_site_fract_x
 _atom_site_fract_y
 _atom_site_fract_z
 _atom_site_occupancy
  Na  Na0  1  0.99554360  0.01248511  0.49239461  1
  Na  Na1  1  0.01694150  0.01248511  0.99239461  1
  Na  Na2  1  0.67229022  0.31975383  0.82617860  1
  Na  Na3  1  0.64746461  0.31975383  0.32617860  1
  Na  Na4  1  0.34387902  0.65203743  0.15914314  1
  Na  Na5  1  0.30815741  0.65203743  0.65914314  1
  Na  Na6  1  0.67033990  0.02350658  0.24423430  1
  Na  Na7  1  0.98586621  0.63055950  0.23994393  1
  Na  Na8  1  0.64469329  0.63055950  0.73994393  1
  Na  Na9  1  0.35316669  0.02350658  0.74423430  1
  Na  Na10  1  0.33468115  0.35903225  0.58117253  1
  Na  Na11  1  0.64151581  0.95992387  0.57393546  1
  Na  Na12  1  0.31840907  0.95992387  0.07393546  1
  Na  Na13  1  0.02435210  0.35903225  0.08117253  1
  Na  Na14  1  0.99415383  0.69355976  0.91303913  1
  Na  Na15  1  0.68796099  0.00746517  0.90941173  1
  Na  Na16  1  0.31950318  0.00746517  0.40941173  1
  Na  Na17  1  0.69940493  0.69355976  0.41303913  1
  Ca  Ca0  1  0.00681991  0.01312187  0.35125970  1
  Ca  Ca1  1  0.00630196  0.01312187  0.85125970  1
  Ca  Ca2  1  0.67668376  0.33359085  0.68477541  1
  Ca  Ca3  1  0.65690809  0.33359085  0.18477541  1
  Ca  Ca4  1  0.33874491  0.66446890  0.01760514  1
  Ca  Ca5  1  0.32572298  0.66446890  0.51760514  1
  Ta  Ta0  1  0.99272863  0.99549279  0.64847774  1
  Ta  Ta1  1  0.00276415  0.99549279  0.14847774  1
  Ta  Ta2  1  0.66273183  0.33747534  0.98113776  1
  Ta  Ta3  1  0.67474451  0.33747534  0.48113776  1
  Ta  Ta4  1  0.33036616  0.66617732  0.31469561  1
  Ta  Ta5  1  0.33581015  0.66617732  0.81469561  1
  Si  Si0  1  0.29819440  0.98746009  0.25541789  1
  Si  Si1  1  0.68926568  0.98746009  0.75541789  1
  Si  Si2  1  0.67788134  0.63565288  0.58734160  1
  Si  Si3  1  0.95777254  0.63565288  0.08734160  1
  Si  Si4  1  0.34563562  0.97295296  0.92098597  1
  Si  Si5  1  0.62731635  0.97295296  0.42098597  1
  P  P0  1  0.69811224  0.71430225  0.25356357  1
  P  P1  1  0.01641412  0.30391133  0.24780215  1
  P  P2  1  0.28749721  0.30391133  0.74780215  1
  P  P3  1  0.01619001  0.71430225  0.75356357  1
  P  P4  1  0.95705149  0.31402312  0.58425643  1
  P  P5  1  0.36119714  0.04723861  0.58459265  1
  P  P6  1  0.68604246  0.04723861  0.08459265  1
  P  P7  1  0.35697263  0.31402312  0.08425643  1
  P  P8  1  0.62257270  0.64921985  0.91537406  1
  P  P9  1  0.02642298  0.37874302  0.92040923  1
  P  P10  1  0.35231904  0.37874302  0.42040923  1
  P  P11  1  0.02664614  0.64921985  0.41537406  1
  O  O0  1  0.21704942  0.99348464  0.31674356  1
  O  O1  1  0.78622395  0.78961563  0.31167952  1
  O  O2  1  0.97519992  0.18999337  0.30040281  1
  O  O3  1  0.21479345  0.18999337  0.80040281  1
  O  O4  1  0.00339167  0.78961563  0.81167952  1
  O  O5  1  0.77643522  0.99348464  0.81674356  1
  O  O6  1  0.81120172  0.97304685  0.69779342  1
  O  O7  1  0.17701431  0.21004448  0.68970883  1
  O  O8  1  0.04159751  0.84558550  0.70024273  1
  O  O9  1  0.80398799  0.84558550  0.20024273  1
  O  O10  1  0.03303016  0.21004448  0.18970883  1
  O  O11  1  0.16184512  0.97304685  0.19779342  1
  O  O12  1  0.88333276  0.33151424  0.64118948  1
  O  O13  1  0.45521163  0.11864812  0.64240957  1
  O  O14  1  0.65072396  0.53372975  0.64657807  1
  O  O15  1  0.88300678  0.53372975  0.14657807  1
  O  O16  1  0.66343748  0.11864812  0.14240957  1
  O  O17  1  0.44818248  0.33151424  0.14118948  1
  O  O18  1  0.46343659  0.29988638  0.02891838  1
  O  O19  1  0.82776264  0.52487749  0.02839686  1
  O  O20  1  0.70024199  0.17165670  0.03049026  1
  O  O21  1  0.47141571  0.17165670  0.53049026  1
  O  O22  1  0.69711585  0.52487749  0.52839686  1
  O  O23  1  0.83645078  0.29988638  0.52891838  1
  O  O24  1  0.55009305  0.68397870  0.96935612  1
  O  O25  1  0.10970114  0.44812098  0.97961636  1
  O  O26  1  0.33251328  0.87555477  0.98047631  1
  O  O27  1  0.54304049  0.87555477  0.48047631  1
  O  O28  1  0.33841885  0.44812098  0.47961636  1
  O  O29  1  0.13388465  0.68397870  0.46935612  1
  O  O30  1  0.12147335  0.62643554  0.35841447  1
  O  O31  1  0.48676554  0.85164888  0.36308026  1
  O  O32  1  0.36102529  0.49931504  0.36722849  1
  O  O33  1  0.13828875  0.49931504  0.86722849  1
  O  O34  1  0.36488234  0.85164888  0.86308026  1
  O  O35  1  0.50496119  0.62643554  0.85841447  1
  O  O36  1  0.98438717  0.78754252  0.40729918  1
  O  O37  1  0.80824963  0.99184503  0.41430821  1
  O  O38  1  0.21707765  0.19773557  0.41330558  1
  O  O39  1  0.98065792  0.19773557  0.91330558  1
  O  O40  1  0.18359540  0.99184503  0.91430821  1
  O  O41  1  0.80315534  0.78754252  0.90729918  1
  O  O42  1  0.94826320  0.13703193  0.58443520  1
  O  O43  1  0.19306151  0.05444236  0.58507247  1
  O  O44  1  0.85822430  0.82078780  0.59238633  1
  O  O45  1  0.96256349  0.82078780  0.09238633  1
  O  O46  1  0.86138085  0.05444236  0.08507247  1
  O  O47  1  0.18876874  0.13703193  0.08443520  1
  O  O48  1  0.63619955  0.12666370  0.74868060  1
  O  O49  1  0.46926347  0.34434630  0.74186365  1
  O  O50  1  0.86538689  0.54484130  0.74431540  1
  O  O51  1  0.67945541  0.54484130  0.24431540  1
  O  O52  1  0.87508383  0.34434630  0.24186365  1
  O  O53  1  0.49046515  0.12666370  0.24868060  1
  O  O54  1  0.62351804  0.47895366  0.92143819  1
  O  O55  1  0.85662718  0.38729485  0.91868839  1
  O  O56  1  0.53061914  0.15225003  0.92171453  1
  O  O57  1  0.62163189  0.15225003  0.42171453  1
  O  O58  1  0.53066866  0.38729485  0.41868839  1
  O  O59  1  0.85543663  0.47895366  0.42143819  1
  O  O60  1  0.31151432  0.44899830  0.07645745  1
  O  O61  1  0.14779229  0.67259736  0.08106159  1
  O  O62  1  0.54182854  0.87209697  0.07621188  1
  O  O63  1  0.33026743  0.87209697  0.57621188  1
  O  O64  1  0.52480407  0.67259736  0.58106159  1
  O  O65  1  0.13748298  0.44899830  0.57645745  1
  O  O66  1  0.28809973  0.79719398  0.25444255  1
  O  O67  1  0.52321220  0.70915518  0.25337789  1
  O  O68  1  0.18785759  0.47163147  0.25506711  1
  O  O69  1  0.28377288  0.47163147  0.75506711  1
  O  O70  1  0.18594198  0.70915518  0.75337789  1
  O  O71  1  0.50909324  0.79719398  0.75444255  1
loop_
_geom_bond_atom_site_label_1
_geom_bond_atom_site_label_2
_geom_bond_distance
_geom_bond_site_symmetry_2
Na0 O37 2.394818 1_545
Na0 O42 2.500984 1_555
Na0 O38 2.600742 1_655
Na0 O43 2.656019 1_655
Na0 O44 2.744629 1_545
Na0 O36 2.784743 1_545
Na1 O40 2.394818 1_545
Na1 O47 2.500984 1_556
Na1 O39 2.600742 1_455
Na1 O46 2.656019 1_456
Na1 O45 2.744629 1_446
Na1 O41 2.784743 1_445
Na2 O48 2.391162 1_555
Na2 O55 2.549147 1_555
Na2 O56 2.583164 1_555
Na2 O50 2.680666 1_555
Na2 O49 2.744209 1_555
Na2 O54 2.751346 1_555
Na3 O53 2.391162 1_555
Na3 O58 2.549147 1_555
Na3 O57 2.583164 1_555
Na3 O51 2.680666 1_555
Na3 O52 2.744209 1_555
Na3 O59 2.751346 1_555
Na4 O60 2.546168 1_555
Na4 O67 2.565377 1_555
Na4 O61 2.586832 1_555
Na4 O68 2.661464 1_555
Na4 O62 2.689734 1_555
Na4 O66 2.701463 1_555
Na5 O65 2.546168 1_555
Na5 O70 2.565377 1_555
Na5 O64 2.586832 1_555
Na5 O69 2.661464 1_555
Na5 O63 2.689734 1_555
Na5 O71 2.701463 1_555
Na6 O53 2.289260 1_555
Na6 O16 2.455708 1_555
Na6 O67 2.536736 1_545
Na6 O52 2.611381 1_555
Na6 O9 2.685690 1_545
Na6 O2 2.744254 1_555
Na7 O15 2.283881 1_555
Na7 O52 2.319999 1_555
Na7 O66 2.441824 1_655
Na7 O51 2.524999 1_555
Na7 O68 2.909645 1_655
Na7 O11 2.911174 1_655
Na7 O30 2.938347 1_655
Na8 O14 2.283883 1_555
Na8 O49 2.319998 1_555
Na8 O71 2.441832 1_555
Na8 O50 2.525008 1_555
Na8 O69 2.909654 1_555
Na8 O6 2.911174 1_555
Na8 O35 2.938351 1_555
Na9 O48 2.289269 1_555
Na9 O13 2.455710 1_555
Na9 O70 2.536736 1_545
Na9 O49 2.611380 1_555
Na9 O8 2.685690 1_545
Na9 O3 2.744254 1_555
Na10 O65 2.347072 1_555
Na10 O28 2.412549 1_555
Na10 O43 2.451700 1_555
Na10 O64 2.538838 1_555
Na10 O7 2.815028 1_555
Na10 O21 2.837701 1_555
Na10 O14 2.922898 1_555
Na11 O27 2.257622 1_555
Na11 O64 2.328281 1_555
Na11 O42 2.473558 1_565
Na11 O63 2.561749 1_555
Na11 O44 2.893632 1_555
Na11 O23 2.922329 1_565
Na12 O26 2.257618 1_554
Na12 O61 2.328283 1_555
Na12 O47 2.473566 1_565
Na12 O62 2.561731 1_555
Na12 O45 2.893641 1_455
Na12 O18 2.922329 1_565
Na13 O60 2.347054 1_555
Na13 O25 2.412546 1_554
Na13 O46 2.451701 1_455
Na13 O61 2.538841 1_555
Na13 O10 2.815025 1_555
Na13 O20 2.837701 1_455
Na13 O15 2.922898 1_455
Na14 O41 2.321895 1_555
Na14 O4 2.422903 1_655
Na14 O40 2.426078 1_655
Na14 O55 2.469116 1_555
Na15 O5 2.254603 1_545
Na15 O39 2.378288 1_555
Na15 O56 2.430113 1_555
Na15 O41 2.725080 1_545
Na16 O0 2.254599 1_545
Na16 O38 2.378281 1_555
Na16 O57 2.430129 1_555
Na16 O36 2.725073 1_445
Na17 O36 2.321903 1_555
Na17 O1 2.422904 1_555
Na17 O37 2.426076 1_555
Na17 O58 2.469115 1_555
Ca0 O2 2.131206 1_455
Ca0 O0 2.174346 1_545
Ca0 O1 2.238703 1_445
Ca0 O37 2.239436 1_445
Ca0 O38 2.302869 1_555
Ca0 O36 2.357386 1_445
Ca1 O3 2.131206 1_555
Ca1 O5 2.174346 1_445
Ca1 O4 2.238703 1_545
Ca1 O40 2.239436 1_545
Ca1 O39 2.302869 1_455
Ca1 O41 2.357386 1_445
Ca2 O12 2.146985 1_555
Ca2 O14 2.160661 1_555
Ca2 O13 2.231788 1_555
Ca2 O48 2.269932 1_555
Ca2 O50 2.288392 1_555
Ca2 O49 2.340759 1_555
Ca3 O17 2.146985 1_555
Ca3 O15 2.160661 1_555
Ca3 O16 2.231788 1_555
Ca3 O53 2.269932 1_555
Ca3 O51 2.288392 1_555
Ca3 O52 2.340759 1_555
Ca4 O26 2.152102 1_554
Ca4 O24 2.153400 1_554
Ca4 O25 2.231866 1_554
Ca4 O61 2.290239 1_555
Ca4 O60 2.299623 1_555
Ca4 O62 2.309576 1_555
Ca5 O27 2.152102 1_555
Ca5 O29 2.153399 1_555
Ca5 O28 2.231866 1_555
Ca5 O64 2.290239 1_555
Ca5 O65 2.299623 1_555
Ca5 O63 2.309576 1_555
O0 Si0 1.576479 1_555
O1 P0 1.506924 1_555
O2 P1 1.498989 1_655
O3 P2 1.498989 1_555
O4 P3 1.506924 1_555
O5 Si1 1.576479 1_555
O6 Si1 1.757733 1_555
O6 Ta0 1.926215 1_555
O7 P2 1.611951 1_555
O7 Ta0 2.079276 1_445
O8 P3 1.636136 1_555
O8 Ta0 2.024066 1_455
O9 P0 1.636136 1_555
O9 Ta1 2.024065 1_655
O10 P1 1.611951 1_555
O10 Ta1 2.079276 1_545
O11 Si0 1.757733 1_555
O11 Ta1 1.926215 1_555
O12 P4 1.489457 1_555
O13 P5 1.512958 1_555
O14 Si2 1.574243 1_555
O15 Si3 1.574243 1_555
O16 P6 1.512958 1_555
O17 P7 1.489457 1_555
O18 P7 1.624364 1_555
O18 Ta2 1.999535 1_554
O19 Si3 1.732353 1_555
O19 Ta2 1.952939 1_554
O20 P6 1.632066 1_555
O20 Ta2 2.056441 1_554
O21 P5 1.632066 1_555
O21 Ta3 2.056441 1_555
O22 Si2 1.732353 1_555
O22 Ta3 1.952939 1_555
O23 P4 1.624364 1_555
O23 Ta3 1.999534 1_555
O24 P8 1.490171 1_555
O25 P9 1.504617 1_555
O26 Si4 1.579318 1_555
O27 Si5 1.579318 1_555
O28 P10 1.504617 1_555
O29 P11 1.490171 1_555
O30 P11 1.616721 1_555
O30 Ta4 2.022352 1_555
O31 Si5 1.779619 1_555
O31 Ta4 1.932233 1_555
O32 P10 1.607262 1_555
O32 Ta4 2.070736 1_555
O33 P9 1.607262 1_555
O33 Ta5 2.070736 1_555
O34 Si4 1.779619 1_555
O34 Ta5 1.932233 1_555
O35 P8 1.616721 1_555
O35 Ta5 2.022352 1_555
O36 P11 1.523825 1_655
O37 Si5 1.593637 1_555
O38 P10 1.520152 1_555
O39 P9 1.520155 1_655
O40 Si4 1.593628 1_555
O41 P8 1.523831 1_555
O42 P4 1.600766 1_555
O42 Ta0 2.115998 1_545
O43 P5 1.582718 1_555
O43 Ta0 2.171272 1_445
O44 Si2 1.697009 1_555
O44 Ta0 1.931441 1_555
O45 Si3 1.697013 1_555
O45 Ta1 1.931441 1_655
O46 P6 1.582709 1_555
O46 Ta1 2.171272 1_645
O47 P7 1.600770 1_555
O47 Ta1 2.115999 1_545
O48 Si1 1.597232 1_545
O49 P2 1.528691 1_555
O50 P3 1.505788 1_655
O51 P0 1.505791 1_555
O52 P1 1.528682 1_655
O53 Si0 1.597239 1_545
O54 P8 1.587462 1_555
O54 Ta2 2.026371 1_555
O55 P9 1.605057 1_655
O55 Ta2 2.129741 1_555
O56 Si4 1.687516 1_545
O56 Ta2 2.027539 1_555
O57 Si5 1.687506 1_545
O57 Ta3 2.027539 1_555
O58 P10 1.605075 1_555
O58 Ta3 2.129741 1_555
O59 P11 1.587452 1_655
O59 Ta3 2.026371 1_555
O60 P7 1.513194 1_555
O61 Si3 1.613696 1_455
O62 P6 1.512646 1_565
O63 P5 1.512640 1_565
O64 Si2 1.613714 1_555
O65 P4 1.513181 1_455
O66 Si0 1.718206 1_555
O66 Ta4 1.978581 1_555
O67 P0 1.587592 1_555
O67 Ta4 2.119650 1_555
O68 P1 1.579109 1_555
O68 Ta4 2.095888 1_555
O69 P2 1.579114 1_555
O69 Ta5 2.095888 1_555
O70 P3 1.587582 1_555
O70 Ta5 2.119650 1_555
O71 Si1 1.718211 1_555
O71 Ta5 1.978581 1_555
