# generated using pymatgen
data_AlV2O4
_symmetry_space_group_name_H-M   'P 1'
_cell_length_a   5.80799452
_cell_length_b   10.15662777
_cell_length_c   5.82868698
_cell_angle_alpha   89.93891426
_cell_angle_beta   59.98198998
_cell_angle_gamma   73.36360251
_symmetry_Int_Tables_number   1
_chemical_formula_structural   AlV2O4
_chemical_formula_sum   'Al4 V8 O16'
_cell_volume   281.03223816
_cell_formula_units_Z   4
loop_
 _symmetry_equiv_pos_site_id
 _symmetry_equiv_pos_as_xyz
  1  'x, y, z'
loop_
 _atom_site_type_symbol
 _atom_site_label
 _atom_site_symmetry_multiplicity
 _atom_site_fract_x
 _atom_site_fract_y
 _atom_site_fract_z
 _atom_site_occupancy
  Al  Al0  1  0.61671464  0.31404492  0.94359105  1
  Al  Al1  1  0.63110548  0.80683064  0.43356422  1
  Al  Al2  1  0.37032125  0.18360018  0.57104157  1
  Al  Al3  1  0.37146609  0.69019722  0.05923420  1
  V  V0  1  0.99365193  -0.00001525  0.00297847  1
  V  V1  1  0.00313852  0.49985114  0.50500210  1
  V  V2  1  0.50438818  0.49795707  0.49439024  1
  V  V3  1  0.99862719  0.99671370  0.50842456  1
  V  V4  1  1.00038975  0.75718400  0.74325379  1
  V  V5  1  0.51276082  0.99641777  0.99940487  1
  V  V6  1  0.00280958  0.50239717  0.98143101  1
  V  V7  1  0.98888174  0.25165292  0.26143639  1
  O  O0  1  0.24772066  0.12262576  0.38121721  1
  O  O1  1  0.25171517  0.63060944  0.86554061  1
  O  O2  1  0.75184114  0.37446015  0.11878476  1
  O  O3  1  0.74848587  0.87379864  0.62005533  1
  O  O4  1  0.74602819  0.37447899  0.63168285  1
  O  O5  1  0.75242205  0.87276677  0.12845557  1
  O  O6  1  0.25339967  0.36878709  0.62193805  1
  O  O7  1  0.25274171  0.87582053  0.12262124  1
  O  O8  1  0.74628216  0.12421845  0.38558697  1
  O  O9  1  0.74875048  0.63065935  0.86954772  1
  O  O10  1  0.74351342  0.12881032  0.88271466  1
  O  O11  1  0.76471470  0.62228926  0.36245155  1
  O  O12  1  0.24811601  0.12372958  0.88811430  1
  O  O13  1  0.25366032  0.62741675  0.36821257  1
  O  O14  1  0.23833006  0.37787926  0.12610159  1
  O  O15  1  0.25802722  0.87481917  0.62322456  1
loop_
_geom_bond_atom_site_label_1
_geom_bond_atom_site_label_2
_geom_bond_distance
_geom_bond_site_symmetry_2
Al0 O2 1.764691 1_556
Al0 O4 1.772410 1_555
Al0 O10 1.776062 1_555
Al0 O14 1.796716 1_556
Al1 O3 1.765650 1_555
Al1 O5 1.766778 1_555
Al1 O11 1.770328 1_555
Al1 O15 1.772646 1_555
Al2 O6 1.776265 1_555
Al2 O0 1.776789 1_555
Al2 O8 1.784910 1_555
Al2 O12 1.794815 1_555
Al3 O13 1.769908 1_555
Al3 O1 1.775595 1_554
Al3 O7 1.780047 1_555
Al3 O9 1.791196 1_554
O0 V3 2.064538 1_445
O0 V7 2.094026 1_455
O0 V5 2.100958 1_544
O1 V4 2.063006 1_455
O1 V6 2.083483 1_555
O1 V2 2.084809 1_555
O2 V2 2.063324 1_555
O2 V7 2.074215 1_555
O2 V6 2.090163 1_654
O3 V4 2.028828 1_555
O3 V3 2.045368 1_555
O3 V5 2.077290 1_555
O4 V7 2.038520 1_555
O4 V2 2.072822 1_555
O4 V1 2.092879 1_655
O5 V5 2.031051 1_554
O5 V0 2.043704 1_565
O5 V4 2.072563 1_554
O6 V6 2.043089 1_555
O6 V1 2.056860 1_555
O6 V2 2.099410 1_555
O7 V5 2.066121 1_554
O7 V0 2.074256 1_465
O7 V3 2.095289 1_455
O8 V7 2.050920 1_555
O8 V3 2.073380 1_545
O8 V0 2.095675 1_555
O9 V6 2.039600 1_655
O9 V1 2.050336 1_655
O9 V4 2.079966 1_555
O10 V5 2.045674 1_545
O10 V0 2.059745 1_556
O10 V3 2.094908 1_545
O11 V6 2.072689 1_654
O11 V1 2.077823 1_655
O11 V2 2.097602 1_555
O12 V0 2.069760 1_456
O12 V7 2.073116 1_456
O12 V5 2.076800 1_545
O13 V1 2.085184 1_555
O13 V4 2.087631 1_455
O13 V2 2.088899 1_555
O14 V7 2.069487 1_455
O14 V1 2.072802 1_555
O14 V6 2.083959 1_554
O15 V4 2.032364 1_455
O15 V3 2.046749 1_455
O15 V0 2.088289 1_466
