# generated using pymatgen
data_LiVP4O13
_symmetry_space_group_name_H-M   'P 1'
_cell_length_a   5.06336500
_cell_length_b   7.87818027
_cell_length_c   14.36444782
_cell_angle_alpha   83.82250641
_cell_angle_beta   85.38212163
_cell_angle_gamma   81.51017846
_symmetry_Int_Tables_number   1
_chemical_formula_structural   LiVP4O13
_chemical_formula_sum   'Li2 V2 P8 O26'
_cell_volume   562.21154834
_cell_formula_units_Z   2
loop_
 _symmetry_equiv_pos_site_id
 _symmetry_equiv_pos_as_xyz
  1  'x, y, z'
loop_
 _atom_site_type_symbol
 _atom_site_label
 _atom_site_symmetry_multiplicity
 _atom_site_fract_x
 _atom_site_fract_y
 _atom_site_fract_z
 _atom_site_occupancy
  Li  Li0  1  0.49973700  0.49887800  0.50285300  1
  Li  Li1  1  0.99524600  0.60125100  0.01515900  1
  V  V0  1  0.42021600  0.06020200  0.25846400  1
  V  V1  1  0.57120400  0.93715400  0.73664900  1
  P  P0  1  0.13298700  0.77107900  0.63569100  1
  P  P1  1  0.29486100  0.67192900  0.29872600  1
  P  P2  1  0.34699600  0.58271400  0.81059700  1
  P  P3  1  0.63841400  0.42081700  0.18425000  1
  P  P4  1  0.69234400  0.32575900  0.70456400  1
  P  P5  1  0.85567100  0.22998500  0.35853200  1
  P  P6  1  0.98239000  0.88582500  0.15994600  1
  P  P7  1  0.00583900  0.10133200  0.84189600  1
  O  O0  1  0.16068600  0.02338200  0.18066700  1
  O  O1  1  0.01579300  0.74555300  0.25415000  1
  O  O2  1  0.06311600  0.79847300  0.07407600  1
  O  O3  1  0.15248200  0.14744700  0.34851200  1
  O  O4  1  0.27892800  0.53876600  0.37806000  1
  O  O5  1  0.15446700  0.62683700  0.72623600  1
  O  O6  1  0.30370900  0.02498900  0.82784600  1
  O  O7  1  0.23010200  0.69280100  0.54812600  1
  O  O8  1  0.44290700  0.28471400  0.19678200  1
  O  O9  1  0.19715300  0.57156800  0.90244300  1
  O  O10  1  0.46950400  0.60140700  0.20806400  1
  O  O11  1  0.41566600  0.83456800  0.31686100  1
  O  O12  1  0.30627300  0.90842700  0.66017400  1
  O  O13  1  0.68145200  0.09223800  0.33440500  1
  O  O14  1  0.57486500  0.16480500  0.68227300  1
  O  O15  1  0.50400100  0.39635300  0.79264600  1
  O  O16  1  0.78576600  0.44878500  0.09275300  1
  O  O17  1  0.76487800  0.30564100  0.44705200  1
  O  O18  1  0.68736500  0.96761000  0.16886300  1
  O  O19  1  0.55480100  0.71068500  0.79495800  1
  O  O20  1  0.83322200  0.37358400  0.26818200  1
  O  O21  1  0.71532700  0.45818400  0.62488100  1
  O  O22  1  0.91524800  0.16545500  0.93292400  1
  O  O23  1  0.83570200  0.85253500  0.64236500  1
  O  O24  1  0.96544600  0.25353900  0.75255400  1
  O  O25  1  0.83635100  0.96396200  0.81160000  1
loop_
_geom_bond_atom_site_label_1
_geom_bond_atom_site_label_2
_geom_bond_distance
_geom_bond_site_symmetry_2
Li0 O7 2.018887 1_555
Li0 O17 2.061131 1_555
Li0 O21 2.109682 1_555
Li0 O4 2.158668 1_555
Li1 O9 1.861640 1_654
Li1 O16 1.925567 1_555
Li1 O2 1.932865 1_655
O0 P6 1.574663 1_445
O0 V0 1.865100 1_555
O1 P1 1.602129 1_555
O1 P6 1.655528 1_455
O2 P6 1.476674 1_455
O3 P5 1.548839 1_455
O3 V0 1.901883 1_555
O4 P1 1.469229 1_555
O5 P2 1.593460 1_555
O5 P0 1.631865 1_555
O6 P7 1.544823 1_555
O6 V1 1.913648 1_545
O7 P0 1.477170 1_555
O8 P3 1.550882 1_555
O8 V0 1.906053 1_555
O9 P2 1.468846 1_555
O10 P3 1.603422 1_555
O10 P1 1.616126 1_555
O11 P1 1.553270 1_555
O11 V0 1.884691 1_565
O12 P0 1.573621 1_555
O12 V1 1.854147 1_555
O13 P5 1.577577 1_555
O13 V0 1.842128 1_555
O14 P4 1.550809 1_555
O14 V1 1.879623 1_545
O15 P2 1.599339 1_555
O15 P4 1.618691 1_555
O16 P3 1.470008 1_555
O17 P5 1.473598 1_555
O18 P6 1.538118 1_555
O18 V0 1.910172 1_565
O19 P2 1.549327 1_555
O19 V1 1.898054 1_555
O20 P3 1.597354 1_555
O20 P5 1.626933 1_555
O21 P4 1.472911 1_555
O22 P7 1.467139 1_655
O23 P0 1.546481 1_655
O23 V1 1.926363 1_555
O24 P4 1.596205 1_555
O24 P7 1.662932 1_655
O25 P7 1.591476 1_665
O25 V1 1.836175 1_555
