# generated using pymatgen
data_BiSe
_symmetry_space_group_name_H-M   'P 1'
_cell_length_a   4.22755345
_cell_length_b   4.22755244
_cell_length_c   24.14733097
_cell_angle_alpha   90.00000000
_cell_angle_beta   90.00000000
_cell_angle_gamma   119.99999191
_symmetry_Int_Tables_number   1
_chemical_formula_structural   BiSe
_chemical_formula_sum   'Bi6 Se6'
_cell_volume   373.74716939
_cell_formula_units_Z   6
loop_
 _symmetry_equiv_pos_site_id
 _symmetry_equiv_pos_as_xyz
  1  'x, y, z'
loop_
 _atom_site_type_symbol
 _atom_site_label
 _atom_site_symmetry_multiplicity
 _atom_site_fract_x
 _atom_site_fract_y
 _atom_site_fract_z
 _atom_site_occupancy
  Bi  Bi0  1  0.66666700  0.33333300  0.46358940  1
  Bi  Bi1  1  0.33333300  0.66666700  0.53641060  1
  Bi  Bi2  1  0.66666700  0.33333300  0.71494167  1
  Bi  Bi3  1  0.33333300  0.66666700  0.28505833  1
  Bi  Bi4  1  0.00000000  0.00000000  0.87241365  1
  Bi  Bi5  1  -0.00000000  -0.00000000  0.12758635  1
  Se  Se0  1  -0.00000000  -0.00000000  0.65121354  1
  Se  Se1  1  0.00000000  0.00000000  0.34878646  1
  Se  Se2  1  0.66666700  0.33333300  0.20733152  1
  Se  Se3  1  0.33333300  0.66666700  0.79266848  1
  Se  Se4  1  0.66666700  0.33333300  0.93465673  1
  Se  Se5  1  0.33333300  0.66666700  0.06534327  1
loop_
_geom_bond_atom_site_label_1
_geom_bond_atom_site_label_2
_geom_bond_distance
_geom_bond_site_symmetry_2
Bi0 Bi1 3.008237 1_545
Bi0 Bi1 3.008238 1_655
Bi0 Bi1 3.008243 1_555
Bi2 Se0 2.885393 1_655
Bi2 Se0 2.885396 1_665
Bi2 Se0 2.885396 1_555
Bi2 Se3 3.078981 1_545
Bi2 Se3 3.078981 1_655
Bi2 Se3 3.078987 1_555
Bi3 Se1 2.885393 1_565
Bi3 Se1 2.885396 1_555
Bi3 Se1 2.885396 1_665
Bi3 Se2 3.078981 1_565
Bi3 Se2 3.078981 1_455
Bi3 Se2 3.078987 1_555
Bi4 Se4 2.866428 1_455
Bi4 Se4 2.866431 1_445
Bi4 Se4 2.866432 1_555
Bi4 Se3 3.108931 1_545
Bi4 Se3 3.108934 1_555
Bi4 Se3 3.108934 1_445
Bi5 Se5 2.866428 1_545
Bi5 Se5 2.866431 1_555
Bi5 Se5 2.866432 1_445
Bi5 Se2 3.108931 1_455
Bi5 Se2 3.108934 1_445
Bi5 Se2 3.108934 1_555
