# generated using pymatgen
data_MgTlV4FeS8
_symmetry_space_group_name_H-M   'P 1'
_cell_length_a   3.44875402
_cell_length_b   9.04602965
_cell_length_c   9.06040210
_cell_angle_alpha   104.39935973
_cell_angle_beta   100.97730268
_cell_angle_gamma   90.00965846
_symmetry_Int_Tables_number   1
_chemical_formula_structural   MgTlV4FeS8
_chemical_formula_sum   'Mg1 Tl1 V4 Fe1 S8'
_cell_volume   268.43724784
_cell_formula_units_Z   1
loop_
 _symmetry_equiv_pos_site_id
 _symmetry_equiv_pos_as_xyz
  1  'x, y, z'
loop_
 _atom_site_type_symbol
 _atom_site_label
 _atom_site_symmetry_multiplicity
 _atom_site_fract_x
 _atom_site_fract_y
 _atom_site_fract_z
 _atom_site_occupancy
  Mg  Mg0  1  0.95573700  0.18351300  0.91018200  1
  Tl  Tl0  1  0.50908800  0.93109900  0.01622300  1
  V  V0  1  0.70161900  0.82663400  0.40276700  1
  V  V1  1  0.28902500  0.17763100  0.57682700  1
  V  V2  1  0.64932600  0.49868300  0.29780600  1
  V  V3  1  0.33866000  0.51613100  0.67735900  1
  Fe  Fe0  1  0.02096300  0.51504600  0.04012700  1
  S  S0  1  0.82659300  0.01836600  0.65206000  1
  S  S1  1  0.16589300  0.98606600  0.33100200  1
  S  S2  1  0.75607800  0.35114100  0.51157700  1
  S  S3  1  0.23831100  0.65859900  0.47619000  1
  S  S4  1  0.92129900  0.65309400  0.84176500  1
  S  S5  1  0.09061000  0.33601700  0.18076500  1
  S  S6  1  0.57147600  0.66409400  0.14148000  1
  S  S7  1  0.42960700  0.35576000  0.85815700  1
loop_
_geom_bond_atom_site_label_1
_geom_bond_atom_site_label_2
_geom_bond_distance
_geom_bond_site_symmetry_2
Mg0 S0 2.401052 1_555
Mg0 S7 2.445126 1_655
Mg0 S7 2.446001 1_555
Mg0 S5 2.452184 1_656
Mg0 Tl0 3.187956 1_546
Mg0 Tl0 3.189501 1_646
Fe0 S6 2.232744 1_555
Fe0 S6 2.234107 1_455
Fe0 S5 2.283438 1_555
Fe0 S4 2.405996 1_454
Fe0 S7 2.546506 1_554
Fe0 S7 2.547687 1_454
S0 V0 2.444637 1_545
S0 V1 2.446507 1_655
S0 V1 2.446517 1_555
S1 V1 2.421559 1_565
S1 V0 2.434372 1_555
S1 V0 2.434884 1_455
S1 Tl0 3.216550 1_455
S1 Tl0 3.219106 1_555
S2 V1 2.496179 1_555
S2 V1 2.497997 1_655
S2 V3 2.501041 1_655
S2 V3 2.503064 1_555
S2 V2 2.585068 1_555
S3 V3 2.455819 1_555
S3 V0 2.492609 1_555
S3 V0 2.492778 1_455
S3 V2 2.533134 1_455
S3 V2 2.534658 1_555
S4 V3 2.392689 1_655
S4 V3 2.394341 1_555
S4 Tl0 3.118306 1_556
S4 Tl0 3.119798 1_656
S5 V2 2.333495 1_455
S5 V2 2.333968 1_555
S6 V2 2.286163 1_555
S6 V0 2.414885 1_555
S6 Tl0 2.904924 1_555
S7 V3 2.423379 1_555
S7 V1 2.610564 1_555
