# generated using pymatgen
data_Na6Nb3Al(SiO4)6
_symmetry_space_group_name_H-M   'P 1'
_cell_length_a   9.01456847
_cell_length_b   9.01751497
_cell_length_c   22.25030745
_cell_angle_alpha   90.04988884
_cell_angle_beta   90.00722065
_cell_angle_gamma   119.96785669
_symmetry_Int_Tables_number   1
_chemical_formula_structural   Na6Nb3Al(SiO4)6
_chemical_formula_sum   'Na18 Nb9 Al3 Si18 O72'
_cell_volume   1566.89098539
_cell_formula_units_Z   3
loop_
 _symmetry_equiv_pos_site_id
 _symmetry_equiv_pos_as_xyz
  1  'x, y, z'
loop_
 _atom_site_type_symbol
 _atom_site_label
 _atom_site_symmetry_multiplicity
 _atom_site_fract_x
 _atom_site_fract_y
 _atom_site_fract_z
 _atom_site_occupancy
  Na  Na0  1  0.00841548  0.00060443  0.49797678  1
  Na  Na1  1  0.98958883  0.99035827  0.99693663  1
  Na  Na2  1  0.66662266  0.33232302  0.83323017  1
  Na  Na3  1  0.66677432  0.33268857  0.32647084  1
  Na  Na4  1  0.34435746  0.66765759  0.16363607  1
  Na  Na5  1  0.32344272  0.65710330  0.66512438  1
  Na  Na6  1  0.63519883  0.01188730  0.24497289  1
  Na  Na7  1  0.37550044  0.36385767  0.24398995  1
  Na  Na8  1  0.98895329  0.62353968  0.24449070  1
  Na  Na9  1  0.63492207  0.62472453  0.74519126  1
  Na  Na10  1  0.98860985  0.36408932  0.74571278  1
  Na  Na11  1  0.37657489  0.01044905  0.74624299  1
  Na  Na12  1  0.66633454  0.96745707  0.58652482  1
  Na  Na13  1  0.30279754  0.97234379  0.08396577  1
  Na  Na14  1  0.03053507  0.33570422  0.08408457  1
  Na  Na15  1  0.96512429  0.28886530  0.41133128  1
  Na  Na16  1  0.32433015  0.03355686  0.41148641  1
  Na  Na17  1  0.71045859  0.67726663  0.41189922  1
  Nb  Nb0  1  0.00101307  0.00098053  0.85548194  1
  Nb  Nb1  1  0.00476334  0.00019402  0.64284359  1
  Nb  Nb2  1  0.99563191  0.99610842  0.14549928  1
  Nb  Nb3  1  0.66734478  0.33457771  0.97734739  1
  Nb  Nb4  1  0.66634178  0.33460036  0.48076516  1
  Nb  Nb5  1  0.33805401  0.66693909  0.02205819  1
  Nb  Nb6  1  0.32900380  0.66231372  0.52329257  1
  Nb  Nb7  1  0.33291469  0.66671688  0.31082192  1
  Nb  Nb8  1  0.33394286  0.66718200  0.81316074  1
  Al  Al0  1  0.99948634  0.99984689  0.35191122  1
  Al  Al1  1  0.66723857  0.33407757  0.68749652  1
  Al  Al2  1  0.66605092  0.33340820  0.18779530  1
  Si  Si0  1  0.29044815  0.00743600  0.25293937  1
  Si  Si1  1  0.71644886  0.70865794  0.25376540  1
  Si  Si2  1  0.99289730  0.28294618  0.25256911  1
  Si  Si3  1  0.29550211  0.28968886  0.74851048  1
  Si  Si4  1  0.99351403  0.70381618  0.74899765  1
  Si  Si5  1  0.71041984  0.00567572  0.74786304  1
  Si  Si6  1  0.95260541  0.33692280  0.58806392  1
  Si  Si7  1  0.38228348  0.04961944  0.58683774  1
  Si  Si8  1  0.66506224  0.61636915  0.58793299  1
  Si  Si9  1  0.94722293  0.61543964  0.08729495  1
  Si  Si10  1  0.66542161  0.05093915  0.08748739  1
  Si  Si11  1  0.38753338  0.33724248  0.08825103  1
  Si  Si12  1  0.62609406  0.66693192  0.91606811  1
  Si  Si13  1  0.04167053  0.37526038  0.91719795  1
  Si  Si14  1  0.33279267  0.95791708  0.91771074  1
  Si  Si15  1  0.63016891  0.95739504  0.41658967  1
  Si  Si16  1  0.32774570  0.37032742  0.41513168  1
  Si  Si17  1  0.04311845  0.67283791  0.41568220  1
  O  O0  1  0.19765307  0.03314139  0.31121682  1
  O  O1  1  0.83387389  0.79911449  0.31243322  1
  O  O2  1  0.96612649  0.16426794  0.31089061  1
  O  O3  1  0.19897928  0.16276302  0.80595772  1
  O  O4  1  0.96479164  0.80177171  0.80625326  1
  O  O5  1  0.83934392  0.03460071  0.80467470  1
  O  O6  1  0.79481322  0.96481355  0.68879472  1
  O  O7  1  0.16150871  0.19727344  0.69178980  1
  O  O8  1  0.03306691  0.83676407  0.69207151  1
  O  O9  1  0.80686131  0.83887402  0.19555421  1
  O  O10  1  0.03372401  0.20046134  0.19242475  1
  O  O11  1  0.16755663  0.96793864  0.19270660  1
  O  O12  1  0.86238546  0.35800927  0.64659782  1
  O  O13  1  0.50270526  0.13619894  0.64433422  1
  O  O14  1  0.64152953  0.50314582  0.64595309  1
  O  O15  1  0.86414106  0.49787964  0.14628578  1
  O  O16  1  0.63346892  0.13435723  0.14713219  1
  O  O17  1  0.49545195  0.35874701  0.14853073  1
  O  O18  1  0.47408165  0.30134945  0.02914334  1
  O  O19  1  0.83187859  0.52531822  0.02734029  1
  O  O20  1  0.69902818  0.17165127  0.02826700  1
  O  O21  1  0.47154393  0.16223050  0.52439632  1
  O  O22  1  0.68923281  0.52750855  0.52533179  1
  O  O23  1  0.83484311  0.30784212  0.52605937  1
  O  O24  1  0.52287933  0.68823425  0.97379030  1
  O  O25  1  0.15850996  0.47078511  0.97706707  1
  O  O26  1  0.31010394  0.84052925  0.97740259  1
  O  O27  1  0.53596671  0.83553636  0.47512308  1
  O  O28  1  0.30143185  0.47229328  0.47185382  1
  O  O29  1  0.17232586  0.70053499  0.47213139  1
  O  O30  1  0.13174441  0.63379193  0.35672384  1
  O  O31  1  0.50003400  0.86487583  0.35819607  1
  O  O32  1  0.36595013  0.49782785  0.35640581  1
  O  O33  1  0.13902397  0.49372364  0.85716807  1
  O  O34  1  0.35490897  0.86105488  0.85751040  1
  O  O35  1  0.50894244  0.64439207  0.85557734  1
  O  O36  1  0.02572875  0.84177679  0.41042505  1
  O  O37  1  0.81710737  0.97599933  0.41001629  1
  O  O38  1  0.15885432  0.18390385  0.41015854  1
  O  O39  1  0.02843189  0.18882698  0.91130144  1
  O  O40  1  0.16002346  0.97168480  0.91140337  1
  O  O41  1  0.81169428  0.84024587  0.91151891  1
  O  O42  1  0.96331302  0.15936619  0.58817715  1
  O  O43  1  0.19115442  0.02902958  0.58775190  1
  O  O44  1  0.83301318  0.81204483  0.58791941  1
  O  O45  1  0.97963018  0.81320296  0.08943955  1
  O  O46  1  0.84050530  0.03508760  0.09022279  1
  O  O47  1  0.19162937  0.16391098  0.09029527  1
  O  O48  1  0.68906890  0.17308999  0.74453450  1
  O  O49  1  0.48239853  0.30828524  0.74318113  1
  O  O50  1  0.82622318  0.51618741  0.74434582  1
  O  O51  1  0.69233806  0.51921301  0.24552390  1
  O  O52  1  0.82748824  0.30841990  0.24546165  1
  O  O53  1  0.48183141  0.17193440  0.24657808  1
  O  O54  1  0.63854210  0.49421207  0.92117919  1
  O  O55  1  0.85455256  0.35978943  0.92058049  1
  O  O56  1  0.50523144  0.14403221  0.92156717  1
  O  O57  1  0.64409830  0.14706502  0.42023766  1
  O  O58  1  0.50301168  0.35683015  0.42022387  1
  O  O59  1  0.85464772  0.49751574  0.42098077  1
  O  O60  1  0.35272304  0.50043870  0.08112086  1
  O  O61  1  0.14277534  0.63960020  0.08073638  1
  O  O62  1  0.49252135  0.85991560  0.08038351  1
  O  O63  1  0.36852936  0.86084809  0.57779893  1
  O  O64  1  0.49796185  0.64478264  0.57888246  1
  O  O65  1  0.14388726  0.50538487  0.57855247  1
  O  O66  1  0.30624278  0.82946195  0.25546040  1
  O  O67  1  0.52386953  0.69441748  0.25510177  1
  O  O68  1  0.17054642  0.47663847  0.25544293  1
  O  O69  1  0.30971600  0.47964690  0.75311987  1
  O  O70  1  0.16973620  0.68980899  0.75311501  1
  O  O71  1  0.51928529  0.83035471  0.75353710  1
loop_
_geom_bond_atom_site_label_1
_geom_bond_atom_site_label_2
_geom_bond_distance
_geom_bond_site_symmetry_2
Na0 O36 2.467607 1_545
Na0 O38 2.481161 1_555
Na0 O43 2.519104 1_555
Na0 O37 2.543598 1_445
Na0 O44 2.591733 1_445
Na0 O42 2.611435 1_455
Na1 O41 2.417082 1_555
Na1 O40 2.503887 1_655
Na1 O39 2.517190 1_665
Na1 O45 2.580471 1_556
Na1 O46 2.611113 1_566
Na1 O47 2.688349 1_666
Na2 O48 2.506564 1_555
Na2 O55 2.507580 1_555
Na2 O50 2.520625 1_555
Na2 O54 2.527638 1_555
Na2 O56 2.530127 1_555
Na2 O49 2.541295 1_555
Na3 O53 2.370908 1_555
Na3 O52 2.390076 1_555
Na3 O51 2.396722 1_555
Na3 O57 2.619309 1_555
Na3 O58 2.626650 1_555
Na3 O59 2.641665 1_555
Na4 O60 2.399816 1_555
Na4 O62 2.431842 1_555
Na4 O61 2.511476 1_555
Na4 O67 2.535129 1_555
Na4 O68 2.627820 1_555
Na4 O66 2.630038 1_555
Na5 O65 2.446310 1_555
Na5 O69 2.493427 1_555
Na5 O70 2.499568 1_555
Na5 O64 2.518842 1_555
Na5 O63 2.564466 1_555
Na5 O71 2.581815 1_555
Na6 O52 2.350397 1_555
Na6 O16 2.445513 1_555
Na6 O53 2.447224 1_555
Na6 O67 2.526748 1_545
Na6 O66 2.584873 1_545
Na6 O31 2.825165 1_545
Na6 O9 2.906399 1_545
Na6 O2 2.973017 1_555
Na7 O53 2.361092 1_555
Na7 O17 2.394350 1_555
Na7 O51 2.474651 1_555
Na7 O68 2.527762 1_555
Na7 O67 2.598274 1_555
Na7 O32 2.796784 1_555
Na7 O10 2.905294 1_555
Na7 O0 2.988874 1_555
Na8 O51 2.349917 1_555
Na8 O15 2.458845 1_555
Na8 O52 2.462075 1_555
Na8 O66 2.526183 1_655
Na8 O68 2.580839 1_655
Na8 O30 2.789525 1_655
Na8 O11 2.928497 1_655
Na8 O1 2.992311 1_555
Na9 O50 2.370301 1_555
Na9 O49 2.472871 1_555
Na9 O14 2.478341 1_555
Na9 O71 2.547536 1_555
Na9 O69 2.550663 1_555
Na9 O35 2.748611 1_555
Na9 O4 2.913699 1_555
Na9 O6 2.940799 1_555
Na10 O48 2.368988 1_555
Na10 O50 2.455759 1_555
Na10 O12 2.469429 1_555
Na10 O69 2.545211 1_655
Na10 O70 2.555017 1_655
Na10 O33 2.786684 1_655
Na10 O5 2.893569 1_555
Na10 O7 2.910534 1_655
Na11 O49 2.359795 1_555
Na11 O48 2.441428 1_555
Na11 O71 2.531077 1_545
Na11 O13 2.537177 1_555
Na11 O70 2.544594 1_545
Na11 O34 2.779448 1_545
Na11 O3 2.899827 1_555
Na11 O8 2.940275 1_545
Na12 O42 2.352583 1_565
Na12 O63 2.364342 1_555
Na12 O44 2.515216 1_555
Na12 O64 2.527074 1_555
Na12 O6 2.558716 1_555
Na12 O27 2.745504 1_555
Na12 O13 2.895688 1_565
Na12 O23 2.981368 1_565
Na13 O62 2.385659 1_555
Na13 O47 2.395266 1_565
Na13 O45 2.526830 1_455
Na13 O61 2.600893 1_555
Na13 O26 2.666925 1_554
Na13 O11 2.700827 1_555
Na13 O18 2.846813 1_565
Na13 O16 2.939382 1_565
Na14 O46 2.379739 1_455
Na14 O61 2.401948 1_555
Na14 O60 2.517233 1_555
Na14 O47 2.603004 1_555
Na14 O25 2.662045 1_554
Na14 O10 2.709109 1_555
Na14 O20 2.870663 1_455
Na14 O15 2.914186 1_455
Na15 O38 2.365951 1_655
Na15 O37 2.445378 1_545
Na15 O2 2.502545 1_555
Na15 O57 2.520478 1_555
Na15 O59 2.539549 1_555
Na15 O23 2.850578 1_555
Na15 O28 2.953944 1_655
Na15 O30 2.957459 1_655
Na16 O36 2.363526 1_545
Na16 O38 2.466691 1_555
Na16 O0 2.505314 1_555
Na16 O58 2.537362 1_555
Na16 O57 2.539036 1_555
Na16 O21 2.806200 1_555
Na16 O29 2.934824 1_545
Na16 O31 2.938127 1_545
Na17 O37 2.365509 1_555
Na17 O36 2.463130 1_655
Na17 O1 2.475213 1_555
Na17 O59 2.542237 1_555
Na17 O58 2.546276 1_555
Na17 O22 2.824597 1_555
Na17 O27 2.954640 1_555
Na17 O32 2.960209 1_555
Nb0 O3 1.982331 1_555
Nb0 O5 1.983791 1_455
Nb0 O4 1.985914 1_445
Nb0 O39 2.012702 1_555
Nb0 O40 2.012730 1_545
Nb0 O41 2.024964 1_445
Nb1 O8 1.953237 1_545
Nb1 O7 1.956655 1_555
Nb1 O43 1.989473 1_555
Nb1 O6 2.031486 1_445
Nb1 O44 2.034893 1_445
Nb1 O42 2.053786 1_455
Nb2 O9 1.933726 1_555
Nb2 O11 1.990765 1_655
Nb2 O10 1.992039 1_665
Nb2 O45 2.013885 1_555
Nb2 O46 2.020679 1_565
Nb2 O47 2.062273 1_665
Nb3 O19 1.960424 1_556
Nb3 O18 1.983124 1_556
Nb3 O20 1.986395 1_556
Nb3 O54 2.019390 1_555
Nb3 O55 2.028000 1_555
Nb3 O56 2.028709 1_555
Nb4 O22 1.921007 1_555
Nb4 O21 1.928292 1_555
Nb4 O23 1.935810 1_555
Nb4 O58 2.077836 1_555
Nb4 O59 2.078902 1_555
Nb4 O57 2.090691 1_555
Nb5 O24 1.909825 1_554
Nb5 O25 1.971516 1_554
Nb5 O26 1.974264 1_554
Nb5 O60 2.049515 1_555
Nb5 O62 2.055760 1_555
Nb5 O61 2.105187 1_555
Nb6 O28 1.969487 1_555
Nb6 O29 1.973845 1_555
Nb6 O65 1.985805 1_555
Nb6 O64 2.028568 1_555
Nb6 O27 2.039961 1_555
Nb6 O63 2.040040 1_555
Nb7 O31 1.969935 1_555
Nb7 O30 1.970537 1_555
Nb7 O32 1.972946 1_555
Nb7 O66 2.021008 1_555
Nb7 O68 2.021904 1_555
Nb7 O67 2.033254 1_555
Nb8 O34 1.932024 1_555
Nb8 O35 1.935318 1_555
Nb8 O33 1.936542 1_555
Nb8 O71 2.065064 1_555
Nb8 O69 2.078279 1_555
Nb8 O70 2.078337 1_555
Al0 O0 1.888452 1_665
Al0 O2 1.889321 1_565
Al0 O1 1.890521 1_555
Al0 O37 2.017051 1_555
Al0 O38 2.027802 1_665
Al0 O36 2.030474 1_655
Al1 O14 1.894164 1_555
Al1 O12 1.894948 1_555
Al1 O13 1.912807 1_555
Al1 O49 1.994861 1_555
Al1 O50 1.998859 1_555
Al1 O48 2.011313 1_555
Al2 O17 1.879254 1_555
Al2 O16 1.896607 1_555
Al2 O15 1.896937 1_555
Al2 O51 2.028018 1_555
Al2 O52 2.035339 1_555
Al2 O53 2.043729 1_555
O0 Si0 1.621218 1_555
O1 Si1 1.620203 1_555
O2 Si2 1.622333 1_555
O3 Si3 1.645858 1_555
O4 Si4 1.642211 1_555
O5 Si5 1.647068 1_555
O6 Si5 1.649654 1_565
O7 Si3 1.654818 1_555
O8 Si4 1.656638 1_455
O9 Si1 1.663575 1_555
O10 Si2 1.658745 1_455
O11 Si0 1.659773 1_565
O12 Si6 1.596300 1_555
O13 Si7 1.604935 1_555
O14 Si8 1.593739 1_555
O15 Si9 1.617727 1_555
O16 Si10 1.620142 1_555
O17 Si11 1.610497 1_555
O18 Si11 1.641620 1_555
O19 Si9 1.635464 1_555
O20 Si10 1.638924 1_555
O21 Si7 1.671928 1_555
O22 Si8 1.674000 1_555
O23 Si6 1.679271 1_555
O24 Si12 1.652441 1_555
O25 Si13 1.648369 1_555
O26 Si14 1.646994 1_555
O27 Si15 1.641758 1_555
O28 Si16 1.646365 1_555
O29 Si17 1.644703 1_555
O30 Si17 1.662428 1_555
O31 Si15 1.667426 1_555
O32 Si16 1.659830 1_555
O33 Si13 1.661799 1_555
O34 Si14 1.663992 1_555
O35 Si12 1.659178 1_555
O36 Si17 1.611805 1_555
O37 Si15 1.614621 1_555
O38 Si16 1.612119 1_555
O39 Si13 1.630015 1_555
O40 Si14 1.629071 1_555
O41 Si12 1.624836 1_555
O42 Si6 1.651457 1_555
O43 Si7 1.638248 1_555
O44 Si8 1.654335 1_555
O45 Si9 1.657491 1_555
O46 Si10 1.655463 1_555
O47 Si11 1.675222 1_555
O48 Si5 1.616192 1_555
O49 Si3 1.611997 1_555
O50 Si4 1.611897 1_555
O51 Si1 1.621030 1_555
O52 Si2 1.625828 1_555
O53 Si0 1.624995 1_555
O54 Si12 1.620571 1_555
O55 Si13 1.623372 1_655
O56 Si14 1.622897 1_545
O57 Si15 1.653136 1_545
O58 Si16 1.648021 1_555
O59 Si17 1.648288 1_655
O60 Si11 1.658632 1_555
O61 Si9 1.671146 1_455
O62 Si10 1.654916 1_565
O63 Si7 1.655903 1_565
O64 Si8 1.661579 1_555
O65 Si6 1.646066 1_455
O66 Si0 1.681520 1_565
O67 Si1 1.675842 1_555
O68 Si2 1.680703 1_455
O69 Si3 1.655763 1_555
O70 Si4 1.657809 1_455
O71 Si5 1.662272 1_565
