# generated using pymatgen
data_Co2P5O16
_symmetry_space_group_name_H-M   'P 1'
_cell_length_a   6.62659000
_cell_length_b   4.88907400
_cell_length_c   18.51150608
_cell_angle_alpha   88.81588999
_cell_angle_beta   90.00000000
_cell_angle_gamma   90.00000000
_symmetry_Int_Tables_number   1
_chemical_formula_structural   Co2P5O16
_chemical_formula_sum   'Co4 P10 O32'
_cell_volume   599.60564549
_cell_formula_units_Z   2
loop_
 _symmetry_equiv_pos_site_id
 _symmetry_equiv_pos_as_xyz
  1  'x, y, z'
loop_
 _atom_site_type_symbol
 _atom_site_label
 _atom_site_symmetry_multiplicity
 _atom_site_fract_x
 _atom_site_fract_y
 _atom_site_fract_z
 _atom_site_occupancy
  Co  Co0  1  0.82245500  0.75884700  0.40665800  1
  Co  Co1  1  0.17754500  0.24115300  0.59334200  1
  Co  Co2  1  0.17754500  0.75884700  0.90665800  1
  Co  Co3  1  0.82245500  0.24115300  0.09334200  1
  P  P0  1  0.45247900  0.26897100  0.87067700  1
  P  P1  1  0.54752100  0.26897100  0.37067700  1
  P  P2  1  0.12437900  0.24903300  0.42555400  1
  P  P3  1  0.25308200  0.00000000  0.75000000  1
  P  P4  1  0.74691800  0.00000000  0.25000000  1
  P  P5  1  0.87562100  0.75096700  0.57444600  1
  P  P6  1  0.54752100  0.73102900  0.12932300  1
  P  P7  1  0.87562100  0.24903300  0.92555400  1
  P  P8  1  0.45247900  0.73102900  0.62932300  1
  P  P9  1  0.12437900  0.75096700  0.07444600  1
  O  O0  1  0.97486700  0.43586900  0.38691700  1
  O  O1  1  0.05545000  0.05429700  0.06767900  1
  O  O2  1  0.02513300  0.43586900  0.88691700  1
  O  O3  1  0.78415200  0.65064600  0.50416300  1
  O  O4  1  0.68950700  0.77422700  0.63127400  1
  O  O5  1  0.65280400  0.07024600  0.42147000  1
  O  O6  1  0.59407200  0.79226300  0.21274500  1
  O  O7  1  0.40592800  0.79226300  0.71274500  1
  O  O8  1  0.34719600  0.07024600  0.92147000  1
  O  O9  1  0.94455000  0.05429700  0.56767900  1
  O  O10  1  0.21584800  0.34935400  0.49583700  1
  O  O11  1  0.87118000  0.85156200  0.30650800  1
  O  O12  1  0.65280400  0.92975400  0.07853000  1
  O  O13  1  0.68950700  0.22577300  0.86872600  1
  O  O14  1  0.31049300  0.77422700  0.13127400  1
  O  O15  1  0.21584800  0.65064600  0.00416300  1
  O  O16  1  0.31049300  0.22577300  0.36872600  1
  O  O17  1  0.58000200  0.42784500  0.11751600  1
  O  O18  1  0.41999800  0.57215500  0.88248400  1
  O  O19  1  0.87118000  0.14843800  0.19349200  1
  O  O20  1  0.40592800  0.20773700  0.78725500  1
  O  O21  1  0.94455000  0.94570300  0.93232100  1
  O  O22  1  0.02513300  0.56413100  0.61308300  1
  O  O23  1  0.12882000  0.85156200  0.80650800  1
  O  O24  1  0.78415200  0.34935400  0.99583700  1
  O  O25  1  0.05545000  0.94570300  0.43232100  1
  O  O26  1  0.97486700  0.56413100  0.11308300  1
  O  O27  1  0.59407200  0.20773700  0.28725500  1
  O  O28  1  0.58000200  0.57215500  0.38248400  1
  O  O29  1  0.12882000  0.14843800  0.69349200  1
  O  O30  1  0.34719600  0.92975400  0.57853000  1
  O  O31  1  0.41999800  0.42784500  0.61751600  1
loop_
_geom_bond_atom_site_label_1
_geom_bond_atom_site_label_2
_geom_bond_distance
_geom_bond_site_symmetry_2
Co0 O25 1.860650 1_655
Co0 O3 1.887512 1_555
Co0 O28 1.905658 1_555
Co0 O0 1.915953 1_555
Co0 O5 1.916805 1_565
Co0 O11 1.926665 1_555
Co1 O9 1.860650 1_455
Co1 O10 1.887512 1_555
Co1 O31 1.905658 1_555
Co1 O22 1.915953 1_555
Co1 O30 1.916805 1_545
Co1 O29 1.926665 1_555
Co2 O21 1.860650 1_455
Co2 O15 1.887512 1_556
Co2 O18 1.905658 1_555
Co2 O2 1.915953 1_555
Co2 O8 1.916805 1_565
Co2 O23 1.926665 1_555
Co3 O1 1.860650 1_655
Co3 O24 1.887512 1_554
Co3 O17 1.905658 1_555
Co3 O26 1.915953 1_555
Co3 O12 1.916805 1_545
Co3 O19 1.926665 1_555
O0 P2 1.516755 1_655
O1 P9 1.554331 1_545
O2 P7 1.516755 1_455
O3 P5 1.525467 1_555
O4 P8 1.585334 1_555
O4 P5 1.626516 1_555
O5 P1 1.508984 1_555
O6 P4 1.600609 1_565
O6 P6 1.608929 1_555
O7 P3 1.600609 1_565
O7 P8 1.608929 1_555
O8 P0 1.508984 1_555
O9 P5 1.554331 1_545
O10 P2 1.525467 1_555
O11 P4 1.505842 1_565
O12 P6 1.508984 1_555
O13 P0 1.585334 1_555
O13 P7 1.626516 1_555
O14 P6 1.585334 1_555
O14 P9 1.626516 1_555
O15 P9 1.525467 1_555
O16 P1 1.585334 1_555
O16 P2 1.626516 1_555
O17 P6 1.518114 1_555
O18 P0 1.518114 1_555
O19 P4 1.505842 1_555
O20 P3 1.600609 1_555
O20 P0 1.608929 1_555
O21 P7 1.554331 1_565
O22 P5 1.516755 1_455
O23 P3 1.505842 1_565
O24 P7 1.525467 1_555
O25 P2 1.554331 1_565
O26 P9 1.516755 1_655
O27 P4 1.600609 1_555
O27 P1 1.608929 1_555
O28 P1 1.518114 1_555
O29 P3 1.505842 1_555
O30 P8 1.508984 1_555
O31 P8 1.518114 1_555
