# generated using pymatgen
data_BaTbO3
_symmetry_space_group_name_H-M   'P 1'
_cell_length_a   6.28436240
_cell_length_b   6.28436240
_cell_length_c   6.28436240
_cell_angle_alpha   120.57980094
_cell_angle_beta   120.57980094
_cell_angle_gamma   88.99865509
_symmetry_Int_Tables_number   1
_chemical_formula_structural   BaTbO3
_chemical_formula_sum   'Ba2 Tb2 O6'
_cell_volume   173.92978074
_cell_formula_units_Z   2
loop_
 _symmetry_equiv_pos_site_id
 _symmetry_equiv_pos_as_xyz
  1  'x, y, z'
loop_
 _atom_site_type_symbol
 _atom_site_label
 _atom_site_symmetry_multiplicity
 _atom_site_fract_x
 _atom_site_fract_y
 _atom_site_fract_z
 _atom_site_occupancy
  Ba  Ba0  1  0.75000000  0.25000000  0.50000000  1
  Ba  Ba1  1  0.25000000  0.75000000  0.50000000  1
  Tb  Tb0  1  0.50000000  0.50000000  0.00000000  1
  Tb  Tb1  1  0.00000000  0.00000000  0.00000000  1
  O  O0  1  0.69127200  0.19127200  0.88254500  1
  O  O1  1  0.19127200  0.30872800  0.50000000  1
  O  O2  1  0.80872800  0.69127200  0.50000000  1
  O  O3  1  0.30872800  0.80872800  0.11745500  1
  O  O4  1  0.75000000  0.75000000  0.00000000  1
  O  O5  1  0.25000000  0.25000000  0.00000000  1
loop_
_geom_bond_atom_site_label_1
_geom_bond_atom_site_label_2
_geom_bond_distance
_geom_bond_site_symmetry_2
Ba0 O3 2.803950 1_545
Ba0 O2 2.803951 1_555
Ba0 O1 2.803951 1_655
Ba0 O0 2.803957 1_555
Ba0 O4 3.114604 1_545
Ba0 O5 3.114604 1_555
Ba0 O5 3.114604 1_656
Ba0 O4 3.114604 1_556
Ba1 O0 2.803950 1_565
Ba1 O1 2.803951 1_555
Ba1 O2 2.803951 1_455
Ba1 O3 2.803957 1_555
Ba1 O5 3.114604 1_555
Ba1 O5 3.114604 1_566
Ba1 O4 3.114604 1_455
Ba1 O4 3.114604 1_556
O0 Tb0 2.262308 1_556
O0 Tb1 2.262308 1_656
O1 Tb1 2.262309 1_555
O1 Tb0 2.262309 1_556
O2 Tb0 2.262309 1_555
O2 Tb1 2.262309 1_666
O3 Tb0 2.262308 1_555
O3 Tb1 2.262308 1_565
O4 Tb1 2.241188 1_665
O4 Tb0 2.241188 1_555
O5 Tb1 2.241188 1_555
O5 Tb0 2.241188 1_555
