# generated using pymatgen
data_NaTiInP2SO12
_symmetry_space_group_name_H-M   'P 1'
_cell_length_a   8.73965448
_cell_length_b   8.77104653
_cell_length_c   22.64696874
_cell_angle_alpha   89.43413892
_cell_angle_beta   90.00000000
_cell_angle_gamma   119.88167630
_symmetry_Int_Tables_number   1
_chemical_formula_structural   NaTiInP2SO12
_chemical_formula_sum   'Na6 Ti6 In6 P12 S6 O72'
_cell_volume   1505.13271482
_cell_formula_units_Z   6
loop_
 _symmetry_equiv_pos_site_id
 _symmetry_equiv_pos_as_xyz
  1  'x, y, z'
loop_
 _atom_site_type_symbol
 _atom_site_label
 _atom_site_symmetry_multiplicity
 _atom_site_fract_x
 _atom_site_fract_y
 _atom_site_fract_z
 _atom_site_occupancy
  Na  Na0  1  0.98381924  0.99306832  0.50138976  1
  Na  Na1  1  0.00924908  0.99306832  0.00138976  1
  Na  Na2  1  0.65048624  0.32640132  0.83472276  1
  Na  Na3  1  0.67591608  0.32640132  0.33472276  1
  Na  Na4  1  0.31715224  0.65973532  0.16805676  1
  Na  Na5  1  0.34258208  0.65973532  0.66805676  1
  Ti  Ti0  1  0.00487750  0.00583815  0.35347301  1
  Ti  Ti1  1  0.00096065  0.00583815  0.85347301  1
  Ti  Ti2  1  0.67154450  0.33917115  0.68680601  1
  Ti  Ti3  1  0.66762765  0.33917115  0.18680601  1
  Ti  Ti4  1  0.33821050  0.67250515  0.02014001  1
  Ti  Ti5  1  0.33429365  0.67250515  0.52014001  1
  In  In0  1  0.99433250  0.00385657  0.64843208  1
  In  In1  1  0.00952407  0.00385657  0.14843208  1
  In  In2  1  0.66099950  0.33718957  0.98176508  1
  In  In3  1  0.67619107  0.33718957  0.48176508  1
  In  In4  1  0.32766550  0.67052357  0.31509908  1
  In  In5  1  0.34285707  0.67052357  0.81509908  1
  P  P0  1  0.29959920  0.00928647  0.24985294  1
  P  P1  1  0.99276819  0.28910089  0.24963958  1
  P  P2  1  0.29633270  0.28910089  0.74963958  1
  P  P3  1  0.70968727  0.00928647  0.74985294  1
  P  P4  1  0.96626620  0.34261947  0.58318594  1
  P  P5  1  0.65943519  0.62243389  0.58297258  1
  P  P6  1  0.96299970  0.62243389  0.08297258  1
  P  P7  1  0.37635427  0.34261947  0.08318594  1
  P  P8  1  0.63293220  0.67595347  0.91651994  1
  P  P9  1  0.32610119  0.95576789  0.91630658  1
  P  P10  1  0.62966570  0.95576789  0.41630658  1
  P  P11  1  0.04302027  0.67595347  0.41651994  1
  S  S0  1  0.71116996  0.70413010  0.25093881  1
  S  S1  1  0.99296014  0.70413010  0.75093881  1
  S  S2  1  0.37783696  0.03746310  0.58427181  1
  S  S3  1  0.65962714  0.03746310  0.08427181  1
  S  S4  1  0.04450296  0.37079710  0.91760581  1
  S  S5  1  0.32629314  0.37079710  0.41760581  1
  O  O0  1  0.19666469  0.02553387  0.30436752  1
  O  O1  1  0.82027048  0.79314554  0.30331289  1
  O  O2  1  0.97203364  0.16923642  0.30499579  1
  O  O3  1  0.19720278  0.16923642  0.80499579  1
  O  O4  1  0.97287505  0.79314554  0.80331289  1
  O  O5  1  0.82886918  0.02553387  0.80436752  1
  O  O6  1  0.78032167  0.97045425  0.69420134  1
  O  O7  1  0.19238579  0.21070713  0.69367382  1
  O  O8  1  0.02533068  0.80586382  0.69588282  1
  O  O9  1  0.78053314  0.80586382  0.19588282  1
  O  O10  1  0.01832134  0.21070713  0.19367382  1
  O  O11  1  0.19013258  0.97045425  0.19420134  1
  O  O12  1  0.86333169  0.35886687  0.63770052  1
  O  O13  1  0.48693748  0.12647854  0.63664589  1
  O  O14  1  0.63870064  0.50256942  0.63832879  1
  O  O15  1  0.86386978  0.50256942  0.13832879  1
  O  O16  1  0.63954205  0.12647854  0.13664589  1
  O  O17  1  0.49553618  0.35886687  0.13770052  1
  O  O18  1  0.44698867  0.30378725  0.02753434  1
  O  O19  1  0.85905279  0.54404013  0.02700682  1
  O  O20  1  0.69199768  0.13919682  0.02921582  1
  O  O21  1  0.44720014  0.13919682  0.52921582  1
  O  O22  1  0.68498834  0.54404013  0.52700682  1
  O  O23  1  0.85679958  0.30378725  0.52753434  1
  O  O24  1  0.52999769  0.69220087  0.97103452  1
  O  O25  1  0.15360348  0.45981254  0.96997989  1
  O  O26  1  0.30536664  0.83590342  0.97166279  1
  O  O27  1  0.53053578  0.83590342  0.47166279  1
  O  O28  1  0.30620805  0.45981254  0.46997989  1
  O  O29  1  0.16220218  0.69220087  0.47103452  1
  O  O30  1  0.11365467  0.63712125  0.36086834  1
  O  O31  1  0.52571879  0.87737413  0.36034082  1
  O  O32  1  0.35866368  0.47253082  0.36254982  1
  O  O33  1  0.11386614  0.47253082  0.86254982  1
  O  O34  1  0.35165434  0.87737413  0.86034082  1
  O  O35  1  0.52346558  0.63712125  0.86086834  1
  O  O36  1  0.04166095  0.85298135  0.40994541  1
  O  O37  1  0.81459849  0.96776187  0.41026080  1
  O  O38  1  0.15923171  0.19805138  0.41306592  1
  O  O39  1  0.03881967  0.19805138  0.91306592  1
  O  O40  1  0.15316337  0.96776187  0.91026080  1
  O  O41  1  0.81132040  0.85298135  0.90994541  1
  O  O42  1  0.00488898  0.19141936  0.58842840  1
  O  O43  1  0.19622344  0.00379379  0.58960925  1
  O  O44  1  0.82110283  0.80577073  0.58852983  1
  O  O45  1  0.98466791  0.80577073  0.08852983  1
  O  O46  1  0.80757035  0.00379379  0.08960925  1
  O  O47  1  0.18653038  0.19141936  0.08842840  1
  O  O48  1  0.70832795  0.18631435  0.74327841  1
  O  O49  1  0.48126549  0.30109487  0.74359380  1
  O  O50  1  0.82589871  0.53138438  0.74639892  1
  O  O51  1  0.70548667  0.53138438  0.24639892  1
  O  O52  1  0.81983037  0.30109487  0.24359380  1
  O  O53  1  0.47798740  0.18631435  0.24327841  1
  O  O54  1  0.67155598  0.52475236  0.92176140  1
  O  O55  1  0.86289044  0.33712679  0.92294225  1
  O  O56  1  0.48776983  0.13910373  0.92186283  1
  O  O57  1  0.65133491  0.13910373  0.42186283  1
  O  O58  1  0.47423735  0.33712679  0.42294225  1
  O  O59  1  0.85319738  0.52475236  0.42176140  1
  O  O60  1  0.37499395  0.51964835  0.07661241  1
  O  O61  1  0.14793149  0.63442887  0.07692780  1
  O  O62  1  0.49256471  0.86471838  0.07973292  1
  O  O63  1  0.37215267  0.86471838  0.57973292  1
  O  O64  1  0.48649637  0.63442887  0.57692780  1
  O  O65  1  0.14465340  0.51964835  0.57661241  1
  O  O66  1  0.33822198  0.85808636  0.25509540  1
  O  O67  1  0.52955644  0.67046079  0.25627625  1
  O  O68  1  0.15443583  0.47243773  0.25519683  1
  O  O69  1  0.31800091  0.47243773  0.75519683  1
  O  O70  1  0.14090335  0.67046079  0.75627625  1
  O  O71  1  0.51986338  0.85808636  0.75509540  1
loop_
_geom_bond_atom_site_label_1
_geom_bond_atom_site_label_2
_geom_bond_distance
_geom_bond_site_symmetry_2
Na0 O37 2.485499 1_555
Na0 O44 2.494749 1_555
Na0 O42 2.587397 1_665
Na0 O36 2.592918 1_655
Na0 O38 2.601219 1_665
Na0 O43 2.697438 1_665
Na1 O40 2.485499 1_554
Na1 O45 2.494749 1_455
Na1 O47 2.587397 1_565
Na1 O41 2.592918 1_454
Na1 O39 2.601219 1_564
Na1 O46 2.697438 1_465
Na2 O49 2.485499 1_555
Na2 O56 2.494749 1_555
Na2 O54 2.587397 1_555
Na2 O48 2.592918 1_555
Na2 O50 2.601219 1_555
Na2 O55 2.697438 1_555
Na3 O52 2.485499 1_555
Na3 O57 2.494749 1_555
Na3 O59 2.587397 1_555
Na3 O53 2.592918 1_555
Na3 O51 2.601219 1_555
Na3 O58 2.697438 1_555
Na4 O61 2.485499 1_555
Na4 O68 2.494749 1_555
Na4 O66 2.587397 1_555
Na4 O60 2.592918 1_555
Na4 O62 2.601219 1_555
Na4 O67 2.697438 1_555
Na5 O64 2.485499 1_555
Na5 O69 2.494749 1_555
Na5 O71 2.587397 1_555
Na5 O65 2.592918 1_555
Na5 O63 2.601219 1_555
Na5 O70 2.697438 1_555
In0 O6 2.026463 1_545
In0 O7 2.060361 1_655
In0 O42 2.089536 1_655
In0 O44 2.139316 1_545
In0 O8 2.162385 1_645
In0 O43 2.211094 1_655
In1 O11 2.026463 1_545
In1 O10 2.060361 1_555
In1 O47 2.089536 1_555
In1 O45 2.139316 1_445
In1 O9 2.162385 1_445
In1 O46 2.211094 1_455
In2 O18 2.026463 1_556
In2 O19 2.060361 1_556
In2 O54 2.089536 1_555
In2 O56 2.139316 1_555
In2 O20 2.162385 1_556
In2 O55 2.211094 1_555
In3 O23 2.026463 1_555
In3 O22 2.060361 1_555
In3 O59 2.089536 1_555
In3 O57 2.139316 1_555
In3 O21 2.162385 1_555
In3 O58 2.211094 1_555
In4 O30 2.026463 1_555
In4 O31 2.060361 1_555
In4 O66 2.089536 1_555
In4 O68 2.139316 1_555
In4 O32 2.162385 1_555
In4 O67 2.211094 1_555
In5 O35 2.026463 1_555
In5 O34 2.060361 1_555
In5 O71 2.089536 1_555
In5 O69 2.139316 1_555
In5 O33 2.162385 1_555
In5 O70 2.211094 1_555
O0 P0 1.576401 1_555
O0 Ti0 1.945190 1_555
O1 S0 1.483953 1_555
O1 Ti0 2.101547 1_665
O2 P1 1.579215 1_555
O2 Ti0 1.928864 1_655
O3 P2 1.579215 1_555
O3 Ti1 1.928864 1_555
O4 S1 1.483953 1_555
O4 Ti1 2.101547 1_665
O5 P3 1.576401 1_555
O5 Ti1 1.945190 1_655
O6 P3 1.517740 1_565
O7 P2 1.516353 1_555
O8 S1 1.468802 1_455
O9 S0 1.468802 1_555
O10 P1 1.516353 1_455
O11 P0 1.517740 1_565
O12 P4 1.576401 1_555
O12 Ti2 1.945190 1_555
O13 S2 1.483953 1_555
O13 Ti2 2.101547 1_555
O14 P5 1.579215 1_555
O14 Ti2 1.928864 1_555
O15 P6 1.579215 1_555
O15 Ti3 1.928864 1_555
O16 S3 1.483953 1_555
O16 Ti3 2.101547 1_555
O17 P7 1.576401 1_555
O17 Ti3 1.945190 1_555
O18 P7 1.517740 1_555
O19 P6 1.516353 1_555
O20 S3 1.468802 1_555
O21 S2 1.468802 1_555
O22 P5 1.516353 1_555
O23 P4 1.517740 1_555
O24 P8 1.576401 1_555
O24 Ti4 1.945190 1_556
O25 S4 1.483953 1_555
O25 Ti4 2.101547 1_556
O26 P9 1.579215 1_555
O26 Ti4 1.928864 1_556
O27 P10 1.579215 1_555
O27 Ti5 1.928864 1_555
O28 S5 1.483953 1_555
O28 Ti5 2.101547 1_555
O29 P11 1.576401 1_555
O29 Ti5 1.945190 1_555
O30 P11 1.517740 1_555
O31 P10 1.516353 1_555
O32 S5 1.468802 1_555
O33 S4 1.468802 1_555
O34 P9 1.516353 1_555
O35 P8 1.517740 1_555
O36 P11 1.564309 1_555
O36 Ti0 1.982956 1_565
O37 P10 1.572377 1_555
O37 Ti0 1.992264 1_665
O38 S5 1.495602 1_555
O38 Ti0 2.064535 1_555
O39 S4 1.495606 1_555
O39 Ti1 2.064535 1_555
O40 P9 1.572368 1_555
O40 Ti1 1.992264 1_565
O41 P8 1.564313 1_555
O41 Ti1 1.982956 1_665
O42 P4 1.526348 1_455
O43 S2 1.467443 1_555
O44 P5 1.529085 1_555
O45 P6 1.529088 1_555
O46 S3 1.467434 1_555
O47 P7 1.526354 1_555
O48 P3 1.564309 1_555
O48 Ti2 1.982956 1_555
O49 P2 1.572377 1_555
O49 Ti2 1.992264 1_555
O50 S1 1.495602 1_555
O50 Ti2 2.064535 1_555
O51 S0 1.495606 1_555
O51 Ti3 2.064535 1_555
O52 P1 1.572368 1_555
O52 Ti3 1.992264 1_555
O53 P0 1.564313 1_555
O53 Ti3 1.982956 1_555
O54 P8 1.526361 1_555
O55 S4 1.467429 1_655
O56 P9 1.529081 1_545
O57 P10 1.529074 1_545
O58 S5 1.467446 1_555
O59 P11 1.526349 1_655
O60 P7 1.564320 1_555
O60 Ti4 1.982956 1_555
O61 P6 1.572362 1_455
O61 Ti4 1.992264 1_555
O62 S3 1.495600 1_565
O62 Ti4 2.064535 1_555
O63 S2 1.495592 1_565
O63 Ti5 2.064535 1_555
O64 P5 1.572380 1_555
O64 Ti5 1.992264 1_555
O65 P4 1.564311 1_455
O65 Ti5 1.982956 1_555
O66 P0 1.526348 1_565
O67 S0 1.467443 1_555
O68 P1 1.529085 1_455
O69 P2 1.529088 1_555
O70 S1 1.467434 1_455
O71 P3 1.526354 1_565
