# generated using pymatgen
data_Na15Ca10Nb2P9(SO8)9
_symmetry_space_group_name_H-M   'P 1'
_cell_length_a   9.33558580
_cell_length_b   9.29749527
_cell_length_c   23.30235750
_cell_angle_alpha   89.94258202
_cell_angle_beta   89.81929110
_cell_angle_gamma   119.83958754
_symmetry_Int_Tables_number   1
_chemical_formula_structural   Na15Ca10Nb2P9(SO8)9
_chemical_formula_sum   'Na15 Ca10 Nb2 P9 S9 O72'
_cell_volume   1754.42053243
_cell_formula_units_Z   1
loop_
 _symmetry_equiv_pos_site_id
 _symmetry_equiv_pos_as_xyz
  1  'x, y, z'
loop_
 _atom_site_type_symbol
 _atom_site_label
 _atom_site_symmetry_multiplicity
 _atom_site_fract_x
 _atom_site_fract_y
 _atom_site_fract_z
 _atom_site_occupancy
  Na  Na0  1  0.98730751  0.33542925  0.75146552  1
  Na  Na1  1  0.30205056  0.33373822  0.58566308  1
  Na  Na2  1  0.66659168  0.96829764  0.58931549  1
  Na  Na3  1  0.30184508  0.96903956  0.08723516  1
  Na  Na4  1  0.66837807  0.69715622  0.09214635  1
  Na  Na5  1  0.97366509  0.67313122  0.90795505  1
  Na  Na6  1  0.32341806  0.28710588  0.90722961  1
  Na  Na7  1  0.33435228  0.04422908  0.40457871  1
  Na  Na8  1  0.69958993  0.67014365  0.40813528  1
  Na  Na9  1  0.99993924  0.01355645  0.49454181  1
  Na  Na10  1  0.99279445  0.02857097  0.99518326  1
  Na  Na11  1  0.65087632  0.30769068  0.82585996  1
  Na  Na12  1  0.66043785  0.32558477  0.32499228  1
  Na  Na13  1  0.31375323  0.65316082  0.17054074  1
  Na  Na14  1  0.33496251  0.68160127  0.67003214  1
  Ca  Ca0  1  0.00070165  0.00950262  0.34549578  1
  Ca  Ca1  1  0.99608867  0.99811778  0.84539842  1
  Ca  Ca2  1  0.99668463  0.98885358  0.66116662  1
  Ca  Ca3  1  0.00247885  0.00138097  0.16156095  1
  Ca  Ca4  1  0.66421338  0.34118166  0.68699404  1
  Ca  Ca5  1  0.66567003  0.32975331  0.18772779  1
  Ca  Ca6  1  0.67401328  0.31826365  0.97729346  1
  Ca  Ca7  1  0.67360114  0.33282086  0.47810953  1
  Ca  Ca8  1  0.32760255  0.66436759  0.01572762  1
  Ca  Ca9  1  0.32375434  0.66145917  0.51495948  1
  Nb  Nb0  1  0.34611255  0.66937980  0.31533671  1
  Nb  Nb1  1  0.33250266  0.67602573  0.81456764  1
  P  P0  1  0.30867210  0.99209065  0.25371084  1
  P  P1  1  0.69199517  0.69092012  0.25347299  1
  P  P2  1  0.30643218  0.31761901  0.75358211  1
  P  P3  1  0.00229287  0.68959950  0.75630054  1
  P  P4  1  0.68914853  0.99524877  0.74843718  1
  P  P5  1  0.04444634  0.37662006  0.91370249  1
  P  P6  1  0.33090665  0.96288749  0.91743150  1
  P  P7  1  0.62438265  0.95773004  0.41768958  1
  P  P8  1  0.33445508  0.37181524  0.41731832  1
  S  S0  1  0.01226759  0.32020901  0.25285719  1
  S  S1  1  0.96768087  0.32727988  0.58587141  1
  S  S2  1  0.36688120  0.03751727  0.58136635  1
  S  S3  1  0.66781829  0.63910236  0.57980958  1
  S  S4  1  0.96531069  0.63887974  0.08197351  1
  S  S5  1  0.66845317  0.02750584  0.08430139  1
  S  S6  1  0.36995079  0.33047003  0.08123306  1
  S  S7  1  0.62481409  0.66444126  0.91693698  1
  S  S8  1  0.04071252  0.66921473  0.41311991  1
  O  O0  1  0.22097752  0.01018493  0.30629321  1
  O  O1  1  0.79102608  0.78003404  0.30647135  1
  O  O2  1  0.99065046  0.21865673  0.30366745  1
  O  O3  1  0.22104590  0.21546902  0.80731262  1
  O  O4  1  0.97976863  0.76128248  0.81201879  1
  O  O5  1  0.81367688  0.02274899  0.79512210  1
  O  O6  1  0.73770017  0.95360824  0.69001899  1
  O  O7  1  0.19536676  0.25103644  0.69945932  1
  O  O8  1  0.03168486  0.79621187  0.70336648  1
  O  O9  1  0.75470264  0.79049908  0.19717000  1
  O  O10  1  0.04215913  0.25004570  0.20032478  1
  O  O11  1  0.21061086  0.95940316  0.19731430  1
  O  O12  1  0.88842239  0.33676232  0.63941509  1
  O  O13  1  0.47466352  0.12853709  0.63011523  1
  O  O14  1  0.65651038  0.53469633  0.62927806  1
  O  O15  1  0.87436593  0.53642139  0.13171142  1
  O  O16  1  0.65503282  0.11506955  0.13461146  1
  O  O17  1  0.47532509  0.34378429  0.13035174  1
  O  O18  1  0.44567183  0.31498656  0.02669544  1
  O  O19  1  0.87804289  0.56113927  0.02758006  1
  O  O20  1  0.68058348  0.11847352  0.03078181  1
  O  O21  1  0.44291454  0.12769661  0.52656405  1
  O  O22  1  0.67821158  0.56226317  0.52533094  1
  O  O23  1  0.86848568  0.31872443  0.53516216  1
  O  O24  1  0.55598631  0.67990466  0.97203774  1
  O  O25  1  0.14407201  0.45773756  0.96739840  1
  O  O26  1  0.32463945  0.87830833  0.97434681  1
  O  O27  1  0.54708836  0.86809449  0.47406890  1
  O  O28  1  0.32005168  0.44364818  0.47456558  1
  O  O29  1  0.12898214  0.68189407  0.46641556  1
  O  O30  1  0.13567844  0.65915498  0.36285569  1
  O  O31  1  0.50223753  0.84016118  0.36675658  1
  O  O32  1  0.33327374  0.49021298  0.36684678  1
  O  O33  1  0.15348107  0.49069570  0.86052658  1
  O  O34  1  0.33541948  0.84596817  0.86699172  1
  O  O35  1  0.51695746  0.65939128  0.86818128  1
  O  O36  1  0.02501102  0.82127958  0.40937076  1
  O  O37  1  0.79186536  0.96738687  0.41039843  1
  O  O38  1  0.19127113  0.19312069  0.41120945  1
  O  O39  1  0.02519065  0.20330460  0.90898230  1
  O  O40  1  0.17032999  0.97149997  0.91192177  1
  O  O41  1  0.79545615  0.80394950  0.91136128  1
  O  O42  1  0.98100789  0.17179545  0.58542375  1
  O  O43  1  0.20298396  0.02792752  0.58679218  1
  O  O44  1  0.81162015  0.81019254  0.58373647  1
  O  O45  1  0.97685165  0.80672977  0.08575901  1
  O  O46  1  0.81349537  0.00081946  0.08730252  1
  O  O47  1  0.20361260  0.17836100  0.08666764  1
  O  O48  1  0.66720250  0.14798029  0.74624272  1
  O  O49  1  0.48047029  0.34597096  0.74752465  1
  O  O50  1  0.86968285  0.50651065  0.74987417  1
  O  O51  1  0.65881328  0.51381474  0.24988322  1
  O  O52  1  0.87249891  0.34928965  0.24763013  1
  O  O53  1  0.48660827  0.13410652  0.25004036  1
  O  O54  1  0.62670560  0.50401875  0.91468492  1
  O  O55  1  0.88141893  0.38149710  0.91039599  1
  O  O56  1  0.48312804  0.13733165  0.91037508  1
  O  O57  1  0.62277378  0.12206608  0.41142787  1
  O  O58  1  0.50337512  0.37692101  0.41101472  1
  O  O59  1  0.87206368  0.52168569  0.41249757  1
  O  O60  1  0.35828936  0.48518400  0.08101688  1
  O  O61  1  0.13815774  0.66779036  0.08250488  1
  O  O62  1  0.51377589  0.85858641  0.08346296  1
  O  O63  1  0.35101657  0.86927504  0.58085666  1
  O  O64  1  0.51151046  0.65081166  0.58135115  1
  O  O65  1  0.13923435  0.47246295  0.58328210  1
  O  O66  1  0.32091576  0.82483389  0.26518246  1
  O  O67  1  0.50873907  0.67391575  0.26408503  1
  O  O68  1  0.16840594  0.48947351  0.26062320  1
  O  O69  1  0.32321984  0.49840745  0.76334131  1
  O  O70  1  0.17346444  0.68145509  0.76246218  1
  O  O71  1  0.51375934  0.83864369  0.76585837  1
loop_
_geom_bond_atom_site_label_1
_geom_bond_atom_site_label_2
_geom_bond_distance
_geom_bond_site_symmetry_2
Na0 O50 2.340002 1_555
Na0 O48 2.608137 1_555
Na0 O7 2.713069 1_655
Na0 O5 2.721776 1_555
Na0 O69 2.735748 1_655
Na0 O12 2.774241 1_555
Na0 O70 2.806534 1_655
Na0 O33 2.958511 1_655
Na1 O65 2.434817 1_555
Na1 O43 2.514579 1_555
Na1 O42 2.599838 1_455
Na1 O64 2.604995 1_555
Na1 O28 2.756014 1_555
Na1 O7 2.798562 1_555
Na2 O44 2.447595 1_555
Na2 O6 2.462805 1_555
Na2 O64 2.567824 1_555
Na2 O42 2.583616 1_565
Na2 O63 2.621201 1_555
Na2 O27 2.883432 1_555
Na3 O61 2.436089 1_555
Na3 O47 2.530778 1_565
Na3 O45 2.632131 1_455
Na3 O62 2.645336 1_555
Na3 O11 2.687571 1_555
Na3 O26 2.802914 1_554
Na4 O46 2.451782 1_565
Na4 O45 2.535861 1_555
Na4 O62 2.556114 1_555
Na4 O60 2.580658 1_555
Na4 O9 2.590868 1_555
Na5 O4 2.371004 1_555
Na5 O55 2.402619 1_555
Na5 O40 2.451131 1_655
Na5 O41 2.503306 1_555
Na5 O54 2.813631 1_555
Na5 O19 2.950420 1_556
Na6 O3 2.482270 1_555
Na6 O39 2.490103 1_555
Na6 O56 2.496835 1_555
Na6 O54 2.536820 1_555
Na6 O40 2.547529 1_545
Na6 O18 2.974323 1_556
Na7 O38 2.358746 1_555
Na7 O57 2.421366 1_555
Na7 O0 2.479757 1_555
Na7 O36 2.586402 1_545
Na7 O58 2.688030 1_555
Na7 O21 2.991550 1_555
Na8 O58 2.412781 1_555
Na8 O37 2.452321 1_555
Na8 O1 2.549358 1_555
Na8 O59 2.592395 1_555
Na8 O36 2.637650 1_655
Na8 O22 2.880234 1_555
Na9 O38 2.598559 1_655
Na9 O42 2.635015 1_555
Na9 O37 2.645366 1_545
Na9 O36 2.758657 1_645
Na9 O44 2.765297 1_545
Na9 O43 2.829517 1_655
Na10 O39 2.503246 1_655
Na10 O46 2.650037 1_556
Na10 O40 2.765829 1_645
Na10 O47 2.768097 1_656
Na10 O41 2.787964 1_545
Na10 O45 2.900843 1_546
Na11 O48 2.428819 1_555
Na11 O56 2.519056 1_555
Na11 O49 2.563198 1_555
Na11 O50 2.633972 1_555
Na11 O55 2.746498 1_555
Na11 O54 2.842810 1_555
Na12 O53 2.449981 1_555
Na12 O51 2.479248 1_555
Na12 O52 2.600025 1_555
Na12 O58 2.660023 1_555
Na12 O57 2.662088 1_555
Na12 O59 2.798842 1_555
Na13 O68 2.546424 1_555
Na13 O61 2.675206 1_555
Na13 O66 2.705098 1_555
Na13 O60 2.758822 1_555
Na13 O62 2.769705 1_555
Na13 O67 2.789016 1_555
Na14 O70 2.624802 1_555
Na14 O63 2.667532 1_555
Na14 O69 2.728736 1_555
Na14 O71 2.740243 1_555
Na14 O64 2.741896 1_555
Na14 O65 2.775165 1_555
Ca0 O2 2.217817 1_455
Ca0 O0 2.244660 1_555
Ca0 O1 2.251552 1_445
Ca0 O38 2.329030 1_555
Ca0 O37 2.337118 1_445
Ca0 O36 2.391985 1_545
Ca1 O5 2.173722 1_565
Ca1 O3 2.245687 1_665
Ca1 O4 2.268753 1_555
Ca1 O39 2.323993 1_665
Ca1 O40 2.350730 1_655
Ca1 O41 2.396091 1_555
Ca2 O8 2.205137 1_655
Ca2 O6 2.367676 1_555
Ca2 O7 2.386216 1_665
Ca2 O43 2.475119 1_665
Ca2 O44 2.483829 1_555
Ca2 O42 2.504595 1_565
Ca3 O9 2.314023 1_445
Ca3 O11 2.320786 1_545
Ca3 O10 2.335021 1_555
Ca3 O45 2.455756 1_445
Ca3 O46 2.473270 1_455
Ca3 O47 2.485537 1_555
Ca4 O49 2.234907 1_555
Ca4 O14 2.274999 1_555
Ca4 O48 2.275684 1_555
Ca4 O50 2.297222 1_555
Ca4 O13 2.309832 1_555
Ca4 O12 2.383927 1_555
Ca5 O51 2.268005 1_555
Ca5 O53 2.272670 1_555
Ca5 O17 2.282009 1_555
Ca5 O16 2.309638 1_555
Ca5 O52 2.319090 1_555
Ca5 O15 2.333518 1_555
Ca6 O20 2.262078 1_556
Ca6 O55 2.317561 1_555
Ca6 O56 2.340222 1_555
Ca6 O18 2.406266 1_556
Ca6 O19 2.416486 1_556
Ca6 O54 2.462580 1_555
Ca7 O23 2.312340 1_555
Ca7 O21 2.333046 1_555
Ca7 O57 2.358953 1_555
Ca7 O59 2.364928 1_555
Ca7 O22 2.382647 1_555
Ca7 O58 2.408483 1_555
Ca8 O25 2.153036 1_554
Ca8 O26 2.222214 1_554
Ca8 O24 2.298412 1_554
Ca8 O61 2.364102 1_555
Ca8 O60 2.375867 1_555
Ca8 O62 2.381726 1_555
Ca9 O28 2.218687 1_555
Ca9 O27 2.223414 1_555
Ca9 O29 2.231206 1_555
Ca9 O65 2.356827 1_555
Ca9 O64 2.380146 1_555
Ca9 O63 2.382233 1_555
Nb0 O67 1.912541 1_555
Nb0 O31 1.947573 1_555
Nb0 O66 1.961349 1_555
Nb0 O32 2.006588 1_555
Nb0 O68 2.105171 1_555
Nb0 O30 2.212405 1_555
Nb1 O70 1.940874 1_555
Nb1 O71 1.968771 1_555
Nb1 O34 1.987673 1_555
Nb1 O69 2.005428 1_555
Nb1 O33 2.007084 1_555
Nb1 O35 2.197318 1_555
O0 P0 1.526770 1_545
O1 P1 1.520975 1_555
O2 S0 1.463110 1_655
O3 P2 1.530678 1_555
O4 P3 1.521063 1_655
O5 P4 1.520881 1_545
O6 P4 1.542793 1_555
O7 P2 1.555622 1_555
O8 P3 1.517915 1_555
O9 P1 1.540960 1_555
O10 S0 1.477334 1_555
O11 P0 1.545638 1_555
O12 S1 1.473538 1_555
O13 S2 1.476747 1_555
O14 S3 1.475546 1_555
O15 S4 1.469124 1_555
O16 S5 1.468119 1_555
O17 S6 1.476251 1_555
O18 S6 1.493812 1_555
O19 S4 1.488306 1_555
O20 S5 1.478234 1_555
O21 S2 1.495826 1_555
O22 S3 1.483712 1_555
O23 S1 1.481202 1_555
O24 S7 1.472832 1_555
O25 P5 1.520072 1_555
O26 P6 1.527223 1_555
O27 P7 1.527939 1_555
O28 P8 1.527643 1_555
O29 S8 1.464712 1_555
O30 S8 1.497603 1_555
O31 P7 1.635390 1_555
O32 P8 1.613902 1_555
O33 P5 1.616016 1_555
O34 P6 1.616408 1_555
O35 S7 1.505693 1_555
O36 S8 1.494684 1_555
O37 P7 1.529773 1_555
O38 P8 1.535894 1_555
O39 P5 1.534027 1_555
O40 P6 1.546214 1_555
O41 S7 1.476199 1_555
O42 S1 1.511423 1_555
O43 S2 1.492671 1_555
O44 S3 1.488930 1_555
O45 S4 1.512556 1_555
O46 S5 1.494928 1_555
O47 S6 1.496806 1_555
O48 P4 1.533131 1_545
O49 P2 1.517065 1_555
O50 P3 1.535343 1_655
O51 P1 1.518947 1_555
O52 S0 1.463735 1_655
O53 P0 1.525221 1_545
O54 S7 1.501360 1_555
O55 P5 1.547176 1_655
O56 P6 1.543171 1_545
O57 P7 1.542219 1_545
O58 P8 1.560348 1_555
O59 S8 1.487136 1_655
O60 S6 1.495610 1_555
O61 S4 1.498233 1_455
O62 S5 1.515085 1_565
O63 S2 1.496127 1_565
O64 S3 1.516657 1_555
O65 S1 1.496181 1_455
O66 P0 1.636767 1_555
O67 P1 1.655622 1_555
O68 S0 1.534125 1_555
O69 P2 1.624953 1_555
O70 P3 1.643701 1_555
O71 P4 1.608703 1_555
