# generated using pymatgen
data_DySiIr
_symmetry_space_group_name_H-M   'P 1'
_cell_length_a   4.22717268
_cell_length_b   6.85989528
_cell_length_c   7.36885064
_cell_angle_alpha   90.00000000
_cell_angle_beta   90.00000000
_cell_angle_gamma   90.00000000
_symmetry_Int_Tables_number   1
_chemical_formula_structural   DySiIr
_chemical_formula_sum   'Dy4 Si4 Ir4'
_cell_volume   213.68165022
_cell_formula_units_Z   4
loop_
 _symmetry_equiv_pos_site_id
 _symmetry_equiv_pos_as_xyz
  1  'x, y, z'
loop_
 _atom_site_type_symbol
 _atom_site_label
 _atom_site_symmetry_multiplicity
 _atom_site_fract_x
 _atom_site_fract_y
 _atom_site_fract_z
 _atom_site_occupancy
  Dy  Dy0  1  0.75000000  0.50150922  0.18671514  1
  Dy  Dy1  1  0.25000000  0.99849078  0.68671514  1
  Dy  Dy2  1  0.75000000  0.00150922  0.31328486  1
  Dy  Dy3  1  0.25000000  0.49849078  0.81328486  1
  Si  Si0  1  0.25000000  0.79998609  0.10976461  1
  Si  Si1  1  0.25000000  0.29998609  0.39023539  1
  Si  Si2  1  0.75000000  0.20001391  0.89023539  1
  Si  Si3  1  0.75000000  0.70001391  0.60976461  1
  Ir  Ir0  1  0.25000000  0.65588013  0.43248860  1
  Ir  Ir1  1  0.25000000  0.15588013  0.06751140  1
  Ir  Ir2  1  0.75000000  0.84411987  0.93248860  1
  Ir  Ir3  1  0.75000000  0.34411987  0.56751140  1
loop_
_geom_bond_atom_site_label_1
_geom_bond_atom_site_label_2
_geom_bond_distance
_geom_bond_site_symmetry_2
Dy0 Si1 2.937258 1_655
Dy0 Si1 2.937258 1_555
Dy0 Ir0 2.978024 1_555
Dy0 Ir0 2.978024 1_655
Dy0 Si0 2.996851 1_655
Dy0 Si0 2.996851 1_555
Dy0 Ir2 3.005537 1_554
Dy0 Ir3 3.006577 1_555
Dy0 Si2 3.008411 1_554
Dy0 Ir1 3.295507 1_555
Dy0 Ir1 3.295507 1_655
Dy1 Si2 2.937258 1_465
Dy1 Si2 2.937258 1_565
Dy1 Ir2 2.978024 1_455
Dy1 Ir2 2.978024 1_555
Dy1 Si3 2.996851 1_555
Dy1 Si3 2.996851 1_455
Dy1 Ir0 3.005537 1_555
Dy1 Ir1 3.006577 1_566
Dy1 Si1 3.008411 1_565
Dy1 Ir3 3.295507 1_565
Dy1 Ir3 3.295507 1_465
Dy2 Si0 2.937258 1_645
Dy2 Si0 2.937258 1_545
Dy2 Ir1 2.978024 1_655
Dy2 Ir1 2.978024 1_555
Dy2 Si1 2.996851 1_655
Dy2 Si1 2.996851 1_555
Dy2 Ir3 3.005537 1_555
Dy2 Ir2 3.006577 1_544
Dy2 Si3 3.008411 1_545
Dy2 Ir0 3.295507 1_545
Dy2 Ir0 3.295507 1_645
Dy3 Si3 2.937258 1_455
Dy3 Si3 2.937258 1_555
Dy3 Ir3 2.978024 1_555
Dy3 Ir3 2.978024 1_455
Dy3 Si2 2.996851 1_555
Dy3 Si2 2.996851 1_455
Dy3 Ir1 3.005537 1_556
Dy3 Ir0 3.006577 1_555
Dy3 Si0 3.008411 1_556
Dy3 Ir2 3.295507 1_455
Dy3 Ir2 3.295507 1_555
Ir0 Si1 2.461170 1_555
Ir0 Si3 2.503074 1_555
Ir0 Si3 2.503074 1_455
Ir0 Si0 2.575387 1_555
Ir1 Si0 2.461170 1_545
Ir1 Si2 2.503074 1_454
Ir1 Si2 2.503074 1_554
Ir1 Si1 2.575387 1_555
Ir2 Si2 2.461170 1_565
Ir2 Si0 2.503074 1_556
Ir2 Si0 2.503074 1_656
Ir2 Si3 2.575387 1_555
Ir3 Si3 2.461170 1_555
Ir3 Si1 2.503074 1_555
Ir3 Si1 2.503074 1_655
Ir3 Si2 2.575387 1_555
