# generated using pymatgen
data_Na2Ti3ZnP4(SO12)2
_symmetry_space_group_name_H-M   'P 1'
_cell_length_a   8.62170156
_cell_length_b   8.62720514
_cell_length_c   22.42218009
_cell_angle_alpha   89.95451700
_cell_angle_beta   89.94477046
_cell_angle_gamma   120.02522389
_symmetry_Int_Tables_number   1
_chemical_formula_structural   Na2Ti3ZnP4(SO12)2
_chemical_formula_sum   'Na6 Ti9 Zn3 P12 S6 O72'
_cell_volume   1443.97762350
_cell_formula_units_Z   3
loop_
 _symmetry_equiv_pos_site_id
 _symmetry_equiv_pos_as_xyz
  1  'x, y, z'
loop_
 _atom_site_type_symbol
 _atom_site_label
 _atom_site_symmetry_multiplicity
 _atom_site_fract_x
 _atom_site_fract_y
 _atom_site_fract_z
 _atom_site_occupancy
  Na  Na0  1  0.00004745  0.99666704  0.50576245  1
  Na  Na1  1  0.00316794  0.99848796  0.00245322  1
  Na  Na2  1  0.66598911  0.33030335  0.83243813  1
  Na  Na3  1  0.66768440  0.33219276  0.33600514  1
  Na  Na4  1  0.33129846  0.66505136  0.16951043  1
  Na  Na5  1  0.33720923  0.66679151  0.66525847  1
  Ti  Ti0  1  0.00206568  0.00080245  0.35949035  1
  Ti  Ti1  1  0.00254619  0.01038399  0.85331632  1
  Ti  Ti2  1  0.65027695  0.32369957  0.68575828  1
  Ti  Ti3  1  0.66914646  0.34306901  0.18563410  1
  Ti  Ti4  1  0.66316765  0.33912921  0.97801895  1
  Ti  Ti5  1  0.66091829  0.33653062  0.47957345  1
  Ti  Ti6  1  0.32674749  0.66066071  0.01925891  1
  Ti  Ti7  1  0.34090348  0.67272332  0.51806294  1
  Ti  Ti8  1  0.34093136  0.66913081  0.81375807  1
  Zn  Zn0  1  0.99790043  0.99946849  0.64752015  1
  Zn  Zn1  1  0.00629134  0.00019139  0.14598670  1
  Zn  Zn2  1  0.33233929  0.66681773  0.32012154  1
  P  P0  1  0.28713349  0.29054588  0.74906794  1
  P  P1  1  0.71188736  0.00155292  0.74894955  1
  P  P2  1  0.37481345  0.04166898  0.58196901  1
  P  P3  1  0.66602782  0.62235776  0.58300700  1
  P  P4  1  0.95472673  0.62181104  0.08201727  1
  P  P5  1  0.37806097  0.33492607  0.08244385  1
  P  P6  1  0.62281335  0.67039478  0.91721835  1
  P  P7  1  0.04470248  0.37997391  0.91615885  1
  P  P8  1  0.33195592  0.95301488  0.91691862  1
  P  P9  1  0.62249491  0.95991962  0.41537459  1
  P  P10  1  0.33528359  0.38072476  0.41584023  1
  P  P11  1  0.04354645  0.66291449  0.41627474  1
  S  S0  1  0.29182307  -0.00041517  0.24944063  1
  S  S1  1  0.70998071  0.71239487  0.24912714  1
  S  S2  1  -0.00044263  0.28946517  0.24893684  1
  S  S3  1  0.00069279  0.70876866  0.75058633  1
  S  S4  1  0.95464023  0.33623695  0.58269751  1
  S  S5  1  0.66453859  0.04584984  0.08263189  1
  O  O0  1  0.20700843  0.02866008  0.30356657  1
  O  O1  1  0.82194612  0.79331084  0.30327530  1
  O  O2  1  0.97140582  0.17690886  0.30334865  1
  O  O3  1  0.20041320  0.17143270  0.80595583  1
  O  O4  1  0.97250480  0.79337578  0.80465258  1
  O  O5  1  0.83080077  0.02815601  0.80560281  1
  O  O6  1  0.78078893  0.95889902  0.69369600  1
  O  O7  1  0.17858587  0.21676898  0.69363803  1
  O  O8  1  0.03587634  0.81385099  0.69649735  1
  O  O9  1  0.79048845  0.81477927  0.19482322  1
  O  O10  1  0.02249088  0.20861902  0.19480954  1
  O  O11  1  0.18756608  0.97479917  0.19537346  1
  O  O12  1  0.87054214  0.36157922  0.63753641  1
  O  O13  1  0.49434153  0.13039084  0.63924913  1
  O  O14  1  0.63814926  0.50103155  0.63910137  1
  O  O15  1  0.86589192  0.50199876  0.13876515  1
  O  O16  1  0.63725826  0.12949971  0.13727739  1
  O  O17  1  0.49850491  0.36192152  0.13850284  1
  O  O18  1  0.47400481  0.31240231  0.02712835  1
  O  O19  1  0.83786757  0.52257001  0.02706993  1
  O  O20  1  0.68726395  0.15469453  0.02863387  1
  O  O21  1  0.47555445  0.15957222  0.52781028  1
  O  O22  1  0.68589241  0.52585318  0.52777873  1
  O  O23  1  0.84627425  0.31567906  0.52894283  1
  O  O24  1  0.53383355  0.69740787  0.97290760  1
  O  O25  1  0.16233563  0.46497059  0.97266389  1
  O  O26  1  0.30323513  0.83515951  0.97293808  1
  O  O27  1  0.53718100  0.83738140  0.47144326  1
  O  O28  1  0.30084453  0.46475432  0.47177773  1
  O  O29  1  0.16487842  0.69925672  0.47185766  1
  O  O30  1  0.11066986  0.62564848  0.35944499  1
  O  O31  1  0.51516568  0.88986884  0.35937710  1
  O  O32  1  0.37384634  0.48567350  0.35914192  1
  O  O33  1  0.13179629  0.49630265  0.86118686  1
  O  O34  1  0.36328595  0.86661997  0.86172096  1
  O  O35  1  0.50524571  0.63665550  0.86156975  1
  O  O36  1  0.02412390  0.83484777  0.40907618  1
  O  O37  1  0.81175106  0.97560815  0.40881163  1
  O  O38  1  0.16453641  0.18914131  0.40933292  1
  O  O39  1  0.02761269  0.19296494  0.90988795  1
  O  O40  1  0.16445604  0.97161994  0.90929061  1
  O  O41  1  0.80970629  0.83491475  0.90926630  1
  O  O42  1  0.97258517  0.17690791  0.58613440  1
  O  O43  1  0.19399758  0.02713413  0.58677494  1
  O  O44  1  0.83098233  0.80483684  0.58663450  1
  O  O45  1  0.96915425  0.80290758  0.08629887  1
  O  O46  1  0.82376657  0.02758800  0.08740969  1
  O  O47  1  0.19477872  0.17063945  0.08648323  1
  O  O48  1  0.69412743  0.17182623  0.74433984  1
  O  O49  1  0.47795363  0.31074738  0.74453217  1
  O  O50  1  0.83851187  0.52733061  0.74581583  1
  O  O51  1  0.69696351  0.52798279  0.24390619  1
  O  O52  1  0.82942254  0.30172539  0.24386278  1
  O  O53  1  0.47383383  0.16871954  0.24395698  1
  O  O54  1  0.64025400  0.50026058  0.92385778  1
  O  O55  1  0.85714378  0.35693256  0.92460755  1
  O  O56  1  0.50044690  0.13960907  0.92504767  1
  O  O57  1  0.65438719  0.14897800  0.42769710  1
  O  O58  1  0.49455667  0.34826597  0.42635222  1
  O  O59  1  0.85354626  0.50411334  0.42781625  1
  O  O60  1  0.37066985  0.51008097  0.07633079  1
  O  O61  1  0.14001302  0.63363431  0.07613361  1
  O  O62  1  0.49884684  0.86720807  0.07771647  1
  O  O63  1  0.36534808  0.85764797  0.57613120  1
  O  O64  1  0.49035607  0.62997293  0.57627963  1
  O  O65  1  0.13360328  0.50235582  0.57752247  1
  O  O66  1  0.31720742  0.84433971  0.25551737  1
  O  O67  1  0.52804811  0.68331290  0.25493021  1
  O  O68  1  0.15449340  0.47057698  0.25478132  1
  O  O69  1  0.31426181  0.48012503  0.76082528  1
  O  O70  1  0.16066482  0.68598426  0.75968744  1
  O  O71  1  0.52083895  0.83849917  0.76129728  1
loop_
_geom_bond_atom_site_label_1
_geom_bond_atom_site_label_2
_geom_bond_distance
_geom_bond_site_symmetry_2
Na0 O44 2.393264 1_455
Na0 O43 2.394079 1_565
Na0 O42 2.468543 1_465
Na0 O36 2.643077 1_555
Na0 O38 2.659917 1_565
Na0 O37 2.665789 1_455
Na1 O45 2.442568 1_455
Na1 O47 2.457624 1_565
Na1 O46 2.543190 1_465
Na1 O40 2.582387 1_554
Na1 O41 2.606754 1_454
Na1 O39 2.609008 1_564
Na2 O48 2.483035 1_555
Na2 O49 2.504932 1_555
Na2 O50 2.516560 1_555
Na2 O55 2.582315 1_555
Na2 O56 2.587373 1_555
Na2 O54 2.594303 1_555
Na3 O57 2.559578 1_555
Na3 O58 2.559841 1_555
Na3 O59 2.576472 1_555
Na3 O52 2.577637 1_555
Na3 O53 2.587365 1_555
Na3 O51 2.597703 1_555
Na4 O68 2.494792 1_555
Na4 O67 2.511965 1_555
Na4 O66 2.513668 1_555
Na4 O60 2.593274 1_555
Na4 O61 2.595609 1_555
Na4 O62 2.613807 1_555
Na5 O64 2.498078 1_555
Na5 O63 2.521467 1_555
Na5 O65 2.546158 1_555
Na5 O69 2.626609 1_555
Na5 O71 2.646249 1_555
Na5 O70 2.659659 1_555
O0 S0 1.500951 1_555
O0 Ti0 2.079064 1_555
O1 S1 1.490799 1_555
O1 Ti0 2.104783 1_665
O2 S2 1.500666 1_655
O2 Ti0 2.088616 1_655
O3 P0 1.571372 1_555
O3 Ti1 1.894860 1_555
O4 S3 1.496611 1_655
O4 Ti1 2.069114 1_665
O5 P1 1.576360 1_555
O5 Ti1 1.894901 1_655
O6 P1 1.497085 1_565
O6 Zn0 2.009579 1_555
O7 P0 1.494335 1_555
O7 Zn0 2.023385 1_445
O8 S3 1.451579 1_555
O8 Zn0 2.097656 1_455
O9 S1 1.458653 1_555
O9 Zn1 2.057763 1_665
O10 S2 1.461990 1_555
O10 Zn1 2.050202 1_555
O11 S0 1.460663 1_565
O11 Zn1 2.015556 1_565
O12 S4 1.497602 1_555
O12 Ti2 2.063179 1_555
O13 P2 1.584971 1_555
O13 Ti2 1.854157 1_555
O14 P3 1.575078 1_555
O14 Ti2 1.898328 1_555
O15 P4 1.574109 1_555
O15 Ti3 1.878413 1_555
O16 S5 1.499375 1_555
O16 Ti3 2.035397 1_555
O17 P5 1.572734 1_555
O17 Ti3 1.884126 1_555
O18 P5 1.555511 1_555
O18 Ti4 1.882903 1_554
O19 P4 1.551404 1_555
O19 Ti4 1.898236 1_554
O20 S5 1.483137 1_555
O20 Ti4 2.047274 1_554
O21 P2 1.541285 1_555
O21 Ti5 1.899192 1_555
O22 P3 1.549163 1_555
O22 Ti5 1.879809 1_555
O23 S4 1.481145 1_555
O23 Ti5 2.025440 1_555
O24 P6 1.542584 1_555
O24 Ti6 1.948810 1_556
O25 P7 1.559229 1_555
O25 Ti6 1.887270 1_556
O26 P8 1.555077 1_555
O26 Ti6 1.920804 1_556
O27 P9 1.567498 1_555
O27 Ti7 1.887540 1_555
O28 P10 1.550149 1_555
O28 Ti7 1.949095 1_555
O29 P11 1.555874 1_555
O29 Ti7 1.944037 1_555
O30 P11 1.499137 1_555
O30 Zn2 1.968013 1_555
O31 P9 1.497265 1_555
O31 Zn2 1.982967 1_555
O32 P10 1.497537 1_555
O32 Zn2 1.973300 1_555
O33 P7 1.527223 1_555
O33 Ti8 1.977001 1_555
O34 P8 1.537073 1_555
O34 Ti8 1.941970 1_555
O35 P6 1.541699 1_555
O35 Ti8 1.906406 1_555
O36 P11 1.581939 1_555
O36 Ti0 1.895396 1_565
O37 P9 1.575100 1_555
O37 Ti0 1.897836 1_665
O38 P10 1.576726 1_555
O38 Ti0 1.891926 1_555
O39 P7 1.551427 1_555
O39 Ti1 1.949322 1_555
O40 P8 1.540437 1_555
O40 Ti1 2.026223 1_565
O41 P6 1.533948 1_555
O41 Ti1 2.025803 1_665
O42 S4 1.460132 1_555
O42 Zn0 2.148742 1_545
O43 P2 1.503879 1_555
O43 Zn0 2.088484 1_445
O44 P3 1.505788 1_555
O44 Zn0 2.084081 1_555
O45 P4 1.507123 1_555
O45 Zn1 2.061444 1_665
O46 S5 1.462063 1_555
O46 Zn1 2.152469 1_655
O47 P5 1.507389 1_555
O47 Zn1 2.045613 1_555
O48 P1 1.554649 1_555
O48 Ti2 2.019649 1_555
O49 P0 1.568466 1_555
O49 Ti2 1.945867 1_555
O50 S3 1.492297 1_655
O50 Ti2 2.165218 1_555
O51 S1 1.542429 1_555
O51 Ti3 1.982589 1_555
O52 S2 1.526878 1_655
O52 Ti3 2.058484 1_555
O53 S0 1.521384 1_555
O53 Ti3 2.065441 1_555
O54 P6 1.555548 1_555
O54 Ti4 1.928433 1_555
O55 P7 1.538828 1_655
O55 Ti4 1.998388 1_555
O56 P8 1.547773 1_545
O56 Ti4 1.982813 1_555
O57 P9 1.537626 1_545
O57 Ti5 1.971344 1_555
O58 P10 1.550810 1_555
O58 Ti5 1.907881 1_555
O59 P11 1.542729 1_655
O59 Ti5 1.945741 1_555
O60 P5 1.549941 1_555
O60 Ti6 1.989774 1_555
O61 P4 1.554433 1_455
O61 Ti6 1.972952 1_555
O62 S5 1.491768 1_565
O62 Ti6 2.111015 1_555
O63 P2 1.554001 1_565
O63 Ti7 1.988026 1_555
O64 P3 1.555974 1_555
O64 Ti7 1.994580 1_555
O65 S4 1.494831 1_455
O65 Ti7 2.120255 1_555
O66 S0 1.467441 1_565
O66 Zn2 2.158174 1_555
O67 S1 1.464921 1_555
O67 Zn2 2.181433 1_555
O68 S2 1.467930 1_555
O68 Zn2 2.184986 1_555
O69 P0 1.554722 1_555
O69 Ti8 1.936165 1_555
O70 S3 1.501451 1_555
O70 Ti8 2.033732 1_555
O71 P1 1.564696 1_565
O71 Ti8 1.910551 1_555
