# generated using pymatgen
data_MgMn6O11F
_symmetry_space_group_name_H-M   'P 1'
_cell_length_a   4.99617463
_cell_length_b   5.10977928
_cell_length_c   8.68250243
_cell_angle_alpha   90.78156956
_cell_angle_beta   89.16074667
_cell_angle_gamma   101.10829741
_symmetry_Int_Tables_number   1
_chemical_formula_structural   MgMn6O11F
_chemical_formula_sum   'Mg1 Mn6 O11 F1'
_cell_volume   217.46926086
_cell_formula_units_Z   1
loop_
 _symmetry_equiv_pos_site_id
 _symmetry_equiv_pos_as_xyz
  1  'x, y, z'
loop_
 _atom_site_type_symbol
 _atom_site_label
 _atom_site_symmetry_multiplicity
 _atom_site_fract_x
 _atom_site_fract_y
 _atom_site_fract_z
 _atom_site_occupancy
  Mg  Mg0  1  0.51640777  0.04026089  0.66547967  1
  Mn  Mn0  1  0.00824918  0.99175140  0.01335785  1
  Mn  Mn1  1  0.99834546  -0.00154578  0.33561573  1
  Mn  Mn2  1  0.00704511  0.98038431  0.66460427  1
  Mn  Mn3  1  0.44222308  0.54806877  0.85076014  1
  Mn  Mn4  1  0.55353854  0.44583154  0.17062662  1
  Mn  Mn5  1  0.45560205  0.53706620  0.49515721  1
  O  O0  1  0.17376594  0.85785843  0.17000699  1
  O  O1  1  0.20808577  0.84749602  0.51132914  1
  O  O2  1  0.20672490  0.85632115  0.82819398  1
  O  O3  1  0.28621323  0.31761715  0.01110975  1
  O  O4  1  0.29422668  0.31341822  0.33393419  1
  O  O5  1  0.29392267  0.31579883  0.67242756  1
  O  O6  1  0.72161801  0.66646365  0.00108925  1
  O  O7  1  0.72398596  0.66473464  0.34029061  1
  O  O8  1  0.67494022  0.70666952  0.67330250  1
  O  O9  1  0.81592847  0.14009082  0.17354134  1
  O  O10  1  0.82637248  0.13677970  0.51409046  1
  F  F0  1  0.80668948  0.14882355  0.83222174  1
loop_
_geom_bond_atom_site_label_1
_geom_bond_atom_site_label_2
_geom_bond_distance
_geom_bond_site_symmetry_2
Mg0 O5 1.954557 1_555
Mg0 O10 2.008236 1_555
Mg0 O8 2.015571 1_545
Mg0 O1 2.138748 1_545
Mg0 O2 2.164501 1_545
Mn0 O0 1.810569 1_555
Mn0 O9 1.909148 1_465
Mn0 O3 1.952087 1_565
Mn0 O6 1.976695 1_455
Mn0 O2 2.057722 1_554
Mn1 O0 1.878649 1_645
Mn1 O9 1.911590 1_555
Mn1 O10 1.950443 1_555
Mn1 O4 1.964416 1_655
Mn1 O7 1.971800 1_545
Mn1 O1 2.100250 1_645
Mn2 O1 1.854731 1_555
Mn2 O10 1.871439 1_465
Mn2 O2 1.929862 1_555
Mn2 O8 1.954473 1_455
Mn2 O5 2.012333 1_565
Mn3 O3 1.895196 1_556
Mn3 O6 1.929924 1_556
Mn3 O5 1.999919 1_555
Mn3 O8 2.000282 1_555
Mn3 O2 2.152436 1_555
Mn4 O7 1.941944 1_555
Mn4 O4 1.944573 1_555
Mn4 O6 1.946085 1_555
Mn4 O3 1.955393 1_555
Mn4 O9 2.225111 1_555
Mn5 O4 1.884119 1_555
Mn5 O7 1.914587 1_555
Mn5 O5 1.989709 1_555
Mn5 O8 1.997877 1_555
Mn5 O1 2.193123 1_555
F0 Mn2 2.028781 1_645
F0 Mg0 2.058308 1_555
F0 Mn0 2.126965 1_646
