# generated using pymatgen
data_MgTi4O8
_symmetry_space_group_name_H-M   'P 1'
_cell_length_a   3.88059501
_cell_length_b   6.63539419
_cell_length_c   6.63855500
_cell_angle_alpha   106.57701475
_cell_angle_beta   89.99552640
_cell_angle_gamma   107.00966712
_symmetry_Int_Tables_number   1
_chemical_formula_structural   MgTi4O8
_chemical_formula_sum   'Mg1 Ti4 O8'
_cell_volume   156.01677867
_cell_formula_units_Z   1
loop_
 _symmetry_equiv_pos_site_id
 _symmetry_equiv_pos_as_xyz
  1  'x, y, z'
loop_
 _atom_site_type_symbol
 _atom_site_label
 _atom_site_symmetry_multiplicity
 _atom_site_fract_x
 _atom_site_fract_y
 _atom_site_fract_z
 _atom_site_occupancy
  Mg  Mg0  1  0.31862400  0.63692900  0.99424500  1
  Ti  Ti0  1  0.19156200  0.38306400  0.28987300  1
  Ti  Ti1  1  0.90271000  0.80519600  0.32531600  1
  Ti  Ti2  1  0.79150000  0.58269000  0.67202300  1
  Ti  Ti3  1  0.09429100  0.18823100  0.68783800  1
  O  O0  1  0.93990200  0.87956600  0.64928200  1
  O  O1  1  0.36812300  0.73608700  0.30860100  1
  O  O2  1  0.85256400  0.70477700  0.99697200  1
  O  O3  1  0.05652600  0.11286700  0.35369400  1
  O  O4  1  0.26779200  0.53528300  0.67234600  1
  O  O5  1  0.15497800  0.30972200  0.00345400  1
  O  O6  1  0.73426800  0.46847500  0.34372900  1
  O  O7  1  0.63073200  0.26127900  0.68262900  1
loop_
_geom_bond_atom_site_label_1
_geom_bond_atom_site_label_2
_geom_bond_distance
_geom_bond_site_symmetry_2
Mg0 O2 1.986385 1_455
Mg0 O2 1.986406 1_555
Mg0 O1 1.991849 1_556
Mg0 O4 2.039646 1_555
Mg0 O5 2.095222 1_556
O0 Ti3 1.897949 1_665
O0 Ti2 1.934131 1_555
O0 Ti1 2.059734 1_555
O1 Ti1 1.984945 1_455
O1 Ti1 1.985104 1_555
O1 Ti0 2.206081 1_555
O2 Ti2 2.063128 1_555
O2 Ti1 2.080511 1_556
O3 Ti0 1.884726 1_555
O3 Ti1 1.904518 1_445
O3 Ti3 2.125164 1_555
O4 Ti2 1.963556 1_555
O4 Ti2 1.963594 1_455
O4 Ti3 2.234929 1_555
O4 Ti0 2.432386 1_555
O5 Ti0 1.817680 1_555
O5 Ti3 2.005130 1_554
O6 Ti0 2.017556 1_555
O6 Ti0 2.017626 1_655
O6 Ti2 2.081488 1_555
O6 Ti1 2.176136 1_555
O7 Ti3 1.997214 1_555
O7 Ti3 1.997955 1_655
O7 Ti2 2.061496 1_555
