# generated using pymatgen
data_Si2N2O
_symmetry_space_group_name_H-M   'P 1'
_cell_length_a   5.49281360
_cell_length_b   5.49281360
_cell_length_c   13.47862200
_cell_angle_alpha   90.00000000
_cell_angle_beta   90.00000000
_cell_angle_gamma   119.99999518
_symmetry_Int_Tables_number   1
_chemical_formula_structural   Si2N2O
_chemical_formula_sum   'Si16 N16 O8'
_cell_volume   352.18095716
_cell_formula_units_Z   8
loop_
 _symmetry_equiv_pos_site_id
 _symmetry_equiv_pos_as_xyz
  1  'x, y, z'
loop_
 _atom_site_type_symbol
 _atom_site_label
 _atom_site_symmetry_multiplicity
 _atom_site_fract_x
 _atom_site_fract_y
 _atom_site_fract_z
 _atom_site_occupancy
  Si  Si0  1  0.83157700  0.16842300  0.83477600  1
  Si  Si1  1  0.66315500  0.83157700  0.16522400  1
  Si  Si2  1  0.16842300  0.83157700  0.16522400  1
  Si  Si3  1  0.33684500  0.16842300  0.83477600  1
  Si  Si4  1  0.16842300  0.33684500  0.16522400  1
  Si  Si5  1  0.83157700  0.66315500  0.83477600  1
  Si  Si6  1  0.50000000  0.50000000  0.50000000  1
  Si  Si7  1  0.00000000  0.50000000  0.50000000  1
  Si  Si8  1  0.50000000  0.00000000  0.50000000  1
  Si  Si9  1  0.00000000  0.00000000  0.00000000  1
  Si  Si10  1  0.33333300  0.66666700  0.33013200  1
  Si  Si11  1  0.66666700  0.33333300  0.66986800  1
  Si  Si12  1  0.00000000  0.00000000  0.37102000  1
  Si  Si13  1  0.00000000  0.00000000  0.62898000  1
  Si  Si14  1  0.66666700  0.33333300  0.04482500  1
  Si  Si15  1  0.33333300  0.66666700  0.95517500  1
  N  N0  1  0.68588600  0.84294300  0.91271900  1
  N  N1  1  0.31411400  0.15705700  0.08728100  1
  N  N2  1  0.84294300  0.15705700  0.08728100  1
  N  N3  1  0.15705700  0.84294300  0.91271900  1
  N  N4  1  0.84294300  0.68588600  0.08728100  1
  N  N5  1  0.15705700  0.31411400  0.91271900  1
  N  N6  1  0.33333300  0.66666700  0.08655700  1
  N  N7  1  0.66666700  0.33333300  0.91344300  1
  N  N8  1  0.17613700  0.35227500  0.41590500  1
  N  N9  1  0.82386300  0.64772500  0.58409500  1
  N  N10  1  0.82386300  0.17613700  0.58409500  1
  N  N11  1  0.64772500  0.82386300  0.41590500  1
  N  N12  1  0.17613700  0.82386300  0.41590500  1
  N  N13  1  0.35227500  0.17613700  0.58409500  1
  N  N14  1  0.00000000  0.00000000  0.24065000  1
  N  N15  1  0.00000000  0.00000000  0.75935000  1
  O  O0  1  0.33333300  0.66666700  0.56318800  1
  O  O1  1  0.66666700  0.33333300  0.43681200  1
  O  O2  1  0.52139300  0.47860700  0.75774100  1
  O  O3  1  0.04278600  0.52139300  0.24225900  1
  O  O4  1  0.47860700  0.95721400  0.24225900  1
  O  O5  1  0.95721400  0.47860700  0.75774100  1
  O  O6  1  0.52139300  0.04278600  0.75774100  1
  O  O7  1  0.47860700  0.52139300  0.24225900  1
loop_
_geom_bond_atom_site_label_1
_geom_bond_atom_site_label_2
_geom_bond_distance
_geom_bond_site_symmetry_2
N0 Si15 1.772009 1_555
N0 Si5 1.873396 1_555
N0 Si0 1.873400 1_565
N0 Si9 1.901751 1_666
N1 Si14 1.772009 1_555
N1 Si4 1.873396 1_555
N1 Si2 1.873400 1_545
N1 Si9 1.901751 1_555
N2 Si14 1.772004 1_555
N2 Si4 1.873400 1_655
N2 Si1 1.873400 1_545
N2 Si9 1.901751 1_655
N3 Si15 1.772004 1_555
N3 Si3 1.873400 1_565
N3 Si5 1.873400 1_455
N3 Si9 1.901751 1_566
N4 Si14 1.772009 1_555
N4 Si1 1.873396 1_555
N4 Si2 1.873400 1_655
N4 Si9 1.901751 1_665
N5 Si15 1.772009 1_555
N5 Si3 1.873396 1_555
N5 Si0 1.873400 1_455
N5 Si9 1.901751 1_556
N6 Si15 1.770848 1_554
N6 Si2 1.893624 1_555
N6 Si1 1.893632 1_555
N6 Si4 1.893632 1_555
N7 Si14 1.770848 1_556
N7 Si0 1.893624 1_555
N7 Si5 1.893632 1_555
N7 Si3 1.893632 1_555
N8 Si12 1.781607 1_555
N8 Si10 1.890291 1_555
N8 Si7 1.914230 1_555
N8 Si6 1.914234 1_555
N9 Si13 1.781607 1_665
N9 Si11 1.890291 1_555
N9 Si7 1.914230 1_655
N9 Si6 1.914234 1_555
N10 Si13 1.781603 1_655
N10 Si11 1.890291 1_555
N10 Si8 1.914234 1_555
N10 Si7 1.914234 1_655
N11 Si12 1.781607 1_665
N11 Si10 1.890291 1_555
N11 Si8 1.914230 1_565
N11 Si6 1.914234 1_555
N12 Si12 1.781603 1_565
N12 Si10 1.890291 1_555
N12 Si8 1.914234 1_565
N12 Si7 1.914234 1_555
N13 Si13 1.781607 1_555
N13 Si11 1.890291 1_555
N13 Si8 1.914230 1_555
N13 Si6 1.914234 1_555
N14 Si12 1.757208 1_555
N14 Si4 1.897646 1_555
N14 Si1 1.897646 1_445
N14 Si2 1.897649 1_545
N15 Si13 1.757208 1_555
N15 Si3 1.897646 1_555
N15 Si5 1.897646 1_445
N15 Si0 1.897649 1_455
O0 Si8 1.799893 1_565
O0 Si7 1.799893 1_555
O0 Si6 1.799898 1_555
O1 Si8 1.799893 1_555
O1 Si7 1.799893 1_655
O1 Si6 1.799898 1_555
O2 Si5 1.811479 1_555
O2 Si3 1.811479 1_555
O2 Si11 1.820180 1_555
O3 Si2 1.811478 1_555
O3 Si4 1.811482 1_555
O3 Si10 1.820176 1_555
O4 Si2 1.811478 1_555
O4 Si1 1.811482 1_555
O4 Si10 1.820176 1_555
O5 Si0 1.811478 1_555
O5 Si5 1.811482 1_555
O5 Si11 1.820176 1_555
O6 Si0 1.811478 1_555
O6 Si3 1.811482 1_555
O6 Si11 1.820176 1_555
O7 Si1 1.811479 1_555
O7 Si4 1.811479 1_555
O7 Si10 1.820180 1_555
