# generated using pymatgen
data_HoCo2
_symmetry_space_group_name_H-M   'P 1'
_cell_length_a   5.03407936
_cell_length_b   5.03475188
_cell_length_c   5.03418985
_cell_angle_alpha   60.00349289
_cell_angle_beta   59.99909450
_cell_angle_gamma   59.99408975
_symmetry_Int_Tables_number   1
_chemical_formula_structural   HoCo2
_chemical_formula_sum   'Ho2 Co4'
_cell_volume   90.21978972
_cell_formula_units_Z   2
loop_
 _symmetry_equiv_pos_site_id
 _symmetry_equiv_pos_as_xyz
  1  'x, y, z'
loop_
 _atom_site_type_symbol
 _atom_site_label
 _atom_site_symmetry_multiplicity
 _atom_site_fract_x
 _atom_site_fract_y
 _atom_site_fract_z
 _atom_site_occupancy
  Ho  Ho0  1  0.12499617  0.12500982  0.12499662  1
  Ho  Ho1  1  0.87500407  0.87499052  0.87500308  1
  Co  Co0  1  0.49999986  0.49999985  0.50000018  1
  Co  Co1  1  0.49999986  0.49999985  0.00000010  1
  Co  Co2  1  0.00000010  0.49999986  0.50000003  1
  Co  Co3  1  0.49999994  0.00000011  0.49999998  1
loop_
_geom_bond_atom_site_label_1
_geom_bond_atom_site_label_2
_geom_bond_distance
_geom_bond_site_symmetry_2
Ho0 Ho1 3.082578 1_544
Ho0 Ho1 3.082932 1_445
Ho0 Ho1 3.082937 1_444
Ho0 Ho1 3.083015 1_454
Co0 Co2 2.517039 1_555
Co0 Co2 2.517041 1_655
Co0 Co1 2.517095 1_556
Co0 Co1 2.517095 1_555
Co0 Co3 2.517375 1_555
Co0 Co3 2.517377 1_565
Co0 Ho1 2.951322 1_455
Co0 Ho0 2.951323 1_655
Co0 Ho1 2.951666 1_545
Co0 Ho0 2.951668 1_565
Co0 Ho0 2.951793 1_556
Co0 Ho1 2.951797 1_554
Co1 Co2 2.517032 1_555
Co1 Co2 2.517034 1_654
Co1 Co3 2.517367 1_555
Co1 Co3 2.517369 1_564
Co1 Ho1 2.951323 1_454
Co1 Ho0 2.951324 1_655
Co1 Ho1 2.951668 1_544
Co1 Ho0 2.951670 1_565
Co1 Ho0 2.951804 1_555
Co1 Ho1 2.951808 1_554
Co2 Co3 2.516982 1_555
Co2 Co3 2.516984 1_465
Co2 Ho0 2.951606 1_556
Co2 Ho1 2.951607 1_454
Co2 Ho0 2.951616 1_555
Co2 Ho1 2.951617 1_455
Co2 Ho1 2.952041 1_445
Co2 Ho0 2.952044 1_565
Co3 Ho0 2.951493 1_556
Co3 Ho1 2.951494 1_544
Co3 Ho0 2.951502 1_555
Co3 Ho1 2.951502 1_545
Co3 Ho1 2.951583 1_445
Co3 Ho0 2.951585 1_655
