# generated using pymatgen
data_Mn4Be3Ge3SO12
_symmetry_space_group_name_H-M   'P 1'
_cell_length_a   8.55732900
_cell_length_b   8.55732900
_cell_length_c   8.55732900
_cell_angle_alpha   90.00000000
_cell_angle_beta   90.00000000
_cell_angle_gamma   90.00000000
_symmetry_Int_Tables_number   1
_chemical_formula_structural   Mn4Be3Ge3SO12
_chemical_formula_sum   'Mn8 Be6 Ge6 S2 O24'
_cell_volume   626.63505783
_cell_formula_units_Z   2
loop_
 _symmetry_equiv_pos_site_id
 _symmetry_equiv_pos_as_xyz
  1  'x, y, z'
loop_
 _atom_site_type_symbol
 _atom_site_label
 _atom_site_symmetry_multiplicity
 _atom_site_fract_x
 _atom_site_fract_y
 _atom_site_fract_z
 _atom_site_occupancy
  Mn  Mn0  1  0.83230100  0.16769900  0.83230100  1
  Mn  Mn1  1  0.83230100  0.83230100  0.16769900  1
  Mn  Mn2  1  0.16769900  0.83230100  0.83230100  1
  Mn  Mn3  1  0.33230100  0.33230100  0.66769900  1
  Mn  Mn4  1  0.33230100  0.66769900  0.33230100  1
  Mn  Mn5  1  0.16769900  0.16769900  0.16769900  1
  Mn  Mn6  1  0.66769900  0.66769900  0.66769900  1
  Mn  Mn7  1  0.66769900  0.33230100  0.33230100  1
  Be  Be0  1  0.25000000  0.50000000  0.00000000  1
  Be  Be1  1  0.50000000  0.00000000  0.75000000  1
  Be  Be2  1  0.50000000  0.00000000  0.25000000  1
  Be  Be3  1  0.00000000  0.25000000  0.50000000  1
  Be  Be4  1  0.00000000  0.75000000  0.50000000  1
  Be  Be5  1  0.75000000  0.50000000  0.00000000  1
  Ge  Ge0  1  0.50000000  0.25000000  0.00000000  1
  Ge  Ge1  1  0.00000000  0.50000000  0.25000000  1
  Ge  Ge2  1  0.00000000  0.50000000  0.75000000  1
  Ge  Ge3  1  0.25000000  0.00000000  0.50000000  1
  Ge  Ge4  1  0.50000000  0.75000000  0.00000000  1
  Ge  Ge5  1  0.75000000  0.00000000  0.50000000  1
  S  S0  1  0.50000000  0.50000000  0.50000000  1
  S  S1  1  0.00000000  0.00000000  0.00000000  1
  O  O0  1  0.63456800  0.90902900  0.64589800  1
  O  O1  1  0.63456800  0.09097100  0.35410200  1
  O  O2  1  0.90902900  0.64589800  0.63456800  1
  O  O3  1  0.09097100  0.64589800  0.36543200  1
  O  O4  1  0.64589800  0.63456800  0.90902900  1
  O  O5  1  0.35410200  0.36543200  0.90902900  1
  O  O6  1  0.86543200  0.85410200  0.40902900  1
  O  O7  1  0.86543200  0.14589800  0.59097100  1
  O  O8  1  0.13456800  0.85410200  0.59097100  1
  O  O9  1  0.14589800  0.59097100  0.86543200  1
  O  O10  1  0.59097100  0.13456800  0.85410200  1
  O  O11  1  0.59097100  0.86543200  0.14589800  1
  O  O12  1  0.85410200  0.40902900  0.86543200  1
  O  O13  1  0.40902900  0.86543200  0.85410200  1
  O  O14  1  0.13456800  0.14589800  0.40902900  1
  O  O15  1  0.36543200  0.90902900  0.35410200  1
  O  O16  1  0.36543200  0.09097100  0.64589800  1
  O  O17  1  0.09097100  0.35410200  0.63456800  1
  O  O18  1  0.90902900  0.35410200  0.36543200  1
  O  O19  1  0.64589800  0.36543200  0.09097100  1
  O  O20  1  0.35410200  0.63456800  0.09097100  1
  O  O21  1  0.40902900  0.13456800  0.14589800  1
  O  O22  1  0.14589800  0.40902900  0.13456800  1
  O  O23  1  0.85410200  0.59097100  0.13456800  1
loop_
_geom_bond_atom_site_label_1
_geom_bond_atom_site_label_2
_geom_bond_distance
_geom_bond_site_symmetry_2
Mn0 O10 2.092842 1_555
Mn0 O7 2.092842 1_555
Mn0 O12 2.092842 1_555
Mn0 S1 2.485589 1_656
Mn1 O23 2.092842 1_555
Mn1 O11 2.092842 1_555
Mn1 O6 2.092842 1_555
Mn1 S1 2.485589 1_665
Mn2 O9 2.092842 1_555
Mn2 O8 2.092842 1_555
Mn2 O13 2.092842 1_555
Mn2 S1 2.485589 1_566
Mn3 O5 2.092842 1_555
Mn3 O16 2.092842 1_555
Mn3 O17 2.092842 1_555
Mn3 S0 2.485589 1_555
Mn4 O15 2.092842 1_555
Mn4 O3 2.092842 1_555
Mn4 O20 2.092842 1_555
Mn4 S0 2.485589 1_555
Mn5 O22 2.092842 1_555
Mn5 O21 2.092842 1_555
Mn5 O14 2.092842 1_555
Mn5 S1 2.485589 1_555
Mn6 O0 2.092842 1_555
Mn6 O2 2.092842 1_555
Mn6 O4 2.092842 1_555
Mn6 S0 2.485589 1_555
Mn7 O18 2.092842 1_555
Mn7 O19 2.092842 1_555
Mn7 O1 2.092842 1_555
Mn7 S0 2.485589 1_555
Be0 O20 1.650955 1_555
Be0 O22 1.650955 1_555
Be0 O9 1.650955 1_554
Be0 O5 1.650955 1_554
Be1 O0 1.650955 1_545
Be1 O13 1.650955 1_545
Be1 O10 1.650955 1_555
Be1 O16 1.650955 1_555
Be2 O21 1.650955 1_555
Be2 O15 1.650955 1_545
Be2 O1 1.650955 1_555
Be2 O11 1.650955 1_545
Be3 O18 1.650955 1_455
Be3 O7 1.650955 1_455
Be3 O14 1.650955 1_555
Be3 O17 1.650955 1_555
Be4 O8 1.650955 1_555
Be4 O6 1.650955 1_455
Be4 O2 1.650955 1_455
Be4 O3 1.650955 1_555
Be5 O19 1.650955 1_555
Be5 O23 1.650955 1_555
Be5 O12 1.650955 1_554
Be5 O4 1.650955 1_554
Ge0 O19 1.772142 1_555
Ge0 O10 1.772142 1_554
Ge0 O5 1.772142 1_554
Ge0 O21 1.772142 1_555
Ge1 O3 1.772142 1_555
Ge1 O23 1.772142 1_455
Ge1 O22 1.772142 1_555
Ge1 O18 1.772142 1_455
Ge2 O2 1.772142 1_455
Ge2 O12 1.772142 1_455
Ge2 O17 1.772142 1_555
Ge2 O9 1.772142 1_555
Ge3 O16 1.772142 1_555
Ge3 O14 1.772142 1_555
Ge3 O8 1.772142 1_545
Ge3 O15 1.772142 1_545
Ge4 O4 1.772142 1_554
Ge4 O13 1.772142 1_554
Ge4 O11 1.772142 1_555
Ge4 O20 1.772142 1_555
Ge5 O0 1.772142 1_545
Ge5 O6 1.772142 1_545
Ge5 O1 1.772142 1_555
Ge5 O7 1.772142 1_555
