# generated using pymatgen
data_Ba3Tm4O9
_symmetry_space_group_name_H-M   'P 1'
_cell_length_a   9.03430231
_cell_length_b   9.03430227
_cell_length_c   9.03430188
_cell_angle_alpha   38.95640455
_cell_angle_beta   38.95640403
_cell_angle_gamma   38.95640886
_symmetry_Int_Tables_number   1
_chemical_formula_structural   Ba3Tm4O9
_chemical_formula_sum   'Ba3 Tm4 O9'
_cell_volume   262.11222326
_cell_formula_units_Z   1
loop_
 _symmetry_equiv_pos_site_id
 _symmetry_equiv_pos_as_xyz
  1  'x, y, z'
loop_
 _atom_site_type_symbol
 _atom_site_label
 _atom_site_symmetry_multiplicity
 _atom_site_fract_x
 _atom_site_fract_y
 _atom_site_fract_z
 _atom_site_occupancy
  Ba  Ba0  1  0.00015739  0.00015739  0.00015739  1
  Ba  Ba1  1  0.16330920  0.16330920  0.16330920  1
  Ba  Ba2  1  0.57985770  0.57985770  0.57985770  1
  Tm  Tm0  1  0.42464087  0.42464087  0.42464087  1
  Tm  Tm1  1  0.86389729  0.86389729  0.86389729  1
  Tm  Tm2  1  0.73895743  0.73895743  0.73895743  1
  Tm  Tm3  1  0.30001144  0.30001144  0.30001144  1
  O  O0  1  0.47417668  0.56478351  0.03895907  1
  O  O1  1  0.56478351  0.03895907  0.47417668  1
  O  O2  1  0.03895907  0.47417668  0.56478351  1
  O  O3  1  0.60781608  0.68089850  0.12663801  1
  O  O4  1  0.68089850  0.12663801  0.60781608  1
  O  O5  1  0.12663801  0.60781608  0.68089850  1
  O  O6  1  0.03663435  0.58103718  0.12772330  1
  O  O7  1  0.12772330  0.03663435  0.58103718  1
  O  O8  1  0.58103718  0.12772330  0.03663435  1
loop_
_geom_bond_atom_site_label_1
_geom_bond_atom_site_label_2
_geom_bond_distance
_geom_bond_site_symmetry_2
Ba0 O7 2.763569 1_554
Ba0 O6 2.763569 1_545
Ba0 O8 2.763569 1_455
Ba0 O1 2.815412 1_455
Ba0 O2 2.815412 1_554
Ba0 O0 2.815412 1_545
Ba1 O7 2.761073 1_555
Ba1 O8 2.761073 1_555
Ba1 O6 2.761073 1_555
Ba1 O5 2.861369 1_554
Ba1 O4 2.861369 1_455
Ba1 O3 2.861370 1_545
Ba1 O4 3.292465 1_554
Ba1 O5 3.292465 1_545
Ba1 O3 3.292465 1_455
Ba2 O6 2.738502 1_655
Ba2 O8 2.738502 1_556
Ba2 O7 2.738502 1_565
Ba2 O3 3.255671 1_555
Ba2 O5 3.255671 1_555
Ba2 O4 3.255671 1_555
Ba2 O6 3.287236 1_556
Ba2 O8 3.287236 1_565
Ba2 O7 3.287236 1_655
Ba2 O0 3.361271 1_556
Ba2 O1 3.361272 1_565
Ba2 O2 3.361272 1_655
O0 Tm2 2.163804 1_554
O0 Tm3 2.251261 1_555
O0 Tm0 2.353532 1_555
O1 Tm2 2.163804 1_545
O1 Tm3 2.251261 1_555
O1 Tm0 2.353532 1_555
O2 Tm2 2.163804 1_455
O2 Tm3 2.251261 1_555
O2 Tm0 2.353532 1_555
O3 Tm0 2.163841 1_555
O3 Tm1 2.241558 1_554
O3 Tm2 2.366750 1_554
O4 Tm0 2.163842 1_555
O4 Tm1 2.241558 1_545
O4 Tm2 2.366751 1_545
O5 Tm0 2.163841 1_555
O5 Tm1 2.241558 1_455
O5 Tm2 2.366751 1_455
O6 Tm3 2.179202 1_555
O6 Tm1 2.180934 1_454
O7 Tm3 2.179202 1_555
O7 Tm1 2.180934 1_445
O8 Tm3 2.179202 1_555
O8 Tm1 2.180934 1_544
