# generated using pymatgen
data_Ca2Sb2S5
_symmetry_space_group_name_H-M   'P 1'
_cell_length_a   5.73085834
_cell_length_b   11.43857677
_cell_length_c   15.15055622
_cell_angle_alpha   69.07576994
_cell_angle_beta   90.00000000
_cell_angle_gamma   90.00000000
_symmetry_Int_Tables_number   1
_chemical_formula_structural   Ca2Sb2S5
_chemical_formula_sum   'Ca8 Sb8 S20'
_cell_volume   927.66678560
_cell_formula_units_Z   4
loop_
 _symmetry_equiv_pos_site_id
 _symmetry_equiv_pos_as_xyz
  1  'x, y, z'
loop_
 _atom_site_type_symbol
 _atom_site_label
 _atom_site_symmetry_multiplicity
 _atom_site_fract_x
 _atom_site_fract_y
 _atom_site_fract_z
 _atom_site_occupancy
  Ca  Ca0  1  0.73344286  0.16778971  0.66615020  1
  Ca  Ca1  1  0.23344286  0.33221029  0.33384980  1
  Ca  Ca2  1  0.26655714  0.83221029  0.33384980  1
  Ca  Ca3  1  0.76655714  0.66778971  0.66615020  1
  Ca  Ca4  1  0.27488153  0.69248034  0.10638494  1
  Ca  Ca5  1  0.77488153  0.80751966  0.89361506  1
  Ca  Ca6  1  0.72511847  0.30751966  0.89361506  1
  Ca  Ca7  1  0.22511847  0.19248034  0.10638494  1
  Sb  Sb0  1  0.84469995  0.05434110  0.38512366  1
  Sb  Sb1  1  0.34469995  0.44565890  0.61487634  1
  Sb  Sb2  1  0.15530005  0.94565890  0.61487634  1
  Sb  Sb3  1  0.65530005  0.55434110  0.38512366  1
  Sb  Sb4  1  0.76206180  0.42479049  0.12586589  1
  Sb  Sb5  1  0.26206180  0.07520951  0.87413411  1
  Sb  Sb6  1  0.23793820  0.57520951  0.87413411  1
  Sb  Sb7  1  0.73793820  0.92479049  0.12586589  1
  S  S0  1  0.73377494  0.33988369  0.29877228  1
  S  S1  1  0.23377494  0.16011631  0.70122772  1
  S  S2  1  0.26622506  0.66011631  0.70122772  1
  S  S3  1  0.76622506  0.83988369  0.29877228  1
  S  S4  1  0.69252375  0.06499654  0.87755901  1
  S  S5  1  0.19252375  0.43500346  0.12244099  1
  S  S6  1  0.30747625  0.93500346  0.12244099  1
  S  S7  1  0.80747625  0.56499654  0.87755901  1
  S  S8  1  0.72121553  0.40441187  0.69515300  1
  S  S9  1  0.22121553  0.09558813  0.30484700  1
  S  S10  1  0.27878447  0.59558813  0.30484700  1
  S  S11  1  0.77878447  0.90441187  0.69515300  1
  S  S12  1  0.99191525  0.15209877  0.50051833  1
  S  S13  1  0.49191525  0.34790123  0.49948167  1
  S  S14  1  0.00808475  0.84790123  0.49948167  1
  S  S15  1  0.50808475  0.65209877  0.50051833  1
  S  S16  1  0.22679375  0.27405967  0.90349110  1
  S  S17  1  0.72679375  0.22594033  0.09650890  1
  S  S18  1  0.77320625  0.72594033  0.09650890  1
  S  S19  1  0.27320625  0.77405967  0.90349110  1
loop_
_geom_bond_atom_site_label_1
_geom_bond_atom_site_label_2
_geom_bond_distance
_geom_bond_site_symmetry_2
Ca0 S8 2.893661 1_555
Ca0 S11 2.896761 1_545
Ca0 S1 2.908023 1_555
Ca0 S1 2.911771 1_655
Ca0 S13 2.969985 1_555
Ca0 S12 2.974094 1_555
Ca0 S4 3.001083 1_555
Ca1 S9 2.893661 1_555
Ca1 S10 2.896761 1_555
Ca1 S0 2.908023 1_455
Ca1 S0 2.911771 1_555
Ca1 S12 2.969985 1_455
Ca1 S13 2.974094 1_555
Ca1 S5 3.001083 1_555
Ca2 S10 2.893661 1_555
Ca2 S9 2.896761 1_565
Ca2 S3 2.908023 1_555
Ca2 S3 2.911771 1_455
Ca2 S15 2.969985 1_555
Ca2 S14 2.974094 1_555
Ca2 S6 3.001083 1_555
Ca3 S11 2.893661 1_555
Ca3 S8 2.896761 1_555
Ca3 S2 2.908023 1_655
Ca3 S2 2.911771 1_555
Ca3 S14 2.969985 1_655
Ca3 S15 2.974094 1_555
Ca3 S7 3.001083 1_555
Ca4 S10 2.808823 1_555
Ca4 S19 2.875972 1_554
Ca4 S6 2.876076 1_555
Ca4 S18 2.878146 1_555
Ca4 S18 2.897200 1_455
Ca4 S5 2.905897 1_555
Ca5 S11 2.808823 1_555
Ca5 S18 2.875972 1_556
Ca5 S7 2.876076 1_555
Ca5 S19 2.878146 1_655
Ca5 S19 2.897200 1_555
Ca5 S4 2.905897 1_565
Ca6 S8 2.808823 1_555
Ca6 S17 2.875972 1_556
Ca6 S4 2.876076 1_555
Ca6 S16 2.878146 1_555
Ca6 S16 2.897200 1_655
Ca6 S7 2.905897 1_555
Ca7 S9 2.808823 1_555
Ca7 S16 2.875972 1_554
Ca7 S5 2.876076 1_555
Ca7 S17 2.878146 1_455
Ca7 S17 2.897200 1_555
Ca7 S6 2.905897 1_545
S0 Sb4 2.452496 1_555
S1 Sb5 2.452496 1_555
S2 Sb6 2.452496 1_555
S3 Sb7 2.452496 1_555
S4 Sb5 2.469349 1_555
S5 Sb4 2.469349 1_455
S6 Sb7 2.469349 1_555
S7 Sb6 2.469349 1_655
S8 Sb1 2.438828 1_555
S9 Sb0 2.438828 1_455
S10 Sb3 2.438828 1_555
S11 Sb2 2.438828 1_655
S12 Sb0 2.532797 1_555
S12 Sb2 2.555859 1_645
S13 Sb1 2.532797 1_555
S13 Sb3 2.555859 1_555
S14 Sb2 2.532797 1_555
S14 Sb0 2.555859 1_465
S15 Sb3 2.532797 1_555
S15 Sb1 2.555859 1_555
S16 Sb5 2.476875 1_555
S17 Sb4 2.476875 1_555
S18 Sb7 2.476875 1_555
S19 Sb6 2.476875 1_555
