# generated using pymatgen
data_Na2Ta2Al2Si3(SO8)3
_symmetry_space_group_name_H-M   'P 1'
_cell_length_a   8.66772392
_cell_length_b   8.66231886
_cell_length_c   22.52560350
_cell_angle_alpha   89.33485537
_cell_angle_beta   90.92133716
_cell_angle_gamma   119.73011250
_symmetry_Int_Tables_number   1
_chemical_formula_structural   Na2Ta2Al2Si3(SO8)3
_chemical_formula_sum   'Na6 Ta6 Al6 Si9 S9 O72'
_cell_volume   1468.45629672
_cell_formula_units_Z   3
loop_
 _symmetry_equiv_pos_site_id
 _symmetry_equiv_pos_as_xyz
  1  'x, y, z'
loop_
 _atom_site_type_symbol
 _atom_site_label
 _atom_site_symmetry_multiplicity
 _atom_site_fract_x
 _atom_site_fract_y
 _atom_site_fract_z
 _atom_site_occupancy
  Na  Na0  1  0.98370693  0.98137178  0.49034259  1
  Na  Na1  1  0.00671815  0.98865669  0.99650040  1
  Na  Na2  1  0.65036293  0.31581477  0.82398061  1
  Na  Na3  1  0.67212119  0.31905633  0.32796853  1
  Na  Na4  1  0.31508608  0.66053596  0.16826891  1
  Na  Na5  1  0.34584835  0.66137057  0.65857065  1
  Ta  Ta0  1  0.98926825  0.00116176  0.64426700  1
  Ta  Ta1  1  0.00637162  0.99614736  0.14889408  1
  Ta  Ta2  1  0.66557819  0.33429449  0.97828293  1
  Ta  Ta3  1  0.67722864  0.34515786  0.47407297  1
  Ta  Ta4  1  0.32044441  0.67568090  0.31156523  1
  Ta  Ta5  1  0.34720099  0.68303604  0.80729360  1
  Al  Al0  1  0.00723168  0.00674554  0.35559415  1
  Al  Al1  1  0.01986490  0.01541548  0.84859885  1
  Al  Al2  1  0.64134028  0.32531457  0.68838688  1
  Al  Al3  1  0.68916979  0.33976313  0.19449138  1
  Al  Al4  1  0.30811385  0.67498074  0.02196631  1
  Al  Al5  1  0.35819516  0.68440322  0.51533088  1
  Si  Si0  1  0.30250811  0.02350871  0.25383103  1
  Si  Si1  1  0.99913852  0.28177749  0.25362149  1
  Si  Si2  1  0.29155121  0.28336783  0.75138568  1
  Si  Si3  1  0.73120203  0.02411744  0.75285930  1
  Si  Si4  1  0.64991663  0.60983965  0.58545981  1
  Si  Si5  1  0.95468960  0.61560257  0.08718499  1
  Si  Si6  1  0.31520612  0.94970215  0.91747326  1
  Si  Si7  1  0.63262671  0.95040420  0.41759803  1
  Si  Si8  1  0.06195632  0.68711148  0.42112452  1
  S  S0  1  0.71301402  0.70750614  0.25106080  1
  S  S1  1  0.99235570  0.71103273  0.75132952  1
  S  S2  1  0.95562149  0.34238589  0.58495422  1
  S  S3  1  0.38121544  0.04300000  0.58462323  1
  S  S4  1  0.65856766  0.03784007  0.08370657  1
  S  S5  1  0.38043985  0.34308990  0.08262146  1
  S  S6  1  0.61899376  0.67319536  0.91949325  1
  S  S7  1  0.05112557  0.37896556  0.91857695  1
  S  S8  1  0.32706946  0.37997022  0.41826784  1
  O  O0  1  0.19934795  0.03466546  0.30949621  1
  O  O1  1  0.82200414  0.78629991  0.30353074  1
  O  O2  1  0.97074757  0.15683315  0.30894016  1
  O  O3  1  0.20578697  0.16674020  0.80957291  1
  O  O4  1  0.96963797  0.79290350  0.80455141  1
  O  O5  1  0.83946840  0.02853457  0.81192787  1
  O  O6  1  0.80407247  0.96974727  0.69326995  1
  O  O7  1  0.16676471  0.19344441  0.69163917  1
  O  O8  1  0.03078122  0.82297597  0.69719928  1
  O  O9  1  0.79464016  0.82150897  0.19511753  1
  O  O10  1  0.02323468  0.19022645  0.19073641  1
  O  O11  1  0.17083142  0.96829351  0.19194775  1
  O  O12  1  0.86922146  0.35674672  0.63758708  1
  O  O13  1  0.48933195  0.12412287  0.63871415  1
  O  O14  1  0.63973917  0.49400795  0.64294844  1
  O  O15  1  0.84484607  0.49068442  0.14121448  1
  O  O16  1  0.62940733  0.11712778  0.13569637  1
  O  O17  1  0.48477048  0.36422077  0.13570553  1
  O  O18  1  0.46099612  0.30671591  0.02817763  1
  O  O19  1  0.83229871  0.52270356  0.02551807  1
  O  O20  1  0.68412033  0.15193809  0.02872641  1
  O  O21  1  0.45957420  0.15205636  0.53114424  1
  O  O22  1  0.68658260  0.52080399  0.52651010  1
  O  O23  1  0.84382386  0.30508415  0.52996892  1
  O  O24  1  0.53057228  0.68736137  0.97187668  1
  O  O25  1  0.15916496  0.46246990  0.97235669  1
  O  O26  1  0.30164270  0.83290305  0.97506107  1
  O  O27  1  0.54432013  0.83425619  0.47586942  1
  O  O28  1  0.30713926  0.46294188  0.47155670  1
  O  O29  1  0.17447339  0.69228934  0.47894522  1
  O  O30  1  0.13161435  0.63400006  0.35969679  1
  O  O31  1  0.50199579  0.85827489  0.35863856  1
  O  O32  1  0.36360487  0.48824972  0.36378225  1
  O  O33  1  0.12481238  0.48698196  0.86480305  1
  O  O34  1  0.35573627  0.86011082  0.85932255  1
  O  O35  1  0.50827201  0.63670809  0.86395731  1
  O  O36  1  0.03475639  0.85328054  0.40887106  1
  O  O37  1  0.82829557  0.98341968  0.40728263  1
  O  O38  1  0.17311383  0.20259314  0.41258537  1
  O  O39  1  0.02379750  0.19843029  0.91366672  1
  O  O40  1  0.14058994  0.96913977  0.90769875  1
  O  O41  1  0.79549431  0.82608305  0.91230740  1
  O  O42  1  0.97251392  0.17397663  0.58795878  1
  O  O43  1  0.20077539  0.02704780  0.59065040  1
  O  O44  1  0.83595246  0.81036543  0.59157517  1
  O  O45  1  0.97140602  0.81507682  0.08826186  1
  O  O46  1  0.82415171  0.02748238  0.08622335  1
  O  O47  1  0.19915160  0.17975714  0.08564929  1
  O  O48  1  0.70463571  0.19048095  0.73833030  1
  O  O49  1  0.48842007  0.31524898  0.74328009  1
  O  O50  1  0.84153681  0.53329815  0.74371271  1
  O  O51  1  0.69372011  0.53185014  0.24088145  1
  O  O52  1  0.83195898  0.31321580  0.24469921  1
  O  O53  1  0.48960436  0.19224612  0.23628271  1
  O  O54  1  0.63563286  0.50577547  0.92359451  1
  O  O55  1  0.86685488  0.36119866  0.92483398  1
  O  O56  1  0.49832601  0.14988957  0.92514648  1
  O  O57  1  0.63743685  0.14510279  0.42643324  1
  O  O58  1  0.49005189  0.35746614  0.42395288  1
  O  O59  1  0.85926914  0.50301134  0.42509675  1
  O  O60  1  0.36516801  0.50257904  0.07077915  1
  O  O61  1  0.14939683  0.63438111  0.07822315  1
  O  O62  1  0.50555083  0.85780625  0.07357329  1
  O  O63  1  0.35801446  0.86335904  0.57946829  1
  O  O64  1  0.47795711  0.63490071  0.57538541  1
  O  O65  1  0.13235500  0.49484823  0.57805214  1
  O  O66  1  0.31811273  0.83876885  0.25476760  1
  O  O67  1  0.53576954  0.69192930  0.25360093  1
  O  O68  1  0.18543462  0.47599588  0.25642021  1
  O  O69  1  0.30252296  0.48056953  0.76031540  1
  O  O70  1  0.15783767  0.69327116  0.75728482  1
  O  O71  1  0.52800603  0.83989637  0.75789957  1
loop_
_geom_bond_atom_site_label_1
_geom_bond_atom_site_label_2
_geom_bond_distance
_geom_bond_site_symmetry_2
Na0 O37 2.292885 1_555
Na0 O36 2.314134 1_655
Na0 O38 2.515852 1_665
Na0 O44 2.677355 1_555
Na0 O42 2.807235 1_565
Na0 O43 2.819141 1_665
Na1 O40 2.377674 1_555
Na1 O45 2.473591 1_456
Na1 O41 2.514949 1_455
Na1 O39 2.543368 1_565
Na1 O47 2.604970 1_566
Na1 O46 2.710794 1_466
Na2 O49 2.277313 1_555
Na2 O48 2.388864 1_555
Na2 O50 2.546590 1_555
Na2 O56 2.671592 1_555
Na2 O55 2.826435 1_555
Na2 O54 2.839403 1_555
Na3 O52 2.365478 1_555
Na3 O53 2.489732 1_555
Na3 O57 2.602866 1_555
Na3 O51 2.620414 1_555
Na3 O59 2.713003 1_555
Na3 O58 2.814800 1_555
Na4 O61 2.412938 1_555
Na4 O68 2.444874 1_555
Na4 O66 2.491741 1_555
Na4 O67 2.608735 1_555
Na4 O62 2.725090 1_555
Na4 O60 2.751840 1_555
Na5 O64 2.283483 1_555
Na5 O63 2.449102 1_555
Na5 O65 2.469819 1_555
Na5 O69 2.684680 1_555
Na5 O71 2.726821 1_555
Na5 O70 2.872953 1_555
Al0 O2 1.805564 1_455
Al0 O36 1.879539 1_545
Al0 O37 1.882484 1_445
Al0 O0 1.886795 1_555
Al0 O38 2.040917 1_555
Al0 O1 2.133104 1_445
Al1 O3 1.735422 1_555
Al1 O5 1.809062 1_455
Al1 O40 1.840315 1_545
Al1 O4 2.021722 1_445
Al1 O39 2.159037 1_555
Al1 O41 2.324439 1_445
Al2 O14 1.779905 1_555
Al2 O49 1.796939 1_555
Al2 O48 1.875094 1_555
Al2 O13 1.935363 1_555
Al2 O50 2.166084 1_555
Al2 O12 2.194779 1_555
Al3 O52 1.759258 1_555
Al3 O15 1.798920 1_555
Al3 O53 1.828472 1_555
Al3 O51 1.958593 1_555
Al3 O16 2.188153 1_555
Al3 O17 2.286376 1_555
Al4 O26 1.741113 1_554
Al4 O61 1.785489 1_555
Al4 O25 1.987066 1_554
Al4 O62 2.019598 1_555
Al4 O60 2.088222 1_555
Al4 O24 2.205584 1_554
Al5 O27 1.737838 1_555
Al5 O29 1.810233 1_555
Al5 O64 1.863944 1_555
Al5 O28 2.009010 1_555
Al5 O63 2.131847 1_555
Al5 O65 2.317590 1_555
O0 Si0 1.582938 1_555
O1 S0 1.448632 1_555
O2 Si1 1.580843 1_555
O3 Si2 1.595903 1_555
O4 S1 1.464520 1_555
O5 Si3 1.605582 1_555
O6 Si3 1.661168 1_565
O6 Ta0 1.867078 1_565
O7 Si2 1.652206 1_555
O7 Ta0 1.930484 1_455
O8 S1 1.484331 1_455
O8 Ta0 2.104246 1_465
O9 S0 1.539669 1_555
O9 Ta1 2.002985 1_655
O10 Si1 1.696750 1_455
O10 Ta1 1.877419 1_545
O11 Si0 1.702180 1_565
O11 Ta1 1.822639 1_555
O12 S2 1.451312 1_555
O13 S3 1.478712 1_555
O14 Si4 1.605363 1_555
O15 Si5 1.594819 1_555
O16 S4 1.451706 1_555
O17 S5 1.444725 1_555
O18 S5 1.531516 1_555
O18 Ta2 2.025436 1_554
O19 Si5 1.683563 1_555
O19 Ta2 1.880335 1_554
O20 S4 1.524129 1_555
O20 Ta2 2.004102 1_554
O21 S3 1.472552 1_555
O21 Ta3 2.215387 1_555
O22 Si4 1.655161 1_555
O22 Ta3 1.906048 1_555
O23 S2 1.495874 1_555
O23 Ta3 2.054140 1_555
O24 S6 1.456192 1_555
O25 S7 1.476391 1_555
O26 Si6 1.605194 1_555
O27 Si7 1.599651 1_555
O28 S8 1.461892 1_555
O29 Si8 1.602075 1_555
O30 Si8 1.675703 1_555
O30 Ta4 1.856494 1_555
O31 Si7 1.662164 1_555
O31 Ta4 1.902375 1_555
O32 S8 1.475644 1_555
O32 Ta4 2.168738 1_555
O33 S7 1.468495 1_555
O33 Ta5 2.249517 1_555
O34 Si6 1.658400 1_555
O34 Ta5 1.912642 1_555
O35 S6 1.501867 1_555
O35 Ta5 2.055687 1_555
O36 Si8 1.590263 1_555
O37 Si7 1.594447 1_555
O38 S8 1.457190 1_555
O39 S7 1.466202 1_555
O40 Si6 1.615167 1_555
O41 S6 1.453979 1_555
O42 S2 1.537336 1_555
O42 Ta0 2.009085 1_555
O43 S3 1.508535 1_555
O43 Ta0 2.127689 1_455
O44 Si4 1.690186 1_555
O44 Ta0 1.929437 1_565
O45 Si5 1.661264 1_555
O45 Ta1 1.995572 1_655
O46 S4 1.481943 1_555
O46 Ta1 2.214898 1_645
O47 S5 1.507228 1_555
O47 Ta1 2.177004 1_545
O48 Si3 1.597698 1_555
O49 Si2 1.600897 1_555
O50 S1 1.453074 1_555
O51 S0 1.466376 1_555
O52 Si1 1.610935 1_555
O53 Si0 1.605864 1_555
O54 S6 1.528547 1_555
O54 Ta2 2.030034 1_555
O55 S7 1.535432 1_655
O55 Ta2 2.050681 1_555
O56 Si6 1.680614 1_545
O56 Ta2 1.943622 1_555
O57 Si7 1.680343 1_545
O57 Ta3 1.926674 1_555
O58 S8 1.522111 1_555
O58 Ta3 2.006990 1_555
O59 Si8 1.691331 1_655
O59 Ta3 1.859446 1_555
O60 S5 1.472767 1_555
O61 Si5 1.628910 1_455
O62 S4 1.479967 1_565
O63 S3 1.472570 1_565
O64 Si4 1.621453 1_555
O65 S2 1.453036 1_455
O66 Si0 1.671354 1_565
O66 Ta4 1.902255 1_555
O67 S0 1.476063 1_555
O67 Ta4 2.240879 1_555
O68 Si1 1.657280 1_455
O68 Ta4 1.974818 1_555
O69 Si2 1.677430 1_555
O69 Ta5 1.924052 1_555
O70 S1 1.520279 1_455
O70 Ta5 2.013304 1_555
O71 Si3 1.695883 1_565
O71 Ta5 1.857195 1_555
