# generated using pymatgen
data_BaI2
_symmetry_space_group_name_H-M   'P 1'
_cell_length_a   5.37241696
_cell_length_b   8.99631600
_cell_length_c   10.82613439
_cell_angle_alpha   90.00000000
_cell_angle_beta   90.00000000
_cell_angle_gamma   90.00000000
_symmetry_Int_Tables_number   1
_chemical_formula_structural   BaI2
_chemical_formula_sum   'Ba4 I8'
_cell_volume   523.24830139
_cell_formula_units_Z   4
loop_
 _symmetry_equiv_pos_site_id
 _symmetry_equiv_pos_as_xyz
  1  'x, y, z'
loop_
 _atom_site_type_symbol
 _atom_site_label
 _atom_site_symmetry_multiplicity
 _atom_site_fract_x
 _atom_site_fract_y
 _atom_site_fract_z
 _atom_site_occupancy
  Ba  Ba0  1  0.25000000  0.74699665  0.38415234  1
  Ba  Ba1  1  0.75000000  0.25300335  0.61584766  1
  Ba  Ba2  1  0.25000000  0.24699665  0.11584766  1
  Ba  Ba3  1  0.75000000  0.75300335  0.88415234  1
  I  I0  1  0.25000000  0.52379638  0.66578757  1
  I  I1  1  0.75000000  0.47620362  0.33421243  1
  I  I2  1  0.25000000  0.02379638  0.83421243  1
  I  I3  1  0.75000000  0.97620362  0.16578757  1
  I  I4  1  0.75000000  0.85737393  0.57276256  1
  I  I5  1  0.25000000  0.14262607  0.42723744  1
  I  I6  1  0.75000000  0.35737393  0.92723744  1
  I  I7  1  0.25000000  0.64262607  0.07276256  1
loop_
_geom_bond_atom_site_label_1
_geom_bond_atom_site_label_2
_geom_bond_distance
_geom_bond_site_symmetry_2
Ba0 I7 3.499466 1_555
Ba0 I4 3.517269 1_455
Ba0 I4 3.517269 1_555
Ba0 I5 3.589642 1_565
Ba0 I0 3.650824 1_555
Ba0 I1 3.666443 1_555
Ba0 I1 3.666443 1_455
Ba0 I3 4.129934 1_455
Ba0 I3 4.129934 1_555
Ba1 I6 3.499466 1_555
Ba1 I5 3.517269 1_555
Ba1 I5 3.517269 1_655
Ba1 I4 3.589642 1_545
Ba1 I1 3.650824 1_555
Ba1 I0 3.666443 1_655
Ba1 I0 3.666443 1_555
Ba1 I2 4.129934 1_555
Ba1 I2 4.129934 1_655
Ba2 I5 3.499466 1_555
Ba2 I6 3.517269 1_554
Ba2 I6 3.517269 1_454
Ba2 I7 3.589642 1_555
Ba2 I2 3.650824 1_554
Ba2 I3 3.666443 1_445
Ba2 I3 3.666443 1_545
Ba2 I1 4.129934 1_555
Ba2 I1 4.129934 1_455
Ba3 I4 3.499466 1_555
Ba3 I7 3.517269 1_656
Ba3 I7 3.517269 1_556
Ba3 I6 3.589642 1_555
Ba3 I3 3.650824 1_556
Ba3 I2 3.666443 1_565
Ba3 I2 3.666443 1_665
Ba3 I0 4.129934 1_555
Ba3 I0 4.129934 1_655
