# generated using pymatgen
data_Ca5(CuO2)6
_symmetry_space_group_name_H-M   'P 1'
_cell_length_a   6.46574500
_cell_length_b   5.47217400
_cell_length_c   17.03439788
_cell_angle_alpha   75.02855409
_cell_angle_beta   90.00000000
_cell_angle_gamma   90.00000000
_symmetry_Int_Tables_number   1
_chemical_formula_structural   Ca5(CuO2)6
_chemical_formula_sum   'Ca10 Cu12 O24'
_cell_volume   582.24661479
_cell_formula_units_Z   2
loop_
 _symmetry_equiv_pos_site_id
 _symmetry_equiv_pos_as_xyz
  1  'x, y, z'
loop_
 _atom_site_type_symbol
 _atom_site_label
 _atom_site_symmetry_multiplicity
 _atom_site_fract_x
 _atom_site_fract_y
 _atom_site_fract_z
 _atom_site_occupancy
  Ca  Ca0  1  0.24924000  0.50472100  0.54802700  1
  Ca  Ca1  1  0.24924000  0.49527900  0.95197300  1
  Ca  Ca2  1  0.75076000  0.49527900  0.45197300  1
  Ca  Ca3  1  0.75076000  0.50472100  0.04802700  1
  Ca  Ca4  1  0.25429500  0.50926800  0.14526900  1
  Ca  Ca5  1  0.25429500  0.49073200  0.35473100  1
  Ca  Ca6  1  0.74570500  0.49073200  0.85473100  1
  Ca  Ca7  1  0.74570500  0.50926800  0.64526900  1
  Ca  Ca8  1  0.24385500  0.50000000  0.75000000  1
  Ca  Ca9  1  0.75614500  0.50000000  0.25000000  1
  Cu  Cu0  1  0.00000000  0.00000000  0.00000000  1
  Cu  Cu1  1  0.00000000  0.00000000  0.50000000  1
  Cu  Cu2  1  0.98646500  0.99510700  0.83450000  1
  Cu  Cu3  1  0.98646500  0.00489300  0.66550000  1
  Cu  Cu4  1  0.01353500  0.00489300  0.16550000  1
  Cu  Cu5  1  0.01353500  0.99510700  0.33450000  1
  Cu  Cu6  1  0.48919300  0.99439200  0.91804500  1
  Cu  Cu7  1  0.48919300  0.00560800  0.58195500  1
  Cu  Cu8  1  0.51080700  0.00560800  0.08195500  1
  Cu  Cu9  1  0.51080700  0.99439200  0.41804500  1
  Cu  Cu10  1  0.48653800  0.00000000  0.75000000  1
  Cu  Cu11  1  0.51346200  0.00000000  0.25000000  1
  O  O0  1  0.04040800  0.76040500  0.60675200  1
  O  O1  1  0.04040800  0.23959500  0.89324800  1
  O  O2  1  0.95959200  0.23959500  0.39324800  1
  O  O3  1  0.95959200  0.76040500  0.10675200  1
  O  O4  1  0.94477600  0.74734600  0.93550400  1
  O  O5  1  0.94477600  0.25265400  0.56449600  1
  O  O6  1  0.05522400  0.25265400  0.06449600  1
  O  O7  1  0.05522400  0.74734600  0.43550400  1
  O  O8  1  0.97559400  0.76230200  0.76843700  1
  O  O9  1  0.97559400  0.23769800  0.73156300  1
  O  O10  1  0.02440600  0.23769800  0.23156300  1
  O  O11  1  0.02440600  0.76230200  0.26843700  1
  O  O12  1  0.55732700  0.24872600  0.97741500  1
  O  O13  1  0.55732700  0.75127400  0.52258500  1
  O  O14  1  0.44267300  0.75127400  0.02258500  1
  O  O15  1  0.44267300  0.24872600  0.47741500  1
  O  O16  1  0.45496300  0.24771600  0.65047300  1
  O  O17  1  0.45496300  0.75228400  0.84952700  1
  O  O18  1  0.54503700  0.75228400  0.34952700  1
  O  O19  1  0.54503700  0.24771600  0.15047300  1
  O  O20  1  0.50686800  0.23317800  0.81256400  1
  O  O21  1  0.50686800  0.76682200  0.68743600  1
  O  O22  1  0.49313200  0.76682200  0.18743600  1
  O  O23  1  0.49313200  0.23317800  0.31256400  1
loop_
_geom_bond_atom_site_label_1
_geom_bond_atom_site_label_2
_geom_bond_distance
_geom_bond_site_symmetry_2
Ca0 O0 2.346198 1_555
Ca0 O16 2.350432 1_555
Ca0 O5 2.378386 1_455
Ca0 O13 2.382040 1_555
Ca0 O7 2.386530 1_555
Ca0 O15 2.417436 1_555
Ca1 O1 2.346198 1_555
Ca1 O17 2.350432 1_555
Ca1 O4 2.378386 1_455
Ca1 O12 2.382040 1_555
Ca1 O6 2.386530 1_556
Ca1 O14 2.417436 1_556
Ca2 O2 2.346198 1_555
Ca2 O18 2.350432 1_555
Ca2 O7 2.378386 1_655
Ca2 O15 2.382040 1_555
Ca2 O5 2.386530 1_555
Ca2 O13 2.417436 1_555
Ca3 O3 2.346198 1_555
Ca3 O19 2.350432 1_555
Ca3 O6 2.378386 1_655
Ca3 O14 2.382040 1_555
Ca3 O4 2.386530 1_554
Ca3 O12 2.417436 1_554
Ca4 O22 2.325958 1_555
Ca4 O10 2.334514 1_555
Ca4 O3 2.341805 1_455
Ca4 O19 2.350466 1_555
Ca4 O14 2.484919 1_555
Ca4 O6 2.553438 1_555
Ca5 O23 2.325958 1_555
Ca5 O11 2.334514 1_555
Ca5 O2 2.341805 1_455
Ca5 O18 2.350466 1_555
Ca5 O15 2.484919 1_555
Ca5 O7 2.553438 1_555
Ca6 O20 2.325958 1_555
Ca6 O8 2.334514 1_555
Ca6 O1 2.341805 1_655
Ca6 O17 2.350466 1_555
Ca6 O12 2.484919 1_555
Ca6 O4 2.553438 1_555
Ca7 O21 2.325958 1_555
Ca7 O9 2.334514 1_555
Ca7 O0 2.341805 1_655
Ca7 O16 2.350466 1_555
Ca7 O13 2.484919 1_555
Ca7 O5 2.553438 1_555
Ca8 O20 2.314228 1_555
Ca8 O21 2.314228 1_555
Ca8 O8 2.323861 1_455
Ca8 O9 2.323861 1_455
Ca8 O17 2.802261 1_555
Ca8 O16 2.802261 1_555
Ca8 O0 2.814015 1_555
Ca8 O1 2.814015 1_555
Ca9 O23 2.314228 1_555
Ca9 O22 2.314228 1_555
Ca9 O10 2.323861 1_655
Ca9 O11 2.323861 1_655
Ca9 O18 2.802261 1_555
Ca9 O19 2.802261 1_555
Ca9 O3 2.814015 1_555
Ca9 O2 2.814015 1_555
Cu0 O1 1.965246 1_554
Cu0 O3 1.965246 1_445
Cu0 O6 2.007692 1_555
Cu0 O4 2.007692 1_444
Cu1 O0 1.965246 1_545
Cu1 O2 1.965246 1_455
Cu1 O5 2.007692 1_455
Cu1 O7 2.007692 1_545
Cu2 O1 1.898633 1_665
Cu2 O8 1.906569 1_555
Cu2 O9 1.907661 1_565
Cu2 O4 1.914640 1_555
Cu3 O0 1.898633 1_645
Cu3 O9 1.906569 1_555
Cu3 O8 1.907661 1_545
Cu3 O5 1.914640 1_555
Cu4 O3 1.898633 1_445
Cu4 O10 1.906569 1_555
Cu4 O11 1.907661 1_545
Cu4 O6 1.914640 1_555
Cu5 O2 1.898633 1_465
Cu5 O11 1.906569 1_555
Cu5 O10 1.907661 1_565
Cu5 O7 1.914640 1_555
Cu6 O20 1.932849 1_565
Cu6 O14 1.951280 1_556
Cu6 O12 1.970050 1_565
Cu6 O17 1.991343 1_555
Cu7 O21 1.932849 1_545
Cu7 O15 1.951280 1_555
Cu7 O13 1.970050 1_545
Cu7 O16 1.991343 1_555
Cu8 O22 1.932849 1_545
Cu8 O12 1.951280 1_554
Cu8 O14 1.970050 1_545
Cu8 O19 1.991343 1_555
Cu9 O23 1.932849 1_565
Cu9 O13 1.951280 1_555
Cu9 O15 1.970050 1_565
Cu9 O18 1.991343 1_555
Cu10 O21 1.866506 1_545
Cu10 O20 1.866506 1_555
Cu10 O17 1.888411 1_545
Cu10 O16 1.888411 1_555
Cu11 O23 1.866506 1_555
Cu11 O22 1.866506 1_545
Cu11 O18 1.888411 1_545
Cu11 O19 1.888411 1_555
