# generated using pymatgen
data_YbCeSe3
_symmetry_space_group_name_H-M   'P 1'
_cell_length_a   6.88037182
_cell_length_b   6.88037182
_cell_length_c   9.94826891
_cell_angle_alpha   90.00000000
_cell_angle_beta   90.00000000
_cell_angle_gamma   146.01358902
_symmetry_Int_Tables_number   1
_chemical_formula_structural   YbCeSe3
_chemical_formula_sum   'Yb2 Ce2 Se6'
_cell_volume   263.25718742
_cell_formula_units_Z   2
loop_
 _symmetry_equiv_pos_site_id
 _symmetry_equiv_pos_as_xyz
  1  'x, y, z'
loop_
 _atom_site_type_symbol
 _atom_site_label
 _atom_site_symmetry_multiplicity
 _atom_site_fract_x
 _atom_site_fract_y
 _atom_site_fract_z
 _atom_site_occupancy
  Yb  Yb0  1  0.00000000  0.00000000  0.00000000  1
  Yb  Yb1  1  0.00000000  0.00000000  0.50000000  1
  Ce  Ce0  1  0.25212336  0.74787664  0.75000000  1
  Ce  Ce1  1  0.74787664  0.25212336  0.25000000  1
  Se  Se0  1  0.08490920  0.91509080  0.25000000  1
  Se  Se1  1  0.91509080  0.08490920  0.75000000  1
  Se  Se2  1  0.64212387  0.35787613  0.56265174  1
  Se  Se3  1  0.35787613  0.64212387  0.43734826  1
  Se  Se4  1  0.64212387  0.35787613  0.93734826  1
  Se  Se5  1  0.35787613  0.64212387  0.06265174  1
loop_
_geom_bond_atom_site_label_1
_geom_bond_atom_site_label_2
_geom_bond_distance
_geom_bond_site_symmetry_2
Ce0 Se1 2.939896 1_455
Ce0 Se1 2.939896 1_565
Ce0 Se4 3.100439 1_565
Ce0 Se4 3.100439 1_455
Ce0 Se2 3.100439 1_565
Ce0 Se2 3.100439 1_455
Ce0 Se5 3.407502 1_556
Ce0 Se3 3.407502 1_555
Ce1 Se0 2.939896 1_545
Ce1 Se0 2.939896 1_655
Ce1 Se3 3.100439 1_545
Ce1 Se3 3.100439 1_655
Ce1 Se5 3.100439 1_655
Ce1 Se5 3.100439 1_545
Ce1 Se2 3.407502 1_555
Ce1 Se4 3.407502 1_554
Se0 Yb1 2.726552 1_565
Se0 Yb0 2.726552 1_565
Se1 Yb0 2.726552 1_656
Se1 Yb1 2.726552 1_655
Se2 Yb1 2.816053 1_555
Se2 Yb1 2.816053 1_665
Se3 Yb1 2.816053 1_555
Se3 Yb1 2.816053 1_665
Se4 Yb0 2.816053 1_556
Se4 Yb0 2.816053 1_666
Se5 Yb0 2.816053 1_555
Se5 Yb0 2.816053 1_665
