# generated using pymatgen
data_Na2W2O7
_symmetry_space_group_name_H-M   'P 1'
_cell_length_a   3.87853770
_cell_length_b   5.52393700
_cell_length_c   13.80581608
_cell_angle_alpha   90.00000000
_cell_angle_beta   98.07489629
_cell_angle_gamma   90.00000000
_symmetry_Int_Tables_number   1
_chemical_formula_structural   Na2W2O7
_chemical_formula_sum   'Na4 W4 O14'
_cell_volume   292.85418089
_cell_formula_units_Z   2
loop_
 _symmetry_equiv_pos_site_id
 _symmetry_equiv_pos_as_xyz
  1  'x, y, z'
loop_
 _atom_site_type_symbol
 _atom_site_label
 _atom_site_symmetry_multiplicity
 _atom_site_fract_x
 _atom_site_fract_y
 _atom_site_fract_z
 _atom_site_occupancy
  Na  Na0  1  0.78352900  0.57102000  0.56705900  1
  Na  Na1  1  0.21647100  0.07101900  0.43294100  1
  Na  Na2  1  0.05372500  0.61513500  0.10745100  1
  Na  Na3  1  0.94627500  0.11513400  0.89254900  1
  W  W0  1  0.34210500  0.09485400  0.68421000  1
  W  W1  1  0.65789400  0.59485500  0.31579000  1
  W  W2  1  0.44721500  0.60685000  0.89442700  1
  W  W3  1  0.55278800  0.10685000  0.10557300  1
  O  O0  1  0.30774700  0.81920100  0.61549700  1
  O  O1  1  0.69225200  0.31920200  0.38450300  1
  O  O2  1  0.95320700  0.60866800  0.90641500  1
  O  O3  1  0.04679300  0.10866700  0.09358500  1
  O  O4  1  0.29140200  0.30444000  0.58280700  1
  O  O5  1  0.70859800  0.80444100  0.41719300  1
  O  O6  1  0.85411600  0.11021500  0.70823300  1
  O  O7  1  0.14588300  0.61021400  0.29176700  1
  O  O8  1  0.60525600  0.89543000  0.21051000  1
  O  O9  1  0.39474600  0.39543100  0.78949100  1
  O  O10  1  0.49205200  0.32048900  0.98410200  1
  O  O11  1  0.41018600  0.89517800  0.82037500  1
  O  O12  1  0.58981300  0.39517700  0.17962500  1
  O  O13  1  0.50794800  0.82049000  0.01589800  1
loop_
_geom_bond_atom_site_label_1
_geom_bond_atom_site_label_2
_geom_bond_distance
_geom_bond_site_symmetry_2
Na0 O5 2.420526 1_555
Na0 O4 2.444494 1_655
Na0 O4 2.444500 1_555
Na0 O0 2.465479 1_655
Na0 O0 2.465485 1_555
Na0 O1 2.856870 1_555
Na1 O4 2.420526 1_555
Na1 O5 2.444487 1_445
Na1 O5 2.444493 1_545
Na1 O1 2.465488 1_555
Na1 O1 2.465488 1_455
Na1 O0 2.856870 1_545
Na2 O12 2.492052 1_455
Na2 O12 2.492058 1_555
Na2 O7 2.519550 1_555
Na2 O13 2.571698 1_555
Na2 O13 2.571701 1_455
Na2 O3 2.732820 1_565
Na2 O2 2.748180 1_454
Na2 O3 2.804110 1_555
Na2 O8 2.853511 1_455
Na2 O8 2.853519 1_555
Na3 O11 2.492043 1_645
Na3 O11 2.492055 1_545
Na3 O6 2.519550 1_555
Na3 O10 2.571698 1_555
Na3 O10 2.571701 1_655
Na3 O2 2.732831 1_555
Na3 O3 2.748180 1_656
Na3 O2 2.804099 1_545
Na3 O9 2.853515 1_655
Na3 O9 2.853515 1_555
O0 W0 1.789062 1_565
O1 W1 1.789062 1_555
O2 W2 1.946198 1_555
O2 W2 1.946213 1_655
O3 W3 1.946202 1_455
O3 W3 1.946209 1_555
O4 W0 1.805977 1_555
O5 W1 1.805977 1_555
O6 W0 1.968701 1_555
O6 W0 1.968704 1_655
O7 W1 1.968700 1_555
O7 W1 1.968704 1_455
O8 W3 1.849692 1_565
O8 W1 2.197202 1_555
O9 W2 1.849678 1_555
O9 W0 2.197219 1_555
O10 W2 2.001177 1_555
O10 W3 2.037047 1_556
O11 W2 1.887137 1_555
O11 W0 2.163512 1_565
O12 W3 1.887132 1_555
O12 W1 2.163517 1_555
O13 W3 2.001173 1_565
O13 W2 2.037051 1_554
