# generated using pymatgen
data_K3RhCl6
_symmetry_space_group_name_H-M   'P 1'
_cell_length_a   7.46975283
_cell_length_b   11.87886468
_cell_length_c   12.54994375
_cell_angle_alpha   71.79491655
_cell_angle_beta   90.00000000
_cell_angle_gamma   90.00000000
_symmetry_Int_Tables_number   1
_chemical_formula_structural   K3RhCl6
_chemical_formula_sum   'K12 Rh4 Cl24'
_cell_volume   1057.84272491
_cell_formula_units_Z   4
loop_
 _symmetry_equiv_pos_site_id
 _symmetry_equiv_pos_as_xyz
  1  'x, y, z'
loop_
 _atom_site_type_symbol
 _atom_site_label
 _atom_site_symmetry_multiplicity
 _atom_site_fract_x
 _atom_site_fract_y
 _atom_site_fract_z
 _atom_site_occupancy
  K  K0  1  0.45753733  0.35804713  0.40190429  1
  K  K1  1  0.57044185  0.76603563  0.18264124  1
  K  K2  1  0.07044185  0.73396437  0.81735876  1
  K  K3  1  0.42955815  0.23396437  0.81735876  1
  K  K4  1  0.06751436  0.61391957  0.18162073  1
  K  K5  1  0.56751436  0.88608043  0.81837927  1
  K  K6  1  0.93248564  0.38608043  0.81837927  1
  K  K7  1  0.43248564  0.11391957  0.18162073  1
  K  K8  1  0.92955815  0.26603563  0.18264124  1
  K  K9  1  0.54246267  0.64195287  0.59809571  1
  K  K10  1  0.95753733  0.14195287  0.59809571  1
  K  K11  1  0.04246267  0.85804713  0.40190429  1
  Rh  Rh0  1  0.50000000  -0.00000000  0.50000000  1
  Rh  Rh1  1  0.00000000  0.50000000  0.50000000  1
  Rh  Rh2  1  0.50000000  0.50000000  0.00000000  1
  Rh  Rh3  1  0.00000000  -0.00000000  0.00000000  1
  Cl  Cl0  1  0.74158153  0.39875127  0.59251376  1
  Cl  Cl1  1  0.31238293  0.86035472  0.62418668  1
  Cl  Cl2  1  0.81238293  0.63964528  0.37581332  1
  Cl  Cl3  1  0.68761707  0.13964528  0.37581332  1
  Cl  Cl4  1  0.87050021  0.81895442  0.99958974  1
  Cl  Cl5  1  0.37050021  0.68104558  0.00041026  1
  Cl  Cl6  1  0.12949979  0.18104558  0.00041026  1
  Cl  Cl7  1  0.62949979  0.31895442  0.99958974  1
  Cl  Cl8  1  0.80637125  0.00556471  0.14726090  1
  Cl  Cl9  1  0.30637125  0.49443529  0.85273910  1
  Cl  Cl10  1  0.19362875  0.99443529  0.85273910  1
  Cl  Cl11  1  0.69362875  0.50556471  0.14726090  1
  Cl  Cl12  1  0.20529654  0.89672570  0.14016073  1
  Cl  Cl13  1  0.70529654  0.60327430  0.85983927  1
  Cl  Cl14  1  0.79470346  0.10327430  0.85983927  1
  Cl  Cl15  1  0.29470346  0.39672570  0.14016073  1
  Cl  Cl16  1  0.00227848  0.37900558  0.38285851  1
  Cl  Cl17  1  0.75841847  0.89875127  0.59251376  1
  Cl  Cl18  1  0.99772152  0.62099442  0.61714149  1
  Cl  Cl19  1  0.49772152  0.87900558  0.38285851  1
  Cl  Cl20  1  0.50227848  0.12099442  0.61714149  1
  Cl  Cl21  1  0.24158153  0.10124873  0.40748624  1
  Cl  Cl22  1  0.25841847  0.60124873  0.40748624  1
  Cl  Cl23  1  0.18761707  0.36035472  0.62418668  1
loop_
_geom_bond_atom_site_label_1
_geom_bond_atom_site_label_2
_geom_bond_distance
_geom_bond_site_symmetry_2
Cl0 Rh1 2.376588 1_655
Cl0 K6 3.134408 1_555
Cl0 K9 3.269512 1_555
Cl0 K0 3.343742 1_555
Cl0 K10 3.432052 1_555
Cl0 K3 3.711498 1_555
Cl1 Rh0 2.351466 1_565
Cl1 K2 3.020462 1_555
Cl1 K5 3.182795 1_555
Cl1 K9 3.212860 1_555
Cl1 K11 3.449027 1_555
Cl2 Rh1 2.351466 1_655
Cl2 K1 3.020462 1_555
Cl2 K4 3.182795 1_655
Cl2 K11 3.212860 1_655
Cl2 K9 3.449027 1_555
Cl3 Rh0 2.351466 1_555
Cl3 K8 3.020462 1_555
Cl3 K7 3.182795 1_555
Cl3 K0 3.212860 1_555
Cl3 K10 3.449027 1_555
Cl4 Rh3 2.359624 1_666
Cl4 K1 3.129544 1_556
Cl4 K5 3.129992 1_555
Cl4 K4 3.136881 1_656
Cl4 K2 3.150057 1_655
Cl5 Rh2 2.359624 1_555
Cl5 K2 3.129544 1_554
Cl5 K4 3.129992 1_555
Cl5 K5 3.136881 1_554
Cl5 K1 3.150057 1_555
Cl6 Rh3 2.359624 1_555
Cl6 K3 3.129544 1_554
Cl6 K7 3.129992 1_555
Cl6 K6 3.136881 1_454
Cl6 K8 3.150057 1_455
Cl7 Rh2 2.359624 1_556
Cl7 K8 3.129544 1_556
Cl7 K6 3.129992 1_555
Cl7 K7 3.136881 1_556
Cl7 K3 3.150057 1_555
Cl8 Rh3 2.363935 1_655
Cl8 K7 3.160598 1_555
Cl8 K1 3.257221 1_545
Cl8 K8 3.387589 1_555
Cl8 K11 3.590897 1_645
Cl9 Rh2 2.363935 1_556
Cl9 K6 3.160598 1_455
Cl9 K2 3.257221 1_555
Cl9 K3 3.387589 1_555
Cl9 K9 3.590897 1_555
Cl10 Rh3 2.363935 1_566
Cl10 K5 3.160598 1_555
Cl10 K3 3.257221 1_565
Cl10 K2 3.387589 1_555
Cl10 K10 3.590897 1_465
Cl11 Rh2 2.363935 1_555
Cl11 K4 3.160598 1_655
Cl11 K8 3.257221 1_555
Cl11 K1 3.387589 1_555
Cl11 K0 3.590897 1_555
Cl12 Rh3 2.366944 1_565
Cl12 K1 3.101077 1_555
Cl12 K7 3.262820 1_565
Cl12 K4 3.394622 1_555
Cl12 K11 3.396743 1_555
Cl13 Rh2 2.366944 1_556
Cl13 K2 3.101077 1_655
Cl13 K6 3.262820 1_555
Cl13 K5 3.394622 1_555
Cl13 K9 3.396743 1_555
Cl14 Rh3 2.366944 1_656
Cl14 K3 3.101077 1_555
Cl14 K5 3.262820 1_545
Cl14 K6 3.394622 1_555
Cl14 K10 3.396743 1_555
Cl15 Rh2 2.366944 1_555
Cl15 K8 3.101077 1_455
Cl15 K4 3.262820 1_555
Cl15 K7 3.394622 1_555
Cl15 K0 3.396743 1_555
Cl16 Rh1 2.355327 1_555
Cl16 K4 3.162140 1_555
Cl16 K8 3.242927 1_455
Cl16 K10 3.253440 1_455
Cl16 K0 3.412696 1_555
Cl17 Rh0 2.376588 1_565
Cl17 K5 3.134408 1_555
Cl17 K10 3.269512 1_565
Cl17 K11 3.343742 1_655
Cl17 K9 3.432052 1_555
Cl17 K2 3.711498 1_655
Cl18 Rh1 2.355327 1_655
Cl18 K6 3.162140 1_555
Cl18 K2 3.242927 1_655
Cl18 K11 3.253440 1_655
Cl18 K9 3.412696 1_555
Cl19 Rh0 2.355327 1_565
Cl19 K7 3.162140 1_565
Cl19 K1 3.242927 1_555
Cl19 K9 3.253440 1_555
Cl19 K11 3.412696 1_555
Cl20 Rh0 2.355327 1_555
Cl20 K5 3.162140 1_545
Cl20 K3 3.242927 1_555
Cl20 K0 3.253440 1_555
Cl20 K10 3.412696 1_555
Cl21 Rh0 2.376588 1_555
Cl21 K7 3.134408 1_555
Cl21 K11 3.269512 1_545
Cl21 K10 3.343742 1_455
Cl21 K0 3.432052 1_555
Cl21 K8 3.711498 1_455
Cl22 Rh1 2.376588 1_555
Cl22 K4 3.134408 1_555
Cl22 K0 3.269512 1_555
Cl22 K9 3.343742 1_555
Cl22 K11 3.432052 1_555
Cl22 K1 3.711498 1_555
Cl23 Rh1 2.351466 1_555
Cl23 K3 3.020462 1_555
Cl23 K6 3.182795 1_455
Cl23 K10 3.212860 1_455
Cl23 K0 3.449027 1_555
