# generated using pymatgen
data_Na8MgMn2O8
_symmetry_space_group_name_H-M   'P 1'
_cell_length_a   9.41226866
_cell_length_b   5.47946678
_cell_length_c   6.07620988
_cell_angle_alpha   69.77103235
_cell_angle_beta   110.57694752
_cell_angle_gamma   98.08123000
_symmetry_Int_Tables_number   1
_chemical_formula_structural   Na8MgMn2O8
_chemical_formula_sum   'Na8 Mg1 Mn2 O8'
_cell_volume   275.22161998
_cell_formula_units_Z   1
loop_
 _symmetry_equiv_pos_site_id
 _symmetry_equiv_pos_as_xyz
  1  'x, y, z'
loop_
 _atom_site_type_symbol
 _atom_site_label
 _atom_site_symmetry_multiplicity
 _atom_site_fract_x
 _atom_site_fract_y
 _atom_site_fract_z
 _atom_site_occupancy
  Na  Na0  1  0.17737698  0.02321381  0.59951047  1
  Na  Na1  1  0.15564715  0.53012843  0.06897851  1
  Na  Na2  1  0.33124156  0.52622087  0.68885566  1
  Na  Na3  1  0.32419033  0.03934559  0.17460396  1
  Na  Na4  1  0.52612270  0.03713653  0.72911451  1
  Na  Na5  1  0.69967545  0.68408634  0.02262636  1
  Na  Na6  1  0.76452042  0.04025966  0.38600205  1
  Na  Na7  1  0.97835845  0.55742101  0.49820238  1
  Mg  Mg0  1  0.77094440  0.46502167  0.73609247  1
  Mn  Mn0  1  0.49975652  0.54908345  0.33849176  1
  Mn  Mn1  1  0.98889228  0.00000424  0.96800078  1
  O  O0  1  0.12496912  0.23695864  0.82534077  1
  O  O1  1  0.11833280  0.83163663  0.28958159  1
  O  O2  1  0.40711537  0.74659563  0.99866914  1
  O  O3  1  0.34683499  0.30929269  0.41688090  1
  O  O4  1  0.57361848  0.64221800  0.63924243  1
  O  O5  1  0.71104334  0.44060969  0.39632810  1
  O  O6  1  0.92437132  0.75048607  0.76665568  1
  O  O7  1  0.79774234  0.10709105  0.98553351  1
loop_
_geom_bond_atom_site_label_1
_geom_bond_atom_site_label_2
_geom_bond_distance
_geom_bond_site_symmetry_2
Na0 O0 2.290760 1_555
Na0 O1 2.329083 1_545
Na0 O3 2.360273 1_555
Na0 O2 2.747425 1_545
Na0 O6 2.930102 1_445
Na1 O3 2.310945 1_555
Na1 O6 2.442382 1_454
Na1 O0 2.463575 1_554
Na1 O1 2.583614 1_555
Na1 O2 2.600498 1_554
Na2 O4 2.375398 1_555
Na2 O3 2.396541 1_555
Na2 O2 2.428265 1_555
Na2 O0 2.515348 1_555
Na2 O1 2.723972 1_555
Na3 O1 2.306364 1_545
Na3 O0 2.318791 1_554
Na3 O3 2.365835 1_555
Na3 O2 2.539603 1_544
Na4 O3 2.274083 1_555
Na4 O2 2.335988 1_545
Na4 O4 2.538006 1_545
Na4 O7 2.539288 1_555
Na5 O5 2.172962 1_555
Na5 O4 2.288502 1_554
Na5 O7 2.336370 1_564
Na5 O2 2.769485 1_554
Na6 O5 2.344666 1_555
Na6 O6 2.412528 1_545
Na6 O7 2.457521 1_554
Na7 O1 2.213705 1_655
Na7 O0 2.297429 1_655
Na7 O5 2.418627 1_555
Na7 O6 2.442377 1_555
Mg0 O6 1.985922 1_555
Mg0 O5 1.987317 1_555
Mg0 O7 2.005511 1_555
Mg0 O4 2.020428 1_555
Mn0 O3 1.882118 1_555
Mn0 O2 1.910362 1_554
Mn0 O4 1.932711 1_555
Mn0 O5 2.031819 1_555
Mn1 O1 1.884015 1_646
Mn1 O0 1.900572 1_655
Mn1 O7 2.016777 1_555
Mn1 O6 2.033690 1_545
