# generated using pymatgen
data_LaMgNb2CuClO7
_symmetry_space_group_name_H-M   'P 1'
_cell_length_a   4.07430603
_cell_length_b   4.03406704
_cell_length_c   11.85246000
_cell_angle_alpha   89.99975129
_cell_angle_beta   89.99953855
_cell_angle_gamma   89.98529932
_symmetry_Int_Tables_number   1
_chemical_formula_structural   LaMgNb2CuClO7
_chemical_formula_sum   'La1 Mg1 Nb2 Cu1 Cl1 O7'
_cell_volume   194.80730650
_cell_formula_units_Z   1
loop_
 _symmetry_equiv_pos_site_id
 _symmetry_equiv_pos_as_xyz
  1  'x, y, z'
loop_
 _atom_site_type_symbol
 _atom_site_label
 _atom_site_symmetry_multiplicity
 _atom_site_fract_x
 _atom_site_fract_y
 _atom_site_fract_z
 _atom_site_occupancy
  La  La0  1  0.00002100  0.00000000  0.01194100  1
  Mg  Mg0  1  0.00000000  0.50000100  0.64178200  1
  Nb  Nb0  1  0.49999800  0.49999700  0.82813000  1
  Nb  Nb1  1  0.50000100  0.50000200  0.18589300  1
  Cu  Cu0  1  0.50000400  0.50000100  0.49202000  1
  Cl  Cl0  1  0.00000700  0.99999400  0.52262400  1
  O  O0  1  0.99999400  0.50000400  0.14444800  1
  O  O1  1  0.50000000  0.50000400  0.65697400  1
  O  O2  1  0.99999900  0.49999500  0.81858200  1
  O  O3  1  0.49999900  0.49999500  0.33786100  1
  O  O4  1  0.49999300  0.00000200  0.14659200  1
  O  O5  1  0.49999100  0.00000500  0.85559400  1
  O  O6  1  0.49999100  0.50000100  0.99645000  1
loop_
_geom_bond_atom_site_label_1
_geom_bond_atom_site_label_2
_geom_bond_distance
_geom_bond_site_symmetry_2
La0 O0 2.556347 1_445
La0 O0 2.556383 1_455
La0 O4 2.587783 1_555
La0 O4 2.587943 1_455
La0 O5 2.753797 1_554
La0 O5 2.754000 1_454
La0 O6 2.872195 1_544
La0 O6 2.872375 1_454
La0 O6 2.872933 1_554
La0 O6 2.873104 1_444
La0 O2 3.052959 1_454
La0 O2 3.052999 1_444
Mg0 O1 2.045094 1_455
Mg0 O1 2.045097 1_555
Mg0 O2 2.095515 1_455
Nb0 O6 1.995006 1_555
Nb0 O1 2.028620 1_555
Nb0 O2 2.040291 1_455
Nb0 O2 2.040297 1_555
Nb0 O5 2.043098 1_555
Nb0 O5 2.043164 1_565
Nb1 O3 1.801195 1_555
Nb1 O4 2.070120 1_565
Nb1 O4 2.070124 1_555
Nb1 O0 2.095510 1_555
Nb1 O0 2.095573 1_455
Nb1 O6 2.245366 1_554
Cu0 O3 1.827163 1_555
Cu0 O1 1.955111 1_555
Cl0 Mg0 2.462300 1_555
Cl0 Mg0 2.462356 1_565
Cl0 Cu0 2.889241 1_555
Cl0 Cu0 2.889300 1_465
Cl0 Cu0 2.889992 1_455
Cl0 Cu0 2.890008 1_565
