# generated using pymatgen
data_Na2ZnSiSn(SO6)2
_symmetry_space_group_name_H-M   'P 1'
_cell_length_a   8.94540981
_cell_length_b   8.93144734
_cell_length_c   22.62649441
_cell_angle_alpha   89.82670003
_cell_angle_beta   90.00000000
_cell_angle_gamma   120.05172678
_symmetry_Int_Tables_number   1
_chemical_formula_structural   Na2ZnSiSn(SO6)2
_chemical_formula_sum   'Na12 Zn6 Si6 Sn6 S12 O72'
_cell_volume   1564.73476342
_cell_formula_units_Z   6
loop_
 _symmetry_equiv_pos_site_id
 _symmetry_equiv_pos_as_xyz
  1  'x, y, z'
loop_
 _atom_site_type_symbol
 _atom_site_label
 _atom_site_symmetry_multiplicity
 _atom_site_fract_x
 _atom_site_fract_y
 _atom_site_fract_z
 _atom_site_occupancy
  Na  Na0  1  0.99795899  0.63749273  0.23820095  1
  Na  Na1  1  0.63953374  0.63749273  0.73820095  1
  Na  Na2  1  0.65615614  0.95198235  0.57846383  1
  Na  Na3  1  0.29582721  0.95198235  0.07846383  1
  Na  Na4  1  0.69245689  0.02597600  0.90609975  1
  Na  Na5  1  0.33351811  0.02597600  0.40609975  1
  Na  Na6  1  0.97184205  0.98245455  0.49323598  1
  Na  Na7  1  0.01061250  0.98245455  0.99323598  1
  Na  Na8  1  0.65711059  0.30861269  0.82654166  1
  Na  Na9  1  0.65150310  0.30861269  0.32654166  1
  Na  Na10  1  0.32834551  0.65895335  0.16090636  1
  Na  Na11  1  0.33060684  0.65895335  0.66090636  1
  Zn  Zn0  1  0.99865040  0.00519054  0.35060144  1
  Zn  Zn1  1  0.00654014  0.00519054  0.85060144  1
  Zn  Zn2  1  0.66813275  0.32424137  0.68400148  1
  Zn  Zn3  1  0.65610961  0.32424137  0.18400148  1
  Zn  Zn4  1  0.29548748  0.66716782  0.01741656  1
  Zn  Zn5  1  0.37167934  0.66716782  0.51741656  1
  Si  Si0  1  0.30050931  0.00768104  0.25391944  1
  Si  Si1  1  0.70717173  0.00768104  0.75391944  1
  Si  Si2  1  0.66715136  0.62113133  0.58932486  1
  Si  Si3  1  0.95398097  0.62113133  0.08932486  1
  Si  Si4  1  0.32913884  0.97303563  0.92146096  1
  Si  Si5  1  0.64389578  0.97303563  0.42146096  1
  Sn  Sn0  1  0.99252232  0.99071043  0.65013536  1
  Sn  Sn1  1  0.99818811  0.99071043  0.15013536  1
  Sn  Sn2  1  0.66677378  0.34011122  0.98388646  1
  Sn  Sn3  1  0.67333845  0.34011122  0.48388646  1
  Sn  Sn4  1  0.34618056  0.68747054  0.31731763  1
  Sn  Sn5  1  0.34128897  0.68747054  0.81731763  1
  S  S0  1  0.70029803  0.70601048  0.25198866  1
  S  S1  1  0.00634957  0.29627023  0.25152454  1
  S  S2  1  0.28992067  0.29627023  0.75152454  1
  S  S3  1  0.00571245  0.70601048  0.75198866  1
  S  S4  1  0.96945022  0.33697906  0.58423346  1
  S  S5  1  0.36317065  0.03756082  0.58419770  1
  S  S6  1  0.67439117  0.03756082  0.08419770  1
  S  S7  1  0.36752984  0.33697906  0.08423346  1
  S  S8  1  0.61842175  0.65955395  0.91822771  1
  S  S9  1  0.04209975  0.37677544  0.91686683  1
  S  S10  1  0.33467469  0.37677544  0.41686683  1
  S  S11  1  0.04113119  0.65955395  0.41822771  1
  O  O0  1  0.20731823  0.01827746  0.31374665  1
  O  O1  1  0.80588039  0.79431717  0.30336987  1
  O  O2  1  0.98454280  0.19114498  0.30348709  1
  O  O3  1  0.20660219  0.19114498  0.80348709  1
  O  O4  1  0.98843678  0.79431717  0.80336987  1
  O  O5  1  0.81095923  0.01827746  0.81374665  1
  O  O6  1  0.78710147  0.96102206  0.69348401  1
  O  O7  1  0.18983486  0.21627513  0.69512503  1
  O  O8  1  0.04489174  0.81411186  0.69605958  1
  O  O9  1  0.76922012  0.81411186  0.19605958  1
  O  O10  1  0.02644027  0.21627513  0.19512503  1
  O  O11  1  0.17392059  0.96102206  0.19348401  1
  O  O12  1  0.88726592  0.35483426  0.63730154  1
  O  O13  1  0.47937286  0.12093866  0.63394101  1
  O  O14  1  0.65570746  0.51738638  0.64874313  1
  O  O15  1  0.86167992  0.51738638  0.14874313  1
  O  O16  1  0.64156680  0.12093866  0.13394101  1
  O  O17  1  0.46756934  0.35483426  0.13730154  1
  O  O18  1  0.43905825  0.28889442  0.03052772  1
  O  O19  1  0.83969144  0.53785460  0.02764847  1
  O  O20  1  0.70236053  0.13773238  0.02692571  1
  O  O21  1  0.43537285  0.13773238  0.52692571  1
  O  O22  1  0.69816416  0.53785460  0.52764847  1
  O  O23  1  0.84983717  0.28889442  0.53052772  1
  O  O24  1  0.52353078  0.67201821  0.96845677  1
  O  O25  1  0.14602931  0.45793144  0.96919143  1
  O  O26  1  0.31578525  0.87408949  0.98263468  1
  O  O27  1  0.55830323  0.87408949  0.48263468  1
  O  O28  1  0.31190113  0.45793144  0.46919143  1
  O  O29  1  0.14848643  0.67201821  0.46845677  1
  O  O30  1  0.11027633  0.62964671  0.36019077  1
  O  O31  1  0.50596471  0.89169551  0.36420095  1
  O  O32  1  0.35592985  0.47961575  0.36097314  1
  O  O33  1  0.12368489  0.47961575  0.86097314  1
  O  O34  1  0.38572980  0.89169551  0.86420095  1
  O  O35  1  0.51936939  0.62964671  0.86019077  1
  O  O36  1  0.02958629  0.81821116  0.41403747  1
  O  O37  1  0.83001125  0.99288158  0.41014614  1
  O  O38  1  0.18840282  0.19968934  0.41270176  1
  O  O39  1  0.01128652  0.19968934  0.91270176  1
  O  O40  1  0.16287032  0.99288158  0.91014614  1
  O  O41  1  0.78862488  0.81821116  0.91403747  1
  O  O42  1  0.98675133  0.17573785  0.58828124  1
  O  O43  1  0.19388393  0.03494186  0.59077201  1
  O  O44  1  0.84286370  0.82388158  0.58680679  1
  O  O45  1  0.98101788  0.82388158  0.08680679  1
  O  O46  1  0.84105793  0.03494186  0.09077201  1
  O  O47  1  0.18898653  0.17573785  0.08828124  1
  O  O48  1  0.67996455  0.17122396  0.74427184  1
  O  O49  1  0.46705189  0.32705816  0.74707569  1
  O  O50  1  0.84781703  0.53809990  0.74610586  1
  O  O51  1  0.69028387  0.53809990  0.24610586  1
  O  O52  1  0.86000727  0.32705816  0.24707569  1
  O  O53  1  0.49126041  0.17122396  0.24427184  1
  O  O54  1  0.64198025  0.50406619  0.92008809  1
  O  O55  1  0.86672350  0.36433395  0.91926235  1
  O  O56  1  0.52197175  0.16352091  0.92388189  1
  O  O57  1  0.64155016  0.16352091  0.42388189  1
  O  O58  1  0.49761145  0.36433395  0.41926235  1
  O  O59  1  0.86208694  0.50406619  0.42008809  1
  O  O60  1  0.35408763  0.49039958  0.07393558  1
  O  O61  1  0.14983153  0.65155550  0.08556067  1
  O  O62  1  0.52839214  0.86025727  0.07848293  1
  O  O63  1  0.33186414  0.86025727  0.57848293  1
  O  O64  1  0.50172298  0.65155550  0.58556067  1
  O  O65  1  0.13631095  0.49039958  0.57393558  1
  O  O66  1  0.29906959  0.81519062  0.25372041  1
  O  O67  1  0.51980545  0.67879624  0.25561550  1
  O  O68  1  0.17058200  0.47170630  0.25469459  1
  O  O69  1  0.30112329  0.47170630  0.75469459  1
  O  O70  1  0.15898978  0.67879624  0.75561550  1
  O  O71  1  0.51612003  0.81519062  0.75372041  1
loop_
_geom_bond_atom_site_label_1
_geom_bond_atom_site_label_2
_geom_bond_distance
_geom_bond_site_symmetry_2
Na0 O15 2.331799 1_555
Na0 O66 2.370483 1_655
Na0 O52 2.412551 1_555
Na0 O51 2.438657 1_555
Na0 O68 2.646320 1_655
Na0 O11 2.697759 1_655
Na0 O30 2.949991 1_655
Na1 O14 2.331801 1_555
Na1 O71 2.370490 1_555
Na1 O49 2.412551 1_555
Na1 O50 2.438665 1_555
Na1 O69 2.646328 1_555
Na1 O6 2.697759 1_555
Na1 O35 2.949994 1_555
Na2 O27 2.313188 1_555
Na2 O64 2.327838 1_555
Na2 O44 2.459007 1_555
Na2 O63 2.589643 1_555
Na2 O42 2.621497 1_565
Na2 O23 2.826937 1_565
Na2 O6 2.838693 1_555
Na2 O13 2.958918 1_565
Na3 O26 2.313184 1_554
Na3 O61 2.327838 1_555
Na3 O45 2.459015 1_455
Na3 O62 2.589626 1_555
Na3 O47 2.621504 1_565
Na3 O18 2.826937 1_565
Na3 O11 2.838696 1_555
Na3 O16 2.958918 1_565
Na4 O5 2.359841 1_555
Na4 O41 2.410918 1_545
Na4 O56 2.424099 1_555
Na4 O39 2.476537 1_655
Na4 O34 2.564487 1_545
Na4 O55 2.634113 1_555
Na4 O20 2.899331 1_556
Na5 O0 2.359837 1_555
Na5 O36 2.410912 1_545
Na5 O57 2.424115 1_555
Na5 O38 2.476530 1_555
Na5 O31 2.564487 1_545
Na5 O58 2.634113 1_555
Na5 O21 2.899333 1_555
Na6 O37 2.295683 1_555
Na6 O44 2.482888 1_555
Na6 O36 2.530759 1_655
Na6 O38 2.655528 1_665
Na6 O42 2.722974 1_565
Na6 O43 2.847638 1_665
Na7 O40 2.295683 1_555
Na7 O45 2.482888 1_456
Na7 O41 2.530759 1_455
Na7 O39 2.655528 1_565
Na7 O47 2.722974 1_566
Na7 O46 2.847638 1_466
Na8 O48 2.297323 1_555
Na8 O56 2.530864 1_555
Na8 O49 2.535613 1_555
Na8 O50 2.626600 1_555
Na8 O55 2.690099 1_555
Na8 O54 2.793713 1_555
Na9 O53 2.297323 1_555
Na9 O57 2.530864 1_555
Na9 O52 2.535613 1_555
Na9 O51 2.626600 1_555
Na9 O58 2.690099 1_555
Na9 O59 2.793713 1_555
Na10 O61 2.314254 1_555
Na10 O60 2.560640 1_555
Na10 O62 2.582675 1_555
Na10 O66 2.609554 1_555
Na10 O68 2.628023 1_555
Na10 O67 2.693543 1_555
Na11 O64 2.314254 1_555
Na11 O65 2.560640 1_555
Na11 O63 2.582675 1_555
Na11 O71 2.609554 1_555
Na11 O69 2.628023 1_555
Na11 O70 2.693543 1_555
O0 Si0 1.617450 1_555
O0 Zn0 1.993539 1_455
O1 S0 1.457788 1_555
O1 Zn0 2.102908 1_565
O2 S1 1.453219 1_655
O2 Zn0 2.027304 1_555
O3 S2 1.453219 1_555
O3 Zn1 2.027304 1_555
O4 S3 1.457788 1_655
O4 Zn1 2.102908 1_665
O5 Si1 1.617450 1_555
O5 Zn1 1.993539 1_655
O6 Si1 1.690169 1_565
O6 Sn0 1.979754 1_555
O7 S2 1.518348 1_555
O7 Sn0 2.158996 1_445
O8 S3 1.519921 1_555
O8 Sn0 2.125360 1_455
O9 S0 1.519921 1_555
O9 Sn1 2.125360 1_555
O10 S1 1.518348 1_555
O10 Sn1 2.158996 1_445
O11 Si0 1.690169 1_565
O11 Sn1 1.979754 1_455
O12 S4 1.458177 1_555
O12 Zn2 2.120262 1_555
O13 S5 1.460011 1_555
O13 Zn2 2.091137 1_555
O14 Si2 1.604368 1_555
O14 Zn2 1.951501 1_555
O15 Si3 1.604368 1_555
O15 Zn3 1.951501 1_555
O16 S6 1.460011 1_555
O16 Zn3 2.091137 1_555
O17 S7 1.458177 1_555
O17 Zn3 2.120262 1_555
O18 S7 1.532604 1_555
O18 Sn2 2.129833 1_554
O19 Si3 1.670507 1_555
O19 Sn2 1.940813 1_554
O20 S6 1.520231 1_555
O20 Sn2 2.209643 1_554
O21 S5 1.520231 1_555
O21 Sn3 2.209643 1_555
O22 Si2 1.670507 1_555
O22 Sn3 1.940813 1_555
O23 S4 1.532604 1_555
O23 Sn3 2.129833 1_555
O24 S8 1.456015 1_555
O24 Zn4 2.302527 1_556
O25 S9 1.456589 1_555
O25 Zn4 1.995094 1_556
O26 Si4 1.611827 1_555
O26 Zn4 1.929494 1_556
O27 Si5 1.611827 1_555
O27 Zn5 1.929494 1_555
O28 S10 1.456589 1_555
O28 Zn5 1.995094 1_555
O29 S11 1.456015 1_555
O29 Zn5 2.302527 1_555
O30 S11 1.531650 1_555
O30 Sn4 2.136907 1_555
O31 Si5 1.684235 1_555
O31 Sn4 1.973793 1_555
O32 S10 1.515680 1_555
O32 Sn4 2.140268 1_555
O33 S9 1.515680 1_555
O33 Sn5 2.140268 1_555
O34 Si4 1.684235 1_555
O34 Sn5 1.973793 1_555
O35 S8 1.531650 1_555
O35 Sn5 2.136907 1_555
O36 S11 1.474250 1_555
O36 Zn0 2.318194 1_465
O37 Si5 1.604040 1_555
O37 Zn0 1.983931 1_565
O38 S10 1.466520 1_555
O38 Zn0 2.221429 1_455
O39 S9 1.466523 1_555
O39 Zn1 2.221429 1_555
O40 Si4 1.604031 1_555
O40 Zn1 1.983931 1_565
O41 S8 1.474255 1_555
O41 Zn1 2.318194 1_665
O42 S4 1.526011 1_555
O42 Sn0 2.182613 1_545
O43 S5 1.510099 1_555
O43 Sn0 2.118689 1_445
O44 Si2 1.703421 1_555
O44 Sn0 2.020067 1_555
O45 Si3 1.703424 1_555
O45 Sn1 2.020067 1_555
O46 S6 1.510090 1_555
O46 Sn1 2.118689 1_545
O47 S7 1.526016 1_555
O47 Sn1 2.182613 1_445
O48 Si1 1.610770 1_555
O48 Zn2 1.967810 1_555
O49 S2 1.469648 1_555
O49 Zn2 2.306172 1_555
O50 S3 1.463366 1_655
O50 Zn2 2.268880 1_555
O51 S0 1.463370 1_555
O51 Zn3 2.268880 1_555
O52 S1 1.469639 1_655
O52 Zn3 2.306172 1_555
O53 Si0 1.610776 1_555
O53 Zn3 1.967810 1_555
O54 S8 1.505829 1_555
O54 Sn2 2.142385 1_555
O55 S9 1.517176 1_655
O55 Sn2 2.234862 1_555
O56 Si4 1.712963 1_545
O56 Sn2 1.993874 1_555
O57 Si5 1.712954 1_545
O57 Sn3 1.993874 1_555
O58 S10 1.517193 1_555
O58 Sn3 2.234863 1_555
O59 S11 1.505819 1_655
O59 Sn3 2.142385 1_555
O60 S7 1.452404 1_555
O60 Zn4 2.284617 1_555
O61 Si3 1.635090 1_455
O61 Zn4 1.977675 1_555
O62 S6 1.469676 1_565
O62 Zn4 2.374813 1_555
O63 S5 1.469670 1_565
O63 Zn5 2.374813 1_555
O64 Si2 1.635108 1_555
O64 Zn5 1.977675 1_555
O65 S4 1.452394 1_455
O65 Zn5 2.284617 1_555
O66 Si0 1.712824 1_565
O66 Sn4 2.005263 1_555
O67 S0 1.509803 1_555
O67 Sn4 2.118617 1_555
O68 S1 1.521104 1_555
O68 Sn4 2.274536 1_555
O69 S2 1.521108 1_555
O69 Sn5 2.274536 1_555
O70 S3 1.509794 1_555
O70 Sn5 2.118617 1_555
O71 Si1 1.712829 1_565
O71 Sn5 2.005263 1_555
