# generated using pymatgen
data_Ba2CeMgNbO6
_symmetry_space_group_name_H-M   'P 1'
_cell_length_a   6.09093927
_cell_length_b   6.85900700
_cell_length_c   6.13081164
_cell_angle_alpha   59.60956654
_cell_angle_beta   60.33357566
_cell_angle_gamma   63.75765791
_symmetry_Int_Tables_number   1
_chemical_formula_structural   Ba2CeMgNbO6
_chemical_formula_sum   'Ba2 Ce1 Mg1 Nb1 O6'
_cell_volume   185.58802306
_cell_formula_units_Z   1
loop_
 _symmetry_equiv_pos_site_id
 _symmetry_equiv_pos_as_xyz
  1  'x, y, z'
loop_
 _atom_site_type_symbol
 _atom_site_label
 _atom_site_symmetry_multiplicity
 _atom_site_fract_x
 _atom_site_fract_y
 _atom_site_fract_z
 _atom_site_occupancy
  Ba  Ba0  1  0.81242129  0.62140373  0.75385999  1
  Ba  Ba1  1  0.18757871  0.37859627  0.24614001  1
  Ce  Ce0  1  0.00000000  0.00000000  0.00000000  1
  Mg  Mg0  1  0.50000000  0.00000000  0.00000000  1
  Nb  Nb0  1  0.50000000  0.50000000  0.50000000  1
  O  O0  1  0.72024010  0.31115263  0.24859767  1
  O  O1  1  0.27975990  0.68884737  0.75140233  1
  O  O2  1  0.26636952  0.25202484  0.76684087  1
  O  O3  1  0.28515790  0.74797534  0.23332357  1
  O  O4  1  0.73362948  0.74797516  0.23315913  1
  O  O5  1  0.71484210  0.25202466  0.76667643  1
loop_
_geom_bond_atom_site_label_1
_geom_bond_atom_site_label_2
_geom_bond_distance
_geom_bond_site_symmetry_2
Ba0 O0 2.623710 1_556
Ba0 O5 2.804002 1_555
Ba0 O2 2.808771 1_655
Ba0 Mg0 3.064954 1_566
Ba0 O1 3.071147 1_655
Ba0 O1 3.074815 1_555
Ba0 O4 3.085281 1_555
Ba0 O3 3.088744 1_655
Ba0 O4 3.230392 1_556
Ba0 O3 3.237239 1_556
Ba1 O1 2.623710 1_554
Ba1 O3 2.804002 1_555
Ba1 O4 2.808775 1_455
Ba1 Mg0 3.064954 1_555
Ba1 O0 3.071147 1_455
Ba1 O0 3.074815 1_555
Ba1 O2 3.085278 1_555
Ba1 O5 3.088744 1_455
Ba1 O2 3.230394 1_554
Ba1 O5 3.237239 1_554
Ce0 O2 2.312613 1_554
Ce0 O4 2.312617 1_445
Ce0 O3 2.313777 1_545
Ce0 O5 2.313777 1_454
Ce0 O1 2.699163 1_544
Ce0 O0 2.699163 1_455
Mg0 O5 2.095806 1_554
Mg0 O3 2.095806 1_545
Mg0 O4 2.096338 1_545
Mg0 O2 2.096342 1_554
Nb0 O0 2.071129 1_555
Nb0 O1 2.071129 1_555
Nb0 O5 2.148109 1_555
Nb0 O3 2.148109 1_555
Nb0 O4 2.148232 1_555
Nb0 O2 2.148236 1_555
