# generated using pymatgen
data_Ba(MgBi)2
_symmetry_space_group_name_H-M   'P 1'
_cell_length_a   4.89835743
_cell_length_b   4.89835655
_cell_length_c   8.33225148
_cell_angle_alpha   90.00000000
_cell_angle_beta   90.00000000
_cell_angle_gamma   119.99999910
_symmetry_Int_Tables_number   1
_chemical_formula_structural   Ba(MgBi)2
_chemical_formula_sum   'Ba1 Mg2 Bi2'
_cell_volume   173.13858795
_cell_formula_units_Z   1
loop_
 _symmetry_equiv_pos_site_id
 _symmetry_equiv_pos_as_xyz
  1  'x, y, z'
loop_
 _atom_site_type_symbol
 _atom_site_label
 _atom_site_symmetry_multiplicity
 _atom_site_fract_x
 _atom_site_fract_y
 _atom_site_fract_z
 _atom_site_occupancy
  Ba  Ba0  1  -0.00000000  0.00000000  0.00000000  1
  Mg  Mg0  1  0.66666700  0.33333300  0.37808546  1
  Mg  Mg1  1  0.33333300  0.66666700  0.62191454  1
  Bi  Bi0  1  0.33333300  0.66666700  0.26586040  1
  Bi  Bi1  1  0.66666700  0.33333300  0.73413960  1
loop_
_geom_bond_atom_site_label_1
_geom_bond_atom_site_label_2
_geom_bond_distance
_geom_bond_site_symmetry_2
Ba0 Bi0 3.592371 1_545
Ba0 Bi1 3.592371 1_454
Ba0 Bi1 3.592374 1_444
Ba0 Bi0 3.592374 1_555
Ba0 Bi1 3.592375 1_554
Ba0 Bi0 3.592375 1_445
Bi0 Mg1 2.966733 1_555
Bi0 Mg0 2.978647 1_565
Bi0 Mg0 2.978648 1_455
Bi0 Mg0 2.978655 1_555
Bi1 Mg0 2.966733 1_555
Bi1 Mg1 2.978647 1_545
Bi1 Mg1 2.978648 1_655
Bi1 Mg1 2.978655 1_555
