# generated using pymatgen
data_Na4Y3Nb(PO4)6
_symmetry_space_group_name_H-M   'P 1'
_cell_length_a   9.17714233
_cell_length_b   9.17185390
_cell_length_c   23.49742587
_cell_angle_alpha   89.98019760
_cell_angle_beta   90.06854585
_cell_angle_gamma   120.00579935
_symmetry_Int_Tables_number   1
_chemical_formula_structural   Na4Y3Nb(PO4)6
_chemical_formula_sum   'Na12 Y9 Nb3 P18 O72'
_cell_volume   1712.73354458
_cell_formula_units_Z   3
loop_
 _symmetry_equiv_pos_site_id
 _symmetry_equiv_pos_as_xyz
  1  'x, y, z'
loop_
 _atom_site_type_symbol
 _atom_site_label
 _atom_site_symmetry_multiplicity
 _atom_site_fract_x
 _atom_site_fract_y
 _atom_site_fract_z
 _atom_site_occupancy
  Na  Na0  1  0.63819306  0.99930345  0.25134873  1
  Na  Na1  1  0.36180944  0.36169376  0.25108906  1
  Na  Na2  1  0.99941319  0.63876115  0.25049787  1
  Na  Na3  1  0.29995384  0.33418923  0.58480293  1
  Na  Na4  1  0.03550062  0.69815751  0.58488110  1
  Na  Na5  1  0.66410562  0.70200323  0.07977229  1
  Na  Na6  1  0.98981840  0.99959555  0.49758523  1
  Na  Na7  1  0.01074480  0.01052668  0.99656112  1
  Na  Na8  1  0.66675488  0.33378645  0.82925041  1
  Na  Na9  1  0.66651820  0.33325196  0.33693603  1
  Na  Na10  1  0.32219757  0.66680005  0.16237974  1
  Na  Na11  1  0.34656687  0.67959165  0.66998216  1
  Y  Y0  1  0.00091021  0.99966847  0.35453047  1
  Y  Y1  1  0.99942916  0.99885504  0.85207219  1
  Y  Y2  1  0.99043105  0.99942666  0.65358845  1
  Y  Y3  1  0.00875696  0.00810061  0.14352340  1
  Y  Y4  1  0.66662826  0.32978243  0.68912167  1
  Y  Y5  1  0.66658023  0.32950898  0.18056617  1
  Y  Y6  1  0.32535921  0.66607282  0.01629750  1
  Y  Y7  1  0.34097656  0.67392068  0.51530029  1
  Y  Y8  1  0.33405689  0.66705366  0.32436387  1
  Nb  Nb0  1  0.66650260  0.33095826  0.97741916  1
  Nb  Nb1  1  0.66688781  0.33108508  0.48118539  1
  Nb  Nb2  1  0.33178240  0.66561926  0.81590278  1
  P  P0  1  0.29569847  0.99769412  0.25031624  1
  P  P1  1  0.70251294  0.70442749  0.24825923  1
  P  P2  1  0.00252071  0.29799669  0.25050284  1
  P  P3  1  0.29655008  0.30495870  0.75160591  1
  P  P4  1  0.00830976  0.70329324  0.75134869  1
  P  P5  1  0.69384508  0.99095129  0.75391991  1
  P  P6  1  0.95583549  0.33181610  0.58144923  1
  P  P7  1  0.37516989  0.04457110  0.58224572  1
  P  P8  1  0.66833646  0.62029040  0.58204007  1
  P  P9  1  0.95486944  0.62249353  0.08101125  1
  P  P10  1  0.66729697  0.04094895  0.08019599  1
  P  P11  1  0.37885003  0.33385906  0.07979038  1
  P  P12  1  0.62130198  0.65887366  0.91856085  1
  P  P13  1  0.03641375  0.37705621  0.91673086  1
  P  P14  1  0.34101562  0.96334349  0.91654856  1
  P  P15  1  0.63676387  0.97677349  0.41726701  1
  P  P16  1  0.34026698  0.36451449  0.41974415  1
  P  P17  1  0.02421507  0.65929222  0.41958524  1
  O  O0  1  0.21506356  0.02762416  0.30236568  1
  O  O1  1  0.81632331  0.79012891  0.29945287  1
  O  O2  1  0.97361999  0.18751452  0.30250355  1
  O  O3  1  0.20570386  0.19153042  0.80130443  1
  O  O4  1  0.98514032  0.79339356  0.80116925  1
  O  O5  1  0.80456525  0.01551121  0.80457550  1
  O  O6  1  0.76302044  0.95606025  0.69854889  1
  O  O7  1  0.19644485  0.23905722  0.69475633  1
  O  O8  1  0.04095718  0.80308922  0.69452343  1
  O  O9  1  0.77990044  0.80796422  0.19326567  1
  O  O10  1  0.03021878  0.21707176  0.19716850  1
  O  O11  1  0.18717914  0.97050520  0.19697259  1
  O  O12  1  0.87676512  0.36014422  0.63377918  1
  O  O13  1  0.47748702  0.12540296  0.63512384  1
  O  O14  1  0.64236328  0.51437288  0.63465329  1
  O  O15  1  0.88035029  0.53142068  0.13793116  1
  O  O16  1  0.64922102  0.11462791  0.13699708  1
  O  O17  1  0.47333166  0.35477801  0.13650724  1
  O  O18  1  0.48517822  0.32141154  0.02896721  1
  O  O19  1  0.83592143  0.51521768  0.03000670  1
  O  O20  1  0.67776392  0.15862193  0.02926726  1
  O  O21  1  0.47670713  0.15849093  0.52916435  1
  O  O22  1  0.68419391  0.52075743  0.52903271  1
  O  O23  1  0.84186152  0.31725157  0.52834718  1
  O  O24  1  0.54802944  0.68199078  0.97371194  1
  O  O25  1  0.13793245  0.45375205  0.97020744  1
  O  O26  1  0.31753167  0.86275257  0.97011795  1
  O  O27  1  0.54511454  0.86275470  0.46725555  1
  O  O28  1  0.31898454  0.45174666  0.47178385  1
  O  O29  1  0.13249388  0.68037504  0.47167925  1
  O  O30  1  0.09731260  0.62880689  0.36414437  1
  O  O31  1  0.53623526  0.90890650  0.36095627  1
  O  O32  1  0.37208424  0.46861230  0.36425349  1
  O  O33  1  0.13004740  0.49641095  0.86457648  1
  O  O34  1  0.36475850  0.86889217  0.86441344  1
  O  O35  1  0.50042118  0.63494102  0.86702002  1
  O  O36  1  -0.00167242  0.81049993  0.41488425  1
  O  O37  1  0.81360001  0.00251134  0.41398782  1
  O  O38  1  0.18870306  0.18794713  0.41490397  1
  O  O39  1  0.00654087  0.19979294  0.90891462  1
  O  O40  1  0.19424508  0.99444647  0.90905233  1
  O  O41  1  0.79856743  0.80605725  0.90999428  1
  O  O42  1  0.97693405  0.17508118  0.58325241  1
  O  O43  1  0.20231460  0.03859216  0.58285062  1
  O  O44  1  0.83444180  0.79126965  0.58346934  1
  O  O45  1  0.95312628  0.79064690  0.08032584  1
  O  O46  1  0.82801926  0.02635380  0.07979113  1
  O  O47  1  0.20604602  0.17397473  0.07943035  1
  O  O48  1  0.66434689  0.14018262  0.74824951  1
  O  O49  1  0.47569024  0.33498032  0.74713949  1
  O  O50  1  0.85935198  0.52392516  0.74699749  1
  O  O51  1  0.68031706  0.52444143  0.24503974  1
  O  O52  1  0.84461175  0.31913092  0.24575721  1
  O  O53  1  0.47489201  0.15540948  0.24557687  1
  O  O54  1  0.63387764  0.49131276  0.92534431  1
  O  O55  1  0.85772413  0.36568033  0.92487460  1
  O  O56  1  0.50871082  0.14226829  0.92448254  1
  O  O57  1  0.64953675  0.15324765  0.42776003  1
  O  O58  1  0.50391800  0.35006890  0.42860279  1
  O  O59  1  0.84618350  0.49530041  0.42814559  1
  O  O60  1  0.37121612  0.49703562  0.07526555  1
  O  O61  1  0.13052855  0.64581474  0.07714056  1
  O  O62  1  0.51435106  0.86225231  0.07632819  1
  O  O63  1  0.34215332  0.86297078  0.57652546  1
  O  O64  1  0.50938034  0.63523079  0.57544803  1
  O  O65  1  0.13275960  0.49093711  0.57489498  1
  O  O66  1  0.31418572  0.83815122  0.25589694  1
  O  O67  1  0.52465128  0.68582377  0.25516074  1
  O  O68  1  0.16143582  0.47668501  0.25607288  1
  O  O69  1  0.31194526  0.48466874  0.76385204  1
  O  O70  1  0.17302163  0.68885363  0.76343865  1
  O  O71  1  0.51446769  0.82629671  0.76456372  1
loop_
_geom_bond_atom_site_label_1
_geom_bond_atom_site_label_2
_geom_bond_distance
_geom_bond_site_symmetry_2
Na0 O67 2.522714 1_555
Na0 O53 2.541610 1_565
Na0 O66 2.577301 1_555
Na0 O52 2.579372 1_565
Na0 O31 2.724788 1_555
Na0 O16 2.870623 1_565
Na0 O2 2.928865 1_565
Na0 O9 2.987013 1_555
Na1 O51 2.535579 1_555
Na1 O68 2.539255 1_555
Na1 O67 2.576194 1_555
Na1 O53 2.576386 1_555
Na1 O32 2.819563 1_555
Na1 O17 2.893445 1_555
Na1 O0 2.920257 1_555
Na1 O10 2.929112 1_555
Na2 O66 2.533915 1_655
Na2 O52 2.541512 1_555
Na2 O51 2.572837 1_555
Na2 O68 2.578366 1_655
Na2 O30 2.832436 1_655
Na2 O15 2.842235 1_555
Na2 O1 2.900472 1_555
Na2 O11 2.927067 1_655
Na3 O43 2.392840 1_555
Na3 O64 2.461477 1_555
Na3 O42 2.567414 1_455
Na3 O65 2.584682 1_555
Na3 O7 2.741185 1_555
Na3 O28 2.838374 1_555
Na4 O44 2.389745 1_455
Na4 O63 2.447370 1_555
Na4 O65 2.482234 1_555
Na4 O43 2.704542 1_565
Na4 O8 2.742143 1_555
Na4 O29 2.836447 1_555
Na4 O12 2.922001 1_455
Na5 O45 2.353595 1_555
Na5 O60 2.390738 1_555
Na5 O62 2.464855 1_555
Na5 O46 2.576238 1_565
Na5 O24 2.679111 1_554
Na5 O9 2.854413 1_555
Na6 O37 2.551505 1_565
Na6 O42 2.617197 1_565
Na6 O36 2.632206 1_655
Na6 O38 2.634898 1_665
Na6 O44 2.652524 1_555
Na6 O43 2.690438 1_665
Na7 O47 2.560797 1_556
Na7 O46 2.628555 1_456
Na7 O45 2.674679 1_446
Na7 O39 2.705669 1_555
Na7 O40 2.709728 1_545
Na7 O41 2.790503 1_445
Na8 O48 2.595998 1_555
Na8 O49 2.609270 1_555
Na8 O50 2.612218 1_555
Na8 O56 2.766482 1_555
Na8 O55 2.771993 1_555
Na8 O54 2.777908 1_555
Na9 O57 2.654343 1_555
Na9 O59 2.657744 1_555
Na9 O58 2.669834 1_555
Na9 O53 2.736050 1_555
Na9 O52 2.738331 1_555
Na9 O51 2.744019 1_555
Na10 O61 2.606889 1_555
Na10 O62 2.693693 1_555
Na10 O66 2.724396 1_555
Na10 O68 2.737892 1_555
Na10 O60 2.742589 1_555
Na10 O67 2.810986 1_555
Na11 O71 2.654075 1_555
Na11 O70 2.740424 1_555
Na11 O69 2.755563 1_555
Na11 O63 2.778177 1_555
Na11 O64 2.819376 1_555
Na11 O65 2.903887 1_555
Nb0 O18 2.025545 1_556
Nb0 O56 2.032215 1_555
Nb0 O55 2.037479 1_555
Nb0 O20 2.038409 1_556
Nb0 O19 2.041846 1_556
Nb0 O54 2.046535 1_555
Nb1 O57 2.000732 1_555
Nb1 O23 2.005503 1_555
Nb1 O22 2.010026 1_555
Nb1 O58 2.012364 1_555
Nb1 O59 2.013479 1_555
Nb1 O21 2.015731 1_555
Nb2 O71 1.992555 1_555
Nb2 O69 1.995529 1_555
Nb2 O70 1.998490 1_555
Nb2 O33 2.067426 1_555
Nb2 O34 2.074410 1_555
Nb2 O35 2.085153 1_555
O0 P0 1.524574 1_545
O0 Y0 2.220852 1_545
O1 P1 1.527180 1_555
O1 Y0 2.231221 1_655
O2 P2 1.523576 1_655
O2 Y0 2.225978 1_645
O3 P3 1.508347 1_555
O3 Y1 2.188045 1_445
O4 P4 1.508499 1_655
O4 Y1 2.180149 1_555
O5 P5 1.506092 1_545
O5 Y1 2.176063 1_545
O6 P5 1.550380 1_555
O6 Y2 2.191923 1_555
O7 P3 1.560759 1_555
O7 Y2 2.276360 1_445
O8 P4 1.560858 1_555
O8 Y2 2.283828 1_455
O9 P1 1.550088 1_555
O9 Y3 2.301116 1_665
O10 P2 1.541488 1_555
O10 Y3 2.219183 1_555
O11 P0 1.540760 1_555
O11 Y3 2.221895 1_565
O12 P6 1.515569 1_555
O12 Y4 2.226247 1_555
O13 P7 1.508878 1_555
O13 Y4 2.208782 1_555
O14 P8 1.515653 1_555
O14 Y4 2.220116 1_555
O15 P9 1.544125 1_555
O15 Y5 2.156746 1_555
O16 P10 1.542345 1_555
O16 Y5 2.155162 1_555
O17 P11 1.547817 1_555
O17 Y5 2.162692 1_555
O18 P11 1.582924 1_555
O19 P9 1.587288 1_555
O20 P10 1.581720 1_555
O21 P7 1.594930 1_555
O22 P8 1.593745 1_555
O23 P6 1.589346 1_555
O24 P12 1.523606 1_555
O24 Y6 2.214681 1_556
O25 P13 1.511319 1_555
O25 Y6 2.137883 1_556
O26 P14 1.510979 1_555
O26 Y6 2.136537 1_556
O27 P15 1.517404 1_555
O27 Y7 2.131263 1_555
O28 P16 1.526779 1_555
O28 Y7 2.197342 1_555
O29 P17 1.525858 1_555
O29 Y7 2.196193 1_555
O30 P17 1.554093 1_555
O30 Y8 2.226992 1_555
O31 P15 1.553261 1_555
O31 Y8 2.232372 1_555
O32 P16 1.555051 1_555
O32 Y8 2.224033 1_555
O33 P13 1.580933 1_555
O34 P14 1.577603 1_555
O35 P12 1.580805 1_555
O36 P17 1.523607 1_555
O36 Y0 2.231435 1_555
O37 P15 1.520668 1_545
O37 Y0 2.226661 1_645
O38 P16 1.522184 1_555
O38 Y0 2.232466 1_545
O39 P13 1.518720 1_555
O39 Y1 2.250769 1_445
O40 P14 1.519982 1_555
O40 Y1 2.248824 1_455
O41 P12 1.521003 1_555
O41 Y1 2.263044 1_555
O42 P6 1.544075 1_555
O42 Y2 2.353644 1_545
O43 P7 1.559699 1_555
O43 Y2 2.445716 1_445
O44 P8 1.546952 1_555
O44 Y2 2.381578 1_555
O45 P9 1.550418 1_555
O45 Y3 2.329265 1_665
O46 P10 1.546307 1_555
O46 Y3 2.300744 1_655
O47 P11 1.529523 1_555
O47 Y3 2.260687 1_555
O48 P5 1.528016 1_545
O48 Y4 2.217381 1_555
O49 P3 1.528786 1_555
O49 Y4 2.240653 1_555
O50 P4 1.528435 1_655
O50 Y4 2.234788 1_555
O51 P1 1.560802 1_555
O51 Y5 2.298597 1_555
O52 P2 1.559040 1_655
O52 Y5 2.274723 1_555
O53 P0 1.558945 1_545
O53 Y5 2.274457 1_555
O54 P12 1.605552 1_555
O55 P13 1.601953 1_655
O56 P14 1.603064 1_545
O57 P15 1.582664 1_545
O58 P16 1.585776 1_555
O59 P17 1.585836 1_655
O60 P11 1.536509 1_555
O60 Y6 2.269442 1_555
O61 P9 1.519272 1_455
O61 Y6 2.224635 1_555
O62 P10 1.537380 1_565
O62 Y6 2.260538 1_555
O63 P7 1.542540 1_565
O63 Y7 2.249287 1_555
O64 P8 1.539524 1_555
O64 Y7 2.248288 1_555
O65 P6 1.555743 1_455
O65 Y7 2.286076 1_555
O66 P0 1.560564 1_555
O66 Y8 2.316874 1_555
O67 P1 1.562608 1_555
O67 Y8 2.332092 1_555
O68 P2 1.561776 1_555
O68 Y8 2.315712 1_555
O69 P3 1.608380 1_555
O70 P4 1.606955 1_555
O71 P5 1.602298 1_555
