# generated using pymatgen
data_Na3LaSi3Sn3(SO8)3
_symmetry_space_group_name_H-M   'P 1'
_cell_length_a   9.02429618
_cell_length_b   9.09547942
_cell_length_c   23.36865632
_cell_angle_alpha   89.44603530
_cell_angle_beta   90.63768801
_cell_angle_gamma   120.23817854
_symmetry_Int_Tables_number   1
_chemical_formula_structural   Na3LaSi3Sn3(SO8)3
_chemical_formula_sum   'Na9 La3 Si9 Sn9 S9 O72'
_cell_volume   1657.00671256
_cell_formula_units_Z   3
loop_
 _symmetry_equiv_pos_site_id
 _symmetry_equiv_pos_as_xyz
  1  'x, y, z'
loop_
 _atom_site_type_symbol
 _atom_site_label
 _atom_site_symmetry_multiplicity
 _atom_site_fract_x
 _atom_site_fract_y
 _atom_site_fract_z
 _atom_site_occupancy
  Na  Na0  1  0.35570339  0.35708021  0.24269221  1
  Na  Na1  1  0.63200447  0.62110813  0.75783689  1
  Na  Na2  1  0.96742560  0.28777281  0.41903264  1
  Na  Na3  1  0.99506079  0.00875944  0.50110154  1
  Na  Na4  1  0.99863748  0.99086779  0.00388143  1
  Na  Na5  1  0.66099065  0.34250862  0.83402212  1
  Na  Na6  1  0.67088457  0.31908075  0.33266192  1
  Na  Na7  1  0.30937257  0.65212384  0.16101311  1
  Na  Na8  1  0.29327216  0.64031617  0.66769880  1
  La  La0  1  0.99454215  0.00099267  0.35676938  1
  La  La1  1  0.67644359  0.33505413  0.68581831  1
  La  La2  1  0.69094040  0.34736291  0.17486661  1
  Si  Si0  1  0.00669610  0.30562165  0.25267835  1
  Si  Si1  1  0.28332333  0.29098872  0.75578040  1
  Si  Si2  1  0.01306657  0.72581664  0.75166325  1
  Si  Si3  1  0.97261189  0.33239412  0.58053574  1
  Si  Si4  1  0.98332267  0.65002398  0.07971458  1
  Si  Si5  1  0.36349589  0.33500820  0.08348862  1
  Si  Si6  1  0.62640678  0.67382158  0.91450696  1
  Si  Si7  1  0.60810280  0.95279255  0.41995307  1
  Si  Si8  1  0.35000467  0.38211736  0.41956023  1
  Sn  Sn0  1  0.00194319  0.99127858  0.85422895  1
  Sn  Sn1  1  0.01701752  0.01825638  0.64951816  1
  Sn  Sn2  1  0.01362266  0.01425876  0.14465907  1
  Sn  Sn3  1  0.66237182  0.36371566  0.98462687  1
  Sn  Sn4  1  0.65955740  0.31465337  0.48118732  1
  Sn  Sn5  1  0.33809842  0.66087059  0.01658219  1
  Sn  Sn6  1  0.33471535  0.65611887  0.51778727  1
  Sn  Sn7  1  0.34025700  0.66039323  0.31720671  1
  Sn  Sn8  1  0.32070320  0.65413327  0.81455053  1
  S  S0  1  0.29311026  0.98541473  0.24953611  1
  S  S1  1  0.69610571  0.70833505  0.24771230  1
  S  S2  1  0.70897442  0.98910625  0.75347571  1
  S  S3  1  0.35893425  0.02405219  0.58038509  1
  S  S4  1  0.67198281  0.64018006  0.58172841  1
  S  S5  1  0.66695055  0.03223411  0.07760339  1
  S  S6  1  0.03133003  0.36853639  0.91716104  1
  S  S7  1  0.34026260  0.96108655  0.91694838  1
  S  S8  1  0.04118220  0.65392804  0.42008990  1
  O  O0  1  0.21333298  0.00457239  0.30071085  1
  O  O1  1  0.79260780  0.77842162  0.29999387  1
  O  O2  1  0.99501330  0.21325930  0.31269660  1
  O  O3  1  0.18801235  0.17990744  0.81269545  1
  O  O4  1  0.96797711  0.80140780  0.80732626  1
  O  O5  1  0.81298045  0.01153226  0.80531384  1
  O  O6  1  0.78662527  0.96635912  0.70037373  1
  O  O7  1  0.17659279  0.21563698  0.69564065  1
  O  O8  1  0.03210652  0.83388700  0.69199700  1
  O  O9  1  0.78541569  0.80893327  0.19573947  1
  O  O10  1  0.03908932  0.20359885  0.19779872  1
  O  O11  1  0.18598700  0.96191411  0.19695913  1
  O  O12  1  0.89539523  0.36387584  0.63704103  1
  O  O13  1  0.45677856  0.09439923  0.63269647  1
  O  O14  1  0.63984009  0.54467388  0.63555822  1
  O  O15  1  0.92991366  0.53966857  0.13731807  1
  O  O16  1  0.63407091  0.09103532  0.13121685  1
  O  O17  1  0.45572447  0.36222605  0.14486212  1
  O  O18  1  0.45471177  0.29354962  0.02929205  1
  O  O19  1  0.85305649  0.55524510  0.02465981  1
  O  O20  1  0.69498087  0.14788905  0.02798049  1
  O  O21  1  0.44234673  0.13850368  0.52981536  1
  O  O22  1  0.69032041  0.54903664  0.53231672  1
  O  O23  1  0.85115961  0.30522739  0.52228480  1
  O  O24  1  0.53367881  0.70003837  0.96909383  1
  O  O25  1  0.14138950  0.45050607  0.96770706  1
  O  O26  1  0.31105073  0.85334016  0.96787252  1
  O  O27  1  0.51440806  0.84870826  0.47720460  1
  O  O28  1  0.30249005  0.46820950  0.47095488  1
  O  O29  1  0.14342303  0.67482950  0.47197746  1
  O  O30  1  0.11936483  0.63218581  0.36691920  1
  O  O31  1  0.49769896  0.86880176  0.36032736  1
  O  O32  1  0.37568735  0.48436935  0.35786728  1
  O  O33  1  0.10550131  0.47640761  0.86452929  1
  O  O34  1  0.35913218  0.88064305  0.86429039  1
  O  O35  1  0.51227710  0.64580724  0.85562258  1
  O  O36  1  0.01646327  0.79893463  0.41794890  1
  O  O37  1  0.79993080  0.98094383  0.42210330  1
  O  O38  1  0.18249266  0.19384458  0.42003017  1
  O  O39  1  0.01839160  0.20005036  0.91108105  1
  O  O40  1  0.18528841  0.98195131  0.91301334  1
  O  O41  1  0.82006206  0.84653067  0.91120237  1
  O  O42  1  0.98413968  0.15475525  0.58644111  1
  O  O43  1  0.18578649  0.00839405  0.58357162  1
  O  O44  1  0.83018554  0.81083104  0.58589667  1
  O  O45  1  0.97977631  0.82818355  0.08945035  1
  O  O46  1  0.82317635  0.01573032  0.08346903  1
  O  O47  1  0.17101819  0.16510581  0.08378787  1
  O  O48  1  0.68374928  0.13454533  0.75107126  1
  O  O49  1  0.47596341  0.32091628  0.75404724  1
  O  O50  1  0.84349359  0.53828265  0.74934275  1
  O  O51  1  0.65812902  0.52987996  0.24473398  1
  O  O52  1  0.84294739  0.33033869  0.24953183  1
  O  O53  1  0.46239019  0.14176575  0.24456304  1
  O  O54  1  0.64254030  0.49911275  0.91905654  1
  O  O55  1  0.85723489  0.34660973  0.92361931  1
  O  O56  1  0.49783675  0.13193409  0.92246731  1
  O  O57  1  0.63781897  0.14902735  0.42054260  1
  O  O58  1  0.52984687  0.37985345  0.42818424  1
  O  O59  1  0.87195934  0.49177834  0.42336644  1
  O  O60  1  0.34961001  0.50516965  0.07278908  1
  O  O61  1  0.17424637  0.68119839  0.06588395  1
  O  O62  1  0.51606154  0.86048869  0.06884587  1
  O  O63  1  0.33763208  0.85304277  0.57249702  1
  O  O64  1  0.52057290  0.66475514  0.57516238  1
  O  O65  1  0.16370668  0.50515786  0.57477068  1
  O  O66  1  0.30900098  0.82993906  0.25348906  1
  O  O67  1  0.52663059  0.70350289  0.24987557  1
  O  O68  1  0.19366538  0.49362428  0.25435771  1
  O  O69  1  0.30736893  0.48546842  0.75731181  1
  O  O70  1  0.18995508  0.71519664  0.75913747  1
  O  O71  1  0.53939190  0.82775188  0.75710653  1
loop_
_geom_bond_atom_site_label_1
_geom_bond_atom_site_label_2
_geom_bond_distance
_geom_bond_site_symmetry_2
Na0 O51 2.366260 1_555
Na0 O68 2.366328 1_555
Na0 O17 2.458606 1_555
Na0 O53 2.580810 1_555
Na0 O10 2.675325 1_555
Na0 O67 2.728518 1_555
Na0 O32 2.907951 1_555
Na1 O49 2.361187 1_555
Na1 O50 2.389327 1_555
Na1 O71 2.410933 1_555
Na1 O69 2.542441 1_555
Na1 O35 2.597880 1_555
Na1 O4 2.858341 1_555
Na1 O14 2.957359 1_555
Na2 O59 2.410620 1_555
Na2 O37 2.414143 1_545
Na2 O38 2.483113 1_655
Na2 O57 2.581099 1_555
Na2 O2 2.629157 1_555
Na2 O23 2.679460 1_555
Na2 O28 2.875285 1_655
Na2 O30 2.968767 1_655
Na3 O42 2.436709 1_555
Na3 O37 2.461869 1_545
Na3 O38 2.534940 1_655
Na3 O43 2.570677 1_655
Na3 O44 2.584581 1_545
Na3 O36 2.811890 1_645
Na4 O45 2.431805 1_555
Na4 O47 2.434712 1_665
Na4 O46 2.540024 1_565
Na4 O41 2.618692 1_554
Na4 O40 2.751980 1_654
Na4 O39 2.818128 1_664
Na5 O49 2.434495 1_555
Na5 O54 2.511235 1_555
Na5 O50 2.617191 1_555
Na5 O56 2.694235 1_555
Na5 O55 2.715512 1_555
Na5 O48 2.801549 1_555
Na6 O52 2.469515 1_555
Na6 O57 2.487214 1_555
Na6 O53 2.702090 1_555
Na6 O59 2.713087 1_555
Na6 O58 2.775609 1_555
Na6 O51 2.837647 1_555
Na7 O68 2.529938 1_555
Na7 O60 2.593781 1_555
Na7 O61 2.598443 1_555
Na7 O66 2.712750 1_555
Na7 O67 2.716601 1_555
Na7 O62 2.856546 1_555
Na8 O65 2.478230 1_555
Na8 O69 2.550042 1_555
Na8 O70 2.571213 1_555
Na8 O63 2.830163 1_555
Na8 O71 2.890794 1_555
Na8 O64 2.926321 1_555
La0 O2 2.177524 1_555
La0 O38 2.266463 1_655
La0 O37 2.276039 1_545
La0 O1 2.337052 1_545
La0 O0 2.368033 1_655
La0 O36 2.402033 1_645
La1 O12 2.189698 1_555
La1 O50 2.256039 1_555
La1 O49 2.378615 1_555
La1 O14 2.388736 1_555
La1 O48 2.391787 1_555
La1 O13 2.426791 1_555
La2 O15 2.166413 1_555
La2 O52 2.259545 1_555
La2 O17 2.295570 1_555
La2 O16 2.359791 1_555
La2 O51 2.463235 1_555
La2 O53 2.556325 1_555
O0 S0 1.458887 1_545
O1 S1 1.445573 1_555
O2 Si0 1.604770 1_655
O3 Si1 1.629042 1_555
O3 Sn0 1.951302 1_545
O4 Si2 1.625154 1_655
O4 Sn0 1.942592 1_655
O5 S2 1.475346 1_545
O5 Sn0 2.125418 1_645
O6 S2 1.498025 1_555
O6 Sn1 2.239113 1_665
O7 Si1 1.641995 1_555
O7 Sn1 1.964037 1_555
O8 Si2 1.657881 1_555
O8 Sn1 2.002702 1_565
O9 S1 1.489773 1_555
O9 Sn2 2.300360 1_665
O10 Si0 1.701711 1_555
O10 Sn2 2.048664 1_555
O11 S0 1.503439 1_555
O11 Sn2 2.198225 1_565
O12 Si3 1.593710 1_555
O13 S3 1.451031 1_555
O14 S4 1.467763 1_555
O15 Si4 1.597771 1_555
O16 S5 1.457682 1_555
O17 Si5 1.607405 1_555
O18 Si5 1.663996 1_555
O18 Sn3 1.958227 1_554
O19 Si4 1.657530 1_555
O19 Sn3 1.961499 1_554
O20 S5 1.493390 1_555
O20 Sn3 2.345908 1_554
O21 S3 1.501195 1_555
O21 Sn4 2.133501 1_555
O22 S4 1.486219 1_555
O22 Sn4 2.344175 1_555
O23 Si3 1.678045 1_555
O23 Sn4 2.007525 1_555
O24 Si6 1.617075 1_555
O24 Sn5 1.968815 1_556
O25 S6 1.477373 1_555
O25 Sn5 2.166294 1_556
O26 S7 1.473194 1_555
O26 Sn5 2.192151 1_556
O27 Si7 1.611080 1_555
O27 Sn6 1.933531 1_555
O28 Si8 1.614715 1_555
O28 Sn6 1.931811 1_555
O29 S8 1.469890 1_555
O29 Sn6 2.099104 1_555
O30 S8 1.498522 1_555
O30 Sn7 2.218042 1_555
O31 Si7 1.655542 1_555
O31 Sn7 1.979836 1_555
O32 Si8 1.661785 1_555
O32 Sn7 2.011902 1_555
O33 S6 1.502312 1_555
O33 Sn8 2.144942 1_555
O34 S7 1.492028 1_555
O34 Sn8 2.243556 1_555
O35 Si6 1.652309 1_555
O35 Sn8 2.002321 1_555
O36 S8 1.444498 1_555
O37 Si7 1.617625 1_555
O38 Si8 1.615691 1_555
O39 S6 1.485221 1_555
O39 Sn0 2.270098 1_545
O40 S7 1.504819 1_555
O40 Sn0 2.172645 1_555
O41 Si6 1.662340 1_555
O41 Sn0 2.009534 1_655
O42 Si3 1.674828 1_555
O42 Sn1 2.031760 1_655
O43 S3 1.498532 1_555
O43 Sn1 2.212486 1_555
O44 S4 1.491588 1_555
O44 Sn1 2.325327 1_665
O45 Si4 1.654738 1_555
O45 Sn2 2.033457 1_665
O46 S5 1.495790 1_555
O46 Sn2 2.228611 1_655
O47 Si5 1.643701 1_555
O47 Sn2 1.991935 1_555
O48 S2 1.451362 1_545
O49 Si1 1.619460 1_555
O50 Si2 1.620216 1_655
O51 S1 1.482648 1_555
O52 Si0 1.603576 1_655
O53 S0 1.477229 1_545
O54 Si6 1.669438 1_555
O54 Sn3 2.018893 1_555
O55 S6 1.489959 1_655
O55 Sn3 2.341947 1_555
O56 S7 1.492528 1_545
O56 Sn3 2.370126 1_555
O57 Si7 1.666164 1_545
O57 Sn4 2.013387 1_555
O58 Si8 1.643564 1_555
O58 Sn4 1.977042 1_555
O59 S8 1.498351 1_655
O59 Sn4 2.236193 1_555
O60 Si5 1.631181 1_555
O60 Sn5 1.962331 1_555
O61 Si4 1.634624 1_455
O61 Sn5 1.966050 1_555
O62 S5 1.481152 1_565
O62 Sn5 2.104690 1_555
O63 S3 1.481162 1_565
O63 Sn6 2.199860 1_555
O64 S4 1.497580 1_555
O64 Sn6 2.106242 1_555
O65 Si3 1.653181 1_455
O65 Sn6 1.978962 1_555
O66 S0 1.493411 1_555
O66 Sn7 2.249243 1_555
O67 S1 1.509142 1_555
O67 Sn7 2.200220 1_555
O68 Si0 1.693019 1_555
O68 Sn7 2.046143 1_555
O69 Si1 1.670861 1_555
O69 Sn8 2.001805 1_555
O70 Si2 1.654316 1_555
O70 Sn8 1.997402 1_555
O71 S2 1.497138 1_555
O71 Sn8 2.251568 1_555
