# generated using pymatgen
data_MgTa2(ReO6)2
_symmetry_space_group_name_H-M   'P 1'
_cell_length_a   5.21275465
_cell_length_b   5.48039353
_cell_length_c   7.54473600
_cell_angle_alpha   90.00000000
_cell_angle_beta   90.00000000
_cell_angle_gamma   89.97599059
_symmetry_Int_Tables_number   1
_chemical_formula_structural   MgTa2(ReO6)2
_chemical_formula_sum   'Mg1 Ta2 Re2 O12'
_cell_volume   215.53759816
_cell_formula_units_Z   1
loop_
 _symmetry_equiv_pos_site_id
 _symmetry_equiv_pos_as_xyz
  1  'x, y, z'
loop_
 _atom_site_type_symbol
 _atom_site_label
 _atom_site_symmetry_multiplicity
 _atom_site_fract_x
 _atom_site_fract_y
 _atom_site_fract_z
 _atom_site_occupancy
  Mg  Mg0  1  0.02079800  0.94242100  0.25000000  1
  Ta  Ta0  1  0.00300700  0.49475600  0.99660500  1
  Ta  Ta1  1  0.00300700  0.49475600  0.50339500  1
  Re  Re0  1  0.50441000  0.00273100  0.99519500  1
  Re  Re1  1  0.50441000  0.00273100  0.50480500  1
  O  O0  1  0.78454400  0.79379700  0.54140200  1
  O  O1  1  0.28563000  0.73289900  0.45154500  1
  O  O2  1  0.19225900  0.19139800  0.43785300  1
  O  O3  1  0.69386900  0.28640700  0.96182100  1
  O  O4  1  0.10049700  0.47813500  0.75000000  1
  O  O5  1  0.69386900  0.28640700  0.53817900  1
  O  O6  1  0.28563000  0.73289900  0.04845500  1
  O  O7  1  0.78454400  0.79379700  0.95859800  1
  O  O8  1  0.61968800  0.00970100  0.25000000  1
  O  O9  1  0.19225900  0.19139800  0.06214700  1
  O  O10  1  0.42632600  0.99437500  0.75000000  1
  O  O11  1  0.91775600  0.54758200  0.25000000  1
loop_
_geom_bond_atom_site_label_1
_geom_bond_atom_site_label_2
_geom_bond_distance
_geom_bond_site_symmetry_2
Mg0 O8 2.122998 1_465
Mg0 O2 2.161123 1_565
Mg0 O9 2.161123 1_565
Mg0 O11 2.229761 1_455
Mg0 O1 2.352702 1_555
Mg0 O6 2.352702 1_555
Mg0 O0 2.648506 1_455
Mg0 O7 2.648506 1_454
O0 Re1 1.875725 1_565
O0 Ta1 2.015784 1_655
O1 Re1 1.910578 1_565
O1 Ta1 2.007094 1_555
O2 Re1 1.992615 1_555
O2 Ta1 1.995084 1_555
O3 Re0 1.859302 1_555
O3 Ta0 1.992738 1_655
O4 Ta0 1.930864 1_555
O4 Ta1 1.930864 1_555
O5 Re1 1.859302 1_555
O5 Ta1 1.992738 1_655
O6 Re0 1.910578 1_564
O6 Ta0 2.007094 1_554
O7 Re0 1.875725 1_565
O7 Ta0 2.015784 1_655
O8 Re1 2.014532 1_555
O8 Re0 2.014532 1_554
O9 Re0 1.992615 1_554
O9 Ta0 1.995084 1_554
O10 Re0 1.894739 1_565
O10 Re1 1.894739 1_565
O11 Ta1 1.983977 1_655
O11 Ta0 1.983977 1_654
