# generated using pymatgen
data_In2S3
_symmetry_space_group_name_H-M   'P 1'
_cell_length_a   7.67999752
_cell_length_b   7.67999660
_cell_length_c   17.19010243
_cell_angle_alpha   102.90788118
_cell_angle_beta   102.90787805
_cell_angle_gamma   90.00000379
_symmetry_Int_Tables_number   1
_chemical_formula_structural   In2S3
_chemical_formula_sum   'In16 S24'
_cell_volume   961.98841120
_cell_formula_units_Z   8
loop_
 _symmetry_equiv_pos_site_id
 _symmetry_equiv_pos_as_xyz
  1  'x, y, z'
loop_
 _atom_site_type_symbol
 _atom_site_label
 _atom_site_symmetry_multiplicity
 _atom_site_fract_x
 _atom_site_fract_y
 _atom_site_fract_z
 _atom_site_occupancy
  In  In0  1  0.29549909  0.54549909  0.09100018  1
  In  In1  1  0.04549909  0.79549909  0.59100018  1
  In  In2  1  0.70450091  0.45450091  0.90899982  1
  In  In3  1  0.95450091  0.20450091  0.40899982  1
  In  In4  1  0.81358970  0.33210391  0.66420882  1
  In  In5  1  0.16789609  0.14938189  0.83579118  1
  In  In6  1  0.16789609  0.68641030  0.83579118  1
  In  In7  1  0.64938189  0.66789609  0.33579118  1
  In  In8  1  0.18641030  0.66789609  0.33579118  1
  In  In9  1  0.83210391  0.31358970  0.16420882  1
  In  In10  1  0.83210391  0.85061811  0.16420882  1
  In  In11  1  0.35061811  0.33210391  0.66420882  1
  In  In12  1  0.50000000  -0.00000000  -0.00000000  1
  In  In13  1  0.50000000  -0.00000000  0.50000000  1
  In  In14  1  0.50000000  0.50000000  0.50000000  1
  In  In15  1  -0.00000000  -0.00000000  -0.00000000  1
  S  S0  1  0.93492718  0.41303293  0.82606686  1
  S  S1  1  0.08696707  0.10886132  0.67393314  1
  S  S2  1  0.08696707  0.56507282  0.67393314  1
  S  S3  1  0.60886132  0.58696707  0.17393314  1
  S  S4  1  0.06507282  0.58696707  0.17393314  1
  S  S5  1  0.91303293  0.43492718  0.32606686  1
  S  S6  1  0.91303293  0.89113868  0.32606686  1
  S  S7  1  0.39113868  0.41303293  0.82606686  1
  S  S8  1  0.58937982  0.07798985  0.15598170  1
  S  S9  1  0.42201015  0.43339812  0.34401830  1
  S  S10  1  0.42201015  0.91062018  0.34401830  1
  S  S11  1  0.93339812  0.92201015  0.84401830  1
  S  S12  1  0.41062018  0.92201015  0.84401830  1
  S  S13  1  0.57798985  0.08937982  0.65598170  1
  S  S14  1  0.57798985  0.56660188  0.65598170  1
  S  S15  1  0.06660188  0.07798985  0.15598170  1
  S  S16  1  0.25743321  0.25067935  0.50135870  1
  S  S17  1  0.75067935  0.75743321  0.00135870  1
  S  S18  1  0.75067935  0.24392549  0.00135870  1
  S  S19  1  0.25607451  0.74932065  0.49864130  1
  S  S20  1  0.74256679  0.74932065  0.49864130  1
  S  S21  1  0.24932065  0.75607451  0.99864130  1
  S  S22  1  0.24932065  0.24256679  0.99864130  1
  S  S23  1  0.74392549  0.25067935  0.50135870  1
loop_
_geom_bond_atom_site_label_1
_geom_bond_atom_site_label_2
_geom_bond_distance
_geom_bond_site_symmetry_2
In0 S22 2.481397 1_554
In0 S21 2.481409 1_554
In0 S4 2.487948 1_555
In0 S3 2.487967 1_555
In1 S20 2.481397 1_455
In1 S19 2.481409 1_555
In1 S2 2.487947 1_555
In1 S1 2.487967 1_565
In2 S17 2.481397 1_556
In2 S18 2.481409 1_556
In2 S0 2.487948 1_555
In2 S7 2.487967 1_555
In3 S16 2.481397 1_655
In3 S23 2.481409 1_555
In3 S5 2.487947 1_555
In3 S6 2.487967 1_545
In4 S13 2.556714 1_555
In4 S14 2.556720 1_555
In4 S23 2.657583 1_555
In4 S0 2.658045 1_555
In4 S1 2.710492 1_655
In4 S2 2.710501 1_655
In5 S12 2.556709 1_545
In5 S11 2.556714 1_445
In5 S22 2.657582 1_555
In5 S1 2.658045 1_555
In5 S7 2.710480 1_555
In5 S0 2.710490 1_455
In6 S12 2.556714 1_555
In6 S11 2.556720 1_455
In6 S21 2.657583 1_555
In6 S2 2.658045 1_555
In6 S7 2.710491 1_555
In6 S0 2.710501 1_455
In7 S10 2.556709 1_555
In7 S9 2.556714 1_555
In7 S20 2.657582 1_555
In7 S3 2.658045 1_555
In7 S6 2.710480 1_555
In7 S5 2.710490 1_555
In8 S10 2.556714 1_555
In8 S9 2.556720 1_555
In8 S19 2.657583 1_555
In8 S4 2.658045 1_555
In8 S6 2.710492 1_455
In8 S5 2.710501 1_455
In9 S8 2.556714 1_555
In9 S15 2.556720 1_655
In9 S18 2.657583 1_555
In9 S5 2.658045 1_555
In9 S3 2.710491 1_555
In9 S4 2.710501 1_655
In10 S8 2.556709 1_565
In10 S15 2.556714 1_665
In10 S17 2.657582 1_555
In10 S6 2.658045 1_555
In10 S3 2.710480 1_555
In10 S4 2.710490 1_655
In11 S13 2.556709 1_555
In11 S14 2.556714 1_555
In11 S16 2.657582 1_555
In11 S7 2.658045 1_555
In11 S1 2.710480 1_555
In11 S2 2.710490 1_555
In12 S12 2.545528 1_544
In12 S8 2.545528 1_555
In12 S21 2.678954 1_544
In12 S18 2.678954 1_555
In12 S17 2.678954 1_545
In12 S22 2.678954 1_554
In13 S10 2.545528 1_545
In13 S13 2.545528 1_555
In13 S19 2.678954 1_545
In13 S23 2.678954 1_555
In13 S16 2.678954 1_555
In13 S20 2.678954 1_545
In14 S14 2.545528 1_555
In14 S9 2.545528 1_555
In14 S16 2.678954 1_555
In14 S20 2.678954 1_555
In14 S23 2.678954 1_555
In14 S19 2.678954 1_555
In15 S15 2.545528 1_555
In15 S11 2.545528 1_444
In15 S17 2.678954 1_445
In15 S22 2.678954 1_554
In15 S18 2.678954 1_455
In15 S21 2.678954 1_544
