# generated using pymatgen
data_Na6Nb6In2Si9(SO16)3
_symmetry_space_group_name_H-M   'P 1'
_cell_length_a   17.97003896
_cell_length_b   9.01589922
_cell_length_c   22.83727744
_cell_angle_alpha   90.09829332
_cell_angle_beta   89.85310254
_cell_angle_gamma   120.05672223
_symmetry_Int_Tables_number   1
_chemical_formula_structural   Na6Nb6In2Si9(SO16)3
_chemical_formula_sum   'Na18 Nb18 In6 Si27 S9 O144'
_cell_volume   3202.45496920
_cell_formula_units_Z   3
loop_
 _symmetry_equiv_pos_site_id
 _symmetry_equiv_pos_as_xyz
  1  'x, y, z'
loop_
 _atom_site_type_symbol
 _atom_site_label
 _atom_site_symmetry_multiplicity
 _atom_site_fract_x
 _atom_site_fract_y
 _atom_site_fract_z
 _atom_site_occupancy
  Na  Na0  1  0.32305776  0.01786847  0.25415486  1
  Na  Na1  1  0.68624990  0.37034643  0.24340542  1
  Na  Na2  1  0.49188288  0.61826941  0.24944370  1
  Na  Na3  1  0.82235696  0.62953037  0.75196398  1
  Na  Na4  1  0.99271168  0.36450956  0.74686456  1
  Na  Na5  1  0.18690469  0.00624134  0.74025907  1
  Na  Na6  1  0.00385190  0.01214447  0.49986238  1
  Na  Na7  1  0.50644127  0.99749399  0.49542765  1
  Na  Na8  1  0.00589053  0.01748226  0.99396912  1
  Na  Na9  1  0.50426866  0.99563236  0.99820970  1
  Na  Na10  1  0.34237667  0.33339622  0.83131207  1
  Na  Na11  1  0.82870892  0.31919782  0.82485605  1
  Na  Na12  1  0.32785280  0.34241120  0.33145759  1
  Na  Na13  1  0.84173579  0.35067657  0.33606684  1
  Na  Na14  1  0.16682253  0.65021215  0.16610160  1
  Na  Na15  1  0.67409080  0.67327770  0.16454035  1
  Na  Na16  1  0.17619448  0.67472259  0.66223577  1
  Na  Na17  1  0.65661974  0.67044892  0.65943266  1
  Nb  Nb0  1  0.00204229  0.98675627  0.35932916  1
  Nb  Nb1  1  0.50219905  0.01750798  0.85779848  1
  Nb  Nb2  1  0.99709726  0.99141422  0.64342199  1
  Nb  Nb3  1  0.49847113  0.01611103  0.63835855  1
  Nb  Nb4  1  0.99966570  0.99527189  0.14362285  1
  Nb  Nb5  1  0.49754860  0.00244253  0.14343312  1
  Nb  Nb6  1  0.33017212  0.34678919  0.97598452  1
  Nb  Nb7  1  0.82764625  0.30962504  0.97748029  1
  Nb  Nb8  1  0.33405142  0.34600324  0.48241061  1
  Nb  Nb9  1  0.83000265  0.31234136  0.47672676  1
  Nb  Nb10  1  0.16872769  0.65812696  0.01399697  1
  Nb  Nb11  1  0.65976277  0.66487470  0.02441599  1
  Nb  Nb12  1  0.16001288  0.65286871  0.52422872  1
  Nb  Nb13  1  0.66243002  0.67032348  0.51582720  1
  Nb  Nb14  1  0.16435331  0.66015547  0.31220704  1
  Nb  Nb15  1  0.66813048  0.65545814  0.31650915  1
  Nb  Nb16  1  0.16813093  0.68060360  0.81513067  1
  Nb  Nb17  1  0.66128301  0.66534990  0.80931848  1
  In  In0  1  0.50030123  0.00288839  0.35809632  1
  In  In1  1  0.00069163  0.99922244  0.85768025  1
  In  In2  1  0.33807588  0.32989830  0.67879390  1
  In  In3  1  0.82882257  0.31777058  0.68614059  1
  In  In4  1  0.32796569  0.34014651  0.18667977  1
  In  In5  1  0.83441842  0.34094239  0.18158773  1
  Si  Si0  1  0.14242674  0.99478338  0.25032152  1
  Si  Si1  1  0.35563341  0.71346962  0.25279428  1
  Si  Si2  1  0.85677766  0.71019888  0.25068842  1
  Si  Si3  1  0.50101481  0.29174547  0.25029223  1
  Si  Si4  1  0.64218082  0.28625413  0.74919961  1
  Si  Si5  1  0.00089883  0.71135042  0.75075946  1
  Si  Si6  1  0.35708442  0.00358561  0.75005795  1
  Si  Si7  1  0.85577937  0.99808162  0.75339844  1
  Si  Si8  1  0.48238354  0.34420322  0.58199006  1
  Si  Si9  1  0.97453449  0.32660185  0.58665672  1
  Si  Si10  1  0.18680880  0.03939530  0.58446685  1
  Si  Si11  1  0.68710904  0.03895112  0.58388909  1
  Si  Si12  1  0.33294362  0.62446199  0.58673592  1
  Si  Si13  1  0.47406254  0.62161866  0.08647445  1
  Si  Si14  1  0.83388402  0.04150730  0.08504855  1
  Si  Si15  1  0.18629692  0.33566011  0.08362606  1
  Si  Si16  1  0.68734794  0.33480660  0.08471493  1
  Si  Si17  1  0.31322226  0.66987206  0.91310660  1
  Si  Si18  1  0.01819131  0.37409339  0.91407358  1
  Si  Si19  1  0.52215677  0.38453249  0.91818824  1
  Si  Si20  1  0.16612355  0.96055877  0.92078274  1
  Si  Si21  1  0.66401785  0.94731746  0.91511838  1
  Si  Si22  1  0.81148383  0.95128132  0.41569009  1
  Si  Si23  1  0.16816558  0.37805907  0.41568145  1
  Si  Si24  1  0.66743910  0.37183830  0.42027230  1
  Si  Si25  1  0.02157602  0.65855686  0.41840943  1
  Si  Si26  1  0.51625690  0.66134140  0.41377885  1
  S  S0  1  0.64607763  0.99797855  0.24855124  1
  S  S1  1  0.00020586  0.28499138  0.25063443  1
  S  S2  1  0.14680349  0.29494577  0.74891532  1
  S  S3  1  0.49849480  0.71502559  0.75222896  1
  S  S4  1  0.83214525  0.62553726  0.58311293  1
  S  S5  1  0.98310364  0.62991383  0.08160553  1
  S  S6  1  0.33114864  0.03718078  0.08309942  1
  S  S7  1  0.80660976  0.65823660  0.91839338  1
  S  S8  1  0.30603227  0.95344228  0.41753188  1
  O  O0  1  0.09362421  0.01849775  0.30728789  1
  O  O1  1  0.60921151  0.02586713  0.30185978  1
  O  O2  1  0.41654128  0.79956173  0.30772361  1
  O  O3  1  0.91552020  0.81609645  0.30720750  1
  O  O4  1  0.48778389  0.17744378  0.30666587  1
  O  O5  1  0.99193939  0.18612973  0.30346103  1
  O  O6  1  0.10985740  0.19328209  0.80266018  1
  O  O7  1  0.59468876  0.16935491  0.80783634  1
  O  O8  1  0.49465538  0.80259999  0.80572984  1
  O  O9  1  0.98717518  0.79635899  0.80802238  1
  O  O10  1  0.41563340  0.01418931  0.80756960  1
  O  O11  1  0.91620731  0.03608379  0.80912345  1
  O  O12  1  0.40362487  0.98268638  0.69153089  1
  O  O13  1  0.90516562  0.96861901  0.69497787  1
  O  O14  1  0.09172295  0.20649315  0.69652833  1
  O  O15  1  0.58345817  0.19009558  0.69207000  1
  O  O16  1  0.01802488  0.83922607  0.69284205  1
  O  O17  1  0.51078735  0.81306129  0.69836500  1
  O  O18  1  0.40569603  0.84125281  0.19387835  1
  O  O19  1  0.90447467  0.82702191  0.19155369  1
  O  O20  1  0.01116057  0.20530357  0.19631921  1
  O  O21  1  0.51782270  0.19680022  0.19166592  1
  O  O22  1  0.08307696  0.97824965  0.19256190  1
  O  O23  1  0.59240871  0.97913396  0.19546662  1
  O  O24  1  0.45273491  0.38553183  0.64294654  1
  O  O25  1  0.94619526  0.37155303  0.64726998  1
  O  O26  1  0.23394650  0.09745759  0.64728349  1
  O  O27  1  0.74252274  0.10814870  0.64176198  1
  O  O28  1  0.30912223  0.50681314  0.64359722  1
  O  O29  1  0.82192442  0.53730531  0.63954648  1
  O  O30  1  0.44508111  0.51949612  0.14676603  1
  O  O31  1  0.95022088  0.53570448  0.13734040  1
  O  O32  1  0.31956213  0.10301624  0.13893213  1
  O  O33  1  0.81663016  0.12159735  0.14231655  1
  O  O34  1  0.24153181  0.37891974  0.14157901  1
  O  O35  1  0.73562068  0.37324008  0.14723604  1
  O  O36  1  0.23382091  0.30972415  0.02526827  1
  O  O37  1  0.74335302  0.31254047  0.03060670  1
  O  O38  1  0.41216245  0.51900790  0.03003759  1
  O  O39  1  0.92794969  0.54153989  0.03118838  1
  O  O40  1  0.34202637  0.14654360  0.03231101  1
  O  O41  1  0.84795250  0.16569261  0.02641259  1
  O  O42  1  0.23936121  0.17270944  0.53039497  1
  O  O43  1  0.73499571  0.16331708  0.52586251  1
  O  O44  1  0.34797591  0.53124359  0.52806884  1
  O  O45  1  0.84372267  0.53727492  0.53278899  1
  O  O46  1  0.41808220  0.31562267  0.52676281  1
  O  O47  1  0.91300417  0.30560780  0.53020368  1
  O  O48  1  0.26670166  0.69025117  0.97230340  1
  O  O49  1  0.76021910  0.67319705  0.96901522  1
  O  O50  1  0.08239928  0.48383763  0.96970417  1
  O  O51  1  0.58183187  0.47480185  0.97459678  1
  O  O52  1  0.16078506  0.83970454  0.97584991  1
  O  O53  1  0.65638325  0.83433810  0.97202981  1
  O  O54  1  0.25929430  0.84580322  0.46813491  1
  O  O55  1  0.76754159  0.83875572  0.47341667  1
  O  O56  1  0.15669996  0.47730267  0.47135468  1
  O  O57  1  0.66221138  0.48415713  0.47348093  1
  O  O58  1  0.08157057  0.68839583  0.47431841  1
  O  O59  1  0.57966582  0.67941380  0.46923826  1
  O  O60  1  0.07121303  0.63993727  0.35997961  1
  O  O61  1  0.56680294  0.64192708  0.35450692  1
  O  O62  1  0.25775113  0.86878880  0.36076650  1
  O  O63  1  0.75038015  0.85661791  0.35823712  1
  O  O64  1  0.18020415  0.49941073  0.35720043  1
  O  O65  1  0.67962378  0.48826897  0.35853083  1
  O  O66  1  0.06555385  0.49124760  0.85512279  1
  O  O67  1  0.57088924  0.50320540  0.86054119  1
  O  O68  1  0.17828394  0.86674619  0.86021145  1
  O  O69  1  0.68011482  0.85951622  0.85718440  1
  O  O70  1  0.25018188  0.64180302  0.85797094  1
  O  O71  1  0.75906431  0.63921632  0.86212420  1
  O  O72  1  0.01291809  0.83220575  0.41147454  1
  O  O73  1  0.50937019  0.83081554  0.41591186  1
  O  O74  1  0.39116779  0.97062295  0.41655947  1
  O  O75  1  0.90734648  0.97818643  0.40757445  1
  O  O76  1  0.08125477  0.19078096  0.40707529  1
  O  O77  1  0.58236178  0.18901159  0.41811172  1
  O  O78  1  0.00819343  0.18853821  0.91696744  1
  O  O79  1  0.51331191  0.19397203  0.91130042  1
  O  O80  1  0.08137271  0.97467378  0.91917055  1
  O  O81  1  0.58073931  0.97095845  0.90873470  1
  O  O82  1  0.40748368  0.83673023  0.90893043  1
  O  O83  1  0.89261162  0.81131547  0.91800204  1
  O  O84  1  0.48744272  0.16488770  0.58488751  1
  O  O85  1  0.98389291  0.15346387  0.59171865  1
  O  O86  1  0.09005418  0.02192651  0.58930610  1
  O  O87  1  0.59179114  0.02097449  0.59047920  1
  O  O88  1  0.42006496  0.81223192  0.59294377  1
  O  O89  1  0.91402711  0.80139514  0.58564478  1
  O  O90  1  0.48438765  0.81424877  0.09110404  1
  O  O91  1  0.98945578  0.80314175  0.08555222  1
  O  O92  1  0.41169637  0.02159010  0.08511915  1
  O  O93  1  0.92048082  0.02416282  0.09147109  1
  O  O94  1  0.09081567  0.16077997  0.09068367  1
  O  O95  1  0.59178306  0.15819469  0.08828912  1
  O  O96  1  0.34015886  0.16495107  0.75050593  1
  O  O97  1  0.84317337  0.16123153  0.74903966  1
  O  O98  1  0.23365677  0.31836284  0.74358323  1
  O  O99  1  0.74092279  0.33251167  0.74783814  1
  O  O100  1  0.42309056  0.54159147  0.75161659  1
  O  O101  1  0.91790017  0.52308322  0.74433278  1
  O  O102  1  0.34303185  0.52509488  0.24895839  1
  O  O103  1  0.84284545  0.51605790  0.24917697  1
  O  O104  1  0.41752695  0.31210742  0.24341365  1
  O  O105  1  0.92536958  0.31016757  0.24646383  1
  O  O106  1  0.24034579  0.14809547  0.24724454  1
  O  O107  1  0.73333735  0.14985444  0.24352924  1
  O  O108  1  0.31949841  0.49531667  0.92013953  1
  O  O109  1  0.81366870  0.50020620  0.92342804  1
  O  O110  1  0.42727699  0.36245889  0.92588078  1
  O  O111  1  0.92697151  0.37350795  0.92541910  1
  O  O112  1  0.25585928  0.14405871  0.92714675  1
  O  O113  1  0.75077140  0.14118316  0.92330103  1
  O  O114  1  0.30990219  0.12086955  0.41935303  1
  O  O115  1  0.81905363  0.14089843  0.42109787  1
  O  O116  1  0.25213327  0.35614043  0.42269101  1
  O  O117  1  0.75692923  0.36615736  0.42568118  1
  O  O118  1  0.42465749  0.48153461  0.42086726  1
  O  O119  1  0.92747636  0.49045136  0.42474264  1
  O  O120  1  0.16979587  0.49925992  0.07278327  1
  O  O121  1  0.67453888  0.49905560  0.07172897  1
  O  O122  1  0.07164996  0.65909349  0.07493710  1
  O  O123  1  0.57240458  0.65619437  0.07378597  1
  O  O124  1  0.25664625  0.85965780  0.07639728  1
  O  O125  1  0.75329735  0.85060070  0.07174788  1
  O  O126  1  0.17400539  0.84889988  0.57120760  1
  O  O127  1  0.67486742  0.84895455  0.57144579  1
  O  O128  1  0.25345324  0.65826431  0.57123845  1
  O  O129  1  0.75915082  0.65504332  0.57682695  1
  O  O130  1  0.07273978  0.48790336  0.57385395  1
  O  O131  1  0.58074258  0.50083741  0.57204119  1
  O  O132  1  0.14609378  0.81546625  0.25801605  1
  O  O133  1  0.64936983  0.83596617  0.25074077  1
  O  O134  1  0.26175544  0.71107655  0.25615879  1
  O  O135  1  0.76020238  0.69081933  0.25612167  1
  O  O136  1  0.08115139  0.45959153  0.25360352  1
  O  O137  1  0.58974443  0.48492581  0.25330449  1
  O  O138  1  0.14874339  0.46302323  0.75204210  1
  O  O139  1  0.64663705  0.47425518  0.75919453  1
  O  O140  1  0.09001732  0.69575923  0.75411288  1
  O  O141  1  0.57962942  0.69710221  0.75622092  1
  O  O142  1  0.26019251  0.82747037  0.75784380  1
  O  O143  1  0.76201830  0.81228364  0.75794195  1
loop_
_geom_bond_atom_site_label_1
_geom_bond_atom_site_label_2
_geom_bond_distance
_geom_bond_site_symmetry_2
Na0 O106 2.315730 1_555
Na0 O104 2.338475 1_555
Na0 O134 2.411290 1_545
Na0 O62 2.743753 1_545
Na0 O32 2.751998 1_555
Na0 O132 2.763443 1_545
Na0 O4 2.831359 1_555
Na0 O18 2.997739 1_545
Na1 O35 2.361846 1_555
Na1 O137 2.432592 1_555
Na1 O103 2.441334 1_555
Na1 O135 2.520221 1_555
Na1 O107 2.520498 1_555
Na1 O65 2.858772 1_555
Na1 O21 2.876299 1_555
Na1 O1 3.007040 1_555
Na2 O102 2.368529 1_555
Na2 O104 2.393484 1_555
Na2 O30 2.500306 1_555
Na2 O133 2.509670 1_555
Na2 O137 2.581597 1_555
Na2 O61 2.709637 1_555
Na2 O2 2.911381 1_555
Na3 O99 2.322888 1_555
Na3 O101 2.355355 1_555
Na3 O143 2.386898 1_555
Na3 O29 2.696075 1_555
Na3 O139 2.743736 1_555
Na3 O71 2.777473 1_555
Na3 O9 2.867726 1_555
Na3 O13 2.949751 1_555
Na4 O97 2.376704 1_555
Na4 O101 2.404299 1_555
Na4 O25 2.437087 1_555
Na4 O138 2.484225 1_655
Na4 O140 2.602475 1_655
Na4 O66 2.764072 1_655
Na5 O26 2.280301 1_555
Na5 O96 2.396119 1_555
Na5 O140 2.466879 1_545
Na5 O98 2.502370 1_555
Na5 O142 2.573873 1_545
Na5 O16 2.843164 1_545
Na5 O68 2.987383 1_545
Na5 O6 3.018606 1_555
Na6 O86 2.541365 1_555
Na6 O85 2.568522 1_455
Na6 O76 2.602185 1_555
Na6 O89 2.641578 1_445
Na6 O72 2.642870 1_545
Na6 O75 2.651014 1_445
Na7 O77 2.366176 1_565
Na7 O73 2.372341 1_555
Na7 O87 2.607574 1_565
Na7 O84 2.658978 1_565
Na7 O74 2.666212 1_555
Na7 O88 2.748947 1_555
Na8 O80 2.327453 1_545
Na8 O78 2.327556 1_555
Na8 O83 2.612552 1_445
Na8 O94 2.628488 1_556
Na8 O93 2.718825 1_456
Na8 O91 2.763165 1_446
Na9 O81 2.530507 1_555
Na9 O95 2.559416 1_566
Na9 O90 2.593318 1_556
Na9 O82 2.597437 1_555
Na9 O79 2.623519 1_565
Na9 O92 2.670747 1_566
Na10 O96 2.375625 1_555
Na10 O100 2.492107 1_555
Na10 O110 2.583617 1_555
Na10 O108 2.646150 1_555
Na10 O112 2.730932 1_555
Na10 O98 2.757383 1_555
Na11 O97 2.335352 1_555
Na11 O99 2.408583 1_555
Na11 O101 2.524830 1_555
Na11 O113 2.708589 1_555
Na11 O111 2.789783 1_555
Na11 O109 2.868788 1_555
Na12 O102 2.427931 1_555
Na12 O116 2.522130 1_555
Na12 O106 2.546571 1_555
Na12 O118 2.567569 1_555
Na12 O104 2.671477 1_555
Na12 O114 2.736402 1_555
Na13 O119 2.474950 1_555
Na13 O103 2.478182 1_555
Na13 O117 2.593539 1_555
Na13 O115 2.598172 1_555
Na13 O105 2.666629 1_555
Na13 O107 2.830858 1_555
Na14 O120 2.541485 1_555
Na14 O134 2.552962 1_555
Na14 O136 2.581203 1_555
Na14 O132 2.702946 1_555
Na14 O124 2.703903 1_555
Na14 O122 2.724317 1_555
Na15 O135 2.562049 1_555
Na15 O137 2.590002 1_555
Na15 O125 2.605620 1_555
Na15 O133 2.619626 1_555
Na15 O121 2.638384 1_555
Na15 O123 2.719332 1_555
Na16 O128 2.541388 1_555
Na16 O126 2.619666 1_555
Na16 O142 2.620424 1_555
Na16 O140 2.667000 1_555
Na16 O138 2.675395 1_555
Na16 O130 2.690357 1_555
Na17 O131 2.468927 1_555
Na17 O127 2.492859 1_555
Na17 O141 2.678280 1_555
Na17 O129 2.685242 1_555
Na17 O143 2.805253 1_555
Na17 O139 2.836465 1_555
Nb0 O72 1.917711 1_555
Nb0 O0 1.929293 1_565
Nb0 O3 1.951544 1_455
Nb0 O75 1.993646 1_455
Nb0 O76 1.994242 1_565
Nb0 O5 2.286459 1_465
Nb1 O7 1.911770 1_555
Nb1 O10 1.923272 1_555
Nb1 O79 1.933989 1_555
Nb1 O81 2.030932 1_545
Nb1 O82 2.033337 1_545
Nb1 O8 2.217298 1_545
Nb2 O13 1.951514 1_555
Nb2 O16 1.955068 1_655
Nb2 O86 1.980822 1_665
Nb2 O85 1.984873 1_565
Nb2 O89 2.084458 1_555
Nb2 O14 2.195923 1_665
Nb3 O84 1.898111 1_555
Nb3 O88 1.961195 1_545
Nb3 O15 1.975058 1_555
Nb3 O87 1.981624 1_555
Nb3 O12 1.986568 1_545
Nb3 O17 2.386281 1_545
Nb4 O22 1.938810 1_655
Nb4 O19 1.955033 1_555
Nb4 O93 1.972861 1_565
Nb4 O94 1.979628 1_665
Nb4 O91 2.113768 1_555
Nb4 O20 2.162957 1_665
Nb5 O18 1.938235 1_545
Nb5 O21 1.942309 1_555
Nb5 O90 1.988849 1_545
Nb5 O95 2.009613 1_555
Nb5 O92 2.112240 1_555
Nb5 O23 2.175341 1_545
Nb6 O108 1.928968 1_555
Nb6 O36 1.946281 1_556
Nb6 O38 1.953622 1_556
Nb6 O112 1.980833 1_555
Nb6 O110 2.029174 1_555
Nb6 O40 2.313898 1_556
Nb7 O41 1.883427 1_556
Nb7 O113 1.909558 1_555
Nb7 O37 1.948724 1_556
Nb7 O111 1.973012 1_555
Nb7 O109 2.231695 1_555
Nb7 O39 2.313547 1_556
Nb8 O44 1.875063 1_555
Nb8 O46 1.950457 1_555
Nb8 O42 1.967368 1_555
Nb8 O118 2.029957 1_555
Nb8 O116 2.044721 1_555
Nb8 O114 2.343702 1_555
Nb9 O43 1.917481 1_555
Nb9 O115 1.931782 1_555
Nb9 O47 1.954526 1_555
Nb9 O117 1.991658 1_555
Nb9 O119 2.057781 1_555
Nb9 O45 2.303156 1_555
Nb10 O50 1.860031 1_554
Nb10 O48 1.889911 1_554
Nb10 O52 1.923267 1_554
Nb10 O120 1.971944 1_555
Nb10 O124 2.226067 1_555
Nb10 O122 2.232243 1_555
Nb11 O123 1.899961 1_555
Nb11 O51 1.946743 1_554
Nb11 O53 1.966958 1_554
Nb11 O121 1.969186 1_555
Nb11 O125 1.995306 1_555
Nb11 O49 2.172110 1_554
Nb12 O130 1.901621 1_555
Nb12 O58 1.962284 1_555
Nb12 O56 1.966352 1_555
Nb12 O126 1.971720 1_555
Nb12 O128 1.975256 1_555
Nb12 O54 2.176470 1_555
Nb13 O59 1.865809 1_555
Nb13 O57 1.933988 1_555
Nb13 O131 1.971804 1_555
Nb13 O127 1.972548 1_555
Nb13 O55 1.983506 1_555
Nb13 O129 2.287675 1_555
Nb14 O64 1.912438 1_555
Nb14 O60 1.926288 1_555
Nb14 O132 2.016998 1_555
Nb14 O134 2.024437 1_555
Nb14 O62 2.103539 1_555
Nb14 O136 2.142463 1_555
Nb15 O65 1.885094 1_555
Nb15 O63 1.923033 1_555
Nb15 O61 1.962951 1_555
Nb15 O135 2.049981 1_555
Nb15 O137 2.065166 1_555
Nb15 O133 2.361932 1_555
Nb16 O68 1.896844 1_555
Nb16 O70 1.943923 1_555
Nb16 O66 1.997728 1_555
Nb16 O142 2.000576 1_555
Nb16 O140 2.033141 1_555
Nb16 O138 2.313799 1_555
Nb17 O67 1.939461 1_555
Nb17 O69 1.943166 1_555
Nb17 O139 1.971929 1_555
Nb17 O143 2.000180 1_555
Nb17 O141 2.033833 1_555
Nb17 O71 2.241403 1_555
In0 O2 2.046240 1_545
In0 O4 2.066201 1_555
In0 O77 2.095868 1_555
In0 O73 2.106678 1_545
In0 O1 2.259317 1_555
In0 O74 2.264882 1_545
In1 O11 2.039687 1_465
In1 O9 2.059024 1_455
In1 O80 2.110913 1_555
In1 O78 2.127730 1_565
In1 O6 2.246124 1_565
In1 O83 2.288734 1_455
In2 O24 2.030924 1_555
In2 O28 2.073364 1_555
In2 O26 2.117699 1_555
In2 O96 2.227000 1_555
In2 O98 2.347724 1_555
In2 O100 2.413261 1_555
In3 O27 2.017311 1_555
In3 O25 2.106942 1_555
In3 O97 2.120188 1_555
In3 O99 2.167074 1_555
In3 O101 2.188435 1_555
In3 O29 2.306286 1_555
In4 O34 2.036882 1_555
In4 O102 2.101964 1_555
In4 O30 2.112124 1_555
In4 O106 2.157870 1_555
In4 O104 2.179957 1_555
In4 O32 2.334967 1_555
In5 O33 2.044392 1_555
In5 O35 2.092384 1_555
In5 O103 2.156737 1_555
In5 O31 2.184002 1_555
In5 O107 2.264731 1_555
In5 O105 2.326251 1_555
O0 Si0 1.639611 1_545
O1 S0 1.464889 1_545
O2 Si1 1.589573 1_555
O3 Si2 1.638617 1_555
O4 Si3 1.591704 1_555
O5 S1 1.463594 1_655
O6 S2 1.475636 1_555
O7 Si4 1.652369 1_555
O8 S3 1.473711 1_555
O9 Si5 1.594563 1_655
O10 Si6 1.657424 1_555
O11 Si7 1.596553 1_545
O12 Si6 1.634844 1_565
O13 Si7 1.693230 1_555
O14 S2 1.503028 1_555
O15 Si4 1.629147 1_555
O16 Si5 1.679618 1_555
O17 S3 1.466273 1_555
O18 Si1 1.705235 1_555
O19 Si2 1.662056 1_555
O20 S1 1.493627 1_555
O21 Si3 1.693972 1_555
O22 Si0 1.657383 1_555
O23 S0 1.506598 1_555
O24 Si8 1.598084 1_555
O25 Si9 1.594026 1_555
O26 Si10 1.615237 1_555
O27 Si11 1.584046 1_555
O28 Si12 1.594252 1_555
O29 S4 1.477654 1_555
O30 Si13 1.592215 1_555
O31 S5 1.479125 1_555
O32 S6 1.463321 1_555
O33 Si14 1.595915 1_555
O34 Si15 1.583071 1_555
O35 Si16 1.617022 1_555
O36 Si15 1.659313 1_555
O37 Si16 1.665905 1_555
O38 Si13 1.651297 1_555
O39 S5 1.467827 1_555
O40 S6 1.471531 1_555
O41 Si14 1.682417 1_555
O42 Si10 1.650291 1_555
O43 Si11 1.669293 1_555
O44 Si12 1.672148 1_555
O45 S4 1.469287 1_555
O46 Si8 1.643289 1_555
O47 Si9 1.648440 1_555
O48 Si17 1.645433 1_555
O49 S7 1.468604 1_555
O50 Si18 1.668518 1_555
O51 Si19 1.612784 1_555
O52 Si20 1.636259 1_555
O53 Si21 1.615319 1_555
O54 S8 1.471426 1_555
O55 Si22 1.608576 1_555
O56 Si23 1.624504 1_555
O57 Si24 1.612870 1_555
O58 Si25 1.606322 1_555
O59 Si26 1.658240 1_555
O60 Si25 1.657557 1_555
O61 Si26 1.685252 1_555
O62 S8 1.534564 1_555
O63 Si22 1.649370 1_555
O64 Si23 1.671516 1_555
O65 Si24 1.706237 1_555
O66 Si18 1.658610 1_555
O67 Si19 1.644746 1_555
O68 Si20 1.690027 1_555
O69 Si21 1.638477 1_555
O70 Si17 1.628455 1_555
O71 S7 1.506259 1_555
O72 Si25 1.656916 1_555
O73 Si26 1.594204 1_555
O74 S8 1.458595 1_555
O75 Si22 1.625012 1_555
O76 Si23 1.639404 1_555
O77 Si24 1.591404 1_555
O78 Si18 1.592054 1_555
O79 Si19 1.651497 1_555
O80 Si20 1.591055 1_555
O81 Si21 1.620802 1_555
O82 Si17 1.608894 1_555
O83 S7 1.468563 1_555
O84 Si8 1.665521 1_555
O85 Si9 1.655908 1_555
O86 Si10 1.668775 1_555
O87 Si11 1.644233 1_555
O88 Si12 1.637824 1_555
O89 S4 1.531485 1_555
O90 Si13 1.654850 1_555
O91 S5 1.510423 1_555
O92 S6 1.523535 1_555
O93 Si14 1.646989 1_555
O94 Si15 1.656940 1_555
O95 Si16 1.658859 1_555
O96 Si6 1.628621 1_555
O97 Si7 1.599782 1_545
O98 S2 1.471189 1_555
O99 Si4 1.606817 1_555
O100 S3 1.469324 1_555
O101 Si5 1.609819 1_655
O102 Si1 1.599294 1_555
O103 Si2 1.639658 1_555
O104 Si3 1.608236 1_555
O105 S1 1.474998 1_655
O106 Si0 1.604707 1_545
O107 S0 1.481802 1_545
O108 Si17 1.641353 1_555
O109 S7 1.496999 1_555
O110 Si19 1.623625 1_555
O111 Si18 1.656313 1_655
O112 Si20 1.639060 1_545
O113 Si21 1.670683 1_545
O114 S8 1.476422 1_545
O115 Si22 1.650089 1_545
O116 Si23 1.625271 1_555
O117 Si24 1.639374 1_555
O118 Si26 1.640190 1_555
O119 Si25 1.615441 1_655
O120 Si15 1.662714 1_555
O121 Si16 1.636203 1_555
O122 S5 1.484530 1_455
O123 Si13 1.658319 1_555
O124 S6 1.493742 1_565
O125 Si14 1.629586 1_565
O126 Si10 1.642294 1_565
O127 Si11 1.638492 1_565
O128 Si12 1.642447 1_555
O129 S4 1.470581 1_555
O130 Si9 1.656121 1_455
O131 Si8 1.633621 1_555
O132 Si0 1.660334 1_555
O133 S0 1.492125 1_555
O134 Si1 1.677852 1_555
O135 Si2 1.659209 1_555
O136 S1 1.518190 1_555
O137 Si3 1.672987 1_555
O138 S2 1.499795 1_555
O139 Si4 1.671626 1_555
O140 Si5 1.678236 1_555
O141 S3 1.548195 1_555
O142 Si6 1.677626 1_565
O143 Si7 1.681708 1_555
