# generated using pymatgen
data_SmMgNiO3
_symmetry_space_group_name_H-M   'P 1'
_cell_length_a   3.74990198
_cell_length_b   6.81051191
_cell_length_c   3.74990198
_cell_angle_alpha   90.00000000
_cell_angle_beta   90.00000000
_cell_angle_gamma   90.00000000
_symmetry_Int_Tables_number   1
_chemical_formula_structural   SmMgNiO3
_chemical_formula_sum   'Sm1 Mg1 Ni1 O3'
_cell_volume   95.76781705
_cell_formula_units_Z   1
loop_
 _symmetry_equiv_pos_site_id
 _symmetry_equiv_pos_as_xyz
  1  'x, y, z'
loop_
 _atom_site_type_symbol
 _atom_site_label
 _atom_site_symmetry_multiplicity
 _atom_site_fract_x
 _atom_site_fract_y
 _atom_site_fract_z
 _atom_site_occupancy
  Sm  Sm0  1  0.50000000  0.50000000  0.50000000  1
  Mg  Mg0  1  0.50000000  -0.00000000  0.50000000  1
  Ni  Ni0  1  0.00000000  0.00000000  -0.00000000  1
  O  O0  1  0.50000000  -0.00000000  -0.00000000  1
  O  O1  1  -0.00000000  0.50000000  0.00000000  1
  O  O2  1  -0.00000000  -0.00000000  0.50000000  1
loop_
_geom_bond_atom_site_label_1
_geom_bond_atom_site_label_2
_geom_bond_distance
_geom_bond_site_symmetry_2
Mg0 O0 1.874951 1_555
Mg0 O2 1.874951 1_555
Mg0 O0 1.874951 1_556
Mg0 O2 1.874951 1_655
Ni0 O2 1.874951 1_555
Ni0 O2 1.874951 1_554
Ni0 O0 1.874951 1_455
Ni0 O0 1.874951 1_555
O1 Sm0 2.651581 1_454
O1 Sm0 2.651581 1_554
O1 Sm0 2.651581 1_455
O1 Sm0 2.651581 1_555
