# generated using pymatgen
data_Mo(RhO3)2
_symmetry_space_group_name_H-M   'P 1'
_cell_length_a   4.60923306
_cell_length_b   4.60923306
_cell_length_c   9.08340104
_cell_angle_alpha   90.00000000
_cell_angle_beta   90.00000000
_cell_angle_gamma   90.00000000
_symmetry_Int_Tables_number   1
_chemical_formula_structural   Mo(RhO3)2
_chemical_formula_sum   'Mo2 Rh4 O12'
_cell_volume   192.97712216
_cell_formula_units_Z   2
loop_
 _symmetry_equiv_pos_site_id
 _symmetry_equiv_pos_as_xyz
  1  'x, y, z'
loop_
 _atom_site_type_symbol
 _atom_site_label
 _atom_site_symmetry_multiplicity
 _atom_site_fract_x
 _atom_site_fract_y
 _atom_site_fract_z
 _atom_site_occupancy
  Mo  Mo0  1  -0.00000000  0.00000000  -0.00000000  1
  Mo  Mo1  1  0.50000000  0.50000000  0.50000000  1
  Rh  Rh0  1  0.50000000  0.50000000  0.83137621  1
  Rh  Rh1  1  -0.00000000  0.00000000  0.33137621  1
  Rh  Rh2  1  0.50000000  0.50000000  0.16862379  1
  Rh  Rh3  1  -0.00000000  0.00000000  0.66862379  1
  O  O0  1  0.69658558  0.69658558  0.65631683  1
  O  O1  1  0.30341442  0.30341442  0.65631683  1
  O  O2  1  0.69658558  0.69658558  0.34368317  1
  O  O3  1  0.19658558  0.80341442  0.15631683  1
  O  O4  1  0.80341442  0.19658558  0.15631683  1
  O  O5  1  0.80341442  0.19658558  0.84368317  1
  O  O6  1  0.30201058  0.30201058  -0.00000000  1
  O  O7  1  0.19798942  0.80201058  0.50000000  1
  O  O8  1  0.80201058  0.19798942  0.50000000  1
  O  O9  1  0.69798942  0.69798942  -0.00000000  1
  O  O10  1  0.30341442  0.30341442  0.34368317  1
  O  O11  1  0.19658558  0.80341442  0.84368317  1
loop_
_geom_bond_atom_site_label_1
_geom_bond_atom_site_label_2
_geom_bond_distance
_geom_bond_site_symmetry_2
Mo0 O3 1.912629 1_545
Mo0 O5 1.912629 1_454
Mo0 O4 1.912629 1_455
Mo0 O11 1.912629 1_544
Mo0 O6 1.968638 1_555
Mo0 O9 1.968638 1_445
Mo1 O1 1.912629 1_555
Mo1 O0 1.912629 1_555
Mo1 O10 1.912629 1_555
Mo1 O2 1.912629 1_555
Mo1 O7 1.968638 1_555
Mo1 O8 1.968638 1_555
O0 Rh3 1.980945 1_665
O0 Rh0 2.042203 1_555
O1 Rh3 1.980945 1_555
O1 Rh0 2.042203 1_555
O2 Rh1 1.980945 1_665
O2 Rh2 2.042203 1_555
O3 Rh2 1.980945 1_555
O3 Rh1 2.042203 1_565
O4 Rh2 1.980945 1_555
O4 Rh1 2.042203 1_655
O5 Rh0 1.980945 1_555
O5 Rh3 2.042203 1_655
O6 Rh0 2.002907 1_554
O6 Rh2 2.002907 1_555
O7 Rh1 2.002907 1_565
O7 Rh3 2.002907 1_565
O8 Rh1 2.002907 1_655
O8 Rh3 2.002907 1_655
O9 Rh0 2.002907 1_554
O9 Rh2 2.002907 1_555
O10 Rh1 1.980945 1_555
O10 Rh2 2.042203 1_555
O11 Rh0 1.980945 1_555
O11 Rh3 2.042203 1_565
