# generated using pymatgen
data_K3RuF6
_symmetry_space_group_name_H-M   'P 1'
_cell_length_a   6.60170983
_cell_length_b   8.14506904
_cell_length_c   6.58699484
_cell_angle_alpha   128.18622698
_cell_angle_beta   77.03258118
_cell_angle_gamma   111.29069279
_symmetry_Int_Tables_number   1
_chemical_formula_structural   K3RuF6
_chemical_formula_sum   'K3 Ru1 F6'
_cell_volume   259.39621046
_cell_formula_units_Z   1
loop_
 _symmetry_equiv_pos_site_id
 _symmetry_equiv_pos_as_xyz
  1  'x, y, z'
loop_
 _atom_site_type_symbol
 _atom_site_label
 _atom_site_symmetry_multiplicity
 _atom_site_fract_x
 _atom_site_fract_y
 _atom_site_fract_z
 _atom_site_occupancy
  K  K0  1  0.50000000  0.00000000  0.00000000  1
  K  K1  1  -0.00000000  0.50000000  0.50000000  1
  K  K2  1  -0.00000000  0.00000000  0.50000000  1
  Ru  Ru0  1  -0.00000000  0.00000000  0.00000000  1
  F  F0  1  0.77912476  0.06702303  0.28729325  1
  F  F1  1  0.22087524  0.93297697  0.71270675  1
  F  F2  1  0.77794272  0.77917910  0.71397621  1
  F  F3  1  0.22205728  0.22082090  0.28602379  1
  F  F4  1  0.06338946  0.77650042  0.00049541  1
  F  F5  1  0.93661054  0.22349958  0.99950459  1
loop_
_geom_bond_atom_site_label_1
_geom_bond_atom_site_label_2
_geom_bond_distance
_geom_bond_site_symmetry_2
F0 Ru0 2.016862 1_655
F0 K2 2.613040 1_655
F0 K0 2.613788 1_555
F0 K1 2.756713 1_655
F1 Ru0 2.016862 1_566
F1 K2 2.613040 1_565
F1 K0 2.613788 1_566
F1 K1 2.756713 1_555
F2 Ru0 2.017062 1_666
F2 K0 2.608971 1_566
F2 K1 2.614775 1_655
F2 K2 2.768206 1_665
F3 Ru0 2.017062 1_555
F3 K0 2.608971 1_555
F3 K1 2.614775 1_555
F3 K2 2.768206 1_555
F4 Ru0 2.012522 1_565
F4 K2 2.616141 1_565
F4 K1 2.621137 1_554
F4 K0 2.795476 1_565
F5 Ru0 2.012522 1_656
F5 K2 2.616141 1_655
F5 K1 2.621137 1_656
F5 K0 2.795476 1_556
