# generated using pymatgen
data_Rb2RhF6
_symmetry_space_group_name_H-M   'P 1'
_cell_length_a   5.90695413
_cell_length_b   5.90695423
_cell_length_c   4.76739266
_cell_angle_alpha   90.00005789
_cell_angle_beta   89.99993456
_cell_angle_gamma   120.00006419
_symmetry_Int_Tables_number   1
_chemical_formula_structural   Rb2RhF6
_chemical_formula_sum   'Rb2 Rh1 F6'
_cell_volume   144.05836391
_cell_formula_units_Z   1
loop_
 _symmetry_equiv_pos_site_id
 _symmetry_equiv_pos_as_xyz
  1  'x, y, z'
loop_
 _atom_site_type_symbol
 _atom_site_label
 _atom_site_symmetry_multiplicity
 _atom_site_fract_x
 _atom_site_fract_y
 _atom_site_fract_z
 _atom_site_occupancy
  Rb  Rb0  1  0.33333300  0.66666700  0.70832262  1
  Rb  Rb1  1  0.66666700  0.33333300  0.29167738  1
  Rh  Rh0  1  0.00000000  0.00000000  -0.00000000  1
  F  F0  1  0.84315628  0.15684372  0.77616506  1
  F  F1  1  0.84315628  0.68631155  0.77616606  1
  F  F2  1  0.31368845  0.15684372  0.77616606  1
  F  F3  1  0.15684372  0.84315628  0.22383494  1
  F  F4  1  0.15684372  0.31368845  0.22383394  1
  F  F5  1  0.68631155  0.84315628  0.22383394  1
loop_
_geom_bond_atom_site_label_1
_geom_bond_atom_site_label_2
_geom_bond_distance
_geom_bond_site_symmetry_2
F0 Rh0 1.927112 1_656
F0 Rb1 2.931797 1_555
F0 Rb0 2.972830 1_655
F0 Rb0 2.972830 1_545
F0 Rb1 3.049679 1_556
F1 Rh0 1.927111 1_666
F1 Rb1 2.931797 1_555
F1 Rb0 2.972827 1_655
F1 Rb0 2.972839 1_555
F1 Rb1 3.049676 1_556
F2 Rh0 1.927110 1_556
F2 Rb1 2.931797 1_555
F2 Rb0 2.972827 1_545
F2 Rb0 2.972839 1_555
F2 Rb1 3.049677 1_556
F3 Rh0 1.927112 1_565
F3 Rb0 2.931797 1_555
F3 Rb1 2.972830 1_455
F3 Rb1 2.972830 1_565
F3 Rb0 3.049679 1_554
F4 Rh0 1.927111 1_555
F4 Rb0 2.931797 1_555
F4 Rb1 2.972827 1_455
F4 Rb1 2.972839 1_555
F4 Rb0 3.049676 1_554
F5 Rh0 1.927110 1_665
F5 Rb0 2.931797 1_555
F5 Rb1 2.972827 1_565
F5 Rb1 2.972839 1_555
F5 Rb0 3.049677 1_554
