# generated using pymatgen
data_Rb4FeO4
_symmetry_space_group_name_H-M   'P 1'
_cell_length_a   6.61581282
_cell_length_b   9.89050724
_cell_length_c   12.75205360
_cell_angle_alpha   80.81744182
_cell_angle_beta   103.22186534
_cell_angle_gamma   111.61554737
_symmetry_Int_Tables_number   1
_chemical_formula_structural   Rb4FeO4
_chemical_formula_sum   'Rb16 Fe4 O16'
_cell_volume   752.55217841
_cell_formula_units_Z   4
loop_
 _symmetry_equiv_pos_site_id
 _symmetry_equiv_pos_as_xyz
  1  'x, y, z'
loop_
 _atom_site_type_symbol
 _atom_site_label
 _atom_site_symmetry_multiplicity
 _atom_site_fract_x
 _atom_site_fract_y
 _atom_site_fract_z
 _atom_site_occupancy
  Rb  Rb0  1  0.98123423  0.01361457  0.14750318  1
  Rb  Rb1  1  0.48113128  0.01368146  0.64743490  1
  Rb  Rb2  1  0.51886330  0.98631615  0.35255541  1
  Rb  Rb3  1  0.01876561  0.98638222  0.85250191  1
  Rb  Rb4  1  0.11918985  0.40666993  0.12491118  1
  Rb  Rb5  1  0.61922720  0.40677471  0.62498869  1
  Rb  Rb6  1  0.38078353  0.59323154  0.37500907  1
  Rb  Rb7  1  0.88081654  0.59334310  0.87508888  1
  Rb  Rb8  1  0.38269443  0.84861852  0.10881284  1
  Rb  Rb9  1  0.88267589  0.84864908  0.60879997  1
  Rb  Rb10  1  0.11733859  0.15136250  0.39120012  1
  Rb  Rb11  1  0.61729012  0.15135550  0.89118678  1
  Rb  Rb12  1  0.70814072  0.62973906  0.11999477  1
  Rb  Rb13  1  0.20817328  0.62980331  0.61997336  1
  Rb  Rb14  1  0.79182288  0.37021639  0.38002336  1
  Rb  Rb15  1  0.29184864  0.37024437  0.88001191  1
  Fe  Fe0  1  0.05065011  0.23994885  0.62547796  1
  Fe  Fe1  1  0.94933510  0.76005794  0.37451997  1
  Fe  Fe2  1  0.55063465  0.23991384  0.12546662  1
  Fe  Fe3  1  0.44937647  0.76006735  0.87452962  1
  O  O0  1  0.32820188  0.12438381  0.03383752  1
  O  O1  1  0.82824501  0.12437401  0.53388804  1
  O  O2  1  0.17175252  0.87564201  0.46611261  1
  O  O3  1  0.67179709  0.87559644  0.96617402  1
  O  O4  1  0.69123651  0.37587541  0.02878543  1
  O  O5  1  0.19121718  0.37586987  0.52883102  1
  O  O6  1  0.80878781  0.62413916  0.47117789  1
  O  O7  1  0.30878634  0.62412940  0.97119611  1
  O  O8  1  0.78112571  0.19985917  0.21203166  1
  O  O9  1  0.28101644  0.19990105  0.71200233  1
  O  O10  1  0.71896591  0.80008719  0.28799078  1
  O  O11  1  0.21890909  0.80016029  0.78797609  1
  O  O12  1  0.09391028  0.74320015  0.27571536  1
  O  O13  1  0.59399341  0.74329319  0.77565979  1
  O  O14  1  0.40599422  0.25671676  0.22433944  1
  O  O15  1  0.90606617  0.25677970  0.72429240  1
loop_
_geom_bond_atom_site_label_1
_geom_bond_atom_site_label_2
_geom_bond_distance
_geom_bond_site_symmetry_2
Fe0 O9 1.798081 1_555
Fe0 O1 1.799052 1_455
Fe0 O5 1.807044 1_555
Fe0 O15 1.807244 1_455
Fe1 O10 1.798040 1_555
Fe1 O2 1.799147 1_655
Fe1 O6 1.807077 1_555
Fe1 O12 1.807204 1_655
Fe2 O8 1.798961 1_555
Fe2 O0 1.799219 1_555
Fe2 O4 1.807611 1_555
Fe2 O14 1.808024 1_555
Fe3 O11 1.798946 1_555
Fe3 O3 1.799290 1_555
Fe3 O7 1.807349 1_555
Fe3 O13 1.807767 1_555
O0 Rb0 2.780792 1_455
O0 Rb11 2.845846 1_554
O0 Rb3 2.860821 1_544
O0 Rb8 2.866635 1_545
O0 Rb15 2.917441 1_554
O1 Rb1 2.780579 1_555
O1 Rb10 2.846200 1_655
O1 Rb2 2.860856 1_545
O1 Rb9 2.865971 1_545
O1 Rb14 2.917671 1_555
O2 Rb2 2.780648 1_555
O2 Rb9 2.846096 1_455
O2 Rb1 2.860692 1_565
O2 Rb10 2.865886 1_565
O2 Rb13 2.917616 1_555
O3 Rb3 2.780850 1_655
O3 Rb8 2.845787 1_556
O3 Rb0 2.860820 1_566
O3 Rb11 2.866638 1_565
O3 Rb12 2.917370 1_556
O4 Rb4 2.740005 1_655
O4 Rb7 2.798611 1_554
O4 Rb15 2.866387 1_554
O4 Rb11 2.880947 1_554
O4 Rb12 2.887097 1_555
O5 Rb5 2.740216 1_555
O5 Rb6 2.799155 1_555
O5 Rb14 2.866569 1_455
O5 Rb10 2.881246 1_555
O5 Rb13 2.887149 1_555
O6 Rb6 2.740209 1_555
O6 Rb5 2.799059 1_555
O6 Rb13 2.866431 1_655
O6 Rb9 2.881172 1_555
O6 Rb14 2.887113 1_555
O7 Rb7 2.740064 1_455
O7 Rb4 2.798767 1_556
O7 Rb12 2.866409 1_556
O7 Rb8 2.880926 1_556
O7 Rb15 2.887038 1_555
O8 Rb4 2.731529 1_655
O8 Rb2 2.863016 1_545
O8 Rb14 2.903095 1_555
O8 Rb10 2.917079 1_655
O8 Rb0 2.932872 1_555
O9 Rb5 2.731738 1_555
O9 Rb3 2.862681 1_545
O9 Rb15 2.902868 1_555
O9 Rb11 2.917612 1_555
O9 Rb1 2.932936 1_555
O10 Rb6 2.731578 1_555
O10 Rb0 2.862672 1_565
O10 Rb12 2.902775 1_555
O10 Rb8 2.917509 1_555
O10 Rb2 2.932936 1_555
O11 Rb7 2.731626 1_455
O11 Rb1 2.862943 1_565
O11 Rb13 2.903118 1_555
O11 Rb9 2.917198 1_455
O11 Rb3 2.932840 1_555
O12 Rb6 2.789386 1_555
O12 Rb12 2.828243 1_455
O12 Rb8 2.991886 1_555
O12 Rb2 3.026092 1_555
O12 Rb0 3.146058 1_465
O13 Rb7 2.789369 1_555
O13 Rb13 2.828249 1_555
O13 Rb9 2.990997 1_555
O13 Rb3 3.025291 1_655
O13 Rb1 3.146422 1_565
O14 Rb4 2.789292 1_555
O14 Rb14 2.828282 1_555
O14 Rb10 2.990886 1_555
O14 Rb0 3.025293 1_455
O14 Rb2 3.146508 1_545
O15 Rb5 2.789423 1_555
O15 Rb15 2.828292 1_655
O15 Rb11 2.991766 1_555
O15 Rb1 3.025989 1_555
O15 Rb3 3.145970 1_645
