# generated using pymatgen
data_SmAl2
_symmetry_space_group_name_H-M   'P 1'
_cell_length_a   5.61540853
_cell_length_b   5.61540966
_cell_length_c   5.61540925
_cell_angle_alpha   60.00000249
_cell_angle_beta   59.99999579
_cell_angle_gamma   59.99999342
_symmetry_Int_Tables_number   1
_chemical_formula_structural   SmAl2
_chemical_formula_sum   'Sm2 Al4'
_cell_volume   125.20716726
_cell_formula_units_Z   2
loop_
 _symmetry_equiv_pos_site_id
 _symmetry_equiv_pos_as_xyz
  1  'x, y, z'
loop_
 _atom_site_type_symbol
 _atom_site_label
 _atom_site_symmetry_multiplicity
 _atom_site_fract_x
 _atom_site_fract_y
 _atom_site_fract_z
 _atom_site_occupancy
  Sm  Sm0  1  0.87500000  0.87500000  0.87500000  1
  Sm  Sm1  1  0.12500000  0.12500000  0.12500000  1
  Al  Al0  1  0.50000000  0.50000000  0.50000000  1
  Al  Al1  1  0.50000000  0.50000000  -0.00000000  1
  Al  Al2  1  0.00000000  0.50000000  0.50000000  1
  Al  Al3  1  0.50000000  -0.00000000  0.50000000  1
loop_
_geom_bond_atom_site_label_1
_geom_bond_atom_site_label_2
_geom_bond_distance
_geom_bond_site_symmetry_2
Sm0 Sm1 3.438721 1_566
Sm0 Sm1 3.438722 1_666
Sm0 Sm1 3.438722 1_665
Sm0 Sm1 3.438722 1_656
Al0 Al2 2.807704 1_555
Al0 Al2 2.807704 1_655
Al0 Al1 2.807705 1_556
Al0 Al1 2.807705 1_555
Al0 Al3 2.807705 1_565
Al0 Al3 2.807705 1_555
Al0 Sm1 3.292325 1_655
Al0 Sm0 3.292325 1_455
Al0 Sm0 3.292325 1_545
Al0 Sm1 3.292325 1_565
Al0 Sm1 3.292326 1_556
Al0 Sm0 3.292326 1_554
Al1 Al2 2.807704 1_654
Al1 Al2 2.807704 1_555
Al1 Al3 2.807705 1_555
Al1 Al3 2.807705 1_564
Al1 Sm1 3.292325 1_655
Al1 Sm0 3.292325 1_454
Al1 Sm0 3.292325 1_544
Al1 Sm1 3.292325 1_565
Al1 Sm0 3.292326 1_554
Al1 Sm1 3.292326 1_555
Al2 Al3 2.807704 1_555
Al2 Al3 2.807704 1_465
Al2 Sm0 3.292326 1_455
Al2 Sm1 3.292326 1_555
Al2 Sm0 3.292326 1_454
Al2 Sm1 3.292326 1_556
Al2 Sm0 3.292326 1_445
Al2 Sm1 3.292326 1_565
Al3 Sm1 3.292325 1_655
Al3 Sm0 3.292325 1_445
Al3 Sm0 3.292325 1_545
Al3 Sm1 3.292325 1_555
Al3 Sm0 3.292325 1_544
Al3 Sm1 3.292325 1_556
