# generated using pymatgen
data_Sr2InPd2
_symmetry_space_group_name_H-M   'P 1'
_cell_length_a   6.05803228
_cell_length_b   6.04504045
_cell_length_c   8.37278286
_cell_angle_alpha   101.75932553
_cell_angle_beta   90.00000000
_cell_angle_gamma   120.07111383
_symmetry_Int_Tables_number   1
_chemical_formula_structural   Sr2InPd2
_chemical_formula_sum   'Sr4 In2 Pd4'
_cell_volume   257.88727576
_cell_formula_units_Z   2
loop_
 _symmetry_equiv_pos_site_id
 _symmetry_equiv_pos_as_xyz
  1  'x, y, z'
loop_
 _atom_site_type_symbol
 _atom_site_label
 _atom_site_symmetry_multiplicity
 _atom_site_fract_x
 _atom_site_fract_y
 _atom_site_fract_z
 _atom_site_occupancy
  Sr  Sr0  1  0.21180989  0.70323553  0.35265646  1
  Sr  Sr1  1  0.50857437  0.29676447  0.14734354  1
  Sr  Sr2  1  0.78819011  0.29676447  0.64734354  1
  Sr  Sr3  1  0.49142563  0.70323553  0.85265646  1
  In  In0  1  0.86702300  -0.00000000  0.25000000  1
  In  In1  1  0.13297700  0.00000000  0.75000000  1
  Pd  Pd0  1  0.99726554  0.26740286  0.00302578  1
  Pd  Pd1  1  0.72986268  0.73259714  0.49697422  1
  Pd  Pd2  1  0.00273446  0.73259714  0.99697422  1
  Pd  Pd3  1  0.27013732  0.26740286  0.50302578  1
loop_
_geom_bond_atom_site_label_1
_geom_bond_atom_site_label_2
_geom_bond_distance
_geom_bond_site_symmetry_2
Sr0 Sr2 3.855265 1_455
Sr0 Sr1 3.863936 1_555
Sr0 Sr1 3.863936 1_455
Sr0 Sr2 3.871666 1_565
Sr0 Sr1 3.887165 1_565
Sr1 Sr3 3.855265 1_554
Sr1 Sr3 3.871666 1_544
Sr2 Sr3 3.863936 1_555
Sr2 Sr3 3.863936 1_655
Sr2 Sr3 3.887165 1_545
In0 Pd0 2.756057 1_555
In0 Pd1 2.756057 1_545
In0 Pd2 2.777232 1_644
In0 Pd3 2.777232 1_655
In0 Sr0 3.564193 1_645
In0 Sr1 3.564193 1_655
In0 Sr0 3.575684 1_655
In0 Sr1 3.575685 1_545
In0 Sr2 3.597266 1_555
In0 Sr3 3.597267 1_544
In0 Sr1 3.633848 1_555
In0 Sr0 3.633849 1_545
In1 Pd2 2.756057 1_545
In1 Pd3 2.756057 1_555
In1 Pd0 2.777232 1_456
In1 Pd1 2.777232 1_445
In1 Sr2 3.564193 1_455
In1 Sr3 3.564193 1_445
In1 Sr2 3.575684 1_445
In1 Sr3 3.575685 1_555
In1 Sr0 3.597266 1_545
In1 Sr1 3.597267 1_556
In1 Sr3 3.633848 1_545
In1 Sr2 3.633849 1_555
Pd0 Pd2 2.806489 1_654
Pd0 Sr3 3.222280 1_544
Pd0 Sr1 3.232316 1_655
Pd0 Pd2 3.239757 1_644
Pd0 Sr0 3.259571 1_655
Pd0 Sr1 3.270378 1_555
Pd0 Sr3 3.306990 1_654
Pd0 Sr2 3.308363 1_554
Pd1 Pd3 2.806490 1_555
Pd1 Sr2 3.222280 1_565
Pd1 Sr0 3.232316 1_655
Pd1 Pd3 3.239757 1_665
Pd1 Sr1 3.259571 1_555
Pd1 Sr0 3.270378 1_555
Pd1 Sr2 3.306990 1_555
Pd1 Sr3 3.308363 1_555
Pd2 Sr1 3.222280 1_566
Pd2 Sr3 3.232316 1_455
Pd2 Sr2 3.259571 1_455
Pd2 Sr3 3.270378 1_555
Pd2 Sr1 3.306990 1_456
Pd2 Sr0 3.308363 1_556
Pd3 Sr0 3.222280 1_545
Pd3 Sr2 3.232316 1_455
Pd3 Sr3 3.259571 1_555
Pd3 Sr2 3.270378 1_555
Pd3 Sr0 3.306990 1_555
Pd3 Sr1 3.308363 1_555
