# generated using pymatgen
data_Ba(TeO3)2
_symmetry_space_group_name_H-M   'P 1'
_cell_length_a   5.59298973
_cell_length_b   7.02254830
_cell_length_c   7.34926111
_cell_angle_alpha   90.00000000
_cell_angle_beta   90.00000000
_cell_angle_gamma   113.46673287
_symmetry_Int_Tables_number   1
_chemical_formula_structural   Ba(TeO3)2
_chemical_formula_sum   'Ba2 Te4 O12'
_cell_volume   264.78280360
_cell_formula_units_Z   2
loop_
 _symmetry_equiv_pos_site_id
 _symmetry_equiv_pos_as_xyz
  1  'x, y, z'
loop_
 _atom_site_type_symbol
 _atom_site_label
 _atom_site_symmetry_multiplicity
 _atom_site_fract_x
 _atom_site_fract_y
 _atom_site_fract_z
 _atom_site_occupancy
  Ba  Ba0  1  0.28077677  0.56155353  0.75000000  1
  Ba  Ba1  1  0.71922323  0.43844647  0.25000000  1
  Te  Te0  1  0.00000000  0.00000000  0.00000000  1
  Te  Te1  1  0.00000000  0.00000000  0.50000000  1
  Te  Te2  1  0.41523583  0.83047166  0.25000000  1
  Te  Te3  1  0.58476417  0.16952834  0.75000000  1
  O  O0  1  0.65893100  0.79056732  0.04503192  1
  O  O1  1  0.86836468  0.20943268  0.95496808  1
  O  O2  1  0.34106900  0.20943268  0.54503192  1
  O  O3  1  0.13163532  0.79056732  0.45496808  1
  O  O4  1  0.34106900  0.20943268  0.95496808  1
  O  O5  1  0.13163532  0.79056732  0.04503192  1
  O  O6  1  0.95304929  0.90609858  0.75000000  1
  O  O7  1  0.04695071  0.09390142  0.25000000  1
  O  O8  1  0.72667431  0.45334663  0.75000000  1
  O  O9  1  0.27332569  0.54665337  0.25000000  1
  O  O10  1  0.86836468  0.20943268  0.54503192  1
  O  O11  1  0.65893100  0.79056732  0.45496808  1
loop_
_geom_bond_atom_site_label_1
_geom_bond_atom_site_label_2
_geom_bond_distance
_geom_bond_site_symmetry_2
Ba0 O8 2.882051 1_455
Ba0 O8 2.882061 1_555
Ba0 O0 3.008671 1_556
Ba0 O11 3.008671 1_555
Ba0 O3 3.008674 1_555
Ba0 O5 3.008674 1_556
Ba0 O1 3.026815 1_455
Ba0 O10 3.026815 1_455
Ba0 O2 3.026818 1_555
Ba0 O4 3.026818 1_555
Ba1 O9 2.882051 1_655
Ba1 O9 2.882061 1_555
Ba1 O2 3.008671 1_555
Ba1 O4 3.008671 1_554
Ba1 O10 3.008674 1_555
Ba1 O1 3.008674 1_554
Ba1 O5 3.026815 1_655
Ba1 O3 3.026815 1_655
Ba1 O11 3.026818 1_555
Ba1 O0 3.026818 1_555
O0 Te0 1.917573 1_665
O0 Te2 2.123578 1_555
O1 Te0 1.917569 1_656
O1 Te3 2.123582 1_555
O2 Te1 1.917573 1_555
O2 Te3 2.123578 1_555
O3 Te1 1.917569 1_565
O3 Te2 2.123582 1_555
O4 Te0 1.917573 1_556
O4 Te3 2.123578 1_555
O5 Te0 1.917569 1_565
O5 Te2 2.123582 1_555
O6 Te0 1.934326 1_666
O6 Te1 1.934326 1_665
O7 Te1 1.934326 1_555
O7 Te0 1.934326 1_555
O8 Te3 1.828279 1_555
O9 Te2 1.828279 1_555
O10 Te1 1.917569 1_655
O10 Te3 2.123582 1_555
O11 Te1 1.917573 1_665
O11 Te2 2.123578 1_555
