# generated using pymatgen
data_BaNdMgMn2O6
_symmetry_space_group_name_H-M   'P 1'
_cell_length_a   5.51760434
_cell_length_b   3.83360349
_cell_length_c   8.01910677
_cell_angle_alpha   90.00000000
_cell_angle_beta   90.00000000
_cell_angle_gamma   90.00000000
_symmetry_Int_Tables_number   1
_chemical_formula_structural   BaNdMgMn2O6
_chemical_formula_sum   'Ba1 Nd1 Mg1 Mn2 O6'
_cell_volume   169.62261030
_cell_formula_units_Z   1
loop_
 _symmetry_equiv_pos_site_id
 _symmetry_equiv_pos_as_xyz
  1  'x, y, z'
loop_
 _atom_site_type_symbol
 _atom_site_label
 _atom_site_symmetry_multiplicity
 _atom_site_fract_x
 _atom_site_fract_y
 _atom_site_fract_z
 _atom_site_occupancy
  Ba  Ba0  1  0.00000000  0.00000000  0.49999900  1
  Nd  Nd0  1  0.00000000  0.00000000  0.00000000  1
  Mg  Mg0  1  0.50000000  0.00000000  0.50000000  1
  Mn  Mn0  1  0.50000100  0.50000100  0.76951869  1
  Mn  Mn1  1  0.50000100  0.50000100  0.23048131  1
  O  O0  1  0.50000100  0.50000100  0.00000000  1
  O  O1  1  0.00000000  0.50000100  0.79155554  1
  O  O2  1  0.50000100  0.00000000  0.73596050  1
  O  O3  1  0.00000000  0.50000100  0.20844446  1
  O  O4  1  0.50000100  0.50000100  0.49999900  1
  O  O5  1  0.50000100  0.00000000  0.26403950  1
loop_
_geom_bond_atom_site_label_1
_geom_bond_atom_site_label_2
_geom_bond_distance
_geom_bond_site_symmetry_2
Ba0 Mg0 2.758802 1_455
Ba0 Mg0 2.758802 1_555
Ba0 O3 3.023308 1_545
Ba0 O3 3.023313 1_555
Ba0 O1 3.023320 1_545
Ba0 O1 3.023325 1_555
Nd0 O1 2.543257 1_544
Nd0 O3 2.543257 1_545
Nd0 O1 2.543263 1_554
Nd0 O3 2.543263 1_555
Mg0 O2 1.892192 1_555
Mg0 O5 1.892192 1_555
Mg0 O4 1.916798 1_545
Mg0 O4 1.916806 1_555
Mn0 O0 1.848254 1_556
Mn0 O2 1.935596 1_565
Mn0 O2 1.935604 1_555
Mn0 O4 2.161307 1_555
Mn0 O1 2.764451 1_655
Mn0 O1 2.764462 1_555
Mn1 O0 1.848254 1_555
Mn1 O5 1.935596 1_565
Mn1 O5 1.935604 1_555
Mn1 O4 2.161291 1_555
Mn1 O3 2.764451 1_655
Mn1 O3 2.764462 1_555
