# generated using pymatgen
data_Na3Al2Zn2PS5O24
_symmetry_space_group_name_H-M   'P 1'
_cell_length_a   8.58619833
_cell_length_b   8.56926961
_cell_length_c   21.94919932
_cell_angle_alpha   90.20496891
_cell_angle_beta   89.67384763
_cell_angle_gamma   119.93017684
_symmetry_Int_Tables_number   1
_chemical_formula_structural   Na3Al2Zn2PS5O24
_chemical_formula_sum   'Na9 Al6 Zn6 P3 S15 O72'
_cell_volume   1399.56146626
_cell_formula_units_Z   3
loop_
 _symmetry_equiv_pos_site_id
 _symmetry_equiv_pos_as_xyz
  1  'x, y, z'
loop_
 _atom_site_type_symbol
 _atom_site_label
 _atom_site_symmetry_multiplicity
 _atom_site_fract_x
 _atom_site_fract_y
 _atom_site_fract_z
 _atom_site_occupancy
  Na  Na0  1  0.36325990  0.99399468  0.74908163  1
  Na  Na1  1  0.66440996  0.95978214  0.58716801  1
  Na  Na2  1  0.67009068  0.70598231  0.08242848  1
  Na  Na3  1  0.01998505  0.00197209  0.50100149  1
  Na  Na4  1  0.01281788  0.00454142  0.00079589  1
  Na  Na5  1  0.67885004  0.33947016  0.83419966  1
  Na  Na6  1  0.66673515  0.33349170  0.33376843  1
  Na  Na7  1  0.31238100  0.66397724  0.16777294  1
  Na  Na8  1  0.32843001  0.65569238  0.66697932  1
  Al  Al0  1  0.00169032  0.00122856  0.34925365  1
  Al  Al1  1  0.99059121  0.00121230  0.84895311  1
  Al  Al2  1  0.66786940  0.32654214  0.68567321  1
  Al  Al3  1  0.67521433  0.33737595  0.18640469  1
  Al  Al4  1  0.67308954  0.33900975  0.98275230  1
  Al  Al5  1  0.65807788  0.32871943  0.48210068  1
  Zn  Zn0  1  0.00537634  0.00006357  0.64778612  1
  Zn  Zn1  1  0.00763760  0.99671750  0.14761476  1
  Zn  Zn2  1  0.31355127  0.66425561  0.01675697  1
  Zn  Zn3  1  0.32593055  0.67091048  0.51620152  1
  Zn  Zn4  1  0.33108390  0.66548331  0.31916089  1
  Zn  Zn5  1  0.34347324  0.67003561  0.81934637  1
  P  P0  1  0.71204499  0.00426151  0.74766867  1
  P  P1  1  0.37853348  0.04908304  0.58367786  1
  P  P2  1  0.95286171  0.61516728  0.08417010  1
  S  S0  1  0.29821832  0.00634369  0.25010123  1
  S  S1  1  0.70779494  0.70433677  0.24953855  1
  S  S2  1  0.99488370  0.28754077  0.24945391  1
  S  S3  1  0.29334611  0.29358614  0.75014401  1
  S  S4  1  0.99127460  0.70214870  0.75061037  1
  S  S5  1  0.95222028  0.33989206  0.58218494  1
  S  S6  1  0.66496543  0.61049218  0.58337021  1
  S  S7  1  0.66585936  0.05287565  0.08346688  1
  S  S8  1  0.38441835  0.33051772  0.08353638  1
  S  S9  1  0.63732780  0.66670914  0.91833955  1
  S  S10  1  0.03110369  0.36284720  0.91618705  1
  S  S11  1  0.33273873  0.97509232  0.91576545  1
  S  S12  1  0.63998196  0.97110436  0.41680097  1
  S  S13  1  0.33235636  0.36458756  0.41643082  1
  S  S14  1  0.02680996  0.66619907  0.41603340  1
  O  O0  1  0.20831878  0.03390758  0.30460924  1
  O  O1  1  0.82778188  0.79727505  0.30261441  1
  O  O2  1  0.96930120  0.17331967  0.30439259  1
  O  O3  1  0.20780242  0.17014264  0.80388593  1
  O  O4  1  0.96646654  0.79134485  0.80562672  1
  O  O5  1  0.83207215  0.02997303  0.80344190  1
  O  O6  1  0.78566729  0.97359919  0.68789584  1
  O  O7  1  0.19119933  0.21776388  0.69427102  1
  O  O8  1  0.03315409  0.81487760  0.69584956  1
  O  O9  1  0.78048357  0.80611808  0.19227174  1
  O  O10  1  0.02253328  0.20922540  0.19373610  1
  O  O11  1  0.19301259  0.97524918  0.19446015  1
  O  O12  1  0.86643759  0.35982880  0.63878298  1
  O  O13  1  0.49367150  0.13582632  0.64257986  1
  O  O14  1  0.64985971  0.50592988  0.63919358  1
  O  O15  1  0.85877944  0.50413824  0.14189211  1
  O  O16  1  0.64219604  0.13687709  0.13942568  1
  O  O17  1  0.49397170  0.35344102  0.13899446  1
  O  O18  1  0.47097159  0.30933073  0.02762198  1
  O  O19  1  0.83410222  0.52522545  0.02743545  1
  O  O20  1  0.68204429  0.15741840  0.02782460  1
  O  O21  1  0.47691518  0.16233365  0.52713931  1
  O  O22  1  0.68590179  0.52534712  0.52748450  1
  O  O23  1  0.84115936  0.31814034  0.52759387  1
  O  O24  1  0.56252043  0.70138711  0.97446967  1
  O  O25  1  0.14264038  0.43532935  0.97102686  1
  O  O26  1  0.29667727  0.85986583  0.96943345  1
  O  O27  1  0.56942557  0.86293122  0.47326078  1
  O  O28  1  0.29576843  0.44027777  0.47144853  1
  O  O29  1  0.13889738  0.70626063  0.47078560  1
  O  O30  1  0.10187578  0.62688824  0.36170793  1
  O  O31  1  0.52319530  0.89187451  0.36388095  1
  O  O32  1  0.36936010  0.47615563  0.36179727  1
  O  O33  1  0.10684139  0.47674260  0.86202724  1
  O  O34  1  0.36947923  0.90249286  0.85955166  1
  O  O35  1  0.52362608  0.63044458  0.86464633  1
  O  O36  1  0.00677536  0.82910758  0.40574746  1
  O  O37  1  0.82188347  0.99095571  0.40608510  1
  O  O38  1  0.17073251  0.18044603  0.40692656  1
  O  O39  1  0.01027299  0.17952207  0.90679914  1
  O  O40  1  0.17023666  0.99477524  0.90665711  1
  O  O41  1  0.81992647  0.82879386  0.90853198  1
  O  O42  1  0.96296815  0.17273627  0.58423915  1
  O  O43  1  0.19345711  0.03267037  0.58656584  1
  O  O44  1  0.82504839  0.79346082  0.58486194  1
  O  O45  1  0.96563826  0.80253809  0.08601923  1
  O  O46  1  0.83007797  0.03707577  0.08587047  1
  O  O47  1  0.20442528  0.17135948  0.08643863  1
  O  O48  1  0.69331185  0.17846047  0.74355849  1
  O  O49  1  0.47581785  0.30746597  0.74533159  1
  O  O50  1  0.82348088  0.52505732  0.74365563  1
  O  O51  1  0.69475379  0.52278110  0.24527543  1
  O  O52  1  0.82528765  0.29867270  0.24520872  1
  O  O53  1  0.47841866  0.17501444  0.24434822  1
  O  O54  1  0.65841752  0.50418909  0.92557166  1
  O  O55  1  0.84672547  0.33893804  0.92548489  1
  O  O56  1  0.49496833  0.15693755  0.92555961  1
  O  O57  1  0.66349322  0.15578356  0.42515147  1
  O  O58  1  0.49407075  0.34240286  0.42465936  1
  O  O59  1  0.84365630  0.50581605  0.42586825  1
  O  O60  1  0.37447263  0.49842821  0.07977045  1
  O  O61  1  0.13833975  0.63173894  0.08085190  1
  O  O62  1  0.50682852  0.86888469  0.08010547  1
  O  O63  1  0.36844623  0.86294726  0.58022128  1
  O  O64  1  0.50112492  0.62698660  0.58076858  1
  O  O65  1  0.13143742  0.49982599  0.57898796  1
  O  O66  1  0.32258737  0.84926134  0.25813292  1
  O  O67  1  0.52750924  0.68127241  0.25783234  1
  O  O68  1  0.15091217  0.46965697  0.25673445  1
  O  O69  1  0.31484592  0.47239431  0.75877765  1
  O  O70  1  0.14826510  0.67652156  0.75873206  1
  O  O71  1  0.51862395  0.84326028  0.75559466  1
loop_
_geom_bond_atom_site_label_1
_geom_bond_atom_site_label_2
_geom_bond_distance
_geom_bond_site_symmetry_2
Na0 O71 2.278453 1_555
Na0 O49 2.359373 1_565
Na0 O70 2.417017 1_555
Na0 O48 2.464071 1_565
Na0 O34 2.560047 1_555
Na0 O13 2.613041 1_565
Na0 O8 2.727316 1_555
Na0 O3 2.736130 1_565
Na1 O63 2.251398 1_555
Na1 O42 2.288346 1_565
Na1 O6 2.426390 1_555
Na1 O44 2.428302 1_555
Na1 O64 2.475430 1_555
Na1 O27 2.633957 1_555
Na2 O45 2.244319 1_555
Na2 O60 2.259517 1_555
Na2 O62 2.422886 1_555
Na2 O46 2.460286 1_565
Na2 O24 2.541186 1_554
Na2 O9 2.578201 1_555
Na2 O19 2.825477 1_555
Na2 O17 2.898543 1_555
Na3 O43 2.334988 1_555
Na3 O38 2.508952 1_555
Na3 O44 2.527108 1_445
Na3 O36 2.528102 1_545
Na3 O42 2.530706 1_455
Na3 O37 2.668541 1_445
Na4 O47 2.439850 1_555
Na4 O45 2.444262 1_445
Na4 O40 2.486609 1_544
Na4 O46 2.534943 1_455
Na4 O39 2.561404 1_554
Na4 O41 2.576738 1_444
Na5 O48 2.454733 1_555
Na5 O50 2.458602 1_555
Na5 O55 2.476238 1_555
Na5 O54 2.503641 1_555
Na5 O49 2.544954 1_555
Na5 O56 2.546085 1_555
Na6 O51 2.467699 1_555
Na6 O52 2.468160 1_555
Na6 O53 2.477248 1_555
Na6 O58 2.502378 1_555
Na6 O57 2.514334 1_555
Na6 O59 2.519898 1_555
Na7 O61 2.359242 1_555
Na7 O68 2.489263 1_555
Na7 O66 2.510543 1_555
Na7 O62 2.575948 1_555
Na7 O60 2.598300 1_555
Na7 O67 2.666014 1_555
Na8 O65 2.477761 1_555
Na8 O64 2.483651 1_555
Na8 O63 2.511249 1_555
Na8 O69 2.525425 1_555
Na8 O71 2.535347 1_555
Na8 O70 2.591937 1_555
Al0 O2 1.909026 1_455
Al0 O0 1.916417 1_555
Al0 O1 1.931988 1_445
Al0 O37 1.946922 1_445
Al0 O36 1.947546 1_545
Al0 O38 1.962222 1_555
Al1 O5 1.806411 1_555
Al1 O39 1.925164 1_655
Al1 O4 1.949313 1_545
Al1 O3 1.961501 1_655
Al1 O41 1.967714 1_545
Al1 O40 2.023381 1_645
Al2 O13 1.835344 1_555
Al2 O12 1.882628 1_555
Al2 O48 1.887734 1_555
Al2 O14 1.917805 1_555
Al2 O50 2.008604 1_555
Al2 O49 2.041697 1_555
Al3 O15 1.796036 1_555
Al3 O16 1.897420 1_555
Al3 O17 1.938244 1_555
Al3 O52 1.970977 1_555
Al3 O51 1.985919 1_555
Al3 O53 2.012627 1_555
Al4 O19 1.795087 1_556
Al4 O20 1.880788 1_556
Al4 O18 1.894259 1_556
Al4 O55 1.944803 1_555
Al4 O54 1.946038 1_555
Al4 O56 1.993961 1_555
Al5 O21 1.791417 1_555
Al5 O22 1.864793 1_555
Al5 O23 1.907125 1_555
Al5 O58 1.942269 1_555
Al5 O57 1.953359 1_555
Al5 O59 1.985800 1_555
O0 S0 1.500802 1_555
O1 S1 1.497024 1_555
O2 S2 1.500422 1_555
O3 S3 1.507861 1_555
O4 S4 1.496912 1_555
O5 P0 1.547608 1_555
O6 P0 1.530923 1_565
O6 Zn0 1.985158 1_665
O7 S3 1.460566 1_555
O7 Zn0 2.025245 1_555
O8 S4 1.471028 1_455
O8 Zn0 2.020055 1_565
O9 S1 1.478480 1_555
O9 Zn1 2.059925 1_655
O10 S2 1.467034 1_455
O10 Zn1 2.028105 1_545
O11 S0 1.465791 1_565
O11 Zn1 1.984103 1_555
O12 S5 1.492845 1_555
O13 P1 1.573436 1_555
O14 S6 1.486964 1_555
O15 P2 1.546923 1_555
O16 S7 1.484862 1_555
O17 S8 1.494010 1_555
O18 S8 1.487994 1_555
O19 P2 1.551730 1_555
O20 S7 1.481592 1_555
O21 P1 1.540789 1_555
O22 S6 1.480307 1_555
O23 S5 1.487910 1_555
O24 S9 1.482418 1_555
O24 Zn2 2.198470 1_556
O25 S10 1.471734 1_555
O25 Zn2 2.034535 1_556
O26 S11 1.468857 1_555
O26 Zn2 2.041128 1_556
O27 S12 1.483677 1_555
O27 Zn3 2.126658 1_555
O28 S13 1.473458 1_555
O28 Zn3 2.101475 1_555
O29 S14 1.472699 1_555
O29 Zn3 2.042110 1_555
O30 S14 1.468249 1_555
O30 Zn4 2.046070 1_555
O31 S12 1.464214 1_555
O31 Zn4 2.063853 1_555
O32 S13 1.467559 1_555
O32 Zn4 2.040199 1_555
O33 S10 1.467915 1_555
O33 Zn5 2.092952 1_555
O34 S11 1.481504 1_555
O34 Zn5 2.083854 1_555
O35 S9 1.465032 1_555
O35 Zn5 2.009977 1_555
O36 S14 1.507226 1_555
O37 S12 1.501529 1_555
O38 S13 1.508329 1_555
O39 S10 1.503360 1_555
O40 S11 1.501156 1_555
O41 S9 1.502952 1_555
O42 S5 1.481467 1_555
O42 Zn0 2.196752 1_655
O43 P1 1.524774 1_555
O43 Zn0 2.004820 1_555
O44 S6 1.482656 1_555
O44 Zn0 2.170420 1_665
O45 P2 1.554203 1_555
O45 Zn1 2.029127 1_655
O46 S7 1.483460 1_555
O46 Zn1 2.198541 1_645
O47 S8 1.465873 1_555
O47 Zn1 2.088747 1_545
O48 P0 1.582107 1_555
O49 S3 1.514010 1_555
O50 S4 1.490305 1_555
O51 S1 1.505670 1_555
O52 S2 1.509464 1_555
O53 S0 1.505481 1_555
O54 S9 1.500368 1_555
O55 S10 1.504264 1_655
O56 S11 1.499911 1_545
O57 S12 1.502799 1_545
O58 S13 1.504405 1_555
O59 S14 1.500011 1_655
O60 S8 1.485940 1_555
O60 Zn2 2.229329 1_555
O61 P2 1.527995 1_455
O61 Zn2 1.969884 1_555
O62 S7 1.485867 1_565
O62 Zn2 2.206163 1_555
O63 P1 1.555245 1_565
O63 Zn3 2.050776 1_555
O64 S6 1.483787 1_555
O64 Zn3 2.237405 1_555
O65 S5 1.464956 1_455
O65 Zn3 2.093432 1_555
O66 S0 1.473080 1_565
O66 Zn4 2.100145 1_555
O67 S1 1.469747 1_555
O67 Zn4 2.102977 1_555
O68 S2 1.473137 1_455
O68 Zn4 2.122219 1_555
O69 S3 1.460773 1_555
O69 Zn5 2.066018 1_555
O70 S4 1.481684 1_455
O70 Zn5 2.168253 1_555
O71 P0 1.550425 1_565
O71 Zn5 2.046071 1_555
