# generated using pymatgen
data_GdInPt2
_symmetry_space_group_name_H-M   'P 1'
_cell_length_a   4.57075560
_cell_length_b   4.57075614
_cell_length_c   9.08077857
_cell_angle_alpha   90.00000000
_cell_angle_beta   90.00000000
_cell_angle_gamma   119.99998872
_symmetry_Int_Tables_number   1
_chemical_formula_structural   GdInPt2
_chemical_formula_sum   'Gd2 In2 Pt4'
_cell_volume   164.29706981
_cell_formula_units_Z   2
loop_
 _symmetry_equiv_pos_site_id
 _symmetry_equiv_pos_as_xyz
  1  'x, y, z'
loop_
 _atom_site_type_symbol
 _atom_site_label
 _atom_site_symmetry_multiplicity
 _atom_site_fract_x
 _atom_site_fract_y
 _atom_site_fract_z
 _atom_site_occupancy
  Gd  Gd0  1  0.66666700  0.33333300  0.75000000  1
  Gd  Gd1  1  0.33333300  0.66666700  0.25000000  1
  In  In0  1  0.00000000  0.00000000  0.50000000  1
  In  In1  1  0.00000000  0.00000000  0.00000000  1
  Pt  Pt0  1  0.66666700  0.33333300  0.08999049  1
  Pt  Pt1  1  0.33333300  0.66666700  0.91000951  1
  Pt  Pt2  1  0.33333300  0.66666700  0.58999049  1
  Pt  Pt3  1  0.66666700  0.33333300  0.41000951  1
loop_
_geom_bond_atom_site_label_1
_geom_bond_atom_site_label_2
_geom_bond_distance
_geom_bond_site_symmetry_2
Gd0 Pt2 3.012501 1_655
Gd0 Pt1 3.012501 1_655
Gd0 Pt1 3.012502 1_545
Gd0 Pt2 3.012502 1_545
Gd0 Pt1 3.012508 1_555
Gd0 Pt2 3.012508 1_555
Gd0 Pt0 3.087378 1_556
Gd0 Pt3 3.087378 1_555
Gd0 In0 3.481049 1_655
Gd0 In1 3.481049 1_656
Gd0 In0 3.481053 1_555
Gd0 In1 3.481053 1_556
Gd0 In0 3.481053 1_665
Gd0 In1 3.481053 1_666
Gd1 Pt0 3.012501 1_455
Gd1 Pt3 3.012501 1_455
Gd1 Pt0 3.012502 1_565
Gd1 Pt3 3.012502 1_565
Gd1 Pt0 3.012508 1_555
Gd1 Pt3 3.012508 1_555
Gd1 Pt1 3.087378 1_554
Gd1 Pt2 3.087378 1_555
Gd1 In1 3.481049 1_565
Gd1 In0 3.481049 1_565
Gd1 In0 3.481053 1_665
Gd1 In1 3.481053 1_665
Gd1 In0 3.481053 1_555
Gd1 In1 3.481053 1_555
In0 Pt3 2.762555 1_455
In0 Pt2 2.762555 1_545
In0 Pt3 2.762559 1_555
In0 Pt2 2.762559 1_445
In0 Pt3 2.762560 1_445
In0 Pt2 2.762560 1_555
In1 Pt0 2.762555 1_455
In1 Pt1 2.762555 1_544
In1 Pt1 2.762559 1_444
In1 Pt0 2.762559 1_555
In1 Pt1 2.762560 1_554
In1 Pt0 2.762560 1_445
Pt0 Pt3 2.906022 1_555
Pt0 Pt1 3.104043 1_654
Pt0 Pt1 3.104043 1_544
Pt0 Pt1 3.104049 1_554
Pt1 Pt2 2.906022 1_555
Pt2 Pt3 3.104043 1_455
Pt2 Pt3 3.104043 1_565
Pt2 Pt3 3.104049 1_555
