# generated using pymatgen
data_Na5Mn3F14
_symmetry_space_group_name_H-M   'P 1'
_cell_length_a   7.54956500
_cell_length_b   12.30817500
_cell_length_c   12.62920400
_cell_angle_alpha   90.00000000
_cell_angle_beta   90.00000000
_cell_angle_gamma   90.00000000
_symmetry_Int_Tables_number   1
_chemical_formula_structural   Na5Mn3F14
_chemical_formula_sum   'Na20 Mn12 F56'
_cell_volume   1173.52290225
_cell_formula_units_Z   4
loop_
 _symmetry_equiv_pos_site_id
 _symmetry_equiv_pos_as_xyz
  1  'x, y, z'
loop_
 _atom_site_type_symbol
 _atom_site_label
 _atom_site_symmetry_multiplicity
 _atom_site_fract_x
 _atom_site_fract_y
 _atom_site_fract_z
 _atom_site_occupancy
  Na  Na0  1  0.82377600  0.75792500  0.42055500  1
  Na  Na1  1  0.17622400  0.25792500  0.57944500  1
  Na  Na2  1  0.67622400  0.75792500  0.92055500  1
  Na  Na3  1  0.32377600  0.25792500  0.07944500  1
  Na  Na4  1  0.73236300  0.99736600  0.22916200  1
  Na  Na5  1  0.26763700  0.49736600  0.77083800  1
  Na  Na6  1  0.76763700  0.99736600  0.72916200  1
  Na  Na7  1  0.23236300  0.49736600  0.27083800  1
  Na  Na8  1  0.79741800  0.25320400  0.07744900  1
  Na  Na9  1  0.20258200  0.75320400  0.92255100  1
  Na  Na10  1  0.70258200  0.25320400  0.57744900  1
  Na  Na11  1  0.29741800  0.75320400  0.42255100  1
  Na  Na12  1  0.72109400  0.49984500  0.23737700  1
  Na  Na13  1  0.27890600  0.99984500  0.76262300  1
  Na  Na14  1  0.77890600  0.49984500  0.73737700  1
  Na  Na15  1  0.22109400  0.99984500  0.26262300  1
  Na  Na16  1  0.02750400  0.03459200  0.02033000  1
  Na  Na17  1  0.97249600  0.53459200  0.97967000  1
  Na  Na18  1  0.47249600  0.03459200  0.52033000  1
  Na  Na19  1  0.52750400  0.53459200  0.47967000  1
  Mn  Mn0  1  0.50026300  0.24558000  0.33557400  1
  Mn  Mn1  1  0.49973700  0.74558000  0.66442600  1
  Mn  Mn2  1  0.99973700  0.24558000  0.83557400  1
  Mn  Mn3  1  0.00026300  0.74558000  0.16442600  1
  Mn  Mn4  1  0.99659500  0.49975100  0.50203500  1
  Mn  Mn5  1  0.00340500  0.99975100  0.49796500  1
  Mn  Mn6  1  0.50340500  0.49975100  0.00203500  1
  Mn  Mn7  1  0.49659500  0.99975100  0.99796500  1
  Mn  Mn8  1  0.99999600  0.24662200  0.31190500  1
  Mn  Mn9  1  0.00000400  0.74662200  0.68809500  1
  Mn  Mn10  1  0.50000400  0.24662200  0.81190500  1
  Mn  Mn11  1  0.49999600  0.74662200  0.18809500  1
  F  F0  1  0.42002300  0.36024800  0.92352600  1
  F  F1  1  0.57997700  0.86024800  0.07647400  1
  F  F2  1  0.07997700  0.36024800  0.42352600  1
  F  F3  1  0.92002300  0.86024800  0.57647400  1
  F  F4  1  0.57468200  0.25172200  0.19401200  1
  F  F5  1  0.42531800  0.75172200  0.80598800  1
  F  F6  1  0.92531800  0.25172200  0.69401200  1
  F  F7  1  0.07468200  0.75172200  0.30598800  1
  F  F8  1  0.13143000  0.44751400  0.61676100  1
  F  F9  1  0.86857000  0.94751400  0.38323900  1
  F  F10  1  0.36857000  0.44751400  0.11676100  1
  F  F11  1  0.63143000  0.94751400  0.88323900  1
  F  F12  1  0.26993700  0.74450700  0.11502600  1
  F  F13  1  0.73006300  0.24450700  0.88497400  1
  F  F14  1  0.23006300  0.74450700  0.61502600  1
  F  F15  1  0.76993700  0.24450700  0.38497400  1
  F  F16  1  0.45909500  0.62924800  0.30041600  1
  F  F17  1  0.54090500  0.12924800  0.69958400  1
  F  F18  1  0.04090500  0.62924800  0.80041600  1
  F  F19  1  0.95909500  0.12924800  0.19958400  1
  F  F20  1  0.71375300  0.43761200  0.05869800  1
  F  F21  1  0.28624700  0.93761200  0.94130200  1
  F  F22  1  0.78624700  0.43761200  0.55869800  1
  F  F23  1  0.21375300  0.93761200  0.44130200  1
  F  F24  1  0.20059100  0.56815400  0.44574900  1
  F  F25  1  0.79940900  0.06815400  0.55425100  1
  F  F26  1  0.29940900  0.56815400  0.94574900  1
  F  F27  1  0.70059100  0.06815400  0.05425100  1
  F  F28  1  0.43547900  0.85698500  0.28044600  1
  F  F29  1  0.56452100  0.35698500  0.71955400  1
  F  F30  1  0.06452100  0.85698500  0.78044600  1
  F  F31  1  0.93547900  0.35698500  0.21955400  1
  F  F32  1  0.74548100  0.75601100  0.24119000  1
  F  F33  1  0.25451900  0.25601100  0.75881000  1
  F  F34  1  0.75451900  0.75601100  0.74119000  1
  F  F35  1  0.24548100  0.25601100  0.25881000  1
  F  F36  1  0.56124300  0.73299900  0.51789100  1
  F  F37  1  0.43875700  0.23299900  0.48210900  1
  F  F38  1  0.93875700  0.73299900  0.01789100  1
  F  F39  1  0.06124300  0.23299900  0.98210900  1
  F  F40  1  0.65168900  0.55977000  0.89542100  1
  F  F41  1  0.34831100  0.05977000  0.10457900  1
  F  F42  1  0.84831100  0.55977000  0.39542100  1
  F  F43  1  0.15168900  0.05977000  0.60457900  1
  F  F44  1  0.49753200  0.09110200  0.33204500  1
  F  F45  1  0.50246800  0.59110200  0.66795500  1
  F  F46  1  0.00246800  0.09110200  0.83204500  1
  F  F47  1  0.99753200  0.59110200  0.16795500  1
  F  F48  1  0.00167500  0.89981900  0.15303600  1
  F  F49  1  0.99832500  0.39981900  0.84696400  1
  F  F50  1  0.49832500  0.89981900  0.65303600  1
  F  F51  1  0.50167500  0.39981900  0.34696400  1
  F  F52  1  0.92010500  0.63972500  0.59301300  1
  F  F53  1  0.07989500  0.13972500  0.40698700  1
  F  F54  1  0.57989500  0.63972500  0.09301300  1
  F  F55  1  0.42010500  0.13972500  0.90698700  1
loop_
_geom_bond_atom_site_label_1
_geom_bond_atom_site_label_2
_geom_bond_distance
_geom_bond_site_symmetry_2
F0 Mn10 2.075498 1_555
F0 Mn6 2.080273 1_556
F0 Na3 2.447770 1_556
F0 Na5 2.808953 1_555
F1 Mn11 2.075498 1_555
F1 Mn7 2.080273 1_554
F1 Na2 2.447770 1_554
F1 Na4 2.808953 1_555
F2 Mn8 2.075498 1_455
F2 Mn4 2.080273 1_455
F2 Na1 2.447770 1_555
F2 Na7 2.808953 1_555
F3 Mn9 2.075498 1_655
F3 Mn5 2.080273 1_655
F3 Na0 2.447770 1_555
F3 Na6 2.808953 1_555
F4 Mn0 1.875541 1_555
F4 Na8 2.234961 1_555
F4 Na3 2.384834 1_555
F5 Mn1 1.875541 1_555
F5 Na9 2.234961 1_555
F5 Na2 2.384834 1_555
F6 Mn2 1.875541 1_555
F6 Na10 2.234961 1_555
F6 Na1 2.384834 1_655
F7 Mn3 1.875541 1_555
F7 Na11 2.234961 1_555
F7 Na0 2.384834 1_455
F8 Mn4 1.883851 1_455
F8 Na5 2.284799 1_555
F8 Na1 2.404507 1_555
F9 Mn5 1.883851 1_655
F9 Na4 2.284799 1_555
F9 Na0 2.404507 1_555
F10 Mn6 1.883851 1_555
F10 Na7 2.284799 1_555
F10 Na3 2.404507 1_555
F11 Mn7 1.883851 1_555
F11 Na6 2.284799 1_555
F11 Na2 2.404507 1_555
F12 Mn11 1.966946 1_555
F12 Mn3 2.129408 1_555
F12 Na9 2.485729 1_554
F13 Mn10 1.966946 1_555
F13 Mn2 2.129408 1_555
F13 Na8 2.485729 1_556
F14 Mn9 1.966946 1_555
F14 Mn1 2.129408 1_555
F14 Na11 2.485729 1_555
F15 Mn8 1.966946 1_555
F15 Mn0 2.129408 1_555
F15 Na10 2.485729 1_555
F16 Mn11 2.048073 1_555
F16 Na7 2.388392 1_555
F16 Na11 2.489322 1_555
F16 Na19 2.597884 1_555
F16 Na12 2.661384 1_555
F17 Mn10 2.048073 1_555
F17 Na6 2.388392 1_545
F17 Na10 2.489322 1_555
F17 Na18 2.597884 1_555
F17 Na13 2.661384 1_545
F18 Mn9 2.048073 1_555
F18 Na5 2.388392 1_555
F18 Na9 2.489322 1_555
F18 Na17 2.597884 1_455
F18 Na14 2.661384 1_455
F19 Mn8 2.048073 1_555
F19 Na4 2.388392 1_545
F19 Na8 2.489322 1_555
F19 Na16 2.597884 1_655
F19 Na15 2.661384 1_645
F20 Mn6 1.902341 1_555
F20 Na8 2.367846 1_555
F20 Na12 2.383676 1_555
F20 Na17 2.497334 1_554
F21 Mn7 1.902341 1_555
F21 Na9 2.367846 1_555
F21 Na13 2.383676 1_555
F21 Na16 2.497334 1_566
F22 Mn4 1.902341 1_555
F22 Na10 2.367846 1_555
F22 Na14 2.383676 1_555
F22 Na19 2.497334 1_555
F23 Mn5 1.902341 1_555
F23 Na11 2.367846 1_555
F23 Na15 2.383676 1_555
F23 Na18 2.497334 1_565
F24 Mn4 1.893667 1_455
F24 Na7 2.386686 1_555
F24 Na11 2.409935 1_555
F24 Na19 2.538787 1_555
F25 Mn5 1.893667 1_645
F25 Na6 2.386686 1_545
F25 Na10 2.409935 1_555
F25 Na18 2.538787 1_555
F26 Mn6 1.893667 1_556
F26 Na5 2.386686 1_555
F26 Na9 2.409935 1_555
F26 Na17 2.538787 1_455
F27 Mn7 1.893667 1_544
F27 Na4 2.386686 1_545
F27 Na8 2.409935 1_555
F27 Na16 2.538787 1_655
F28 Mn11 1.855453 1_555
F28 Na15 2.400423 1_555
F28 Na11 2.436981 1_555
F29 Mn10 1.855453 1_555
F29 Na14 2.400423 1_555
F29 Na10 2.436981 1_555
F30 Mn9 1.855453 1_555
F30 Na13 2.400423 1_555
F30 Na9 2.436981 1_555
F31 Mn8 1.855453 1_555
F31 Na12 2.400423 1_555
F31 Na8 2.436981 1_555
F32 Mn11 1.974266 1_555
F32 Mn3 2.157818 1_655
F32 Na0 2.341206 1_555
F33 Mn10 1.974266 1_555
F33 Mn2 2.157818 1_455
F33 Na1 2.341206 1_555
F34 Mn9 1.974266 1_655
F34 Mn1 2.157818 1_555
F34 Na2 2.341206 1_555
F35 Mn8 1.974266 1_455
F35 Mn0 2.157818 1_555
F35 Na3 2.341206 1_555
F36 Mn1 1.914259 1_555
F36 Na11 2.340673 1_555
F36 Na0 2.352362 1_555
F36 Na19 2.502275 1_555
F37 Mn0 1.914259 1_555
F37 Na10 2.340673 1_555
F37 Na1 2.352362 1_555
F37 Na18 2.502275 1_555
F38 Mn3 1.914259 1_655
F38 Na9 2.340673 1_654
F38 Na2 2.352362 1_554
F38 Na17 2.502275 1_554
F39 Mn2 1.914259 1_455
F39 Na8 2.340673 1_456
F39 Na3 2.352362 1_556
F39 Na16 2.502275 1_556
F40 Mn6 1.900494 1_556
F40 Na14 2.334595 1_555
F40 Na2 2.466461 1_555
F40 Na17 2.663453 1_555
F41 Mn7 1.900494 1_544
F41 Na15 2.334595 1_545
F41 Na3 2.466461 1_555
F41 Na16 2.663453 1_555
F42 Mn4 1.900494 1_555
F42 Na12 2.334595 1_555
F42 Na0 2.466461 1_555
F42 Na19 2.663453 1_555
F43 Mn5 1.900494 1_545
F43 Na13 2.334595 1_545
F43 Na1 2.466461 1_555
F43 Na18 2.663453 1_555
F44 Mn0 1.901976 1_555
F44 Na4 2.482419 1_545
F44 Na18 2.484724 1_555
F44 Na15 2.527012 1_545
F45 Mn1 1.901976 1_555
F45 Na5 2.482419 1_555
F45 Na19 2.484724 1_555
F45 Na14 2.527012 1_555
F46 Mn2 1.901976 1_455
F46 Na6 2.482419 1_445
F46 Na16 2.484724 1_556
F46 Na13 2.527012 1_545
F47 Mn3 1.901976 1_655
F47 Na7 2.482419 1_655
F47 Na17 2.484724 1_554
F47 Na12 2.527012 1_555
F48 Mn3 1.903872 1_555
F48 Na16 2.366126 1_565
F48 Na15 2.484995 1_555
F48 Na4 2.549445 1_455
F49 Mn2 1.903872 1_555
F49 Na17 2.366126 1_555
F49 Na14 2.484995 1_555
F49 Na5 2.549445 1_655
F50 Mn1 1.903872 1_555
F50 Na18 2.366126 1_565
F50 Na13 2.484995 1_555
F50 Na6 2.549445 1_555
F51 Mn0 1.903872 1_555
F51 Na19 2.366126 1_555
F51 Na12 2.484995 1_555
F51 Na7 2.549445 1_555
F52 Mn9 1.880660 1_655
F52 Mn4 2.149825 1_555
F52 Na0 2.718293 1_555
F52 Na14 2.724801 1_555
F53 Mn8 1.880660 1_455
F53 Mn5 2.149825 1_545
F53 Na1 2.718293 1_555
F53 Na15 2.724801 1_545
F54 Mn11 1.880660 1_555
F54 Mn6 2.149825 1_555
F54 Na2 2.718293 1_554
F54 Na12 2.724801 1_555
F55 Mn10 1.880660 1_555
F55 Mn7 2.149825 1_545
F55 Na3 2.718293 1_556
F55 Na13 2.724801 1_545
