# generated using pymatgen
data_Na5La3TiSi3(SO8)3
_symmetry_space_group_name_H-M   'P 1'
_cell_length_a   9.53469025
_cell_length_b   9.45042707
_cell_length_c   23.77307041
_cell_angle_alpha   91.58231498
_cell_angle_beta   89.60274648
_cell_angle_gamma   119.69867751
_symmetry_Int_Tables_number   1
_chemical_formula_structural   Na5La3TiSi3(SO8)3
_chemical_formula_sum   'Na15 La9 Ti3 Si9 S9 O72'
_cell_volume   1859.96963120
_cell_formula_units_Z   3
loop_
 _symmetry_equiv_pos_site_id
 _symmetry_equiv_pos_as_xyz
  1  'x, y, z'
loop_
 _atom_site_type_symbol
 _atom_site_label
 _atom_site_symmetry_multiplicity
 _atom_site_fract_x
 _atom_site_fract_y
 _atom_site_fract_z
 _atom_site_occupancy
  Na  Na0  1  0.65380856  0.01410010  0.25945243  1
  Na  Na1  1  0.99612971  0.61886809  0.24810432  1
  Na  Na2  1  0.63719421  0.64947042  0.74491549  1
  Na  Na3  1  0.35639082  0.00418164  0.76503243  1
  Na  Na4  1  0.66630344  0.94512480  0.58056326  1
  Na  Na5  1  0.99157029  0.69057797  0.91917780  1
  Na  Na6  1  0.68597365  0.01635745  0.91361857  1
  Na  Na7  1  0.95401131  0.30909709  0.41208006  1
  Na  Na8  1  0.69484386  0.68773368  0.43128795  1
  Na  Na9  1  0.00011222  0.96586409  0.50230177  1
  Na  Na10  1  0.01168527  0.97765096  0.99647981  1
  Na  Na11  1  0.64172857  0.30881220  0.83488949  1
  Na  Na12  1  0.66584471  0.31073173  0.33780467  1
  Na  Na13  1  0.28153400  0.61913262  0.16070744  1
  Na  Na14  1  0.32510269  0.62100609  0.67498922  1
  La  La0  1  0.00056332  0.00705364  0.35122695  1
  La  La1  1  0.01499764  0.02193076  0.84909925  1
  La  La2  1  0.00141988  0.00996091  0.65291644  1
  La  La3  1  0.00242606  0.00186616  0.14025590  1
  La  La4  1  0.66393761  0.33948973  0.68534755  1
  La  La5  1  0.67666179  0.33821849  0.17753937  1
  La  La6  1  0.32948827  0.67178865  0.01677538  1
  La  La7  1  0.33295304  0.67128532  0.51640928  1
  La  La8  1  0.31792039  0.66326502  0.32556218  1
  Ti  Ti0  1  0.65895391  0.35452549  0.97609311  1
  Ti  Ti1  1  0.68057289  0.35068984  0.48215355  1
  Ti  Ti2  1  0.38363729  0.68632178  0.81870933  1
  Si  Si0  1  0.00002506  0.30683204  0.25277568  1
  Si  Si1  1  0.30713976  0.32143339  0.75303261  1
  Si  Si2  1  0.68590302  0.99526140  0.75433340  1
  Si  Si3  1  0.67402786  0.63519747  0.58256995  1
  Si  Si4  1  0.95131505  0.62486063  0.07859739  1
  Si  Si5  1  0.63686349  0.66657752  0.91773537  1
  Si  Si6  1  0.35076901  0.97128930  0.91602120  1
  Si  Si7  1  0.63962545  0.98685882  0.41886257  1
  Si  Si8  1  0.01069105  0.65830107  0.41832014  1
  S  S0  1  0.30530338  0.99481222  0.24929933  1
  S  S1  1  0.69337762  0.70099277  0.25069425  1
  S  S2  1  0.02101846  0.70168889  0.75361055  1
  S  S3  1  0.95029489  0.32622278  0.57646894  1
  S  S4  1  0.37643222  0.05287100  0.57901923  1
  S  S5  1  0.67203246  0.03909024  0.07825002  1
  S  S6  1  0.37616479  0.32728005  0.07563664  1
  S  S7  1  0.01622942  0.37647676  0.91716357  1
  S  S8  1  0.35581128  0.36236520  0.41964296  1
  O  O0  1  0.22630090  0.00516526  0.30164243  1
  O  O1  1  0.78373778  0.77477922  0.30438081  1
  O  O2  1  0.99042621  0.22024136  0.31321535  1
  O  O3  1  0.23531314  0.18278432  0.80025011  1
  O  O4  1  0.99069051  0.77112325  0.80581566  1
  O  O5  1  0.78975118  0.01476234  0.81013790  1
  O  O6  1  0.76525625  0.96146173  0.69692435  1
  O  O7  1  0.19948507  0.24406640  0.69506411  1
  O  O8  1  0.03715367  0.80727862  0.70530439  1
  O  O9  1  0.78826006  0.80019348  0.20314805  1
  O  O10  1  0.00195053  0.19158192  0.20031935  1
  O  O11  1  0.20846245  0.98391443  0.19962960  1
  O  O12  1  0.87388277  0.33598612  0.62901969  1
  O  O13  1  0.44875612  0.12212061  0.63504569  1
  O  O14  1  0.67320696  0.55328747  0.64169417  1
  O  O15  1  0.87334834  0.55236462  0.14042977  1
  O  O16  1  0.66920700  0.11253593  0.13469923  1
  O  O17  1  0.45368936  0.32599285  0.12902000  1
  O  O18  1  0.47573391  0.32583429  0.02640915  1
  O  O19  1  0.81850963  0.49639064  0.02585155  1
  O  O20  1  0.66594481  0.13575953  0.03189760  1
  O  O21  1  0.48011943  0.15434018  0.53313172  1
  O  O22  1  0.67349497  0.50876515  0.52851456  1
  O  O23  1  0.85452114  0.32805759  0.52660526  1
  O  O24  1  0.54966773  0.70068084  0.96893714  1
  O  O25  1  0.10456971  0.44402177  0.97000878  1
  O  O26  1  0.30852743  0.85528693  0.96893191  1
  O  O27  1  0.55514174  0.85147371  0.46760813  1
  O  O28  1  0.32756319  0.44040032  0.46922463  1
  O  O29  1  0.13404824  0.67357965  0.46696120  1
  O  O30  1  0.06942399  0.61490460  0.35813121  1
  O  O31  1  0.54266496  0.91500098  0.35828585  1
  O  O32  1  0.38059323  0.46226917  0.36925677  1
  O  O33  1  0.10654750  0.47106939  0.86844359  1
  O  O34  1  0.38063228  0.86734345  0.86082615  1
  O  O35  1  0.52663724  0.65066898  0.85930982  1
  O  O36  1  0.97039580  0.80647921  0.41711189  1
  O  O37  1  0.82825195  0.02304993  0.41587197  1
  O  O38  1  0.21546547  0.19735534  0.41306398  1
  O  O39  1  0.97438983  0.20174998  0.91364462  1
  O  O40  1  0.19106479  0.98819264  0.90688414  1
  O  O41  1  0.82340119  0.80914727  0.91123406  1
  O  O42  1  0.94810651  0.16673318  0.57335730  1
  O  O43  1  0.21216137  0.03207453  0.57547297  1
  O  O44  1  0.83413153  0.81760626  0.57634114  1
  O  O45  1  0.96537245  0.80339181  0.07167921  1
  O  O46  1  0.82475789  0.03135337  0.07459053  1
  O  O47  1  0.21533943  0.17756879  0.07062623  1
  O  O48  1  0.63367977  0.13528327  0.75040869  1
  O  O49  1  0.49881374  0.36929007  0.74852716  1
  O  O50  1  0.87932280  0.53655310  0.74567488  1
  O  O51  1  0.67125259  0.53400476  0.24712139  1
  O  O52  1  0.83048007  0.31920615  0.25131177  1
  O  O53  1  0.47207729  0.13718125  0.24801392  1
  O  O54  1  0.64092545  0.48994163  0.92630241  1
  O  O55  1  0.85571967  0.37650945  0.91900387  1
  O  O56  1  0.52457604  0.15054987  0.92640935  1
  O  O57  1  0.65547407  0.16810640  0.43465092  1
  O  O58  1  0.50698593  0.35305943  0.42615297  1
  O  O59  1  0.83019801  0.48803820  0.43129680  1
  O  O60  1  0.36009571  0.47396265  0.07658683  1
  O  O61  1  0.12392711  0.63049849  0.07847267  1
  O  O62  1  0.53165746  0.87259132  0.07939504  1
  O  O63  1  0.36812841  0.89044159  0.57684341  1
  O  O64  1  0.51352652  0.65747112  0.57918831  1
  O  O65  1  0.11657236  0.46316646  0.57514580  1
  O  O66  1  0.31812643  0.84243486  0.24921510  1
  O  O67  1  0.53603364  0.69748954  0.25218209  1
  O  O68  1  0.15619791  0.49435335  0.25027633  1
  O  O69  1  0.31403233  0.49876911  0.76994459  1
  O  O70  1  0.17345022  0.69655264  0.75759806  1
  O  O71  1  0.50859813  0.81494061  0.76079811  1
loop_
_geom_bond_atom_site_label_1
_geom_bond_atom_site_label_2
_geom_bond_distance
_geom_bond_site_symmetry_2
Na0 O52 2.530304 1_555
Na0 O53 2.539770 1_555
Na0 O31 2.573748 1_545
Na0 O67 2.624573 1_545
Na0 O66 2.789100 1_545
Na1 O68 2.345334 1_655
Na1 O52 2.469509 1_555
Na1 O30 2.718132 1_655
Na1 O66 2.731484 1_655
Na1 O15 2.746179 1_555
Na1 O51 2.788773 1_555
Na2 O49 2.304013 1_555
Na2 O71 2.439703 1_555
Na2 O14 2.672095 1_555
Na2 O69 2.747650 1_555
Na2 O6 2.843427 1_555
Na2 O35 2.911596 1_555
Na2 O50 2.985219 1_555
Na3 O48 2.326195 1_555
Na3 O70 2.544967 1_545
Na3 O3 2.592666 1_555
Na3 O34 2.716246 1_545
Na3 O71 2.806144 1_545
Na4 O64 2.363244 1_555
Na4 O44 2.434102 1_555
Na4 O42 2.464238 1_565
Na4 O63 2.627304 1_555
Na4 O27 2.845379 1_555
Na4 O6 2.904215 1_555
Na5 O41 2.378754 1_555
Na5 O40 2.520065 1_655
Na5 O55 2.584036 1_555
Na5 O4 2.821746 1_555
Na5 O26 2.870831 1_655
Na5 O54 2.920612 1_555
Na5 O33 3.009444 1_655
Na6 O39 2.420289 1_555
Na6 O56 2.444350 1_555
Na6 O5 2.647669 1_555
Na6 O34 2.815091 1_545
Na6 O41 2.844322 1_545
Na6 O24 2.944425 1_545
Na6 O55 2.956470 1_555
Na6 O20 3.040911 1_556
Na7 O37 2.356623 1_555
Na7 O59 2.527853 1_555
Na7 O57 2.534920 1_555
Na7 O2 2.553090 1_555
Na7 O30 2.870868 1_655
Na7 O23 2.906935 1_555
Na8 O36 2.315766 1_555
Na8 O27 2.620482 1_555
Na8 O58 2.755874 1_555
Na8 O59 2.764138 1_555
Na8 O37 2.803165 1_565
Na8 O22 2.848283 1_555
Na9 O44 2.337986 1_455
Na9 O36 2.422236 1_455
Na9 O43 2.498054 1_565
Na9 O42 2.728889 1_465
Na9 O37 2.860855 1_465
Na10 O45 2.352454 1_456
Na10 O47 2.583690 1_566
Na10 O41 2.627762 1_455
Na10 O40 2.695230 1_555
Na10 O46 2.771404 1_466
Na11 O48 2.534624 1_555
Na11 O56 2.590169 1_555
Na11 O55 2.695070 1_555
Na11 O49 2.697033 1_555
Na11 O54 2.731322 1_555
Na12 O52 2.557001 1_555
Na12 O57 2.676458 1_555
Na12 O58 2.715767 1_555
Na12 O59 2.728385 1_555
Na12 O53 2.742019 1_555
Na13 O68 2.461654 1_555
Na13 O61 2.510764 1_555
Na13 O60 2.699715 1_555
Na13 O66 2.835089 1_555
Na14 O69 2.541902 1_555
Na14 O71 2.692044 1_555
Na14 O70 2.713558 1_555
Na14 O64 2.811843 1_555
Na14 O65 2.956909 1_555
La0 O2 2.275899 1_455
La0 O37 2.298290 1_455
La0 O1 2.394361 1_445
La0 O36 2.397172 1_445
La0 O38 2.416252 1_555
La0 O0 2.454406 1_555
La1 O3 2.229718 1_555
La1 O5 2.314059 1_455
La1 O40 2.322391 1_545
La1 O39 2.427343 1_455
La1 O41 2.459569 1_445
La1 O4 2.460660 1_445
La2 O7 2.286679 1_555
La2 O6 2.312174 1_445
La2 O8 2.473930 1_545
La2 O44 2.479331 1_445
La2 O42 2.635342 1_455
La2 O43 2.650392 1_555
La3 O10 2.262731 1_555
La3 O45 2.341634 1_445
La3 O46 2.431607 1_455
La3 O11 2.502448 1_545
La3 O9 2.509254 1_445
La3 O47 2.526550 1_555
La4 O14 2.259361 1_555
La4 O49 2.279734 1_555
La4 O13 2.362512 1_555
La4 O48 2.409725 1_555
La4 O12 2.413992 1_555
La4 O50 2.417892 1_555
La5 O15 2.169304 1_555
La5 O16 2.306930 1_555
La5 O52 2.360764 1_555
La5 O17 2.376304 1_555
La5 O51 2.467141 1_555
La5 O53 2.584536 1_555
La6 O26 2.190049 1_554
La6 O24 2.278424 1_554
La6 O61 2.319256 1_555
La6 O62 2.406688 1_555
La6 O25 2.407328 1_554
La6 O60 2.509049 1_555
La7 O29 2.247690 1_555
La7 O27 2.287827 1_555
La7 O64 2.340482 1_555
La7 O63 2.370698 1_555
La7 O28 2.403411 1_555
La7 O65 2.483058 1_555
La8 O30 2.311547 1_555
La8 O68 2.360217 1_555
La8 O31 2.392966 1_555
La8 O32 2.507285 1_555
La8 O66 2.515483 1_555
La8 O67 2.605198 1_555
O0 S0 1.476045 1_545
O1 S1 1.492734 1_555
O2 Si0 1.652701 1_655
O3 Si1 1.620896 1_555
O4 S2 1.480719 1_655
O5 Si2 1.611913 1_545
O6 Si2 1.654755 1_555
O7 Si1 1.645492 1_555
O8 S2 1.498973 1_555
O9 S1 1.476110 1_555
O10 Si0 1.638971 1_555
O11 S0 1.473651 1_555
O12 S3 1.465495 1_555
O13 S4 1.481639 1_555
O14 Si3 1.621361 1_555
O15 Si4 1.648804 1_555
O16 S5 1.499988 1_555
O17 S6 1.476440 1_555
O18 S6 1.505859 1_555
O18 Ti0 2.018845 1_554
O19 Si4 1.750540 1_555
O19 Ti0 1.851347 1_554
O20 S5 1.470125 1_555
O20 Ti0 2.515541 1_554
O21 S4 1.480000 1_555
O21 Ti1 2.267766 1_555
O22 Si3 1.728679 1_555
O22 Ti1 1.859808 1_555
O23 S3 1.507058 1_555
O23 Ti1 2.074012 1_555
O24 Si5 1.583196 1_555
O25 S7 1.460421 1_555
O26 Si6 1.605564 1_555
O27 Si7 1.635989 1_555
O28 S8 1.466342 1_555
O29 Si8 1.607088 1_555
O30 Si8 1.647195 1_555
O31 Si7 1.652901 1_555
O32 S8 1.489802 1_555
O33 S7 1.470629 1_555
O33 Ti2 2.698178 1_555
O34 Si6 1.722961 1_555
O34 Ti2 1.970658 1_555
O35 Si5 1.705429 1_555
O35 Ti2 1.842707 1_555
O36 Si8 1.626312 1_655
O37 Si7 1.657310 1_545
O38 S8 1.472624 1_555
O39 S7 1.494276 1_655
O40 Si6 1.624481 1_555
O41 Si5 1.623502 1_555
O42 S3 1.496795 1_555
O43 S4 1.481498 1_555
O44 Si3 1.651464 1_555
O45 Si4 1.637860 1_555
O46 S5 1.495592 1_555
O47 S6 1.486878 1_555
O48 Si2 1.633409 1_545
O49 Si1 1.654365 1_555
O50 S2 1.481363 1_655
O51 S1 1.484963 1_555
O52 Si0 1.678234 1_655
O53 S0 1.490426 1_545
O54 Si5 1.706586 1_555
O54 Ti0 1.836527 1_555
O55 S7 1.530886 1_655
O55 Ti0 2.235826 1_555
O56 Si6 1.696458 1_545
O56 Ti0 2.049515 1_555
O57 Si7 1.675242 1_545
O57 Ti1 1.948550 1_555
O58 S8 1.496255 1_555
O58 Ti1 2.140363 1_555
O59 Si8 1.709415 1_655
O59 Ti1 1.846533 1_555
O60 S6 1.467734 1_555
O61 Si4 1.620051 1_455
O62 S5 1.477521 1_565
O63 S4 1.496830 1_565
O64 Si3 1.647578 1_555
O65 S3 1.468969 1_455
O66 S0 1.504306 1_555
O67 S1 1.484298 1_555
O68 Si0 1.658669 1_555
O69 Si1 1.681850 1_555
O69 Ti2 1.912484 1_555
O70 S2 1.481807 1_555
O70 Ti2 2.525154 1_555
O71 Si2 1.715174 1_555
O71 Ti2 1.851234 1_555
