# generated using pymatgen
data_Na2Y2Ta2Si3(SO8)3
_symmetry_space_group_name_H-M   'P 1'
_cell_length_a   9.07974105
_cell_length_b   9.09483884
_cell_length_c   23.49986810
_cell_angle_alpha   91.31741639
_cell_angle_beta   90.17565908
_cell_angle_gamma   119.69425823
_symmetry_Int_Tables_number   1
_chemical_formula_structural   Na2Y2Ta2Si3(SO8)3
_chemical_formula_sum   'Na6 Y6 Ta6 Si9 S9 O72'
_cell_volume   1685.07531847
_cell_formula_units_Z   3
loop_
 _symmetry_equiv_pos_site_id
 _symmetry_equiv_pos_as_xyz
  1  'x, y, z'
loop_
 _atom_site_type_symbol
 _atom_site_label
 _atom_site_symmetry_multiplicity
 _atom_site_fract_x
 _atom_site_fract_y
 _atom_site_fract_z
 _atom_site_occupancy
  Na  Na0  1  0.97626101  0.97357014  0.49143320  1
  Na  Na1  1  0.01729897  0.98983023  -0.00005160  1
  Na  Na2  1  0.64115811  0.30744965  0.82456587  1
  Na  Na3  1  0.66861846  0.30688254  0.32794270  1
  Na  Na4  1  0.30387784  0.65663734  0.17162128  1
  Na  Na5  1  0.35554956  0.66088564  0.66023806  1
  Y  Y0  1  0.99913228  0.00380384  0.35479297  1
  Y  Y1  1  0.00986046  0.00764133  0.85291287  1
  Y  Y2  1  0.65562695  0.33406888  0.68742528  1
  Y  Y3  1  0.68091669  0.33524782  0.18889866  1
  Y  Y4  1  0.32363926  0.67222345  0.02149689  1
  Y  Y5  1  0.34492357  0.67713598  0.51918141  1
  Ta  Ta0  1  0.98953317  0.00870133  0.64596533  1
  Ta  Ta1  1  0.00643356  0.99185615  0.15348530  1
  Ta  Ta2  1  0.66659574  0.33574535  0.98005386  1
  Ta  Ta3  1  0.67616977  0.34815427  0.47430512  1
  Ta  Ta4  1  0.31546449  0.67827316  0.31409623  1
  Ta  Ta5  1  0.34909252  0.68633116  0.80699328  1
  Si  Si0  1  0.29682438  0.00004751  0.25357296  1
  Si  Si1  1  0.01619743  0.30002281  0.25203274  1
  Si  Si2  1  0.28735039  0.29526999  0.75179575  1
  Si  Si3  1  0.71293612  0.00384712  0.75192688  1
  Si  Si4  1  0.67372283  0.62979413  0.58532527  1
  Si  Si5  1  0.95468965  0.63580582  0.08474569  1
  Si  Si6  1  0.33790480  0.96247308  0.91829831  1
  Si  Si7  1  0.62250082  0.96185027  0.41823687  1
  Si  Si8  1  0.03884974  0.66716417  0.41975571  1
  S  S0  1  0.70162204  0.71641752  0.24789756  1
  S  S1  1  0.01292625  0.71535564  0.74881113  1
  S  S2  1  0.95144186  0.32438911  0.58292921  1
  S  S3  1  0.36373110  0.04611017  0.58292232  1
  S  S4  1  0.68234579  0.05185933  0.07979614  1
  S  S5  1  0.37169738  0.32118233  0.08205625  1
  S  S6  1  0.61681786  0.65359551  0.91654145  1
  S  S7  1  0.03090671  0.37835944  0.91723519  1
  S  S8  1  0.34561757  0.38183641  0.41670441  1
  O  O0  1  0.20702500  0.01626935  0.30797355  1
  O  O1  1  0.80263792  0.78879982  0.29942124  1
  O  O2  1  0.98234526  0.18484650  0.30467162  1
  O  O3  1  0.20652471  0.18508275  0.80625525  1
  O  O4  1  0.98622375  0.78492124  0.80177304  1
  O  O5  1  0.80513709  0.00620462  0.80900107  1
  O  O6  1  0.80842376  0.97387989  0.69366783  1
  O  O7  1  0.16316778  0.19197725  0.69366000  1
  O  O8  1  0.03734130  0.82253878  0.69896627  1
  O  O9  1  0.80016353  0.82720589  0.19610017  1
  O  O10  1  0.02798829  0.18832578  0.19201615  1
  O  O11  1  0.16538173  0.96591357  0.19391692  1
  O  O12  1  0.87621906  0.34455349  0.63455865  1
  O  O13  1  0.46591087  0.12069574  0.63499740  1
  O  O14  1  0.66588163  0.52834025  0.63995076  1
  O  O15  1  0.86061159  0.52560780  0.13727251  1
  O  O16  1  0.64915714  0.12155110  0.13117822  1
  O  O17  1  0.47078946  0.34495051  0.13302026  1
  O  O18  1  0.46253463  0.30039274  0.02932902  1
  O  O19  1  0.82809556  0.52400268  0.02602216  1
  O  O20  1  0.69214931  0.16047948  0.02896180  1
  O  O21  1  0.44775847  0.14724490  0.53241713  1
  O  O22  1  0.69042912  0.52094264  0.52748939  1
  O  O23  1  0.84404559  0.29818531  0.53102410  1
  O  O24  1  0.53926570  0.67430208  0.96808863  1
  O  O25  1  0.13261350  0.45407028  0.96931120  1
  O  O26  1  0.32733435  0.85568042  0.97208050  1
  O  O27  1  0.54097747  0.85264962  0.47270750  1
  O  O28  1  0.32568482  0.45642780  0.46955075  1
  O  O29  1  0.13899709  0.67206658  0.47506881  1
  O  O30  1  0.13277745  0.63778687  0.36025156  1
  O  O31  1  0.49537432  0.85400250  0.36032056  1
  O  O32  1  0.36871743  0.48473166  0.36622887  1
  O  O33  1  0.10737756  0.47971895  0.86682929  1
  O  O34  1  0.35866431  0.85649107  0.86035466  1
  O  O35  1  0.50839017  0.62939686  0.86443377  1
  O  O36  1  0.00096048  0.81815810  0.41391663  1
  O  O37  1  0.81490744  0.00639075  0.41305135  1
  O  O38  1  0.20532538  0.20850251  0.41185183  1
  O  O39  1  0.99713580  0.20344119  0.91286250  1
  O  O40  1  0.17781144  0.99147837  0.91633735  1
  O  O41  1  0.78890538  0.79457525  0.91090672  1
  O  O42  1  0.96210526  0.15968386  0.58811933  1
  O  O43  1  0.19376513  0.03781690  0.58990887  1
  O  O44  1  0.85568047  0.82158266  0.59325855  1
  O  O45  1  0.96404485  0.82589401  0.08980911  1
  O  O46  1  0.84479420  0.05008127  0.08303533  1
  O  O47  1  0.20190857  0.16245950  0.08463298  1
  O  O48  1  0.67938028  0.15751972  0.74497168  1
  O  O49  1  0.48072493  0.33927116  0.74692796  1
  O  O50  1  0.87677600  0.54094971  0.74140543  1
  O  O51  1  0.67461324  0.54605397  0.23887742  1
  O  O52  1  0.86467175  0.34148995  0.24486751  1
  O  O53  1  0.48008555  0.15532359  0.24253625  1
  O  O54  1  0.62618862  0.48971232  0.92236166  1
  O  O55  1  0.85651156  0.36656926  0.92572150  1
  O  O56  1  0.51741966  0.15391938  0.92720860  1
  O  O57  1  0.62292285  0.14758824  0.42893183  1
  O  O58  1  0.50840665  0.36928293  0.42270895  1
  O  O59  1  0.84838403  0.48234300  0.42491443  1
  O  O60  1  0.34982527  0.46860395  0.07335459  1
  O  O61  1  0.14386591  0.66246057  0.08070028  1
  O  O62  1  0.54184547  0.87801235  0.07173820  1
  O  O63  1  0.33214042  0.87096944  0.57887178  1
  O  O64  1  0.51425760  0.66041905  0.58272844  1
  O  O65  1  0.12528840  0.46427630  0.57754741  1
  O  O66  1  0.30227913  0.81743942  0.25676651  1
  O  O67  1  0.53857664  0.71483354  0.24902037  1
  O  O68  1  0.20038389  0.48333189  0.25924309  1
  O  O69  1  0.29135365  0.48289726  0.76326506  1
  O  O70  1  0.17757796  0.70681867  0.75573182  1
  O  O71  1  0.51882432  0.81979455  0.75709750  1
loop_
_geom_bond_atom_site_label_1
_geom_bond_atom_site_label_2
_geom_bond_distance
_geom_bond_site_symmetry_2
Na0 O36 2.358945 1_655
Na0 O37 2.463798 1_565
Na0 O44 2.739359 1_555
Na0 O42 2.843351 1_565
Na0 O38 2.862407 1_665
Na0 O43 2.891966 1_665
Na1 O40 2.445848 1_554
Na1 O45 2.520500 1_455
Na1 O47 2.542364 1_565
Na1 O46 2.717691 1_465
Na1 O41 2.826024 1_454
Na1 O39 2.920431 1_464
Na2 O48 2.415359 1_555
Na2 O49 2.441332 1_555
Na2 O56 2.765397 1_555
Na2 O54 2.845682 1_555
Na2 O50 2.936175 1_555
Na2 O55 2.938439 1_555
Na3 O53 2.524389 1_555
Na3 O52 2.563910 1_555
Na3 O57 2.733472 1_555
Na3 O59 2.762812 1_555
Na3 O58 2.859607 1_555
Na3 O51 3.034478 1_555
Na4 O66 2.455461 1_555
Na4 O68 2.510172 1_555
Na4 O61 2.596387 1_555
Na4 O67 2.635167 1_555
Na4 O60 2.993731 1_555
Na5 O64 2.327255 1_555
Na5 O71 2.678218 1_555
Na5 O65 2.730575 1_555
Na5 O63 2.814220 1_555
Na5 O69 2.841841 1_555
Na5 O70 2.910267 1_555
O0 Si0 1.561343 1_555
O0 Y0 2.143113 1_455
O1 S0 1.448788 1_555
O1 Y0 2.261042 1_565
O2 Si1 1.569988 1_655
O2 Y0 2.111496 1_555
O3 Si2 1.586446 1_555
O3 Y1 2.057542 1_555
O4 S1 1.457985 1_655
O4 Y1 2.247039 1_665
O5 Si3 1.572966 1_555
O5 Y1 2.117512 1_655
O6 Si3 1.710143 1_565
O6 Ta0 1.890171 1_565
O7 Si2 1.703654 1_555
O7 Ta0 1.954452 1_455
O8 S1 1.487097 1_555
O8 Ta0 2.329849 1_465
O9 S0 1.570779 1_555
O9 Ta1 2.013657 1_655
O10 Si1 1.753687 1_555
O10 Ta1 1.905017 1_545
O11 Si0 1.757481 1_565
O11 Ta1 1.838626 1_555
O12 S2 1.446076 1_555
O12 Y2 2.322868 1_555
O13 S3 1.466230 1_555
O13 Y2 2.194603 1_555
O14 Si4 1.579323 1_555
O14 Y2 2.074473 1_555
O15 Si5 1.572571 1_555
O15 Y3 2.107470 1_555
O16 S4 1.451488 1_555
O16 Y3 2.240868 1_555
O17 S5 1.442012 1_555
O17 Y3 2.351375 1_555
O18 S5 1.549624 1_555
O18 Ta2 2.077801 1_554
O19 Si5 1.739922 1_555
O19 Ta2 1.914816 1_554
O20 S4 1.542304 1_555
O20 Ta2 2.089187 1_554
O21 S3 1.482316 1_555
O21 Ta3 2.425387 1_555
O22 Si4 1.714207 1_555
O22 Ta3 1.937910 1_555
O23 S2 1.498198 1_555
O23 Ta3 2.237906 1_555
O24 S6 1.457667 1_555
O24 Y4 2.321249 1_556
O25 S7 1.465913 1_555
O25 Y4 2.216862 1_556
O26 Si6 1.585804 1_555
O26 Y4 2.041445 1_556
O27 Si7 1.583901 1_555
O27 Y5 2.046090 1_555
O28 S8 1.455860 1_555
O28 Y5 2.227954 1_555
O29 Si8 1.571104 1_555
O29 Y5 2.115008 1_555
O30 Si8 1.723358 1_555
O30 Ta4 1.867555 1_555
O31 Si7 1.718752 1_555
O31 Ta4 1.930140 1_555
O32 S8 1.478122 1_555
O32 Ta4 2.402468 1_555
O33 S7 1.468376 1_555
O33 Ta5 2.525771 1_555
O34 Si6 1.714636 1_555
O34 Ta5 1.936974 1_555
O35 S6 1.510853 1_555
O35 Ta5 2.223602 1_555
O36 Si8 1.580974 1_555
O36 Y0 2.217421 1_465
O37 Si7 1.591665 1_545
O37 Y0 2.173572 1_555
O38 S8 1.456750 1_555
O38 Y0 2.277187 1_455
O39 S7 1.464376 1_655
O39 Y1 2.293186 1_655
O40 Si6 1.601481 1_555
O40 Y1 2.187877 1_565
O41 S6 1.458481 1_555
O41 Y1 2.433900 1_665
O42 S2 1.555692 1_555
O42 Ta0 2.053789 1_555
O43 S3 1.516923 1_555
O43 Ta0 2.188304 1_455
O44 Si4 1.713146 1_555
O44 Ta0 1.937027 1_565
O45 Si5 1.689729 1_555
O45 Ta1 1.995653 1_655
O46 S4 1.484806 1_555
O46 Ta1 2.443502 1_645
O47 S5 1.504634 1_555
O47 Ta1 2.362259 1_545
O48 Si3 1.582716 1_555
O48 Y2 2.212398 1_555
O49 Si2 1.601011 1_555
O49 Y2 2.136460 1_555
O50 S1 1.455260 1_655
O50 Y2 2.304962 1_555
O51 S0 1.453935 1_555
O51 Y3 2.250364 1_555
O52 Si1 1.605931 1_655
O52 Y3 2.099076 1_555
O53 Si0 1.588004 1_555
O53 Y3 2.178143 1_555
O54 S6 1.543521 1_555
O54 Ta2 2.127624 1_555
O55 S7 1.547036 1_655
O55 Ta2 2.057510 1_555
O56 Si6 1.703424 1_545
O56 Ta2 1.946173 1_555
O57 Si7 1.700244 1_545
O57 Ta3 1.931768 1_555
O58 S8 1.544128 1_555
O58 Ta3 2.028979 1_555
O59 Si8 1.720917 1_655
O59 Ta3 1.862051 1_555
O60 S5 1.468025 1_555
O60 Y4 2.347200 1_555
O61 Si5 1.614843 1_455
O61 Y4 2.117527 1_555
O62 S4 1.466146 1_565
O62 Y4 2.243326 1_555
O63 S3 1.472681 1_565
O63 Y5 2.275710 1_555
O64 Si4 1.605464 1_555
O64 Y5 2.201157 1_555
O65 S2 1.464654 1_455
O65 Y5 2.433096 1_555
O66 Si0 1.689235 1_565
O66 Ta4 1.912830 1_555
O67 S0 1.473650 1_555
O67 Ta4 2.434774 1_555
O68 Si1 1.681645 1_555
O68 Ta4 1.986974 1_555
O69 Si2 1.703890 1_555
O69 Ta5 1.924144 1_555
O70 S1 1.543236 1_555
O70 Ta5 2.048752 1_555
O71 Si3 1.735182 1_565
O71 Ta5 1.856469 1_555
