# generated using pymatgen
data_CrP2O7
_symmetry_space_group_name_H-M   'P 1'
_cell_length_a   12.99619507
_cell_length_b   12.99619507
_cell_length_c   13.17288839
_cell_angle_alpha   27.54376360
_cell_angle_beta   27.54376360
_cell_angle_gamma   36.14807964
_symmetry_Int_Tables_number   1
_chemical_formula_structural   CrP2O7
_chemical_formula_sum   'Cr4 P8 O28'
_cell_volume   473.39747758
_cell_formula_units_Z   4
loop_
 _symmetry_equiv_pos_site_id
 _symmetry_equiv_pos_as_xyz
  1  'x, y, z'
loop_
 _atom_site_type_symbol
 _atom_site_label
 _atom_site_symmetry_multiplicity
 _atom_site_fract_x
 _atom_site_fract_y
 _atom_site_fract_z
 _atom_site_occupancy
  Cr  Cr0  1  0.41384800  0.87890900  0.85233500  1
  Cr  Cr1  1  0.87890900  0.41384800  0.35233500  1
  Cr  Cr2  1  0.12109100  0.58615200  0.64766500  1
  Cr  Cr3  1  0.58615200  0.12109100  0.14766500  1
  P  P0  1  0.91819400  0.74669300  0.47113900  1
  P  P1  1  0.08180600  0.25330700  0.52886100  1
  P  P2  1  0.74669300  0.91819400  0.97113900  1
  P  P3  1  0.66725300  0.58484900  0.17759300  1
  P  P4  1  0.58484900  0.66725300  0.67759300  1
  P  P5  1  0.33274700  0.41515100  0.82240700  1
  P  P6  1  0.41515100  0.33274700  0.32240700  1
  P  P7  1  0.25330700  0.08180600  0.02886100  1
  O  O0  1  0.81699300  0.64208900  0.90870700  1
  O  O1  1  0.35791100  0.18300700  0.59129300  1
  O  O2  1  0.43950200  0.52803000  0.38782600  1
  O  O3  1  0.42908500  0.97764800  0.89045800  1
  O  O4  1  0.64208900  0.81699300  0.40870700  1
  O  O5  1  0.56049800  0.47197000  0.61217400  1
  O  O6  1  0.57091500  0.02235200  0.10954200  1
  O  O7  1  0.09527400  0.87212200  0.15485300  1
  O  O8  1  0.39186600  0.19329500  0.89748300  1
  O  O9  1  0.52803000  0.43950200  0.88782600  1
  O  O10  1  0.12787800  0.90472600  0.34514700  1
  O  O11  1  0.21274700  0.59464900  0.70052200  1
  O  O12  1  0.02235200  0.57091500  0.60954200  1
  O  O13  1  0.40535100  0.78725300  0.79947800  1
  O  O14  1  0.09532200  0.27158800  0.95525300  1
  O  O15  1  0.18300700  0.35791100  0.09129300  1
  O  O16  1  0.80670500  0.60813400  0.60251700  1
  O  O17  1  0.60813400  0.80670500  0.10251700  1
  O  O18  1  0.72841200  0.90467800  0.54474700  1
  O  O19  1  0.19329500  0.39186600  0.39748300  1
  O  O20  1  0.27158800  0.09532200  0.45525300  1
  O  O21  1  0.90467800  0.72841200  0.04474700  1
  O  O22  1  0.59464900  0.21274700  0.20052200  1
  O  O23  1  0.97764800  0.42908500  0.39045800  1
  O  O24  1  0.78725300  0.40535100  0.29947800  1
  O  O25  1  0.87212200  0.09527400  0.65485300  1
  O  O26  1  0.47197000  0.56049800  0.11217400  1
  O  O27  1  0.90472600  0.12787800  0.84514700  1
loop_
_geom_bond_atom_site_label_1
_geom_bond_atom_site_label_2
_geom_bond_distance
_geom_bond_site_symmetry_2
Cr0 O1 1.914611 1_565
Cr0 O3 1.915096 1_555
Cr0 O18 1.916550 1_555
Cr0 O13 1.932736 1_555
Cr0 O7 1.933495 1_556
Cr0 O26 1.956978 1_556
Cr1 O15 1.914611 1_655
Cr1 O23 1.915096 1_555
Cr1 O21 1.916550 1_555
Cr1 O24 1.932736 1_555
Cr1 O25 1.933495 1_555
Cr1 O5 1.956978 1_555
Cr2 O0 1.914611 1_455
Cr2 O12 1.915096 1_555
Cr2 O14 1.916550 1_555
Cr2 O11 1.932736 1_555
Cr2 O10 1.933495 1_555
Cr2 O2 1.956978 1_555
Cr3 O4 1.914611 1_545
Cr3 O6 1.915096 1_555
Cr3 O20 1.916550 1_555
Cr3 O22 1.932736 1_555
Cr3 O27 1.933495 1_554
Cr3 O9 1.956978 1_554
O0 P3 1.525921 1_556
O1 P6 1.525921 1_555
O2 P3 1.530737 1_555
O3 P7 1.540003 1_566
O4 P4 1.525921 1_555
O5 P5 1.530737 1_555
O6 P2 1.540003 1_544
O7 P0 1.524450 1_455
O8 P7 1.605558 1_556
O8 P5 1.610872 1_555
O9 P4 1.530737 1_555
O10 P7 1.524450 1_565
O11 P5 1.541072 1_555
O12 P0 1.540003 1_455
O13 P4 1.541072 1_555
O14 P7 1.533014 1_556
O15 P5 1.525921 1_554
O16 P0 1.605558 1_555
O16 P4 1.610872 1_555
O17 P2 1.605558 1_554
O17 P3 1.610872 1_555
O18 P0 1.533014 1_555
O19 P1 1.605558 1_555
O19 P6 1.610872 1_555
O20 P1 1.533014 1_555
O21 P2 1.533014 1_554
O22 P6 1.541072 1_555
O23 P1 1.540003 1_655
O24 P3 1.541072 1_555
O25 P2 1.524450 1_545
O26 P6 1.530737 1_555
O27 P1 1.524450 1_655
