# generated using pymatgen
data_NaNdMnWO6
_symmetry_space_group_name_H-M   'P 1'
_cell_length_a   5.70578100
_cell_length_b   5.58463800
_cell_length_c   8.07138870
_cell_angle_alpha   89.90245062
_cell_angle_beta   90.00000000
_cell_angle_gamma   90.00000000
_symmetry_Int_Tables_number   1
_chemical_formula_structural   NaNdMnWO6
_chemical_formula_sum   'Na2 Nd2 Mn2 W2 O12'
_cell_volume   257.19217936
_cell_formula_units_Z   2
loop_
 _symmetry_equiv_pos_site_id
 _symmetry_equiv_pos_as_xyz
  1  'x, y, z'
loop_
 _atom_site_type_symbol
 _atom_site_label
 _atom_site_symmetry_multiplicity
 _atom_site_fract_x
 _atom_site_fract_y
 _atom_site_fract_z
 _atom_site_occupancy
  Na  Na0  1  0.78398000  0.25154300  0.00081900  1
  Na  Na1  1  0.28398000  0.74845700  0.99918100  1
  Nd  Nd0  1  0.70552200  0.23851700  0.50076500  1
  Nd  Nd1  1  0.20552200  0.76148300  0.49923500  1
  Mn  Mn0  1  0.75243400  0.74889900  0.23889200  1
  Mn  Mn1  1  0.25243400  0.25110100  0.76110800  1
  W  W0  1  0.76004800  0.74295300  0.75918400  1
  W  W1  1  0.26004800  0.25704700  0.24081600  1
  O  O0  1  0.22839300  0.16726400  0.01891200  1
  O  O1  1  0.72839300  0.83273600  0.98108800  1
  O  O2  1  0.28906000  0.34534300  0.49173300  1
  O  O3  1  0.78906000  0.65465700  0.50826700  1
  O  O4  1  0.55587100  0.42058000  0.21748000  1
  O  O5  1  0.05587100  0.57942000  0.78252000  1
  O  O6  1  0.58321800  0.45485100  0.77654500  1
  O  O7  1  0.08321800  0.54514900  0.22345500  1
  O  O8  1  0.49014900  0.94370200  0.68707800  1
  O  O9  1  0.99014900  0.05629800  0.31292200  1
  O  O10  1  0.95872500  0.02469700  0.68820600  1
  O  O11  1  0.45872500  0.97530300  0.31179400  1
loop_
_geom_bond_atom_site_label_1
_geom_bond_atom_site_label_2
_geom_bond_distance
_geom_bond_site_symmetry_2
Na0 O1 2.365927 1_544
Na0 O4 2.376747 1_555
Na0 O6 2.423046 1_554
Na0 O0 2.583121 1_655
Na0 O7 2.973702 1_655
Na0 O5 2.975415 1_654
Na1 O0 2.365927 1_566
Na1 O5 2.376747 1_555
Na1 O7 2.423046 1_556
Na1 O1 2.583121 1_555
Na1 O6 2.973702 1_555
Na1 O4 2.975415 1_556
Nd0 O3 2.373242 1_555
Nd0 O10 2.407458 1_555
Nd0 O9 2.444786 1_555
Nd0 O2 2.451041 1_555
Nd0 O8 2.544380 1_545
Nd0 O11 2.545144 1_545
Nd0 O6 2.628785 1_555
Nd0 O4 2.642551 1_555
Nd1 O2 2.373242 1_555
Nd1 O11 2.407458 1_555
Nd1 O8 2.444786 1_555
Nd1 O3 2.451041 1_455
Nd1 O9 2.544380 1_465
Nd1 O10 2.545144 1_465
Nd1 O7 2.628785 1_555
Nd1 O5 2.642551 1_555
Mn0 O1 2.136490 1_554
Mn0 O4 2.156546 1_555
Mn0 O11 2.180797 1_555
Mn0 O7 2.207479 1_655
Mn0 O3 2.245897 1_555
Mn0 O9 2.268769 1_565
Mn1 O0 2.136490 1_556
Mn1 O5 2.156546 1_555
Mn1 O10 2.180797 1_455
Mn1 O6 2.207479 1_555
Mn1 O2 2.245897 1_555
Mn1 O8 2.268769 1_545
O0 W1 1.869500 1_555
O1 W0 1.869500 1_555
O2 W1 2.091790 1_555
O3 W0 2.091790 1_555
O4 W1 1.928204 1_555
O5 W0 1.928204 1_455
O6 W0 1.904090 1_555
O7 W1 1.904090 1_555
O8 W0 1.991215 1_555
O9 W1 1.991215 1_655
O10 W0 2.021363 1_545
O11 W1 2.021363 1_565
