# generated using pymatgen
data_Na4LaZrSi2PO12
_symmetry_space_group_name_H-M   'P 1'
_cell_length_a   9.58993402
_cell_length_b   9.58993366
_cell_length_c   22.56456741
_cell_angle_alpha   90.14330445
_cell_angle_beta   89.85669555
_cell_angle_gamma   119.77749182
_symmetry_Int_Tables_number   1
_chemical_formula_structural   Na4LaZrSi2PO12
_chemical_formula_sum   'Na24 La6 Zr6 Si12 P6 O72'
_cell_volume   1801.17719306
_cell_formula_units_Z   6
loop_
 _symmetry_equiv_pos_site_id
 _symmetry_equiv_pos_as_xyz
  1  'x, y, z'
loop_
 _atom_site_type_symbol
 _atom_site_label
 _atom_site_symmetry_multiplicity
 _atom_site_fract_x
 _atom_site_fract_y
 _atom_site_fract_z
 _atom_site_occupancy
  Na  Na0  1  0.64694125  0.00747748  0.24951064  1
  Na  Na1  1  0.36189999  0.36788072  0.24140700  1
  Na  Na2  1  0.99016582  0.62817185  0.24713269  1
  Na  Na3  1  0.63211928  0.63810001  0.74140700  1
  Na  Na4  1  0.99252252  0.35305875  0.74951064  1
  Na  Na5  1  0.37182815  0.00983418  0.74713269  1
  Na  Na6  1  0.31360825  0.34081048  0.58284364  1
  Na  Na7  1  0.02856699  0.70121372  0.57474000  1
  Na  Na8  1  0.65683282  0.96150485  0.58046569  1
  Na  Na9  1  0.29878628  0.97143301  0.07474000  1
  Na  Na10  1  0.65918952  0.68639175  0.08284364  1
  Na  Na11  1  0.03849515  0.34316718  0.08046569  1
  Na  Na12  1  0.98027425  0.67414448  0.91617764  1
  Na  Na13  1  0.69523299  0.03454772  0.90807400  1
  Na  Na14  1  0.32349882  0.29483885  0.91379969  1
  Na  Na15  1  0.96545228  0.30476701  0.40807400  1
  Na  Na16  1  0.32585552  0.01972575  0.41617764  1
  Na  Na17  1  0.70516115  0.67650118  0.41379969  1
  Na  Na18  1  0.98894473  0.98570032  0.49982834  1
  Na  Na19  1  0.01429968  0.01105527  0.99982834  1
  Na  Na20  1  0.65561173  0.31903332  0.83316134  1
  Na  Na21  1  0.68096668  0.34438827  0.33316134  1
  Na  Na22  1  0.32227773  0.65236732  0.16649534  1
  Na  Na23  1  0.34763268  0.67772227  0.66649534  1
  La  La0  1  0.99591749  0.99766325  0.34406494  1
  La  La1  1  0.00233675  0.00408251  0.84406494  1
  La  La2  1  0.66258449  0.33099625  0.67739794  1
  La  La3  1  0.66900375  0.33741551  0.17739794  1
  La  La4  1  0.32925049  0.66433025  0.01073194  1
  La  La5  1  0.33566975  0.67074951  0.51073194  1
  Zr  Zr0  1  0.99996168  0.00285748  0.64896915  1
  Zr  Zr1  1  0.99714252  0.00003832  0.14896915  1
  Zr  Zr2  1  0.66662868  0.33619048  0.98230215  1
  Zr  Zr3  1  0.66380952  0.33337132  0.48230215  1
  Zr  Zr4  1  0.33329468  0.66952448  0.31563615  1
  Zr  Zr5  1  0.33047552  0.66670532  0.81563615  1
  Si  Si0  1  0.68768473  0.69984438  0.25120876  1
  Si  Si1  1  0.01099788  0.31179492  0.25188994  1
  Si  Si2  1  0.30015562  0.31231527  0.75120876  1
  Si  Si3  1  0.68820508  0.98900212  0.75188994  1
  Si  Si4  1  0.35435173  0.03317738  0.58454176  1
  Si  Si5  1  0.67766488  0.64512792  0.58522294  1
  Si  Si6  1  0.96682262  0.64564827  0.08454176  1
  Si  Si7  1  0.35487208  0.32233512  0.08522294  1
  Si  Si8  1  0.02101773  0.36651138  0.91787576  1
  Si  Si9  1  0.34433088  0.97846192  0.91855694  1
  Si  Si10  1  0.63348862  0.97898227  0.41787576  1
  Si  Si11  1  0.02153808  0.65566912  0.41855694  1
  P  P0  1  0.29551557  0.98333042  0.24944002  1
  P  P1  1  0.01666958  0.70448443  0.74944002  1
  P  P2  1  0.96218257  0.31666342  0.58277302  1
  P  P3  1  0.68333658  0.03781743  0.08277302  1
  P  P4  1  0.62884857  0.64999742  0.91610702  1
  P  P5  1  0.35000258  0.37115143  0.41610702  1
  O  O0  1  0.23702101  0.01410732  0.30874283  1
  O  O1  1  0.78371961  0.76565894  0.31306381  1
  O  O2  1  0.99078604  0.22013984  0.31390880  1
  O  O3  1  0.23434106  0.21628039  0.81306381  1
  O  O4  1  0.98589268  0.76297899  0.80874283  1
  O  O5  1  0.77986016  0.00921396  0.81390880  1
  O  O6  1  0.80124106  0.97641980  0.69684988  1
  O  O7  1  0.17554254  0.19983599  0.69609534  1
  O  O8  1  0.02622220  0.82069348  0.69809892  1
  O  O9  1  0.80016401  0.82445746  0.19609534  1
  O  O10  1  0.02358020  0.19875894  0.19684988  1
  O  O11  1  0.17930652  0.97377780  0.19809892  1
  O  O12  1  0.90368801  0.34744032  0.64207583  1
  O  O13  1  0.45038661  0.09899194  0.64639681  1
  O  O14  1  0.65745304  0.55347284  0.64724180  1
  O  O15  1  0.90100806  0.54961339  0.14639681  1
  O  O16  1  0.65255968  0.09631199  0.14207583  1
  O  O17  1  0.44652716  0.34254696  0.14724180  1
  O  O18  1  0.46790806  0.30975280  0.03018288  1
  O  O19  1  0.84220954  0.53316899  0.02942834  1
  O  O20  1  0.69288920  0.15402648  0.03143192  1
  O  O21  1  0.46683101  0.15779046  0.52942834  1
  O  O22  1  0.69024720  0.53209194  0.53018288  1
  O  O23  1  0.84597352  0.30711080  0.53143192  1
  O  O24  1  0.57035401  0.68077432  0.97540983  1
  O  O25  1  0.11705261  0.43232594  0.97973081  1
  O  O26  1  0.32411904  0.88680684  0.98057580  1
  O  O27  1  0.56767406  0.88294739  0.47973081  1
  O  O28  1  0.31922568  0.42964599  0.47540983  1
  O  O29  1  0.11319316  0.67588096  0.48057580  1
  O  O30  1  0.13457406  0.64308680  0.36351688  1
  O  O31  1  0.50887554  0.86650299  0.36276234  1
  O  O32  1  0.35955520  0.48736048  0.36476592  1
  O  O33  1  0.13349701  0.49112446  0.86276234  1
  O  O34  1  0.35691320  0.86542594  0.86351688  1
  O  O35  1  0.51263952  0.64044480  0.86476592  1
  O  O36  1  0.99550915  0.81143136  0.41436006  1
  O  O37  1  0.81772892  0.01428348  0.41187122  1
  O  O38  1  0.21662831  0.19575177  0.40816127  1
  O  O39  1  0.98571652  0.18227108  0.91187122  1
  O  O40  1  0.18856864  0.00449085  0.91436006  1
  O  O41  1  0.80424823  0.78337169  0.90816127  1
  O  O42  1  0.95385516  0.14842998  0.58413995  1
  O  O43  1  0.18283941  0.03808120  0.58572542  1
  O  O44  1  0.85000400  0.81957259  0.58553102  1
  O  O45  1  0.96191880  0.81716059  0.08572542  1
  O  O46  1  0.85157002  0.04614484  0.08413995  1
  O  O47  1  0.18042741  0.14999600  0.08553102  1
  O  O48  1  0.66217615  0.14476436  0.74769306  1
  O  O49  1  0.48439592  0.34761648  0.74520422  1
  O  O50  1  0.88329531  0.52908477  0.74149427  1
  O  O51  1  0.65238352  0.51560408  0.24520422  1
  O  O52  1  0.85523564  0.33782385  0.24769306  1
  O  O53  1  0.47091523  0.11670469  0.24149427  1
  O  O54  1  0.62052216  0.48176298  0.91747295  1
  O  O55  1  0.84950641  0.37141420  0.91905842  1
  O  O56  1  0.51667100  0.15290559  0.91886402  1
  O  O57  1  0.62858580  0.15049359  0.41905842  1
  O  O58  1  0.51823702  0.37947784  0.41747295  1
  O  O59  1  0.84709441  0.48332900  0.41886402  1
  O  O60  1  0.32884215  0.47809836  0.08102706  1
  O  O61  1  0.15106192  0.68095048  0.07853822  1
  O  O62  1  0.54996131  0.86241877  0.07482827  1
  O  O63  1  0.31904952  0.84893808  0.57853822  1
  O  O64  1  0.52190164  0.67115785  0.58102706  1
  O  O65  1  0.13758123  0.45003869  0.57482827  1
  O  O66  1  0.28718816  0.81509698  0.25080695  1
  O  O67  1  0.51617241  0.70474820  0.25239242  1
  O  O68  1  0.18333700  0.48623959  0.25219802  1
  O  O69  1  0.29525180  0.48382759  0.75239242  1
  O  O70  1  0.18490302  0.71281184  0.75080695  1
  O  O71  1  0.51376041  0.81666300  0.75219802  1
loop_
_geom_bond_atom_site_label_1
_geom_bond_atom_site_label_2
_geom_bond_distance
_geom_bond_site_symmetry_2
Na0 O53 2.395484 1_555
Na0 O67 2.527750 1_545
Na0 O16 2.563122 1_555
Na0 O52 2.782572 1_555
Na0 O31 2.886808 1_545
Na1 O17 2.327459 1_555
Na1 O51 2.419760 1_555
Na1 O68 2.491404 1_555
Na1 O67 2.817300 1_555
Na2 O15 2.413872 1_555
Na2 O52 2.418451 1_555
Na2 O66 2.502508 1_655
Na2 O68 2.793528 1_655
Na2 O51 2.861382 1_555
Na2 O30 2.941868 1_655
Na3 O14 2.327459 1_555
Na3 O49 2.419760 1_555
Na3 O71 2.491404 1_555
Na3 O69 2.817300 1_555
Na4 O50 2.395484 1_555
Na4 O69 2.527750 1_655
Na4 O12 2.563122 1_555
Na4 O48 2.782573 1_555
Na4 O33 2.886808 1_655
Na5 O13 2.413872 1_555
Na5 O48 2.418451 1_555
Na5 O70 2.502508 1_545
Na5 O71 2.793528 1_545
Na5 O49 2.861382 1_555
Na5 O34 2.941868 1_545
Na6 O65 2.395499 1_555
Na6 O43 2.527750 1_555
Na6 O28 2.563105 1_555
Na6 O64 2.782578 1_555
Na6 O7 2.886808 1_555
Na7 O29 2.327432 1_555
Na7 O63 2.419753 1_555
Na7 O44 2.491404 1_455
Na7 O43 2.817300 1_565
Na8 O27 2.413852 1_555
Na8 O64 2.418442 1_555
Na8 O42 2.502508 1_565
Na8 O44 2.793528 1_555
Na8 O63 2.861392 1_555
Na8 O6 2.941868 1_555
Na9 O26 2.327432 1_554
Na9 O61 2.419752 1_555
Na9 O47 2.491404 1_565
Na9 O45 2.817300 1_455
Na10 O62 2.395499 1_555
Na10 O45 2.527750 1_555
Na10 O24 2.563105 1_554
Na10 O60 2.782578 1_555
Na10 O9 2.886808 1_555
Na11 O25 2.413852 1_554
Na11 O60 2.418442 1_555
Na11 O46 2.502508 1_455
Na11 O47 2.793528 1_555
Na11 O61 2.861392 1_555
Na11 O10 2.941868 1_555
Na12 O41 2.395484 1_555
Na12 O55 2.527758 1_555
Na12 O4 2.563122 1_555
Na12 O40 2.782572 1_665
Na12 O19 2.886789 1_556
Na13 O5 2.327459 1_555
Na13 O39 2.419760 1_555
Na13 O56 2.491385 1_555
Na13 O55 2.817289 1_555
Na14 O3 2.413872 1_555
Na14 O40 2.418451 1_555
Na14 O54 2.502513 1_555
Na14 O56 2.793544 1_555
Na14 O39 2.861382 1_455
Na14 O18 2.941854 1_556
Na15 O2 2.327459 1_555
Na15 O37 2.419760 1_555
Na15 O59 2.491385 1_555
Na15 O57 2.817289 1_555
Na16 O38 2.395484 1_555
Na16 O57 2.527759 1_555
Na16 O0 2.563122 1_555
Na16 O36 2.782573 1_445
Na16 O21 2.886789 1_555
Na17 O1 2.413872 1_555
Na17 O36 2.418451 1_555
Na17 O58 2.502513 1_555
Na17 O59 2.793544 1_555
Na17 O37 2.861382 1_565
Na17 O22 2.941854 1_555
Na18 O44 2.438712 1_555
Na18 O43 2.559683 1_665
Na18 O36 2.569836 1_555
Na18 O42 2.582923 1_565
Na18 O37 2.678860 1_565
Na18 O38 2.955197 1_665
Na19 O47 2.438712 1_556
Na19 O45 2.559683 1_446
Na19 O40 2.569836 1_555
Na19 O46 2.582923 1_456
Na19 O39 2.678860 1_455
Na19 O41 2.955197 1_445
Na20 O56 2.438712 1_555
Na20 O55 2.559683 1_555
Na20 O48 2.569836 1_555
Na20 O54 2.582923 1_555
Na20 O49 2.678860 1_555
Na20 O50 2.955197 1_555
Na21 O59 2.438712 1_555
Na21 O57 2.559683 1_555
Na21 O52 2.569836 1_555
Na21 O58 2.582923 1_555
Na21 O51 2.678860 1_555
Na21 O53 2.955197 1_555
Na22 O68 2.438712 1_555
Na22 O67 2.559683 1_555
Na22 O60 2.569836 1_555
Na22 O66 2.582923 1_555
Na22 O61 2.678860 1_555
Na22 O62 2.955197 1_555
Na23 O71 2.438712 1_555
Na23 O69 2.559683 1_555
Na23 O64 2.569836 1_555
Na23 O70 2.582923 1_555
Na23 O63 2.678860 1_555
Na23 O65 2.955197 1_555
La0 O1 2.254516 1_555
La0 O2 2.264760 1_565
La0 O37 2.354283 1_565
La0 O0 2.373917 1_665
La0 O36 2.390145 1_555
La0 O38 2.487635 1_665
La1 O3 2.254516 1_555
La1 O5 2.264760 1_455
La1 O39 2.354283 1_455
La1 O4 2.373917 1_445
La1 O40 2.390145 1_555
La1 O41 2.487635 1_445
La2 O13 2.254516 1_555
La2 O14 2.264760 1_555
La2 O49 2.354283 1_555
La2 O12 2.373917 1_555
La2 O48 2.390145 1_555
La2 O50 2.487635 1_555
La3 O15 2.254516 1_555
La3 O17 2.264760 1_555
La3 O51 2.354283 1_555
La3 O16 2.373917 1_555
La3 O52 2.390145 1_555
La3 O53 2.487635 1_555
La4 O25 2.254516 1_554
La4 O26 2.264760 1_554
La4 O61 2.354283 1_555
La4 O24 2.373917 1_554
La4 O60 2.390145 1_555
La4 O62 2.487635 1_555
La5 O27 2.254516 1_555
La5 O29 2.264760 1_555
La5 O63 2.354283 1_555
La5 O28 2.373917 1_555
La5 O64 2.390145 1_555
La5 O65 2.487635 1_555
O0 P0 1.533340 1_545
O1 Si0 1.618417 1_555
O2 Si1 1.613730 1_655
O3 Si2 1.618417 1_555
O4 P1 1.533340 1_655
O5 Si3 1.613730 1_545
O6 Si3 1.689533 1_555
O6 Zr0 2.091525 1_565
O7 Si2 1.690726 1_555
O7 Zr0 2.091399 1_455
O8 P1 1.580184 1_555
O8 Zr0 2.189124 1_465
O9 Si0 1.690726 1_555
O9 Zr1 2.091399 1_565
O10 Si1 1.689532 1_555
O10 Zr1 2.091525 1_455
O11 P0 1.580185 1_555
O11 Zr1 2.189124 1_465
O12 P2 1.533340 1_555
O13 Si4 1.618417 1_555
O14 Si5 1.613730 1_555
O15 Si6 1.618417 1_555
O16 P3 1.533340 1_555
O17 Si7 1.613730 1_555
O18 Si7 1.689533 1_555
O18 Zr2 2.091525 1_554
O19 Si6 1.690726 1_555
O19 Zr2 2.091399 1_554
O20 P3 1.580184 1_555
O20 Zr2 2.189124 1_554
O21 Si4 1.690726 1_555
O21 Zr3 2.091399 1_555
O22 Si5 1.689532 1_555
O22 Zr3 2.091525 1_555
O23 P2 1.580185 1_555
O23 Zr3 2.189124 1_555
O24 P4 1.533340 1_555
O25 Si8 1.618417 1_555
O26 Si9 1.613730 1_555
O27 Si10 1.618417 1_555
O28 P5 1.533340 1_555
O29 Si11 1.613730 1_555
O30 Si11 1.689533 1_555
O30 Zr4 2.091525 1_555
O31 Si10 1.690726 1_555
O31 Zr4 2.091399 1_555
O32 P5 1.580184 1_555
O32 Zr4 2.189124 1_555
O33 Si8 1.690726 1_555
O33 Zr5 2.091399 1_555
O34 Si9 1.689532 1_555
O34 Zr5 2.091525 1_555
O35 P4 1.580185 1_555
O35 Zr5 2.189124 1_555
O36 Si11 1.635158 1_655
O37 Si10 1.630843 1_545
O38 P5 1.536278 1_555
O39 Si8 1.630843 1_655
O40 Si9 1.635158 1_545
O41 P4 1.536278 1_555
O42 P2 1.575590 1_555
O42 Zr0 2.216050 1_555
O43 Si4 1.668792 1_555
O43 Zr0 2.151245 1_455
O44 Si5 1.668512 1_555
O44 Zr0 2.166483 1_565
O45 Si6 1.668792 1_555
O45 Zr1 2.151245 1_565
O46 P3 1.575590 1_555
O46 Zr1 2.216050 1_555
O47 Si7 1.668512 1_555
O47 Zr1 2.166483 1_455
O48 Si3 1.635158 1_545
O49 Si2 1.630843 1_555
O50 P1 1.536278 1_655
O51 Si0 1.630843 1_555
O52 Si1 1.635158 1_655
O53 P0 1.536278 1_545
O54 P4 1.575603 1_555
O54 Zr2 2.216050 1_555
O55 Si8 1.668778 1_655
O55 Zr2 2.151245 1_555
O56 Si9 1.668512 1_545
O56 Zr2 2.166483 1_555
O57 Si10 1.668778 1_545
O57 Zr3 2.151245 1_555
O58 P5 1.575603 1_555
O58 Zr3 2.216050 1_555
O59 Si11 1.668512 1_655
O59 Zr3 2.166483 1_555
O60 Si7 1.635172 1_555
O61 Si6 1.630828 1_455
O62 P3 1.536272 1_565
O63 Si4 1.630828 1_565
O64 Si5 1.635172 1_555
O65 P2 1.536272 1_455
O66 P0 1.575590 1_555
O66 Zr4 2.216050 1_555
O67 Si0 1.668792 1_555
O67 Zr4 2.151245 1_555
O68 Si1 1.668512 1_555
O68 Zr4 2.166483 1_555
O69 Si2 1.668792 1_555
O69 Zr5 2.151245 1_555
O70 P1 1.575590 1_555
O70 Zr5 2.216050 1_555
O71 Si3 1.668512 1_555
O71 Zr5 2.166483 1_555
