# generated using pymatgen
data_Na3TaInSi2PO12
_symmetry_space_group_name_H-M   'P 1'
_cell_length_a   9.12042046
_cell_length_b   9.12042014
_cell_length_c   22.45827881
_cell_angle_alpha   89.52537413
_cell_angle_beta   90.47462591
_cell_angle_gamma   119.88994974
_symmetry_Int_Tables_number   1
_chemical_formula_structural   Na3TaInSi2PO12
_chemical_formula_sum   'Na18 Ta6 In6 Si12 P6 O72'
_cell_volume   1619.56153823
_cell_formula_units_Z   6
loop_
 _symmetry_equiv_pos_site_id
 _symmetry_equiv_pos_as_xyz
  1  'x, y, z'
loop_
 _atom_site_type_symbol
 _atom_site_label
 _atom_site_symmetry_multiplicity
 _atom_site_fract_x
 _atom_site_fract_y
 _atom_site_fract_z
 _atom_site_occupancy
  Na  Na0  1  0.99312293  0.99130007  0.49376075  1
  Na  Na1  1  0.00869993  0.00687707  0.99376075  1
  Na  Na2  1  0.65978993  0.32463307  0.82709375  1
  Na  Na3  1  0.67536693  0.34021007  0.32709375  1
  Na  Na4  1  0.32645593  0.65796707  0.16042775  1
  Na  Na5  1  0.34203293  0.67354407  0.66042775  1
  Na  Na6  1  0.65465040  0.01623899  0.25026657  1
  Na  Na7  1  0.98008263  0.62148761  0.24702981  1
  Na  Na8  1  0.98376101  0.34534960  0.75026657  1
  Na  Na9  1  0.37851239  0.01991737  0.74702981  1
  Na  Na10  1  0.32131740  0.34957199  0.58359957  1
  Na  Na11  1  0.64674963  0.95482061  0.58036281  1
  Na  Na12  1  0.65042801  0.67868260  0.08359957  1
  Na  Na13  1  0.04517939  0.35325037  0.08036281  1
  Na  Na14  1  0.98798340  0.68290599  0.91693357  1
  Na  Na15  1  0.31341563  0.28815461  0.91369681  1
  Na  Na16  1  0.31709401  0.01201660  0.41693357  1
  Na  Na17  1  0.71184539  0.68658437  0.41369681  1
  Ta  Ta0  1  0.99654377  0.99556284  0.64643091  1
  Ta  Ta1  1  0.00443716  0.00345623  0.14643091  1
  Ta  Ta2  1  0.66321077  0.32889584  0.97976391  1
  Ta  Ta3  1  0.67110416  0.33678923  0.47976391  1
  Ta  Ta4  1  0.32987677  0.66222984  0.31309791  1
  Ta  Ta5  1  0.33777016  0.67012323  0.81309791  1
  In  In0  1  0.99712828  0.00347327  0.35026917  1
  In  In1  1  0.99652673  0.00287172  0.85026917  1
  In  In2  1  0.66379528  0.33680627  0.68360217  1
  In  In3  1  0.66319373  0.33620472  0.18360217  1
  In  In4  1  0.33046128  0.67014027  0.01693617  1
  In  In5  1  0.32985973  0.66953872  0.51693617  1
  Si  Si0  1  0.70139692  0.70437989  0.25160506  1
  Si  Si1  1  0.00406810  0.29673345  0.24866222  1
  Si  Si2  1  0.29562011  0.29860308  0.75160506  1
  Si  Si3  1  0.70326655  0.99593190  0.74866222  1
  Si  Si4  1  0.36806392  0.03771289  0.58493806  1
  Si  Si5  1  0.67073510  0.63006645  0.58199522  1
  Si  Si6  1  0.96228711  0.63193608  0.08493806  1
  Si  Si7  1  0.36993355  0.32926490  0.08199522  1
  Si  Si8  1  0.03472992  0.37104689  0.91827206  1
  Si  Si9  1  0.33740110  0.96340045  0.91532922  1
  Si  Si10  1  0.62895311  0.96527008  0.41827206  1
  Si  Si11  1  0.03659955  0.66259890  0.41532922  1
  P  P0  1  0.29091044  0.99400196  0.25238072  1
  P  P1  1  0.00599804  0.70908956  0.75238072  1
  P  P2  1  0.95757744  0.32733496  0.58571372  1
  P  P3  1  0.67266504  0.04242256  0.08571372  1
  P  P4  1  0.62424344  0.66066896  0.91904772  1
  P  P5  1  0.33933104  0.37575656  0.41904772  1
  O  O0  1  0.22348811  0.01962481  0.31075169  1
  O  O1  1  0.81200365  0.77936547  0.31136401  1
  O  O2  1  0.96575640  0.17809875  0.30557273  1
  O  O3  1  0.22063453  0.18799635  0.81136401  1
  O  O4  1  0.98037519  0.77651189  0.81075169  1
  O  O5  1  0.82190125  0.03424360  0.80557273  1
  O  O6  1  0.80020289  0.97245090  0.68914887  1
  O  O7  1  0.16297595  0.19327306  0.69371293  1
  O  O8  1  0.02331466  0.83167827  0.69897335  1
  O  O9  1  0.80672694  0.83702405  0.19371293  1
  O  O10  1  0.02754910  0.19979711  0.18914887  1
  O  O11  1  0.16832173  0.97668534  0.19897335  1
  O  O12  1  0.89015511  0.35295781  0.64408469  1
  O  O13  1  0.47867065  0.11269847  0.64469701  1
  O  O14  1  0.63242340  0.51143175  0.63890573  1
  O  O15  1  0.88730153  0.52132935  0.14469701  1
  O  O16  1  0.64704219  0.10984489  0.14408469  1
  O  O17  1  0.48856825  0.36757660  0.13890573  1
  O  O18  1  0.46686989  0.30578390  0.02248187  1
  O  O19  1  0.82964295  0.52660606  0.02704593  1
  O  O20  1  0.68998166  0.16501127  0.03230635  1
  O  O21  1  0.47339394  0.17035705  0.52704593  1
  O  O22  1  0.69421610  0.53313011  0.52248187  1
  O  O23  1  0.83498873  0.31001834  0.53230635  1
  O  O24  1  0.55682111  0.68629181  0.97741869  1
  O  O25  1  0.14533665  0.44603247  0.97803101  1
  O  O26  1  0.29908940  0.84476575  0.97223973  1
  O  O27  1  0.55396753  0.85466335  0.47803101  1
  O  O28  1  0.31370819  0.44317889  0.47741869  1
  O  O29  1  0.15523425  0.70091060  0.47223973  1
  O  O30  1  0.13353589  0.63911790  0.35581587  1
  O  O31  1  0.49630895  0.85994006  0.36037993  1
  O  O32  1  0.35664766  0.49834527  0.36564035  1
  O  O33  1  0.14005994  0.50369105  0.86037993  1
  O  O34  1  0.36088210  0.86646411  0.85581587  1
  O  O35  1  0.50165473  0.64335234  0.86564035  1
  O  O36  1  0.01294182  0.82768024  0.41126801  1
  O  O37  1  0.81484013  0.98836160  0.41311747  1
  O  O38  1  0.20023754  0.19273679  0.41042981  1
  O  O39  1  0.01163840  0.18515987  0.91311747  1
  O  O40  1  0.17231976  0.98705818  0.91126801  1
  O  O41  1  0.80726321  0.79976246  0.91042981  1
  O  O42  1  0.95464095  0.15282696  0.58672721  1
  O  O43  1  0.18663468  0.04097284  0.58977745  1
  O  O44  1  0.84405879  0.81875130  0.58875127  1
  O  O45  1  0.95902716  0.81336532  0.08977745  1
  O  O46  1  0.84717304  0.04535905  0.08672721  1
  O  O47  1  0.18124870  0.15594121  0.08875127  1
  O  O48  1  0.67960882  0.16101324  0.74460101  1
  O  O49  1  0.48150713  0.32169460  0.74645047  1
  O  O50  1  0.86690454  0.52606979  0.74376281  1
  O  O51  1  0.67830540  0.51849287  0.24645047  1
  O  O52  1  0.83898676  0.32039118  0.24460101  1
  O  O53  1  0.47393021  0.13309546  0.24376281  1
  O  O54  1  0.62130795  0.48615996  0.92006021  1
  O  O55  1  0.85330168  0.37430584  0.92311045  1
  O  O56  1  0.51072579  0.15208430  0.92208427  1
  O  O57  1  0.62569416  0.14669832  0.42311045  1
  O  O58  1  0.51384004  0.37869205  0.42006021  1
  O  O59  1  0.84791570  0.48927421  0.42208427  1
  O  O60  1  0.34627482  0.49434724  0.07793501  1
  O  O61  1  0.14817313  0.65502860  0.07978447  1
  O  O62  1  0.53357054  0.85940379  0.07709681  1
  O  O63  1  0.34497140  0.85182687  0.57978447  1
  O  O64  1  0.50565276  0.65372518  0.57793501  1
  O  O65  1  0.14059621  0.46642946  0.57709681  1
  O  O66  1  0.28797395  0.81949396  0.25339421  1
  O  O67  1  0.51996768  0.70763984  0.25644445  1
  O  O68  1  0.17739179  0.48541830  0.25541827  1
  O  O69  1  0.29236016  0.48003232  0.75644445  1
  O  O70  1  0.18050604  0.71202605  0.75339421  1
  O  O71  1  0.51458170  0.82260821  0.75541827  1
loop_
_geom_bond_atom_site_label_1
_geom_bond_atom_site_label_2
_geom_bond_distance
_geom_bond_site_symmetry_2
Na0 O37 2.415231 1_555
Na0 O36 2.451951 1_655
Na0 O44 2.595382 1_555
Na0 O38 2.643602 1_665
Na0 O43 2.669513 1_665
Na0 O42 2.689069 1_565
Na1 O39 2.415231 1_555
Na1 O40 2.451951 1_545
Na1 O47 2.595383 1_556
Na1 O41 2.643602 1_445
Na1 O45 2.669513 1_446
Na1 O46 2.689069 1_456
Na2 O49 2.415231 1_555
Na2 O48 2.451951 1_555
Na2 O56 2.595382 1_555
Na2 O50 2.643602 1_555
Na2 O55 2.669513 1_555
Na2 O54 2.689069 1_555
Na3 O51 2.415231 1_555
Na3 O52 2.451951 1_555
Na3 O59 2.595383 1_555
Na3 O53 2.643602 1_555
Na3 O57 2.669513 1_555
Na3 O58 2.689069 1_555
Na4 O61 2.415231 1_555
Na4 O60 2.451951 1_555
Na4 O68 2.595382 1_555
Na4 O62 2.643602 1_555
Na4 O67 2.669513 1_555
Na4 O66 2.689069 1_555
Na5 O63 2.415231 1_555
Na5 O64 2.451951 1_555
Na5 O71 2.595383 1_555
Na5 O65 2.643602 1_555
Na5 O69 2.669513 1_555
Na5 O70 2.689069 1_555
Na6 O53 2.370270 1_555
Na6 O52 2.426370 1_555
Na6 O67 2.449573 1_545
Na6 O16 2.538277 1_555
Na6 O2 2.751401 1_555
Na6 O31 2.860440 1_545
Na6 O66 2.903384 1_545
Na6 O9 2.920903 1_545
Na7 O52 2.383148 1_555
Na7 O51 2.425016 1_555
Na7 O15 2.462613 1_555
Na7 O66 2.471939 1_655
Na7 O68 2.651466 1_655
Na7 O30 2.771129 1_655
Na8 O50 2.370270 1_555
Na8 O48 2.426370 1_555
Na8 O69 2.449573 1_655
Na8 O12 2.538277 1_555
Na8 O5 2.751401 1_555
Na8 O33 2.860440 1_655
Na8 O70 2.903384 1_655
Na8 O7 2.920903 1_655
Na9 O48 2.383148 1_555
Na9 O49 2.425016 1_555
Na9 O13 2.462613 1_555
Na9 O70 2.471939 1_545
Na9 O71 2.651466 1_545
Na9 O34 2.771129 1_545
Na10 O65 2.370285 1_555
Na10 O64 2.426375 1_555
Na10 O43 2.449573 1_555
Na10 O28 2.538260 1_555
Na10 O14 2.751401 1_555
Na10 O7 2.860440 1_555
Na10 O42 2.903384 1_455
Na10 O21 2.920903 1_555
Na11 O64 2.383139 1_555
Na11 O63 2.425026 1_555
Na11 O27 2.462592 1_555
Na11 O42 2.471939 1_565
Na11 O44 2.651466 1_555
Na11 O6 2.771129 1_555
Na12 O62 2.370285 1_555
Na12 O60 2.426375 1_555
Na12 O45 2.449573 1_555
Na12 O24 2.538260 1_554
Na12 O17 2.751401 1_555
Na12 O9 2.860440 1_555
Na12 O46 2.903384 1_565
Na12 O19 2.920903 1_555
Na13 O60 2.383139 1_555
Na13 O61 2.425026 1_555
Na13 O25 2.462592 1_554
Na13 O46 2.471939 1_455
Na13 O47 2.651466 1_555
Na13 O10 2.771129 1_555
Na14 O41 2.370270 1_555
Na14 O40 2.426370 1_655
Na14 O55 2.449581 1_555
Na14 O4 2.538277 1_555
Na14 O26 2.751401 1_655
Na14 O19 2.860420 1_556
Na14 O54 2.903376 1_555
Na14 O33 2.920903 1_655
Na15 O40 2.383148 1_545
Na15 O39 2.425016 1_555
Na15 O3 2.462613 1_555
Na15 O54 2.471944 1_555
Na15 O56 2.651481 1_555
Na15 O18 2.771115 1_556
Na16 O38 2.370270 1_555
Na16 O36 2.426370 1_545
Na16 O57 2.449581 1_555
Na16 O0 2.538277 1_555
Na16 O29 2.751401 1_545
Na16 O21 2.860420 1_555
Na16 O58 2.903376 1_555
Na16 O31 2.920903 1_545
Na17 O36 2.383148 1_655
Na17 O37 2.425016 1_555
Na17 O1 2.462613 1_555
Na17 O58 2.471944 1_555
Na17 O59 2.651481 1_555
Na17 O22 2.771115 1_555
In0 O2 2.012210 1_555
In0 O1 2.087467 1_545
In0 O37 2.140691 1_545
In0 O36 2.158450 1_645
In0 O0 2.190109 1_655
In0 O38 2.246522 1_655
In1 O5 2.012210 1_555
In1 O3 2.087467 1_655
In1 O39 2.140691 1_655
In1 O40 2.158450 1_645
In1 O4 2.190109 1_545
In1 O41 2.246522 1_545
In2 O14 2.012210 1_555
In2 O13 2.087467 1_555
In2 O49 2.140691 1_555
In2 O48 2.158450 1_555
In2 O12 2.190109 1_555
In2 O50 2.246522 1_555
In3 O17 2.012210 1_555
In3 O15 2.087467 1_555
In3 O51 2.140691 1_555
In3 O52 2.158450 1_555
In3 O16 2.190109 1_555
In3 O53 2.246522 1_555
In4 O26 2.012210 1_554
In4 O25 2.087467 1_554
In4 O61 2.140691 1_555
In4 O60 2.158450 1_555
In4 O24 2.190109 1_554
In4 O62 2.246522 1_555
In5 O29 2.012210 1_555
In5 O27 2.087467 1_555
In5 O63 2.140691 1_555
In5 O64 2.158450 1_555
In5 O28 2.190109 1_555
In5 O65 2.246522 1_555
O0 P0 1.520816 1_545
O1 Si0 1.609879 1_555
O2 Si1 1.591873 1_655
O3 Si2 1.609879 1_555
O4 P1 1.520816 1_655
O5 Si3 1.591873 1_545
O6 Si3 1.681349 1_555
O6 Ta0 1.954579 1_555
O7 Si2 1.706793 1_555
O7 Ta0 1.990029 1_445
O8 P1 1.587004 1_555
O8 Ta0 2.003971 1_455
O9 Si0 1.706793 1_555
O9 Ta1 1.990029 1_665
O10 Si1 1.681349 1_555
O10 Ta1 1.954578 1_555
O11 P0 1.587004 1_555
O11 Ta1 2.003971 1_565
O12 P2 1.520816 1_555
O13 Si4 1.609879 1_555
O14 Si5 1.591873 1_555
O15 Si6 1.609879 1_555
O16 P3 1.520816 1_555
O17 Si7 1.591873 1_555
O18 Si7 1.681349 1_555
O18 Ta2 1.954579 1_554
O19 Si6 1.706793 1_555
O19 Ta2 1.990029 1_554
O20 P3 1.587004 1_555
O20 Ta2 2.003971 1_554
O21 Si4 1.706793 1_555
O21 Ta3 1.990029 1_555
O22 Si5 1.681349 1_555
O22 Ta3 1.954578 1_555
O23 P2 1.587004 1_555
O23 Ta3 2.003971 1_555
O24 P4 1.520816 1_555
O25 Si8 1.609879 1_555
O26 Si9 1.591873 1_555
O27 Si10 1.609879 1_555
O28 P5 1.520816 1_555
O29 Si11 1.591873 1_555
O30 Si11 1.681349 1_555
O30 Ta4 1.954579 1_555
O31 Si10 1.706793 1_555
O31 Ta4 1.990029 1_555
O32 P5 1.587004 1_555
O32 Ta4 2.003971 1_555
O33 Si8 1.706793 1_555
O33 Ta5 1.990029 1_555
O34 Si9 1.681349 1_555
O34 Ta5 1.954578 1_555
O35 P4 1.587004 1_555
O35 Ta5 2.003971 1_555
O36 Si11 1.625706 1_555
O37 Si10 1.605930 1_555
O38 P5 1.524417 1_555
O39 Si8 1.605930 1_555
O40 Si9 1.625706 1_555
O41 P4 1.524417 1_555
O42 P2 1.578388 1_555
O42 Ta0 2.123005 1_545
O43 Si4 1.674166 1_555
O43 Ta0 2.026893 1_445
O44 Si5 1.665054 1_555
O44 Ta0 1.995534 1_555
O45 Si6 1.674166 1_555
O45 Ta1 2.026893 1_665
O46 P3 1.578388 1_555
O46 Ta1 2.123005 1_655
O47 Si7 1.665054 1_555
O47 Ta1 1.995534 1_555
O48 Si3 1.625706 1_545
O49 Si2 1.605930 1_555
O50 P1 1.524417 1_655
O51 Si0 1.605930 1_555
O52 Si1 1.625706 1_655
O53 P0 1.524417 1_545
O54 P4 1.578401 1_555
O54 Ta2 2.123005 1_555
O55 Si8 1.674151 1_655
O55 Ta2 2.026893 1_555
O56 Si9 1.665051 1_545
O56 Ta2 1.995534 1_555
O57 Si10 1.674151 1_545
O57 Ta3 2.026893 1_555
O58 P5 1.578401 1_555
O58 Ta3 2.123005 1_555
O59 Si11 1.665051 1_655
O59 Ta3 1.995534 1_555
O60 Si7 1.625720 1_555
O61 Si6 1.605916 1_455
O62 P3 1.524411 1_565
O63 Si4 1.605916 1_565
O64 Si5 1.625720 1_555
O65 P2 1.524411 1_455
O66 P0 1.578388 1_555
O66 Ta4 2.123005 1_555
O67 Si0 1.674166 1_555
O67 Ta4 2.026893 1_555
O68 Si1 1.665054 1_555
O68 Ta4 1.995534 1_555
O69 Si2 1.674166 1_555
O69 Ta5 2.026893 1_555
O70 P1 1.578388 1_555
O70 Ta5 2.123005 1_555
O71 Si3 1.665054 1_555
O71 Ta5 1.995534 1_555
