# generated using pymatgen
data_MgTi2(CoO2)4
_symmetry_space_group_name_H-M   'P 1'
_cell_length_a   6.82576279
_cell_length_b   6.81919886
_cell_length_c   5.87559505
_cell_angle_alpha   64.49411331
_cell_angle_beta   64.47563374
_cell_angle_gamma   50.89453386
_symmetry_Int_Tables_number   1
_chemical_formula_structural   MgTi2(CoO2)4
_chemical_formula_sum   'Mg1 Ti2 Co4 O8'
_cell_volume   186.51911819
_cell_formula_units_Z   1
loop_
 _symmetry_equiv_pos_site_id
 _symmetry_equiv_pos_as_xyz
  1  'x, y, z'
loop_
 _atom_site_type_symbol
 _atom_site_label
 _atom_site_symmetry_multiplicity
 _atom_site_fract_x
 _atom_site_fract_y
 _atom_site_fract_z
 _atom_site_occupancy
  Mg  Mg0  1  0.50692700  0.51148300  0.49090000  1
  Ti  Ti0  1  0.05173300  0.56870300  0.68927100  1
  Ti  Ti1  1  0.57068800  0.05147300  0.68931500  1
  Co  Co0  1  0.00161500  0.00024900  0.99898800  1
  Co  Co1  1  0.23735500  0.23991800  0.26133700  1
  Co  Co2  1  0.68450400  0.68307200  0.05930200  1
  Co  Co3  1  0.68386100  0.68363500  0.57328700  1
  O  O0  1  0.35890200  0.35891100  0.43106300  1
  O  O1  1  0.40823300  0.86722800  0.36272800  1
  O  O2  1  0.35849800  0.35915700  0.85119500  1
  O  O3  1  0.86460200  0.40731500  0.36373800  1
  O  O4  1  0.38867800  0.88964800  0.86132500  1
  O  O5  1  0.88983300  0.38713600  0.86108200  1
  O  O6  1  0.87228600  0.87099900  0.40512600  1
  O  O7  1  0.87228300  0.87107200  0.85134400  1
loop_
_geom_bond_atom_site_label_1
_geom_bond_atom_site_label_2
_geom_bond_distance
_geom_bond_site_symmetry_2
Mg0 O1 1.925670 1_555
Mg0 O3 1.928892 1_555
Mg0 O2 2.042645 1_555
Mg0 O0 2.043091 1_555
Co0 O5 2.086029 1_455
Co0 O4 2.091241 1_545
Co0 O6 2.146005 1_446
Co0 O7 2.146366 1_445
Co1 O1 1.931261 1_545
Co1 O3 1.935715 1_455
Co1 O2 2.143733 1_554
Co1 O0 2.144853 1_555
Co2 O7 2.038027 1_554
Co2 O3 2.080611 1_555
Co2 O1 2.086850 1_555
Co2 O4 2.107021 1_554
Co2 O5 2.107770 1_554
Co3 O6 2.038016 1_555
Co3 O1 2.082823 1_555
Co3 O3 2.084436 1_555
Co3 O4 2.106086 1_555
Co3 O5 2.107703 1_555
O0 Ti0 2.021966 1_555
O0 Ti1 2.028539 1_555
O2 Ti1 2.025487 1_555
O2 Ti0 2.025582 1_555
O4 Ti1 1.862673 1_565
O5 Ti0 1.860521 1_655
O6 Ti0 2.037202 1_655
O6 Ti1 2.037663 1_565
O7 Ti1 2.035491 1_565
O7 Ti0 2.039212 1_655
