# generated using pymatgen
data_MgFe8(OF)8
_symmetry_space_group_name_H-M   'P 1'
_cell_length_a   9.73487299
_cell_length_b   9.81720241
_cell_length_c   3.10380294
_cell_angle_alpha   90.25711384
_cell_angle_beta   89.91041911
_cell_angle_gamma   92.62079376
_symmetry_Int_Tables_number   1
_chemical_formula_structural   MgFe8(OF)8
_chemical_formula_sum   'Mg1 Fe8 O8 F8'
_cell_volume   296.31450326
_cell_formula_units_Z   1
loop_
 _symmetry_equiv_pos_site_id
 _symmetry_equiv_pos_as_xyz
  1  'x, y, z'
loop_
 _atom_site_type_symbol
 _atom_site_label
 _atom_site_symmetry_multiplicity
 _atom_site_fract_x
 _atom_site_fract_y
 _atom_site_fract_z
 _atom_site_occupancy
  Mg  Mg0  1  0.25839600  0.99442500  0.02806800  1
  Fe  Fe0  1  0.98809200  0.01166700  0.98466900  1
  Fe  Fe1  1  0.98652200  0.50724300  0.01026700  1
  Fe  Fe2  1  0.20421800  0.28139800  0.51466000  1
  Fe  Fe3  1  0.22154000  0.72694000  0.51908000  1
  Fe  Fe4  1  0.51774500  0.49890600  0.00906900  1
  Fe  Fe5  1  0.54497400  0.98167300  0.01048000  1
  Fe  Fe6  1  0.74917500  0.28728800  0.50304800  1
  Fe  Fe7  1  0.75432600  0.71565700  0.50884200  1
  O  O0  1  0.08359100  0.41545900  0.51035200  1
  O  O1  1  0.14780100  0.91137100  0.52454900  1
  O  O2  1  0.15266700  0.16094800  0.01277800  1
  O  O3  1  0.14635100  0.64789800  0.01768100  1
  O  O4  1  0.58630300  0.40189800  0.50700200  1
  O  O5  1  0.64707300  0.65208600  0.00889200  1
  O  O6  1  0.84117500  0.35639500  0.00393400  1
  O  O7  1  0.90024300  0.60097100  0.51026600  1
  F  F0  1  0.33853700  0.35519100  0.01233600  1
  F  F1  1  0.37658600  0.83448400  0.02030000  1
  F  F2  1  0.40154900  0.05965700  0.51710400  1
  F  F3  1  0.39691200  0.59361000  0.51512300  1
  F  F4  1  0.63771900  0.89247500  0.50846300  1
  F  F5  1  0.64735200  0.16041200  0.00052000  1
  F  F6  1  0.85633500  0.84416100  0.00156900  1
  F  F7  1  0.87871000  0.10778500  0.49094800  1
loop_
_geom_bond_atom_site_label_1
_geom_bond_atom_site_label_2
_geom_bond_distance
_geom_bond_site_symmetry_2
Mg0 O2 1.972027 1_565
Mg0 O1 2.030853 1_555
Mg0 O1 2.044481 1_554
Fe0 O2 2.122902 1_656
Fe0 O1 2.355142 1_645
Fe0 O1 2.521425 1_646
Fe1 O6 2.000927 1_555
Fe1 O7 2.003572 1_555
Fe1 O7 2.011990 1_554
Fe1 O3 2.032600 1_655
Fe1 O0 2.042833 1_654
Fe1 O0 2.051603 1_655
Fe2 O0 1.803554 1_555
Fe2 O2 2.000031 1_556
Fe2 O2 2.002078 1_555
Fe3 O3 1.867652 1_556
Fe3 O3 1.870980 1_555
Fe3 O1 1.977976 1_555
Fe4 O5 1.916595 1_555
Fe4 O4 1.953325 1_555
Fe4 O4 1.955070 1_554
Fe6 O6 1.900471 1_555
Fe6 O6 1.902276 1_556
Fe6 O4 1.985700 1_555
Fe7 O7 1.852500 1_555
Fe7 O5 1.955587 1_555
Fe7 O5 1.957686 1_556
F0 Fe2 2.128446 1_554
F0 Fe2 2.140689 1_555
F0 Fe4 2.192983 1_555
F1 Mg0 1.988621 1_555
F1 Fe5 2.135328 1_555
F1 Fe3 2.377207 1_555
F1 Fe3 2.379045 1_554
F2 Mg0 2.138310 1_545
F2 Mg0 2.188134 1_546
F2 Fe5 2.235069 1_546
F2 Fe5 2.255722 1_545
F3 Fe4 2.171851 1_556
F3 Fe4 2.190038 1_555
F3 Fe3 2.198228 1_555
F4 Fe5 2.014891 1_555
F4 Fe5 2.016306 1_556
F4 Fe7 2.117074 1_555
F5 Fe5 1.978315 1_545
F5 Fe6 2.194915 1_554
F5 Fe6 2.200292 1_555
F6 Fe0 2.039551 1_564
F6 Fe7 2.188459 1_554
F6 Fe7 2.225980 1_555
F7 Fe0 2.117191 1_555
F7 Fe0 2.137020 1_554
F7 Fe6 2.213467 1_555
