# generated using pymatgen
data_La2NiIrO6
_symmetry_space_group_name_H-M   'P 1'
_cell_length_a   5.78024811
_cell_length_b   9.66621870
_cell_length_c   9.69993251
_cell_angle_alpha   69.95806392
_cell_angle_beta   89.98524853
_cell_angle_gamma   89.97874182
_symmetry_Int_Tables_number   1
_chemical_formula_structural   La2NiIrO6
_chemical_formula_sum   'La8 Ni4 Ir4 O24'
_cell_volume   509.14533086
_cell_formula_units_Z   4
loop_
 _symmetry_equiv_pos_site_id
 _symmetry_equiv_pos_as_xyz
  1  'x, y, z'
loop_
 _atom_site_type_symbol
 _atom_site_label
 _atom_site_symmetry_multiplicity
 _atom_site_fract_x
 _atom_site_fract_y
 _atom_site_fract_z
 _atom_site_occupancy
  La  La0  1  0.55736600  0.86919500  0.38209300  1
  La  La1  1  0.55802700  0.36792000  0.88245500  1
  La  La2  1  0.05777300  0.63199000  0.61728700  1
  La  La3  1  0.05713700  0.13056900  0.11765700  1
  La  La4  1  0.94257000  0.36799000  0.38324200  1
  La  La5  1  0.94247200  0.86942000  0.88187600  1
  La  La6  1  0.44227700  0.13071600  0.61844700  1
  La  La7  1  0.44232600  0.63226200  0.11695400  1
  Ni  Ni0  1  0.00004200  0.49995900  0.00005400  1
  Ni  Ni1  1  0.49967100  0.49992700  0.49986500  1
  Ni  Ni2  1  0.00003500  0.00002100  0.49991000  1
  Ni  Ni3  1  0.50001900  0.00009500  0.00004700  1
  Ir  Ir0  1  0.99959600  0.74911400  0.25026900  1
  Ir  Ir1  1  0.00037800  0.25085300  0.74976800  1
  Ir  Ir2  1  0.49962300  0.25084000  0.24978100  1
  Ir  Ir3  1  0.50038800  0.74916300  0.75022600  1
  O  O0  1  0.52464200  0.91859800  0.82936700  1
  O  O1  1  0.52571800  0.42058700  0.32767600  1
  O  O2  1  0.02460000  0.08104400  0.67077600  1
  O  O3  1  0.02585800  0.57934600  0.17227200  1
  O  O4  1  0.47525200  0.08119100  0.17088200  1
  O  O5  1  0.47434800  0.57970000  0.67195400  1
  O  O6  1  0.97532800  0.91887200  0.32913000  1
  O  O7  1  0.97424800  0.42065000  0.82795700  1
  O  O8  1  0.79269200  0.82303500  0.62866100  1
  O  O9  1  0.79390600  0.32175400  0.12848700  1
  O  O10  1  0.29395200  0.67827100  0.37128000  1
  O  O11  1  0.29312300  0.17695000  0.87118800  1
  O  O12  1  0.20739300  0.17693200  0.37154800  1
  O  O13  1  0.20607100  0.67822000  0.87135600  1
  O  O14  1  0.70564600  0.32178800  0.62870600  1
  O  O15  1  0.70729500  0.82307300  0.12878900  1
  O  O16  1  0.20006800  0.37518900  0.57619000  1
  O  O17  1  0.19993000  0.87399600  0.07773000  1
  O  O18  1  0.69991000  0.12621300  0.42222000  1
  O  O19  1  0.69983700  0.62517200  0.92361500  1
  O  O20  1  0.80030200  0.62493200  0.42357900  1
  O  O21  1  0.79973700  0.12583300  0.92251900  1
  O  O22  1  0.29994800  0.87380600  0.57770200  1
  O  O23  1  0.30049600  0.37481500  0.07648600  1
loop_
_geom_bond_atom_site_label_1
_geom_bond_atom_site_label_2
_geom_bond_distance
_geom_bond_site_symmetry_2
La0 O4 2.396671 1_565
La0 O10 2.422822 1_555
La0 O22 2.423328 1_555
La0 O6 2.482405 1_555
La0 O8 2.653172 1_555
La0 O20 2.656160 1_555
La0 O18 2.768946 1_565
La0 O15 2.781408 1_555
La1 O5 2.393442 1_555
La1 O23 2.418071 1_556
La1 O11 2.429933 1_555
La1 O7 2.478504 1_555
La1 O21 2.636946 1_555
La1 O9 2.650421 1_556
La1 O19 2.774331 1_555
La1 O14 2.781382 1_555
La2 O7 2.391885 1_455
La2 O20 2.416481 1_455
La2 O8 2.430557 1_455
La2 O5 2.480065 1_555
La2 O22 2.637726 1_555
La2 O10 2.650492 1_555
La2 O16 2.770156 1_555
La2 O13 2.786435 1_555
La3 O6 2.396221 1_445
La3 O21 2.420627 1_454
La3 O9 2.423273 1_455
La3 O4 2.483185 1_555
La3 O11 2.653559 1_554
La3 O23 2.658602 1_555
La3 O17 2.763831 1_545
La3 O12 2.788916 1_555
La4 O3 2.393331 1_655
La4 O16 2.411179 1_655
La4 O12 2.430666 1_655
La4 O1 2.483275 1_555
La4 O18 2.639838 1_555
La4 O14 2.648387 1_555
La4 O20 2.768082 1_555
La4 O9 2.793365 1_555
La5 O2 2.394154 1_665
La5 O13 2.423808 1_655
La5 O17 2.425869 1_656
La5 O0 2.480368 1_555
La5 O15 2.654840 1_556
La5 O19 2.655560 1_555
La5 O21 2.765385 1_565
La5 O8 2.782006 1_555
La6 O0 2.396038 1_545
La6 O14 2.422139 1_555
La6 O18 2.428523 1_555
La6 O2 2.479939 1_555
La6 O12 2.654498 1_555
La6 O16 2.654506 1_555
La6 O22 2.770281 1_545
La6 O11 2.775393 1_555
La7 O1 2.393738 1_555
La7 O19 2.413271 1_554
La7 O15 2.430666 1_555
La7 O3 2.481273 1_555
La7 O17 2.637481 1_555
La7 O13 2.648277 1_554
La7 O23 2.773126 1_555
La7 O10 2.787430 1_555
Ni0 O7 2.067355 1_454
Ni0 O3 2.068950 1_555
Ni0 O19 2.099952 1_454
Ni0 O23 2.100827 1_555
Ni0 O9 2.113962 1_455
Ni0 O13 2.114743 1_554
Ni1 O1 2.068386 1_555
Ni1 O5 2.069894 1_555
Ni1 O16 2.095241 1_555
Ni1 O20 2.101269 1_555
Ni1 O10 2.113527 1_555
Ni1 O14 2.113920 1_555
Ni2 O2 2.066490 1_555
Ni2 O6 2.066567 1_445
Ni2 O22 2.105046 1_545
Ni2 O18 2.105796 1_455
Ni2 O12 2.110106 1_555
Ni2 O8 2.111678 1_445
Ni3 O4 2.066653 1_555
Ni3 O0 2.067733 1_544
Ni3 O21 2.102030 1_554
Ni3 O17 2.105629 1_545
Ni3 O11 2.109418 1_554
Ni3 O15 2.111287 1_545
Ir0 O3 2.034475 1_655
Ir0 O6 2.039007 1_555
Ir0 O15 2.043765 1_555
Ir0 O10 2.047167 1_655
Ir0 O20 2.052049 1_555
Ir0 O17 2.052899 1_655
Ir1 O7 2.035888 1_455
Ir1 O2 2.040276 1_555
Ir1 O11 2.045540 1_555
Ir1 O14 2.049323 1_455
Ir1 O16 2.055396 1_555
Ir1 O21 2.055574 1_455
Ir2 O1 2.033692 1_555
Ir2 O4 2.038416 1_555
Ir2 O12 2.044561 1_555
Ir2 O9 2.048092 1_555
Ir2 O23 2.050796 1_555
Ir2 O18 2.051372 1_555
Ir3 O5 2.033477 1_555
Ir3 O0 2.037969 1_555
Ir3 O8 2.043965 1_555
Ir3 O13 2.047563 1_555
Ir3 O22 2.052425 1_555
Ir3 O19 2.052452 1_555
