# generated using pymatgen
data_Na6MgSi2Sn3(PO6)4
_symmetry_space_group_name_H-M   'P 1'
_cell_length_a   15.58602578
_cell_length_b   8.98851276
_cell_length_c   9.04520092
_cell_angle_alpha   89.91809249
_cell_angle_beta   124.80513985
_cell_angle_gamma   89.99392674
_symmetry_Int_Tables_number   1
_chemical_formula_structural   Na6MgSi2Sn3(PO6)4
_chemical_formula_sum   'Na12 Mg2 Si4 Sn6 P8 O48'
_cell_volume   1040.48477228
_cell_formula_units_Z   2
loop_
 _symmetry_equiv_pos_site_id
 _symmetry_equiv_pos_as_xyz
  1  'x, y, z'
loop_
 _atom_site_type_symbol
 _atom_site_label
 _atom_site_symmetry_multiplicity
 _atom_site_fract_x
 _atom_site_fract_y
 _atom_site_fract_z
 _atom_site_occupancy
  Na  Na0  1  0.25107335  0.74978024  0.00144851  1
  Na  Na1  1  0.74506821  0.74537971  0.48301479  1
  Na  Na2  1  0.75107335  0.24978024  0.00144851  1
  Na  Na3  1  0.24506821  0.24537971  0.48301479  1
  Na  Na4  1  0.50645839  0.08796405  0.76072602  1
  Na  Na5  1  0.49938841  0.89281019  0.24005537  1
  Na  Na6  1  0.00645839  0.58796405  0.76072602  1
  Na  Na7  1  0.99938841  0.39281019  0.24005537  1
  Na  Na8  1  0.80234014  0.92102432  0.20575583  1
  Na  Na9  1  0.18405637  0.08490674  0.80656894  1
  Na  Na10  1  0.30234014  0.42102432  0.20575583  1
  Na  Na11  1  0.68405637  0.58490674  0.80656894  1
  Mg  Mg0  1  0.10387969  0.24486957  0.06070946  1
  Mg  Mg1  1  0.60387969  0.74486957  0.06070946  1
  Si  Si0  1  0.65074858  0.89878191  0.75023641  1
  Si  Si1  1  0.35211826  0.10039111  0.25532457  1
  Si  Si2  1  0.15074858  0.39878191  0.75023641  1
  Si  Si3  1  0.85211826  0.60039111  0.25532457  1
  Sn  Sn0  1  0.10437528  0.75126290  0.56026286  1
  Sn  Sn1  1  0.89745941  0.75321613  0.93906672  1
  Sn  Sn2  1  0.89786679  0.25083809  0.44464629  1
  Sn  Sn3  1  0.60437528  0.25126290  0.56026286  1
  Sn  Sn4  1  0.39745941  0.25321613  0.93906672  1
  Sn  Sn5  1  0.39786679  0.75083809  0.44464629  1
  P  P0  1  0.99693610  0.95699054  0.74705994  1
  P  P1  1  0.00214676  0.04540564  0.25584654  1
  P  P2  1  0.49693610  0.45699054  0.74705994  1
  P  P3  1  0.50214676  0.54540564  0.25584654  1
  P  P4  1  0.35490610  0.89604283  0.75925057  1
  P  P5  1  0.64780130  0.10753910  0.24646344  1
  P  P6  1  0.85490610  0.39604283  0.75925057  1
  P  P7  1  0.14780130  0.60753910  0.24646344  1
  O  O0  1  0.15634826  0.58240280  0.74330132  1
  O  O1  1  0.85026741  0.57147660  0.75500545  1
  O  O2  1  0.85057066  0.41603248  0.25792458  1
  O  O3  1  0.15075487  0.43730227  0.24166471  1
  O  O4  1  0.65634826  0.08240280  0.74330132  1
  O  O5  1  0.35026741  0.07147660  0.75500545  1
  O  O6  1  0.35057066  0.91603248  0.25792458  1
  O  O7  1  0.65075487  0.93730227  0.24166471  1
  O  O8  1  0.42537783  0.54135465  0.56423898  1
  O  O9  1  0.55771892  0.56082659  0.90533157  1
  O  O10  1  0.57037219  0.45487775  0.43299583  1
  O  O11  1  0.43613844  0.44016639  0.09241720  1
  O  O12  1  0.92537783  0.04135465  0.56423898  1
  O  O13  1  0.05771892  0.06082659  0.90533157  1
  O  O14  1  0.07037219  0.95487775  0.43299583  1
  O  O15  1  0.93613844  0.94016639  0.09241720  1
  O  O16  1  0.25502968  0.84067483  0.74338567  1
  O  O17  1  0.74709827  0.81756453  0.75401771  1
  O  O18  1  0.74385431  0.17194282  0.25668310  1
  O  O19  1  0.25611395  0.18086679  0.24090075  1
  O  O20  1  0.75502968  0.34067483  0.74338567  1
  O  O21  1  0.24709827  0.31756453  0.75401771  1
  O  O22  1  0.24385431  0.67194282  0.25668310  1
  O  O23  1  0.75611395  0.68086679  0.24090075  1
  O  O24  1  0.35195282  0.85898360  0.58824376  1
  O  O25  1  0.64845817  0.86247904  0.92185894  1
  O  O26  1  0.64761201  0.15110665  0.41092276  1
  O  O27  1  0.35616417  0.12924059  0.07666973  1
  O  O28  1  0.85195282  0.35898360  0.58824376  1
  O  O29  1  0.14845817  0.36247904  0.92185894  1
  O  O30  1  0.14761201  0.65110665  0.41092276  1
  O  O31  1  0.85616417  0.62924059  0.07666973  1
  O  O32  1  0.45195420  0.83910665  0.93181632  1
  O  O33  1  0.54583923  0.82781556  0.56469356  1
  O  O34  1  0.54979507  0.17085175  0.06830968  1
  O  O35  1  0.46033742  0.16541883  0.43624383  1
  O  O36  1  0.95195420  0.33910665  0.93181632  1
  O  O37  1  0.04583923  0.32781556  0.56469356  1
  O  O38  1  0.04979507  0.67085175  0.06830968  1
  O  O39  1  0.96033742  0.66541883  0.43624383  1
  O  O40  1  0.08160915  0.86302498  0.74372937  1
  O  O41  1  0.92523462  0.84161561  0.75520997  1
  O  O42  1  0.91430915  0.13170060  0.25683742  1
  O  O43  1  0.07046607  0.15596460  0.24116156  1
  O  O44  1  0.58160915  0.36302498  0.74372937  1
  O  O45  1  0.42523462  0.34161561  0.75520997  1
  O  O46  1  0.41430915  0.63170060  0.25683742  1
  O  O47  1  0.57046607  0.65596460  0.24116156  1
loop_
_geom_bond_atom_site_label_1
_geom_bond_atom_site_label_2
_geom_bond_distance
_geom_bond_site_symmetry_2
Na0 O6 2.433785 1_555
Na0 O0 2.443452 1_554
Na0 O22 2.474662 1_555
Na0 O46 2.493768 1_555
Na0 O16 2.505755 1_554
Na0 O40 2.531877 1_554
Na1 O23 2.365560 1_555
Na1 O47 2.459015 1_555
Na1 O7 2.495571 1_555
Na1 O17 2.519276 1_555
Na1 O1 2.562799 1_555
Na1 O41 2.609492 1_555
Na2 O2 2.433785 1_555
Na2 O4 2.443452 1_554
Na2 O18 2.474662 1_555
Na2 O42 2.493768 1_555
Na2 O20 2.505755 1_554
Na2 O44 2.531877 1_554
Na3 O19 2.365560 1_555
Na3 O43 2.459015 1_555
Na3 O3 2.495571 1_555
Na3 O21 2.519276 1_555
Na3 O5 2.562799 1_555
Na3 O45 2.609492 1_555
Na4 O5 2.409819 1_555
Na4 O4 2.430112 1_555
Na4 O34 2.571476 1_556
Na4 O45 2.594275 1_555
Na4 O35 2.683514 1_555
Na4 O25 2.727377 1_545
Na4 O44 2.777298 1_555
Na4 O24 2.861921 1_545
Na5 O7 2.384741 1_555
Na5 O47 2.397148 1_555
Na5 O6 2.424384 1_555
Na5 O32 2.490753 1_554
Na5 O33 2.656334 1_555
Na5 O46 2.742120 1_555
Na5 O27 2.812018 1_565
Na6 O1 2.409819 1_455
Na6 O0 2.430112 1_555
Na6 O38 2.571476 1_556
Na6 O41 2.594275 1_455
Na6 O39 2.683514 1_455
Na6 O29 2.727377 1_555
Na6 O40 2.777298 1_555
Na6 O28 2.861921 1_455
Na7 O3 2.384741 1_655
Na7 O43 2.397148 1_655
Na7 O2 2.424384 1_555
Na7 O36 2.490753 1_554
Na7 O37 2.656334 1_655
Na7 O42 2.742120 1_555
Na7 O31 2.812018 1_555
Na8 O23 2.353676 1_555
Na8 O25 2.365740 1_554
Na8 O42 2.434691 1_565
Na8 O7 2.566111 1_555
Na8 O18 2.571340 1_565
Na8 O15 2.805266 1_555
Na8 O12 2.876357 1_565
Na9 O40 2.412072 1_545
Na9 O27 2.417619 1_556
Na9 O21 2.468902 1_555
Na9 O13 2.594197 1_555
Na9 O16 2.663515 1_545
Na9 O29 2.878855 1_555
Na10 O19 2.353676 1_555
Na10 O29 2.365740 1_554
Na10 O46 2.434691 1_555
Na10 O3 2.566111 1_555
Na10 O22 2.571340 1_555
Na10 O11 2.805266 1_555
Na10 O8 2.876357 1_555
Na11 O44 2.412072 1_555
Na11 O31 2.417619 1_556
Na11 O17 2.468902 1_555
Na11 O9 2.594197 1_555
Na11 O20 2.663515 1_555
Na11 O25 2.878855 1_555
Mg0 O13 2.020410 1_554
Mg0 O29 2.042099 1_554
Mg0 O19 2.049282 1_555
Mg0 O36 2.128145 1_454
Mg0 O43 2.130896 1_555
Mg0 O3 2.201785 1_555
Mg1 O9 2.020410 1_554
Mg1 O25 2.042099 1_554
Mg1 O23 2.049282 1_555
Mg1 O32 2.128145 1_554
Mg1 O47 2.130896 1_555
Mg1 O7 2.201785 1_555
O0 Si2 1.655783 1_555
O0 Sn0 2.040227 1_555
O1 P6 1.577946 1_555
O1 Sn1 2.142765 1_555
O2 Si3 1.657617 1_555
O2 Sn2 2.042551 1_555
O3 P7 1.532285 1_555
O4 Si0 1.655783 1_545
O4 Sn3 2.040227 1_555
O5 P4 1.577946 1_545
O5 Sn4 2.142765 1_555
O6 Si1 1.657617 1_565
O6 Sn5 2.042551 1_555
O7 P5 1.532285 1_565
O8 P2 1.563427 1_555
O8 Sn5 2.089019 1_555
O9 P2 1.507924 1_555
O10 P3 1.552861 1_555
O10 Sn3 2.062271 1_555
O11 P3 1.551302 1_555
O11 Sn4 2.040462 1_554
O12 P0 1.563427 1_545
O12 Sn2 2.089019 1_555
O13 P0 1.507924 1_445
O14 P1 1.552861 1_565
O14 Sn0 2.062271 1_555
O15 P1 1.551302 1_665
O15 Sn1 2.040462 1_554
O16 P4 1.561049 1_555
O16 Sn0 2.113601 1_555
O17 Si0 1.652361 1_555
O17 Sn1 2.036491 1_555
O18 P5 1.557973 1_555
O18 Sn2 2.121427 1_555
O19 Si1 1.598718 1_555
O20 P6 1.561049 1_555
O20 Sn3 2.113601 1_555
O21 Si2 1.652361 1_555
O21 Sn4 2.036491 1_555
O22 P7 1.557973 1_555
O22 Sn5 2.121427 1_555
O23 Si3 1.598718 1_555
O24 P4 1.557511 1_555
O24 Sn5 2.051493 1_555
O25 Si0 1.606048 1_555
O26 P5 1.540421 1_555
O26 Sn3 2.032682 1_555
O27 Si1 1.672636 1_555
O27 Sn4 2.028764 1_554
O28 P6 1.557511 1_555
O28 Sn2 2.051493 1_555
O29 Si2 1.606048 1_555
O30 P7 1.540421 1_555
O30 Sn0 2.032682 1_555
O31 Si3 1.672636 1_555
O31 Sn1 2.028764 1_554
O32 P4 1.512790 1_555
O33 Si0 1.663643 1_555
O33 Sn5 2.029898 1_555
O34 P5 1.562409 1_555
O34 Sn4 2.092993 1_554
O35 Si1 1.648196 1_555
O35 Sn3 2.005401 1_555
O36 P6 1.512790 1_555
O37 Si2 1.663643 1_555
O37 Sn2 2.029898 1_455
O38 P7 1.562409 1_555
O38 Sn1 2.092993 1_454
O39 Si3 1.648196 1_555
O39 Sn0 2.005401 1_655
O40 P0 1.581502 1_455
O40 Sn0 2.136794 1_555
O41 P0 1.556881 1_555
O41 Sn1 2.098226 1_555
O42 P1 1.577911 1_655
O42 Sn2 2.144848 1_555
O43 P1 1.516697 1_555
O44 P2 1.581502 1_555
O44 Sn3 2.136794 1_555
O45 P2 1.556881 1_555
O45 Sn4 2.098226 1_555
O46 P3 1.577911 1_555
O46 Sn5 2.144848 1_555
O47 P3 1.516697 1_555
