# generated using pymatgen
data_MgNb3SiO10
_symmetry_space_group_name_H-M   'P 1'
_cell_length_a   5.43041626
_cell_length_b   5.60291046
_cell_length_c   7.38994443
_cell_angle_alpha   107.93183047
_cell_angle_beta   110.36968069
_cell_angle_gamma   89.56181386
_symmetry_Int_Tables_number   1
_chemical_formula_structural   MgNb3SiO10
_chemical_formula_sum   'Mg1 Nb3 Si1 O10'
_cell_volume   199.29533505
_cell_formula_units_Z   1
loop_
 _symmetry_equiv_pos_site_id
 _symmetry_equiv_pos_as_xyz
  1  'x, y, z'
loop_
 _atom_site_type_symbol
 _atom_site_label
 _atom_site_symmetry_multiplicity
 _atom_site_fract_x
 _atom_site_fract_y
 _atom_site_fract_z
 _atom_site_occupancy
  Mg  Mg0  1  0.74825750  0.34697182  0.93598809  1
  Nb  Nb0  1  0.60819567  0.69991925  0.69979821  1
  Nb  Nb1  1  0.12954073  0.20198642  0.70480402  1
  Nb  Nb2  1  0.76601330  0.84863155  0.27911096  1
  Si  Si0  1  0.39942230  0.33084928  0.21476438  1
  O  O0  1  0.36063179  0.53570875  0.41059490  1
  O  O1  1  0.64910207  0.46300870  0.18451968  1
  O  O2  1  0.47688488  0.02509517  0.79274012  1
  O  O3  1  0.83749874  0.85753321  0.58241137  1
  O  O4  1  0.36458337  0.48406088  0.75901920  1
  O  O5  1  0.83013583  0.39925257  0.69215450  1
  O  O6  1  0.13144751  0.26490043  0.00900157  1
  O  O7  1  0.80712369  0.75699479  0.01880451  1
  O  O8  1  0.49414004  0.05953029  0.24556044  1
  O  O9  1  0.09146658  0.06305589  0.41517304  1
loop_
_geom_bond_atom_site_label_1
_geom_bond_atom_site_label_2
_geom_bond_distance
_geom_bond_site_symmetry_2
Mg0 O1 2.008401 1_556
Mg0 O6 2.046747 1_656
Mg0 O2 2.079374 1_555
Mg0 O5 2.101231 1_555
Mg0 O7 2.182592 1_556
Mg0 O4 2.310520 1_555
Nb0 O2 1.962186 1_565
Nb0 O0 2.007332 1_555
Nb0 O4 2.039071 1_555
Nb0 O5 2.061895 1_555
Nb0 O3 2.079294 1_555
Nb0 O7 2.143585 1_556
Nb1 O4 1.890079 1_555
Nb1 O5 1.950437 1_455
Nb1 O9 1.974403 1_555
Nb1 O2 2.115920 1_555
Nb1 O6 2.161893 1_556
Nb1 O3 2.243038 1_445
Nb2 O8 1.880523 1_565
Nb2 O9 1.905104 1_665
Nb2 O7 1.924296 1_555
Nb2 O1 2.083738 1_555
Nb2 O3 2.121952 1_555
O0 Si0 1.625372 1_555
O1 Si0 1.662788 1_555
O6 Si0 1.639561 1_555
O8 Si0 1.657370 1_555
