# generated using pymatgen
data_Na4Ta2Si5Ge2SO24
_symmetry_space_group_name_H-M   'P 1'
_cell_length_a   8.81756218
_cell_length_b   8.79659620
_cell_length_c   22.22332082
_cell_angle_alpha   90.55904534
_cell_angle_beta   89.52693872
_cell_angle_gamma   119.92212069
_symmetry_Int_Tables_number   1
_chemical_formula_structural   Na4Ta2Si5Ge2SO24
_chemical_formula_sum   'Na12 Ta6 Si15 Ge6 S3 O72'
_cell_volume   1493.89152906
_cell_formula_units_Z   3
loop_
 _symmetry_equiv_pos_site_id
 _symmetry_equiv_pos_as_xyz
  1  'x, y, z'
loop_
 _atom_site_type_symbol
 _atom_site_label
 _atom_site_symmetry_multiplicity
 _atom_site_fract_x
 _atom_site_fract_y
 _atom_site_fract_z
 _atom_site_occupancy
  Na  Na0  1  0.63589589  0.99948757  0.25048056  1
  Na  Na1  1  0.99673969  0.36362253  0.75044872  1
  Na  Na2  1  0.30088008  0.33547549  0.57944918  1
  Na  Na3  1  0.66868981  0.97110994  0.57923538  1
  Na  Na4  1  0.03079613  0.33155443  0.08467667  1
  Na  Na5  1  0.96653090  0.66786816  0.91470485  1
  Na  Na6  1  0.99934796  0.99573122  0.49256131  1
  Na  Na7  1  0.98967500  0.99578073  0.00126512  1
  Na  Na8  1  0.65041021  0.32573722  0.83650277  1
  Na  Na9  1  0.65935212  0.33882959  0.33310119  1
  Na  Na10  1  0.33268221  0.67547795  0.16394247  1
  Na  Na11  1  0.33061995  0.67734457  0.66441194  1
  Ta  Ta0  1  0.99905706  0.99551903  0.64514641  1
  Ta  Ta1  1  0.66377134  0.33503158  0.68885360  1
  Ta  Ta2  1  0.67203168  0.33202097  0.18918667  1
  Ta  Ta3  1  0.65874826  0.32540674  0.47564059  1
  Ta  Ta4  1  0.33715624  0.66507172  0.30870298  1
  Ta  Ta5  1  0.33758893  0.65875496  0.81280639  1
  Si  Si0  1  0.26974176  0.00073710  0.24994915  1
  Si  Si1  1  0.72720913  0.71964583  0.25253631  1
  Si  Si2  1  0.00657330  0.28013650  0.24669348  1
  Si  Si3  1  0.28162375  0.27269943  0.75425637  1
  Si  Si4  1  0.00035434  0.71954674  0.75515412  1
  Si  Si5  1  0.70852168  0.99715808  0.75115664  1
  Si  Si6  1  0.96380601  0.34707084  0.58146041  1
  Si  Si7  1  0.37498858  0.03369209  0.58125232  1
  Si  Si8  1  0.66707549  0.62269546  0.58069357  1
  Si  Si9  1  0.96656811  0.63714316  0.08189683  1
  Si  Si10  1  0.66299320  0.03731888  0.07969717  1
  Si  Si11  1  0.62460751  0.66349355  0.92143791  1
  Si  Si12  1  0.04638965  0.36900141  0.92034109  1
  Si  Si13  1  0.62878655  0.94712832  0.41658364  1
  Si  Si14  1  0.32220353  0.37076132  0.41681209  1
  Ge  Ge0  1  0.99751862  0.01541753  0.35105974  1
  Ge  Ge1  1  0.98153240  0.00345142  0.85317468  1
  Ge  Ge2  1  0.98157820  0.98093113  0.14913640  1
  Ge  Ge3  1  0.69723239  0.35333629  0.98217058  1
  Ge  Ge4  1  0.33970296  0.67091967  0.01998525  1
  Ge  Ge5  1  0.34196400  0.66207790  0.52010894  1
  S  S0  1  0.38299187  0.33433091  0.08071670  1
  S  S1  1  0.33737963  0.95990341  0.91904591  1
  S  S2  1  0.04981390  0.67050120  0.41832771  1
  O  O0  1  0.19129124  0.03719242  0.31119838  1
  O  O1  1  0.84368435  0.80504690  0.31182205  1
  O  O2  1  0.95043014  0.15820054  0.30626418  1
  O  O3  1  0.18676173  0.15306399  0.81185810  1
  O  O4  1  0.96817795  0.80499232  0.81558694  1
  O  O5  1  0.83641825  0.04494967  0.80872612  1
  O  O6  1  0.79412609  0.96816519  0.68946042  1
  O  O7  1  0.16635659  0.20201309  0.69194523  1
  O  O8  1  0.02976148  0.83670836  0.69468267  1
  O  O9  1  0.78992123  0.84162602  0.19222354  1
  O  O10  1  0.03543466  0.19809426  0.18420449  1
  O  O11  1  0.15421563  0.96510814  0.18937862  1
  O  O12  1  0.87359469  0.36985322  0.64360096  1
  O  O13  1  0.50407038  0.12889238  0.63937363  1
  O  O14  1  0.63008276  0.49705700  0.63962502  1
  O  O15  1  0.86372215  0.49709169  0.13691464  1
  O  O16  1  0.63233397  0.12748005  0.14090231  1
  O  O17  1  0.48807054  0.35870078  0.13564515  1
  O  O18  1  0.46915600  0.31140777  0.02608859  1
  O  O19  1  0.84802863  0.55434925  0.02061296  1
  O  O20  1  0.70396549  0.17892987  0.02431808  1
  O  O21  1  0.46458935  0.16773439  0.52474438  1
  O  O22  1  0.69977536  0.53090575  0.52308228  1
  O  O23  1  0.82780898  0.29899472  0.52618248  1
  O  O24  1  0.52979093  0.70145170  0.97757849  1
  O  O25  1  0.16880497  0.46863072  0.97909892  1
  O  O26  1  0.30131564  0.84281620  0.97237652  1
  O  O27  1  0.53386245  0.83269873  0.47775173  1
  O  O28  1  0.29807677  0.46008055  0.47928384  1
  O  O29  1  0.15574893  0.69131330  0.47294633  1
  O  O30  1  0.12944614  0.64280695  0.36295475  1
  O  O31  1  0.50341603  0.86424110  0.35753700  1
  O  O32  1  0.35039404  0.49866808  0.35999777  1
  O  O33  1  0.13105819  0.49891525  0.86102680  1
  O  O34  1  0.36271718  0.87491055  0.86387298  1
  O  O35  1  0.50224974  0.63603878  0.86141942  1
  O  O36  1  0.02922701  0.82387453  0.41455523  1
  O  O37  1  0.82102689  0.96572127  0.41014592  1
  O  O38  1  0.15124123  0.17673301  0.41002112  1
  O  O39  1  0.02808275  0.17624188  0.91192302  1
  O  O40  1  0.17725562  0.97210404  0.91407834  1
  O  O41  1  0.82265358  0.83505675  0.91171794  1
  O  O42  1  0.98090407  0.16905418  0.58901181  1
  O  O43  1  0.18867910  0.02743728  0.58869537  1
  O  O44  1  0.83522471  0.81841474  0.58713278  1
  O  O45  1  0.98249381  0.82839491  0.09014889  1
  O  O46  1  0.84643636  0.03179425  0.08765629  1
  O  O47  1  0.20602556  0.17992669  0.08402071  1
  O  O48  1  0.69607244  0.17481915  0.74426352  1
  O  O49  1  0.47674943  0.30252942  0.74585018  1
  O  O50  1  0.83036154  0.52271401  0.74576289  1
  O  O51  1  0.69499127  0.52229905  0.24226159  1
  O  O52  1  0.82856812  0.30004220  0.24093391  1
  O  O53  1  0.47301372  0.16908671  0.24153353  1
  O  O54  1  0.64213817  0.48417612  0.92649531  1
  O  O55  1  0.85327361  0.35997161  0.92368717  1
  O  O56  1  0.49583592  0.13338936  0.92429079  1
  O  O57  1  0.64897213  0.14440699  0.42225321  1
  O  O58  1  0.50431606  0.36040485  0.42107153  1
  O  O59  1  0.87389282  0.50610871  0.42186495  1
  O  O60  1  0.36478458  0.49582900  0.07871989  1
  O  O61  1  0.15378193  0.63685322  0.07469483  1
  O  O62  1  0.48565346  0.84563076  0.07374311  1
  O  O63  1  0.36191074  0.84551645  0.57324484  1
  O  O64  1  0.49170676  0.64091722  0.57749722  1
  O  O65  1  0.15860786  0.51513940  0.57524280  1
  O  O66  1  0.30613369  0.83354940  0.25701442  1
  O  O67  1  0.52842765  0.69723558  0.25758605  1
  O  O68  1  0.17079077  0.47799330  0.25426729  1
  O  O69  1  0.29876520  0.46891470  0.75894751  1
  O  O70  1  0.16884634  0.68908709  0.75952456  1
  O  O71  1  0.51610045  0.82724594  0.75775790  1
loop_
_geom_bond_atom_site_label_1
_geom_bond_atom_site_label_2
_geom_bond_distance
_geom_bond_site_symmetry_2
Na0 O52 2.333491 1_565
Na0 O67 2.341841 1_555
Na0 O66 2.523750 1_555
Na0 O53 2.544833 1_565
Na0 O31 2.657666 1_555
Na0 O9 2.695626 1_555
Na0 O16 2.699785 1_565
Na0 O2 2.708869 1_565
Na1 O48 2.326946 1_555
Na1 O69 2.351569 1_655
Na1 O50 2.484993 1_555
Na1 O70 2.489900 1_655
Na1 O12 2.631510 1_555
Na1 O33 2.728139 1_655
Na1 O5 2.760620 1_555
Na1 O7 2.828637 1_655
Na2 O64 2.354362 1_555
Na2 O43 2.386722 1_555
Na2 O42 2.454415 1_455
Na2 O65 2.462326 1_555
Na2 O28 2.496538 1_555
Na2 O7 2.766676 1_555
Na2 O21 2.792840 1_555
Na2 O14 2.854041 1_555
Na3 O63 2.361600 1_555
Na3 O42 2.424491 1_565
Na3 O44 2.442925 1_555
Na3 O64 2.519941 1_555
Na3 O27 2.555151 1_555
Na3 O6 2.701654 1_555
Na3 O23 2.771179 1_565
Na3 O13 2.785897 1_565
Na4 O46 2.307655 1_455
Na4 O61 2.353671 1_555
Na4 O47 2.494361 1_555
Na4 O10 2.524329 1_555
Na4 O60 2.555426 1_555
Na4 O25 2.642736 1_554
Na4 O15 2.778003 1_455
Na4 O20 2.841749 1_455
Na5 O41 2.375182 1_555
Na5 O40 2.377868 1_655
Na5 O55 2.383620 1_555
Na5 O54 2.499224 1_555
Na5 O4 2.518144 1_555
Na5 O19 2.567654 1_556
Na5 O33 2.797195 1_655
Na5 O26 2.866523 1_655
Na6 O37 2.349588 1_555
Na6 O38 2.362750 1_665
Na6 O36 2.387193 1_655
Na6 O44 2.589618 1_555
Na6 O43 2.647989 1_665
Na6 O42 2.668939 1_565
Na7 O46 2.393501 1_565
Na7 O45 2.456726 1_555
Na7 O41 2.458511 1_554
Na7 O39 2.467966 1_664
Na7 O47 2.561719 1_665
Na7 O40 2.610786 1_654
Na8 O54 2.447883 1_555
Na8 O49 2.485178 1_555
Na8 O56 2.499306 1_555
Na8 O55 2.559843 1_555
Na8 O48 2.567684 1_555
Na8 O50 2.618959 1_555
Na9 O58 2.436038 1_555
Na9 O51 2.515146 1_555
Na9 O53 2.572639 1_555
Na9 O57 2.601093 1_555
Na9 O59 2.619740 1_555
Na9 O52 2.642322 1_555
Na10 O61 2.457933 1_555
Na10 O62 2.465272 1_555
Na10 O66 2.554805 1_555
Na10 O60 2.558017 1_555
Na10 O68 2.575196 1_555
Na10 O67 2.658671 1_555
Na11 O63 2.451826 1_555
Na11 O65 2.469545 1_555
Na11 O64 2.499542 1_555
Na11 O71 2.562828 1_555
Na11 O70 2.570249 1_555
Na11 O69 2.721383 1_555
Ge0 O2 1.814517 1_555
Ge0 O0 1.841890 1_655
Ge0 O1 1.873131 1_545
Ge0 O37 1.906804 1_545
Ge0 O38 1.908397 1_655
Ge0 O36 2.330491 1_645
Ge1 O5 1.800042 1_555
Ge1 O3 1.862799 1_655
Ge1 O4 1.878139 1_545
Ge1 O39 1.879105 1_655
Ge1 O41 1.945948 1_545
Ge1 O40 2.325288 1_645
Ge2 O9 1.790142 1_555
Ge2 O11 1.836486 1_655
Ge2 O45 1.869560 1_555
Ge2 O10 1.885240 1_665
Ge2 O46 2.014353 1_565
Ge2 O47 2.370856 1_665
Ge3 O19 1.807805 1_556
Ge3 O20 1.831502 1_556
Ge3 O55 1.864821 1_555
Ge3 O54 1.920177 1_555
Ge3 O18 2.089897 1_556
Ge3 O56 2.261166 1_555
Ge4 O24 1.816422 1_554
Ge4 O62 1.860584 1_555
Ge4 O25 1.891754 1_554
Ge4 O61 1.933820 1_555
Ge4 O26 2.016976 1_554
Ge4 O60 2.123372 1_555
Ge5 O28 1.848936 1_555
Ge5 O27 1.862657 1_555
Ge5 O64 1.918903 1_555
Ge5 O65 1.923337 1_555
Ge5 O63 1.926727 1_555
Ge5 O29 2.077418 1_555
O0 Si0 1.622143 1_555
O1 Si1 1.608827 1_555
O2 Si2 1.623370 1_655
O3 Si3 1.605066 1_555
O4 Si4 1.623545 1_655
O5 Si5 1.620400 1_545
O6 Si5 1.637939 1_555
O6 Ta0 1.958168 1_555
O7 Si3 1.647167 1_555
O7 Ta0 1.967859 1_445
O8 Si4 1.640149 1_555
O8 Ta0 1.910247 1_455
O9 Si1 1.636321 1_555
O10 Si2 1.634614 1_555
O11 Si0 1.625952 1_565
O12 Si6 1.647868 1_555
O12 Ta1 1.984458 1_555
O13 Si7 1.648448 1_555
O13 Ta1 1.979756 1_555
O14 Si8 1.644560 1_555
O14 Ta1 1.942859 1_555
O15 Si9 1.652750 1_555
O15 Ta2 1.966415 1_555
O16 Si10 1.654988 1_555
O16 Ta2 1.962521 1_555
O17 S0 1.486584 1_555
O17 Ta2 2.125831 1_555
O18 S0 1.491498 1_555
O19 Si9 1.649996 1_555
O20 Si10 1.664485 1_555
O21 Si7 1.635439 1_555
O21 Ta3 1.917099 1_555
O22 Si8 1.606328 1_555
O22 Ta3 1.956244 1_555
O23 Si6 1.623022 1_555
O23 Ta3 1.978900 1_555
O24 Si11 1.618704 1_555
O25 Si12 1.641788 1_555
O26 S1 1.502484 1_555
O27 Si13 1.651977 1_555
O28 Si14 1.652466 1_555
O29 S2 1.491022 1_555
O30 S2 1.489034 1_555
O30 Ta4 2.111072 1_555
O31 Si13 1.636072 1_555
O31 Ta4 1.955314 1_555
O32 Si14 1.632612 1_555
O32 Ta4 1.913367 1_555
O33 Si12 1.662191 1_555
O33 Ta5 1.970885 1_555
O34 S1 1.502167 1_555
O34 Ta5 2.119954 1_555
O35 Si11 1.661000 1_555
O35 Ta5 1.906479 1_555
O36 S2 1.451555 1_555
O37 Si13 1.624936 1_555
O38 Si14 1.624878 1_555
O39 Si12 1.630169 1_555
O40 S1 1.473484 1_555
O41 Si11 1.656703 1_555
O42 Si6 1.656544 1_555
O42 Ta0 2.048501 1_545
O43 Si7 1.623170 1_555
O43 Ta0 1.988005 1_445
O44 Si8 1.623255 1_555
O44 Ta0 1.980517 1_555
O45 Si9 1.625550 1_555
O46 Si10 1.653281 1_555
O47 S0 1.473334 1_555
O48 Si5 1.629110 1_545
O48 Ta1 2.005929 1_555
O49 Si3 1.615310 1_555
O49 Ta1 1.976818 1_555
O50 Si4 1.642309 1_655
O50 Ta1 2.013311 1_555
O51 Si1 1.627207 1_555
O51 Ta2 1.964986 1_555
O52 Si2 1.669893 1_655
O52 Ta2 1.930454 1_555
O53 Si0 1.671054 1_555
O53 Ta2 1.994156 1_555
O54 Si11 1.664831 1_555
O55 Si12 1.665682 1_655
O56 S1 1.471965 1_545
O57 Si13 1.657425 1_545
O57 Ta3 1.943714 1_555
O58 Si14 1.656635 1_555
O58 Ta3 1.967866 1_555
O59 S2 1.505287 1_655
O59 Ta3 2.131892 1_555
O60 S0 1.508253 1_555
O61 Si9 1.658461 1_455
O62 Si10 1.635393 1_565
O63 Si7 1.609086 1_565
O64 Si8 1.634372 1_555
O65 Si6 1.619212 1_455
O66 Si0 1.663334 1_565
O66 Ta4 2.008379 1_555
O67 Si1 1.666169 1_555
O67 Ta4 1.927055 1_555
O68 Si2 1.624285 1_555
O68 Ta4 1.976266 1_555
O69 Si3 1.658120 1_555
O69 Ta5 1.932867 1_555
O70 Si4 1.639673 1_555
O70 Ta5 2.029396 1_555
O71 Si5 1.613825 1_555
O71 Ta5 1.961399 1_555
