# generated using pymatgen
data_MgMn3TeO8
_symmetry_space_group_name_H-M   'P 1'
_cell_length_a   6.20446439
_cell_length_b   6.36218995
_cell_length_c   6.20433645
_cell_angle_alpha   58.39270129
_cell_angle_beta   59.25969815
_cell_angle_gamma   58.39202343
_symmetry_Int_Tables_number   1
_chemical_formula_structural   MgMn3TeO8
_chemical_formula_sum   'Mg1 Mn3 Te1 O8'
_cell_volume   167.93245186
_cell_formula_units_Z   1
loop_
 _symmetry_equiv_pos_site_id
 _symmetry_equiv_pos_as_xyz
  1  'x, y, z'
loop_
 _atom_site_type_symbol
 _atom_site_label
 _atom_site_symmetry_multiplicity
 _atom_site_fract_x
 _atom_site_fract_y
 _atom_site_fract_z
 _atom_site_occupancy
  Mg  Mg0  1  0.13008600  0.16161600  0.13022600  1
  Mn  Mn0  1  0.99335800  0.49517500  0.50312400  1
  Mn  Mn1  1  0.50624400  0.99638300  0.50629900  1
  Mn  Mn2  1  0.50308200  0.49523100  0.99332100  1
  Te  Te0  1  0.50009000  0.50963900  0.50020500  1
  O  O0  1  0.25784200  0.29521800  0.25812600  1
  O  O1  1  0.26116900  0.29086300  0.71305100  1
  O  O2  1  0.27133900  0.74622200  0.27113100  1
  O  O3  1  0.71341600  0.29081000  0.26092900  1
  O  O4  1  0.29132100  0.71022300  0.73964700  1
  O  O5  1  0.72291200  0.26465200  0.72313200  1
  O  O6  1  0.73970500  0.71006100  0.29140100  1
  O  O7  1  0.74485300  0.67974000  0.74482300  1
loop_
_geom_bond_atom_site_label_1
_geom_bond_atom_site_label_2
_geom_bond_distance
_geom_bond_site_symmetry_2
Mg0 O0 2.009174 1_555
Mg0 O3 2.084390 1_455
Mg0 O1 2.086866 1_554
Mg0 O2 2.109620 1_545
Mn0 O7 1.894502 1_555
Mn0 O0 1.977495 1_655
Mn0 O6 2.011739 1_555
Mn0 O1 2.078669 1_655
Mn0 O5 2.229239 1_555
Mn0 O2 2.353181 1_655
Mn1 O7 2.104454 1_555
Mn1 O0 2.155657 1_565
Mn1 O4 2.235429 1_555
Mn1 O6 2.236030 1_555
Mn1 O1 2.237557 1_565
Mn1 O3 2.238974 1_565
Mn2 O7 1.894632 1_555
Mn2 O0 1.978974 1_556
Mn2 O4 2.011949 1_555
Mn2 O3 2.079369 1_556
Mn2 O5 2.228328 1_555
Mn2 O2 2.352225 1_556
O1 Te0 2.028202 1_555
O2 Te0 1.969877 1_555
O3 Te0 2.029828 1_555
O4 Te0 1.949522 1_555
O5 Te0 1.920957 1_555
O6 Te0 1.949645 1_555
