# generated using pymatgen
data_NaCaY(SO4)3
_symmetry_space_group_name_H-M   'P 1'
_cell_length_a   9.19833189
_cell_length_b   9.19833157
_cell_length_c   24.25477281
_cell_angle_alpha   90.00000000
_cell_angle_beta   90.00000000
_cell_angle_gamma   120.00000118
_symmetry_Int_Tables_number   1
_chemical_formula_structural   NaCaY(SO4)3
_chemical_formula_sum   'Na6 Ca6 Y6 S18 O72'
_cell_volume   1777.23956787
_cell_formula_units_Z   6
loop_
 _symmetry_equiv_pos_site_id
 _symmetry_equiv_pos_as_xyz
  1  'x, y, z'
loop_
 _atom_site_type_symbol
 _atom_site_label
 _atom_site_symmetry_multiplicity
 _atom_site_fract_x
 _atom_site_fract_y
 _atom_site_fract_z
 _atom_site_occupancy
  Na  Na0  1  -0.00000000  -0.00000000  0.49793406  1
  Na  Na1  1  -0.00000000  -0.00000000  0.99793406  1
  Na  Na2  1  0.66666700  0.33333300  0.83126706  1
  Na  Na3  1  0.66666700  0.33333300  0.33126706  1
  Na  Na4  1  0.33333300  0.66666700  0.16460106  1
  Na  Na5  1  0.33333300  0.66666700  0.66460106  1
  Ca  Ca0  1  -0.00000000  -0.00000000  0.35094553  1
  Ca  Ca1  1  -0.00000000  -0.00000000  0.85094553  1
  Ca  Ca2  1  0.66666700  0.33333300  0.68427853  1
  Ca  Ca3  1  0.66666700  0.33333300  0.18427853  1
  Ca  Ca4  1  0.33333300  0.66666700  0.01761253  1
  Ca  Ca5  1  0.33333300  0.66666700  0.51761253  1
  Y  Y0  1  -0.00000000  -0.00000000  0.64924640  1
  Y  Y1  1  -0.00000000  -0.00000000  0.14924640  1
  Y  Y2  1  0.66666700  0.33333300  0.98257940  1
  Y  Y3  1  0.66666700  0.33333300  0.48257940  1
  Y  Y4  1  0.33333300  0.66666700  0.31591340  1
  Y  Y5  1  0.33333300  0.66666700  0.81591340  1
  S  S0  1  0.29487594  0.00038950  0.25052432  1
  S  S1  1  0.70551355  0.70512406  0.25052432  1
  S  S2  1  0.99961050  0.29448645  0.25052432  1
  S  S3  1  0.29487594  0.29448645  0.75052432  1
  S  S4  1  0.99961050  0.70512406  0.75052432  1
  S  S5  1  0.70551355  0.00038950  0.75052432  1
  S  S6  1  0.96154294  0.33372250  0.58385732  1
  S  S7  1  0.37218055  0.03845706  0.58385732  1
  S  S8  1  0.66627750  0.62781945  0.58385732  1
  S  S9  1  0.96154294  0.62781945  0.08385732  1
  S  S10  1  0.66627750  0.03845706  0.08385732  1
  S  S11  1  0.37218055  0.33372250  0.08385732  1
  S  S12  1  0.62820894  0.66705650  0.91719132  1
  S  S13  1  0.03884655  0.37179106  0.91719132  1
  S  S14  1  0.33294350  0.96115345  0.91719132  1
  S  S15  1  0.62820894  0.96115345  0.41719132  1
  S  S16  1  0.33294350  0.37179106  0.41719132  1
  S  S17  1  0.03884655  0.66705650  0.41719132  1
  O  O0  1  0.21486867  0.02085924  0.29989263  1
  O  O1  1  0.80599057  0.78513133  0.29989263  1
  O  O2  1  0.97914076  0.19400943  0.29989263  1
  O  O3  1  0.21486867  0.19400943  0.79989263  1
  O  O4  1  0.97914076  0.78513133  0.79989263  1
  O  O5  1  0.80599057  0.02085924  0.79989263  1
  O  O6  1  0.78529241  0.97593099  0.70026146  1
  O  O7  1  0.19063857  0.21470759  0.70026146  1
  O  O8  1  0.02406901  0.80936143  0.70026146  1
  O  O9  1  0.78529241  0.80936143  0.20026146  1
  O  O10  1  0.02406901  0.21470759  0.20026146  1
  O  O11  1  0.19063857  0.97593099  0.20026146  1
  O  O12  1  0.88153567  0.35419224  0.63322563  1
  O  O13  1  0.47265757  0.11846433  0.63322563  1
  O  O14  1  0.64580776  0.52734243  0.63322563  1
  O  O15  1  0.88153567  0.52734243  0.13322563  1
  O  O16  1  0.64580776  0.11846433  0.13322563  1
  O  O17  1  0.47265757  0.35419224  0.13322563  1
  O  O18  1  0.45195941  0.30926399  0.03359446  1
  O  O19  1  0.85730557  0.54804059  0.03359446  1
  O  O20  1  0.69073601  0.14269443  0.03359446  1
  O  O21  1  0.45195941  0.14269443  0.53359446  1
  O  O22  1  0.69073601  0.54804059  0.53359446  1
  O  O23  1  0.85730557  0.30926399  0.53359446  1
  O  O24  1  0.54820167  0.68752624  0.96655963  1
  O  O25  1  0.13932357  0.45179833  0.96655963  1
  O  O26  1  0.31247376  0.86067643  0.96655963  1
  O  O27  1  0.54820167  0.86067643  0.46655963  1
  O  O28  1  0.31247376  0.45179833  0.46655963  1
  O  O29  1  0.13932357  0.68752624  0.46655963  1
  O  O30  1  0.11862541  0.64259799  0.36692846  1
  O  O31  1  0.52397157  0.88137459  0.36692846  1
  O  O32  1  0.35740201  0.47602843  0.36692846  1
  O  O33  1  0.11862541  0.47602843  0.86692846  1
  O  O34  1  0.35740201  0.88137459  0.86692846  1
  O  O35  1  0.52397157  0.64259799  0.86692846  1
  O  O36  1  0.01887344  0.81530190  0.41097891  1
  O  O37  1  0.79642846  0.98112656  0.41097891  1
  O  O38  1  0.18469810  0.20357154  0.41097891  1
  O  O39  1  0.01887344  0.20357154  0.91097891  1
  O  O40  1  0.18469810  0.98112656  0.91097891  1
  O  O41  1  0.79642846  0.81530190  0.91097891  1
  O  O42  1  0.97695630  0.17877793  0.58896735  1
  O  O43  1  0.20182163  0.02304370  0.58896735  1
  O  O44  1  0.82122207  0.79817837  0.58896735  1
  O  O45  1  0.97695630  0.79817837  0.08896735  1
  O  O46  1  0.82122207  0.02304370  0.08896735  1
  O  O47  1  0.20182163  0.17877793  0.08896735  1
  O  O48  1  0.68554044  0.14863490  0.74431191  1
  O  O49  1  0.46309546  0.31445956  0.74431191  1
  O  O50  1  0.85136510  0.53690454  0.74431191  1
  O  O51  1  0.68554044  0.53690454  0.24431191  1
  O  O52  1  0.85136510  0.31445956  0.24431191  1
  O  O53  1  0.46309546  0.14863490  0.24431191  1
  O  O54  1  0.64362330  0.51211093  0.92230035  1
  O  O55  1  0.86848863  0.35637670  0.92230035  1
  O  O56  1  0.48788907  0.13151137  0.92230035  1
  O  O57  1  0.64362330  0.13151137  0.42230035  1
  O  O58  1  0.48788907  0.35637670  0.42230035  1
  O  O59  1  0.86848863  0.51211093  0.42230035  1
  O  O60  1  0.35220644  0.48196890  0.07764591  1
  O  O61  1  0.12976146  0.64779356  0.07764591  1
  O  O62  1  0.51803110  0.87023854  0.07764591  1
  O  O63  1  0.35220644  0.87023854  0.57764591  1
  O  O64  1  0.51803110  0.64779356  0.57764591  1
  O  O65  1  0.12976146  0.48196890  0.57764591  1
  O  O66  1  0.31028930  0.84544493  0.25563435  1
  O  O67  1  0.53515463  0.68971070  0.25563435  1
  O  O68  1  0.15455507  0.46484537  0.25563435  1
  O  O69  1  0.31028930  0.46484537  0.75563435  1
  O  O70  1  0.15455507  0.68971070  0.75563435  1
  O  O71  1  0.53515463  0.84544493  0.75563435  1
loop_
_geom_bond_atom_site_label_1
_geom_bond_atom_site_label_2
_geom_bond_distance
_geom_bond_site_symmetry_2
Na0 O38 2.767597 1_555
Na0 O36 2.767597 1_545
Na0 O37 2.767597 1_445
Na0 O44 2.823644 1_445
Na0 O42 2.823644 1_455
Na0 O43 2.823644 1_555
Na1 O39 2.767597 1_555
Na1 O41 2.767597 1_445
Na1 O40 2.767597 1_545
Na1 O45 2.823644 1_446
Na1 O47 2.823644 1_556
Na1 O46 2.823644 1_456
Na2 O50 2.767597 1_555
Na2 O48 2.767597 1_555
Na2 O49 2.767597 1_555
Na2 O56 2.823644 1_555
Na2 O54 2.823644 1_555
Na2 O55 2.823644 1_555
Na3 O51 2.767597 1_555
Na3 O53 2.767597 1_555
Na3 O52 2.767597 1_555
Na3 O57 2.823644 1_555
Na3 O59 2.823644 1_555
Na3 O58 2.823644 1_555
Na4 O62 2.767597 1_555
Na4 O60 2.767597 1_555
Na4 O61 2.767597 1_555
Na4 O68 2.823644 1_555
Na4 O66 2.823644 1_555
Na4 O67 2.823644 1_555
Na5 O63 2.767597 1_555
Na5 O65 2.767597 1_555
Na5 O64 2.767597 1_555
Na5 O69 2.823644 1_555
Na5 O71 2.823644 1_555
Na5 O70 2.823644 1_555
Ca0 O1 2.257701 1_445
Ca0 O2 2.257701 1_455
Ca0 O0 2.257701 1_555
Ca0 O38 2.309026 1_555
Ca0 O36 2.309026 1_545
Ca0 O37 2.309026 1_445
Ca1 O4 2.257701 1_445
Ca1 O3 2.257701 1_555
Ca1 O5 2.257701 1_455
Ca1 O39 2.309026 1_555
Ca1 O41 2.309026 1_445
Ca1 O40 2.309026 1_545
Ca2 O13 2.257701 1_555
Ca2 O14 2.257701 1_555
Ca2 O12 2.257701 1_555
Ca2 O50 2.309026 1_555
Ca2 O48 2.309026 1_555
Ca2 O49 2.309026 1_555
Ca3 O16 2.257701 1_555
Ca3 O15 2.257701 1_555
Ca3 O17 2.257701 1_555
Ca3 O51 2.309026 1_555
Ca3 O53 2.309026 1_555
Ca3 O52 2.309026 1_555
Ca4 O25 2.257701 1_554
Ca4 O26 2.257701 1_554
Ca4 O24 2.257701 1_554
Ca4 O62 2.309026 1_555
Ca4 O60 2.309026 1_555
Ca4 O61 2.309026 1_555
Ca5 O28 2.257701 1_555
Ca5 O27 2.257701 1_555
Ca5 O29 2.257701 1_555
Ca5 O63 2.309026 1_555
Ca5 O65 2.309026 1_555
Ca5 O64 2.309026 1_555
O0 S0 1.466092 1_555
O1 S1 1.466092 1_555
O2 S2 1.466092 1_555
O3 S3 1.466092 1_555
O4 S4 1.466092 1_555
O5 S5 1.466092 1_555
O6 S5 1.496817 1_565
O6 Y0 2.245721 1_665
O7 S3 1.496817 1_555
O7 Y0 2.245721 1_555
O8 S4 1.496817 1_455
O8 Y0 2.245721 1_565
O9 S1 1.496817 1_555
O9 Y1 2.245721 1_665
O10 S2 1.496817 1_455
O10 Y1 2.245721 1_555
O11 S0 1.496817 1_565
O11 Y1 2.245721 1_565
O12 S6 1.466092 1_555
O13 S7 1.466092 1_555
O14 S8 1.466092 1_555
O15 S9 1.466092 1_555
O16 S10 1.466092 1_555
O17 S11 1.466092 1_555
O18 S11 1.496817 1_555
O18 Y2 2.245721 1_554
O19 S9 1.496817 1_555
O19 Y2 2.245721 1_554
O20 S10 1.496817 1_555
O20 Y2 2.245721 1_554
O21 S7 1.496817 1_555
O21 Y3 2.245721 1_555
O22 S8 1.496817 1_555
O22 Y3 2.245721 1_555
O23 S6 1.496817 1_555
O23 Y3 2.245721 1_555
O24 S12 1.466092 1_555
O25 S13 1.466092 1_555
O26 S14 1.466092 1_555
O27 S15 1.466092 1_555
O28 S16 1.466092 1_555
O29 S17 1.466092 1_555
O30 S17 1.496817 1_555
O30 Y4 2.245721 1_555
O31 S15 1.496817 1_555
O31 Y4 2.245721 1_555
O32 S16 1.496817 1_555
O32 Y4 2.245721 1_555
O33 S13 1.496817 1_555
O33 Y5 2.245721 1_555
O34 S14 1.496817 1_555
O34 Y5 2.245721 1_555
O35 S12 1.496817 1_555
O35 Y5 2.245721 1_555
O36 S17 1.471874 1_555
O37 S15 1.471883 1_555
O38 S16 1.471879 1_555
O39 S13 1.471883 1_555
O40 S14 1.471874 1_555
O41 S12 1.471879 1_555
O42 S6 1.506258 1_555
O42 Y0 2.288087 1_655
O43 S7 1.506267 1_555
O43 Y0 2.288087 1_555
O44 S8 1.506263 1_555
O44 Y0 2.288087 1_665
O45 S9 1.506267 1_555
O45 Y1 2.288087 1_665
O46 S10 1.506258 1_555
O46 Y1 2.288087 1_655
O47 S11 1.506263 1_555
O47 Y1 2.288087 1_555
O48 S5 1.471874 1_555
O49 S3 1.471883 1_555
O50 S4 1.471879 1_555
O51 S1 1.471883 1_555
O52 S2 1.471874 1_555
O53 S0 1.471879 1_555
O54 S12 1.506270 1_555
O54 Y2 2.288087 1_555
O55 S13 1.506252 1_655
O55 Y2 2.288087 1_555
O56 S14 1.506260 1_545
O56 Y2 2.288087 1_555
O57 S15 1.506252 1_545
O57 Y3 2.288087 1_555
O58 S16 1.506270 1_555
O58 Y3 2.288087 1_555
O59 S17 1.506260 1_655
O59 Y3 2.288087 1_555
O60 S11 1.471886 1_555
O61 S9 1.471868 1_455
O62 S10 1.471875 1_565
O63 S7 1.471868 1_565
O64 S8 1.471886 1_555
O65 S6 1.471875 1_455
O66 S0 1.506258 1_565
O66 Y4 2.288087 1_555
O67 S1 1.506267 1_555
O67 Y4 2.288087 1_555
O68 S2 1.506263 1_455
O68 Y4 2.288087 1_555
O69 S3 1.506267 1_555
O69 Y5 2.288087 1_555
O70 S4 1.506258 1_455
O70 Y5 2.288087 1_555
O71 S5 1.506263 1_565
O71 Y5 2.288087 1_555
