# generated using pymatgen
data_EuAgP
_symmetry_space_group_name_H-M   'P 1'
_cell_length_a   4.37477027
_cell_length_b   4.37477087
_cell_length_c   8.04557888
_cell_angle_alpha   90.00000000
_cell_angle_beta   90.00000000
_cell_angle_gamma   119.99999554
_symmetry_Int_Tables_number   1
_chemical_formula_structural   EuAgP
_chemical_formula_sum   'Eu2 Ag2 P2'
_cell_volume   133.35168635
_cell_formula_units_Z   2
loop_
 _symmetry_equiv_pos_site_id
 _symmetry_equiv_pos_as_xyz
  1  'x, y, z'
loop_
 _atom_site_type_symbol
 _atom_site_label
 _atom_site_symmetry_multiplicity
 _atom_site_fract_x
 _atom_site_fract_y
 _atom_site_fract_z
 _atom_site_occupancy
  Eu  Eu0  1  -0.00000000  -0.00000000  0.00000000  1
  Eu  Eu1  1  -0.00000000  -0.00000000  0.50000000  1
  Ag  Ag0  1  0.66666700  0.33333300  0.24997101  1
  Ag  Ag1  1  0.33333300  0.66666700  0.75002899  1
  P  P0  1  0.66666700  0.33333300  0.75003318  1
  P  P1  1  0.33333300  0.66666700  0.24996682  1
loop_
_geom_bond_atom_site_label_1
_geom_bond_atom_site_label_2
_geom_bond_distance
_geom_bond_site_symmetry_2
Eu0 P1 3.228647 1_545
Eu0 P0 3.228647 1_454
Eu0 P0 3.228650 1_554
Eu0 P1 3.228650 1_445
Eu0 P1 3.228650 1_555
Eu0 P0 3.228650 1_444
Eu1 P1 3.228980 1_545
Eu1 P0 3.228980 1_455
Eu1 P1 3.228982 1_445
Eu1 P0 3.228982 1_555
Eu1 P0 3.228983 1_445
Eu1 P1 3.228983 1_555
Ag0 P1 2.525772 1_655
Ag0 P1 2.525773 1_545
Ag0 P1 2.525780 1_555
Ag0 Eu0 3.228668 1_655
Ag0 Eu0 3.228671 1_555
Ag0 Eu0 3.228671 1_665
Ag0 Eu1 3.228959 1_655
Ag0 Eu1 3.228961 1_555
Ag0 Eu1 3.228962 1_665
Ag1 P0 2.525772 1_455
Ag1 P0 2.525773 1_565
Ag1 P0 2.525780 1_555
Ag1 Eu0 3.228668 1_566
Ag1 Eu0 3.228671 1_666
Ag1 Eu0 3.228671 1_556
Ag1 Eu1 3.228959 1_565
Ag1 Eu1 3.228961 1_665
Ag1 Eu1 3.228962 1_555
