# generated using pymatgen
data_K2OsCl6
_symmetry_space_group_name_H-M   'P 1'
_cell_length_a   6.90431187
_cell_length_b   6.90431206
_cell_length_c   6.90431351
_cell_angle_alpha   59.99999312
_cell_angle_beta   59.99999221
_cell_angle_gamma   60.00001219
_symmetry_Int_Tables_number   1
_chemical_formula_structural   K2OsCl6
_chemical_formula_sum   'K2 Os1 Cl6'
_cell_volume   232.72675325
_cell_formula_units_Z   1
loop_
 _symmetry_equiv_pos_site_id
 _symmetry_equiv_pos_as_xyz
  1  'x, y, z'
loop_
 _atom_site_type_symbol
 _atom_site_label
 _atom_site_symmetry_multiplicity
 _atom_site_fract_x
 _atom_site_fract_y
 _atom_site_fract_z
 _atom_site_occupancy
  K  K0  1  0.25000000  0.25000000  0.25000000  1
  K  K1  1  0.75000000  0.75000000  0.75000000  1
  Os  Os0  1  -0.00000000  0.00000000  0.00000000  1
  Cl  Cl0  1  0.76050905  0.23949095  0.76050905  1
  Cl  Cl1  1  0.76050905  0.23949095  0.23949095  1
  Cl  Cl2  1  0.76050905  0.76050905  0.23949095  1
  Cl  Cl3  1  0.23949095  0.76050905  0.23949095  1
  Cl  Cl4  1  0.23949095  0.23949095  0.76050905  1
  Cl  Cl5  1  0.23949095  0.76050905  0.76050905  1
loop_
_geom_bond_atom_site_label_1
_geom_bond_atom_site_label_2
_geom_bond_distance
_geom_bond_site_symmetry_2
Cl0 Os0 2.338431 1_656
Cl0 K0 3.453681 1_556
Cl0 K0 3.453681 1_655
Cl0 K1 3.453681 1_555
Cl0 K1 3.453681 1_545
Cl1 Os0 2.338431 1_655
Cl1 K0 3.453681 1_555
Cl1 K0 3.453681 1_655
Cl1 K1 3.453681 1_554
Cl1 K1 3.453681 1_545
Cl2 Os0 2.338430 1_665
Cl2 K0 3.453681 1_565
Cl2 K0 3.453681 1_655
Cl2 K1 3.453681 1_554
Cl2 K1 3.453681 1_555
Cl3 Os0 2.338431 1_565
Cl3 K1 3.453681 1_554
Cl3 K1 3.453681 1_455
Cl3 K0 3.453681 1_555
Cl3 K0 3.453681 1_565
Cl4 Os0 2.338430 1_556
Cl4 K1 3.453681 1_545
Cl4 K1 3.453681 1_455
Cl4 K0 3.453681 1_556
Cl4 K0 3.453681 1_555
Cl5 Os0 2.338431 1_566
Cl5 K1 3.453681 1_555
Cl5 K1 3.453681 1_455
Cl5 K0 3.453681 1_556
Cl5 K0 3.453681 1_565
