# generated using pymatgen
data_Na6TaAl3Si2(PO6)4
_symmetry_space_group_name_H-M   'P 1'
_cell_length_a   15.09251648
_cell_length_b   8.75489135
_cell_length_c   8.76086891
_cell_angle_alpha   89.77532989
_cell_angle_beta   124.54406612
_cell_angle_gamma   90.20305661
_symmetry_Int_Tables_number   1
_chemical_formula_structural   Na6TaAl3Si2(PO6)4
_chemical_formula_sum   'Na12 Ta2 Al6 Si4 P8 O48'
_cell_volume   953.49773951
_cell_formula_units_Z   2
loop_
 _symmetry_equiv_pos_site_id
 _symmetry_equiv_pos_as_xyz
  1  'x, y, z'
loop_
 _atom_site_type_symbol
 _atom_site_label
 _atom_site_symmetry_multiplicity
 _atom_site_fract_x
 _atom_site_fract_y
 _atom_site_fract_z
 _atom_site_occupancy
  Na  Na0  1  0.25078804  0.74901087  0.99962606  1
  Na  Na1  1  0.74605532  0.75152187  0.48731309  1
  Na  Na2  1  0.75078804  0.24901087  0.99962606  1
  Na  Na3  1  0.24605532  0.25152187  0.48731309  1
  Na  Na4  1  0.49514574  0.10455190  0.73606052  1
  Na  Na5  1  0.50526270  0.88379724  0.25612381  1
  Na  Na6  1  0.99514574  0.60455190  0.73606052  1
  Na  Na7  1  0.00526270  0.38379724  0.25612381  1
  Na  Na8  1  0.19215460  0.92952980  0.28544259  1
  Na  Na9  1  0.80625032  0.07248364  0.70813233  1
  Na  Na10  1  0.69215460  0.42952980  0.28544259  1
  Na  Na11  1  0.30625032  0.57248364  0.70813233  1
  Ta  Ta0  1  0.89508189  0.74932371  0.93548617  1
  Ta  Ta1  1  0.39508189  0.24932371  0.93548617  1
  Al  Al0  1  0.10583100  0.75285429  0.56268799  1
  Al  Al1  1  0.89481466  0.24700163  0.43748407  1
  Al  Al2  1  0.10273822  0.25341551  0.05954568  1
  Al  Al3  1  0.60583100  0.25285429  0.56268799  1
  Al  Al4  1  0.39481466  0.74700163  0.43748407  1
  Al  Al5  1  0.60273822  0.75341551  0.05954568  1
  Si  Si0  1  0.35418131  0.88642064  0.75081044  1
  Si  Si1  1  0.65252965  0.09856380  0.25589467  1
  Si  Si2  1  0.85418131  0.38642064  0.75081044  1
  Si  Si3  1  0.15252965  0.59856380  0.25589467  1
  P  P0  1  0.00787145  0.96872296  0.75328142  1
  P  P1  1  0.99945781  0.04185935  0.25593094  1
  P  P2  1  0.50787145  0.46872296  0.75328142  1
  P  P3  1  0.49945781  0.54185935  0.25593094  1
  P  P4  1  0.63813044  0.89225729  0.74155645  1
  P  P5  1  0.35631289  0.10805759  0.26446610  1
  P  P6  1  0.13813044  0.39225729  0.74155645  1
  P  P7  1  0.85631289  0.60805759  0.26446610  1
  O  O0  1  0.14636283  0.56936266  0.73860927  1
  O  O1  1  0.84775291  0.57795897  0.76438088  1
  O  O2  1  0.85336529  0.43153674  0.25985579  1
  O  O3  1  0.14963765  0.41525561  0.23048361  1
  O  O4  1  0.64636283  0.06936266  0.73860927  1
  O  O5  1  0.34775291  0.07795897  0.76438088  1
  O  O6  1  0.35336529  0.93153674  0.25985579  1
  O  O7  1  0.64963765  0.91525561  0.23048361  1
  O  O8  1  0.43727736  0.57153473  0.58530550  1
  O  O9  1  0.57505483  0.55755433  0.93491584  1
  O  O10  1  0.56358148  0.42971728  0.41643455  1
  O  O11  1  0.42744283  0.44816192  0.07151830  1
  O  O12  1  0.93727736  0.07153473  0.58530550  1
  O  O13  1  0.07505483  0.05755433  0.93491584  1
  O  O14  1  0.06358148  0.92971728  0.41643455  1
  O  O15  1  0.92744283  0.94816192  0.07151830  1
  O  O16  1  0.24968013  0.81082975  0.73038160  1
  O  O17  1  0.74074770  0.83045313  0.75578486  1
  O  O18  1  0.75044704  0.18826297  0.26814623  1
  O  O19  1  0.25412099  0.17047358  0.23933869  1
  O  O20  1  0.74968013  0.31082975  0.73038160  1
  O  O21  1  0.24074770  0.33045313  0.75578486  1
  O  O22  1  0.25044704  0.68826297  0.26814623  1
  O  O23  1  0.75412099  0.67047358  0.23933869  1
  O  O24  1  0.35962199  0.86589445  0.57158772  1
  O  O25  1  0.63982814  0.84896941  0.91186602  1
  O  O26  1  0.63979599  0.13422026  0.42505418  1
  O  O27  1  0.35916412  0.15426798  0.09265215  1
  O  O28  1  0.85962199  0.36589445  0.57158772  1
  O  O29  1  0.13982814  0.34896941  0.91186602  1
  O  O30  1  0.13979599  0.63422026  0.42505418  1
  O  O31  1  0.85916412  0.65426798  0.09265215  1
  O  O32  1  0.46168541  0.82050198  0.93774959  1
  O  O33  1  0.53953479  0.83028441  0.56062511  1
  O  O34  1  0.53989770  0.17753494  0.06896850  1
  O  O35  1  0.45747636  0.17248408  0.43906547  1
  O  O36  1  0.96168541  0.32050198  0.93774959  1
  O  O37  1  0.03953479  0.33028441  0.56062511  1
  O  O38  1  0.03989770  0.67753494  0.06896850  1
  O  O39  1  0.95747636  0.67248408  0.43906547  1
  O  O40  1  0.07695375  0.85119329  0.73546060  1
  O  O41  1  0.92084886  0.86661368  0.76043214  1
  O  O42  1  0.92484012  0.15140524  0.26897459  1
  O  O43  1  0.08227570  0.13615654  0.24256648  1
  O  O44  1  0.57695375  0.35119329  0.73546060  1
  O  O45  1  0.42084886  0.36661368  0.76043214  1
  O  O46  1  0.42484012  0.65140524  0.26897459  1
  O  O47  1  0.58227570  0.63615654  0.24256648  1
loop_
_geom_bond_atom_site_label_1
_geom_bond_atom_site_label_2
_geom_bond_distance
_geom_bond_site_symmetry_2
Na0 O16 2.408844 1_555
Na0 O22 2.412653 1_556
Na0 O0 2.471879 1_555
Na0 O40 2.480742 1_555
Na0 O6 2.481186 1_556
Na0 O46 2.483806 1_556
Na1 O7 2.347630 1_555
Na1 O23 2.355962 1_555
Na1 O47 2.390867 1_555
Na1 O17 2.498575 1_555
Na1 O1 2.513807 1_555
Na1 O41 2.557629 1_555
Na2 O20 2.408844 1_555
Na2 O18 2.412653 1_556
Na2 O4 2.471879 1_555
Na2 O44 2.480742 1_555
Na2 O2 2.481186 1_556
Na2 O42 2.483806 1_556
Na3 O3 2.347630 1_555
Na3 O19 2.355962 1_555
Na3 O43 2.390867 1_555
Na3 O21 2.498575 1_555
Na3 O5 2.513807 1_555
Na3 O45 2.557629 1_555
Na4 O4 2.291549 1_555
Na4 O5 2.384554 1_555
Na4 O35 2.399928 1_555
Na4 O44 2.485058 1_555
Na4 O45 2.619252 1_555
Na4 O34 2.673636 1_556
Na4 O24 2.697493 1_545
Na4 O25 2.888030 1_545
Na5 O7 2.329083 1_555
Na5 O6 2.350166 1_555
Na5 O46 2.400223 1_555
Na5 O33 2.455743 1_555
Na5 O47 2.498411 1_555
Na5 O32 2.539406 1_554
Na5 O26 2.775922 1_565
Na6 O0 2.291549 1_655
Na6 O1 2.384554 1_555
Na6 O39 2.399928 1_555
Na6 O40 2.485058 1_655
Na6 O41 2.619252 1_555
Na6 O38 2.673636 1_656
Na6 O28 2.697493 1_555
Na6 O29 2.888030 1_655
Na7 O3 2.329083 1_555
Na7 O2 2.350166 1_455
Na7 O42 2.400223 1_455
Na7 O37 2.455743 1_555
Na7 O43 2.498411 1_555
Na7 O36 2.539406 1_454
Na7 O30 2.775922 1_555
Na8 O22 2.329272 1_555
Na8 O43 2.339480 1_565
Na8 O24 2.407579 1_555
Na8 O19 2.428014 1_565
Na8 O6 2.566829 1_555
Na8 O14 2.758268 1_555
Na8 O13 2.764472 1_564
Na8 O38 2.966313 1_555
Na9 O20 2.307768 1_555
Na9 O41 2.359408 1_545
Na9 O26 2.384795 1_555
Na9 O17 2.467355 1_545
Na9 O4 2.573963 1_555
Na9 O12 2.735338 1_555
Na9 O15 2.836993 1_546
Na10 O18 2.329272 1_555
Na10 O47 2.339480 1_555
Na10 O28 2.407579 1_555
Na10 O23 2.428014 1_555
Na10 O2 2.566829 1_555
Na10 O10 2.758268 1_555
Na10 O9 2.764472 1_554
Na10 O34 2.966313 1_555
Na11 O16 2.307768 1_555
Na11 O45 2.359408 1_555
Na11 O30 2.384795 1_555
Na11 O21 2.467355 1_555
Na11 O0 2.573963 1_555
Na11 O8 2.735338 1_555
Na11 O11 2.836993 1_556
Al0 O30 1.873510 1_555
Al0 O16 1.873566 1_555
Al0 O14 1.873714 1_555
Al0 O39 1.981436 1_455
Al0 O40 1.995820 1_555
Al0 O0 2.061210 1_555
Al1 O28 1.862011 1_555
Al1 O12 1.870264 1_555
Al1 O18 1.882822 1_555
Al1 O37 1.946476 1_655
Al1 O42 1.963751 1_555
Al1 O2 2.075226 1_555
Al2 O36 1.855619 1_454
Al2 O29 1.869936 1_554
Al2 O3 1.886449 1_555
Al2 O13 1.949186 1_554
Al2 O19 2.037129 1_555
Al2 O43 2.065586 1_555
Al3 O26 1.873510 1_555
Al3 O20 1.873566 1_555
Al3 O10 1.873714 1_555
Al3 O35 1.981436 1_555
Al3 O44 1.995820 1_555
Al3 O4 2.061210 1_555
Al4 O24 1.862011 1_555
Al4 O8 1.870264 1_555
Al4 O22 1.882822 1_555
Al4 O33 1.946476 1_555
Al4 O46 1.963751 1_555
Al4 O6 2.075226 1_555
Al5 O32 1.855619 1_554
Al5 O25 1.869936 1_554
Al5 O7 1.886449 1_555
Al5 O9 1.949186 1_554
Al5 O23 2.037129 1_555
Al5 O47 2.065586 1_555
O0 P6 1.556352 1_555
O1 Si2 1.688588 1_555
O1 Ta0 1.950351 1_555
O2 P7 1.545930 1_555
O3 Si3 1.618108 1_555
O4 P4 1.556352 1_545
O5 Si0 1.688588 1_545
O5 Ta1 1.950351 1_555
O6 P5 1.545930 1_565
O7 Si1 1.618108 1_565
O8 P2 1.526195 1_555
O9 P2 1.529508 1_555
O10 P3 1.526557 1_555
O11 P3 1.573876 1_555
O11 Ta1 2.009820 1_554
O12 P0 1.526195 1_645
O13 P0 1.529508 1_545
O14 P1 1.526557 1_465
O15 P1 1.573876 1_565
O15 Ta0 2.009820 1_554
O16 Si0 1.622011 1_555
O17 P4 1.579056 1_555
O17 Ta0 2.062236 1_555
O18 Si1 1.620100 1_555
O19 P5 1.531612 1_555
O20 Si2 1.622011 1_555
O21 P6 1.579056 1_555
O21 Ta1 2.062236 1_555
O22 Si3 1.620100 1_555
O23 P7 1.531612 1_555
O24 Si0 1.628782 1_555
O25 P4 1.524075 1_555
O26 Si1 1.630250 1_555
O27 P5 1.581086 1_555
O27 Ta1 1.927851 1_554
O28 Si2 1.628782 1_555
O29 P6 1.524075 1_555
O30 Si3 1.630250 1_555
O31 P7 1.581086 1_555
O31 Ta0 1.927851 1_554
O32 Si0 1.622803 1_555
O33 P4 1.532091 1_555
O34 Si1 1.700559 1_555
O34 Ta1 1.909164 1_554
O35 P5 1.530083 1_555
O36 Si2 1.622803 1_555
O37 P6 1.532091 1_555
O38 Si3 1.700559 1_555
O38 Ta0 1.909164 1_454
O39 P7 1.530083 1_555
O40 P0 1.537424 1_555
O41 P0 1.616361 1_655
O41 Ta0 2.053991 1_555
O42 P1 1.534789 1_555
O43 P1 1.554183 1_455
O44 P2 1.537424 1_555
O45 P2 1.616361 1_555
O45 Ta1 2.053991 1_555
O46 P3 1.534789 1_555
O47 P3 1.554183 1_555
