# generated using pymatgen
data_MgV4O7F5
_symmetry_space_group_name_H-M   'P 1'
_cell_length_a   5.04833005
_cell_length_b   5.36350676
_cell_length_c   9.15842763
_cell_angle_alpha   71.82982391
_cell_angle_beta   90.48158282
_cell_angle_gamma   63.78857146
_symmetry_Int_Tables_number   1
_chemical_formula_structural   MgV4O7F5
_chemical_formula_sum   'Mg1 V4 O7 F5'
_cell_volume   208.25696448
_cell_formula_units_Z   1
loop_
 _symmetry_equiv_pos_site_id
 _symmetry_equiv_pos_as_xyz
  1  'x, y, z'
loop_
 _atom_site_type_symbol
 _atom_site_label
 _atom_site_symmetry_multiplicity
 _atom_site_fract_x
 _atom_site_fract_y
 _atom_site_fract_z
 _atom_site_occupancy
  Mg  Mg0  1  0.44085300  0.12405200  0.13995100  1
  V  V0  1  0.77690400  0.47425600  0.27301000  1
  V  V1  1  0.54785500  0.99077500  0.50855600  1
  V  V2  1  0.28274400  0.51379000  0.74804700  1
  V  V3  1  0.99237000  0.98483300  0.99216000  1
  O  O0  1  0.91195000  0.76157100  0.57746500  1
  O  O1  1  0.87017100  0.75976500  0.17000300  1
  O  O2  1  0.36013300  0.80322100  0.08559600  1
  O  O3  1  0.41001900  0.76231900  0.67100600  1
  O  O4  1  0.56798700  0.25901700  0.30321300  1
  O  O5  1  0.57192100  0.25353800  0.93475600  1
  O  O6  1  0.06629200  0.25753900  0.41866700  1
  F  F0  1  0.98844300  0.27408800  0.12580000  1
  F  F1  1  0.51019000  0.76564700  0.37019500  1
  F  F2  1  0.48512700  0.26741800  0.61834300  1
  F  F3  1  0.02107100  0.72886500  0.87855900  1
  F  F4  1  0.07097000  0.25680600  0.81324500  1
loop_
_geom_bond_atom_site_label_1
_geom_bond_atom_site_label_2
_geom_bond_distance
_geom_bond_site_symmetry_2
Mg0 O5 2.016090 1_554
Mg0 O4 2.059360 1_555
Mg0 O1 2.122373 1_545
Mg0 O2 2.127259 1_545
O0 V1 1.669916 1_555
O0 V2 2.041864 1_655
O1 V0 1.788864 1_555
O1 V3 1.984723 1_554
O2 V3 1.727399 1_454
O2 V0 2.292856 1_555
O3 V2 1.692676 1_555
O3 V1 1.957737 1_555
O4 V0 1.844693 1_555
O4 V1 2.015407 1_545
O5 V3 1.914461 1_545
O5 V2 1.916477 1_555
O6 V0 1.662835 1_455
O6 V1 2.189548 1_545
F0 V0 2.006214 1_555
F0 Mg0 2.046231 1_655
F0 V3 2.250070 1_544
F1 V0 2.019047 1_555
F1 V1 2.062260 1_555
F1 Mg0 2.264815 1_565
F2 V1 1.957961 1_545
F2 V2 2.001959 1_555
F3 V3 1.925074 1_455
F3 V2 2.011176 1_555
F4 V3 2.000445 1_445
F4 V2 2.049021 1_555
