# generated using pymatgen
data_Ba5(SiN3)2
_symmetry_space_group_name_H-M   'P 1'
_cell_length_a   6.22596100
_cell_length_b   10.53724400
_cell_length_c   15.51737600
_cell_angle_alpha   90.00000000
_cell_angle_beta   90.00000000
_cell_angle_gamma   90.00000000
_symmetry_Int_Tables_number   1
_chemical_formula_structural   Ba5(SiN3)2
_chemical_formula_sum   'Ba20 Si8 N24'
_cell_volume   1018.00923124
_cell_formula_units_Z   4
loop_
 _symmetry_equiv_pos_site_id
 _symmetry_equiv_pos_as_xyz
  1  'x, y, z'
loop_
 _atom_site_type_symbol
 _atom_site_label
 _atom_site_symmetry_multiplicity
 _atom_site_fract_x
 _atom_site_fract_y
 _atom_site_fract_z
 _atom_site_occupancy
  Ba  Ba0  1  0.34313700  0.53724100  0.81841900  1
  Ba  Ba1  1  0.84313700  0.96275900  0.18158100  1
  Ba  Ba2  1  0.65686300  0.03724100  0.68158100  1
  Ba  Ba3  1  0.15686300  0.46275900  0.31841900  1
  Ba  Ba4  1  0.40802600  0.86576900  0.00925400  1
  Ba  Ba5  1  0.90802600  0.63423100  0.99074600  1
  Ba  Ba6  1  0.59197400  0.36576900  0.49074600  1
  Ba  Ba7  1  0.09197400  0.13423100  0.50925400  1
  Ba  Ba8  1  0.42603700  0.47389300  0.09956700  1
  Ba  Ba9  1  0.92603700  0.02610700  0.90043300  1
  Ba  Ba10  1  0.57396300  0.97389300  0.40043300  1
  Ba  Ba11  1  0.07396300  0.52610700  0.59956700  1
  Ba  Ba12  1  0.42262900  0.20694800  0.93481200  1
  Ba  Ba13  1  0.92262900  0.29305200  0.06518800  1
  Ba  Ba14  1  0.57737100  0.70694800  0.56518800  1
  Ba  Ba15  1  0.07737100  0.79305200  0.43481200  1
  Ba  Ba16  1  0.66939800  0.25879800  0.26878200  1
  Ba  Ba17  1  0.16939800  0.24120200  0.73121800  1
  Ba  Ba18  1  0.33060200  0.75879800  0.23121800  1
  Ba  Ba19  1  0.83060200  0.74120200  0.76878200  1
  Si  Si0  1  0.19195600  0.13527000  0.30528300  1
  Si  Si1  1  0.69195600  0.36473000  0.69471700  1
  Si  Si2  1  0.80804400  0.63527000  0.19471700  1
  Si  Si3  1  0.30804400  0.86473000  0.80528300  1
  Si  Si4  1  0.30905100  0.12026500  0.14707100  1
  Si  Si5  1  0.80905100  0.37973500  0.85292900  1
  Si  Si6  1  0.69094900  0.62026500  0.35292900  1
  Si  Si7  1  0.19094900  0.87973500  0.64707100  1
  N  N0  1  0.04817400  0.57377300  0.15066900  1
  N  N1  1  0.54817400  0.92622700  0.84933100  1
  N  N2  1  0.95182600  0.07377300  0.34933100  1
  N  N3  1  0.45182600  0.42622700  0.65066900  1
  N  N4  1  0.94593500  0.81931900  0.60716100  1
  N  N5  1  0.44593500  0.68068100  0.39283900  1
  N  N6  1  0.05406500  0.31931900  0.89283900  1
  N  N7  1  0.55406500  0.18068100  0.10716100  1
  N  N8  1  0.14551000  0.97879900  0.74283500  1
  N  N9  1  0.64551000  0.52120100  0.25716500  1
  N  N10  1  0.85449000  0.47879900  0.75716500  1
  N  N11  1  0.35449000  0.02120100  0.24283500  1
  N  N12  1  0.14789800  0.05782300  0.06361900  1
  N  N13  1  0.64789800  0.44217700  0.93638100  1
  N  N14  1  0.85210200  0.55782300  0.43638100  1
  N  N15  1  0.35210200  0.94217700  0.56361900  1
  N  N16  1  0.15638400  0.23516600  0.21224900  1
  N  N17  1  0.65638400  0.26483400  0.78775100  1
  N  N18  1  0.84361600  0.73516600  0.28775100  1
  N  N19  1  0.34361600  0.76483400  0.71224900  1
  N  N20  1  0.14834100  0.79046400  0.88523000  1
  N  N21  1  0.64834100  0.70953600  0.11477000  1
  N  N22  1  0.85165900  0.29046400  0.61477000  1
  N  N23  1  0.35165900  0.20953600  0.38523000  1
loop_
_geom_bond_atom_site_label_1
_geom_bond_atom_site_label_2
_geom_bond_distance
_geom_bond_site_symmetry_2
Ba0 N13 2.820329 1_555
Ba0 N19 2.909566 1_555
Ba0 N3 2.932937 1_555
Ba0 N20 3.108915 1_555
Ba0 N6 3.137779 1_555
Ba0 N10 3.246268 1_455
Ba1 N12 2.820329 1_665
Ba1 N18 2.909566 1_555
Ba1 N2 2.932937 1_565
Ba1 N21 3.108915 1_555
Ba1 N7 3.137779 1_565
Ba1 N11 3.246268 1_565
Ba2 N15 2.820329 1_545
Ba2 N17 2.909566 1_555
Ba2 N1 2.932937 1_545
Ba2 N22 3.108915 1_555
Ba2 N4 3.137779 1_545
Ba2 N8 3.246268 1_645
Ba3 N14 2.820329 1_455
Ba3 N16 2.909566 1_555
Ba3 N0 2.932937 1_555
Ba3 N23 3.108915 1_555
Ba3 N5 3.137779 1_555
Ba3 N9 3.246268 1_555
Ba4 N20 2.635804 1_554
Ba4 N1 2.706560 1_554
Ba4 N12 2.725810 1_565
Ba4 N21 2.762179 1_555
Ba5 N21 2.635804 1_556
Ba5 N0 2.706560 1_656
Ba5 N13 2.725810 1_555
Ba5 N20 2.762179 1_655
Ba6 N22 2.635804 1_555
Ba6 N3 2.706560 1_555
Ba6 N14 2.725810 1_555
Ba6 N23 2.762179 1_555
Ba7 N23 2.635804 1_555
Ba7 N2 2.706560 1_455
Ba7 N15 2.725810 1_545
Ba7 N22 2.762179 1_455
Ba8 N0 2.696481 1_555
Ba8 N9 2.845371 1_555
Ba8 N21 2.852489 1_555
Ba8 N13 2.903757 1_554
Ba8 N7 3.192987 1_555
Ba9 N1 2.696481 1_545
Ba9 N8 2.845371 1_645
Ba9 N20 2.852489 1_645
Ba9 N12 2.903757 1_656
Ba9 N6 3.192987 1_655
Ba10 N2 2.696481 1_565
Ba10 N11 2.845371 1_565
Ba10 N23 2.852489 1_565
Ba10 N15 2.903757 1_555
Ba10 N5 3.192987 1_555
Ba11 N3 2.696481 1_555
Ba11 N10 2.845371 1_455
Ba11 N22 2.852489 1_455
Ba11 N14 2.903757 1_455
Ba11 N4 3.192987 1_455
Ba12 N6 2.663032 1_555
Ba12 N17 2.774458 1_555
Ba12 N7 2.810460 1_556
Ba12 N13 2.848057 1_555
Ba12 N12 3.064289 1_556
Ba12 N1 3.334714 1_545
Ba13 N7 2.663032 1_555
Ba13 N16 2.774458 1_655
Ba13 N6 2.810460 1_654
Ba13 N12 2.848057 1_655
Ba13 N13 3.064289 1_554
Ba13 N0 3.334714 1_655
Ba14 N4 2.663032 1_555
Ba14 N19 2.774458 1_555
Ba14 N5 2.810460 1_555
Ba14 N15 2.848057 1_555
Ba14 N14 3.064289 1_555
Ba14 N3 3.334714 1_555
Ba15 N5 2.663032 1_555
Ba15 N18 2.774458 1_455
Ba15 N4 2.810460 1_455
Ba15 N14 2.848057 1_455
Ba15 N15 3.064289 1_555
Ba15 N2 3.334714 1_465
Ba16 N23 2.729098 1_555
Ba16 N7 2.735488 1_555
Ba16 N9 2.774863 1_555
Ba16 N2 2.907807 1_555
Ba16 N16 3.166121 1_655
Ba16 N11 3.205337 1_555
Ba16 N16 3.321631 1_555
Ba17 N22 2.729098 1_455
Ba17 N6 2.735488 1_555
Ba17 N8 2.774863 1_545
Ba17 N3 2.907807 1_555
Ba17 N17 3.166121 1_555
Ba17 N10 3.205337 1_455
Ba17 N17 3.321631 1_455
Ba18 N21 2.729098 1_555
Ba18 N5 2.735488 1_555
Ba18 N11 2.774863 1_565
Ba18 N0 2.907807 1_555
Ba18 N18 3.166121 1_455
Ba18 N9 3.205337 1_555
Ba18 N18 3.321631 1_555
Ba19 N20 2.729098 1_655
Ba19 N4 2.735488 1_555
Ba19 N10 2.774863 1_555
Ba19 N1 2.907807 1_555
Ba19 N19 3.166121 1_555
Ba19 N8 3.205337 1_655
Ba19 N19 3.321631 1_655
N0 Si2 1.766988 1_455
N1 Si3 1.766988 1_555
N2 Si0 1.766988 1_655
N3 Si1 1.766988 1_555
N4 Si7 1.765164 1_655
N5 Si6 1.765164 1_555
N6 Si5 1.765164 1_455
N7 Si4 1.765164 1_555
N8 Si7 1.837905 1_555
N8 Si3 1.846012 1_555
N9 Si6 1.837905 1_555
N9 Si2 1.846012 1_555
N10 Si5 1.837905 1_555
N10 Si1 1.846012 1_555
N11 Si4 1.837905 1_555
N11 Si0 1.846012 1_555
N12 Si4 1.765363 1_555
N13 Si5 1.765363 1_555
N14 Si6 1.765363 1_555
N15 Si7 1.765363 1_555
N16 Si0 1.800328 1_555
N16 Si4 1.841807 1_555
N17 Si1 1.800328 1_555
N17 Si5 1.841807 1_555
N18 Si2 1.800328 1_555
N18 Si6 1.841807 1_555
N19 Si3 1.800328 1_555
N19 Si7 1.841807 1_555
N20 Si3 1.772018 1_555
N21 Si2 1.772018 1_555
N22 Si1 1.772018 1_555
N23 Si0 1.772018 1_555
