# generated using pymatgen
data_K4BeAs2
_symmetry_space_group_name_H-M   'P 1'
_cell_length_a   9.21474402
_cell_length_b   9.21474411
_cell_length_c   9.21474438
_cell_angle_alpha   35.92289010
_cell_angle_beta   35.92288969
_cell_angle_gamma   35.92289316
_symmetry_Int_Tables_number   1
_chemical_formula_structural   K4BeAs2
_chemical_formula_sum   'K4 Be1 As2'
_cell_volume   240.85872225
_cell_formula_units_Z   1
loop_
 _symmetry_equiv_pos_site_id
 _symmetry_equiv_pos_as_xyz
  1  'x, y, z'
loop_
 _atom_site_type_symbol
 _atom_site_label
 _atom_site_symmetry_multiplicity
 _atom_site_fract_x
 _atom_site_fract_y
 _atom_site_fract_z
 _atom_site_occupancy
  K  K0  1  0.62378120  0.62378120  0.62378120  1
  K  K1  1  0.37621880  0.37621880  0.37621880  1
  K  K2  1  0.20855700  0.20855700  0.20855700  1
  K  K3  1  0.79144300  0.79144300  0.79144300  1
  Be  Be0  1  0.00000000  0.00000000  -0.00000000  1
  As  As0  1  0.91976790  0.91976790  0.91976790  1
  As  As1  1  0.08023210  0.08023210  0.08023210  1
loop_
_geom_bond_atom_site_label_1
_geom_bond_atom_site_label_2
_geom_bond_distance
_geom_bond_site_symmetry_2
Be0 K1 3.463185 1_554
Be0 K0 3.463185 1_445
Be0 K0 3.463185 1_544
Be0 K1 3.463185 1_455
Be0 K0 3.463185 1_454
Be0 K1 3.463185 1_545
As0 Be0 2.072577 1_666
As0 K3 3.314924 1_555
As0 K0 3.420103 1_556
As0 K0 3.420103 1_655
As0 K0 3.420103 1_565
As0 K2 3.477129 1_665
As0 K2 3.477129 1_566
As0 K2 3.477129 1_656
As1 Be0 2.072577 1_555
As1 K2 3.314924 1_555
As1 K1 3.420103 1_554
As1 K1 3.420103 1_455
As1 K1 3.420103 1_545
As1 K3 3.477129 1_445
As1 K3 3.477129 1_544
As1 K3 3.477129 1_454
