# generated using pymatgen
data_NaTa2Ti2SiP5O24
_symmetry_space_group_name_H-M   'P 1'
_cell_length_a   8.70449254
_cell_length_b   8.70535482
_cell_length_c   22.52021546
_cell_angle_alpha   90.02606062
_cell_angle_beta   89.84895470
_cell_angle_gamma   120.01376327
_symmetry_Int_Tables_number   1
_chemical_formula_structural   NaTa2Ti2SiP5O24
_chemical_formula_sum   'Na3 Ta6 Ti6 Si3 P15 O72'
_cell_volume   1477.64848868
_cell_formula_units_Z   3
loop_
 _symmetry_equiv_pos_site_id
 _symmetry_equiv_pos_as_xyz
  1  'x, y, z'
loop_
 _atom_site_type_symbol
 _atom_site_label
 _atom_site_symmetry_multiplicity
 _atom_site_fract_x
 _atom_site_fract_y
 _atom_site_fract_z
 _atom_site_occupancy
  Na  Na0  1  0.99972136  0.99890291  0.99926556  1
  Na  Na1  1  0.66551250  0.33277316  0.82891971  1
  Na  Na2  1  0.66693567  0.33282472  0.33842300  1
  Ta  Ta0  1  0.99837418  0.00253434  0.36006107  1
  Ta  Ta1  1  0.00016308  0.00033186  0.64160358  1
  Ta  Ta2  1  0.66768265  0.33423593  0.19015670  1
  Ta  Ta3  1  0.66548716  0.33394140  0.97635769  1
  Ta  Ta4  1  0.33583449  0.67148320  0.02345090  1
  Ta  Ta5  1  0.33825849  0.66946087  0.80739187  1
  Ti  Ti0  1  0.00023796  0.99512116  0.85578304  1
  Ti  Ti1  1  0.00238157  0.00487508  0.14929508  1
  Ti  Ti2  1  0.66568919  0.33327421  0.68499876  1
  Ti  Ti3  1  0.66749763  0.33360466  0.47946724  1
  Ti  Ti4  1  0.33359336  0.66705630  0.52252005  1
  Ti  Ti5  1  0.32956412  0.66311197  0.30990263  1
  Si  Si0  1  0.00522385  0.28833157  0.25103201  1
  Si  Si1  1  0.62229969  0.67244708  0.91530695  1
  Si  Si2  1  0.32844639  0.95061139  0.91544537  1
  P  P0  1  0.28126518  0.99515402  0.25081319  1
  P  P1  1  0.71388961  0.71920383  0.25093712  1
  P  P2  1  0.28672760  0.28131065  0.74987127  1
  P  P3  1  0.99374051  0.71082958  0.74958028  1
  P  P4  1  0.71997517  0.00784215  0.74990450  1
  P  P5  1  0.95219679  0.33876112  0.58242891  1
  P  P6  1  0.38645349  0.04781150  0.58234907  1
  P  P7  1  0.66158792  0.61368989  0.58232991  1
  P  P8  1  0.95328631  0.62485910  0.08375675  1
  P  P9  1  0.67233277  0.04756496  0.08398252  1
  P  P10  1  0.37438848  0.32809854  0.08390262  1
  P  P11  1  0.05128841  0.37979614  0.91600466  1
  P  P12  1  0.61042525  0.95029518  0.41728755  1
  P  P13  1  0.34019053  0.38854109  0.41741701  1
  P  P14  1  0.04928052  0.66162232  0.41734588  1
  O  O0  1  0.19855011  0.03154809  0.30553915  1
  O  O1  1  0.83397164  0.79807156  0.30569976  1
  O  O2  1  0.96727809  0.15991596  0.30798639  1
  O  O3  1  0.20103993  0.16771610  0.80517053  1
  O  O4  1  0.96600613  0.79802516  0.80517768  1
  O  O5  1  0.83132512  0.03372348  0.80520260  1
  O  O6  1  0.80532076  0.97657288  0.69427898  1
  O  O7  1  0.17098823  0.19401514  0.69424369  1
  O  O8  1  0.02459086  0.82862594  0.69441242  1
  O  O9  1  0.80226853  0.82893064  0.19460363  1
  O  O10  1  0.03017535  0.19358587  0.19176410  1
  O  O11  1  0.17048541  0.96919614  0.19443434  1
  O  O12  1  0.86396159  0.36445426  0.63828125  1
  O  O13  1  0.50009575  0.13564339  0.63817004  1
  O  O14  1  0.63527867  0.49953897  0.63815967  1
  O  O15  1  0.86187326  0.50536366  0.13887256  1
  O  O16  1  0.64159189  0.13651846  0.13887658  1
  O  O17  1  0.49218315  0.35836904  0.13867284  1
  O  O18  1  0.46811880  0.30324957  0.02852595  1
  O  O19  1  0.83662271  0.53274277  0.02867886  1
  O  O20  1  0.69831636  0.16313293  0.02870866  1
  O  O21  1  0.46972034  0.16716499  0.52781857  1
  O  O22  1  0.69774979  0.53038848  0.52784879  1
  O  O23  1  0.83293305  0.30239949  0.52796576  1
  O  O24  1  0.52862030  0.69660112  0.97475054  1
  O  O25  1  0.16237217  0.46622137  0.97234041  1
  O  O26  1  0.29828490  0.83120744  0.97495535  1
  O  O27  1  0.52840313  0.83658583  0.47283568  1
  O  O28  1  0.30649014  0.46944699  0.47267443  1
  O  O29  1  0.16323672  0.69275479  0.47264518  1
  O  O30  1  0.13355655  0.63281858  0.36142270  1
  O  O31  1  0.50106049  0.86831405  0.36137487  1
  O  O32  1  0.36784495  0.50006800  0.36144134  1
  O  O33  1  0.13109050  0.49610406  0.86058039  1
  O  O34  1  0.36239020  0.86021934  0.85777793  1
  O  O35  1  0.49657369  0.63193413  0.85758937  1
  O  O36  1  0.02838535  0.82731434  0.40713978  1
  O  O37  1  0.79835334  0.96844499  0.40862268  1
  O  O38  1  0.17342282  0.19939715  0.40795590  1
  O  O39  1  0.02791998  0.19578254  0.90948416  1
  O  O40  1  0.16024616  0.97944714  0.90849001  1
  O  O41  1  0.81570412  0.84604795  0.90842840  1
  O  O42  1  0.97128112  0.17133869  0.59349208  1
  O  O43  1  0.19990645  0.02855923  0.59344087  1
  O  O44  1  0.82886997  0.79997882  0.59360310  1
  O  O45  1  0.97342649  0.80753510  0.09031168  1
  O  O46  1  0.83387717  0.02444797  0.09040930  1
  O  O47  1  0.19232901  0.16116438  0.08940036  1
  O  O48  1  0.69406669  0.16870392  0.74172925  1
  O  O49  1  0.47338975  0.30560223  0.74160057  1
  O  O50  1  0.82971456  0.52587494  0.74182366  1
  O  O51  1  0.69148359  0.52959114  0.24159115  1
  O  O52  1  0.82788862  0.30855745  0.24197156  1
  O  O53  1  0.46792240  0.16627110  0.24152986  1
  O  O54  1  0.64643270  0.49866360  0.92447539  1
  O  O55  1  0.86500529  0.36205361  0.92507766  1
  O  O56  1  0.50749533  0.14451456  0.92459806  1
  O  O57  1  0.63991864  0.14001996  0.42522636  1
  O  O58  1  0.50204260  0.36179682  0.42489013  1
  O  O59  1  0.86095866  0.49854015  0.42507976  1
  O  O60  1  0.35661144  0.49339696  0.07485583  1
  O  O61  1  0.13374186  0.63464292  0.07605698  1
  O  O62  1  0.50223811  0.86470384  0.07651809  1
  O  O63  1  0.36226845  0.86340827  0.57293934  1
  O  O64  1  0.50116829  0.63740473  0.57281987  1
  O  O65  1  0.13654810  0.49894173  0.57285636  1
  O  O66  1  0.30828656  0.83799464  0.26006030  1
  O  O67  1  0.53208040  0.69822817  0.26015197  1
  O  O68  1  0.17516648  0.48198645  0.26119700  1
  O  O69  1  0.30161942  0.46521007  0.75742620  1
  O  O70  1  0.15969866  0.69180629  0.75799108  1
  O  O71  1  0.53356426  0.83782353  0.75664784  1
loop_
_geom_bond_atom_site_label_1
_geom_bond_atom_site_label_2
_geom_bond_distance
_geom_bond_site_symmetry_2
Na0 O40 2.526179 1_655
Na0 O41 2.530535 1_555
Na0 O47 2.563701 1_666
Na0 O45 2.578937 1_556
Na0 O46 2.579068 1_566
Na0 O39 2.581756 1_665
Na1 O50 2.510066 1_555
Na1 O48 2.511435 1_555
Na1 O49 2.518082 1_555
Na1 O56 2.636841 1_555
Na1 O54 2.641810 1_555
Na1 O55 2.710396 1_555
Na2 O58 2.502501 1_555
Na2 O57 2.509878 1_555
Na2 O59 2.513821 1_555
Na2 O52 2.646724 1_555
Na2 O53 2.714555 1_555
Na2 O51 2.714751 1_555
O0 P0 1.536505 1_545
O0 Ta0 2.038672 1_455
O1 P1 1.540444 1_555
O1 Ta0 2.042985 1_565
O2 Si0 1.622839 1_655
O2 Ta0 1.923479 1_555
O3 P2 1.530832 1_555
O3 Ti0 1.993870 1_545
O4 P3 1.543697 1_555
O4 Ti0 1.954496 1_655
O5 P4 1.525999 1_555
O5 Ti0 2.018835 1_645
O6 P4 1.546715 1_565
O6 Ta1 1.991258 1_665
O7 P2 1.549744 1_555
O7 Ta1 1.989606 1_555
O8 P3 1.546327 1_455
O8 Ta1 2.003695 1_565
O9 P1 1.540944 1_555
O9 Ti1 1.935003 1_665
O10 Si0 1.638790 1_555
O10 Ti1 1.809478 1_555
O11 P0 1.543098 1_555
O11 Ti1 1.932296 1_565
O12 P5 1.545478 1_555
O12 Ti2 1.918644 1_555
O13 P6 1.546757 1_555
O13 Ti2 1.917088 1_555
O14 P7 1.546830 1_555
O14 Ti2 1.914115 1_555
O15 P8 1.556851 1_555
O15 Ta2 1.970396 1_555
O16 P9 1.550544 1_555
O16 Ta2 1.989040 1_555
O17 P10 1.542142 1_555
O17 Ta2 2.013133 1_555
O18 P10 1.561616 1_555
O18 Ta3 1.983322 1_554
O19 P8 1.550439 1_555
O19 Ta3 2.007684 1_554
O20 P9 1.544281 1_555
O20 Ta3 2.027578 1_554
O21 P6 1.534940 1_555
O21 Ti3 1.935172 1_555
O22 P7 1.534865 1_555
O22 Ti3 1.933813 1_555
O23 P5 1.536191 1_555
O23 Ti3 1.933984 1_555
O24 Si1 1.633013 1_555
O24 Ta4 1.920967 1_556
O25 P11 1.545444 1_555
O25 Ta4 2.026262 1_556
O26 Si2 1.634585 1_555
O26 Ta4 1.921164 1_556
O27 P12 1.530974 1_555
O27 Ti4 1.947647 1_555
O28 P13 1.527951 1_555
O28 Ti4 1.966891 1_555
O29 P14 1.531516 1_555
O29 Ti4 1.962497 1_555
O30 P14 1.538170 1_555
O30 Ti5 1.966307 1_555
O31 P12 1.525416 1_555
O31 Ti5 2.025495 1_555
O32 P13 1.534710 1_555
O32 Ti5 1.987316 1_555
O33 P11 1.535762 1_555
O33 Ta5 2.057140 1_555
O34 Si2 1.619482 1_555
O34 Ta5 1.933886 1_555
O35 Si1 1.622505 1_555
O35 Ta5 1.934584 1_555
O36 P14 1.558662 1_555
O36 Ta0 1.980046 1_465
O37 P12 1.574396 1_555
O37 Ta0 1.946480 1_565
O38 P13 1.572868 1_555
O38 Ta0 1.953631 1_455
O39 P11 1.517563 1_555
O39 Ti0 2.037290 1_545
O40 Si2 1.612468 1_555
O40 Ti0 1.888484 1_555
O41 Si1 1.611093 1_555
O41 Ti0 1.890983 1_655
O42 P5 1.567372 1_555
O42 Ta1 1.957193 1_655
O43 P6 1.566156 1_555
O43 Ta1 1.955160 1_555
O44 P7 1.566478 1_555
O44 Ta1 1.959297 1_665
O45 P8 1.517389 1_555
O45 Ti1 2.084637 1_665
O46 P9 1.524117 1_555
O46 Ti1 2.049256 1_655
O47 P10 1.527667 1_555
O47 Ti1 2.035593 1_555
O48 P4 1.536930 1_555
O48 Ti2 2.025600 1_555
O49 P2 1.540808 1_555
O49 Ti2 2.017505 1_555
O50 P3 1.537106 1_555
O50 Ti2 2.024883 1_555
O51 P1 1.576326 1_555
O51 Ta2 1.980852 1_555
O52 Si0 1.651960 1_655
O52 Ta2 1.917530 1_555
O53 P0 1.574720 1_545
O53 Ta2 1.986799 1_555
O54 Si1 1.641313 1_555
O54 Ta3 1.920783 1_555
O55 P11 1.562881 1_655
O55 Ta3 1.993532 1_555
O56 Si2 1.640220 1_545
O56 Ta3 1.925419 1_555
O57 P12 1.549680 1_545
O57 Ti3 1.996161 1_555
O58 P13 1.548155 1_555
O58 Ti3 2.002070 1_555
O59 P14 1.550326 1_655
O59 Ti3 1.992329 1_555
O60 P10 1.536006 1_555
O60 Ta4 2.014828 1_555
O61 P8 1.539282 1_455
O61 Ta4 2.006442 1_555
O62 P9 1.548430 1_565
O62 Ta4 1.981279 1_555
O63 P6 1.525791 1_565
O63 Ti4 1.961176 1_555
O64 P7 1.525894 1_555
O64 Ti4 1.965479 1_555
O65 P5 1.525063 1_455
O65 Ti4 1.961818 1_555
O66 P0 1.514236 1_555
O66 Ti5 1.974007 1_555
O67 P1 1.513308 1_555
O67 Ti5 1.976612 1_555
O68 Si0 1.609120 1_555
O68 Ti5 1.838944 1_555
O69 P2 1.549492 1_555
O69 Ta5 1.990525 1_555
O70 P3 1.546259 1_455
O70 Ta5 2.000770 1_555
O71 P4 1.562968 1_565
O71 Ta5 1.960297 1_555
