# generated using pymatgen
data_VPO5
_symmetry_space_group_name_H-M   'P 1'
_cell_length_a   6.16315276
_cell_length_b   7.07198742
_cell_length_c   7.57808362
_cell_angle_alpha   90.00000000
_cell_angle_beta   90.00000000
_cell_angle_gamma   90.00000000
_symmetry_Int_Tables_number   1
_chemical_formula_structural   VPO5
_chemical_formula_sum   'V4 P4 O20'
_cell_volume   330.29637316
_cell_formula_units_Z   4
loop_
 _symmetry_equiv_pos_site_id
 _symmetry_equiv_pos_as_xyz
  1  'x, y, z'
loop_
 _atom_site_type_symbol
 _atom_site_label
 _atom_site_symmetry_multiplicity
 _atom_site_fract_x
 _atom_site_fract_y
 _atom_site_fract_z
 _atom_site_occupancy
  V  V0  1  0.25000000  0.73422737  0.67085028  1
  V  V1  1  0.75000000  0.23422737  0.82914972  1
  V  V2  1  0.25000000  0.76577263  0.17085028  1
  V  V3  1  0.75000000  0.26577263  0.32914972  1
  P  P0  1  0.75000000  0.61989461  0.61976571  1
  P  P1  1  0.25000000  0.11989461  0.88023429  1
  P  P2  1  0.75000000  0.88010539  0.11976571  1
  P  P3  1  0.25000000  0.38010539  0.38023429  1
  O  O0  1  0.25000000  0.49698642  0.54917056  1
  O  O1  1  0.55095508  0.74726897  0.62550817  1
  O  O2  1  0.94904492  0.74726897  0.62550817  1
  O  O3  1  0.75000000  0.15818088  0.63068669  1
  O  O4  1  0.25000000  0.99042895  0.71587218  1
  O  O5  1  0.75000000  0.49042895  0.78412782  1
  O  O6  1  0.25000000  0.65818088  0.86931331  1
  O  O7  1  0.05095508  0.24726897  0.87449183  1
  O  O8  1  0.44904492  0.24726897  0.87449183  1
  O  O9  1  0.75000000  0.99698642  0.95082944  1
  O  O10  1  0.25000000  0.00301358  0.04917056  1
  O  O11  1  0.55095508  0.75273103  0.12550817  1
  O  O12  1  0.94904492  0.75273103  0.12550817  1
  O  O13  1  0.75000000  0.34181912  0.13068669  1
  O  O14  1  0.75000000  0.50301358  0.45082944  1
  O  O15  1  0.75000000  0.00957105  0.28412782  1
  O  O16  1  0.25000000  0.84181912  0.36931331  1
  O  O17  1  0.05095508  0.25273103  0.37449183  1
  O  O18  1  0.44904492  0.25273103  0.37449183  1
  O  O19  1  0.25000000  0.50957105  0.21587218  1
loop_
_geom_bond_atom_site_label_1
_geom_bond_atom_site_label_2
_geom_bond_distance
_geom_bond_site_symmetry_2
O0 P3 1.523871 1_555
O0 V0 1.914461 1_555
O1 P0 1.522569 1_555
O1 V0 1.888643 1_555
O2 P0 1.522569 1_555
O2 V0 1.888643 1_655
O3 V1 1.597233 1_555
O3 V3 2.408424 1_555
O4 P1 1.545859 1_565
O4 V0 1.843697 1_555
O5 P0 1.545859 1_555
O5 V1 1.843697 1_555
O6 V0 1.597233 1_555
O6 V2 2.408424 1_556
O7 P1 1.522569 1_555
O7 V1 1.888643 1_455
O8 P1 1.522569 1_555
O8 V1 1.888643 1_555
O9 P2 1.523871 1_556
O9 V1 1.914461 1_565
O10 P1 1.523871 1_554
O10 V2 1.914461 1_545
O11 P2 1.522569 1_555
O11 V2 1.888643 1_555
O12 P2 1.522569 1_555
O12 V2 1.888643 1_655
O13 V3 1.597233 1_555
O13 V1 2.408424 1_554
O14 P0 1.523871 1_555
O14 V3 1.914461 1_555
O15 P2 1.545859 1_545
O15 V3 1.843697 1_555
O16 V2 1.597233 1_555
O16 V0 2.408424 1_555
O17 P3 1.522569 1_555
O17 V3 1.888643 1_455
O18 P3 1.522569 1_555
O18 V3 1.888643 1_555
O19 P3 1.545859 1_555
O19 V2 1.843697 1_555
