# generated using pymatgen
data_Na3La2Ti2P5SO24
_symmetry_space_group_name_H-M   'P 1'
_cell_length_a   9.09371423
_cell_length_b   9.09578460
_cell_length_c   23.00107552
_cell_angle_alpha   90.20200462
_cell_angle_beta   89.96213448
_cell_angle_gamma   119.37737572
_symmetry_Int_Tables_number   1
_chemical_formula_structural   Na3La2Ti2P5SO24
_chemical_formula_sum   'Na9 La6 Ti6 P15 S3 O72'
_cell_volume   1657.86026990
_cell_formula_units_Z   3
loop_
 _symmetry_equiv_pos_site_id
 _symmetry_equiv_pos_as_xyz
  1  'x, y, z'
loop_
 _atom_site_type_symbol
 _atom_site_label
 _atom_site_symmetry_multiplicity
 _atom_site_fract_x
 _atom_site_fract_y
 _atom_site_fract_z
 _atom_site_occupancy
  Na  Na0  1  0.00367812  0.35916281  0.75295604  1
  Na  Na1  1  0.67172603  0.95125440  0.58314391  1
  Na  Na2  1  0.05134871  0.32976593  0.08325863  1
  Na  Na3  1  0.01777608  0.99387516  0.49143308  1
  Na  Na4  1  0.00697943  0.98799236  0.99038724  1
  Na  Na5  1  0.65533374  0.32529006  0.83418740  1
  Na  Na6  1  0.67489661  0.33264107  0.33240489  1
  Na  Na7  1  0.35449768  0.67497834  0.16991279  1
  Na  Na8  1  0.33686506  0.66961536  0.66959639  1
  La  La0  1  0.01553278  0.99582152  0.64255573  1
  La  La1  1  0.99664848  0.98503613  0.14306105  1
  La  La2  1  0.33690425  0.67857511  0.01643693  1
  La  La3  1  0.31761701  0.66306401  0.51634350  1
  La  La4  1  0.32459347  0.66324077  0.32270710  1
  La  La5  1  0.33886210  0.68189332  0.82559987  1
  Ti  Ti0  1  0.97026266  0.98716390  0.34637410  1
  Ti  Ti1  1  0.01052968  0.01008040  0.84453794  1
  Ti  Ti2  1  0.66165237  0.34000170  0.68797630  1
  Ti  Ti3  1  0.67358143  0.34227739  0.18694231  1
  Ti  Ti4  1  0.66095111  0.32175067  0.98243433  1
  Ti  Ti5  1  0.67815729  0.34128281  0.48252530  1
  P  P0  1  0.70221362  0.68930687  0.24963630  1
  P  P1  1  0.98157684  0.28518051  0.24679666  1
  P  P2  1  0.30375130  0.29351531  0.75035949  1
  P  P3  1  0.98240737  0.69241972  0.75176687  1
  P  P4  1  0.71107366  0.01295786  0.74596168  1
  P  P5  1  0.94356932  0.34245332  0.58641046  1
  P  P6  1  0.40423748  0.06622795  0.58188816  1
  P  P7  1  0.65645545  0.60479839  0.58339939  1
  P  P8  1  0.93776891  0.59915399  0.08157165  1
  P  P9  1  0.65934610  0.05736825  0.08511037  1
  P  P10  1  0.39816178  0.34219489  0.08474984  1
  P  P11  1  0.00633258  0.33706754  0.91659479  1
  P  P12  1  0.33028613  0.99847897  0.91667253  1
  P  P13  1  0.65415854  0.99107425  0.41999372  1
  P  P14  1  0.00347025  0.67176252  0.41598572  1
  S  S0  1  0.31031417  0.01997211  0.25205140  1
  S  S1  1  0.66736552  0.66906556  0.91683003  1
  S  S2  1  0.32920309  0.33246163  0.41665904  1
  O  O0  1  0.20846329  0.02336477  0.30203804  1
  O  O1  1  0.81981428  0.79918085  0.30203700  1
  O  O2  1  0.96843965  0.15692062  0.29625412  1
  O  O3  1  0.19958160  0.17107277  0.80187178  1
  O  O4  1  0.97886693  0.80430836  0.80331065  1
  O  O5  1  0.84167548  0.03033045  0.79509842  1
  O  O6  1  0.77639715  0.99047988  0.68683077  1
  O  O7  1  0.19881190  0.22720556  0.69520878  1
  O  O8  1  0.01275291  0.78545431  0.69458640  1
  O  O9  1  0.77705713  0.78847301  0.19403326  1
  O  O10  1  0.00995307  0.22298780  0.18776285  1
  O  O11  1  0.22131088  0.00034338  0.19635672  1
  O  O12  1  0.84650578  0.34006310  0.64318311  1
  O  O13  1  0.49483300  0.16419478  0.63919953  1
  O  O14  1  0.66420909  0.51209486  0.64029859  1
  O  O15  1  0.84298202  0.51057374  0.13961872  1
  O  O16  1  0.66561140  0.16107552  0.13997186  1
  O  O17  1  0.49351738  0.33908575  0.14142617  1
  O  O18  1  0.50298117  0.35291966  0.03045149  1
  O  O19  1  0.84384961  0.48900470  0.02865440  1
  O  O20  1  0.64401494  0.14550630  0.02903855  1
  O  O21  1  0.51242613  0.15703420  0.52822074  1
  O  O22  1  0.64419129  0.49844861  0.52945855  1
  O  O23  1  0.85248582  0.35890960  0.53115212  1
  O  O24  1  0.58544446  0.70226709  0.96759497  1
  O  O25  1  0.12256668  0.41283454  0.97059459  1
  O  O26  1  0.28802126  0.87656592  0.96851928  1
  O  O27  1  0.59163024  0.88223001  0.47559573  1
  O  O28  1  0.29536035  0.41188974  0.46817685  1
  O  O29  1  0.12251673  0.71754334  0.46917154  1
  O  O30  1  0.07151037  0.61734990  0.36417006  1
  O  O31  1  0.53023777  0.91013963  0.36966234  1
  O  O32  1  0.36809063  0.44321212  0.36521946  1
  O  O33  1  0.07899876  0.45305854  0.86333200  1
  O  O34  1  0.38691074  0.93632298  0.86372438  1
  O  O35  1  0.55902919  0.63054855  0.86443560  1
  O  O36  1  0.98771028  0.83112032  0.40182319  1
  O  O37  1  0.83074238  0.00787817  0.40265000  1
  O  O38  1  0.17712824  0.16518922  0.40647707  1
  O  O39  1  0.98764354  0.15972733  0.90212595  1
  O  O40  1  0.16849667  0.01046244  0.90350158  1
  O  O41  1  0.83423093  0.82143144  0.90791459  1
  O  O42  1  0.94500297  0.17462055  0.57923830  1
  O  O43  1  0.23032065  0.05056903  0.57389707  1
  O  O44  1  0.81434424  0.78072820  0.57788530  1
  O  O45  1  0.95432966  0.77340869  0.07408876  1
  O  O46  1  0.82735857  0.05474304  0.07830279  1
  O  O47  1  0.22157980  0.18320815  0.08008231  1
  O  O48  1  0.70751122  0.18442090  0.74680607  1
  O  O49  1  0.47719606  0.30025945  0.74615981  1
  O  O50  1  0.81361801  0.51859741  0.74931098  1
  O  O51  1  0.70180376  0.51774051  0.24765463  1
  O  O52  1  0.81352966  0.29313604  0.24574318  1
  O  O53  1  0.47627902  0.18039408  0.25111422  1
  O  O54  1  0.69105581  0.52051493  0.92718437  1
  O  O55  1  0.82395490  0.30782943  0.92833544  1
  O  O56  1  0.47704709  0.17926678  0.93036379  1
  O  O57  1  0.69125716  0.17603554  0.42911602  1
  O  O58  1  0.47817717  0.30866656  0.42683998  1
  O  O59  1  0.82362483  0.52195937  0.42974275  1
  O  O60  1  0.37189556  0.49882929  0.08763091  1
  O  O61  1  0.11258118  0.60816853  0.08609991  1
  O  O62  1  0.50519859  0.88012194  0.08900180  1
  O  O63  1  0.39319454  0.89026472  0.58684352  1
  O  O64  1  0.49901444  0.62851171  0.58770190  1
  O  O65  1  0.12167910  0.49680770  0.58961716  1
  O  O66  1  0.34112058  0.87351302  0.25571841  1
  O  O67  1  0.52315328  0.66118460  0.25770291  1
  O  O68  1  0.13108148  0.46142156  0.25888840  1
  O  O69  1  0.32262186  0.46893974  0.76182533  1
  O  O70  1  0.12805695  0.65069405  0.75918276  1
  O  O71  1  0.53395857  0.86308372  0.75662249  1
loop_
_geom_bond_atom_site_label_1
_geom_bond_atom_site_label_2
_geom_bond_distance
_geom_bond_site_symmetry_2
Na0 O70 2.320835 1_555
Na0 O48 2.366204 1_455
Na0 O69 2.570764 1_555
Na0 O33 2.656495 1_555
Na0 O50 2.749075 1_455
Na0 O5 2.784122 1_455
Na0 O12 2.864643 1_455
Na0 O7 2.903265 1_555
Na1 O63 2.313430 1_555
Na1 O42 2.314936 1_565
Na1 O44 2.464668 1_555
Na1 O6 2.526838 1_555
Na1 O64 2.563954 1_555
Na1 O27 2.566471 1_555
Na2 O61 2.311335 1_555
Na2 O46 2.327832 1_455
Na2 O47 2.490503 1_555
Na2 O60 2.544256 1_555
Na2 O10 2.553306 1_555
Na2 O25 2.690193 1_554
Na3 O36 2.469137 1_455
Na3 O38 2.479666 1_565
Na3 O43 2.572834 1_565
Na3 O37 2.701521 1_465
Na3 O44 2.763802 1_455
Na3 O42 2.874344 1_465
Na4 O40 2.428467 1_565
Na4 O41 2.451560 1_455
Na4 O45 2.617958 1_456
Na4 O39 2.623852 1_465
Na4 O47 2.792373 1_566
Na4 O46 2.843550 1_466
Na5 O49 2.532742 1_555
Na5 O48 2.546278 1_555
Na5 O50 2.551881 1_555
Na5 O56 2.681339 1_555
Na5 O54 2.691163 1_555
Na5 O55 2.704012 1_555
Na6 O52 2.475445 1_555
Na6 O53 2.491631 1_555
Na6 O51 2.512518 1_555
Na6 O57 2.688889 1_555
Na6 O59 2.738408 1_555
Na6 O58 2.753412 1_555
Na7 O62 2.517050 1_555
Na7 O60 2.529995 1_555
Na7 O67 2.576841 1_555
Na7 O66 2.713130 1_555
Na7 O61 2.758806 1_555
Na7 O68 2.870503 1_555
Na8 O64 2.528729 1_555
Na8 O65 2.578884 1_555
Na8 O63 2.632547 1_555
Na8 O71 2.683525 1_555
Na8 O70 2.749167 1_555
Na8 O69 2.764720 1_555
La0 O8 2.250075 1_555
La0 O7 2.284110 1_565
La0 O43 2.367313 1_565
La0 O6 2.379543 1_455
La0 O44 2.420495 1_455
La0 O42 2.493714 1_465
La1 O9 2.251130 1_555
La1 O11 2.327886 1_665
La1 O10 2.341753 1_665
La1 O45 2.371217 1_555
La1 O47 2.434853 1_665
La1 O46 2.440896 1_565
La2 O26 2.335723 1_554
La2 O62 2.391206 1_555
La2 O61 2.420759 1_555
La2 O24 2.436656 1_554
La2 O60 2.446581 1_555
La2 O25 2.473012 1_554
La3 O29 2.332258 1_555
La3 O65 2.381707 1_555
La3 O63 2.440680 1_555
La3 O28 2.452891 1_555
La3 O64 2.455537 1_555
La3 O27 2.489574 1_555
La4 O68 2.331581 1_555
La4 O30 2.331928 1_555
La4 O67 2.350659 1_555
La4 O31 2.360534 1_555
La4 O66 2.406896 1_555
La4 O32 2.430831 1_555
La5 O34 2.304274 1_555
La5 O71 2.350935 1_555
La5 O70 2.357173 1_555
La5 O69 2.371716 1_555
La5 O33 2.419533 1_555
La5 O35 2.438703 1_555
O0 S0 1.485633 1_555
O0 Ti0 2.267188 1_445
O1 P0 1.593659 1_555
O1 Ti0 1.878774 1_555
O2 P1 1.594302 1_555
O2 Ti0 1.936775 1_545
O3 P2 1.585649 1_555
O3 Ti1 1.897616 1_555
O4 P3 1.570327 1_555
O4 Ti1 1.986036 1_665
O5 P4 1.590356 1_555
O5 Ti1 1.991515 1_655
O6 P4 1.536428 1_565
O7 P2 1.521547 1_555
O8 P3 1.516669 1_455
O9 P0 1.522219 1_555
O10 P1 1.538722 1_455
O11 S0 1.478511 1_555
O12 P5 1.569911 1_555
O12 Ti2 1.970804 1_555
O13 P6 1.575870 1_555
O13 Ti2 1.930464 1_555
O14 P7 1.579563 1_555
O14 Ti2 1.905191 1_555
O15 P8 1.580963 1_555
O15 Ti3 1.896607 1_555
O16 P9 1.557034 1_555
O16 Ti3 1.938886 1_555
O17 P10 1.574152 1_555
O17 Ti3 1.932238 1_555
O18 P10 1.544655 1_555
O18 Ti4 1.938834 1_554
O19 P8 1.538811 1_555
O19 Ti4 1.928557 1_554
O20 P9 1.562907 1_555
O20 Ti4 1.874120 1_554
O21 P6 1.543445 1_555
O21 Ti5 1.927937 1_555
O22 P7 1.540577 1_555
O22 Ti5 1.930351 1_555
O23 P5 1.564699 1_555
O23 Ti5 1.881899 1_555
O24 S1 1.492203 1_555
O25 P11 1.554316 1_555
O26 P12 1.545984 1_555
O27 P13 1.547489 1_555
O28 S2 1.494132 1_555
O29 P14 1.548476 1_555
O30 P14 1.530858 1_555
O31 P13 1.527694 1_555
O32 S2 1.482585 1_555
O33 P11 1.540994 1_555
O34 P12 1.532290 1_555
O35 S1 1.485130 1_555
O36 P14 1.560405 1_655
O36 Ti0 1.974915 1_555
O37 P13 1.587414 1_545
O37 Ti0 1.884510 1_545
O38 S2 1.488546 1_555
O38 Ti0 2.251894 1_445
O39 P11 1.571269 1_655
O39 Ti1 1.978749 1_655
O40 P12 1.557705 1_545
O40 Ti1 1.974984 1_555
O41 S1 1.484464 1_555
O41 Ti1 2.226013 1_665
O42 P5 1.541282 1_555
O43 P6 1.527928 1_555
O44 P7 1.544435 1_555
O45 P8 1.527146 1_555
O46 P9 1.547542 1_555
O47 P10 1.549884 1_555
O48 P4 1.575788 1_555
O48 Ti2 2.144940 1_555
O49 P2 1.551047 1_555
O49 Ti2 2.034910 1_555
O50 P3 1.573980 1_555
O50 Ti2 2.079131 1_555
O51 P0 1.559211 1_555
O51 Ti3 2.036164 1_555
O52 P1 1.565149 1_555
O52 Ti3 2.052628 1_555
O53 S0 1.498984 1_555
O53 Ti3 2.232885 1_555
O54 S1 1.488879 1_555
O54 Ti4 2.118633 1_555
O55 P11 1.568891 1_655
O55 Ti4 1.985509 1_555
O56 P12 1.558242 1_545
O56 Ti4 1.943221 1_555
O57 P13 1.558510 1_545
O57 Ti5 1.986193 1_555
O58 S2 1.491784 1_555
O58 Ti5 2.122913 1_555
O59 P14 1.564438 1_655
O59 Ti5 1.950289 1_555
O60 P10 1.557062 1_555
O61 P8 1.554660 1_455
O62 P9 1.534842 1_565
O63 P6 1.558310 1_565
O64 P7 1.552028 1_555
O65 P5 1.538934 1_455
O66 S0 1.492388 1_565
O67 P0 1.530548 1_555
O68 P1 1.534464 1_455
O69 P2 1.540604 1_555
O70 P3 1.556076 1_455
O71 P4 1.536321 1_565
