# generated using pymatgen
data_La2Mg(FeO3)2
_symmetry_space_group_name_H-M   'P 1'
_cell_length_a   5.96350045
_cell_length_b   6.64372790
_cell_length_c   5.77949278
_cell_angle_alpha   63.90349874
_cell_angle_beta   71.21970567
_cell_angle_gamma   51.08039019
_symmetry_Int_Tables_number   1
_chemical_formula_structural   La2Mg(FeO3)2
_chemical_formula_sum   'La2 Mg1 Fe2 O6'
_cell_volume   159.65196990
_cell_formula_units_Z   1
loop_
 _symmetry_equiv_pos_site_id
 _symmetry_equiv_pos_as_xyz
  1  'x, y, z'
loop_
 _atom_site_type_symbol
 _atom_site_label
 _atom_site_symmetry_multiplicity
 _atom_site_fract_x
 _atom_site_fract_y
 _atom_site_fract_z
 _atom_site_occupancy
  La  La0  1  0.24438219  0.33546768  0.24486415  1
  La  La1  1  0.70016452  0.68911232  0.73716410  1
  Mg  Mg0  1  0.99510521  -0.00295513  0.50549738  1
  Fe  Fe0  1  0.49712075  0.50225072  0.47999241  1
  Fe  Fe1  1  0.99871794  0.00768568  0.00219228  1
  O  O0  1  0.55240847  0.14281540  0.59302347  1
  O  O1  1  0.05910925  0.72568520  0.36805676  1
  O  O2  1  0.86473286  0.31210308  0.13958820  1
  O  O3  1  0.91885226  0.28235779  0.63422826  1
  O  O4  1  0.16120084  0.70225115  0.85658340  1
  O  O5  1  0.43684571  0.86282011  0.37935461  1
loop_
_geom_bond_atom_site_label_1
_geom_bond_atom_site_label_2
_geom_bond_distance
_geom_bond_site_symmetry_2
La0 O4 2.367913 1_554
La0 O5 2.383418 1_545
La0 O1 2.442773 1_555
La0 O0 2.494271 1_555
La0 O3 2.511251 1_455
La0 O2 2.632831 1_455
La1 O0 2.341492 1_565
La1 O5 2.405916 1_555
La1 O3 2.417483 1_555
La1 O2 2.429455 1_556
La1 O1 2.539513 1_655
La1 O4 3.014404 1_555
La1 O4 3.101529 1_655
Mg0 O1 2.055957 1_645
Mg0 O3 2.072016 1_555
Mg0 O4 2.072338 1_645
Mg0 O0 2.126542 1_555
Mg0 O2 2.139537 1_555
Mg0 O5 2.156411 1_645
Fe0 O0 2.003735 1_555
Fe0 O5 2.008222 1_555
Fe0 O1 2.194618 1_555
Fe0 O3 2.221581 1_555
Fe0 O2 2.490422 1_555
Fe0 O4 2.628354 1_555
Fe1 O3 2.055592 1_554
Fe1 O1 2.065972 1_645
Fe1 O4 2.066800 1_644
Fe1 O2 2.081661 1_555
