# generated using pymatgen
data_Na5Ca2Hf2P5SO24
_symmetry_space_group_name_H-M   'P 1'
_cell_length_a   9.16994207
_cell_length_b   9.17093614
_cell_length_c   22.90725316
_cell_angle_alpha   90.05430512
_cell_angle_beta   89.89609683
_cell_angle_gamma   119.89748784
_symmetry_Int_Tables_number   1
_chemical_formula_structural   Na5Ca2Hf2P5SO24
_chemical_formula_sum   'Na15 Ca6 Hf6 P15 S3 O72'
_cell_volume   1670.05542934
_cell_formula_units_Z   3
loop_
 _symmetry_equiv_pos_site_id
 _symmetry_equiv_pos_as_xyz
  1  'x, y, z'
loop_
 _atom_site_type_symbol
 _atom_site_label
 _atom_site_symmetry_multiplicity
 _atom_site_fract_x
 _atom_site_fract_y
 _atom_site_fract_z
 _atom_site_occupancy
  Na  Na0  1  0.64484925  0.00445249  0.25286037  1
  Na  Na1  1  0.37353972  0.37839288  0.24316710  1
  Na  Na2  1  0.98854535  0.61803120  0.25190625  1
  Na  Na3  1  0.64623665  0.63274222  0.74473898  1
  Na  Na4  1  0.98340059  0.34836278  0.74558094  1
  Na  Na5  1  0.36742260  0.01855545  0.74548943  1
  Na  Na6  1  0.30749739  0.96340974  0.07146512  1
  Na  Na7  1  0.03153367  0.34936437  0.07390945  1
  Na  Na8  1  0.70717788  0.67895758  0.41875711  1
  Na  Na9  1  0.00380459  0.00210503  0.50138620  1
  Na  Na10  1  0.00252815  0.00066391  0.98665341  1
  Na  Na11  1  0.66654853  0.32677593  0.83440234  1
  Na  Na12  1  0.68993360  0.32741564  0.33753192  1
  Na  Na13  1  0.34973402  0.65941185  0.15933445  1
  Na  Na14  1  0.33584741  0.66459735  0.66310587  1
  Ca  Ca0  1  0.99960767  0.00412901  0.35762692  1
  Ca  Ca1  1  0.00540167  0.00583089  0.85250189  1
  Ca  Ca2  1  0.66818905  0.33403683  0.67409826  1
  Ca  Ca3  1  0.66928885  0.33948398  0.17912220  1
  Ca  Ca4  1  0.33753153  0.66478289  0.01456737  1
  Ca  Ca5  1  0.32814525  0.66974919  0.32075716  1
  Hf  Hf0  1  0.99853658  0.99889638  0.64664587  1
  Hf  Hf1  1  0.98750481  0.99480732  0.14376328  1
  Hf  Hf2  1  0.66785452  0.33225535  0.98180910  1
  Hf  Hf3  1  0.67310660  0.32831701  0.49037631  1
  Hf  Hf4  1  0.32961978  0.67340976  0.51800887  1
  Hf  Hf5  1  0.32530600  0.66835496  0.81929010  1
  P  P0  1  0.70549355  0.70651974  0.25175082  1
  P  P1  1  0.00288174  0.29400070  0.24736209  1
  P  P2  1  0.29315033  0.30090819  0.74900927  1
  P  P3  1  0.00502654  0.70791542  0.74993237  1
  P  P4  1  0.69941450  0.99165182  0.75000133  1
  P  P5  1  0.97669241  0.33266668  0.58602761  1
  P  P6  1  0.35912339  0.03011053  0.58546497  1
  P  P7  1  0.66671098  0.64088170  0.58318554  1
  P  P8  1  0.96306387  0.63535056  0.08464411  1
  P  P9  1  0.66979381  0.03895143  0.08554422  1
  P  P10  1  0.36193308  0.32380558  0.08627625  1
  P  P11  1  0.02545986  0.37042984  0.92014848  1
  P  P12  1  0.34376121  0.97376385  0.92051875  1
  P  P13  1  0.62680826  0.97112158  0.41779813  1
  P  P14  1  0.02328809  0.65504297  0.41831577  1
  S  S0  1  0.28881753  0.99832550  0.24720528  1
  S  S1  1  0.62713478  0.65425900  0.91527375  1
  S  S2  1  0.34716564  0.37394678  0.42032928  1
  O  O0  1  0.20602112  0.01340686  0.29917051  1
  O  O1  1  0.79965658  0.78330749  0.30846727  1
  O  O2  1  0.99190872  0.19126312  0.30056845  1
  O  O3  1  0.22132760  0.19273657  0.80265442  1
  O  O4  1  0.97060743  0.78140284  0.80347245  1
  O  O5  1  0.80714903  0.02440034  0.80338195  1
  O  O6  1  0.79126256  0.96547715  0.69552732  1
  O  O7  1  0.17379645  0.20793982  0.69524476  1
  O  O8  1  0.03353677  0.82550060  0.69560431  1
  O  O9  1  0.81534936  0.82030566  0.19832348  1
  O  O10  1  0.00976808  0.19584524  0.19069487  1
  O  O11  1  0.19041604  0.99041080  0.19320264  1
  O  O12  1  0.92139748  0.36884955  0.64397773  1
  O  O13  1  0.44920224  0.08354995  0.64357382  1
  O  O14  1  0.63124637  0.54701854  0.64066404  1
  O  O15  1  0.89887322  0.54390540  0.14252401  1
  O  O16  1  0.64918219  0.10768501  0.14341209  1
  O  O17  1  0.44583339  0.34231491  0.14511168  1
  O  O18  1  0.46757740  0.30565465  0.03529091  1
  O  O19  1  0.84235004  0.53239456  0.03317700  1
  O  O20  1  0.69520045  0.16587560  0.03446428  1
  O  O21  1  0.46607906  0.15699543  0.53623145  1
  O  O22  1  0.68957001  0.53912399  0.53216849  1
  O  O23  1  0.84714470  0.31067423  0.53704086  1
  O  O24  1  0.54851389  0.67197961  0.96787758  1
  O  O25  1  0.11867752  0.44684245  0.97644474  1
  O  O26  1  0.33294652  0.88203666  0.97661439  1
  O  O27  1  0.50718256  0.84197711  0.46418836  1
  O  O28  1  0.33523783  0.47712402  0.46794379  1
  O  O29  1  0.14479787  0.65847458  0.46617377  1
  O  O30  1  0.08096225  0.63202814  0.35773808  1
  O  O31  1  0.54653105  0.91614362  0.35709629  1
  O  O32  1  0.37203262  0.46205147  0.36376315  1
  O  O33  1  0.13036380  0.48888609  0.86578253  1
  O  O34  1  0.36075187  0.87135840  0.86590698  1
  O  O35  1  0.52045973  0.63814938  0.86184670  1
  O  O36  1  0.00474384  0.81180528  0.42399990  1
  O  O37  1  0.79519778  0.97416164  0.42358746  1
  O  O38  1  0.19919282  0.20627997  0.42174975  1
  O  O39  1  0.99440951  0.19327260  0.91325007  1
  O  O40  1  0.19256140  0.99707356  0.91418591  1
  O  O41  1  0.79626588  0.79607065  0.90987911  1
  O  O42  1  0.98521858  0.16763416  0.58765409  1
  O  O43  1  0.18387702  0.01789430  0.58740284  1
  O  O44  1  0.83122277  0.81592570  0.58696557  1
  O  O45  1  0.97592785  0.81311406  0.08631945  1
  O  O46  1  0.84059208  0.03495296  0.08565571  1
  O  O47  1  0.18805379  0.15028329  0.08604807  1
  O  O48  1  0.66737046  0.14000126  0.74156224  1
  O  O49  1  0.47374408  0.33458927  0.74026171  1
  O  O50  1  0.86014627  0.52728495  0.74114715  1
  O  O51  1  0.67972625  0.52719606  0.24738099  1
  O  O52  1  0.84405724  0.31296771  0.24681400  1
  O  O53  1  0.46094720  0.14608035  0.24500604  1
  O  O54  1  0.63098655  0.49192839  0.91817740  1
  O  O55  1  0.85284648  0.37019744  0.92128907  1
  O  O56  1  0.51180071  0.14988455  0.92161270  1
  O  O57  1  0.64781608  0.14803941  0.43116596  1
  O  O58  1  0.50488145  0.36428028  0.42926601  1
  O  O59  1  0.84280265  0.49723594  0.42931349  1
  O  O60  1  0.32317830  0.46614500  0.07880344  1
  O  O61  1  0.14190172  0.66403366  0.07716519  1
  O  O62  1  0.51908702  0.86509400  0.07720461  1
  O  O63  1  0.33161750  0.85135823  0.57049766  1
  O  O64  1  0.51597388  0.66848608  0.56850882  1
  O  O65  1  0.15301553  0.48212662  0.57014274  1
  O  O66  1  0.29837689  0.84066605  0.24698382  1
  O  O67  1  0.53409135  0.70167852  0.24765149  1
  O  O68  1  0.16551231  0.46906680  0.24547730  1
  O  O69  1  0.29724012  0.47593242  0.75558734  1
  O  O70  1  0.17672364  0.70334428  0.75668245  1
  O  O71  1  0.52353488  0.82191382  0.75596399  1
loop_
_geom_bond_atom_site_label_1
_geom_bond_atom_site_label_2
_geom_bond_distance
_geom_bond_site_symmetry_2
Na0 O67 2.438103 1_545
Na0 O52 2.491752 1_555
Na0 O31 2.537338 1_545
Na0 O53 2.597762 1_555
Na0 O16 2.674019 1_555
Na0 O66 2.759020 1_545
Na1 O17 2.409591 1_555
Na1 O68 2.431905 1_555
Na1 O51 2.436371 1_555
Na1 O67 2.572320 1_555
Na1 O53 2.624119 1_555
Na1 O32 2.868237 1_555
Na2 O52 2.429182 1_555
Na2 O51 2.524531 1_555
Na2 O66 2.543602 1_655
Na2 O30 2.551546 1_655
Na2 O68 2.594275 1_655
Na2 O15 2.619836 1_555
Na3 O49 2.382750 1_555
Na3 O14 2.492118 1_555
Na3 O71 2.507193 1_555
Na3 O50 2.584615 1_555
Na3 O69 2.789518 1_555
Na3 O6 2.882107 1_555
Na3 O4 2.912848 1_555
Na3 O35 2.928257 1_555
Na4 O50 2.414501 1_555
Na4 O12 2.426461 1_555
Na4 O69 2.519707 1_655
Na4 O48 2.557014 1_555
Na4 O70 2.837680 1_655
Na5 O48 2.399836 1_555
Na5 O13 2.432844 1_555
Na5 O70 2.537844 1_545
Na5 O49 2.558989 1_555
Na5 O71 2.816873 1_545
Na5 O3 2.860817 1_555
Na5 O8 2.901636 1_545
Na6 O26 2.345422 1_554
Na6 O61 2.388460 1_555
Na6 O47 2.473311 1_565
Na6 O62 2.517944 1_555
Na6 O45 2.660715 1_455
Na6 O18 2.846114 1_565
Na7 O60 2.336094 1_555
Na7 O25 2.389062 1_554
Na7 O46 2.533598 1_455
Na7 O61 2.538905 1_555
Na7 O47 2.843503 1_555
Na8 O36 2.373006 1_655
Na8 O37 2.411337 1_555
Na8 O59 2.539820 1_555
Na8 O58 2.547612 1_555
Na8 O1 2.684331 1_555
Na8 O22 2.866761 1_555
Na9 O36 2.489467 1_545
Na9 O43 2.530415 1_555
Na9 O37 2.534519 1_445
Na9 O42 2.547503 1_455
Na9 O44 2.562093 1_445
Na9 O38 2.587345 1_555
Na10 O40 2.416615 1_545
Na10 O39 2.467840 1_455
Na10 O41 2.580486 1_445
Na10 O47 2.764443 1_556
Na10 O45 2.795985 1_446
Na10 O46 2.810539 1_456
Na11 O56 2.517407 1_555
Na11 O55 2.524103 1_555
Na11 O54 2.562761 1_555
Na11 O48 2.731829 1_555
Na11 O50 2.799246 1_555
Na11 O49 2.814587 1_555
Na12 O52 2.551272 1_555
Na12 O59 2.576626 1_555
Na12 O57 2.612709 1_555
Na12 O51 2.794483 1_555
Na12 O58 2.822632 1_555
Na12 O53 2.862758 1_555
Na13 O60 2.483762 1_555
Na13 O67 2.541415 1_555
Na13 O62 2.566168 1_555
Na13 O68 2.617169 1_555
Na13 O61 2.696395 1_555
Na13 O66 2.790496 1_555
Na14 O69 2.645874 1_555
Na14 O71 2.664652 1_555
Na14 O64 2.711770 1_555
Na14 O70 2.711911 1_555
Na14 O65 2.712084 1_555
Na14 O63 2.740227 1_555
Ca0 O2 2.187252 1_555
Ca0 O1 2.243367 1_545
Ca0 O0 2.283314 1_655
Ca0 O37 2.312794 1_545
Ca0 O36 2.347980 1_645
Ca0 O38 2.359296 1_655
Ca1 O3 2.185082 1_555
Ca1 O5 2.217319 1_455
Ca1 O4 2.223000 1_445
Ca1 O39 2.251521 1_455
Ca1 O40 2.257203 1_545
Ca1 O41 2.328916 1_445
Ca2 O14 2.275940 1_555
Ca2 O13 2.280757 1_555
Ca2 O12 2.285794 1_555
Ca2 O49 2.339998 1_555
Ca2 O50 2.343732 1_555
Ca2 O48 2.355163 1_555
Ca3 O15 2.170634 1_555
Ca3 O16 2.197442 1_555
Ca3 O17 2.205724 1_555
Ca3 O51 2.291027 1_555
Ca3 O52 2.330283 1_555
Ca3 O53 2.385409 1_555
Ca4 O24 2.180973 1_554
Ca4 O25 2.188461 1_554
Ca4 O26 2.194148 1_554
Ca4 O62 2.271561 1_555
Ca4 O61 2.291893 1_555
Ca4 O60 2.294881 1_555
Ca5 O30 2.277482 1_555
Ca5 O31 2.302329 1_555
Ca5 O32 2.351566 1_555
Ca5 O66 2.412598 1_555
Ca5 O68 2.419125 1_555
Ca5 O67 2.427933 1_555
Hf0 O6 2.091071 1_555
Hf0 O8 2.098332 1_655
Hf0 O7 2.104404 1_665
Hf0 O42 2.104448 1_565
Hf0 O43 2.111270 1_665
Hf0 O44 2.115515 1_555
Hf1 O9 2.023213 1_555
Hf1 O10 2.053904 1_665
Hf1 O46 2.055268 1_565
Hf1 O45 2.083114 1_555
Hf1 O47 2.131600 1_665
Hf1 O11 2.197474 1_655
Hf2 O20 2.057190 1_556
Hf2 O55 2.079576 1_555
Hf2 O56 2.088866 1_555
Hf2 O19 2.094946 1_556
Hf2 O18 2.116375 1_556
Hf2 O54 2.209674 1_555
Hf3 O23 1.994929 1_555
Hf3 O21 2.048996 1_555
Hf3 O57 2.059505 1_555
Hf3 O59 2.090683 1_555
Hf3 O22 2.093560 1_555
Hf3 O58 2.228000 1_555
Hf4 O27 2.011973 1_555
Hf4 O63 2.018878 1_555
Hf4 O29 2.019064 1_555
Hf4 O65 2.071489 1_555
Hf4 O64 2.084381 1_555
Hf4 O28 2.155619 1_555
Hf5 O33 2.025364 1_555
Hf5 O34 2.026392 1_555
Hf5 O70 2.111871 1_555
Hf5 O35 2.174993 1_555
Hf5 O71 2.198664 1_555
Hf5 O69 2.203073 1_555
O0 S0 1.453848 1_545
O1 P0 1.524998 1_555
O2 P1 1.513468 1_655
O3 P2 1.508656 1_555
O4 P3 1.505689 1_655
O5 P4 1.506430 1_545
O6 P4 1.587858 1_555
O7 P2 1.585645 1_555
O8 P3 1.581244 1_555
O9 P0 1.597372 1_555
O10 P1 1.597968 1_555
O11 S0 1.512733 1_555
O12 P5 1.514552 1_555
O13 P6 1.514444 1_555
O14 P7 1.517205 1_555
O15 P8 1.521475 1_555
O16 P9 1.518731 1_555
O17 P10 1.519973 1_555
O18 P10 1.576879 1_555
O19 P8 1.570825 1_555
O20 P9 1.584168 1_555
O21 P6 1.564828 1_555
O22 P7 1.572465 1_555
O23 P5 1.573743 1_555
O24 S1 1.453102 1_555
O25 P11 1.513254 1_555
O26 P12 1.512327 1_555
O27 P13 1.561510 1_555
O28 S2 1.482488 1_555
O29 P14 1.553637 1_555
O30 P14 1.535558 1_555
O31 P13 1.536885 1_555
O32 S2 1.483622 1_555
O33 P11 1.616454 1_555
O34 P12 1.616860 1_555
O35 S1 1.528557 1_555
O36 P14 1.534930 1_555
O37 P13 1.536391 1_555
O38 S2 1.458284 1_555
O39 P11 1.511356 1_655
O40 P12 1.511744 1_555
O41 S1 1.449437 1_555
O42 P5 1.554437 1_555
O43 P6 1.554747 1_555
O44 P7 1.564066 1_555
O45 P8 1.575219 1_555
O46 P9 1.584814 1_555
O47 P10 1.595395 1_555
O48 P4 1.540754 1_545
O49 P2 1.538501 1_555
O50 P3 1.534943 1_655
O51 P0 1.543645 1_555
O52 P1 1.550539 1_655
O53 S0 1.482478 1_545
O54 S1 1.508173 1_555
O55 P11 1.581962 1_655
O56 P12 1.582022 1_545
O57 P13 1.565591 1_545
O58 S2 1.506756 1_555
O59 P14 1.583822 1_655
O60 P10 1.524054 1_555
O61 P8 1.535234 1_455
O62 P9 1.514039 1_565
O63 P6 1.567038 1_565
O64 P7 1.561547 1_555
O65 P5 1.554003 1_455
O66 S0 1.491519 1_555
O67 P0 1.553107 1_555
O68 P1 1.554529 1_555
O69 P2 1.593777 1_555
O70 P3 1.603515 1_555
O71 P4 1.593669 1_555
