# generated using pymatgen
data_K2NiH8(CO5)2
_symmetry_space_group_name_H-M   'P 1'
_cell_length_a   6.28550600
_cell_length_b   6.89276800
_cell_length_c   12.30215387
_cell_angle_alpha   65.66439260
_cell_angle_beta   90.00000000
_cell_angle_gamma   90.00000000
_symmetry_Int_Tables_number   1
_chemical_formula_structural   K2NiH8(CO5)2
_chemical_formula_sum   'K4 Ni2 H16 C4 O20'
_cell_volume   485.62795790
_cell_formula_units_Z   2
loop_
 _symmetry_equiv_pos_site_id
 _symmetry_equiv_pos_as_xyz
  1  'x, y, z'
loop_
 _atom_site_type_symbol
 _atom_site_label
 _atom_site_symmetry_multiplicity
 _atom_site_fract_x
 _atom_site_fract_y
 _atom_site_fract_z
 _atom_site_occupancy
  K  K0  1  0.84471700  0.23570600  0.68250500  1
  K  K1  1  0.34471700  0.76429400  0.81749500  1
  K  K2  1  0.65528300  0.23570600  0.18250500  1
  K  K3  1  0.15528300  0.76429400  0.31749500  1
  Ni  Ni0  1  0.50000000  0.00000000  0.50000000  1
  Ni  Ni1  1  0.00000000  0.00000000  0.00000000  1
  H  H0  1  0.67476800  0.29649200  0.92319700  1
  H  H1  1  0.17476800  0.70350800  0.57680300  1
  H  H2  1  0.32523200  0.70350800  0.07680300  1
  H  H3  1  0.82523200  0.29649200  0.42319700  1
  H  H4  1  0.88945000  0.42695100  0.89012800  1
  H  H5  1  0.38945000  0.57304900  0.60987200  1
  H  H6  1  0.65930600  0.80550500  0.36734700  1
  H  H7  1  0.15930600  0.19449500  0.13265300  1
  H  H8  1  0.34069400  0.19449500  0.63265300  1
  H  H9  1  0.61055000  0.42695100  0.39012800  1
  H  H10  1  0.30048400  0.20514100  0.01712000  1
  H  H11  1  0.80048400  0.79485900  0.48288000  1
  H  H12  1  0.69951600  0.79485900  0.98288000  1
  H  H13  1  0.19951600  0.20514100  0.51712000  1
  H  H14  1  0.11055000  0.57304900  0.10987200  1
  H  H15  1  0.84069400  0.80550500  0.86734700  1
  C  C0  1  0.65742300  0.74434300  0.18100200  1
  C  C1  1  0.84257700  0.74434300  0.68100200  1
  C  C2  1  0.34257700  0.25565700  0.81899800  1
  C  C3  1  0.15742300  0.25565700  0.31899800  1
  O  O0  1  0.17282200  0.70872600  0.05067700  1
  O  O1  1  0.58530400  0.67240400  0.10500200  1
  O  O2  1  0.71937500  0.89361400  0.40861000  1
  O  O3  1  0.21937500  0.10638600  0.09139000  1
  O  O4  1  0.28062500  0.10638600  0.59139000  1
  O  O5  1  0.78062500  0.89361400  0.90861000  1
  O  O6  1  0.67282200  0.29127400  0.44932300  1
  O  O7  1  0.08530400  0.32759600  0.39499800  1
  O  O8  1  0.32717800  0.70872600  0.55067700  1
  O  O9  1  0.82717800  0.29127400  0.94932300  1
  O  O10  1  0.81620500  0.87631300  0.15374700  1
  O  O11  1  0.31620500  0.12368700  0.34625300  1
  O  O12  1  0.18379500  0.12368700  0.84625300  1
  O  O13  1  0.68379500  0.87631300  0.65374700  1
  O  O14  1  0.06853500  0.31623200  0.21477700  1
  O  O15  1  0.43146500  0.31623200  0.71477700  1
  O  O16  1  0.91469600  0.67240400  0.60500200  1
  O  O17  1  0.56853500  0.68376800  0.28522300  1
  O  O18  1  0.41469600  0.32759600  0.89499800  1
  O  O19  1  0.93146500  0.68376800  0.78522300  1
loop_
_geom_bond_atom_site_label_1
_geom_bond_atom_site_label_2
_geom_bond_distance
_geom_bond_site_symmetry_2
K0 O15 2.719248 1_555
K0 O16 2.792435 1_555
K0 O12 2.813295 1_655
K0 O13 2.829687 1_545
K0 O5 2.837938 1_545
K0 O6 2.938985 1_555
K1 O19 2.719248 1_455
K1 O18 2.792435 1_555
K1 O13 2.813295 1_555
K1 O12 2.829687 1_565
K1 O4 2.837938 1_565
K1 O0 2.938985 1_556
K2 O14 2.719248 1_655
K2 O1 2.792435 1_555
K2 O11 2.813295 1_555
K2 O10 2.829687 1_545
K2 O2 2.837938 1_545
K2 O9 2.938985 1_554
K3 O17 2.719248 1_555
K3 O7 2.792435 1_555
K3 O10 2.813295 1_455
K3 O11 2.829687 1_565
K3 O3 2.837938 1_565
K3 O8 2.938985 1_555
Ni0 O13 2.076033 1_545
Ni0 O11 2.076033 1_555
Ni0 O4 2.093453 1_555
Ni0 O2 2.093453 1_545
Ni0 O6 2.137261 1_555
Ni0 O8 2.137261 1_545
Ni1 O10 2.076033 1_445
Ni1 O12 2.076033 1_554
Ni1 O3 2.093453 1_555
Ni1 O5 2.093453 1_444
Ni1 O9 2.137261 1_454
Ni1 O0 2.137261 1_545
H0 O9 1.006371 1_555
H0 O18 1.666495 1_555
H1 O8 1.006371 1_555
H1 O16 1.666495 1_455
H2 O0 1.006371 1_555
H2 O1 1.666495 1_555
H3 O6 1.006371 1_555
H3 O7 1.666495 1_655
H4 O9 0.998408 1_555
H4 O19 1.728006 1_555
H5 O8 0.998408 1_555
H5 O15 1.728006 1_555
H6 O2 1.011507 1_555
H6 O17 1.658013 1_555
H7 O3 1.011507 1_555
H7 O14 1.658013 1_555
H8 O4 1.011507 1_555
H8 O15 1.658013 1_555
H9 O6 0.998408 1_555
H9 O17 1.728006 1_555
H10 O3 1.022491 1_555
H10 O18 1.561978 1_554
H11 O2 1.022491 1_555
H11 O16 1.561978 1_555
H12 O5 1.022491 1_555
H12 O1 1.561978 1_556
H13 O4 1.022491 1_555
H13 O7 1.561978 1_555
H14 O0 0.998408 1_555
H14 O14 1.728006 1_555
H15 O5 1.011507 1_555
H15 O19 1.658013 1_555
C0 O10 1.297903 1_555
C0 O17 1.299682 1_555
C0 O1 1.306755 1_555
C1 O13 1.297903 1_555
C1 O19 1.299682 1_555
C1 O16 1.306755 1_555
C2 O12 1.297903 1_555
C2 O15 1.299682 1_555
C2 O18 1.306755 1_555
C3 O11 1.297903 1_555
C3 O14 1.299682 1_555
C3 O7 1.306755 1_555
