# generated using pymatgen
data_Ca3Ga4O9
_symmetry_space_group_name_H-M   'P 1'
_cell_length_a   11.05868684
_cell_length_b   11.05868684
_cell_length_c   5.32453866
_cell_angle_alpha   90.00000000
_cell_angle_beta   90.00000000
_cell_angle_gamma   98.92564392
_symmetry_Int_Tables_number   1
_chemical_formula_structural   Ca3Ga4O9
_chemical_formula_sum   'Ca9 Ga12 O27'
_cell_volume   643.27685217
_cell_formula_units_Z   3
loop_
 _symmetry_equiv_pos_site_id
 _symmetry_equiv_pos_as_xyz
  1  'x, y, z'
loop_
 _atom_site_type_symbol
 _atom_site_label
 _atom_site_symmetry_multiplicity
 _atom_site_fract_x
 _atom_site_fract_y
 _atom_site_fract_z
 _atom_site_occupancy
  Ca  Ca0  1  -0.00000000  0.00000000  0.99648114  1
  Ca  Ca1  1  0.59791360  0.40208640  0.09077545  1
  Ca  Ca2  1  0.40208640  0.59791360  0.09077545  1
  Ca  Ca3  1  0.66052229  0.08029592  0.03384515  1
  Ca  Ca4  1  0.33947771  0.91970408  0.03384515  1
  Ca  Ca5  1  0.91970408  0.33947771  0.03384515  1
  Ca  Ca6  1  0.08029592  0.66052229  0.03384515  1
  Ca  Ca7  1  0.76005609  0.76005609  0.04802147  1
  Ca  Ca8  1  0.23994391  0.23994391  0.04802147  1
  Ga  Ga0  1  0.01452625  0.20296683  0.51099411  1
  Ga  Ga1  1  0.20296683  0.01452625  0.51099411  1
  Ga  Ga2  1  0.79703317  0.98547375  0.51099411  1
  Ga  Ga3  1  0.98547375  0.79703317  0.51099411  1
  Ga  Ga4  1  0.46492351  0.13425731  0.56017981  1
  Ga  Ga5  1  0.53507649  0.86574269  0.56017981  1
  Ga  Ga6  1  0.86574269  0.53507649  0.56017981  1
  Ga  Ga7  1  0.13425731  0.46492351  0.56017981  1
  Ga  Ga8  1  0.61210268  0.61210268  0.60745548  1
  Ga  Ga9  1  0.38789732  0.38789732  0.60745548  1
  Ga  Ga10  1  0.73763144  0.26236856  0.52754177  1
  Ga  Ga11  1  0.26236856  0.73763144  0.52754177  1
  O  O0  1  -0.00000000  0.50000000  0.75626903  1
  O  O1  1  0.50000000  0.00000000  0.75626903  1
  O  O2  1  0.24532583  0.41576057  0.77445076  1
  O  O3  1  0.75467417  0.58423943  0.77445076  1
  O  O4  1  0.58423943  0.75467417  0.77445076  1
  O  O5  1  0.41576057  0.24532583  0.77445076  1
  O  O6  1  0.27172336  0.72827664  0.86456138  1
  O  O7  1  0.72827664  0.27172336  0.86456138  1
  O  O8  1  0.97645948  0.79671483  0.84686361  1
  O  O9  1  0.02354052  0.20328517  0.84686361  1
  O  O10  1  0.20328517  0.02354052  0.84686361  1
  O  O11  1  0.79671483  0.97645948  0.84686361  1
  O  O12  1  0.50000000  0.50000000  0.77585132  1
  O  O13  1  0.06767905  0.34631324  0.33651489  1
  O  O14  1  0.93232095  0.65368676  0.33651489  1
  O  O15  1  0.65368676  0.93232095  0.33651489  1
  O  O16  1  0.34631324  0.06767905  0.33651489  1
  O  O17  1  0.15424864  0.84575136  0.39951777  1
  O  O18  1  0.84575136  0.15424864  0.39951777  1
  O  O19  1  0.20419306  0.59467479  0.35924014  1
  O  O20  1  0.79580694  0.40532521  0.35924014  1
  O  O21  1  0.60885667  0.60885667  0.26790175  1
  O  O22  1  0.39114333  0.39114333  0.26790175  1
  O  O23  1  0.89789792  0.89789792  0.33915272  1
  O  O24  1  0.10210208  0.10210208  0.33915272  1
  O  O25  1  0.59467479  0.20419306  0.35924014  1
  O  O26  1  0.40532521  0.79580694  0.35924014  1
loop_
_geom_bond_atom_site_label_1
_geom_bond_atom_site_label_2
_geom_bond_distance
_geom_bond_site_symmetry_2
Ca0 O23 2.341632 1_446
Ca0 O24 2.341632 1_556
Ca0 O9 2.361063 1_555
Ca0 O10 2.361063 1_555
Ca0 O11 2.361063 1_445
Ca0 O8 2.361063 1_445
Ca1 O12 2.349565 1_554
Ca1 O22 2.459028 1_555
Ca1 O21 2.459028 1_555
Ca1 O7 2.500476 1_554
Ca1 O25 2.609514 1_555
Ca1 O20 2.609514 1_555
Ca1 O5 2.969202 1_554
Ca1 O3 2.969202 1_554
Ca2 O12 2.349565 1_554
Ca2 O22 2.459028 1_555
Ca2 O21 2.459028 1_555
Ca2 O6 2.500476 1_554
Ca2 O19 2.609514 1_555
Ca2 O26 2.609514 1_555
Ca2 O2 2.969202 1_554
Ca2 O4 2.969202 1_554
Ca3 O11 2.261595 1_544
Ca3 O15 2.289616 1_545
Ca3 O7 2.315833 1_554
Ca3 O1 2.373805 1_554
Ca3 O25 2.391435 1_555
Ca3 O18 2.852343 1_555
Ca4 O10 2.261595 1_564
Ca4 O16 2.289616 1_565
Ca4 O6 2.315833 1_554
Ca4 O1 2.373805 1_564
Ca4 O26 2.391435 1_555
Ca4 O17 2.852343 1_555
Ca5 O9 2.261595 1_654
Ca5 O13 2.289616 1_655
Ca5 O7 2.315833 1_554
Ca5 O0 2.373805 1_654
Ca5 O20 2.391435 1_555
Ca5 O18 2.852343 1_555
Ca6 O8 2.261595 1_454
Ca6 O14 2.289616 1_455
Ca6 O6 2.315833 1_554
Ca6 O0 2.373805 1_554
Ca6 O19 2.391435 1_555
Ca6 O17 2.852343 1_555
Ca7 O4 2.422754 1_554
Ca7 O3 2.422754 1_554
Ca7 O21 2.468754 1_555
Ca7 O23 2.515786 1_555
Ca7 O11 2.595689 1_554
Ca7 O8 2.595689 1_554
Ca7 O15 2.840379 1_555
Ca7 O14 2.840379 1_555
Ca8 O2 2.422754 1_554
Ca8 O5 2.422754 1_554
Ca8 O22 2.468754 1_555
Ca8 O24 2.515786 1_555
Ca8 O9 2.595689 1_554
Ca8 O10 2.595689 1_554
Ca8 O16 2.840379 1_555
Ca8 O13 2.840379 1_555
Ga0 O9 1.791099 1_555
Ga0 O24 1.831536 1_555
Ga0 O13 1.852669 1_555
Ga0 O18 1.952973 1_455
Ga1 O10 1.791099 1_555
Ga1 O24 1.831536 1_555
Ga1 O16 1.852669 1_555
Ga1 O17 1.952973 1_545
Ga2 O11 1.791099 1_555
Ga2 O23 1.831536 1_555
Ga2 O15 1.852669 1_555
Ga2 O18 1.952973 1_565
Ga3 O8 1.791099 1_555
Ga3 O23 1.831536 1_555
Ga3 O14 1.852669 1_555
Ga3 O17 1.952973 1_655
Ga4 O5 1.820190 1_555
Ga4 O16 1.838798 1_555
Ga4 O25 1.859402 1_555
Ga4 O1 1.903589 1_555
Ga5 O4 1.820190 1_555
Ga5 O15 1.838798 1_555
Ga5 O26 1.859402 1_555
Ga5 O1 1.903589 1_565
Ga6 O3 1.820190 1_555
Ga6 O14 1.838798 1_555
Ga6 O20 1.859402 1_555
Ga6 O0 1.903589 1_655
Ga7 O2 1.820190 1_555
Ga7 O13 1.838798 1_555
Ga7 O19 1.859402 1_555
Ga7 O0 1.903589 1_555
Ga8 O21 1.808569 1_555
Ga8 O12 1.844126 1_555
Ga8 O4 1.876742 1_555
Ga8 O3 1.876742 1_555
Ga9 O22 1.808569 1_555
Ga9 O12 1.844126 1_555
Ga9 O5 1.876742 1_555
Ga9 O2 1.876742 1_555
Ga10 O7 1.801350 1_555
Ga10 O20 1.844077 1_555
Ga10 O25 1.844077 1_555
Ga10 O18 1.941009 1_555
Ga11 O6 1.801350 1_555
Ga11 O26 1.844077 1_555
Ga11 O19 1.844077 1_555
Ga11 O17 1.941009 1_555
