# generated using pymatgen
data_MgMn3NiO8
_symmetry_space_group_name_H-M   'P 1'
_cell_length_a   6.03999582
_cell_length_b   6.11644331
_cell_length_c   5.74538652
_cell_angle_alpha   59.02503066
_cell_angle_beta   60.43810354
_cell_angle_gamma   57.33091230
_symmetry_Int_Tables_number   1
_chemical_formula_structural   MgMn3NiO8
_chemical_formula_sum   'Mg1 Mn3 Ni1 O8'
_cell_volume   146.20331952
_cell_formula_units_Z   1
loop_
 _symmetry_equiv_pos_site_id
 _symmetry_equiv_pos_as_xyz
  1  'x, y, z'
loop_
 _atom_site_type_symbol
 _atom_site_label
 _atom_site_symmetry_multiplicity
 _atom_site_fract_x
 _atom_site_fract_y
 _atom_site_fract_z
 _atom_site_occupancy
  Mg  Mg0  1  0.00000000  0.00000000  0.00000000  1
  Mn  Mn0  1  0.50000000  0.00000000  0.50000000  1
  Mn  Mn1  1  0.50000000  0.50000000  0.50000000  1
  Mn  Mn2  1  0.00000000  0.50000000  0.50000000  1
  Ni  Ni0  1  0.50000000  0.50000000  0.00000000  1
  O  O0  1  0.27524700  0.28491700  0.24449900  1
  O  O1  1  0.70100600  0.24396600  0.27485900  1
  O  O2  1  0.23037800  0.70897500  0.29165000  1
  O  O3  1  0.24141000  0.22888800  0.73366300  1
  O  O4  1  0.75859000  0.77111200  0.26633700  1
  O  O5  1  0.76962200  0.29102500  0.70835000  1
  O  O6  1  0.29899400  0.75603400  0.72514100  1
  O  O7  1  0.72475300  0.71508300  0.75550100  1
loop_
_geom_bond_atom_site_label_1
_geom_bond_atom_site_label_2
_geom_bond_distance
_geom_bond_site_symmetry_2
Mg0 O3 2.055397 1_554
Mg0 O4 2.055397 1_445
Mg0 O2 2.114012 1_545
Mg0 O5 2.114012 1_454
Mg0 O1 2.164283 1_455
Mg0 O6 2.164283 1_544
Mn0 O3 1.925276 1_555
Mn0 O4 1.925276 1_545
Mn0 O1 1.947630 1_555
Mn0 O6 1.947630 1_545
Mn0 O7 1.952897 1_545
Mn0 O0 1.952897 1_555
Mn1 O5 1.954531 1_555
Mn1 O2 1.954531 1_555
Mn1 O6 2.020528 1_555
Mn1 O1 2.020528 1_555
Mn1 O4 2.329625 1_555
Mn1 O3 2.329625 1_555
Mn2 O2 1.924711 1_555
Mn2 O5 1.924711 1_455
Mn2 O4 1.925588 1_455
Mn2 O3 1.925588 1_555
Mn2 O7 1.966730 1_455
Mn2 O0 1.966730 1_555
Ni0 O7 1.921175 1_554
Ni0 O0 1.921175 1_555
Ni0 O1 1.927140 1_555
Ni0 O6 1.927140 1_554
Ni0 O2 2.087682 1_555
Ni0 O5 2.087682 1_554
