# generated using pymatgen
data_Na3TaSi3SnO12
_symmetry_space_group_name_H-M   'P 1'
_cell_length_a   9.06365412
_cell_length_b   9.06502681
_cell_length_c   22.46278701
_cell_angle_alpha   90.00000000
_cell_angle_beta   90.14246033
_cell_angle_gamma   120.00501234
_symmetry_Int_Tables_number   1
_chemical_formula_structural   Na3TaSi3SnO12
_chemical_formula_sum   'Na18 Ta6 Si18 Sn6 O72'
_cell_volume   1598.24354877
_cell_formula_units_Z   6
loop_
 _symmetry_equiv_pos_site_id
 _symmetry_equiv_pos_as_xyz
  1  'x, y, z'
loop_
 _atom_site_type_symbol
 _atom_site_label
 _atom_site_symmetry_multiplicity
 _atom_site_fract_x
 _atom_site_fract_y
 _atom_site_fract_z
 _atom_site_occupancy
  Na  Na0  1  0.99085258  0.97974178  0.49675038  1
  Na  Na1  1  0.99085258  0.01111081  0.99675038  1
  Na  Na2  1  0.66671518  0.33487537  0.83007452  1
  Na  Na3  1  0.66671518  0.33183881  0.33007452  1
  Na  Na4  1  0.33136694  0.66503295  0.16345555  1
  Na  Na5  1  0.33136694  0.66633500  0.66345555  1
  Na  Na6  1  0.36872066  0.36454586  0.24904795  1
  Na  Na7  1  0.99146553  0.63110779  0.24860070  1
  Na  Na8  1  0.99146553  0.36035774  0.74860070  1
  Na  Na9  1  0.36872066  0.00417480  0.74904795  1
  Na  Na10  1  0.30494753  0.34120830  0.58241398  1
  Na  Na11  1  0.66264256  0.96585390  0.58178263  1
  Na  Na12  1  0.30494753  0.96373823  0.08241398  1
  Na  Na13  1  0.66264256  0.69678766  0.08178263  1
  Na  Na14  1  0.97137378  0.67520340  0.91501555  1
  Na  Na15  1  0.32872983  0.29856300  0.91584382  1
  Na  Na16  1  0.97137378  0.29617138  0.41501555  1
  Na  Na17  1  0.32872983  0.03016783  0.41584382  1
  Ta  Ta0  1  0.99920361  0.99672145  0.64522304  1
  Ta  Ta1  1  0.99920361  0.00248215  0.14522304  1
  Ta  Ta2  1  0.66782453  0.32903134  0.97846834  1
  Ta  Ta3  1  0.66782453  0.33879218  0.47846834  1
  Ta  Ta4  1  0.33720745  0.67018100  0.31186707  1
  Ta  Ta5  1  0.33720745  0.66702745  0.81186707  1
  Si  Si0  1  0.29204925  0.00141465  0.25037252  1
  Si  Si1  1  0.70889413  0.71031295  0.24881465  1
  Si  Si2  1  0.99688554  0.28966409  0.25157899  1
  Si  Si3  1  0.29204925  0.29063460  0.75037252  1
  Si  Si4  1  0.99688554  0.70722145  0.75157899  1
  Si  Si5  1  0.70889413  0.99858117  0.74881465  1
  Si  Si6  1  0.95931063  0.33687683  0.58416247  1
  Si  Si7  1  0.37585857  0.04125341  0.58371049  1
  Si  Si8  1  0.66785163  0.62458511  0.58309798  1
  Si  Si9  1  0.95931063  0.62243280  0.08416247  1
  Si  Si10  1  0.66785163  0.04326552  0.08309798  1
  Si  Si11  1  0.37585857  0.33460416  0.08371049  1
  Si  Si12  1  0.62601495  0.67020683  0.91866648  1
  Si  Si13  1  0.04255573  0.37485284  0.91556088  1
  Si  Si14  1  0.33472297  0.95766006  0.91663602  1
  Si  Si15  1  0.62601495  0.95580912  0.41866648  1
  Si  Si16  1  0.33472297  0.37706391  0.41663602  1
  Si  Si17  1  0.04255573  0.66770389  0.41556088  1
  Sn  Sn0  1  0.99547620  0.99645498  0.35237121  1
  Sn  Sn1  1  0.99547620  0.99902121  0.85237121  1
  Sn  Sn2  1  0.66687495  0.33787102  0.68578060  1
  Sn  Sn3  1  0.66687495  0.32900293  0.18578060  1
  Sn  Sn4  1  0.33043229  0.66253609  0.01918748  1
  Sn  Sn5  1  0.33043229  0.66789719  0.51918748  1
  O  O0  1  0.21323460  0.03851039  0.30982337  1
  O  O1  1  0.83480346  0.78954187  0.30553363  1
  O  O2  1  0.97080773  0.18503137  0.31274793  1
  O  O3  1  0.21323460  0.17472421  0.80982337  1
  O  O4  1  0.97080773  0.78577636  0.81274793  1
  O  O5  1  0.83480346  0.04526159  0.80553363  1
  O  O6  1  0.80088628  0.97241510  0.68953987  1
  O  O7  1  0.16538636  0.19802653  0.69198090  1
  O  O8  1  0.02845378  0.83889236  0.69539126  1
  O  O9  1  0.80088628  0.82847117  0.18953987  1
  O  O10  1  0.02845378  0.18956141  0.19539126  1
  O  O11  1  0.16538636  0.96735983  0.19198090  1
  O  O12  1  0.87845413  0.36245679  0.64466908  1
  O  O13  1  0.49124207  0.12044401  0.64331420  1
  O  O14  1  0.62040647  0.50024401  0.64017776  1
  O  O15  1  0.87845413  0.51599634  0.14466908  1
  O  O16  1  0.62040647  0.12016146  0.14017776  1
  O  O17  1  0.49124207  0.37079706  0.14331420  1
  O  O18  1  0.46993030  0.30229588  0.02558039  1
  O  O19  1  0.83293541  0.52937935  0.02587414  1
  O  O20  1  0.69467798  0.16714210  0.02533947  1
  O  O21  1  0.46993030  0.16763342  0.52558039  1
  O  O22  1  0.69467798  0.52753487  0.52533947  1
  O  O23  1  0.83293541  0.30355506  0.52587414  1
  O  O24  1  0.54823821  0.69807414  0.97938808  1
  O  O25  1  0.16599151  0.45681852  0.97278222  1
  O  O26  1  0.29523264  0.84166225  0.97590698  1
  O  O27  1  0.54823821  0.85016506  0.47938808  1
  O  O28  1  0.29523264  0.45357140  0.47590698  1
  O  O29  1  0.16599151  0.70917399  0.47278222  1
  O  O30  1  0.13216766  0.63330768  0.35665992  1
  O  O31  1  0.49424478  0.85698128  0.36207602  1
  O  O32  1  0.35909448  0.49720092  0.35806234  1
  O  O33  1  0.13216766  0.49886098  0.85665992  1
  O  O34  1  0.35909448  0.86189456  0.85806234  1
  O  O35  1  0.49424478  0.63726450  0.86207602  1
  O  O36  1  0.02822225  0.83876081  0.41090016  1
  O  O37  1  0.81955979  0.99145678  0.41282442  1
  O  O38  1  0.16808456  0.18569641  0.41191111  1
  O  O39  1  0.02822225  0.18946143  0.91090016  1
  O  O40  1  0.16808456  0.98238815  0.91191111  1
  O  O41  1  0.81955979  0.82810302  0.91282442  1
  O  O42  1  0.97052759  0.15864464  0.58846275  1
  O  O43  1  0.19105226  0.03576312  0.58936050  1
  O  O44  1  0.83815725  0.81476139  0.58880535  1
  O  O45  1  0.97052759  0.81188294  0.08846275  1
  O  O46  1  0.83815725  0.02339586  0.08880535  1
  O  O47  1  0.19105226  0.15528913  0.08936050  1
  O  O48  1  0.68272062  0.16429613  0.74453054  1
  O  O49  1  0.47631470  0.30334604  0.74501198  1
  O  O50  1  0.83894680  0.51350719  0.74618168  1
  O  O51  1  0.68272062  0.51842349  0.24453054  1
  O  O52  1  0.83894680  0.32543861  0.24618168  1
  O  O53  1  0.47631470  0.17296766  0.24501198  1
  O  O54  1  0.63585958  0.49180062  0.92238004  1
  O  O55  1  0.85855587  0.37016701  0.92227558  1
  O  O56  1  0.50435955  0.15004114  0.92170981  1
  O  O57  1  0.63585958  0.14405796  0.42238004  1
  O  O58  1  0.50435955  0.35431740  0.42170981  1
  O  O59  1  0.85855587  0.48838786  0.42227558  1
  O  O60  1  0.36156708  0.50543475  0.07897165  1
  O  O61  1  0.15368285  0.65924368  0.07926480  1
  O  O62  1  0.50145420  0.85308977  0.07759632  1
  O  O63  1  0.36156708  0.85613333  0.57897165  1
  O  O64  1  0.50145420  0.64836543  0.57759632  1
  O  O65  1  0.15368285  0.49444017  0.57926480  1
  O  O66  1  0.29808027  0.82260365  0.25596795  1
  O  O67  1  0.51799528  0.68958634  0.25569521  1
  O  O68  1  0.17539469  0.47789195  0.25481929  1
  O  O69  1  0.29808027  0.47547762  0.75596795  1
  O  O70  1  0.17539469  0.69750375  0.75481929  1
  O  O71  1  0.51799528  0.82840994  0.75569521  1
loop_
_geom_bond_atom_site_label_1
_geom_bond_atom_site_label_2
_geom_bond_distance
_geom_bond_site_symmetry_2
Na0 O36 2.429617 1_655
Na0 O37 2.475080 1_555
Na0 O44 2.524286 1_555
Na0 O38 2.591052 1_665
Na0 O43 2.633938 1_665
Na0 O42 2.684922 1_565
Na1 O39 2.429616 1_655
Na1 O41 2.475080 1_545
Na1 O46 2.524286 1_556
Na1 O40 2.591052 1_645
Na1 O47 2.633937 1_656
Na1 O45 2.684922 1_546
Na2 O50 2.469142 1_555
Na2 O49 2.490188 1_555
Na2 O48 2.515993 1_555
Na2 O56 2.599778 1_555
Na2 O54 2.608013 1_555
Na2 O55 2.615504 1_555
Na3 O52 2.469142 1_555
Na3 O53 2.490188 1_555
Na3 O51 2.515993 1_555
Na3 O58 2.599778 1_555
Na3 O57 2.608013 1_555
Na3 O59 2.615504 1_555
Na4 O61 2.464379 1_555
Na4 O60 2.483573 1_555
Na4 O62 2.527586 1_555
Na4 O68 2.589229 1_555
Na4 O67 2.609572 1_555
Na4 O66 2.623712 1_555
Na5 O65 2.464379 1_555
Na5 O63 2.483572 1_555
Na5 O64 2.527586 1_555
Na5 O70 2.589229 1_555
Na5 O71 2.609572 1_555
Na5 O69 2.623712 1_555
Na6 O53 2.381071 1_555
Na6 O68 2.438171 1_555
Na6 O51 2.467114 1_555
Na6 O67 2.558623 1_555
Na6 O17 2.612960 1_555
Na6 O32 2.748841 1_555
Na6 O0 2.903219 1_555
Na6 O10 2.927286 1_555
Na7 O52 2.400088 1_555
Na7 O66 2.436533 1_655
Na7 O51 2.454059 1_555
Na7 O15 2.550977 1_555
Na7 O68 2.653732 1_655
Na7 O30 2.734545 1_655
Na7 O1 2.786229 1_555
Na7 O11 2.932216 1_655
Na8 O50 2.400080 1_555
Na8 O69 2.436532 1_655
Na8 O48 2.454061 1_555
Na8 O12 2.550975 1_555
Na8 O70 2.653739 1_655
Na8 O33 2.734547 1_655
Na8 O5 2.786229 1_555
Na8 O7 2.932216 1_655
Na9 O49 2.381062 1_555
Na9 O70 2.438164 1_545
Na9 O48 2.467114 1_555
Na9 O71 2.558615 1_545
Na9 O13 2.612958 1_555
Na9 O34 2.748837 1_545
Na9 O3 2.903219 1_555
Na9 O8 2.927286 1_545
Na10 O65 2.391307 1_555
Na10 O43 2.428721 1_555
Na10 O64 2.444944 1_555
Na10 O28 2.618719 1_555
Na10 O42 2.632434 1_455
Na10 O7 2.777686 1_555
Na10 O14 2.792129 1_555
Na10 O21 2.950317 1_555
Na11 O63 2.392575 1_555
Na11 O42 2.446282 1_565
Na11 O64 2.494062 1_555
Na11 O27 2.523067 1_555
Na11 O44 2.570884 1_555
Na11 O6 2.709772 1_555
Na11 O13 2.911300 1_565
Na11 O23 2.935099 1_565
Na12 O61 2.391291 1_555
Na12 O47 2.428729 1_565
Na12 O62 2.444930 1_555
Na12 O26 2.618712 1_554
Na12 O45 2.632434 1_455
Na12 O11 2.777688 1_555
Na12 O16 2.792129 1_565
Na12 O18 2.950317 1_565
Na13 O60 2.392572 1_555
Na13 O45 2.446280 1_555
Na13 O62 2.494078 1_555
Na13 O24 2.523070 1_554
Na13 O46 2.570892 1_565
Na13 O9 2.709774 1_555
Na13 O17 2.911300 1_555
Na13 O19 2.935099 1_555
Na14 O41 2.392489 1_555
Na14 O55 2.427183 1_555
Na14 O40 2.443963 1_655
Na14 O4 2.507391 1_555
Na14 O54 2.642910 1_555
Na14 O19 2.807048 1_556
Na14 O26 2.883419 1_655
Na14 O33 2.955865 1_655
Na15 O39 2.390256 1_555
Na15 O54 2.441329 1_555
Na15 O40 2.483566 1_545
Na15 O56 2.550781 1_555
Na15 O3 2.615326 1_555
Na15 O18 2.766981 1_556
Na15 O25 2.827586 1_555
Na15 O35 2.922069 1_555
Na16 O37 2.392496 1_545
Na16 O59 2.427167 1_555
Na16 O38 2.443970 1_655
Na16 O2 2.507395 1_555
Na16 O57 2.642909 1_555
Na16 O23 2.807043 1_555
Na16 O28 2.883419 1_655
Na16 O30 2.955865 1_655
Na17 O36 2.390257 1_545
Na17 O57 2.441332 1_555
Na17 O38 2.483558 1_555
Na17 O58 2.550765 1_555
Na17 O0 2.615324 1_555
Na17 O21 2.766977 1_555
Na17 O29 2.827586 1_545
Na17 O31 2.922069 1_545
O0 Si0 1.628419 1_555
O0 Sn0 2.052085 1_445
O1 Si1 1.616920 1_555
O1 Sn0 2.001570 1_555
O2 Si2 1.618905 1_555
O2 Sn0 2.036093 1_545
O3 Si3 1.628419 1_555
O3 Sn1 2.052085 1_445
O4 Si4 1.618905 1_555
O4 Sn1 2.036093 1_555
O5 Si5 1.616920 1_545
O5 Sn1 2.001571 1_545
O6 Si5 1.651548 1_555
O6 Ta0 1.970596 1_555
O7 Si3 1.664848 1_555
O7 Ta0 1.986201 1_445
O8 Si4 1.661251 1_455
O8 Ta0 1.940381 1_455
O9 Si1 1.651548 1_555
O9 Ta1 1.970596 1_565
O10 Si2 1.661251 1_455
O10 Ta1 1.940381 1_455
O11 Si0 1.664848 1_565
O11 Ta1 1.986201 1_465
O12 Si6 1.616491 1_555
O12 Sn2 2.039934 1_555
O13 Si7 1.625965 1_555
O13 Sn2 2.045288 1_555
O14 Si8 1.617815 1_555
O14 Sn2 2.002781 1_555
O15 Si9 1.616491 1_555
O15 Sn3 2.039934 1_555
O16 Si10 1.617815 1_555
O16 Sn3 2.002781 1_555
O17 Si11 1.625965 1_555
O17 Sn3 2.045288 1_555
O18 Si11 1.665254 1_555
O18 Ta2 1.992611 1_554
O19 Si9 1.662542 1_555
O19 Ta2 1.986373 1_554
O20 Si10 1.652847 1_555
O20 Ta2 1.917643 1_554
O21 Si7 1.665254 1_555
O21 Ta3 1.992611 1_555
O22 Si8 1.652847 1_555
O22 Ta3 1.917643 1_555
O23 Si6 1.662542 1_555
O23 Ta3 1.986373 1_555
O24 Si12 1.613716 1_555
O24 Sn4 2.042763 1_556
O25 Si13 1.617813 1_555
O25 Sn4 1.999506 1_556
O26 Si14 1.622455 1_555
O26 Sn4 2.049443 1_556
O27 Si15 1.613716 1_555
O27 Sn5 2.042763 1_555
O28 Si16 1.622455 1_555
O28 Sn5 2.049443 1_555
O29 Si17 1.617813 1_555
O29 Sn5 1.999506 1_555
O30 Si17 1.663154 1_555
O30 Ta4 1.991435 1_555
O31 Si15 1.663495 1_555
O31 Ta4 1.935657 1_555
O32 Si16 1.651302 1_555
O32 Ta4 1.971054 1_555
O33 Si13 1.663154 1_555
O33 Ta5 1.991435 1_555
O34 Si14 1.651302 1_555
O34 Ta5 1.971054 1_555
O35 Si12 1.663495 1_555
O35 Ta5 1.935657 1_555
O36 Si17 1.622874 1_555
O36 Sn0 2.069411 1_455
O37 Si15 1.622693 1_555
O37 Sn0 2.080107 1_555
O38 Si16 1.637227 1_555
O38 Sn0 2.117669 1_445
O39 Si13 1.622883 1_555
O39 Sn1 2.069411 1_445
O40 Si14 1.637222 1_555
O40 Sn1 2.117669 1_455
O41 Si12 1.622690 1_555
O41 Sn1 2.080107 1_555
O42 Si6 1.671623 1_555
O42 Ta0 2.056119 1_545
O43 Si7 1.655886 1_555
O43 Ta0 2.029483 1_445
O44 Si8 1.645800 1_555
O44 Ta0 2.010023 1_555
O45 Si9 1.671632 1_555
O45 Ta1 2.056119 1_565
O46 Si10 1.645795 1_555
O46 Ta1 2.010023 1_555
O47 Si11 1.655881 1_555
O47 Ta1 2.029483 1_455
O48 Si5 1.636606 1_545
O48 Sn2 2.112594 1_555
O49 Si3 1.620369 1_555
O49 Sn2 2.078967 1_555
O50 Si4 1.622505 1_555
O50 Sn2 2.077045 1_555
O51 Si1 1.636615 1_555
O51 Sn3 2.112594 1_555
O52 Si2 1.622500 1_555
O52 Sn3 2.077045 1_555
O53 Si0 1.620365 1_555
O53 Sn3 2.078967 1_555
O54 Si12 1.665752 1_555
O54 Ta2 2.067399 1_555
O55 Si13 1.654151 1_655
O55 Ta2 2.021613 1_555
O56 Si14 1.653987 1_545
O56 Ta2 2.009870 1_555
O57 Si15 1.665734 1_545
O57 Ta3 2.067399 1_555
O58 Si16 1.653998 1_555
O58 Ta3 2.009870 1_555
O59 Si17 1.654159 1_655
O59 Ta3 2.021613 1_555
O60 Si11 1.620733 1_555
O60 Sn4 2.076358 1_555
O61 Si9 1.624845 1_455
O61 Sn4 2.085995 1_555
O62 Si10 1.631109 1_565
O62 Sn4 2.102355 1_555
O63 Si7 1.620715 1_565
O63 Sn5 2.076358 1_555
O64 Si8 1.631120 1_555
O64 Sn5 2.102355 1_555
O65 Si6 1.624851 1_455
O65 Sn5 2.085994 1_555
O66 Si0 1.653715 1_565
O66 Ta4 2.024704 1_555
O67 Si1 1.652003 1_555
O67 Ta4 2.007491 1_555
O68 Si2 1.665168 1_455
O68 Ta4 2.065260 1_555
O69 Si3 1.653724 1_555
O69 Ta5 2.024704 1_555
O70 Si4 1.665163 1_455
O70 Ta5 2.065260 1_555
O71 Si5 1.651999 1_555
O71 Ta5 2.007491 1_555
