# generated using pymatgen
data_MgV4Zn2O12
_symmetry_space_group_name_H-M   'P 1'
_cell_length_a   5.15778319
_cell_length_b   5.25644156
_cell_length_c   7.39615027
_cell_angle_alpha   90.03773787
_cell_angle_beta   89.22395200
_cell_angle_gamma   89.90690562
_symmetry_Int_Tables_number   1
_chemical_formula_structural   MgV4Zn2O12
_chemical_formula_sum   'Mg1 V4 Zn2 O12'
_cell_volume   200.50265883
_cell_formula_units_Z   1
loop_
 _symmetry_equiv_pos_site_id
 _symmetry_equiv_pos_as_xyz
  1  'x, y, z'
loop_
 _atom_site_type_symbol
 _atom_site_label
 _atom_site_symmetry_multiplicity
 _atom_site_fract_x
 _atom_site_fract_y
 _atom_site_fract_z
 _atom_site_occupancy
  Mg  Mg0  1  0.00577100  0.92888700  0.27493300  1
  V  V0  1  0.52409400  0.02762800  0.00815200  1
  V  V1  1  0.01450400  0.51662800  0.99664500  1
  V  V2  1  0.02684200  0.47906700  0.50743400  1
  V  V3  1  0.51245800  0.98601600  0.51602200  1
  Zn  Zn0  1  0.51973800  0.46644500  0.27386400  1
  Zn  Zn1  1  0.00520100  0.01813600  0.75053800  1
  O  O0  1  0.83462700  0.19777400  0.44582000  1
  O  O1  1  0.34398500  0.28992300  0.53485200  1
  O  O2  1  0.71595200  0.65777400  0.06494500  1
  O  O3  1  0.18080100  0.80150100  0.94363100  1
  O  O4  1  0.18013800  0.80364300  0.55628300  1
  O  O5  1  0.71544500  0.70370800  0.43708600  1
  O  O6  1  0.34644100  0.29312500  0.96107100  1
  O  O7  1  0.82955500  0.15930300  0.07490600  1
  O  O8  1  0.13963300  0.53146200  0.24492900  1
  O  O9  1  0.62426000  0.95421600  0.76455100  1
  O  O10  1  0.39644400  0.00238300  0.24297300  1
  O  O11  1  0.95351500  0.40744000  0.76792500  1
loop_
_geom_bond_atom_site_label_1
_geom_bond_atom_site_label_2
_geom_bond_distance
_geom_bond_site_symmetry_2
Mg0 O10 2.062795 1_565
Mg0 O0 2.082714 1_465
Mg0 O7 2.125304 1_465
Mg0 O8 2.209205 1_555
Mg0 O5 2.245139 1_455
Mg0 O4 2.371283 1_555
Mg0 O2 2.596999 1_455
Mg0 O3 2.683945 1_554
O0 V2 1.841988 1_655
O0 V3 2.062315 1_545
O0 Zn0 2.510105 1_555
O1 V3 1.821618 1_545
O1 V2 1.925945 1_555
O1 Zn0 2.316564 1_555
O2 V1 1.775260 1_654
O2 Zn0 2.094345 1_555
O2 V0 2.222914 1_565
O3 V1 1.768483 1_555
O3 Zn1 2.047055 1_565
O3 V0 2.191955 1_566
O4 V2 1.917766 1_555
O4 V3 1.984301 1_555
O4 Zn1 2.027060 1_565
O5 V3 1.901656 1_555
O5 Zn0 2.016632 1_555
O5 V2 2.064445 1_655
O6 V0 1.706926 1_556
O6 V1 2.088410 1_555
O7 V0 1.796995 1_555
O7 V1 2.182927 1_654
O8 V1 1.956234 1_554
O8 Zn0 2.003856 1_555
O8 V2 2.038244 1_555
O9 V0 1.906620 1_566
O9 V3 1.941158 1_555
O9 Zn1 1.995192 1_665
O10 V0 1.853935 1_555
O10 V3 2.115816 1_545
O10 Zn0 2.532804 1_555
O11 V1 1.817623 1_655
O11 V2 1.994587 1_655
O11 Zn1 2.066911 1_655
