# generated using pymatgen
data_NaMnBi
_symmetry_space_group_name_H-M   'P 1'
_cell_length_a   4.52487000
_cell_length_b   4.52487000
_cell_length_c   7.78542500
_cell_angle_alpha   90.00000000
_cell_angle_beta   90.00000000
_cell_angle_gamma   90.00000000
_symmetry_Int_Tables_number   1
_chemical_formula_structural   NaMnBi
_chemical_formula_sum   'Na2 Mn2 Bi2'
_cell_volume   159.40228334
_cell_formula_units_Z   2
loop_
 _symmetry_equiv_pos_site_id
 _symmetry_equiv_pos_as_xyz
  1  'x, y, z'
loop_
 _atom_site_type_symbol
 _atom_site_label
 _atom_site_symmetry_multiplicity
 _atom_site_fract_x
 _atom_site_fract_y
 _atom_site_fract_z
 _atom_site_occupancy
  Na  Na0  1  0.00000000  0.50000000  0.65151700  1
  Na  Na1  1  0.50000000  0.00000000  0.34848300  1
  Mn  Mn0  1  0.50000000  0.50000000  0.00000000  1
  Mn  Mn1  1  0.00000000  0.00000000  0.00000000  1
  Bi  Bi0  1  0.00000000  0.50000000  0.22545200  1
  Bi  Bi1  1  0.50000000  0.00000000  0.77454800  1
loop_
_geom_bond_atom_site_label_1
_geom_bond_atom_site_label_2
_geom_bond_distance
_geom_bond_site_symmetry_2
Mn0 Na0 3.532628 1_654
Mn0 Na0 3.532628 1_554
Mn0 Na1 3.532628 1_555
Mn0 Na1 3.532628 1_565
Mn1 Na0 3.532628 1_554
Mn1 Na1 3.532628 1_555
Mn1 Na0 3.532628 1_544
Mn1 Na1 3.532628 1_455
Bi0 Mn0 2.863473 1_455
Bi0 Mn1 2.863473 1_565
Bi0 Mn0 2.863473 1_555
Bi0 Mn1 2.863473 1_555
Bi0 Na0 3.317097 1_555
Bi0 Na1 3.339865 1_465
Bi0 Na1 3.339865 1_555
Bi0 Na1 3.339865 1_565
Bi0 Na1 3.339865 1_455
Bi1 Mn0 2.863473 1_556
Bi1 Mn1 2.863473 1_656
Bi1 Mn0 2.863473 1_546
Bi1 Mn1 2.863473 1_556
Bi1 Na1 3.317097 1_555
Bi1 Na0 3.339865 1_555
Bi1 Na0 3.339865 1_655
Bi1 Na0 3.339865 1_545
Bi1 Na0 3.339865 1_645
