# generated using pymatgen
data_YNi5Ge3
_symmetry_space_group_name_H-M   'P 1'
_cell_length_a   3.82780041
_cell_length_b   6.78747071
_cell_length_c   18.94282737
_cell_angle_alpha   90.00000000
_cell_angle_beta   90.00000000
_cell_angle_gamma   90.00000000
_symmetry_Int_Tables_number   1
_chemical_formula_structural   YNi5Ge3
_chemical_formula_sum   'Y4 Ni20 Ge12'
_cell_volume   492.15517331
_cell_formula_units_Z   4
loop_
 _symmetry_equiv_pos_site_id
 _symmetry_equiv_pos_as_xyz
  1  'x, y, z'
loop_
 _atom_site_type_symbol
 _atom_site_label
 _atom_site_symmetry_multiplicity
 _atom_site_fract_x
 _atom_site_fract_y
 _atom_site_fract_z
 _atom_site_occupancy
  Y  Y0  1  0.25000000  0.62143467  0.85516823  1
  Y  Y1  1  0.75000000  0.37856533  0.14483177  1
  Y  Y2  1  0.75000000  0.12143467  0.64483177  1
  Y  Y3  1  0.25000000  0.87856533  0.35516823  1
  Ni  Ni0  1  0.75000000  0.85555070  0.11215518  1
  Ni  Ni1  1  0.25000000  0.88406808  0.98669312  1
  Ni  Ni2  1  0.75000000  0.11593192  0.01330688  1
  Ni  Ni3  1  0.75000000  0.38406808  0.51330688  1
  Ni  Ni4  1  0.25000000  0.36487092  0.00463036  1
  Ni  Ni5  1  0.75000000  0.63512908  0.99536964  1
  Ni  Ni6  1  0.75000000  0.86487092  0.49536964  1
  Ni  Ni7  1  0.25000000  0.13512908  0.50463036  1
  Ni  Ni8  1  0.25000000  0.68882624  0.19991614  1
  Ni  Ni9  1  0.75000000  0.31117376  0.80008386  1
  Ni  Ni10  1  0.75000000  0.18882624  0.30008386  1
  Ni  Ni11  1  0.25000000  0.81117376  0.69991614  1
  Ni  Ni12  1  0.25000000  0.07326401  0.20778356  1
  Ni  Ni13  1  0.75000000  0.92673599  0.79221644  1
  Ni  Ni14  1  0.75000000  0.57326401  0.29221644  1
  Ni  Ni15  1  0.25000000  0.14444930  0.88784482  1
  Ni  Ni16  1  0.25000000  0.35555070  0.38784482  1
  Ni  Ni17  1  0.75000000  0.64444930  0.61215518  1
  Ni  Ni18  1  0.25000000  0.42673599  0.70778356  1
  Ni  Ni19  1  0.25000000  0.61593192  0.48669312  1
  Ge  Ge0  1  0.25000000  0.41028790  0.58640371  1
  Ge  Ge1  1  0.25000000  0.38201210  0.26363931  1
  Ge  Ge2  1  0.75000000  0.61798790  0.73636069  1
  Ge  Ge3  1  0.75000000  0.88201210  0.23636069  1
  Ge  Ge4  1  0.25000000  0.64886534  0.07480793  1
  Ge  Ge5  1  0.75000000  0.35113466  0.92519207  1
  Ge  Ge6  1  0.75000000  0.14886534  0.42519207  1
  Ge  Ge7  1  0.25000000  0.85113466  0.57480793  1
  Ge  Ge8  1  0.25000000  0.11798790  0.76363931  1
  Ge  Ge9  1  0.75000000  0.91028790  0.91359629  1
  Ge  Ge10  1  0.75000000  0.58971210  0.41359629  1
  Ge  Ge11  1  0.25000000  0.08971210  0.08640371  1
loop_
_geom_bond_atom_site_label_1
_geom_bond_atom_site_label_2
_geom_bond_distance
_geom_bond_site_symmetry_2
Ni0 Ni2 2.574798 1_565
Ni0 Ni8 2.776207 1_555
Ni0 Ni8 2.776207 1_655
Ni0 Y1 3.296166 1_555
Ni1 Ni2 2.528620 1_566
Ni1 Ni2 2.528620 1_466
Ni1 Ni5 2.558320 1_455
Ni1 Ni5 2.558320 1_555
Ni1 Ni15 2.574798 1_565
Ni1 Y0 3.063505 1_555
Ni2 Ni4 2.558320 1_555
Ni2 Ni4 2.558320 1_655
Ni2 Y1 3.063505 1_555
Ni3 Ni7 2.558320 1_655
Ni3 Ni7 2.558320 1_555
Ni3 Y2 3.063505 1_555
Ni4 Y1 3.274903 1_555
Ni4 Y1 3.274903 1_455
Ni4 Y0 3.323918 1_554
Ni5 Y0 3.274903 1_555
Ni5 Y0 3.274903 1_655
Ni5 Y1 3.323918 1_556
Ni6 Y3 3.274903 1_555
Ni6 Y3 3.274903 1_655
Ni6 Y2 3.323918 1_565
Ni7 Y2 3.274903 1_455
Ni7 Y2 3.274903 1_555
Ni7 Y3 3.323918 1_545
Ni8 Y1 3.030935 1_455
Ni8 Y1 3.030935 1_555
Ni8 Y3 3.210534 1_555
Ni9 Y0 3.030935 1_655
Ni9 Y0 3.030935 1_555
Ni9 Y2 3.210534 1_555
Ni10 Ni14 2.613613 1_555
Ni10 Ni12 2.708369 1_555
Ni10 Ni12 2.708369 1_655
Ni10 Ni16 2.776207 1_555
Ni10 Ni16 2.776207 1_655
Ni10 Y3 3.030935 1_545
Ni10 Y3 3.030935 1_645
Ni10 Y1 3.210534 1_555
Ni11 Ni18 2.613613 1_555
Ni11 Ni13 2.708369 1_455
Ni11 Ni13 2.708369 1_555
Ni11 Ni17 2.776207 1_555
Ni11 Ni17 2.776207 1_455
Ni11 Y2 3.030935 1_465
Ni11 Y2 3.030935 1_565
Ni11 Y0 3.210534 1_555
Ni12 Ni8 2.613613 1_545
Ni12 Y1 3.062539 1_555
Ni12 Y1 3.062539 1_455
Ni12 Y3 3.088851 1_545
Ni13 Ni9 2.613613 1_565
Ni13 Y0 3.062539 1_655
Ni13 Y0 3.062539 1_555
Ni13 Y2 3.088851 1_565
Ni14 Ni8 2.708369 1_655
Ni14 Ni8 2.708369 1_555
Ni14 Y3 3.062539 1_555
Ni14 Y3 3.062539 1_655
Ni14 Y1 3.088851 1_555
Ni15 Ni9 2.776207 1_555
Ni15 Ni9 2.776207 1_455
Ni15 Y0 3.296166 1_555
Ni16 Ni19 2.574798 1_555
Ni16 Y3 3.296166 1_545
Ni17 Ni3 2.574798 1_555
Ni17 Y2 3.296166 1_565
Ni18 Ni9 2.708369 1_455
Ni18 Ni9 2.708369 1_555
Ni18 Y2 3.062539 1_455
Ni18 Y2 3.062539 1_555
Ni18 Y0 3.088851 1_555
Ni19 Ni3 2.528620 1_555
Ni19 Ni3 2.528620 1_455
Ni19 Ni6 2.558320 1_455
Ni19 Ni6 2.558320 1_555
Ni19 Y3 3.063505 1_555
Ge0 Ni18 2.301986 1_555
Ge0 Ni19 2.348581 1_555
Ge0 Ni3 2.368960 1_455
Ge0 Ni3 2.368960 1_555
Ge0 Ni7 2.426419 1_555
Ge0 Ni17 2.535162 1_555
Ge0 Ni17 2.535162 1_455
Ge0 Y2 2.954977 1_455
Ge0 Y2 2.954977 1_555
Ge1 Ni12 2.347578 1_555
Ge1 Ni16 2.359649 1_555
Ge1 Ni14 2.375113 1_455
Ge1 Ni14 2.375113 1_555
Ge1 Ni8 2.407043 1_555
Ge1 Ni10 2.420532 1_555
Ge1 Ni10 2.420532 1_455
Ge1 Y1 2.954410 1_555
Ge1 Y1 2.954410 1_455
Ge2 Ni13 2.347578 1_555
Ge2 Ni17 2.359649 1_555
Ge2 Ni18 2.375113 1_555
Ge2 Ni18 2.375113 1_655
Ge2 Ni9 2.407043 1_555
Ge2 Ni11 2.420532 1_655
Ge2 Ni11 2.420532 1_555
Ge2 Y0 2.954410 1_655
Ge2 Y0 2.954410 1_555
Ge3 Ni14 2.347578 1_555
Ge3 Ni0 2.359649 1_555
Ge3 Ni12 2.375113 1_565
Ge3 Ni12 2.375113 1_665
Ge3 Ni10 2.407043 1_565
Ge3 Ni8 2.420532 1_555
Ge3 Ni8 2.420532 1_655
Ge3 Y3 2.954410 1_555
Ge3 Y3 2.954410 1_655
Ge4 Ni1 2.309683 1_554
Ge4 Ni4 2.341550 1_555
Ge4 Ni8 2.385374 1_555
Ge4 Ni5 2.436409 1_454
Ge4 Ni5 2.436409 1_554
Ge4 Ni0 2.476199 1_555
Ge4 Ni0 2.476199 1_455
Ge4 Y1 2.964530 1_555
Ge4 Y1 2.964530 1_455
Ge5 Ni2 2.309683 1_556
Ge5 Ni5 2.341550 1_555
Ge5 Ni9 2.385374 1_555
Ge5 Ni4 2.436409 1_656
Ge5 Ni4 2.436409 1_556
Ge5 Ni15 2.476199 1_555
Ge5 Ni15 2.476199 1_655
Ge5 Y0 2.964530 1_655
Ge5 Y0 2.964530 1_555
Ge6 Ni3 2.309683 1_555
Ge6 Ni6 2.341550 1_545
Ge6 Ni10 2.385374 1_555
Ge6 Ni7 2.436409 1_555
Ge6 Ni7 2.436409 1_655
Ge6 Ni16 2.476199 1_655
Ge6 Ni16 2.476199 1_555
Ge6 Y3 2.964530 1_645
Ge6 Y3 2.964530 1_545
Ge7 Ni19 2.309683 1_555
Ge7 Ni7 2.341550 1_565
Ge7 Ni11 2.385374 1_555
Ge7 Ni6 2.436409 1_555
Ge7 Ni6 2.436409 1_455
Ge7 Ni17 2.476199 1_555
Ge7 Ni17 2.476199 1_455
Ge7 Y2 2.964530 1_465
Ge7 Y2 2.964530 1_565
Ge8 Ni18 2.347578 1_555
Ge8 Ni15 2.359649 1_555
Ge8 Ni13 2.375113 1_445
Ge8 Ni13 2.375113 1_545
Ge8 Ni11 2.407043 1_545
Ge8 Ni9 2.420532 1_455
Ge8 Ni9 2.420532 1_555
Ge8 Y2 2.954410 1_455
Ge8 Y2 2.954410 1_555
Ge9 Ni13 2.301986 1_555
Ge9 Ni2 2.348581 1_566
Ge9 Ni1 2.368960 1_655
Ge9 Ni1 2.368960 1_555
Ge9 Ni5 2.426419 1_555
Ge9 Ni15 2.535162 1_565
Ge9 Ni15 2.535162 1_665
Ge9 Y0 2.954977 1_555
Ge9 Y0 2.954977 1_655
Ge10 Ni14 2.301986 1_555
Ge10 Ni3 2.348581 1_555
Ge10 Ni19 2.368960 1_655
Ge10 Ni19 2.368960 1_555
Ge10 Ni6 2.426419 1_555
Ge10 Ni16 2.535162 1_555
Ge10 Ni16 2.535162 1_655
Ge10 Y3 2.954977 1_555
Ge10 Y3 2.954977 1_655
Ge11 Ni12 2.301986 1_555
Ge11 Ni1 2.348581 1_544
Ge11 Ni2 2.368960 1_455
Ge11 Ni2 2.368960 1_555
Ge11 Ni4 2.426419 1_555
Ge11 Ni0 2.535162 1_545
Ge11 Ni0 2.535162 1_445
Ge11 Y1 2.954977 1_555
Ge11 Y1 2.954977 1_455
