# generated using pymatgen
data_SrMgMnO3
_symmetry_space_group_name_H-M   'P 1'
_cell_length_a   4.56233393
_cell_length_b   4.62647123
_cell_length_c   4.56065856
_cell_angle_alpha   80.95565047
_cell_angle_beta   81.31562917
_cell_angle_gamma   80.94570184
_symmetry_Int_Tables_number   1
_chemical_formula_structural   SrMgMnO3
_chemical_formula_sum   'Sr1 Mg1 Mn1 O3'
_cell_volume   93.09270531
_cell_formula_units_Z   1
loop_
 _symmetry_equiv_pos_site_id
 _symmetry_equiv_pos_as_xyz
  1  'x, y, z'
loop_
 _atom_site_type_symbol
 _atom_site_label
 _atom_site_symmetry_multiplicity
 _atom_site_fract_x
 _atom_site_fract_y
 _atom_site_fract_z
 _atom_site_occupancy
  Sr  Sr0  1  0.62329666  0.62205919  0.62321943  1
  Mg  Mg0  1  0.23932024  0.23403848  0.23937923  1
  Mn  Mn0  1  0.95512494  0.94988927  0.95518512  1
  O  O0  1  0.48344758  0.97995135  0.98176426  1
  O  O1  1  0.98374166  0.48413409  0.98375103  1
  O  O2  1  0.98173593  0.97992762  0.48336793  1
loop_
_geom_bond_atom_site_label_1
_geom_bond_atom_site_label_2
_geom_bond_distance
_geom_bond_site_symmetry_2
Mg0 O1 1.902463 1_454
Mg0 O0 1.905186 1_544
Mg0 O2 1.905268 1_445
Mn0 O2 2.120539 1_555
Mn0 O0 2.120672 1_555
Mn0 O1 2.122622 1_555
Mn0 O2 2.456734 1_556
Mn0 O0 2.458259 1_655
Mn0 O1 2.520140 1_565
O0 Sr0 2.454841 1_555
O1 Sr0 2.443657 1_555
O2 Sr0 2.455098 1_555
