# generated using pymatgen
data_Li3TiPCO7
_symmetry_space_group_name_H-M   'P 1'
_cell_length_a   6.60226500
_cell_length_b   4.99370400
_cell_length_c   8.62121836
_cell_angle_alpha   83.27055540
_cell_angle_beta   90.00000000
_cell_angle_gamma   90.00000000
_symmetry_Int_Tables_number   1
_chemical_formula_structural   Li3TiPCO7
_chemical_formula_sum   'Li6 Ti2 P2 C2 O14'
_cell_volume   282.28122498
_cell_formula_units_Z   2
loop_
 _symmetry_equiv_pos_site_id
 _symmetry_equiv_pos_as_xyz
  1  'x, y, z'
loop_
 _atom_site_type_symbol
 _atom_site_label
 _atom_site_symmetry_multiplicity
 _atom_site_fract_x
 _atom_site_fract_y
 _atom_site_fract_z
 _atom_site_occupancy
  Li  Li0  1  0.02247000  0.73416400  0.71709300  1
  Li  Li1  1  0.97753000  0.26583600  0.28290700  1
  Li  Li2  1  0.75000000  0.79429700  0.10879300  1
  Li  Li3  1  0.25000000  0.20570300  0.89120700  1
  Li  Li4  1  0.52247000  0.26583600  0.28290700  1
  Li  Li5  1  0.47753000  0.73416400  0.71709300  1
  Ti  Ti0  1  0.25000000  0.79248100  0.31964900  1
  Ti  Ti1  1  0.75000000  0.20751900  0.68035100  1
  P  P0  1  0.75000000  0.72850300  0.41180100  1
  P  P1  1  0.25000000  0.27149700  0.58819900  1
  C  C0  1  0.25000000  0.67276100  0.03133700  1
  C  C1  1  0.75000000  0.32723900  0.96866300  1
  O  O0  1  0.75000000  0.50995700  0.84623900  1
  O  O1  1  0.25000000  0.92255600  0.05958400  1
  O  O2  1  0.25000000  0.16649900  0.42710600  1
  O  O3  1  0.25000000  0.49004300  0.15376100  1
  O  O4  1  0.43336600  0.16065600  0.69141800  1
  O  O5  1  0.75000000  0.83350100  0.57289400  1
  O  O6  1  0.06663400  0.16065600  0.69141800  1
  O  O7  1  0.56663400  0.83934400  0.30858200  1
  O  O8  1  0.93336600  0.83934400  0.30858200  1
  O  O9  1  0.75000000  0.41375900  0.43209000  1
  O  O10  1  0.25000000  0.60573300  0.89116500  1
  O  O11  1  0.75000000  0.39426700  0.10883500  1
  O  O12  1  0.25000000  0.58624100  0.56791000  1
  O  O13  1  0.75000000  0.07744400  0.94041600  1
loop_
_geom_bond_atom_site_label_1
_geom_bond_atom_site_label_2
_geom_bond_distance
_geom_bond_site_symmetry_2
Li0 O6 2.135292 1_565
Li0 O12 2.163125 1_555
Li0 O10 2.166689 1_555
Li0 O5 2.209781 1_455
Li0 O0 2.331773 1_455
Li1 O8 2.135292 1_545
Li1 O9 2.163125 1_555
Li1 O11 2.166689 1_555
Li1 O2 2.209781 1_655
Li1 O3 2.331773 1_655
Li2 O13 1.904052 1_564
Li2 O11 1.997589 1_555
Li2 O7 2.138641 1_555
Li2 O8 2.138641 1_555
Li3 O1 1.904052 1_546
Li3 O10 1.997589 1_555
Li3 O6 2.138641 1_555
Li3 O4 2.138641 1_555
Li4 O7 2.135292 1_545
Li4 O9 2.163125 1_555
Li4 O11 2.166689 1_555
Li4 O2 2.209781 1_555
Li4 O3 2.331773 1_555
Li5 O4 2.135292 1_565
Li5 O12 2.163125 1_555
Li5 O10 2.166689 1_555
Li5 O5 2.209781 1_555
Li5 O0 2.331773 1_555
C0 O10 1.291198 1_554
C0 O1 1.298657 1_555
C0 O3 1.311797 1_555
C1 O11 1.291198 1_556
C1 O13 1.298657 1_555
C1 O0 1.311797 1_555
O0 Ti1 2.198300 1_555
O1 Ti0 2.259982 1_555
O2 P1 1.540908 1_555
O2 Ti0 2.179951 1_545
O3 Ti0 2.198300 1_555
O4 P1 1.564748 1_555
O4 Ti1 2.104479 1_555
O5 P0 1.540908 1_555
O5 Ti1 2.179951 1_565
O6 P1 1.564748 1_555
O6 Ti1 2.104479 1_455
O7 P0 1.564748 1_555
O7 Ti0 2.104479 1_555
O8 P0 1.564748 1_555
O8 Ti0 2.104479 1_655
O9 P0 1.560937 1_555
O9 Ti1 2.263852 1_555
O12 P1 1.560937 1_555
O12 Ti0 2.263852 1_555
O13 Ti1 2.259982 1_555
