# generated using pymatgen
data_LiCr(PO3)3
_symmetry_space_group_name_H-M   'P 1'
_cell_length_a   5.34905621
_cell_length_b   11.67256309
_cell_length_c   12.66196323
_cell_angle_alpha   90.00000000
_cell_angle_beta   90.00000000
_cell_angle_gamma   90.00000000
_symmetry_Int_Tables_number   1
_chemical_formula_structural   LiCr(PO3)3
_chemical_formula_sum   'Li4 Cr4 P12 O36'
_cell_volume   790.57748099
_cell_formula_units_Z   4
loop_
 _symmetry_equiv_pos_site_id
 _symmetry_equiv_pos_as_xyz
  1  'x, y, z'
loop_
 _atom_site_type_symbol
 _atom_site_label
 _atom_site_symmetry_multiplicity
 _atom_site_fract_x
 _atom_site_fract_y
 _atom_site_fract_z
 _atom_site_occupancy
  Li  Li0  1  0.83705761  0.25000000  0.13043484  1
  Li  Li1  1  0.83705761  0.75000000  0.36956516  1
  Li  Li2  1  0.16294239  0.25000000  0.63043484  1
  Li  Li3  1  0.16294239  0.75000000  0.86956516  1
  Cr  Cr0  1  -0.00000000  0.00000000  0.00000000  1
  Cr  Cr1  1  -0.00000000  0.00000000  0.50000000  1
  Cr  Cr2  1  -0.00000000  0.50000000  0.00000000  1
  Cr  Cr3  1  -0.00000000  0.50000000  0.50000000  1
  P  P0  1  0.30054888  0.00000000  0.75000000  1
  P  P1  1  0.30054888  0.50000000  0.75000000  1
  P  P2  1  0.49892055  0.62990078  0.07216780  1
  P  P3  1  0.49892055  0.12990078  0.42783220  1
  P  P4  1  0.49892055  0.87009922  0.07216780  1
  P  P5  1  0.49892055  0.37009922  0.42783220  1
  P  P6  1  0.50107945  0.62990078  0.57216780  1
  P  P7  1  0.50107945  0.37009922  0.92783220  1
  P  P8  1  0.50107945  0.12990078  0.92783220  1
  P  P9  1  0.50107945  0.87009922  0.57216780  1
  P  P10  1  0.69945112  0.00000000  0.25000000  1
  P  P11  1  0.69945112  0.50000000  0.25000000  1
  O  O0  1  0.16502737  0.09915143  0.70468703  1
  O  O1  1  0.16502737  0.40084857  0.70468703  1
  O  O2  1  0.16502737  0.59915143  0.79531297  1
  O  O3  1  0.16502737  0.90084857  0.79531297  1
  O  O4  1  0.25310785  0.12619907  0.48373672  1
  O  O5  1  0.25310785  0.62619907  0.01626328  1
  O  O6  1  0.25310785  0.37380093  0.48373672  1
  O  O7  1  0.25310785  0.87380093  0.01626328  1
  O  O8  1  0.27376740  0.11461409  -0.00568282  1
  O  O9  1  0.27376740  0.38538591  -0.00568282  1
  O  O10  1  0.27376740  0.61461409  0.50568282  1
  O  O11  1  0.27376740  0.88538591  0.50568282  1
  O  O12  1  0.48229393  0.25000000  0.86904392  1
  O  O13  1  0.48229393  0.75000000  0.63095608  1
  O  O14  1  0.50850528  0.54440005  0.66691763  1
  O  O15  1  0.50850528  0.04440005  0.83308237  1
  O  O16  1  0.50850528  0.95559995  0.66691763  1
  O  O17  1  0.50850528  0.45559995  0.83308237  1
  O  O18  1  0.49149472  0.54440005  0.16691763  1
  O  O19  1  0.49149472  0.45559995  0.33308237  1
  O  O20  1  0.49149472  0.04440005  0.33308237  1
  O  O21  1  0.49149472  0.95559995  0.16691763  1
  O  O22  1  0.51770607  0.75000000  0.13095608  1
  O  O23  1  0.51770607  0.25000000  0.36904392  1
  O  O24  1  0.72623260  0.38538591  0.49431718  1
  O  O25  1  0.72623260  0.61461409  0.00568282  1
  O  O26  1  0.72623260  0.11461409  0.49431718  1
  O  O27  1  0.72623260  0.88538591  0.00568282  1
  O  O28  1  0.74689215  0.87380093  0.51626328  1
  O  O29  1  0.74689215  0.62619907  0.51626328  1
  O  O30  1  0.74689215  0.12619907  0.98373672  1
  O  O31  1  0.74689215  0.37380093  0.98373672  1
  O  O32  1  0.83497263  0.40084857  0.20468703  1
  O  O33  1  0.83497263  0.59915143  0.29531297  1
  O  O34  1  0.83497263  0.09915143  0.20468703  1
  O  O35  1  0.83497263  0.90084857  0.29531297  1
loop_
_geom_bond_atom_site_label_1
_geom_bond_atom_site_label_2
_geom_bond_distance
_geom_bond_site_symmetry_2
Li0 O32 1.996106 1_555
Li0 O34 1.996106 1_555
Li0 O30 2.402313 1_554
Li0 O31 2.402313 1_554
Li1 O33 1.996106 1_555
Li1 O35 1.996106 1_555
Li1 O28 2.402313 1_555
Li1 O29 2.402313 1_555
Li2 O1 1.996106 1_555
Li2 O0 1.996106 1_555
Li2 O4 2.402313 1_555
Li2 O6 2.402313 1_555
Li3 O2 1.996106 1_555
Li3 O3 1.996106 1_555
Li3 O7 2.402313 1_556
Li3 O5 2.402313 1_556
Cr0 O27 1.984806 1_445
Cr0 O8 1.984806 1_555
Cr0 O7 2.011304 1_545
Cr0 O30 2.011304 1_454
Cr1 O11 1.984806 1_545
Cr1 O26 1.984806 1_455
Cr1 O28 2.011304 1_445
Cr1 O4 2.011304 1_555
Cr2 O9 1.984806 1_555
Cr2 O25 1.984806 1_455
Cr2 O5 2.011304 1_555
Cr2 O31 2.011304 1_454
Cr3 O24 1.984806 1_455
Cr3 O10 1.984806 1_555
Cr3 O29 2.011304 1_455
Cr3 O6 2.011304 1_555
O0 P0 1.481266 1_555
O1 P1 1.481266 1_555
O2 P1 1.481266 1_555
O3 P0 1.481266 1_565
O4 P3 1.493923 1_555
O5 P2 1.493923 1_555
O6 P5 1.493923 1_555
O7 P4 1.493923 1_555
O8 P8 1.489611 1_554
O9 P7 1.489611 1_554
O10 P6 1.489611 1_555
O11 P9 1.489611 1_555
O12 P7 1.590415 1_555
O12 P8 1.590415 1_555
O13 P6 1.590415 1_555
O13 P9 1.590415 1_555
O14 P6 1.561068 1_555
O14 P1 1.616366 1_555
O15 P8 1.561068 1_555
O15 P0 1.616366 1_555
O16 P9 1.561068 1_555
O16 P0 1.616366 1_565
O17 P7 1.561068 1_555
O17 P1 1.616366 1_555
O18 P2 1.561068 1_555
O18 P11 1.616366 1_555
O19 P5 1.561068 1_555
O19 P11 1.616366 1_555
O20 P3 1.561068 1_555
O20 P10 1.616366 1_555
O21 P4 1.561068 1_555
O21 P10 1.616366 1_565
O22 P2 1.590415 1_555
O22 P4 1.590415 1_555
O23 P5 1.590415 1_555
O23 P3 1.590415 1_555
O24 P5 1.489611 1_555
O25 P2 1.489611 1_555
O26 P3 1.489611 1_555
O27 P4 1.489611 1_555
O28 P9 1.493923 1_555
O29 P6 1.493923 1_555
O30 P8 1.493923 1_555
O31 P7 1.493923 1_555
O32 P11 1.481266 1_555
O33 P11 1.481266 1_555
O34 P10 1.481266 1_555
O35 P10 1.481266 1_565
