# generated using pymatgen
data_Li4CrP2O9
_symmetry_space_group_name_H-M   'P 1'
_cell_length_a   7.99690884
_cell_length_b   7.99690884
_cell_length_c   7.08165646
_cell_angle_alpha   89.77679971
_cell_angle_beta   89.77679971
_cell_angle_gamma   50.08076371
_symmetry_Int_Tables_number   1
_chemical_formula_structural   Li4CrP2O9
_chemical_formula_sum   'Li8 Cr2 P4 O18'
_cell_volume   347.32979655
_cell_formula_units_Z   2
loop_
 _symmetry_equiv_pos_site_id
 _symmetry_equiv_pos_as_xyz
  1  'x, y, z'
loop_
 _atom_site_type_symbol
 _atom_site_label
 _atom_site_symmetry_multiplicity
 _atom_site_fract_x
 _atom_site_fract_y
 _atom_site_fract_z
 _atom_site_occupancy
  Li  Li0  1  0.90210600  0.90210600  0.73839700  1
  Li  Li1  1  0.24595300  0.75404700  0.50000000  1
  Li  Li2  1  0.75404700  0.24595300  0.50000000  1
  Li  Li3  1  0.37508900  0.37508900  0.19625600  1
  Li  Li4  1  0.00000000  0.50000000  0.00000000  1
  Li  Li5  1  0.50000000  0.00000000  0.00000000  1
  Li  Li6  1  0.62491100  0.62491100  0.80374400  1
  Li  Li7  1  0.09789400  0.09789400  0.26160300  1
  Cr  Cr0  1  0.50000000  0.00000000  0.50000000  1
  Cr  Cr1  1  0.00000000  0.50000000  0.50000000  1
  P  P0  1  0.87287000  0.87287000  0.20441100  1
  P  P1  1  0.12713000  0.12713000  0.79558900  1
  P  P2  1  0.39763700  0.39763700  0.74185900  1
  P  P3  1  0.60236300  0.60236300  0.25814100  1
  O  O0  1  0.56170600  0.17876500  0.62451300  1
  O  O1  1  0.50259100  0.50259100  0.73630600  1
  O  O2  1  0.96479600  0.96479600  0.31151300  1
  O  O3  1  0.87054300  0.87054300  0.98972200  1
  O  O4  1  0.01103600  0.62334100  0.26086400  1
  O  O5  1  0.17876500  0.56170600  0.62451300  1
  O  O6  1  0.03520400  0.03520400  0.68848700  1
  O  O7  1  0.62334100  0.01103600  0.26086400  1
  O  O8  1  0.49740900  0.49740900  0.26369400  1
  O  O9  1  0.76209000  0.76209000  0.58210500  1
  O  O10  1  0.23791000  0.23791000  0.41789500  1
  O  O11  1  0.98896400  0.37665900  0.73913600  1
  O  O12  1  0.37665800  0.98896400  0.73913600  1
  O  O13  1  0.65326700  0.65326700  0.06796100  1
  O  O14  1  0.82123500  0.43829400  0.37548700  1
  O  O15  1  0.43829400  0.82123500  0.37548700  1
  O  O16  1  0.12945700  0.12945700  0.01027800  1
  O  O17  1  0.34673300  0.34673300  0.93203900  1
loop_
_geom_bond_atom_site_label_1
_geom_bond_atom_site_label_2
_geom_bond_distance
_geom_bond_site_symmetry_2
Li0 O3 1.835718 1_555
Li0 O6 1.959287 1_665
Li0 O0 2.286724 1_565
Li0 O5 2.286724 1_655
Li0 O9 2.315341 1_555
Li1 O5 2.116232 1_555
Li1 O15 2.116232 1_555
Li1 O2 2.195433 1_455
Li1 O6 2.195433 1_565
Li1 O8 2.399990 1_555
Li1 O1 2.399990 1_555
Li2 O0 2.116232 1_555
Li2 O14 2.116232 1_555
Li2 O2 2.195433 1_545
Li2 O6 2.195433 1_655
Li2 O8 2.399990 1_555
Li2 O1 2.399990 1_555
Li3 O8 1.837677 1_555
Li3 O17 1.917404 1_554
Li3 O7 2.281495 1_555
Li3 O4 2.281495 1_555
Li3 O10 2.527463 1_555
Li4 O4 2.126160 1_555
Li4 O11 2.126160 1_454
Li4 O17 2.248279 1_554
Li4 O13 2.248279 1_455
Li4 O3 2.432985 1_454
Li4 O16 2.432985 1_555
Li5 O7 2.126160 1_555
Li5 O12 2.126163 1_544
Li5 O17 2.248279 1_554
Li5 O13 2.248279 1_545
Li5 O3 2.432985 1_544
Li5 O16 2.432985 1_555
Li6 O1 1.837677 1_555
Li6 O13 1.917404 1_556
Li6 O11 2.281495 1_555
Li6 O12 2.281495 1_555
Li6 O9 2.527463 1_555
Li7 O16 1.835718 1_555
Li7 O2 1.959287 1_445
Li7 O14 2.286724 1_455
Li7 O15 2.286724 1_545
Li7 O10 2.315341 1_555
Cr0 O9 1.798268 1_545
Cr0 O10 1.798268 1_555
Cr0 O7 1.986475 1_555
Cr0 O12 1.986479 1_545
Cr0 O0 1.995803 1_555
Cr0 O15 1.995803 1_545
Cr1 O9 1.798268 1_455
Cr1 O10 1.798268 1_555
Cr1 O4 1.986475 1_555
Cr1 O11 1.986475 1_455
Cr1 O5 1.995803 1_555
Cr1 O14 1.995803 1_455
O0 P2 1.590940 1_555
O1 P2 1.521181 1_555
O2 P0 1.535685 1_555
O3 P0 1.520873 1_556
O4 P0 1.590618 1_455
O5 P2 1.590940 1_555
O6 P1 1.535685 1_555
O7 P0 1.590618 1_545
O8 P3 1.521181 1_555
O11 P1 1.590618 1_655
O12 P1 1.590612 1_565
O13 P3 1.532773 1_555
O14 P3 1.590940 1_555
O15 P3 1.590940 1_555
O16 P1 1.520873 1_554
O17 P2 1.532773 1_555
