# generated using pymatgen
data_Na3YSiSn(PO6)2
_symmetry_space_group_name_H-M   'P 1'
_cell_length_a   9.25359325
_cell_length_b   9.25359053
_cell_length_c   22.61334240
_cell_angle_alpha   90.39792773
_cell_angle_beta   89.60207603
_cell_angle_gamma   119.89448869
_symmetry_Int_Tables_number   1
_chemical_formula_structural   Na3YSiSn(PO6)2
_chemical_formula_sum   'Na18 Y6 Si6 Sn6 P12 O72'
_cell_volume   1678.66043728
_cell_formula_units_Z   6
loop_
 _symmetry_equiv_pos_site_id
 _symmetry_equiv_pos_as_xyz
  1  'x, y, z'
loop_
 _atom_site_type_symbol
 _atom_site_label
 _atom_site_symmetry_multiplicity
 _atom_site_fract_x
 _atom_site_fract_y
 _atom_site_fract_z
 _atom_site_occupancy
  Na  Na0  1  0.00155626  0.98966455  0.50062834  1
  Na  Na1  1  0.01033539  0.99844312  0.00062825  1
  Na  Na2  1  0.66687540  0.32062459  0.83419458  1
  Na  Na3  1  0.67937507  0.33312450  0.33419460  1
  Na  Na4  1  0.35232630  0.67855330  0.16722532  1
  Na  Na5  1  0.32144658  0.64767356  0.66722517  1
  Na  Na6  1  0.35788880  0.35651978  0.24754673  1
  Na  Na7  1  0.99947448  0.63609013  0.24717067  1
  Na  Na8  1  0.64348016  0.64211090  0.74754656  1
  Na  Na9  1  0.36390997  0.00052546  0.74717062  1
  Na  Na10  1  0.03938892  0.70114679  0.57785109  1
  Na  Na11  1  0.65110154  0.96897014  0.58733943  1
  Na  Na12  1  0.29885411  0.96061259  0.07785112  1
  Na  Na13  1  0.03102992  0.34889837  0.08733936  1
  Na  Na14  1  0.97884621  0.68025645  0.92144804  1
  Na  Na15  1  0.69017383  0.02176250  0.90909733  1
  Na  Na16  1  0.97823739  0.30982559  0.40909727  1
  Na  Na17  1  0.31974371  0.02115355  0.42144810  1
  Y  Y0  1  0.98513731  0.98933449  0.35234319  1
  Y  Y1  1  0.01066534  0.01486281  0.85234317  1
  Y  Y2  1  0.67104805  0.32992059  0.68638488  1
  Y  Y3  1  0.67007948  0.32895133  0.18638494  1
  Y  Y4  1  0.33817616  0.66339355  0.01870203  1
  Y  Y5  1  0.33660656  0.66182332  0.51870192  1
  Si  Si0  1  0.01110616  0.30667057  0.25279199  1
  Si  Si1  1  0.69332951  0.98889388  0.75279201  1
  Si  Si2  1  0.36035614  0.03939654  0.58433397  1
  Si  Si3  1  0.96060337  0.63964390  0.08433395  1
  Si  Si4  1  0.34439639  0.97373435  0.92005921  1
  Si  Si5  1  0.02626559  0.65560360  0.42005917  1
  Sn  Sn0  1  0.00566630  0.00996133  0.64986585  1
  Sn  Sn1  1  0.99003878  0.99433387  0.14986586  1
  Sn  Sn2  1  0.66417222  0.33854477  0.98285630  1
  Sn  Sn3  1  0.66145525  0.33582783  0.48285624  1
  Sn  Sn4  1  0.33055493  0.66347052  0.31650742  1
  Sn  Sn5  1  0.33652968  0.66944535  0.81650733  1
  P  P0  1  0.28856206  0.98615985  0.25120971  1
  P  P1  1  0.69050024  0.70625955  0.24839478  1
  P  P2  1  0.29374040  0.30949985  0.74839475  1
  P  P3  1  0.01383996  0.71143780  0.75120959  1
  P  P4  1  0.95696930  0.31858373  0.57975309  1
  P  P5  1  0.68282809  0.64030372  0.58743062  1
  P  P6  1  0.68141593  0.04303049  0.07975317  1
  P  P7  1  0.35969608  0.31717159  0.08743057  1
  P  P8  1  0.62769110  0.65218811  0.91223403  1
  P  P9  1  0.02806567  0.37803747  0.91886301  1
  P  P10  1  0.62196265  0.97193448  0.41886291  1
  P  P11  1  0.34781189  0.37230896  0.41223408  1
  O  O0  1  0.20319991  0.00004381  0.30725212  1
  O  O1  1  0.80394143  0.77997504  0.30157088  1
  O  O2  1  0.00270071  0.21053188  0.31258411  1
  O  O3  1  0.22002478  0.19605844  0.80157092  1
  O  O4  1  -0.00004396  0.79680022  0.80725217  1
  O  O5  1  0.78946795  0.99729921  0.81258421  1
  O  O6  1  0.79262453  0.96884535  0.69278507  1
  O  O7  1  0.18913168  0.22485223  0.69159008  1
  O  O8  1  0.04329095  0.82582362  0.69538494  1
  O  O9  1  0.77514783  0.81086827  0.19159010  1
  O  O10  1  0.03115468  0.20737548  0.19278508  1
  O  O11  1  0.17417659  0.95670917  0.19538498  1
  O  O12  1  0.87343776  0.34952989  0.63276489  1
  O  O13  1  0.46975133  0.12441813  0.64241143  1
  O  O14  1  0.66813286  0.55121979  0.64521768  1
  O  O15  1  0.87558162  0.53024831  0.14241148  1
  O  O16  1  0.65046993  0.12656261  0.13276501  1
  O  O17  1  0.44878000  0.33186687  0.14521766  1
  O  O18  1  0.45415475  0.29366246  0.03335771  1
  O  O19  1  0.84977964  0.54649686  0.02304806  1
  O  O20  1  0.70583477  0.15006931  0.02256730  1
  O  O21  1  0.45350323  0.15022042  0.52304792  1
  O  O22  1  0.70633759  0.54584492  0.53335763  1
  O  O23  1  0.84993099  0.29416522  0.52256729  1
  O  O24  1  0.53657199  0.67301625  0.96469427  1
  O  O25  1  0.11801221  0.44913445  0.97740625  1
  O  O26  1  0.32644617  0.86692594  0.97848786  1
  O  O27  1  0.55086560  0.88198772  0.47740633  1
  O  O28  1  0.32698366  0.46342810  0.46469427  1
  O  O29  1  0.13307429  0.67355367  0.47848784  1
  O  O30  1  0.11888941  0.62456308  0.36006264  1
  O  O31  1  0.50704221  0.87059463  0.36560707  1
  O  O32  1  0.36754021  0.47153090  0.35350572  1
  O  O33  1  0.12940516  0.49295763  0.86560717  1
  O  O34  1  0.37543704  0.88111053  0.86006253  1
  O  O35  1  0.52846930  0.63245990  0.85350576  1
  O  O36  1  0.01480507  0.82467813  0.41646059  1
  O  O37  1  0.80326829  0.01113998  0.41327835  1
  O  O38  1  0.19359246  0.19512081  0.41074177  1
  O  O39  1  0.98886008  0.19673154  0.91327830  1
  O  O40  1  0.17532160  0.98519500  0.91646051  1
  O  O41  1  0.80487931  0.80640766  0.91074175  1
  O  O42  1  0.95364954  0.14794437  0.58540999  1
  O  O43  1  0.17053739  0.01729378  0.58705372  1
  O  O44  1  0.84843196  0.81448631  0.58698359  1
  O  O45  1  0.98270619  0.82946253  0.08705373  1
  O  O46  1  0.85205602  0.04635061  0.08540999  1
  O  O47  1  0.18551420  0.15156860  0.08698352  1
  O  O48  1  0.65429953  0.14214124  0.75079287  1
  O  O49  1  0.47527216  0.34629818  0.74302892  1
  O  O50  1  0.85554918  0.54180570  0.74636217  1
  O  O51  1  0.65370175  0.52472752  0.24302893  1
  O  O52  1  0.85785923  0.34570050  0.25079282  1
  O  O53  1  0.45819466  0.14445101  0.24636218  1
  O  O54  1  0.64637035  0.49414706  0.91706216  1
  O  O55  1  0.85816870  0.37809122  0.91781368  1
  O  O56  1  0.52262559  0.15599964  0.92197866  1
  O  O57  1  0.62190871  0.14183143  0.41781357  1
  O  O58  1  0.50585321  0.35362958  0.41706221  1
  O  O59  1  0.84400030  0.47737442  0.42197859  1
  O  O60  1  0.32716411  0.46403629  0.08121486  1
  O  O61  1  0.14869802  0.66217659  0.08175298  1
  O  O62  1  0.53434963  0.86513790  0.07645277  1
  O  O63  1  0.33782361  0.85130230  0.58175306  1
  O  O64  1  0.53596345  0.67283603  0.58121486  1
  O  O65  1  0.13486197  0.46565026  0.57645266  1
  O  O66  1  0.30310164  0.82441895  0.25351186  1
  O  O67  1  0.52044188  0.70243528  0.25489006  1
  O  O68  1  0.19075057  0.49098954  0.25068183  1
  O  O69  1  0.29756466  0.47955785  0.75488999  1
  O  O70  1  0.17558106  0.69689838  0.75351188  1
  O  O71  1  0.50901049  0.80924941  0.75068195  1
loop_
_geom_bond_atom_site_label_1
_geom_bond_atom_site_label_2
_geom_bond_distance
_geom_bond_site_symmetry_2
Na0 O43 2.442748 1_565
Na0 O36 2.472139 1_555
Na0 O44 2.482898 1_455
Na0 O42 2.571731 1_465
Na0 O38 2.745872 1_565
Na0 O37 2.779792 1_465
Na1 O45 2.442747 1_455
Na1 O40 2.472136 1_554
Na1 O47 2.482903 1_565
Na1 O46 2.571733 1_465
Na1 O41 2.745868 1_454
Na1 O39 2.779793 1_464
Na2 O56 2.453827 1_555
Na2 O48 2.463031 1_555
Na2 O55 2.466973 1_555
Na2 O54 2.526423 1_555
Na2 O50 2.761975 1_555
Na2 O49 2.815585 1_555
Na3 O59 2.453826 1_555
Na3 O52 2.463037 1_555
Na3 O57 2.466970 1_555
Na3 O58 2.526420 1_555
Na3 O53 2.761972 1_555
Na3 O51 2.815582 1_555
Na4 O67 2.468378 1_555
Na4 O68 2.495818 1_555
Na4 O66 2.529945 1_555
Na4 O61 2.659169 1_555
Na4 O62 2.670940 1_555
Na4 O60 2.696210 1_555
Na5 O69 2.468381 1_555
Na5 O71 2.495823 1_555
Na5 O70 2.529948 1_555
Na5 O63 2.659167 1_555
Na5 O65 2.670939 1_555
Na5 O64 2.696206 1_555
Na6 O51 2.382728 1_555
Na6 O68 2.420964 1_555
Na6 O17 2.504185 1_555
Na6 O53 2.554965 1_555
Na6 O32 2.598976 1_555
Na6 O67 2.780811 1_555
Na6 O10 2.906614 1_555
Na7 O52 2.331561 1_555
Na7 O66 2.464357 1_655
Na7 O15 2.602266 1_555
Na7 O68 2.704522 1_655
Na7 O30 2.812475 1_655
Na7 O51 2.832757 1_555
Na7 O11 2.833396 1_655
Na7 O1 2.984578 1_555
Na8 O49 2.382726 1_555
Na8 O71 2.420965 1_555
Na8 O14 2.504180 1_555
Na8 O50 2.554963 1_555
Na8 O35 2.598980 1_555
Na8 O69 2.780812 1_555
Na8 O6 2.906614 1_555
Na9 O48 2.331562 1_555
Na9 O70 2.464356 1_545
Na9 O13 2.602265 1_555
Na9 O71 2.704521 1_545
Na9 O34 2.812474 1_545
Na9 O49 2.832756 1_555
Na9 O8 2.833396 1_545
Na9 O3 2.984580 1_555
Na10 O63 2.396161 1_555
Na10 O29 2.459898 1_555
Na10 O44 2.470693 1_455
Na10 O43 2.555515 1_565
Na10 O65 2.729127 1_555
Na10 O22 2.860755 1_455
Na10 O8 2.883338 1_555
Na11 O64 2.397931 1_555
Na11 O42 2.441366 1_565
Na11 O63 2.542081 1_555
Na11 O27 2.635945 1_555
Na11 O6 2.728681 1_555
Na12 O61 2.396170 1_555
Na12 O26 2.459900 1_554
Na12 O47 2.470687 1_565
Na12 O45 2.555522 1_455
Na12 O62 2.729130 1_555
Na12 O18 2.860743 1_565
Na12 O11 2.883339 1_555
Na13 O60 2.397933 1_555
Na13 O46 2.441363 1_455
Na13 O61 2.542082 1_555
Na13 O25 2.635946 1_554
Na13 O10 2.728682 1_555
Na14 O41 2.428046 1_555
Na14 O55 2.440830 1_555
Na14 O40 2.483607 1_655
Na14 O19 2.600934 1_556
Na14 O54 2.676099 1_555
Na14 O4 2.773342 1_655
Na15 O39 2.410477 1_555
Na15 O5 2.414818 1_545
Na15 O56 2.437235 1_555
Na15 O41 2.685028 1_545
Na15 O34 2.766247 1_545
Na15 O20 2.793929 1_556
Na15 O55 2.865926 1_555
Na16 O37 2.410472 1_555
Na16 O2 2.414817 1_655
Na16 O59 2.437239 1_555
Na16 O38 2.685025 1_655
Na16 O30 2.766250 1_655
Na16 O23 2.793929 1_555
Na16 O57 2.865927 1_555
Na17 O38 2.428049 1_555
Na17 O57 2.440828 1_555
Na17 O36 2.483609 1_545
Na17 O21 2.600931 1_555
Na17 O58 2.676100 1_555
Na17 O0 2.773344 1_555
O0 P0 1.526931 1_545
O0 Y0 2.212417 1_445
O1 P1 1.518421 1_555
O1 Y0 2.154223 1_555
O2 Si0 1.603725 1_555
O2 Y0 2.171721 1_445
O3 P2 1.518423 1_555
O3 Y1 2.154222 1_555
O4 P3 1.526935 1_555
O4 Y1 2.212416 1_565
O5 Si1 1.603726 1_555
O5 Y1 2.171720 1_665
O6 Si1 1.693846 1_555
O6 Sn0 2.050373 1_665
O7 P2 1.564647 1_555
O7 Sn0 2.087508 1_555
O8 P3 1.585716 1_555
O8 Sn0 2.169065 1_565
O9 P1 1.564647 1_555
O9 Sn1 2.087509 1_555
O10 Si0 1.693846 1_555
O10 Sn1 2.050372 1_445
O11 P0 1.585716 1_555
O11 Sn1 2.169067 1_455
O12 P4 1.523005 1_555
O12 Y2 2.154857 1_555
O13 Si2 1.605858 1_555
O13 Y2 2.131501 1_555
O14 P5 1.518687 1_555
O14 Y2 2.267771 1_555
O15 Si3 1.605861 1_555
O15 Y3 2.131501 1_555
O16 P6 1.523008 1_555
O16 Y3 2.154848 1_555
O17 P7 1.518688 1_555
O17 Y3 2.267776 1_555
O18 P7 1.574011 1_555
O18 Sn2 2.103504 1_554
O19 Si3 1.684436 1_555
O19 Sn2 2.044944 1_554
O20 P6 1.579570 1_555
O20 Sn2 2.166480 1_554
O21 Si2 1.684440 1_555
O21 Sn3 2.044943 1_555
O22 P5 1.574015 1_555
O22 Sn3 2.103500 1_555
O23 P4 1.579567 1_555
O23 Sn3 2.166484 1_555
O24 P8 1.516684 1_555
O24 Y4 2.162716 1_556
O25 P9 1.528258 1_555
O25 Y4 2.219895 1_556
O26 Si4 1.612960 1_555
O26 Y4 2.148233 1_556
O27 P10 1.528262 1_555
O27 Y5 2.219895 1_555
O28 P11 1.516684 1_555
O28 Y5 2.162709 1_555
O29 Si5 1.612962 1_555
O29 Y5 2.148233 1_555
O30 Si5 1.697547 1_555
O30 Sn4 2.052140 1_555
O31 P10 1.571189 1_555
O31 Sn4 2.109246 1_555
O32 P11 1.576874 1_555
O32 Sn4 2.145301 1_555
O33 P9 1.571187 1_555
O33 Sn5 2.109252 1_555
O34 Si4 1.697550 1_555
O34 Sn5 2.052137 1_555
O35 P8 1.576872 1_555
O35 Sn5 2.145304 1_555
O36 Si5 1.622638 1_555
O36 Y0 2.225383 1_455
O37 P10 1.534050 1_545
O37 Y0 2.252593 1_545
O38 P11 1.547115 1_555
O38 Y0 2.330232 1_445
O39 P9 1.534052 1_655
O39 Y1 2.252589 1_655
O40 Si4 1.622642 1_555
O40 Y1 2.225381 1_565
O41 P8 1.547116 1_555
O41 Y1 2.330231 1_665
O42 P4 1.570042 1_555
O42 Sn0 2.152841 1_655
O43 Si2 1.664779 1_555
O43 Sn0 2.053723 1_555
O44 P5 1.576164 1_555
O44 Sn0 2.186433 1_665
O45 Si3 1.664777 1_555
O45 Sn1 2.053724 1_555
O46 P6 1.570047 1_555
O46 Sn1 2.152840 1_545
O47 P7 1.576156 1_555
O47 Sn1 2.186437 1_445
O48 Si1 1.629451 1_545
O48 Y2 2.219976 1_555
O49 P2 1.542736 1_555
O49 Y2 2.276940 1_555
O50 P3 1.526253 1_655
O50 Y2 2.292843 1_555
O51 P1 1.542738 1_555
O51 Y3 2.276942 1_555
O52 Si0 1.629447 1_655
O52 Y3 2.219976 1_555
O53 P0 1.526257 1_545
O53 Y3 2.292839 1_555
O54 P8 1.560451 1_555
O54 Sn2 2.140937 1_555
O55 P9 1.572749 1_655
O55 Sn2 2.199054 1_555
O56 Si4 1.671463 1_545
O56 Sn2 2.061900 1_555
O57 P10 1.572749 1_545
O57 Sn3 2.199054 1_555
O58 P11 1.560454 1_555
O58 Sn3 2.140934 1_555
O59 Si5 1.671463 1_655
O59 Sn3 2.061900 1_555
O60 P7 1.538956 1_555
O60 Y4 2.293193 1_555
O61 Si3 1.647240 1_455
O61 Y4 2.247905 1_555
O62 P6 1.527749 1_565
O62 Y4 2.259853 1_555
O63 Si2 1.647236 1_565
O63 Y5 2.247913 1_555
O64 P5 1.538958 1_555
O64 Y5 2.293190 1_555
O65 P4 1.527751 1_455
O65 Y5 2.259853 1_555
O66 P0 1.569325 1_555
O66 Sn4 2.173399 1_555
O67 P1 1.562227 1_555
O67 Sn4 2.121429 1_555
O68 Si0 1.687768 1_555
O68 Sn4 2.091012 1_555
O69 P2 1.562223 1_555
O69 Sn5 2.121431 1_555
O70 P3 1.569327 1_555
O70 Sn5 2.173398 1_555
O71 Si1 1.687768 1_555
O71 Sn5 2.091008 1_555
