# generated using pymatgen
data_Na6Mg3Si2Sn(SO6)4
_symmetry_space_group_name_H-M   'P 1'
_cell_length_a   9.02610733
_cell_length_b   9.02534908
_cell_length_c   22.25700063
_cell_angle_alpha   90.20830339
_cell_angle_beta   89.44083790
_cell_angle_gamma   120.19381893
_symmetry_Int_Tables_number   1
_chemical_formula_structural   Na6Mg3Si2Sn(SO6)4
_chemical_formula_sum   'Na18 Mg9 Si6 Sn3 S12 O72'
_cell_volume   1567.07255199
_cell_formula_units_Z   3
loop_
 _symmetry_equiv_pos_site_id
 _symmetry_equiv_pos_as_xyz
  1  'x, y, z'
loop_
 _atom_site_type_symbol
 _atom_site_label
 _atom_site_symmetry_multiplicity
 _atom_site_fract_x
 _atom_site_fract_y
 _atom_site_fract_z
 _atom_site_occupancy
  Na  Na0  1  0.63154709  0.99533040  0.25854370  1
  Na  Na1  1  0.36858691  0.36458620  0.24355598  1
  Na  Na2  1  0.64379895  0.64918121  0.74022912  1
  Na  Na3  1  0.31294834  0.34312157  0.58882747  1
  Na  Na4  1  0.02089501  0.69913240  0.58408872  1
  Na  Na5  1  0.66743947  0.94701760  0.58565319  1
  Na  Na6  1  0.29883098  0.97755662  0.07648875  1
  Na  Na7  1  0.05261395  0.33657742  0.07678002  1
  Na  Na8  1  0.98648708  0.67432779  0.91415628  1
  Na  Na9  1  0.70448608  0.03625562  0.90349505  1
  Na  Na10  1  0.31228951  0.28383269  0.91878103  1
  Na  Na11  1  0.69704782  0.68455387  0.42084191  1
  Na  Na12  1  0.98311722  0.99513188  0.49592873  1
  Na  Na13  1  0.01528130  0.01342201  0.99668142  1
  Na  Na14  1  0.66876327  0.30371294  0.82573000  1
  Na  Na15  1  0.67406765  0.32251834  0.33488464  1
  Na  Na16  1  0.33715401  0.65629303  0.16293616  1
  Na  Na17  1  0.34865793  0.67507851  0.66832027  1
  Mg  Mg0  1  0.99704929  0.00498078  0.35241868  1
  Mg  Mg1  1  0.00022228  0.01332132  0.84985482  1
  Mg  Mg2  1  0.97932797  0.98569043  0.65354029  1
  Mg  Mg3  1  0.00650041  0.00246416  0.14876560  1
  Mg  Mg4  1  0.66276062  0.32538508  0.68755105  1
  Mg  Mg5  1  0.66462119  0.34296950  0.18254983  1
  Mg  Mg6  1  0.33094886  0.65922325  0.01713718  1
  Mg  Mg7  1  0.35068581  0.67137224  0.51465767  1
  Mg  Mg8  1  0.33680184  0.68202192  0.32135023  1
  Si  Si0  1  0.70082596  0.00254238  0.75097623  1
  Si  Si1  1  0.66563380  0.62527093  0.58525775  1
  Si  Si2  1  0.36870144  0.33968832  0.08812363  1
  Si  Si3  1  0.03972318  0.37241674  0.91989493  1
  Si  Si4  1  0.32934796  0.96051378  0.92164378  1
  Si  Si5  1  0.63527501  0.96753501  0.41603805  1
  Sn  Sn0  1  0.65927644  0.32526393  0.98322054  1
  Sn  Sn1  1  0.66922939  0.32899724  0.48168159  1
  Sn  Sn2  1  0.32720056  0.67805924  0.81593884  1
  S  S0  1  0.29072447  0.99577405  0.24977166  1
  S  S1  1  0.71005878  0.70595424  0.25066916  1
  S  S2  1  0.00014789  0.29551798  0.24941919  1
  S  S3  1  0.29360410  0.29334873  0.74968585  1
  S  S4  1  -0.00009858  0.70669333  0.74924557  1
  S  S5  1  0.96480062  0.33624207  0.58401025  1
  S  S6  1  0.36865218  0.03820941  0.58489623  1
  S  S7  1  0.95822435  0.62788138  0.08532182  1
  S  S8  1  0.66861221  0.03651830  0.08701022  1
  S  S9  1  0.62759493  0.66695464  0.91738282  1
  S  S10  1  0.32904985  0.36965998  0.41546341  1
  S  S11  1  0.04240876  0.66857348  0.41715976  1
  O  O0  1  0.20572856  0.02275729  0.30180693  1
  O  O1  1  0.80782540  0.78617291  0.30563686  1
  O  O2  1  0.97206342  0.18412210  0.30160327  1
  O  O3  1  0.21339600  0.19323566  0.80419398  1
  O  O4  1  0.98385620  0.78977246  0.80413883  1
  O  O5  1  0.80291851  0.01096304  0.81137333  1
  O  O6  1  0.77259457  0.95710592  0.68984262  1
  O  O7  1  0.19462035  0.21170039  0.69485957  1
  O  O8  1  0.02652842  0.81102846  0.69473387  1
  O  O9  1  0.79401600  0.81671401  0.19791155  1
  O  O10  1  0.02729609  0.21823191  0.19387510  1
  O  O11  1  0.19416984  0.97776286  0.19406397  1
  O  O12  1  0.87975482  0.36323979  0.63580012  1
  O  O13  1  0.48571443  0.11870265  0.63506848  1
  O  O14  1  0.63672079  0.49975665  0.64089791  1
  O  O15  1  0.87076368  0.50951177  0.13528561  1
  O  O16  1  0.64472855  0.12395311  0.13937075  1
  O  O17  1  0.47986613  0.35566995  0.14638011  1
  O  O18  1  0.45421581  0.29787164  0.02579326  1
  O  O19  1  0.86027909  0.55388701  0.02764068  1
  O  O20  1  0.70872541  0.14829043  0.03081052  1
  O  O21  1  0.44267620  0.14557644  0.52854338  1
  O  O22  1  0.70335593  0.53907182  0.52180567  1
  O  O23  1  0.85238412  0.29184841  0.52899468  1
  O  O24  1  0.54555805  0.69486363  0.96960854  1
  O  O25  1  0.15369405  0.45339384  0.97841080  1
  O  O26  1  0.30603951  0.85232492  0.98190557  1
  O  O27  1  0.54821019  0.85477302  0.47621624  1
  O  O28  1  0.30519300  0.44640485  0.47073082  1
  O  O29  1  0.13288629  0.68039278  0.47329329  1
  O  O30  1  0.12323086  0.63992015  0.36433207  1
  O  O31  1  0.52678742  0.89147849  0.35435049  1
  O  O32  1  0.35612859  0.47824969  0.36162418  1
  O  O33  1  0.12221884  0.49966995  0.85979226  1
  O  O34  1  0.38467709  0.88476274  0.86321649  1
  O  O35  1  0.52016383  0.62737844  0.86222708  1
  O  O36  1  0.02302115  0.82090202  0.41116755  1
  O  O37  1  0.82265053  0.98019388  0.41163480  1
  O  O38  1  0.18518381  0.19569746  0.40897880  1
  O  O39  1  0.00849756  0.18054905  0.91295451  1
  O  O40  1  0.15916365  0.97532998  0.91134030  1
  O  O41  1  0.80079941  0.81505645  0.91042669  1
  O  O42  1  0.99382109  0.18937707  0.58996713  1
  O  O43  1  0.20060555  0.02818619  0.59252094  1
  O  O44  1  0.84122631  0.81455999  0.58440615  1
  O  O45  1  0.97364777  0.79776305  0.09207280  1
  O  O46  1  0.82094784  0.01823188  0.09247116  1
  O  O47  1  0.17832541  0.16087278  0.08745284  1
  O  O48  1  0.67657887  0.16703178  0.74493042  1
  O  O49  1  0.47087584  0.32317048  0.74566027  1
  O  O50  1  0.84054320  0.53773345  0.74451100  1
  O  O51  1  0.68902859  0.53163320  0.24581550  1
  O  O52  1  0.84290217  0.30961092  0.24373857  1
  O  O53  1  0.46912865  0.15148866  0.24634067  1
  O  O54  1  0.64587685  0.51030823  0.92317238  1
  O  O55  1  0.84883584  0.36554946  0.92413545  1
  O  O56  1  0.50479892  0.15744915  0.92067113  1
  O  O57  1  0.65088510  0.16394515  0.42084750  1
  O  O58  1  0.49671187  0.36688894  0.41940725  1
  O  O59  1  0.86035612  0.51298334  0.41863066  1
  O  O60  1  0.34581188  0.50635841  0.08239493  1
  O  O61  1  0.13193047  0.64951423  0.08103504  1
  O  O62  1  0.51018997  0.87179563  0.07938938  1
  O  O63  1  0.34045143  0.86239480  0.57704468  1
  O  O64  1  0.49141706  0.63943831  0.57996127  1
  O  O65  1  0.13174590  0.49575446  0.57452001  1
  O  O66  1  0.31064903  0.84184210  0.25409679  1
  O  O67  1  0.53168910  0.68261273  0.25439509  1
  O  O68  1  0.15782964  0.46694207  0.25636340  1
  O  O69  1  0.31033254  0.46930180  0.75363079  1
  O  O70  1  0.15315632  0.68304269  0.75067653  1
  O  O71  1  0.50614134  0.80729012  0.75387265  1
loop_
_geom_bond_atom_site_label_1
_geom_bond_atom_site_label_2
_geom_bond_distance
_geom_bond_site_symmetry_2
Na0 O31 2.324511 1_555
Na0 O67 2.495541 1_555
Na0 O66 2.507385 1_555
Na0 O53 2.509605 1_565
Na0 O52 2.518983 1_565
Na0 O2 2.836611 1_565
Na0 O16 2.876537 1_565
Na0 O9 2.982258 1_555
Na1 O17 2.393921 1_555
Na1 O67 2.493131 1_555
Na1 O51 2.501460 1_555
Na1 O53 2.506783 1_555
Na1 O68 2.511696 1_555
Na1 O32 2.839233 1_555
Na1 O10 2.901738 1_555
Na1 O0 2.964793 1_555
Na2 O71 2.333508 1_555
Na2 O50 2.444402 1_555
Na2 O49 2.547113 1_555
Na2 O14 2.570008 1_555
Na2 O69 2.618216 1_555
Na2 O6 2.660859 1_555
Na2 O35 2.894964 1_555
Na3 O64 2.334615 1_555
Na3 O42 2.490323 1_455
Na3 O43 2.493029 1_555
Na3 O7 2.610346 1_555
Na3 O65 2.636996 1_555
Na3 O14 2.789396 1_555
Na3 O28 2.805311 1_555
Na3 O21 2.898619 1_555
Na4 O44 2.326876 1_455
Na4 O63 2.496627 1_555
Na4 O65 2.501209 1_555
Na4 O43 2.577329 1_565
Na4 O8 2.649479 1_555
Na4 O29 2.692902 1_555
Na4 O22 2.849843 1_455
Na4 O12 2.872282 1_455
Na5 O44 2.403254 1_555
Na5 O64 2.410725 1_555
Na5 O6 2.498231 1_555
Na5 O27 2.630459 1_555
Na5 O42 2.644778 1_565
Na5 O63 2.659621 1_555
Na5 O13 2.968169 1_565
Na5 O23 2.970611 1_565
Na6 O26 2.401525 1_554
Na6 O47 2.404575 1_565
Na6 O62 2.527710 1_555
Na6 O61 2.560920 1_555
Na6 O45 2.561639 1_455
Na6 O18 2.740855 1_565
Na6 O11 2.773793 1_555
Na7 O60 2.300737 1_555
Na7 O47 2.382561 1_555
Na7 O25 2.397439 1_554
Na7 O61 2.542453 1_555
Na7 O46 2.588344 1_455
Na7 O10 2.783592 1_555
Na7 O20 2.883228 1_455
Na8 O40 2.356634 1_655
Na8 O55 2.424003 1_555
Na8 O41 2.563967 1_555
Na8 O54 2.663806 1_555
Na8 O4 2.669584 1_555
Na8 O33 2.711014 1_655
Na8 O19 2.752699 1_556
Na8 O26 2.929225 1_655
Na9 O5 2.282644 1_555
Na9 O39 2.384297 1_655
Na9 O41 2.552589 1_545
Na9 O56 2.560810 1_555
Na9 O55 2.616907 1_555
Na9 O34 2.660344 1_545
Na10 O40 2.412581 1_545
Na10 O39 2.416543 1_555
Na10 O56 2.513473 1_555
Na10 O54 2.658457 1_555
Na10 O18 2.687759 1_556
Na10 O3 2.695337 1_555
Na10 O25 2.881706 1_555
Na10 O35 2.974770 1_555
Na11 O37 2.324561 1_555
Na11 O58 2.505292 1_555
Na11 O36 2.562286 1_655
Na11 O59 2.620482 1_555
Na11 O22 2.622235 1_555
Na11 O1 2.731353 1_555
Na11 O27 2.777377 1_555
Na12 O37 2.343215 1_555
Na12 O44 2.459438 1_555
Na12 O36 2.587719 1_655
Na12 O38 2.642753 1_665
Na12 O42 2.696368 1_565
Na12 O43 2.837810 1_665
Na13 O40 2.410161 1_545
Na13 O39 2.422229 1_555
Na13 O47 2.467172 1_556
Na13 O41 2.683269 1_445
Na13 O46 2.761699 1_456
Na13 O45 2.777788 1_446
Na14 O48 2.197668 1_555
Na14 O56 2.528290 1_555
Na14 O49 2.603270 1_555
Na14 O50 2.609960 1_555
Na14 O55 2.626490 1_555
Na14 O54 2.927842 1_555
Na15 O57 2.337424 1_555
Na15 O59 2.527266 1_555
Na15 O52 2.562768 1_555
Na15 O58 2.615834 1_555
Na15 O53 2.620150 1_555
Na15 O51 2.697378 1_555
Na16 O60 2.266434 1_555
Na16 O62 2.567904 1_555
Na16 O61 2.590171 1_555
Na16 O67 2.632484 1_555
Na16 O68 2.653712 1_555
Na16 O66 2.710565 1_555
Na17 O71 2.323870 1_555
Na17 O64 2.448315 1_555
Na17 O69 2.557490 1_555
Na17 O70 2.557819 1_555
Na17 O63 2.672928 1_555
Na17 O65 2.771127 1_555
Mg0 O37 1.967857 1_545
Mg0 O2 2.080660 1_555
Mg0 O0 2.120944 1_655
Mg0 O38 2.125341 1_655
Mg0 O1 2.127975 1_545
Mg0 O36 2.222250 1_645
Mg1 O5 1.974102 1_455
Mg1 O39 2.032028 1_555
Mg1 O3 2.050107 1_555
Mg1 O40 2.141255 1_545
Mg1 O4 2.194558 1_445
Mg1 O41 2.233808 1_445
Mg2 O6 1.920731 1_555
Mg2 O8 2.049577 1_655
Mg2 O44 2.095377 1_555
Mg2 O7 2.194764 1_665
Mg2 O43 2.271782 1_665
Mg2 O42 2.274226 1_565
Mg3 O47 2.013493 1_555
Mg3 O11 2.085756 1_545
Mg3 O9 2.103247 1_445
Mg3 O10 2.111239 1_555
Mg3 O45 2.129004 1_445
Mg3 O46 2.162667 1_455
Mg4 O48 1.970989 1_555
Mg4 O14 1.999718 1_555
Mg4 O13 2.102387 1_555
Mg4 O12 2.136663 1_555
Mg4 O49 2.143477 1_555
Mg4 O50 2.187212 1_555
Mg5 O17 1.913455 1_555
Mg5 O15 1.997038 1_555
Mg5 O16 2.120313 1_555
Mg5 O51 2.131190 1_555
Mg5 O53 2.240015 1_555
Mg5 O52 2.251200 1_555
Mg6 O25 1.944065 1_554
Mg6 O26 2.027398 1_554
Mg6 O60 2.058054 1_555
Mg6 O24 2.076184 1_554
Mg6 O61 2.247195 1_555
Mg6 O62 2.262812 1_555
Mg7 O27 1.913815 1_555
Mg7 O64 2.053412 1_555
Mg7 O28 2.098051 1_555
Mg7 O29 2.217153 1_555
Mg7 O65 2.237425 1_555
Mg7 O63 2.247046 1_555
Mg8 O31 1.951297 1_555
Mg8 O30 2.001376 1_555
Mg8 O32 2.134013 1_555
Mg8 O66 2.177616 1_555
Mg8 O67 2.292288 1_555
Mg8 O68 2.311031 1_555
O0 S0 1.468918 1_545
O1 S1 1.473649 1_555
O2 S2 1.473244 1_655
O3 S3 1.464657 1_555
O4 S4 1.474792 1_655
O5 Si0 1.617083 1_555
O6 Si0 1.638630 1_565
O7 S3 1.477438 1_555
O8 S4 1.480364 1_555
O9 S1 1.477012 1_555
O10 S2 1.494872 1_555
O11 S0 1.483375 1_555
O12 S5 1.464973 1_555
O13 S6 1.461582 1_555
O14 Si1 1.609810 1_555
O15 S7 1.464364 1_555
O16 S8 1.478801 1_555
O17 Si2 1.608494 1_555
O18 Si2 1.712040 1_555
O18 Sn0 1.972812 1_554
O19 S7 1.515846 1_555
O19 Sn0 2.186630 1_554
O20 S8 1.531757 1_555
O20 Sn0 2.147310 1_554
O21 S6 1.516510 1_555
O21 Sn1 2.139120 1_555
O22 Si1 1.721831 1_555
O22 Sn1 1.973024 1_555
O23 S5 1.516979 1_555
O23 Sn1 2.132692 1_555
O24 S9 1.459991 1_555
O25 Si3 1.597372 1_555
O26 Si4 1.610599 1_555
O27 Si5 1.622399 1_555
O28 S10 1.475773 1_555
O29 S11 1.473276 1_555
O30 S11 1.467086 1_555
O31 Si5 1.630467 1_555
O32 S10 1.489314 1_555
O33 Si3 1.671676 1_555
O33 Sn2 1.986941 1_555
O34 Si4 1.652937 1_555
O34 Sn2 1.969676 1_555
O35 S9 1.498845 1_555
O35 Sn2 2.268028 1_555
O36 S11 1.477267 1_555
O37 Si5 1.638763 1_555
O38 S10 1.457206 1_555
O39 Si3 1.615541 1_555
O40 Si4 1.625974 1_555
O41 S9 1.466154 1_555
O42 S5 1.481336 1_555
O43 S6 1.481471 1_555
O44 Si1 1.645320 1_555
O45 S7 1.475406 1_555
O46 S8 1.471155 1_555
O47 Si2 1.663862 1_555
O48 Si0 1.612081 1_555
O49 S3 1.484891 1_555
O50 S4 1.483566 1_655
O51 S1 1.490560 1_555
O52 S2 1.493930 1_655
O53 S0 1.515266 1_545
O54 S9 1.509647 1_555
O54 Sn0 2.193763 1_555
O55 Si3 1.694352 1_655
O55 Sn0 2.030482 1_555
O56 Si4 1.684021 1_545
O56 Sn0 2.018566 1_555
O57 Si5 1.709198 1_545
O57 Sn1 1.954832 1_555
O58 S10 1.529442 1_555
O58 Sn1 2.245892 1_555
O59 S11 1.533449 1_655
O59 Sn1 2.188849 1_555
O60 Si2 1.623650 1_555
O61 S7 1.481488 1_455
O62 S8 1.465709 1_565
O63 S6 1.485197 1_565
O64 Si1 1.645896 1_555
O65 S5 1.483847 1_455
O66 S0 1.491429 1_555
O67 S1 1.516467 1_555
O68 S2 1.493623 1_555
O69 S3 1.520010 1_555
O69 Sn2 2.278775 1_555
O70 S4 1.502662 1_555
O70 Sn2 2.166990 1_555
O71 Si0 1.755369 1_565
O71 Sn2 1.987626 1_555
