# generated using pymatgen
data_K3AlH6
_symmetry_space_group_name_H-M   'P 1'
_cell_length_a   6.20344564
_cell_length_b   6.20344564
_cell_length_c   6.20344564
_cell_angle_alpha   123.70785427
_cell_angle_beta   123.70785427
_cell_angle_gamma   83.68947257
_symmetry_Int_Tables_number   1
_chemical_formula_structural   K3AlH6
_chemical_formula_sum   'K3 Al1 H6'
_cell_volume   158.29227516
_cell_formula_units_Z   1
loop_
 _symmetry_equiv_pos_site_id
 _symmetry_equiv_pos_as_xyz
  1  'x, y, z'
loop_
 _atom_site_type_symbol
 _atom_site_label
 _atom_site_symmetry_multiplicity
 _atom_site_fract_x
 _atom_site_fract_y
 _atom_site_fract_z
 _atom_site_occupancy
  K  K0  1  0.25000000  0.75000000  0.50000000  1
  K  K1  1  0.75000000  0.25000000  0.50000000  1
  K  K2  1  0.50000000  0.50000000  0.00000000  1
  Al  Al0  1  0.00000000  0.00000000  0.00000000  1
  H  H0  1  0.00000000  0.70416800  0.70416800  1
  H  H1  1  0.70416800  0.00000000  0.70416800  1
  H  H2  1  0.29583200  0.00000000  0.29583200  1
  H  H3  1  0.00000000  0.29583200  0.29583200  1
  H  H4  1  0.20926200  0.20926200  0.00000000  1
  H  H5  1  0.79073800  0.79073800  0.00000000  1
loop_
_geom_bond_atom_site_label_1
_geom_bond_atom_site_label_2
_geom_bond_distance
_geom_bond_site_symmetry_2
Al0 H2 1.731384 1_555
Al0 H0 1.731384 1_544
Al0 H1 1.731384 1_454
Al0 H3 1.731384 1_555
Al0 H4 1.934121 1_555
Al0 H5 1.934121 1_445
H0 K1 2.601326 1_455
H0 K0 2.601326 1_555
H1 K0 2.601326 1_545
H1 K1 2.601326 1_555
H2 K0 2.601326 1_545
H2 K1 2.601326 1_555
H3 K1 2.601326 1_455
H3 K0 2.601326 1_555
H4 K2 2.687169 1_555
H4 K0 2.950420 1_555
H4 K0 2.950420 1_544
H4 K1 2.950420 1_454
H4 K1 2.950420 1_555
H5 K2 2.687169 1_555
H5 K1 2.950420 1_554
H5 K0 2.950420 1_655
H5 K1 2.950420 1_565
H5 K0 2.950420 1_554
