# generated using pymatgen
data_MgMn6O7F5
_symmetry_space_group_name_H-M   'P 1'
_cell_length_a   5.17637089
_cell_length_b   7.92105563
_cell_length_c   5.83195121
_cell_angle_alpha   96.94414915
_cell_angle_beta   82.29550339
_cell_angle_gamma   95.66132915
_symmetry_Int_Tables_number   1
_chemical_formula_structural   MgMn6O7F5
_chemical_formula_sum   'Mg1 Mn6 O7 F5'
_cell_volume   234.39914138
_cell_formula_units_Z   1
loop_
 _symmetry_equiv_pos_site_id
 _symmetry_equiv_pos_as_xyz
  1  'x, y, z'
loop_
 _atom_site_type_symbol
 _atom_site_label
 _atom_site_symmetry_multiplicity
 _atom_site_fract_x
 _atom_site_fract_y
 _atom_site_fract_z
 _atom_site_occupancy
  Mg  Mg0  1  0.51269095  0.49261324  0.46469113  1
  Mn  Mn0  1  0.47821409  0.00468243  0.47428622  1
  Mn  Mn1  1  0.47792197  0.69902467  0.11424774  1
  Mn  Mn2  1  0.51276693  0.34151746  0.86398415  1
  Mn  Mn3  1  0.98576362  0.69266635  0.67030441  1
  Mn  Mn4  1  0.99320895  0.24442006  0.51552453  1
  Mn  Mn5  1  0.01810121  0.99244763  0.01748393  1
  O  O0  1  0.79844551  0.45951300  0.65462989  1
  O  O1  1  0.80720640  0.78424476  0.95725858  1
  O  O2  1  0.80616575  0.07763481  0.29656911  1
  O  O3  1  0.60435167  0.47947513  0.12486931  1
  O  O4  1  0.37139962  0.25926955  0.56772086  1
  O  O5  1  0.32133191  0.90600001  0.19958882  1
  O  O6  1  0.18715044  0.91453546  0.69940093  1
  F  F0  1  0.72570398  0.11782245  0.77721265  1
  F  F1  1  0.65932124  0.74372347  0.46546199  1
  F  F2  1  0.30893288  0.58012776  0.81055882  1
  F  F3  1  0.19207898  0.59343162  0.37547621  1
  F  F4  1  0.21146492  0.22518614  0.04596872  1
loop_
_geom_bond_atom_site_label_1
_geom_bond_atom_site_label_2
_geom_bond_distance
_geom_bond_site_symmetry_2
Mg0 O3 1.967568 1_555
Mg0 O0 2.017372 1_555
Mg0 O4 2.048480 1_555
Mn0 O5 1.938490 1_545
Mn0 O2 1.941517 1_555
Mn0 O6 1.996883 1_545
Mn0 O4 2.131384 1_555
Mn1 O5 1.883954 1_555
Mn1 O1 1.924377 1_554
Mn1 O3 1.928198 1_555
Mn2 O3 1.850115 1_556
Mn2 O4 1.979383 1_555
Mn2 O0 2.017473 1_555
Mn3 O1 1.898713 1_555
Mn3 O6 1.953958 1_655
Mn3 O0 1.997228 1_555
Mn4 O2 1.996134 1_555
Mn4 O4 2.011121 1_655
Mn4 O0 2.088713 1_555
Mn5 O1 1.908523 1_454
Mn5 O2 1.926056 1_465
Mn5 O6 1.995563 1_554
Mn5 O5 2.212559 1_555
F0 Mn2 2.151652 1_555
F0 Mn4 2.186687 1_555
F0 Mn0 2.358584 1_555
F0 Mn5 2.538172 1_646
F1 Mg0 2.057514 1_555
F1 Mn3 2.288887 1_555
F1 Mn1 2.340339 1_555
F1 Mn0 2.344773 1_565
F2 Mn1 2.153713 1_556
F2 Mg0 2.212990 1_555
F2 Mn3 2.258208 1_455
F2 Mn2 2.325215 1_555
F3 Mn3 2.015264 1_455
F3 Mg0 2.063062 1_555
F3 Mn1 2.160877 1_555
F4 Mn2 1.979172 1_554
F4 Mn5 2.008615 1_545
