# generated using pymatgen
data_CeClO
_symmetry_space_group_name_H-M   'P 1'
_cell_length_a   4.05723465
_cell_length_b   4.05723465
_cell_length_c   6.89939821
_cell_angle_alpha   90.00000000
_cell_angle_beta   90.00000000
_cell_angle_gamma   90.00000000
_symmetry_Int_Tables_number   1
_chemical_formula_structural   CeClO
_chemical_formula_sum   'Ce2 Cl2 O2'
_cell_volume   113.57204958
_cell_formula_units_Z   2
loop_
 _symmetry_equiv_pos_site_id
 _symmetry_equiv_pos_as_xyz
  1  'x, y, z'
loop_
 _atom_site_type_symbol
 _atom_site_label
 _atom_site_symmetry_multiplicity
 _atom_site_fract_x
 _atom_site_fract_y
 _atom_site_fract_z
 _atom_site_occupancy
  Ce  Ce0  1  0.75000000  0.75000000  0.82395336  1
  Ce  Ce1  1  0.25000000  0.25000000  0.17604664  1
  Cl  Cl0  1  0.25000000  0.25000000  0.63112616  1
  Cl  Cl1  1  0.75000000  0.75000000  0.36887384  1
  O  O0  1  0.75000000  0.25000000  0.00000000  1
  O  O1  1  0.25000000  0.75000000  0.00000000  1
loop_
_geom_bond_atom_site_label_1
_geom_bond_atom_site_label_2
_geom_bond_distance
_geom_bond_site_symmetry_2
Ce0 O1 2.364441 1_556
Ce0 O0 2.364441 1_566
Ce0 O1 2.364441 1_656
Ce0 O0 2.364441 1_556
Ce0 Cl1 3.139775 1_555
Ce0 Cl0 3.162360 1_555
Ce0 Cl0 3.162360 1_655
Ce0 Cl0 3.162360 1_565
Ce0 Cl0 3.162360 1_665
Ce1 O1 2.364441 1_545
Ce1 O0 2.364441 1_555
Ce1 O0 2.364441 1_455
Ce1 O1 2.364441 1_555
Ce1 Cl0 3.139775 1_555
Ce1 Cl1 3.162360 1_455
Ce1 Cl1 3.162360 1_555
Ce1 Cl1 3.162360 1_545
Ce1 Cl1 3.162360 1_445
