# generated using pymatgen
data_Rb3NaMg(RuO4)2
_symmetry_space_group_name_H-M   'P 1'
_cell_length_a   6.16654800
_cell_length_b   6.97144274
_cell_length_c   7.94261895
_cell_angle_alpha   94.92741505
_cell_angle_beta   90.00000000
_cell_angle_gamma   116.24893446
_symmetry_Int_Tables_number   1
_chemical_formula_structural   Rb3NaMg(RuO4)2
_chemical_formula_sum   'Rb3 Na1 Mg1 Ru2 O8'
_cell_volume   304.83336848
_cell_formula_units_Z   1
loop_
 _symmetry_equiv_pos_site_id
 _symmetry_equiv_pos_as_xyz
  1  'x, y, z'
loop_
 _atom_site_type_symbol
 _atom_site_label
 _atom_site_symmetry_multiplicity
 _atom_site_fract_x
 _atom_site_fract_y
 _atom_site_fract_z
 _atom_site_occupancy
  Rb  Rb0  1  0.73129100  0.46258100  0.32875400  1
  Rb  Rb1  1  0.00000000  0.00000000  0.00000000  1
  Rb  Rb2  1  0.26870900  0.53741900  0.67124600  1
  Na  Na0  1  0.00000000  0.00000000  0.50000000  1
  Mg  Mg0  1  0.50000000  0.00000000  0.50000000  1
  Ru  Ru0  1  0.67171800  0.34343500  0.78310200  1
  Ru  Ru1  1  0.32828200  0.65656500  0.21689800  1
  O  O0  1  0.19174200  0.38348300  0.27091700  1
  O  O1  1  0.61885100  0.81972500  0.35870200  1
  O  O2  1  0.20087300  0.81972500  0.35870200  1
  O  O3  1  0.80825800  0.61651700  0.72908300  1
  O  O4  1  0.79912700  0.18027500  0.64129800  1
  O  O5  1  0.38114900  0.18027500  0.64129800  1
  O  O6  1  0.64369900  0.28739700  0.99577500  1
  O  O7  1  0.35630100  0.71260300  0.00422500  1
loop_
_geom_bond_atom_site_label_1
_geom_bond_atom_site_label_2
_geom_bond_distance
_geom_bond_site_symmetry_2
Na0 O2 2.346929 1_545
Na0 O4 2.346929 1_455
Na0 O1 2.346934 1_445
Na0 O5 2.346934 1_555
Mg0 O1 1.987104 1_545
Mg0 O5 1.987104 1_555
Mg0 O2 1.987108 1_545
Mg0 O4 1.987108 1_555
O0 Ru1 1.799951 1_555
O0 Rb1 3.064501 1_555
O0 Rb0 3.149394 1_455
O0 Rb0 3.149394 1_555
O0 Rb2 3.232716 1_555
O1 Ru1 1.936506 1_555
O1 Rb0 2.856883 1_555
O2 Ru1 1.936506 1_555
O2 Rb0 2.856875 1_455
O3 Ru0 1.799951 1_555
O3 Rb1 3.064501 1_666
O3 Rb2 3.149394 1_655
O3 Rb2 3.149394 1_555
O3 Rb0 3.232716 1_555
O4 Ru0 1.936506 1_555
O4 Rb2 2.856875 1_655
O5 Ru0 1.936506 1_555
O5 Rb2 2.856883 1_555
O6 Ru0 1.757686 1_555
O6 Rb0 2.763963 1_556
O7 Ru1 1.757686 1_555
O7 Rb2 2.763963 1_554
