# generated using pymatgen
data_Na6La4In4Si3(S3O16)3
_symmetry_space_group_name_H-M   'P 1'
_cell_length_a   18.50638026
_cell_length_b   9.26998395
_cell_length_c   24.21630855
_cell_angle_alpha   90.18829616
_cell_angle_beta   89.42407465
_cell_angle_gamma   120.00593426
_symmetry_Int_Tables_number   1
_chemical_formula_structural   Na6La4In4Si3(S3O16)3
_chemical_formula_sum   'Na18 La12 In12 Si9 S27 O144'
_cell_volume   3597.41255732
_cell_formula_units_Z   3
loop_
 _symmetry_equiv_pos_site_id
 _symmetry_equiv_pos_as_xyz
  1  'x, y, z'
loop_
 _atom_site_type_symbol
 _atom_site_label
 _atom_site_symmetry_multiplicity
 _atom_site_fract_x
 _atom_site_fract_y
 _atom_site_fract_z
 _atom_site_occupancy
  Na  Na0  1  0.00505273  0.64247895  0.25875467  1
  Na  Na1  1  0.50404131  0.36849317  0.74255840  1
  Na  Na2  1  0.16023969  0.30520380  0.90943608  1
  Na  Na3  1  0.65903295  0.30081617  0.90628696  1
  Na  Na4  1  0.16128119  0.02175847  0.41431160  1
  Na  Na5  1  0.65721576  0.00860166  0.41728362  1
  Na  Na6  1  0.99167696  0.97855825  0.49514823  1
  Na  Na7  1  0.49023074  -0.00003601  0.49973442  1
  Na  Na8  1  0.99265257  0.00579740  0.98968588  1
  Na  Na9  1  0.49166824  0.00431707  0.99109422  1
  Na  Na10  1  0.33430760  0.33290195  0.82617432  1
  Na  Na11  1  0.83987697  0.33496667  0.83450698  1
  Na  Na12  1  0.34330001  0.35154837  0.34169134  1
  Na  Na13  1  0.83114189  0.33047836  0.33532194  1
  Na  Na14  1  0.17512146  0.68964115  0.17736046  1
  Na  Na15  1  0.66672070  0.69158781  0.17504747  1
  Na  Na16  1  0.17193837  0.64718901  0.67150534  1
  Na  Na17  1  0.65983069  0.63798119  0.66639393  1
  La  La0  1  0.00238138  0.01243937  0.64920575  1
  La  La1  1  0.50872450  0.01791576  0.64720800  1
  La  La2  1  0.01002819  0.00720267  0.14969412  1
  La  La3  1  0.50280675  0.99205360  0.14993135  1
  La  La4  1  0.82686611  0.33462654  0.69087395  1
  La  La5  1  0.32831980  0.32187966  0.19230452  1
  La  La6  1  0.15768925  0.65502430  0.01339655  1
  La  La7  1  0.66363008  0.65686334  0.01359412  1
  La  La8  1  0.16573093  0.67133003  0.51435968  1
  La  La9  1  0.64664735  0.64186033  0.51836859  1
  La  La10  1  0.65984652  0.67318192  0.31881274  1
  La  La11  1  0.16047782  0.64646133  0.81615960  1
  In  In0  1  0.99875782  0.99235458  0.35008387  1
  In  In1  1  0.50600868  0.99372039  0.34694052  1
  In  In2  1  0.00747992  0.02314056  0.84442441  1
  In  In3  1  0.50013732  0.00792311  0.84687335  1
  In  In4  1  0.33032228  0.33413985  0.68337135  1
  In  In5  1  0.82648170  0.31914597  0.18682142  1
  In  In6  1  0.34216126  0.33184512  0.97947323  1
  In  In7  1  0.83651820  0.32965036  0.98105204  1
  In  In8  1  0.34686909  0.34998328  0.48529350  1
  In  In9  1  0.84187161  0.35096079  0.48019110  1
  In  In10  1  0.16244368  0.66840678  0.32177890  1
  In  In11  1  0.66129858  0.65633885  0.81953391  1
  Si  Si0  1  0.14695013  0.98652683  0.25721069  1
  Si  Si1  1  0.65552562  0.00943176  0.25107358  1
  Si  Si2  1  0.15829050  0.30058743  0.75039786  1
  Si  Si3  1  0.64887635  0.30871217  0.75855274  1
  Si  Si4  1  0.47433581  0.33010639  0.58905876  1
  Si  Si5  1  0.00731987  0.34451845  0.91687183  1
  Si  Si6  1  0.51328288  0.35565477  0.91336310  1
  Si  Si7  1  0.01301114  0.66827550  0.41303566  1
  Si  Si8  1  0.50595071  0.67069793  0.41572021  1
  S  S0  1  0.34524211  0.70606989  0.25621620  1
  S  S1  1  0.85342641  0.69660043  0.24893241  1
  S  S2  1  0.00023116  0.30148128  0.25292176  1
  S  S3  1  0.50034532  0.28876277  0.25373821  1
  S  S4  1  0.99915209  0.71173935  0.75414626  1
  S  S5  1  0.50078567  0.70411867  0.75503279  1
  S  S6  1  0.35261203  0.00740708  0.75185559  1
  S  S7  1  0.84583398  0.98681222  0.75704581  1
  S  S8  1  0.97733513  0.33055140  0.58027851  1
  S  S9  1  0.19141811  0.05136367  0.57937377  1
  S  S10  1  0.69268404  0.04859497  0.57594421  1
  S  S11  1  0.33084821  0.62059406  0.58363661  1
  S  S12  1  0.83461129  0.63022654  0.57923899  1
  S  S13  1  0.47690383  0.62395214  0.08026445  1
  S  S14  1  0.97117489  0.61041777  0.08635387  1
  S  S15  1  0.33329086  0.03800171  0.07954397  1
  S  S16  1  0.83334452  0.04639276  0.08377861  1
  S  S17  1  0.19087701  0.33437900  0.07693322  1
  S  S18  1  0.69462186  0.33490551  0.08043646  1
  S  S19  1  0.32350054  0.66581541  0.91799758  1
  S  S20  1  0.82004400  0.66668145  0.91411471  1
  S  S21  1  0.16674136  0.98184755  0.91742836  1
  S  S22  1  0.66595756  0.96952745  0.91424400  1
  S  S23  1  0.31960602  0.97293963  0.41216503  1
  S  S24  1  0.82310973  0.97916239  0.41803861  1
  S  S25  1  0.16548750  0.36294266  0.41272243  1
  S  S26  1  0.66797589  0.35211067  0.41608313  1
  O  O0  1  0.10223763  0.01325456  0.31151117  1
  O  O1  1  0.61350127  0.02584594  0.30909541  1
  O  O2  1  0.39772449  0.79726363  0.30353248  1
  O  O3  1  0.90360268  0.77948773  0.29894982  1
  O  O4  1  0.49391011  0.18753772  0.30257307  1
  O  O5  1  0.98465130  0.19293223  0.30128810  1
  O  O6  1  0.11934985  0.20543206  0.81063588  1
  O  O7  1  0.60859328  0.19996335  0.81523449  1
  O  O8  1  0.48866373  0.78605245  0.80460114  1
  O  O9  1  0.99279118  0.80026176  0.80367361  1
  O  O10  1  0.40136523  0.01848649  0.80234833  1
  O  O11  1  0.89852479  0.00270285  0.80504187  1
  O  O12  1  0.39033567  0.98143405  0.70194076  1
  O  O13  1  0.88087105  0.96320469  0.70480238  1
  O  O14  1  0.09605705  0.19989278  0.69934396  1
  O  O15  1  0.59113930  0.21873514  0.70476408  1
  O  O16  1  -0.00092303  0.79484825  0.70232496  1
  O  O17  1  0.50893436  0.79608811  0.70400350  1
  O  O18  1  0.37957739  0.79732111  0.20338388  1
  O  O19  1  0.89124059  0.79995528  0.19900552  1
  O  O20  1  0.00974379  0.22581897  0.20133125  1
  O  O21  1  0.50023647  0.20565894  0.20133078  1
  O  O22  1  0.09018422  0.95862428  0.20157679  1
  O  O23  1  0.59868119  0.99143258  0.19704347  1
  O  O24  1  0.43136533  0.34224945  0.64789387  1
  O  O25  1  0.93656764  0.33691018  0.63210678  1
  O  O26  1  0.23775817  0.13811068  0.62908692  1
  O  O27  1  0.73639714  0.13586657  0.62687586  1
  O  O28  1  0.32292651  0.52414396  0.63414498  1
  O  O29  1  0.83025653  0.53883946  0.63044692  1
  O  O30  1  0.43606124  0.53627191  0.13195137  1
  O  O31  1  0.93005566  0.51762001  0.13818736  1
  O  O32  1  0.32838709  0.11995343  0.13081433  1
  O  O33  1  0.82875473  0.13161306  0.13468546  1
  O  O34  1  0.23444369  0.33799420  0.12809180  1
  O  O35  1  0.74374654  0.34630573  0.12950651  1
  O  O36  1  0.23587119  0.32919846  0.02637287  1
  O  O37  1  0.73505799  0.32439854  0.02754512  1
  O  O38  1  0.42926278  0.53386473  0.03076977  1
  O  O39  1  0.92421102  0.52602069  0.03601656  1
  O  O40  1  0.33673132  0.13519502  0.02999553  1
  O  O41  1  0.83823044  0.14072683  0.03309610  1
  O  O42  1  0.23124816  0.14125212  0.52656035  1
  O  O43  1  0.73725651  0.14601243  0.52523494  1
  O  O44  1  0.33187580  0.53459499  0.53207631  1
  O  O45  1  0.83898528  0.54003512  0.52962594  1
  O  O46  1  0.42491460  0.31625861  0.53229752  1
  O  O47  1  0.92982196  0.32497289  0.53080393  1
  O  O48  1  0.28673624  0.69965012  0.96769920  1
  O  O49  1  0.78775653  0.70241839  0.96582229  1
  O  O50  1  0.06997337  0.43027503  0.97018529  1
  O  O51  1  0.57611270  0.44152843  0.96661462  1
  O  O52  1  0.15726238  0.88384947  0.96805484  1
  O  O53  1  0.65802077  0.87575885  0.96544559  1
  O  O54  1  0.28660230  0.87165401  0.46317282  1
  O  O55  1  0.78665802  0.87340325  0.46699342  1
  O  O56  1  0.15605760  0.44068321  0.46355044  1
  O  O57  1  0.65956962  0.43171864  0.46644430  1
  O  O58  1  0.07821505  0.70714944  0.46408730  1
  O  O59  1  0.57034308  0.71027890  0.46717884  1
  O  O60  1  0.05271727  0.63778829  0.35579142  1
  O  O61  1  0.54903293  0.64192921  0.36063966  1
  O  O62  1  0.26336867  0.88421790  0.36472998  1
  O  O63  1  0.77130184  0.90312872  0.36833187  1
  O  O64  1  0.17946012  0.47086583  0.36366038  1
  O  O65  1  0.68405014  0.45656418  0.36691407  1
  O  O66  1  0.05197887  0.46078158  0.86333085  1
  O  O67  1  0.55686166  0.47289574  0.85903657  1
  O  O68  1  0.18301803  0.90854199  0.86875768  1
  O  O69  1  0.68177667  0.89204172  0.86558218  1
  O  O70  1  0.26969563  0.63628818  0.86957759  1
  O  O71  1  0.76296113  0.63896894  0.86744896  1
  O  O72  1  0.00729248  0.84202031  0.41144766  1
  O  O73  1  0.50339499  0.84643427  0.41144311  1
  O  O74  1  0.40537701  0.00676672  0.40266011  1
  O  O75  1  0.90967983  0.00943701  0.40893514  1
  O  O76  1  0.08733795  0.19703150  0.40765540  1
  O  O77  1  0.59015615  0.18634847  0.41115303  1
  O  O78  1  0.00387154  0.16293525  0.91128703  1
  O  O79  1  0.50618952  0.16956747  0.91060837  1
  O  O80  1  0.08930141  0.99346147  0.91262757  1
  O  O81  1  0.58892026  0.98117404  0.90941859  1
  O  O82  1  0.40902069  0.80782484  0.90959198  1
  O  O83  1  0.90581077  0.80389819  0.90473903  1
  O  O84  1  0.48594407  0.16573679  0.58659375  1
  O  O85  1  0.98466664  0.17779286  0.57828684  1
  O  O86  1  0.10567222  0.02849520  0.58066237  1
  O  O87  1  0.60789563  0.02728052  0.57514437  1
  O  O88  1  0.40792450  0.78517655  0.58450514  1
  O  O89  1  0.91185097  0.79658170  0.57896051  1
  O  O90  1  0.48440780  0.79131142  0.07838004  1
  O  O91  1  0.97912830  0.77792172  0.08702876  1
  O  O92  1  0.40967101  0.02353650  0.07898015  1
  O  O93  1  0.90939825  0.03056571  0.08472831  1
  O  O94  1  0.10620371  0.18295535  0.07620350  1
  O  O95  1  0.61046356  0.18501420  0.08210072  1
  O  O96  1  0.35408517  0.17013767  0.74980527  1
  O  O97  1  0.84111474  0.14239446  0.75429745  1
  O  O98  1  0.24987248  0.31177506  0.74486878  1
  O  O99  1  0.74250294  0.33127700  0.75461510  1
  O  O100  1  0.42808348  0.53056673  0.75240061  1
  O  O101  1  0.92617220  0.54013836  0.75593339  1
  O  O102  1  0.34014743  0.54076455  0.25358954  1
  O  O103  1  0.85732359  0.53781190  0.24391540  1
  O  O104  1  0.42699940  0.31397722  0.25526253  1
  O  O105  1  0.92822587  0.33306288  0.24726735  1
  O  O106  1  0.23951690  0.15102116  0.25222836  1
  O  O107  1  0.74776140  0.18349277  0.24831578  1
  O  O108  1  0.32422991  0.50563962  0.92519867  1
  O  O109  1  0.81809185  0.50181103  0.92098422  1
  O  O110  1  0.42091593  0.33822797  0.91983735  1
  O  O111  1  0.91554903  0.32932717  0.92362120  1
  O  O112  1  0.23802820  0.15823245  0.92406916  1
  O  O113  1  0.73810323  0.14587411  0.91952770  1
  O  O114  1  0.31706937  0.13213250  0.41828835  1
  O  O115  1  0.82545151  0.14309808  0.42418578  1
  O  O116  1  0.23675025  0.33139722  0.41749228  1
  O  O117  1  0.73921520  0.31702789  0.42173755  1
  O  O118  1  0.41306473  0.50457897  0.42145026  1
  O  O119  1  0.92058080  0.50162910  0.41969174  1
  O  O120  1  0.18284310  0.48600740  0.07745426  1
  O  O121  1  0.68755065  0.48744408  0.07974085  1
  O  O122  1  0.05592206  0.62935799  0.08467769  1
  O  O123  1  0.56182090  0.64357208  0.07909059  1
  O  O124  1  0.25757563  0.86961648  0.07824742  1
  O  O125  1  0.75748179  0.87874337  0.08268832  1
  O  O126  1  0.18441678  0.88392306  0.57951638  1
  O  O127  1  0.68871198  0.88574272  0.57617832  1
  O  O128  1  0.25623800  0.64327799  0.58310606  1
  O  O129  1  0.76002415  0.64864810  0.57782517  1
  O  O130  1  0.06218353  0.48038809  0.57909692  1
  O  O131  1  0.56779435  0.49955613  0.58966832  1
  O  O132  1  0.15219604  0.81326295  0.25835434  1
  O  O133  1  0.66749854  0.84547900  0.25026266  1
  O  O134  1  0.25920694  0.68062585  0.26213090  1
  O  O135  1  0.76701651  0.65983440  0.25398362  1
  O  O136  1  0.07754501  0.46751884  0.25819797  1
  O  O137  1  0.57802604  0.45239567  0.25364414  1
  O  O138  1  0.16878543  0.48762711  0.74998101  1
  O  O139  1  0.65296135  0.49166889  0.75821691  1
  O  O140  1  0.07695407  0.70367196  0.75433379  1
  O  O141  1  0.57857243  0.69240020  0.75984461  1
  O  O142  1  0.26609697  0.86854153  0.75646760  1
  O  O143  1  0.76056664  0.84103451  0.76386843  1
loop_
_geom_bond_atom_site_label_1
_geom_bond_atom_site_label_2
_geom_bond_distance
_geom_bond_site_symmetry_2
Na0 O132 2.368422 1_555
Na0 O103 2.430901 1_455
Na0 O105 2.499959 1_455
Na0 O60 2.526379 1_555
Na0 O136 2.570257 1_555
Na0 O22 2.890143 1_555
Na0 O3 2.902677 1_455
Na1 O139 2.431806 1_555
Na1 O96 2.449867 1_555
Na1 O100 2.528502 1_555
Na1 O24 2.618090 1_555
Na1 O141 2.637136 1_555
Na1 O15 2.750111 1_555
Na1 O67 2.989924 1_555
Na2 O112 2.455457 1_555
Na2 O80 2.507107 1_545
Na2 O78 2.509204 1_555
Na2 O6 2.544466 1_555
Na2 O108 2.680883 1_555
Na2 O50 2.859289 1_555
Na2 O70 2.866461 1_555
Na3 O7 2.400456 1_555
Na3 O79 2.458641 1_555
Na3 O113 2.534099 1_555
Na3 O81 2.573575 1_545
Na3 O109 2.606570 1_555
Na3 O51 2.852196 1_555
Na3 O71 2.891860 1_555
Na4 O72 2.481189 1_545
Na4 O116 2.487282 1_555
Na4 O114 2.534326 1_555
Na4 O76 2.601615 1_555
Na4 O0 2.713809 1_555
Na4 O58 2.797031 1_545
Na4 O42 2.984779 1_555
Na4 O62 2.998364 1_545
Na5 O73 2.471832 1_545
Na5 O117 2.480065 1_555
Na5 O77 2.515489 1_555
Na5 O59 2.688575 1_545
Na5 O115 2.720754 1_555
Na5 O1 2.778257 1_555
Na5 O43 2.969755 1_555
Na5 O63 2.970795 1_545
Na6 O72 2.476110 1_655
Na6 O89 2.572386 1_555
Na6 O75 2.691741 1_565
Na6 O85 2.773311 1_565
Na6 O86 2.838662 1_665
Na6 O76 2.844576 1_665
Na7 O84 2.624776 1_555
Na7 O73 2.640577 1_545
Na7 O88 2.725673 1_545
Na7 O87 2.768767 1_555
Na7 O77 2.784856 1_555
Na7 O74 2.858380 1_555
Na8 O78 2.340334 1_655
Na8 O80 2.613526 1_645
Na8 O83 2.711111 1_545
Na8 O93 2.828939 1_556
Na8 O94 2.848995 1_656
Na9 O79 2.411445 1_555
Na9 O82 2.608294 1_545
Na9 O92 2.658383 1_556
Na9 O81 2.740273 1_545
Na9 O90 2.853279 1_546
Na9 O95 2.980927 1_556
Na10 O98 2.471825 1_555
Na10 O100 2.517864 1_555
Na10 O96 2.520139 1_555
Na10 O110 2.776551 1_555
Na10 O112 2.910543 1_555
Na10 O108 2.934920 1_555
Na11 O101 2.590957 1_555
Na11 O111 2.599165 1_555
Na11 O97 2.641459 1_555
Na11 O99 2.645664 1_555
Na11 O113 2.739112 1_555
Na11 O109 2.743275 1_555
Na12 O118 2.368575 1_555
Na12 O114 2.613910 1_555
Na12 O116 2.617950 1_555
Na12 O104 2.714926 1_555
Na12 O102 2.785912 1_555
Na12 O106 2.885166 1_555
Na13 O107 2.573039 1_555
Na13 O119 2.617507 1_555
Na13 O117 2.647069 1_555
Na13 O115 2.737931 1_555
Na13 O105 2.766915 1_555
Na13 O103 2.811310 1_555
Na14 O132 2.407285 1_555
Na14 O134 2.614958 1_555
Na14 O136 2.751236 1_555
Na14 O124 2.877336 1_555
Na15 O133 2.305610 1_555
Na15 O137 2.749198 1_555
Na15 O135 2.794149 1_555
Na15 O125 2.805169 1_555
Na15 O123 2.930213 1_555
Na16 O138 2.394297 1_555
Na16 O128 2.647018 1_555
Na16 O142 2.819250 1_555
Na16 O140 2.868809 1_555
Na16 O130 2.907163 1_555
Na16 O126 3.057207 1_555
Na17 O131 2.421122 1_555
Na17 O139 2.577186 1_555
Na17 O129 2.790371 1_555
Na17 O141 2.884445 1_555
Na17 O127 3.019153 1_555
Na17 O143 3.023224 1_555
La0 O14 2.124752 1_555
La0 O16 2.370463 1_545
La0 O85 2.436739 1_455
La0 O13 2.448335 1_445
La0 O86 2.466693 1_555
La0 O89 2.527146 1_445
La1 O84 2.193970 1_555
La1 O15 2.218175 1_555
La1 O12 2.423812 1_545
La1 O17 2.479293 1_545
La1 O87 2.489687 1_555
La1 O88 2.539742 1_545
La2 O22 2.165901 1_545
La2 O20 2.380030 1_555
La2 O19 2.384893 1_445
La2 O91 2.434738 1_445
La2 O94 2.458572 1_555
La2 O93 2.540600 1_455
La3 O23 2.121485 1_555
La3 O21 2.355681 1_565
La3 O90 2.436803 1_555
La3 O18 2.444077 1_555
La3 O95 2.501254 1_565
La3 O92 2.563994 1_565
La4 O99 2.173590 1_555
La4 O27 2.355384 1_555
La4 O29 2.372013 1_555
La4 O101 2.454740 1_555
La4 O25 2.458960 1_555
La4 O97 2.469830 1_555
La5 O106 2.163094 1_555
La5 O32 2.388540 1_555
La5 O34 2.402907 1_555
La5 O104 2.419779 1_555
La5 O102 2.431062 1_555
La5 O30 2.461427 1_555
La6 O50 2.169778 1_554
La6 O52 2.395296 1_554
La6 O120 2.416160 1_555
La6 O48 2.461902 1_554
La6 O122 2.464225 1_555
La6 O124 2.490082 1_555
La7 O51 2.165785 1_554
La7 O53 2.390906 1_554
La7 O49 2.402709 1_554
La7 O123 2.406194 1_555
La7 O121 2.440183 1_555
La7 O125 2.551385 1_555
La8 O58 2.189892 1_555
La8 O56 2.392010 1_555
La8 O54 2.406942 1_555
La8 O126 2.408716 1_555
La8 O130 2.414164 1_555
La8 O128 2.477731 1_555
La9 O59 2.206613 1_555
La9 O131 2.211298 1_555
La9 O57 2.424215 1_555
La9 O127 2.432660 1_555
La9 O129 2.531313 1_555
La9 O55 2.694224 1_555
La10 O61 2.163661 1_555
La10 O133 2.261250 1_555
La10 O63 2.423142 1_555
La10 O137 2.428872 1_555
La10 O65 2.552486 1_555
La10 O135 2.568098 1_555
La11 O66 2.193032 1_555
La11 O138 2.228419 1_555
La11 O140 2.404944 1_555
La11 O70 2.451862 1_555
La11 O142 2.467052 1_555
La11 O68 2.583702 1_555
In0 O0 2.042440 1_665
In0 O72 2.100892 1_655
In0 O75 2.232964 1_565
In0 O3 2.253984 1_555
In0 O76 2.269059 1_665
In0 O5 2.329759 1_565
In1 O73 2.062239 1_555
In1 O1 2.063620 1_565
In1 O2 2.194767 1_555
In1 O4 2.202827 1_565
In1 O77 2.298006 1_565
In1 O74 2.340351 1_565
In2 O6 2.070545 1_555
In2 O78 2.091910 1_555
In2 O11 2.160221 1_455
In2 O9 2.178690 1_445
In2 O80 2.359315 1_545
In2 O83 2.437959 1_445
In3 O7 2.046713 1_555
In3 O79 2.111977 1_555
In3 O10 2.175496 1_555
In3 O8 2.208372 1_545
In3 O82 2.330136 1_545
In3 O81 2.348435 1_545
In4 O24 2.016921 1_555
In4 O98 2.031301 1_555
In4 O28 2.190956 1_555
In4 O26 2.209262 1_555
In4 O96 2.406632 1_555
In4 O100 2.475688 1_555
In5 O107 2.014368 1_555
In5 O33 2.162303 1_555
In5 O35 2.182829 1_555
In5 O31 2.210837 1_555
In5 O103 2.277387 1_555
In5 O105 2.348589 1_555
In6 O110 2.021212 1_555
In6 O38 2.157365 1_556
In6 O40 2.158484 1_556
In6 O108 2.233952 1_555
In6 O112 2.244948 1_555
In6 O36 2.250948 1_556
In7 O111 2.009183 1_555
In7 O37 2.159177 1_556
In7 O41 2.174242 1_556
In7 O39 2.189025 1_556
In7 O109 2.312733 1_555
In7 O113 2.318130 1_555
In8 O46 1.991609 1_555
In8 O118 2.040914 1_555
In8 O44 2.178314 1_555
In8 O42 2.269319 1_555
In8 O114 2.428546 1_555
In8 O116 2.567640 1_555
In9 O119 2.038299 1_555
In9 O45 2.141623 1_555
In9 O47 2.154928 1_555
In9 O43 2.199974 1_555
In9 O115 2.247239 1_555
In9 O117 2.272738 1_555
In10 O60 2.067345 1_555
In10 O132 2.114769 1_555
In10 O62 2.204712 1_555
In10 O134 2.247715 1_555
In10 O64 2.253109 1_555
In10 O136 2.326051 1_555
In11 O67 2.056365 1_555
In11 O139 2.076765 1_555
In11 O143 2.223265 1_555
In11 O141 2.259307 1_555
In11 O71 2.293487 1_555
In11 O69 2.307695 1_555
O0 Si0 1.629798 1_545
O1 Si1 1.642321 1_555
O2 S0 1.471629 1_555
O3 S1 1.490845 1_555
O4 S3 1.478488 1_555
O5 S2 1.475900 1_655
O6 Si2 1.666397 1_555
O7 Si3 1.641029 1_555
O8 S5 1.492342 1_555
O9 S4 1.487629 1_555
O10 S6 1.499459 1_555
O11 S7 1.483730 1_545
O12 S6 1.468222 1_565
O13 S7 1.480718 1_555
O14 Si2 1.634649 1_555
O15 Si3 1.632031 1_555
O16 S4 1.475070 1_455
O17 S5 1.466709 1_555
O18 S0 1.486388 1_555
O19 S1 1.479686 1_555
O20 S2 1.482256 1_555
O21 S3 1.481958 1_555
O22 Si0 1.655289 1_555
O23 Si1 1.642293 1_565
O24 Si4 1.655514 1_555
O25 S8 1.474072 1_555
O26 S9 1.468349 1_555
O27 S10 1.479548 1_555
O28 S11 1.479666 1_555
O29 S12 1.482750 1_555
O30 S13 1.473709 1_555
O31 S14 1.492584 1_555
O32 S15 1.478978 1_555
O33 S16 1.486487 1_555
O34 S17 1.476065 1_555
O35 S18 1.474623 1_555
O36 S17 1.487916 1_555
O37 S18 1.504268 1_555
O38 S13 1.479721 1_555
O39 S14 1.479301 1_555
O40 S15 1.484495 1_555
O41 S16 1.484922 1_555
O42 S9 1.499033 1_555
O43 S10 1.498592 1_555
O44 S11 1.484268 1_555
O45 S12 1.485992 1_555
O46 Si4 1.627591 1_555
O47 S8 1.478700 1_555
O48 S19 1.484724 1_555
O49 S20 1.488261 1_555
O50 Si5 1.656694 1_555
O51 Si6 1.657185 1_555
O52 S21 1.484146 1_555
O53 S22 1.479950 1_555
O54 S23 1.482993 1_555
O55 S24 1.466879 1_555
O56 S25 1.476641 1_555
O57 S26 1.470109 1_555
O58 Si7 1.645142 1_555
O59 Si8 1.642282 1_555
O60 Si7 1.651107 1_555
O61 Si8 1.635512 1_555
O62 S23 1.496932 1_555
O63 S24 1.485494 1_555
O64 S25 1.490716 1_555
O65 S26 1.468393 1_555
O66 Si5 1.619397 1_555
O67 Si6 1.635169 1_555
O68 S21 1.460820 1_555
O69 S22 1.479229 1_555
O70 S19 1.479883 1_555
O71 S20 1.486504 1_555
O72 Si7 1.666650 1_555
O73 Si8 1.656839 1_555
O74 S23 1.471789 1_545
O75 S24 1.495890 1_545
O76 S25 1.499915 1_555
O77 S26 1.496122 1_555
O78 Si5 1.657411 1_555
O79 Si6 1.664431 1_555
O80 S21 1.495570 1_555
O81 S22 1.488375 1_555
O82 S19 1.480100 1_555
O83 S20 1.471111 1_555
O84 Si4 1.642535 1_555
O85 S8 1.489152 1_555
O86 S9 1.492175 1_555
O87 S10 1.480563 1_555
O88 S11 1.478692 1_555
O89 S12 1.488810 1_555
O90 S13 1.487655 1_555
O91 S14 1.484683 1_555
O92 S15 1.485053 1_555
O93 S16 1.486695 1_555
O94 S17 1.492167 1_555
O95 S18 1.480757 1_555
O96 S6 1.496042 1_555
O97 S7 1.489583 1_545
O98 Si2 1.649524 1_555
O99 Si3 1.639929 1_555
O100 S5 1.496224 1_555
O101 S4 1.485556 1_555
O102 S0 1.488655 1_555
O103 S1 1.513763 1_555
O104 S3 1.488188 1_555
O105 S2 1.508075 1_655
O106 Si0 1.630573 1_545
O107 Si1 1.662933 1_555
O108 S19 1.502364 1_555
O109 S20 1.520245 1_555
O110 Si6 1.640499 1_555
O111 Si5 1.638990 1_655
O112 S21 1.511576 1_545
O113 S22 1.513408 1_545
O114 S23 1.506532 1_545
O115 S24 1.505404 1_545
O116 S25 1.492360 1_555
O117 S26 1.515059 1_555
O118 Si8 1.641508 1_555
O119 Si7 1.640593 1_655
O120 S17 1.485537 1_555
O121 S18 1.483970 1_555
O122 S14 1.488486 1_455
O123 S13 1.488888 1_555
O124 S15 1.487905 1_565
O125 S16 1.484995 1_565
O126 S9 1.491614 1_565
O127 S10 1.474279 1_565
O128 S11 1.497220 1_555
O129 S12 1.473911 1_555
O130 S8 1.487841 1_455
O131 Si4 1.655935 1_555
O132 Si0 1.657174 1_555
O133 Si1 1.641928 1_565
O134 S0 1.493744 1_555
O135 S1 1.462730 1_555
O136 S2 1.494086 1_555
O137 S3 1.478681 1_555
O138 Si2 1.645399 1_555
O139 Si3 1.659535 1_555
O140 S4 1.478703 1_455
O141 S5 1.502514 1_555
O142 S6 1.472741 1_565
O143 S7 1.485574 1_555
