# generated using pymatgen
data_Na3ScSi2SnSO12
_symmetry_space_group_name_H-M   'P 1'
_cell_length_a   9.07617178
_cell_length_b   9.07617145
_cell_length_c   22.75145028
_cell_angle_alpha   88.94920558
_cell_angle_beta   91.05079440
_cell_angle_gamma   119.49751401
_symmetry_Int_Tables_number   1
_chemical_formula_structural   Na3ScSi2SnSO12
_chemical_formula_sum   'Na18 Sc6 Si12 Sn6 S6 O72'
_cell_volume   1630.88759467
_cell_formula_units_Z   6
loop_
 _symmetry_equiv_pos_site_id
 _symmetry_equiv_pos_as_xyz
  1  'x, y, z'
loop_
 _atom_site_type_symbol
 _atom_site_label
 _atom_site_symmetry_multiplicity
 _atom_site_fract_x
 _atom_site_fract_y
 _atom_site_fract_z
 _atom_site_occupancy
  Na  Na0  1  0.62864103  0.99769875  0.24592242  1
  Na  Na1  1  0.99673433  0.64332281  0.24638592  1
  Na  Na2  1  0.00230125  0.37135897  0.74592242  1
  Na  Na3  1  0.35667719  0.00326567  0.74638592  1
  Na  Na4  1  0.29530803  0.33103175  0.57925542  1
  Na  Na5  1  0.66340133  0.97665581  0.57971892  1
  Na  Na6  1  0.66896825  0.70469197  0.07925542  1
  Na  Na7  1  0.02334419  0.33659867  0.07971892  1
  Na  Na8  1  0.96197403  0.66436575  0.91258942  1
  Na  Na9  1  0.33006733  0.30998981  0.91305292  1
  Na  Na10  1  0.33563425  0.03802597  0.41258942  1
  Na  Na11  1  0.69001019  0.66993267  0.41305292  1
  Na  Na12  1  0.00539067  0.01922454  0.49721856  1
  Na  Na13  1  0.98077546  0.99460933  0.99721856  1
  Na  Na14  1  0.67205767  0.35255754  0.83055156  1
  Na  Na15  1  0.64744246  0.32794233  0.33055156  1
  Na  Na16  1  0.33872367  0.68589154  0.16388556  1
  Na  Na17  1  0.31410846  0.66127633  0.66388556  1
  Sc  Sc0  1  0.00365156  0.00494100  0.35231513  1
  Sc  Sc1  1  0.99505900  0.99634844  0.85231513  1
  Sc  Sc2  1  0.67031856  0.33827400  0.68564813  1
  Sc  Sc3  1  0.66172600  0.32968144  0.18564813  1
  Sc  Sc4  1  0.33698456  0.67160800  0.01898213  1
  Sc  Sc5  1  0.32839200  0.66301544  0.51898213  1
  Si  Si0  1  0.29391413  0.00077202  0.25341391  1
  Si  Si1  1  0.70484702  0.70154321  0.25200510  1
  Si  Si2  1  0.29845679  0.29515298  0.75200510  1
  Si  Si3  1  0.99922798  0.70608587  0.75341391  1
  Si  Si4  1  0.96058113  0.33410502  0.58674691  1
  Si  Si5  1  0.37151402  0.03487621  0.58533810  1
  Si  Si6  1  0.96512379  0.62848598  0.08533810  1
  Si  Si7  1  0.66589498  0.03941887  0.08674691  1
  Si  Si8  1  0.62724713  0.66743902  0.92008091  1
  Si  Si9  1  0.03818002  0.36821021  0.91867210  1
  Si  Si10  1  0.63178979  0.96181998  0.41867210  1
  Si  Si11  1  0.33256098  0.37275287  0.42008091  1
  Sn  Sn0  1  0.02126676  0.00943797  0.64915021  1
  Sn  Sn1  1  0.99056203  0.97873324  0.14915021  1
  Sn  Sn2  1  0.68793376  0.34277097  0.98248321  1
  Sn  Sn3  1  0.65722903  0.31206624  0.48248321  1
  Sn  Sn4  1  0.35459976  0.67610497  0.31581721  1
  Sn  Sn5  1  0.32389503  0.64540024  0.81581721  1
  S  S0  1  0.00489469  0.29548202  0.24911308  1
  S  S1  1  0.70451798  0.99510531  0.74911308  1
  S  S2  1  0.67156169  0.62881502  0.58244608  1
  S  S3  1  0.37118498  0.32843831  0.08244608  1
  S  S4  1  0.33822769  0.96214902  0.91578008  1
  S  S5  1  0.03785098  0.66177231  0.41578008  1
  O  O0  1  0.20623599  0.02326506  0.31098291  1
  O  O1  1  0.82377867  0.79410162  0.30887852  1
  O  O2  1  0.97865459  0.18533244  0.30078123  1
  O  O3  1  0.20589838  0.17622133  0.80887852  1
  O  O4  1  0.97673494  0.79376401  0.81098291  1
  O  O5  1  0.81466756  0.02134541  0.80078123  1
  O  O6  1  0.77669143  0.96670077  0.69504022  1
  O  O7  1  0.17462441  0.22173476  0.69224827  1
  O  O8  1  0.03650042  0.82898427  0.69421313  1
  O  O9  1  0.77826524  0.82537559  0.19224827  1
  O  O10  1  0.03329923  0.22330857  0.19504022  1
  O  O11  1  0.17101573  0.96349958  0.19421313  1
  O  O12  1  0.87290299  0.35659806  0.64431591  1
  O  O13  1  0.49044567  0.12743462  0.64221152  1
  O  O14  1  0.64532159  0.51866544  0.63411423  1
  O  O15  1  0.87256538  0.50955433  0.14221152  1
  O  O16  1  0.64340194  0.12709701  0.14431591  1
  O  O17  1  0.48133456  0.35467841  0.13411423  1
  O  O18  1  0.44335843  0.30003377  0.02837322  1
  O  O19  1  0.84129141  0.55506776  0.02558127  1
  O  O20  1  0.70316742  0.16231727  0.02754613  1
  O  O21  1  0.44493224  0.15870859  0.52558127  1
  O  O22  1  0.69996623  0.55664157  0.52837322  1
  O  O23  1  0.83768273  0.29683258  0.52754613  1
  O  O24  1  0.53956899  0.68993206  0.97764991  1
  O  O25  1  0.15711167  0.46076862  0.97554552  1
  O  O26  1  0.31198759  0.85199944  0.96744823  1
  O  O27  1  0.53923138  0.84288833  0.47554552  1
  O  O28  1  0.31006794  0.46043101  0.47764991  1
  O  O29  1  0.14800056  0.68801241  0.46744823  1
  O  O30  1  0.11002443  0.63336777  0.36170722  1
  O  O31  1  0.50795741  0.88840176  0.35891527  1
  O  O32  1  0.36983342  0.49565127  0.36088013  1
  O  O33  1  0.11159824  0.49204259  0.85891527  1
  O  O34  1  0.36663223  0.88997557  0.86170722  1
  O  O35  1  0.50434873  0.63016658  0.86088013  1
  O  O36  1  0.02302559  0.81740231  0.41128736  1
  O  O37  1  0.81258643  0.96817288  0.41158031  1
  O  O38  1  0.17839352  0.17986081  0.41309948  1
  O  O39  1  0.03182712  0.18741357  0.91158031  1
  O  O40  1  0.18259769  0.97697441  0.91128736  1
  O  O41  1  0.82013919  0.82160648  0.91309948  1
  O  O42  1  0.96166560  0.14718049  0.59018851  1
  O  O43  1  0.18447742  0.02658703  0.58659028  1
  O  O44  1  0.81831086  0.80254036  0.58958544  1
  O  O45  1  0.97341297  0.81552258  0.08659028  1
  O  O46  1  0.85281951  0.03833440  0.09018851  1
  O  O47  1  0.19745964  0.18168914  0.08958544  1
  O  O48  1  0.68969259  0.15073531  0.74462036  1
  O  O49  1  0.47925343  0.30150588  0.74491331  1
  O  O50  1  0.84506052  0.51319381  0.74643248  1
  O  O51  1  0.69849412  0.52074657  0.24491331  1
  O  O52  1  0.84926469  0.31030741  0.24462036  1
  O  O53  1  0.48680619  0.15493948  0.24643248  1
  O  O54  1  0.62833260  0.48051349  0.92352151  1
  O  O55  1  0.85114442  0.35992003  0.91992328  1
  O  O56  1  0.48497786  0.13587336  0.92291844  1
  O  O57  1  0.64007997  0.14885558  0.41992328  1
  O  O58  1  0.51948651  0.37166740  0.42352151  1
  O  O59  1  0.86412664  0.51502214  0.42291844  1
  O  O60  1  0.35635859  0.48406931  0.07795436  1
  O  O61  1  0.14591943  0.63483988  0.07824731  1
  O  O62  1  0.51172652  0.84652781  0.07976648  1
  O  O63  1  0.36516012  0.85408057  0.57824731  1
  O  O64  1  0.51593069  0.64364141  0.57795436  1
  O  O65  1  0.15347219  0.48827348  0.57976648  1
  O  O66  1  0.29499860  0.81384749  0.25685551  1
  O  O67  1  0.51781042  0.69325403  0.25325728  1
  O  O68  1  0.15164386  0.46920736  0.25625244  1
  O  O69  1  0.30674597  0.48218958  0.75325728  1
  O  O70  1  0.18615251  0.70500140  0.75685551  1
  O  O71  1  0.53079264  0.84835614  0.75625244  1
loop_
_geom_bond_atom_site_label_1
_geom_bond_atom_site_label_2
_geom_bond_distance
_geom_bond_site_symmetry_2
Na0 O53 2.346151 1_565
Na0 O67 2.434539 1_555
Na0 O52 2.542625 1_565
Na0 O16 2.549123 1_565
Na0 O66 2.655672 1_555
Na0 O31 2.780704 1_555
Na0 O9 2.829164 1_555
Na1 O51 2.366107 1_555
Na1 O66 2.375794 1_655
Na1 O68 2.586116 1_655
Na1 O52 2.635756 1_555
Na1 O15 2.649856 1_555
Na1 O11 2.787735 1_655
Na1 O30 2.816599 1_655
Na1 O1 2.937213 1_555
Na2 O50 2.346151 1_455
Na2 O69 2.434539 1_555
Na2 O48 2.542625 1_455
Na2 O12 2.549123 1_455
Na2 O70 2.655672 1_555
Na2 O33 2.780704 1_555
Na2 O7 2.829164 1_555
Na3 O49 2.366107 1_555
Na3 O70 2.375794 1_545
Na3 O71 2.586116 1_545
Na3 O48 2.635756 1_555
Na3 O13 2.649856 1_555
Na3 O8 2.787735 1_545
Na3 O34 2.816599 1_545
Na3 O3 2.937213 1_555
Na4 O65 2.346167 1_555
Na4 O43 2.434539 1_555
Na4 O64 2.542629 1_555
Na4 O28 2.549108 1_555
Na4 O42 2.655672 1_455
Na4 O7 2.780704 1_555
Na4 O21 2.829164 1_555
Na5 O63 2.366116 1_555
Na5 O42 2.375794 1_565
Na5 O44 2.586116 1_555
Na5 O64 2.635747 1_555
Na5 O27 2.649835 1_555
Na5 O23 2.787735 1_565
Na5 O6 2.816599 1_555
Na5 O13 2.937213 1_565
Na6 O62 2.346167 1_555
Na6 O45 2.434539 1_555
Na6 O60 2.542629 1_555
Na6 O24 2.549108 1_554
Na6 O46 2.655672 1_565
Na6 O9 2.780704 1_555
Na6 O19 2.829164 1_555
Na7 O61 2.366116 1_555
Na7 O46 2.375794 1_455
Na7 O47 2.586116 1_555
Na7 O60 2.635747 1_555
Na7 O25 2.649835 1_554
Na7 O20 2.787735 1_455
Na7 O10 2.816599 1_555
Na7 O15 2.937213 1_455
Na8 O41 2.346151 1_555
Na8 O55 2.434547 1_555
Na8 O40 2.542625 1_655
Na8 O4 2.549123 1_555
Na8 O54 2.655663 1_555
Na8 O19 2.780682 1_556
Na8 O33 2.829164 1_655
Na9 O39 2.366107 1_555
Na9 O54 2.375798 1_555
Na9 O56 2.586130 1_555
Na9 O40 2.635756 1_545
Na9 O3 2.649856 1_555
Na9 O35 2.787735 1_555
Na9 O18 2.816583 1_556
Na9 O25 2.937213 1_555
Na10 O38 2.346151 1_555
Na10 O57 2.434547 1_555
Na10 O36 2.542625 1_545
Na10 O0 2.549123 1_555
Na10 O58 2.655663 1_555
Na10 O21 2.780682 1_555
Na10 O31 2.829164 1_545
Na11 O37 2.366107 1_555
Na11 O58 2.375798 1_555
Na11 O59 2.586130 1_555
Na11 O36 2.635756 1_655
Na11 O1 2.649856 1_555
Na11 O32 2.787735 1_555
Na11 O22 2.816583 1_555
Na11 O27 2.937213 1_555
Na12 O38 2.450997 1_555
Na12 O37 2.486513 1_445
Na12 O42 2.560286 1_455
Na12 O43 2.560805 1_555
Na12 O36 2.763118 1_545
Na12 O44 2.803193 1_445
Na13 O41 2.450997 1_555
Na13 O39 2.486513 1_665
Na13 O46 2.560286 1_566
Na13 O45 2.560804 1_556
Na13 O40 2.763118 1_655
Na13 O47 2.803193 1_666
Na14 O50 2.450997 1_555
Na14 O49 2.486513 1_555
Na14 O54 2.560286 1_555
Na14 O55 2.560805 1_555
Na14 O48 2.763118 1_555
Na14 O56 2.803193 1_555
Na15 O53 2.450997 1_555
Na15 O51 2.486513 1_555
Na15 O58 2.560286 1_555
Na15 O57 2.560804 1_555
Na15 O52 2.763118 1_555
Na15 O59 2.803193 1_555
Na16 O62 2.450997 1_555
Na16 O61 2.486513 1_555
Na16 O66 2.560286 1_555
Na16 O67 2.560805 1_555
Na16 O60 2.763118 1_555
Na16 O68 2.803193 1_555
Na17 O65 2.450997 1_555
Na17 O63 2.486513 1_555
Na17 O70 2.560286 1_555
Na17 O69 2.560804 1_555
Na17 O64 2.763118 1_555
Na17 O71 2.803193 1_555
O0 Si0 1.611982 1_555
O0 Sc0 2.012282 1_555
O1 Si1 1.625077 1_555
O1 Sc0 2.058512 1_665
O2 S0 1.473345 1_655
O2 Sc0 2.095812 1_655
O3 Si2 1.625077 1_555
O3 Sc1 2.058512 1_445
O4 Si3 1.611982 1_555
O4 Sc1 2.012282 1_555
O5 S1 1.473345 1_545
O5 Sc1 2.095812 1_545
O6 S1 1.488805 1_555
O6 Sn0 2.321701 1_665
O7 Si2 1.671909 1_555
O7 Sn0 1.997419 1_555
O8 Si3 1.662173 1_455
O8 Sn0 1.977106 1_565
O9 Si1 1.671909 1_555
O9 Sn1 1.997419 1_555
O10 S0 1.488805 1_555
O10 Sn1 2.321701 1_445
O11 Si0 1.662173 1_565
O11 Sn1 1.977106 1_455
O12 Si4 1.611982 1_555
O12 Sc2 2.012282 1_555
O13 Si5 1.625077 1_555
O13 Sc2 2.058512 1_555
O14 S2 1.473345 1_555
O14 Sc2 2.095812 1_555
O15 Si6 1.625077 1_555
O15 Sc3 2.058512 1_555
O16 Si7 1.611982 1_555
O16 Sc3 2.012282 1_555
O17 S3 1.473345 1_555
O17 Sc3 2.095812 1_555
O18 S3 1.488805 1_555
O18 Sn2 2.321701 1_554
O19 Si6 1.671909 1_555
O19 Sn2 1.997419 1_554
O20 Si7 1.662173 1_555
O20 Sn2 1.977106 1_554
O21 Si5 1.671909 1_555
O21 Sn3 1.997419 1_555
O22 S2 1.488805 1_555
O22 Sn3 2.321701 1_555
O23 Si4 1.662173 1_555
O23 Sn3 1.977106 1_555
O24 Si8 1.611982 1_555
O24 Sc4 2.012282 1_556
O25 Si9 1.625077 1_555
O25 Sc4 2.058512 1_556
O26 S4 1.473345 1_555
O26 Sc4 2.095812 1_556
O27 Si10 1.625077 1_555
O27 Sc5 2.058512 1_555
O28 Si11 1.611982 1_555
O28 Sc5 2.012282 1_555
O29 S5 1.473345 1_555
O29 Sc5 2.095812 1_555
O30 S5 1.488805 1_555
O30 Sn4 2.321701 1_555
O31 Si10 1.671909 1_555
O31 Sn4 1.997419 1_555
O32 Si11 1.662173 1_555
O32 Sn4 1.977106 1_555
O33 Si9 1.671909 1_555
O33 Sn5 1.997419 1_555
O34 S4 1.488805 1_555
O34 Sn5 2.321701 1_555
O35 Si8 1.662173 1_555
O35 Sn5 1.977106 1_555
O36 S5 1.484975 1_555
O36 Sc0 2.220513 1_565
O37 Si10 1.624266 1_555
O37 Sc0 2.106198 1_665
O38 Si11 1.624134 1_555
O38 Sc0 2.113965 1_555
O39 Si9 1.624266 1_555
O39 Sc1 2.106198 1_445
O40 S4 1.484975 1_555
O40 Sc1 2.220513 1_455
O41 Si8 1.624134 1_555
O41 Sc1 2.113965 1_555
O42 Si4 1.701789 1_555
O42 Sn0 2.057413 1_655
O43 Si5 1.662577 1_555
O43 Sn0 2.021528 1_555
O44 S2 1.489930 1_555
O44 Sn0 2.313300 1_665
O45 Si6 1.662577 1_555
O45 Sn1 2.021528 1_555
O46 Si7 1.701789 1_555
O46 Sn1 2.057413 1_545
O47 S3 1.489930 1_555
O47 Sn1 2.313300 1_445
O48 S1 1.484975 1_545
O48 Sc2 2.220513 1_555
O49 Si2 1.624266 1_555
O49 Sc2 2.106198 1_555
O50 Si3 1.624134 1_555
O50 Sc2 2.113965 1_555
O51 Si1 1.624266 1_555
O51 Sc3 2.106198 1_555
O52 S0 1.484975 1_655
O52 Sc3 2.220513 1_555
O53 Si0 1.624134 1_555
O53 Sc3 2.113965 1_555
O54 Si8 1.701802 1_555
O54 Sn2 2.057413 1_555
O55 Si9 1.662563 1_655
O55 Sn2 2.021528 1_555
O56 S4 1.489925 1_545
O56 Sn2 2.313300 1_555
O57 Si10 1.662563 1_545
O57 Sn3 2.021528 1_555
O58 Si11 1.701802 1_555
O58 Sn3 2.057413 1_555
O59 S5 1.489925 1_655
O59 Sn3 2.313300 1_555
O60 S3 1.484988 1_555
O60 Sc4 2.220513 1_555
O61 Si6 1.624250 1_455
O61 Sc4 2.106198 1_555
O62 Si7 1.624129 1_565
O62 Sc4 2.113965 1_555
O63 Si5 1.624250 1_565
O63 Sc5 2.106198 1_555
O64 S2 1.484988 1_555
O64 Sc5 2.220513 1_555
O65 Si4 1.624129 1_455
O65 Sc5 2.113965 1_555
O66 Si0 1.701789 1_565
O66 Sn4 2.057413 1_555
O67 Si1 1.662577 1_555
O67 Sn4 2.021528 1_555
O68 S0 1.489930 1_555
O68 Sn4 2.313300 1_555
O69 Si2 1.662577 1_555
O69 Sn5 2.021528 1_555
O70 Si3 1.701789 1_455
O70 Sn5 2.057413 1_555
O71 S1 1.489930 1_555
O71 Sn5 2.313300 1_555
