# generated using pymatgen
data_NaYZn(SO4)3
_symmetry_space_group_name_H-M   'P 1'
_cell_length_a   8.95417325
_cell_length_b   8.95417294
_cell_length_c   23.64623321
_cell_angle_alpha   90.00000000
_cell_angle_beta   90.00000000
_cell_angle_gamma   120.00000111
_symmetry_Int_Tables_number   1
_chemical_formula_structural   NaYZn(SO4)3
_chemical_formula_sum   'Na6 Y6 Zn6 S18 O72'
_cell_volume   1641.88814266
_cell_formula_units_Z   6
loop_
 _symmetry_equiv_pos_site_id
 _symmetry_equiv_pos_as_xyz
  1  'x, y, z'
loop_
 _atom_site_type_symbol
 _atom_site_label
 _atom_site_symmetry_multiplicity
 _atom_site_fract_x
 _atom_site_fract_y
 _atom_site_fract_z
 _atom_site_occupancy
  Na  Na0  1  0.00000000  0.00000000  0.49438052  1
  Na  Na1  1  0.00000000  0.00000000  0.99438052  1
  Na  Na2  1  0.66666700  0.33333300  0.82771352  1
  Na  Na3  1  0.66666700  0.33333300  0.32771352  1
  Na  Na4  1  0.33333300  0.66666700  0.16104752  1
  Na  Na5  1  0.33333300  0.66666700  0.66104752  1
  Y  Y0  1  0.00000000  0.00000000  0.64791430  1
  Y  Y1  1  0.00000000  0.00000000  0.14791430  1
  Y  Y2  1  0.66666700  0.33333300  0.98124730  1
  Y  Y3  1  0.66666700  0.33333300  0.48124730  1
  Y  Y4  1  0.33333300  0.66666700  0.31458130  1
  Y  Y5  1  0.33333300  0.66666700  0.81458130  1
  Zn  Zn0  1  0.00000000  0.00000000  0.34865642  1
  Zn  Zn1  1  0.00000000  0.00000000  0.84865642  1
  Zn  Zn2  1  0.66666700  0.33333300  0.68198942  1
  Zn  Zn3  1  0.66666700  0.33333300  0.18198942  1
  Zn  Zn4  1  0.33333300  0.66666700  0.01532342  1
  Zn  Zn5  1  0.33333300  0.66666700  0.51532342  1
  S  S0  1  0.30023866  0.01048728  0.25104939  1
  S  S1  1  0.71024863  0.69976134  0.25104939  1
  S  S2  1  0.98951272  0.28975137  0.25104939  1
  S  S3  1  0.30023866  0.28975137  0.75104939  1
  S  S4  1  0.98951272  0.69976134  0.75104939  1
  S  S5  1  0.71024863  0.01048728  0.75104939  1
  S  S6  1  0.96690566  0.34382028  0.58438239  1
  S  S7  1  0.37691563  0.03309434  0.58438239  1
  S  S8  1  0.65617972  0.62308437  0.58438239  1
  S  S9  1  0.96690566  0.62308437  0.08438239  1
  S  S10  1  0.65617972  0.03309434  0.08438239  1
  S  S11  1  0.37691563  0.34382028  0.08438239  1
  S  S12  1  0.63357166  0.67715428  0.91771639  1
  S  S13  1  0.04358163  0.36642834  0.91771639  1
  S  S14  1  0.32284572  0.95641837  0.91771639  1
  S  S15  1  0.63357166  0.95641837  0.41771639  1
  S  S16  1  0.32284572  0.36642834  0.41771639  1
  S  S17  1  0.04358163  0.67715428  0.41771639  1
  O  O0  1  0.21573588  0.02909588  0.30224012  1
  O  O1  1  0.81335999  0.78426412  0.30224012  1
  O  O2  1  0.97090412  0.18664001  0.30224012  1
  O  O3  1  0.21573588  0.18664001  0.80224012  1
  O  O4  1  0.97090412  0.78426412  0.80224012  1
  O  O5  1  0.81335999  0.02909588  0.80224012  1
  O  O6  1  0.78833835  0.98347546  0.69960646  1
  O  O7  1  0.19513711  0.21166165  0.69960646  1
  O  O8  1  0.01652454  0.80486289  0.69960646  1
  O  O9  1  0.78833835  0.80486289  0.19960646  1
  O  O10  1  0.01652454  0.21166165  0.19960646  1
  O  O11  1  0.19513711  0.98347546  0.19960646  1
  O  O12  1  0.88240288  0.36242888  0.63557312  1
  O  O13  1  0.48002699  0.11759712  0.63557312  1
  O  O14  1  0.63757112  0.51997301  0.63557312  1
  O  O15  1  0.88240288  0.51997301  0.13557312  1
  O  O16  1  0.63757112  0.11759712  0.13557312  1
  O  O17  1  0.48002699  0.36242888  0.13557312  1
  O  O18  1  0.45500535  0.31680846  0.03293946  1
  O  O19  1  0.86180411  0.54499465  0.03293946  1
  O  O20  1  0.68319154  0.13819589  0.03293946  1
  O  O21  1  0.45500535  0.13819589  0.53293946  1
  O  O22  1  0.68319154  0.54499465  0.53293946  1
  O  O23  1  0.86180411  0.31680846  0.53293946  1
  O  O24  1  0.54906888  0.69576288  0.96890712  1
  O  O25  1  0.14669299  0.45093112  0.96890712  1
  O  O26  1  0.30423712  0.85330701  0.96890712  1
  O  O27  1  0.54906888  0.85330701  0.46890712  1
  O  O28  1  0.30423712  0.45093112  0.46890712  1
  O  O29  1  0.14669299  0.69576288  0.46890712  1
  O  O30  1  0.12167135  0.65014246  0.36627346  1
  O  O31  1  0.52847011  0.87832865  0.36627346  1
  O  O32  1  0.34985754  0.47152989  0.36627346  1
  O  O33  1  0.12167135  0.47152989  0.86627346  1
  O  O34  1  0.34985754  0.87832865  0.86627346  1
  O  O35  1  0.52847011  0.65014246  0.86627346  1
  O  O36  1  0.02552174  0.83256964  0.41163219  1
  O  O37  1  0.80704789  0.97447826  0.41163219  1
  O  O38  1  0.16743036  0.19295211  0.41163219  1
  O  O39  1  0.02552174  0.19295211  0.91163219  1
  O  O40  1  0.16743036  0.97447826  0.91163219  1
  O  O41  1  0.80704789  0.83256964  0.91163219  1
  O  O42  1  0.98518134  0.18670803  0.58848810  1
  O  O43  1  0.20152669  0.01481866  0.58848810  1
  O  O44  1  0.81329197  0.79847331  0.58848810  1
  O  O45  1  0.98518134  0.79847331  0.08848810  1
  O  O46  1  0.81329197  0.01481866  0.08848810  1
  O  O47  1  0.20152669  0.18670803  0.08848810  1
  O  O48  1  0.69218874  0.16590264  0.74496519  1
  O  O49  1  0.47371489  0.30781126  0.74496519  1
  O  O50  1  0.83409736  0.52628511  0.74496519  1
  O  O51  1  0.69218874  0.52628511  0.24496519  1
  O  O52  1  0.83409736  0.30781126  0.24496519  1
  O  O53  1  0.47371489  0.16590264  0.24496519  1
  O  O54  1  0.65184834  0.52004103  0.92182110  1
  O  O55  1  0.86819369  0.34815166  0.92182110  1
  O  O56  1  0.47995897  0.13180631  0.92182110  1
  O  O57  1  0.65184834  0.13180631  0.42182110  1
  O  O58  1  0.47995897  0.34815166  0.42182110  1
  O  O59  1  0.86819369  0.52004103  0.42182110  1
  O  O60  1  0.35885474  0.49923664  0.07829919  1
  O  O61  1  0.14038089  0.64114526  0.07829919  1
  O  O62  1  0.50076336  0.85961911  0.07829919  1
  O  O63  1  0.35885474  0.85961911  0.57829919  1
  O  O64  1  0.50076336  0.64114526  0.57829919  1
  O  O65  1  0.14038089  0.49923664  0.57829919  1
  O  O66  1  0.31851434  0.85337503  0.25515510  1
  O  O67  1  0.53485969  0.68148566  0.25515510  1
  O  O68  1  0.14662497  0.46514031  0.25515510  1
  O  O69  1  0.31851434  0.46514031  0.75515510  1
  O  O70  1  0.14662497  0.68148566  0.75515510  1
  O  O71  1  0.53485969  0.85337503  0.75515510  1
loop_
_geom_bond_atom_site_label_1
_geom_bond_atom_site_label_2
_geom_bond_distance
_geom_bond_site_symmetry_2
Na0 O36 2.543827 1_545
Na0 O38 2.543827 1_555
Na0 O37 2.543827 1_445
Na0 O44 2.826008 1_445
Na0 O42 2.826008 1_455
Na0 O43 2.826008 1_555
Na1 O40 2.543827 1_545
Na1 O41 2.543827 1_445
Na1 O39 2.543827 1_555
Na1 O45 2.826008 1_446
Na1 O47 2.826008 1_556
Na1 O46 2.826008 1_456
Na2 O48 2.543827 1_555
Na2 O50 2.543827 1_555
Na2 O49 2.543827 1_555
Na2 O56 2.826008 1_555
Na2 O54 2.826008 1_555
Na2 O55 2.826008 1_555
Na3 O52 2.543827 1_555
Na3 O53 2.543827 1_555
Na3 O51 2.543827 1_555
Na3 O57 2.826008 1_555
Na3 O59 2.826008 1_555
Na3 O58 2.826008 1_555
Na4 O60 2.543827 1_555
Na4 O62 2.543827 1_555
Na4 O61 2.543827 1_555
Na4 O68 2.826008 1_555
Na4 O66 2.826008 1_555
Na4 O67 2.826008 1_555
Na5 O64 2.543827 1_555
Na5 O65 2.543827 1_555
Na5 O63 2.543827 1_555
Na5 O69 2.826008 1_555
Na5 O71 2.826008 1_555
Na5 O70 2.826008 1_555
O0 S0 1.480404 1_555
O0 Zn0 2.121525 1_555
O1 S1 1.480404 1_555
O1 Zn0 2.121525 1_665
O2 S2 1.480404 1_555
O2 Zn0 2.121525 1_655
O3 S3 1.480404 1_555
O3 Zn1 2.121525 1_555
O4 S4 1.480404 1_555
O4 Zn1 2.121525 1_665
O5 S5 1.480404 1_555
O5 Zn1 2.121525 1_655
O6 S5 1.481975 1_565
O6 Y0 2.197165 1_665
O7 S3 1.481975 1_555
O7 Y0 2.197165 1_555
O8 S4 1.481975 1_455
O8 Y0 2.197165 1_565
O9 S1 1.481975 1_555
O9 Y1 2.197165 1_665
O10 S2 1.481975 1_455
O10 Y1 2.197165 1_555
O11 S0 1.481975 1_565
O11 Y1 2.197165 1_565
O12 S6 1.480404 1_555
O12 Zn2 2.121525 1_555
O13 S7 1.480404 1_555
O13 Zn2 2.121525 1_555
O14 S8 1.480404 1_555
O14 Zn2 2.121525 1_555
O15 S9 1.480404 1_555
O15 Zn3 2.121525 1_555
O16 S10 1.480404 1_555
O16 Zn3 2.121525 1_555
O17 S11 1.480404 1_555
O17 Zn3 2.121525 1_555
O18 S11 1.481975 1_555
O18 Y2 2.197165 1_554
O19 S9 1.481975 1_555
O19 Y2 2.197165 1_554
O20 S10 1.481975 1_555
O20 Y2 2.197165 1_554
O21 S7 1.481975 1_555
O21 Y3 2.197165 1_555
O22 S8 1.481975 1_555
O22 Y3 2.197165 1_555
O23 S6 1.481975 1_555
O23 Y3 2.197165 1_555
O24 S12 1.480404 1_555
O24 Zn4 2.121525 1_556
O25 S13 1.480404 1_555
O25 Zn4 2.121525 1_556
O26 S14 1.480404 1_555
O26 Zn4 2.121525 1_556
O27 S15 1.480404 1_555
O27 Zn5 2.121525 1_555
O28 S16 1.480404 1_555
O28 Zn5 2.121525 1_555
O29 S17 1.480404 1_555
O29 Zn5 2.121525 1_555
O30 S17 1.481975 1_555
O30 Y4 2.197165 1_555
O31 S15 1.481975 1_555
O31 Y4 2.197165 1_555
O32 S16 1.481975 1_555
O32 Y4 2.197165 1_555
O33 S13 1.481975 1_555
O33 Y5 2.197165 1_555
O34 S14 1.481975 1_555
O34 Y5 2.197165 1_555
O35 S12 1.481975 1_555
O35 Y5 2.197165 1_555
O36 S17 1.486097 1_555
O36 Zn0 2.204534 1_565
O37 S15 1.486106 1_555
O37 Zn0 2.204534 1_665
O38 S16 1.486102 1_555
O38 Zn0 2.204534 1_555
O39 S13 1.486106 1_555
O39 Zn1 2.204534 1_555
O40 S14 1.486097 1_555
O40 Zn1 2.204534 1_565
O41 S12 1.486102 1_555
O41 Zn1 2.204534 1_665
O42 S6 1.498511 1_555
O42 Y0 2.238082 1_655
O43 S7 1.498520 1_555
O43 Y0 2.238082 1_555
O44 S8 1.498516 1_555
O44 Y0 2.238082 1_665
O45 S9 1.498520 1_555
O45 Y1 2.238082 1_665
O46 S10 1.498511 1_555
O46 Y1 2.238082 1_655
O47 S11 1.498516 1_555
O47 Y1 2.238082 1_555
O48 S5 1.486097 1_555
O48 Zn2 2.204534 1_555
O49 S3 1.486106 1_555
O49 Zn2 2.204534 1_555
O50 S4 1.486102 1_555
O50 Zn2 2.204534 1_555
O51 S1 1.486106 1_555
O51 Zn3 2.204534 1_555
O52 S2 1.486097 1_555
O52 Zn3 2.204534 1_555
O53 S0 1.486102 1_555
O53 Zn3 2.204534 1_555
O54 S12 1.498524 1_555
O54 Y2 2.238082 1_555
O55 S13 1.498506 1_655
O55 Y2 2.238082 1_555
O56 S14 1.498513 1_545
O56 Y2 2.238082 1_555
O57 S15 1.498506 1_545
O57 Y3 2.238082 1_555
O58 S16 1.498524 1_555
O58 Y3 2.238082 1_555
O59 S17 1.498513 1_655
O59 Y3 2.238082 1_555
O60 S11 1.486109 1_555
O60 Zn4 2.204534 1_555
O61 S9 1.486091 1_455
O61 Zn4 2.204534 1_555
O62 S10 1.486098 1_565
O62 Zn4 2.204534 1_555
O63 S7 1.486091 1_565
O63 Zn5 2.204534 1_555
O64 S8 1.486109 1_555
O64 Zn5 2.204534 1_555
O65 S6 1.486098 1_455
O65 Zn5 2.204534 1_555
O66 S0 1.498511 1_565
O66 Y4 2.238082 1_555
O67 S1 1.498520 1_555
O67 Y4 2.238082 1_555
O68 S2 1.498516 1_455
O68 Y4 2.238082 1_555
O69 S3 1.498520 1_555
O69 Y5 2.238082 1_555
O70 S4 1.498511 1_455
O70 Y5 2.238082 1_555
O71 S5 1.498516 1_565
O71 Y5 2.238082 1_555
