# generated using pymatgen
data_MgMn3CoO8
_symmetry_space_group_name_H-M   'P 1'
_cell_length_a   5.88965600
_cell_length_b   6.04536548
_cell_length_c   5.82500363
_cell_angle_alpha   118.75532446
_cell_angle_beta   120.32915763
_cell_angle_gamma   60.85002189
_symmetry_Int_Tables_number   1
_chemical_formula_structural   MgMn3CoO8
_chemical_formula_sum   'Mg1 Mn3 Co1 O8'
_cell_volume   148.54411062
_cell_formula_units_Z   1
loop_
 _symmetry_equiv_pos_site_id
 _symmetry_equiv_pos_as_xyz
  1  'x, y, z'
loop_
 _atom_site_type_symbol
 _atom_site_label
 _atom_site_symmetry_multiplicity
 _atom_site_fract_x
 _atom_site_fract_y
 _atom_site_fract_z
 _atom_site_occupancy
  Mg  Mg0  1  0.50000000  0.50000000  0.50000000  1
  Mn  Mn0  1  0.00000000  0.00000000  0.50000000  1
  Mn  Mn1  1  0.50000000  0.00000000  0.00000000  1
  Mn  Mn2  1  0.50000000  0.00000000  0.50000000  1
  Co  Co0  1  0.00000000  0.00000000  0.00000000  1
  O  O0  1  0.29170800  0.21087700  0.24956400  1
  O  O1  1  0.26645100  0.19704800  0.73010900  1
  O  O2  1  0.74747500  0.21035300  0.24888400  1
  O  O3  1  0.75763400  0.20229700  0.71771000  1
  O  O4  1  0.24236600  0.79770300  0.28229000  1
  O  O5  1  0.25252500  0.78964700  0.75111600  1
  O  O6  1  0.73354900  0.80295200  0.26989100  1
  O  O7  1  0.70829200  0.78912300  0.75043600  1
loop_
_geom_bond_atom_site_label_1
_geom_bond_atom_site_label_2
_geom_bond_distance
_geom_bond_site_symmetry_2
Mg0 O0 2.125161 1_555
Mg0 O7 2.125161 1_555
Mg0 O2 2.129010 1_555
Mg0 O5 2.129010 1_555
Mg0 O3 2.177572 1_555
Mg0 O4 2.177572 1_555
Mn0 O5 1.928425 1_545
Mn0 O2 1.928425 1_455
Mn0 O3 1.943411 1_455
Mn0 O4 1.943411 1_545
Mn0 O1 1.959313 1_555
Mn0 O6 1.959313 1_445
Mn1 O0 1.933358 1_555
Mn1 O7 1.933358 1_544
Mn1 O5 1.934203 1_544
Mn1 O2 1.934203 1_555
Mn1 O1 1.950446 1_554
Mn1 O6 1.950446 1_545
Mn2 O7 1.927844 1_545
Mn2 O0 1.927844 1_555
Mn2 O4 1.943838 1_545
Mn2 O3 1.943838 1_555
Mn2 O6 1.958887 1_545
Mn2 O1 1.958887 1_555
Co0 O4 2.025026 1_545
Co0 O3 2.025026 1_454
Co0 O2 2.119485 1_455
Co0 O5 2.119485 1_544
Co0 O0 2.125668 1_555
Co0 O7 2.125668 1_444
