# generated using pymatgen
data_Na8ZnSi5Ge3SO24
_symmetry_space_group_name_H-M   'P 1'
_cell_length_a   8.92815918
_cell_length_b   8.91564891
_cell_length_c   21.69352713
_cell_angle_alpha   91.47483411
_cell_angle_beta   90.17743978
_cell_angle_gamma   120.21405034
_symmetry_Int_Tables_number   1
_chemical_formula_structural   Na8ZnSi5Ge3SO24
_chemical_formula_sum   'Na24 Zn3 Si15 Ge9 S3 O72'
_cell_volume   1491.47523369
_cell_formula_units_Z   3
loop_
 _symmetry_equiv_pos_site_id
 _symmetry_equiv_pos_as_xyz
  1  'x, y, z'
loop_
 _atom_site_type_symbol
 _atom_site_label
 _atom_site_symmetry_multiplicity
 _atom_site_fract_x
 _atom_site_fract_y
 _atom_site_fract_z
 _atom_site_occupancy
  Na  Na0  1  0.64187546  0.01535205  0.24707232  1
  Na  Na1  1  0.36824418  0.36417698  0.24252240  1
  Na  Na2  1  0.99168158  0.62187825  0.24535786  1
  Na  Na3  1  0.62831189  0.61524870  0.74875124  1
  Na  Na4  1  0.98732854  0.36874581  0.75187190  1
  Na  Na5  1  0.38615405  0.01033727  0.74829967  1
  Na  Na6  1  0.30922346  0.33458896  0.58960543  1
  Na  Na7  1  0.03141730  0.70134910  0.58332834  1
  Na  Na8  1  0.66358563  0.97023178  0.59205134  1
  Na  Na9  1  0.30972212  0.97099882  0.08001168  1
  Na  Na10  1  0.66364975  0.69358778  0.07901067  1
  Na  Na11  1  0.03212473  0.34473992  0.07929093  1
  Na  Na12  1  0.96198256  0.66642681  0.91452848  1
  Na  Na13  1  0.70246233  0.03602254  0.91361745  1
  Na  Na14  1  0.33401419  0.29700292  0.91476119  1
  Na  Na15  1  0.96084159  0.28347155  0.41370018  1
  Na  Na16  1  0.31898497  0.03319930  0.41791706  1
  Na  Na17  1  0.71554195  0.68002129  0.41817762  1
  Na  Na18  1  0.00064417  0.99783724  0.49755799  1
  Na  Na19  1  0.00067700  0.00035442  0.99509226  1
  Na  Na20  1  0.66669002  0.33291458  0.82871127  1
  Na  Na21  1  0.67683629  0.33291673  0.33198363  1
  Na  Na22  1  0.33175034  0.66559778  0.16163267  1
  Na  Na23  1  0.34074532  0.67251248  0.66997558  1
  Zn  Zn0  1  0.99772019  0.00813260  0.35784061  1
  Zn  Zn1  1  0.64796910  0.32882824  0.68924389  1
  Zn  Zn2  1  0.67980989  0.33526546  0.17091359  1
  Si  Si0  1  0.00245153  0.29589379  0.25303239  1
  Si  Si1  1  0.27585853  0.28340199  0.75319084  1
  Si  Si2  1  0.00658294  0.71210145  0.75321381  1
  Si  Si3  1  0.71412928  0.99366438  0.75219548  1
  Si  Si4  1  0.37399744  0.04007052  0.58236543  1
  Si  Si5  1  0.66459911  0.62844094  0.58395376  1
  Si  Si6  1  0.96550724  0.63205169  0.08432954  1
  Si  Si7  1  0.66157660  0.03892170  0.08231174  1
  Si  Si8  1  0.38078171  0.34069012  0.08300523  1
  Si  Si9  1  0.61989826  0.66465466  0.91605730  1
  Si  Si10  1  0.04541612  0.38064492  0.91562010  1
  Si  Si11  1  0.33476423  0.95417178  0.91682641  1
  Si  Si12  1  0.61436038  0.95525909  0.41667043  1
  Si  Si13  1  0.33819009  0.38301144  0.41991616  1
  Si  Si14  1  0.03816613  0.65691718  0.42018892  1
  Ge  Ge0  1  0.99904414  0.99970894  0.85444200  1
  Ge  Ge1  1  0.00072433  0.98014416  0.65349847  1
  Ge  Ge2  1  0.00972144  0.02435113  0.13743708  1
  Ge  Ge3  1  0.66765443  0.33521284  0.97961152  1
  Ge  Ge4  1  0.65406844  0.33733546  0.47778825  1
  Ge  Ge5  1  0.33468460  0.66871205  0.01665794  1
  Ge  Ge6  1  0.34704594  0.68163041  0.51670806  1
  Ge  Ge7  1  0.31502534  0.64366959  0.32443560  1
  Ge  Ge8  1  0.33411070  0.66538810  0.81266874  1
  S  S0  1  0.28915658  0.99535250  0.25055991  1
  S  S1  1  0.70542832  0.71072994  0.25015099  1
  S  S2  1  0.95923277  0.33468759  0.58145551  1
  O  O0  1  0.20611083  0.01193421  0.30678912  1
  O  O1  1  0.81211851  0.79040590  0.30663893  1
  O  O2  1  0.97133524  0.17983082  0.31151196  1
  O  O3  1  0.18927050  0.16161720  0.81284282  1
  O  O4  1  0.96705068  0.80321170  0.81260512  1
  O  O5  1  0.83577411  0.02834739  0.81371519  1
  O  O6  1  0.80121192  0.95599549  0.68924644  1
  O  O7  1  0.15255067  0.19496436  0.68893653  1
  O  O8  1  0.04938885  0.83050246  0.69006804  1
  O  O9  1  0.78860870  0.81296081  0.19440623  1
  O  O10  1  0.04418916  0.20631694  0.18946355  1
  O  O11  1  0.18175252  0.97085148  0.19335769  1
  O  O12  1  0.88460214  0.36312945  0.63715288  1
  O  O13  1  0.49889126  0.10816794  0.64208117  1
  O  O14  1  0.61809644  0.51014353  0.64290723  1
  O  O15  1  0.90429986  0.52283658  0.14593733  1
  O  O16  1  0.61377468  0.09909667  0.14610723  1
  O  O17  1  0.48839095  0.37796587  0.14665528  1
  O  O18  1  0.46826606  0.29492922  0.02414124  1
  O  O19  1  0.82872311  0.54355988  0.02513243  1
  O  O20  1  0.70991332  0.17376076  0.02527880  1
  O  O21  1  0.46099898  0.16897548  0.52156224  1
  O  O22  1  0.71060012  0.54225778  0.52232506  1
  O  O23  1  0.84808531  0.30696661  0.52464373  1
  O  O24  1  0.53569270  0.70447894  0.97690043  1
  O  O25  1  0.17115754  0.46484000  0.97709053  1
  O  O26  1  0.29368217  0.83064025  0.97647506  1
  O  O27  1  0.53302952  0.83673055  0.47648690  1
  O  O28  1  0.29963345  0.47751214  0.47775100  1
  O  O29  1  0.16772436  0.69316947  0.47838491  1
  O  O30  1  0.11699866  0.61344410  0.35663919  1
  O  O31  1  0.48021136  0.86009190  0.35481725  1
  O  O32  1  0.38196538  0.50440168  0.35786922  1
  O  O33  1  0.12845007  0.50616887  0.85661501  1
  O  O34  1  0.37949888  0.86953891  0.85671309  1
  O  O35  1  0.49236280  0.62127592  0.85554876  1
  O  O36  1  0.01869936  0.82569799  0.41456190  1
  O  O37  1  0.80288068  0.97511452  0.41476227  1
  O  O38  1  0.17388128  0.19097330  0.41789762  1
  O  O39  1  0.02560466  0.18541944  0.91281839  1
  O  O40  1  0.16192760  0.97689193  0.91266149  1
  O  O41  1  0.81473074  0.83975153  0.91285875  1
  O  O42  1  0.97624795  0.17779232  0.58161759  1
  O  O43  1  0.18022791  0.02427167  0.58771802  1
  O  O44  1  0.84438342  0.82567426  0.58791646  1
  O  O45  1  0.98146848  0.82846067  0.09272359  1
  O  O46  1  0.83907660  0.01934123  0.08763113  1
  O  O47  1  0.18413648  0.15949849  0.08489368  1
  O  O48  1  0.69579192  0.16341826  0.74944443  1
  O  O49  1  0.46605467  0.30609060  0.75204336  1
  O  O50  1  0.83827058  0.52226465  0.74747827  1
  O  O51  1  0.67855913  0.53188168  0.24676730  1
  O  O52  1  0.83771497  0.32385697  0.24718991  1
  O  O53  1  0.46288555  0.15391855  0.24876720  1
  O  O54  1  0.63868990  0.48961244  0.92238668  1
  O  O55  1  0.85119666  0.36073703  0.92332328  1
  O  O56  1  0.51156017  0.14909957  0.92333510  1
  O  O57  1  0.62843080  0.14752465  0.42216658  1
  O  O58  1  0.51805171  0.37291573  0.42120366  1
  O  O59  1  0.84840858  0.47616540  0.42456264  1
  O  O60  1  0.35233362  0.50740493  0.07538070  1
  O  O61  1  0.15851801  0.65632020  0.07410603  1
  O  O62  1  0.49272281  0.84298959  0.07355908  1
  O  O63  1  0.34393704  0.83895560  0.57475754  1
  O  O64  1  0.49133702  0.65147150  0.57479785  1
  O  O65  1  0.13630605  0.49226380  0.57751144  1
  O  O66  1  0.30575037  0.83647201  0.25037177  1
  O  O67  1  0.53307998  0.70192421  0.25286063  1
  O  O68  1  0.19266047  0.49409812  0.25660005  1
  O  O69  1  0.28807095  0.47535826  0.75513796  1
  O  O70  1  0.18706676  0.70384231  0.75699401  1
  O  O71  1  0.52276108  0.81294761  0.75527721  1
loop_
_geom_bond_atom_site_label_1
_geom_bond_atom_site_label_2
_geom_bond_distance
_geom_bond_site_symmetry_2
Na0 O16 2.384762 1_555
Na0 O52 2.404549 1_555
Na0 O67 2.460682 1_545
Na0 O53 2.463004 1_555
Na0 O66 2.597056 1_545
Na0 O31 2.763925 1_545
Na0 O2 2.878283 1_555
Na0 O9 2.925745 1_545
Na1 O17 2.320596 1_555
Na1 O68 2.388478 1_555
Na1 O51 2.396256 1_555
Na1 O53 2.419298 1_555
Na1 O67 2.605121 1_555
Na1 O10 2.733879 1_555
Na1 O32 2.742684 1_555
Na2 O15 2.288728 1_555
Na2 O52 2.298003 1_555
Na2 O66 2.474458 1_655
Na2 O51 2.490848 1_555
Na2 O68 2.578013 1_655
Na2 O30 2.676299 1_655
Na3 O71 2.382159 1_555
Na3 O49 2.386024 1_555
Na3 O50 2.401073 1_555
Na3 O14 2.441429 1_555
Na3 O35 2.630670 1_555
Na3 O69 2.645909 1_555
Na3 O4 2.937220 1_555
Na3 O6 2.961898 1_555
Na4 O48 2.308129 1_555
Na4 O50 2.343663 1_555
Na4 O69 2.354736 1_655
Na4 O33 2.556759 1_655
Na4 O70 2.595713 1_655
Na4 O12 2.640140 1_555
Na5 O49 2.358772 1_555
Na5 O48 2.388764 1_555
Na5 O70 2.408773 1_545
Na5 O13 2.513503 1_555
Na5 O71 2.603921 1_545
Na5 O34 2.681117 1_545
Na5 O8 2.868276 1_545
Na6 O43 2.401980 1_555
Na6 O64 2.480994 1_555
Na6 O7 2.560045 1_555
Na6 O42 2.573665 1_455
Na6 O65 2.574732 1_555
Na6 O14 2.633344 1_555
Na6 O28 2.790470 1_555
Na6 O21 2.847677 1_555
Na7 O44 2.425957 1_455
Na7 O63 2.427907 1_555
Na7 O65 2.472543 1_555
Na7 O43 2.489681 1_565
Na7 O8 2.527445 1_555
Na7 O29 2.601375 1_555
Na7 O22 2.785380 1_455
Na7 O12 2.896040 1_455
Na8 O42 2.468704 1_565
Na8 O64 2.474816 1_555
Na8 O6 2.475161 1_555
Na8 O63 2.502833 1_555
Na8 O44 2.522604 1_555
Na8 O13 2.571694 1_565
Na8 O27 2.737220 1_555
Na9 O62 2.421068 1_555
Na9 O61 2.424570 1_555
Na9 O47 2.445596 1_565
Na9 O26 2.510834 1_554
Na9 O45 2.560198 1_455
Na9 O11 2.714315 1_555
Na9 O16 2.738742 1_565
Na9 O18 2.808885 1_565
Na10 O60 2.415664 1_555
Na10 O45 2.475538 1_555
Na10 O62 2.483945 1_555
Na10 O46 2.512976 1_565
Na10 O24 2.515632 1_554
Na10 O19 2.691032 1_555
Na10 O9 2.700850 1_555
Na10 O17 2.883653 1_555
Na11 O61 2.421743 1_555
Na11 O60 2.473569 1_555
Na11 O25 2.530686 1_554
Na11 O46 2.533052 1_455
Na11 O47 2.617172 1_555
Na11 O20 2.728724 1_455
Na11 O10 2.744261 1_555
Na11 O15 2.762226 1_455
Na12 O55 2.399465 1_555
Na12 O40 2.425530 1_655
Na12 O41 2.482938 1_555
Na12 O54 2.506550 1_555
Na12 O4 2.542054 1_555
Na12 O19 2.685858 1_556
Na12 O33 2.808072 1_655
Na12 O26 2.868788 1_655
Na13 O56 2.384640 1_555
Na13 O41 2.414751 1_545
Na13 O5 2.491694 1_555
Na13 O39 2.496375 1_655
Na13 O55 2.507314 1_555
Na13 O20 2.672790 1_556
Na13 O34 2.759974 1_545
Na13 O24 2.937858 1_545
Na14 O54 2.378424 1_555
Na14 O39 2.411121 1_555
Na14 O40 2.467297 1_545
Na14 O3 2.508059 1_555
Na14 O56 2.529972 1_555
Na14 O18 2.659765 1_556
Na14 O35 2.845325 1_555
Na14 O25 2.877397 1_555
Na15 O37 2.376719 1_545
Na15 O59 2.393951 1_555
Na15 O2 2.399974 1_555
Na15 O38 2.426461 1_655
Na15 O57 2.589435 1_555
Na15 O23 2.655393 1_555
Na15 O30 2.863735 1_655
Na15 O28 2.942183 1_655
Na16 O38 2.343325 1_555
Na16 O36 2.369707 1_545
Na16 O57 2.416552 1_555
Na16 O21 2.534937 1_555
Na16 O0 2.575344 1_555
Na16 O58 2.628249 1_555
Na16 O31 2.909844 1_545
Na16 O29 2.971556 1_545
Na17 O37 2.341156 1_555
Na17 O36 2.342515 1_655
Na17 O58 2.400237 1_555
Na17 O22 2.589212 1_555
Na17 O1 2.616917 1_555
Na17 O59 2.628997 1_555
Na17 O32 2.865340 1_555
Na17 O27 2.901825 1_555
Na18 O36 2.394090 1_555
Na18 O38 2.415140 1_565
Na18 O37 2.446694 1_455
Na18 O43 2.455262 1_565
Na18 O42 2.480021 1_465
Na18 O44 2.482201 1_455
Na19 O41 2.333770 1_445
Na19 O40 2.369370 1_545
Na19 O39 2.396239 1_555
Na19 O47 2.447470 1_556
Na19 O46 2.527173 1_456
Na19 O45 2.601673 1_446
Na20 O49 2.358410 1_555
Na20 O48 2.360566 1_555
Na20 O50 2.422631 1_555
Na20 O54 2.520402 1_555
Na20 O55 2.555261 1_555
Na20 O56 2.593072 1_555
Na21 O52 2.361944 1_555
Na21 O59 2.427144 1_555
Na21 O57 2.489781 1_555
Na21 O53 2.493354 1_555
Na21 O58 2.524551 1_555
Na21 O51 2.589587 1_555
Na22 O60 2.377220 1_555
Na22 O61 2.418516 1_555
Na22 O62 2.470264 1_555
Na22 O66 2.507669 1_555
Na22 O68 2.528107 1_555
Na22 O67 2.571307 1_555
Na23 O71 2.333903 1_555
Na23 O70 2.428738 1_555
Na23 O69 2.462639 1_555
Na23 O64 2.521339 1_555
Na23 O63 2.566178 1_555
Na23 O65 2.607077 1_555
Ge0 O5 1.830002 1_565
Ge0 O4 1.840478 1_555
Ge0 O3 1.841648 1_665
Ge0 O39 1.973943 1_665
Ge0 O40 2.012699 1_655
Ge0 O41 2.022795 1_555
Ge1 O8 1.798295 1_555
Ge1 O7 1.844311 1_565
Ge1 O6 1.857920 1_455
Ge1 O44 1.954788 1_455
Ge1 O43 2.041582 1_565
Ge2 O47 1.835550 1_555
Ge2 O10 1.844353 1_555
Ge2 O46 1.846461 1_455
Ge2 O45 1.876867 1_445
Ge2 O11 2.194039 1_545
Ge2 O9 2.316662 1_445
Ge3 O18 1.901629 1_556
Ge3 O19 1.924035 1_556
Ge3 O56 1.934877 1_555
Ge3 O20 1.952824 1_556
Ge3 O55 1.969656 1_555
Ge3 O54 1.986752 1_555
Ge4 O58 1.865657 1_555
Ge4 O22 1.871955 1_555
Ge4 O21 1.898836 1_555
Ge4 O59 1.949435 1_555
Ge4 O57 1.968629 1_555
Ge4 O23 2.140647 1_555
Ge5 O25 1.847493 1_554
Ge5 O24 1.874575 1_554
Ge5 O26 1.890203 1_554
Ge5 O62 1.900739 1_555
Ge5 O61 1.970665 1_555
Ge5 O60 2.009254 1_555
Ge6 O27 1.786288 1_555
Ge6 O28 1.829900 1_555
Ge6 O29 1.851195 1_555
Ge6 O63 1.871503 1_555
Ge6 O64 1.917277 1_555
Ge6 O65 2.250174 1_555
Ge7 O32 1.793186 1_555
Ge7 O30 1.795652 1_555
Ge7 O31 1.843098 1_555
Ge7 O68 1.886838 1_555
Ge7 O67 2.348056 1_555
Ge7 O66 2.414081 1_555
Ge8 O34 1.885678 1_555
Ge8 O35 1.893734 1_555
Ge8 O33 1.937172 1_555
Ge8 O70 1.940182 1_555
Ge8 O69 1.945273 1_555
Ge8 O71 1.996212 1_555
O0 S0 1.471793 1_545
O0 Zn0 2.154189 1_455
O1 S1 1.476670 1_555
O1 Zn0 2.094747 1_565
O2 Si0 1.593043 1_655
O2 Zn0 1.962041 1_555
O3 Si1 1.638561 1_555
O4 Si2 1.637654 1_655
O5 Si3 1.639521 1_545
O6 Si3 1.681628 1_555
O7 Si1 1.684320 1_555
O8 Si2 1.675868 1_555
O9 S1 1.491884 1_555
O10 Si0 1.710096 1_555
O11 S0 1.508302 1_555
O12 S2 1.458584 1_555
O12 Zn1 2.283922 1_555
O13 Si4 1.599802 1_555
O13 Zn1 1.985256 1_555
O14 Si5 1.597614 1_555
O14 Zn1 2.051999 1_555
O15 Si6 1.602790 1_555
O15 Zn2 1.946092 1_555
O16 Si7 1.606604 1_555
O16 Zn2 1.939333 1_555
O17 Si8 1.608381 1_555
O17 Zn2 2.000548 1_555
O18 Si8 1.645377 1_555
O19 Si6 1.652701 1_555
O20 Si7 1.649230 1_555
O21 Si4 1.688176 1_555
O22 Si5 1.677689 1_555
O23 S2 1.514812 1_555
O24 Si9 1.638321 1_555
O25 Si10 1.641064 1_555
O26 Si11 1.640630 1_555
O27 Si12 1.622335 1_555
O28 Si13 1.625627 1_555
O29 Si14 1.621720 1_555
O30 Si14 1.673097 1_555
O31 Si12 1.692194 1_555
O32 Si13 1.669835 1_555
O33 Si10 1.638629 1_555
O34 Si11 1.638708 1_555
O35 Si9 1.640286 1_555
O36 Si14 1.606877 1_555
O36 Zn0 2.145455 1_465
O37 Si12 1.602166 1_555
O37 Zn0 2.038173 1_565
O38 Si13 1.597876 1_555
O38 Zn0 2.031254 1_455
O39 Si10 1.658060 1_555
O40 Si11 1.656826 1_555
O41 Si9 1.655578 1_555
O42 S2 1.481189 1_555
O43 Si4 1.668253 1_555
O44 Si5 1.681250 1_555
O45 Si6 1.688827 1_555
O46 Si7 1.683320 1_555
O47 Si8 1.686138 1_555
O48 Si3 1.604655 1_545
O48 Zn1 2.189090 1_555
O49 Si1 1.606203 1_555
O49 Zn1 2.057064 1_555
O50 Si2 1.602013 1_655
O50 Zn1 2.093419 1_555
O51 S1 1.488084 1_555
O51 Zn2 2.377417 1_555
O52 Si0 1.615853 1_655
O52 Zn2 2.207819 1_555
O53 S0 1.483982 1_545
O53 Zn2 2.495343 1_555
O54 Si9 1.660401 1_555
O55 Si10 1.661270 1_655
O56 Si11 1.660373 1_545
O57 Si12 1.655608 1_545
O58 Si13 1.653151 1_555
O59 Si14 1.654469 1_655
O60 Si8 1.641196 1_555
O61 Si6 1.641676 1_455
O62 Si7 1.640409 1_565
O63 Si4 1.677653 1_565
O64 Si5 1.671654 1_555
O65 S2 1.500677 1_455
O66 S0 1.496471 1_555
O67 S1 1.502196 1_555
O68 Si0 1.727552 1_555
O69 Si1 1.658630 1_555
O70 Si2 1.651555 1_555
O71 Si3 1.659898 1_555
