# generated using pymatgen
data_Na2LaNb3Si4(SO12)2
_symmetry_space_group_name_H-M   'P 1'
_cell_length_a   9.03114116
_cell_length_b   9.08504130
_cell_length_c   23.24539959
_cell_angle_alpha   90.93074576
_cell_angle_beta   90.04400856
_cell_angle_gamma   119.87113526
_symmetry_Int_Tables_number   1
_chemical_formula_structural   Na2LaNb3Si4(SO12)2
_chemical_formula_sum   'Na6 La3 Nb9 Si12 S6 O72'
_cell_volume   1653.55898454
_cell_formula_units_Z   3
loop_
 _symmetry_equiv_pos_site_id
 _symmetry_equiv_pos_as_xyz
  1  'x, y, z'
loop_
 _atom_site_type_symbol
 _atom_site_label
 _atom_site_symmetry_multiplicity
 _atom_site_fract_x
 _atom_site_fract_y
 _atom_site_fract_z
 _atom_site_occupancy
  Na  Na0  1  0.98154998  0.97257555  0.50134282  1
  Na  Na1  1  0.99406387  0.98862248  0.99961884  1
  Na  Na2  1  0.64643748  0.30526262  0.83748305  1
  Na  Na3  1  0.66848725  0.31174611  0.32730561  1
  Na  Na4  1  0.31724366  0.64375862  0.15792666  1
  Na  Na5  1  0.36354610  0.66224861  0.66954056  1
  La  La0  1  0.65457685  0.32953958  0.69748370  1
  La  La1  1  0.67550140  0.33875584  0.18452639  1
  La  La2  1  0.34965655  0.67953613  0.51263065  1
  Nb  Nb0  1  0.99944012  0.00391708  0.35092292  1
  Nb  Nb1  1  0.00302966  0.01434546  0.86221824  1
  Nb  Nb2  1  0.98422886  0.99491773  0.65113776  1
  Nb  Nb3  1  0.02802956  0.01747886  0.14152539  1
  Nb  Nb4  1  0.66283100  0.34829004  0.97666657  1
  Nb  Nb5  1  0.67853569  0.34408937  0.47726963  1
  Nb  Nb6  1  0.32385273  0.66267120  0.01413030  1
  Nb  Nb7  1  0.31728164  0.67984985  0.31036147  1
  Nb  Nb8  1  0.34120959  0.66296011  0.81520725  1
  Si  Si0  1  0.28566638  0.99776622  0.25019151  1
  Si  Si1  1  0.01611355  0.29463166  0.25074930  1
  Si  Si2  1  0.26998009  0.29156173  0.75551427  1
  Si  Si3  1  0.70312031  0.98143253  0.75813295  1
  Si  Si4  1  0.67770811  0.63282473  0.58670266  1
  Si  Si5  1  0.96691360  0.63318163  0.08268295  1
  Si  Si6  1  0.37844108  0.34844189  0.08147574  1
  Si  Si7  1  0.62571081  0.67155964  0.91714697  1
  Si  Si8  1  0.03619567  0.38471605  0.91371119  1
  Si  Si9  1  0.33988023  0.95788946  0.91500546  1
  Si  Si10  1  0.63339940  0.96922902  0.41433131  1
  Si  Si11  1  0.03190854  0.67417979  0.41563747  1
  S  S0  1  0.70337808  0.72557993  0.25130163  1
  S  S1  1  0.02507078  0.73634756  0.75362027  1
  S  S2  1  0.95049448  0.31318256  0.58178508  1
  S  S3  1  0.35771040  0.04879914  0.58075772  1
  S  S4  1  0.66943030  0.02899687  0.07917801  1
  S  S5  1  0.33879490  0.35925582  0.41373008  1
  O  O0  1  0.16272981  0.98021563  0.30384701  1
  O  O1  1  0.79903169  0.82140276  0.30453117  1
  O  O2  1  0.01725831  0.18096236  0.30458712  1
  O  O3  1  0.16187370  0.17674517  0.81021889  1
  O  O4  1  0.02019178  0.82761916  0.80527366  1
  O  O5  1  0.81559611  0.97458069  0.81148998  1
  O  O6  1  0.80100850  0.96901497  0.69552541  1
  O  O7  1  0.16227377  0.18364377  0.69511121  1
  O  O8  1  0.02284318  0.82833507  0.69908533  1
  O  O9  1  0.78858034  0.81824455  0.19917764  1
  O  O10  1  0.02202746  0.19063212  0.19150908  1
  O  O11  1  0.18006783  0.98423121  0.18940058  1
  O  O12  1  0.87145620  0.33123492  0.63374725  1
  O  O13  1  0.45477436  0.12229830  0.63414727  1
  O  O14  1  0.67321372  0.53074552  0.64186424  1
  O  O15  1  0.91692068  0.52980666  0.14071668  1
  O  O16  1  0.63636352  0.08979620  0.13390976  1
  O  O17  1  0.47622318  0.38398424  0.14104971  1
  O  O18  1  0.47496435  0.31038846  0.02725137  1
  O  O19  1  0.83149586  0.52190828  0.02876929  1
  O  O20  1  0.69343971  0.14145266  0.03065721  1
  O  O21  1  0.45625075  0.14640563  0.52941792  1
  O  O22  1  0.68569716  0.51833687  0.52749383  1
  O  O23  1  0.84506531  0.30136546  0.52866875  1
  O  O24  1  0.52742259  0.69622699  0.97093112  1
  O  O25  1  0.15991709  0.47522850  0.96966209  1
  O  O26  1  0.31204221  0.83668002  0.96931522  1
  O  O27  1  0.59305723  0.86549463  0.47233558  1
  O  O28  1  0.29823341  0.41236525  0.46891231  1
  O  O29  1  0.13755358  0.71645308  0.47373075  1
  O  O30  1  0.13197963  0.63698991  0.36061731  1
  O  O31  1  0.49161364  0.85563410  0.36213378  1
  O  O32  1  0.36212733  0.47137846  0.36624981  1
  O  O33  1  0.13373344  0.50231565  0.85820892  1
  O  O34  1  0.36557826  0.86235992  0.85755546  1
  O  O35  1  0.50298275  0.63406866  0.85873812  1
  O  O36  1  0.98276568  0.81987869  0.40205537  1
  O  O37  1  0.82969366  0.02335286  0.39723692  1
  O  O38  1  0.19972187  0.17951554  0.40380630  1
  O  O39  1  0.01517330  0.19279227  0.91134114  1
  O  O40  1  0.17184335  0.98215880  0.90780891  1
  O  O41  1  0.81884058  0.83117768  0.91234502  1
  O  O42  1  0.95147869  0.14720875  0.58316878  1
  O  O43  1  0.19388920  0.05257580  0.58250695  1
  O  O44  1  0.86228594  0.82012419  0.59072107  1
  O  O45  1  0.96978150  0.81765646  0.09126102  1
  O  O46  1  0.82847190  0.01564636  0.08470864  1
  O  O47  1  0.18600252  0.16752936  0.08742255  1
  O  O48  1  0.70054410  0.15514991  0.75989725  1
  O  O49  1  0.45721220  0.31485826  0.76114242  1
  O  O50  1  0.87542108  0.56624556  0.75355106  1
  O  O51  1  0.68862740  0.55768122  0.25470123  1
  O  O52  1  0.85467411  0.32035416  0.25483745  1
  O  O53  1  0.46932073  0.15981866  0.25451623  1
  O  O54  1  0.63727015  0.49661794  0.92463006  1
  O  O55  1  0.84787434  0.36048160  0.92405205  1
  O  O56  1  0.50837448  0.14520277  0.92654341  1
  O  O57  1  0.63489322  0.15067561  0.42616400  1
  O  O58  1  0.49990220  0.34950345  0.42021524  1
  O  O59  1  0.84661788  0.49032005  0.42468747  1
  O  O60  1  0.33913850  0.50170236  0.06845738  1
  O  O61  1  0.16259303  0.67780346  0.06710858  1
  O  O62  1  0.52218388  0.85467901  0.07015764  1
  O  O63  1  0.32001023  0.87097415  0.57777473  1
  O  O64  1  0.51940662  0.66667800  0.58373828  1
  O  O65  1  0.12470736  0.45444207  0.57632906  1
  O  O66  1  0.29475190  0.81697398  0.25469266  1
  O  O67  1  0.53070792  0.71001411  0.25477287  1
  O  O68  1  0.19693610  0.47931951  0.26013943  1
  O  O69  1  0.27344920  0.47438261  0.75566776  1
  O  O70  1  0.18501220  0.72939698  0.75052078  1
  O  O71  1  0.51541583  0.80842050  0.75652708  1
loop_
_geom_bond_atom_site_label_1
_geom_bond_atom_site_label_2
_geom_bond_distance
_geom_bond_site_symmetry_2
Na0 O44 2.450698 1_555
Na0 O43 2.515324 1_665
Na0 O42 2.557487 1_565
Na0 O36 2.676294 1_555
Na0 O37 2.934507 1_565
Na0 O38 3.002138 1_665
Na1 O41 2.512364 1_555
Na1 O46 2.561937 1_566
Na1 O45 2.601451 1_556
Na1 O47 2.625400 1_666
Na1 O40 2.689049 1_655
Na1 O39 2.731281 1_665
Na2 O48 2.436510 1_555
Na2 O49 2.495169 1_555
Na2 O56 2.500168 1_555
Na2 O55 2.581309 1_555
Na2 O54 2.676207 1_555
Na2 O50 2.996205 1_555
Na3 O53 2.334487 1_555
Na3 O52 2.355599 1_555
Na3 O57 2.679980 1_555
Na3 O51 2.755335 1_555
Na3 O58 2.757051 1_555
Na3 O59 2.760365 1_555
Na4 O60 2.489518 1_555
Na4 O61 2.636304 1_555
Na4 O68 2.749555 1_555
Na4 O66 2.789524 1_555
Na4 O62 2.803580 1_555
Na4 O67 2.817850 1_555
Na5 O71 2.414028 1_555
Na5 O64 2.431360 1_555
Na5 O69 2.512678 1_555
Na5 O70 2.731759 1_555
Na5 O65 2.952150 1_555
Na5 O63 3.028782 1_555
La0 O14 2.193629 1_555
La0 O49 2.271171 1_555
La0 O13 2.343129 1_555
La0 O48 2.348674 1_555
La0 O50 2.435921 1_555
La0 O12 2.450886 1_555
La1 O15 2.257138 1_555
La1 O17 2.275191 1_555
La1 O52 2.364715 1_555
La1 O16 2.396178 1_555
La1 O53 2.415003 1_555
La1 O51 2.508057 1_555
La2 O27 2.217867 1_555
La2 O29 2.290535 1_555
La2 O64 2.297124 1_555
La2 O63 2.401789 1_555
La2 O28 2.436455 1_555
La2 O65 2.542896 1_555
Nb0 O2 1.889950 1_655
Nb0 O0 1.931244 1_645
Nb0 O37 1.950978 1_555
Nb0 O36 2.011229 1_545
Nb0 O1 2.034131 1_545
Nb0 O38 2.094378 1_655
Nb1 O3 1.910007 1_555
Nb1 O39 1.925295 1_555
Nb1 O5 1.939159 1_445
Nb1 O40 1.996155 1_545
Nb1 O41 2.050024 1_445
Nb1 O4 2.200750 1_545
Nb2 O6 1.865647 1_555
Nb2 O7 1.940224 1_665
Nb2 O44 1.972333 1_555
Nb2 O8 2.057714 1_655
Nb2 O42 2.230687 1_565
Nb2 O43 2.334219 1_665
Nb3 O47 1.896469 1_555
Nb3 O11 1.907036 1_545
Nb3 O10 1.962968 1_555
Nb3 O45 1.979006 1_445
Nb3 O46 2.226744 1_455
Nb3 O9 2.435770 1_445
Nb4 O54 1.922178 1_555
Nb4 O18 1.952978 1_556
Nb4 O19 1.953694 1_556
Nb4 O56 2.017810 1_555
Nb4 O55 2.030769 1_555
Nb4 O20 2.403362 1_556
Nb5 O59 1.900002 1_555
Nb5 O22 1.926418 1_555
Nb5 O57 1.973794 1_555
Nb5 O23 2.105671 1_555
Nb5 O58 2.107572 1_555
Nb5 O21 2.282123 1_555
Nb6 O25 1.894590 1_554
Nb6 O26 1.953734 1_554
Nb6 O61 1.962949 1_555
Nb6 O24 1.983881 1_554
Nb6 O60 2.003328 1_555
Nb6 O62 2.181205 1_555
Nb7 O66 1.890072 1_555
Nb7 O30 1.919793 1_555
Nb7 O68 1.954434 1_555
Nb7 O31 1.976778 1_555
Nb7 O67 2.224678 1_555
Nb7 O32 2.506422 1_555
Nb8 O35 1.901493 1_555
Nb8 O34 1.960566 1_555
Nb8 O33 1.991584 1_555
Nb8 O71 2.018187 1_555
Nb8 O69 2.025463 1_555
Nb8 O70 2.342982 1_555
O0 Si0 1.626641 1_555
O1 S0 1.499798 1_555
O2 Si1 1.638708 1_555
O3 Si2 1.639784 1_555
O4 S1 1.461282 1_555
O5 Si3 1.624072 1_555
O6 Si3 1.734431 1_555
O7 Si2 1.697680 1_555
O8 S1 1.535243 1_555
O9 S0 1.469083 1_555
O10 Si1 1.673316 1_555
O11 Si0 1.672414 1_555
O12 S2 1.451515 1_555
O13 S3 1.463859 1_555
O14 Si4 1.583381 1_555
O15 Si5 1.589166 1_555
O16 S4 1.467991 1_555
O17 Si6 1.581577 1_555
O18 Si6 1.660093 1_555
O19 Si5 1.677268 1_555
O20 S4 1.476512 1_555
O21 S3 1.500830 1_555
O22 Si4 1.734866 1_555
O23 S2 1.527967 1_555
O24 Si7 1.609967 1_555
O25 Si8 1.632182 1_555
O26 Si9 1.624653 1_555
O27 Si10 1.593403 1_555
O28 S5 1.472777 1_555
O29 Si11 1.580366 1_555
O30 Si11 1.690735 1_555
O31 Si10 1.678549 1_555
O32 S5 1.457137 1_555
O33 Si8 1.640436 1_555
O34 Si9 1.659511 1_555
O35 Si7 1.671697 1_555
O36 Si11 1.627060 1_655
O37 Si10 1.637528 1_545
O38 S5 1.497193 1_555
O39 Si8 1.657244 1_555
O40 Si9 1.647335 1_555
O41 Si7 1.625928 1_555
O42 S2 1.513188 1_555
O43 S3 1.497445 1_555
O44 Si4 1.688816 1_555
O45 Si5 1.671878 1_555
O46 S4 1.505998 1_555
O47 Si6 1.703927 1_555
O48 Si3 1.589813 1_545
O49 Si2 1.601060 1_555
O50 S1 1.460906 1_655
O51 S0 1.467057 1_555
O52 Si1 1.590042 1_655
O53 Si0 1.578347 1_545
O54 Si7 1.655724 1_555
O55 Si8 1.621166 1_655
O56 Si9 1.639676 1_545
O57 Si10 1.660222 1_545
O58 S5 1.508661 1_555
O59 Si11 1.691833 1_655
O60 Si6 1.631594 1_555
O61 Si5 1.646380 1_455
O62 S4 1.487079 1_565
O63 S3 1.476191 1_565
O64 Si4 1.606780 1_555
O65 S2 1.460408 1_455
O66 Si0 1.689769 1_555
O67 S0 1.496383 1_555
O68 Si1 1.669717 1_555
O69 Si2 1.645501 1_555
O70 S1 1.478679 1_555
O71 Si3 1.639977 1_555
