# generated using pymatgen
data_Na14Mg5Sn3(PO4)12
_symmetry_space_group_name_H-M   'P 1'
_cell_length_a   17.97977139
_cell_length_b   8.98761342
_cell_length_c   22.11366004
_cell_angle_alpha   90.08630970
_cell_angle_beta   89.90937699
_cell_angle_gamma   120.08222386
_symmetry_Int_Tables_number   1
_chemical_formula_structural   Na14Mg5Sn3(PO4)12
_chemical_formula_sum   'Na42 Mg15 Sn9 P36 O144'
_cell_volume   3092.13674023
_cell_formula_units_Z   3
loop_
 _symmetry_equiv_pos_site_id
 _symmetry_equiv_pos_as_xyz
  1  'x, y, z'
loop_
 _atom_site_type_symbol
 _atom_site_label
 _atom_site_symmetry_multiplicity
 _atom_site_fract_x
 _atom_site_fract_y
 _atom_site_fract_z
 _atom_site_occupancy
  Na  Na0  1  0.18472398  0.36049645  0.24743951  1
  Na  Na1  1  0.68548985  0.36226328  0.24804492  1
  Na  Na2  1  0.99401495  0.62916924  0.24836104  1
  Na  Na3  1  0.49418217  0.62825807  0.24722338  1
  Na  Na4  1  0.31919939  0.62941044  0.74722744  1
  Na  Na5  1  0.81973444  0.63042045  0.74729868  1
  Na  Na6  1  0.18548954  0.01218442  0.74721367  1
  Na  Na7  1  0.68576630  0.01154405  0.74680428  1
  Na  Na8  1  0.15532076  0.34345429  0.57891275  1
  Na  Na9  1  0.65557133  0.34390119  0.57883806  1
  Na  Na10  1  0.01564411  0.68753706  0.57924179  1
  Na  Na11  1  0.51569746  0.68730880  0.57918426  1
  Na  Na12  1  0.32798496  0.96804344  0.57842089  1
  Na  Na13  1  0.82811616  0.96786467  0.57876269  1
  Na  Na14  1  0.15612782  0.96995467  0.07928315  1
  Na  Na15  1  0.65312863  0.96317821  0.08171145  1
  Na  Na16  1  0.32797877  0.68778986  0.07923784  1
  Na  Na17  1  0.01867047  0.34429057  0.08088872  1
  Na  Na18  1  0.51573099  0.34469152  0.07839599  1
  Na  Na19  1  0.48123362  0.66480621  0.91849991  1
  Na  Na20  1  0.98718809  0.67774387  0.91455084  1
  Na  Na21  1  0.35150744  0.03747963  0.91850051  1
  Na  Na22  1  0.16751728  0.29459571  0.91878941  1
  Na  Na23  1  0.66242515  0.30005933  0.91478468  1
  Na  Na24  1  0.48155685  0.29724170  0.41875382  1
  Na  Na25  1  0.98153557  0.29702954  0.41860576  1
  Na  Na26  1  0.16733552  0.03685543  0.41861378  1
  Na  Na27  1  0.66749464  0.03683865  0.41875757  1
  Na  Na28  1  0.35131940  0.66529799  0.41900077  1
  Na  Na29  1  0.85147531  0.66560406  0.41867761  1
  Na  Na30  1  0.99976797  0.00034904  0.49542311  1
  Na  Na31  1  0.49983306  0.00043855  0.49539338  1
  Na  Na32  1  0.98879206  0.99185949  0.99490651  1
  Na  Na33  1  0.49893207  0.99959151  0.99554612  1
  Na  Na34  1  0.33959975  0.33406510  0.83186827  1
  Na  Na35  1  0.84072202  0.32508039  0.82819930  1
  Na  Na36  1  0.33267458  0.32035913  0.33215984  1
  Na  Na37  1  0.83311998  0.32115765  0.33242842  1
  Na  Na38  1  0.17235009  0.67813623  0.16334129  1
  Na  Na39  1  0.67802712  0.67900295  0.16116266  1
  Na  Na40  1  0.16096453  0.65647696  0.66260310  1
  Na  Na41  1  0.66127742  0.65683514  0.66285141  1
  Mg  Mg0  1  0.99927273  0.00061788  0.35060551  1
  Mg  Mg1  1  0.49937081  0.00076139  0.35079476  1
  Mg  Mg2  1  0.99673970  0.00198553  0.85206692  1
  Mg  Mg3  1  0.49937045  0.00077979  0.85059997  1
  Mg  Mg4  1  0.33686315  0.33418225  0.68365097  1
  Mg  Mg5  1  0.83687928  0.33417323  0.68332124  1
  Mg  Mg6  1  0.33270451  0.32614531  0.18368531  1
  Mg  Mg7  1  0.83298027  0.32735880  0.18543332  1
  Mg  Mg8  1  0.33321173  0.33249463  0.98475395  1
  Mg  Mg9  1  0.33372162  0.33324370  0.48460692  1
  Mg  Mg10  1  0.83380822  0.33339447  0.48459527  1
  Mg  Mg11  1  0.16674491  0.66699026  0.01700775  1
  Mg  Mg12  1  0.67069207  0.66804601  0.01817038  1
  Mg  Mg13  1  0.16670152  0.66686594  0.51674688  1
  Mg  Mg14  1  0.66676604  0.66688889  0.51676130  1
  Sn  Sn0  1  0.99945377  0.00236916  0.65213935  1
  Sn  Sn1  1  0.49990967  0.00237008  0.65206401  1
  Sn  Sn2  1  0.99622767  0.99539765  0.15071112  1
  Sn  Sn3  1  0.49883901  0.00020390  0.15185171  1
  Sn  Sn4  1  0.83345166  0.33033127  0.98411459  1
  Sn  Sn5  1  0.16869614  0.67151166  0.31677375  1
  Sn  Sn6  1  0.66895216  0.67174724  0.31690625  1
  Sn  Sn7  1  0.16350308  0.66156688  0.81702325  1
  Sn  Sn8  1  0.66660225  0.66550073  0.81786659  1
  P  P0  1  0.14789317  0.99934976  0.25147094  1
  P  P1  1  0.64841633  0.99943893  0.25215251  1
  P  P2  1  0.35072707  0.70261300  0.25178231  1
  P  P3  1  0.85104717  0.70353848  0.25254784  1
  P  P4  1  0.99986876  0.29748959  0.25238814  1
  P  P5  1  0.49991811  0.29859791  0.25261706  1
  P  P6  1  0.14823703  0.29746789  0.75240677  1
  P  P7  1  0.64888668  0.29895832  0.75210554  1
  P  P8  1  0.00011482  0.70333293  0.75236244  1
  P  P9  1  0.50055214  0.70307208  0.75246234  1
  P  P10  1  0.35051973  0.00001003  0.75300818  1
  P  P11  1  0.85139553  0.00040577  0.75208198  1
  P  P12  1  0.48082065  0.33232061  0.58318463  1
  P  P13  1  0.98090306  0.33239511  0.58310456  1
  P  P14  1  0.18462454  0.03821640  0.58487464  1
  P  P15  1  0.68466817  0.03817858  0.58473238  1
  P  P16  1  0.33389676  0.62977738  0.58486774  1
  P  P17  1  0.83393785  0.62979660  0.58483751  1
  P  P18  1  0.48090770  0.63029005  0.08462029  1
  P  P19  1  0.98104062  0.63123977  0.08503768  1
  P  P20  1  0.33392198  0.03840461  0.08303325  1
  P  P21  1  0.83348132  0.03850388  0.08506373  1
  P  P22  1  0.18438945  0.33085622  0.08482880  1
  P  P23  1  0.68515281  0.33434232  0.08619279  1
  P  P24  1  0.31475571  0.66579046  0.91773672  1
  P  P25  1  0.81534176  0.66619206  0.91812152  1
  P  P26  1  0.01794591  0.36984574  0.91984548  1
  P  P27  1  0.51821603  0.37130872  0.91923825  1
  P  P28  1  0.16687159  0.96386831  0.91776329  1
  P  P29  1  0.66719199  0.96332848  0.91841298  1
  P  P30  1  0.31511504  0.96405580  0.41913211  1
  P  P31  1  0.81517438  0.96426965  0.41921732  1
  P  P32  1  0.16704788  0.37028433  0.41767642  1
  P  P33  1  0.66698279  0.37009898  0.41775158  1
  P  P34  1  0.01827658  0.66655658  0.41770879  1
  P  P35  1  0.51831054  0.66643966  0.41760161  1
  O  O0  1  0.10371901  0.02234573  0.30696725  1
  O  O1  1  0.60389656  0.02284891  0.30713327  1
  O  O2  1  0.40721471  0.79146118  0.30652873  1
  O  O3  1  0.90596147  0.78740802  0.30838800  1
  O  O4  1  0.49103882  0.19056585  0.30794680  1
  O  O5  1  0.99098322  0.19111249  0.30814315  1
  O  O6  1  0.10404962  0.18463262  0.80695307  1
  O  O7  1  0.60463039  0.18622619  0.80687301  1
  O  O8  1  0.48876045  0.79183096  0.80755415  1
  O  O9  1  0.98934263  0.79229023  0.80756961  1
  O  O10  1  0.40417298  0.01779141  0.80838397  1
  O  O11  1  0.90804135  0.01909020  0.80492378  1
  O  O12  1  0.38843569  0.95980912  0.69405273  1
  O  O13  1  0.88597862  0.95803546  0.69165043  1
  O  O14  1  0.09437331  0.22222676  0.69235900  1
  O  O15  1  0.59455662  0.22242371  0.69240843  1
  O  O16  1  0.01982821  0.81932155  0.69331719  1
  O  O17  1  0.52029120  0.81943958  0.69343030  1
  O  O18  1  0.38885455  0.81122332  0.19204423  1
  O  O19  1  0.89000322  0.81666523  0.19459602  1
  O  O20  1  0.01903164  0.22065035  0.19361934  1
  O  O21  1  0.52022394  0.22340201  0.19342082  1
  O  O22  1  0.08926708  0.95896246  0.19286042  1
  O  O23  1  0.59039178  0.95972512  0.19309560  1
  O  O24  1  0.43769581  0.36012519  0.63773334  1
  O  O25  1  0.93780718  0.36028375  0.63770981  1
  O  O26  1  0.23816580  0.12056313  0.64182244  1
  O  O27  1  0.73802041  0.12066276  0.64174415  1
  O  O28  1  0.32127710  0.52262690  0.64177088  1
  O  O29  1  0.82122566  0.52248167  0.64176098  1
  O  O30  1  0.43931353  0.52350168  0.14160525  1
  O  O31  1  0.93732945  0.51876228  0.14022869  1
  O  O32  1  0.32022404  0.12490939  0.13770091  1
  O  O33  1  0.81964681  0.12741759  0.13889252  1
  O  O34  1  0.23845431  0.35743361  0.14170416  1
  O  O35  1  0.73855984  0.35178130  0.14199319  1
  O  O36  1  0.22279073  0.29592664  0.02788241  1
  O  O37  1  0.72271824  0.29362528  0.02724234  1
  O  O38  1  0.42512262  0.55395768  0.02767874  1
  O  O39  1  0.92684301  0.55349403  0.02546799  1
  O  O40  1  0.35227970  0.14559664  0.02486989  1
  O  O41  1  0.85637456  0.15660048  0.02673883  1
  O  O42  1  0.22315174  0.14987356  0.52789069  1
  O  O43  1  0.72319351  0.14981883  0.52778988  1
  O  O44  1  0.35141997  0.55336709  0.52773244  1
  O  O45  1  0.85127214  0.55303558  0.52773230  1
  O  O46  1  0.42696011  0.29497361  0.52505333  1
  O  O47  1  0.92698462  0.29509706  0.52502006  1
  O  O48  1  0.27096374  0.69442174  0.97225473  1
  O  O49  1  0.76780615  0.68540210  0.97130211  1
  O  O50  1  0.07203962  0.45420554  0.97608343  1
  O  O51  1  0.57538038  0.45503492  0.97465278  1
  O  O52  1  0.15191421  0.84655383  0.97205885  1
  O  O53  1  0.65471894  0.85161592  0.97345455  1
  O  O54  1  0.27335669  0.84996388  0.47447898  1
  O  O55  1  0.77331169  0.85003621  0.47448810  1
  O  O56  1  0.15274698  0.45775451  0.47215792  1
  O  O57  1  0.65264641  0.45757984  0.47220879  1
  O  O58  1  0.07640826  0.69566390  0.47210754  1
  O  O59  1  0.57641586  0.69579866  0.47208500  1
  O  O60  1  0.05769455  0.63122303  0.35821644  1
  O  O61  1  0.55792079  0.63139702  0.35823599  1
  O  O62  1  0.25523176  0.88393272  0.36165861  1
  O  O63  1  0.75522840  0.88437390  0.36174699  1
  O  O64  1  0.18443500  0.48421921  0.35832053  1
  O  O65  1  0.68423530  0.48374917  0.35837967  1
  O  O66  1  0.05602018  0.49097315  0.86258074  1
  O  O67  1  0.55962911  0.49198754  0.86192399  1
  O  O68  1  0.18418345  0.88351002  0.85843942  1
  O  O69  1  0.68334079  0.88793968  0.85849097  1
  O  O70  1  0.25721325  0.63057069  0.85866278  1
  O  O71  1  0.75973225  0.62474564  0.85778413  1
  O  O72  1  0.01037621  0.82960175  0.41137000  1
  O  O73  1  0.51023236  0.82930992  0.41117503  1
  O  O74  1  0.40430868  0.97928944  0.41157273  1
  O  O75  1  0.90436031  0.97965399  0.41164598  1
  O  O76  1  0.08553936  0.19084577  0.41143229  1
  O  O77  1  0.58546628  0.19068466  0.41156375  1
  O  O78  1  0.01197031  0.19555986  0.91158352  1
  O  O79  1  0.51031058  0.19259687  0.91142625  1
  O  O80  1  0.08607313  0.98130360  0.91114738  1
  O  O81  1  0.58679319  0.98285024  0.91233637  1
  O  O82  1  0.40449871  0.82876086  0.91150178  1
  O  O83  1  0.90637304  0.81713874  0.91203979  1
  O  O84  1  0.48964979  0.16385387  0.58898571  1
  O  O85  1  0.98983718  0.16418288  0.58887198  1
  O  O86  1  0.09145113  0.01977112  0.58907490  1
  O  O87  1  0.59144119  0.01974122  0.58882913  1
  O  O88  1  0.41831400  0.81618534  0.58921492  1
  O  O89  1  0.91844282  0.81582631  0.58908176  1
  O  O90  1  0.49016249  0.81717866  0.08871910  1
  O  O91  1  0.99300765  0.81696834  0.08773409  1
  O  O92  1  0.41853433  0.02157482  0.08868081  1
  O  O93  1  0.91879255  0.02976734  0.08893591  1
  O  O94  1  0.09118172  0.16265274  0.08940810  1
  O  O95  1  0.59348306  0.16194612  0.08821633  1
  O  O96  1  0.33618574  0.15240255  0.74608615  1
  O  O97  1  0.83589602  0.15160451  0.74559777  1
  O  O98  1  0.23837692  0.31846748  0.74598413  1
  O  O99  1  0.73863477  0.31802648  0.74591702  1
  O  O100  1  0.41974180  0.52819925  0.74484802  1
  O  O101  1  0.91941322  0.52788165  0.74483715  1
  O  O102  1  0.34081840  0.52290654  0.24575021  1
  O  O103  1  0.84120099  0.52349025  0.24558116  1
  O  O104  1  0.42385382  0.32711967  0.24582246  1
  O  O105  1  0.92403901  0.32787838  0.24583866  1
  O  O106  1  0.23538079  0.16054639  0.24410816  1
  O  O107  1  0.73601912  0.16139167  0.24499195  1
  O  O108  1  0.32306573  0.50302250  0.92097120  1
  O  O109  1  0.82115812  0.49453895  0.92177665  1
  O  O110  1  0.42854926  0.35400911  0.92177329  1
  O  O111  1  0.92803737  0.36110828  0.92210164  1
  O  O112  1  0.24893828  0.14263706  0.92096889  1
  O  O113  1  0.74821787  0.14977780  0.92123025  1
  O  O114  1  0.32385816  0.14380472  0.42228099  1
  O  O115  1  0.82388135  0.14402814  0.42234456  1
  O  O116  1  0.24853316  0.35400886  0.42098105  1
  O  O117  1  0.74849380  0.35386979  0.42102567  1
  O  O118  1  0.42866753  0.50322319  0.42082451  1
  O  O119  1  0.92861605  0.50332426  0.42092642  1
  O  O120  1  0.17217834  0.48940439  0.07932937  1
  O  O121  1  0.66986278  0.48538566  0.07953516  1
  O  O122  1  0.07127614  0.65154919  0.07893571  1
  O  O123  1  0.57250072  0.65556347  0.07920460  1
  O  O124  1  0.25525882  0.85397003  0.07849937  1
  O  O125  1  0.75326245  0.86254113  0.07715865  1
  O  O126  1  0.17200585  0.85484067  0.57930858  1
  O  O127  1  0.67202341  0.85483390  0.57929864  1
  O  O128  1  0.25495162  0.65495048  0.57946662  1
  O  O129  1  0.75493926  0.65484387  0.57947396  1
  O  O130  1  0.07300322  0.48979484  0.57829400  1
  O  O131  1  0.57295875  0.48967021  0.57834983  1
  O  O132  1  0.15174150  0.82782580  0.25406814  1
  O  O133  1  0.65229482  0.82854329  0.25444148  1
  O  O134  1  0.25817225  0.68019851  0.25407207  1
  O  O135  1  0.75804672  0.67922063  0.25449882  1
  O  O136  1  0.08578456  0.48087901  0.25394846  1
  O  O137  1  0.58577899  0.48131260  0.25444846  1
  O  O138  1  0.15953186  0.48315024  0.75480551  1
  O  O139  1  0.66029186  0.48432135  0.75463943  1
  O  O140  1  0.08585818  0.69541955  0.75435224  1
  O  O141  1  0.58657363  0.69669416  0.75520110  1
  O  O142  1  0.25899757  0.82830800  0.75456937  1
  O  O143  1  0.75949196  0.82878351  0.75509756  1
loop_
_geom_bond_atom_site_label_1
_geom_bond_atom_site_label_2
_geom_bond_distance
_geom_bond_site_symmetry_2
Na0 O106 2.388447 1_555
Na0 O102 2.429350 1_555
Na0 O134 2.493401 1_555
Na0 O136 2.506800 1_555
Na0 O34 2.533872 1_555
Na0 O64 2.691891 1_555
Na0 O20 2.850324 1_555
Na0 O0 2.942657 1_555
Na1 O107 2.394356 1_555
Na1 O103 2.423551 1_555
Na1 O135 2.472069 1_555
Na1 O137 2.510113 1_555
Na1 O35 2.549832 1_555
Na1 O65 2.676250 1_555
Na1 O21 2.852248 1_555
Na1 O1 2.947008 1_555
Na2 O105 2.345863 1_555
Na2 O103 2.416449 1_555
Na2 O132 2.484060 1_655
Na2 O136 2.592243 1_655
Na2 O31 2.593831 1_555
Na2 O60 2.683326 1_655
Na2 O22 2.853138 1_655
Na2 O3 2.921636 1_555
Na3 O104 2.343956 1_555
Na3 O102 2.425675 1_555
Na3 O133 2.493589 1_555
Na3 O30 2.526707 1_555
Na3 O137 2.581452 1_555
Na3 O61 2.704980 1_555
Na3 O23 2.852738 1_555
Na3 O2 2.933165 1_555
Na4 O100 2.397113 1_555
Na4 O98 2.418919 1_555
Na4 O138 2.492692 1_555
Na4 O142 2.516320 1_555
Na4 O28 2.527798 1_555
Na4 O70 2.705105 1_555
Na4 O12 2.837322 1_555
Na4 O8 2.958136 1_555
Na5 O101 2.391560 1_555
Na5 O99 2.430201 1_555
Na5 O139 2.488833 1_555
Na5 O143 2.513103 1_555
Na5 O29 2.531330 1_555
Na5 O71 2.659465 1_555
Na5 O13 2.844896 1_555
Na5 O9 2.958366 1_555
Na6 O96 2.346684 1_555
Na6 O98 2.420464 1_555
Na6 O140 2.495380 1_545
Na6 O26 2.520410 1_555
Na6 O142 2.587559 1_545
Na6 O68 2.714558 1_545
Na6 O16 2.850631 1_545
Na6 O6 2.924771 1_555
Na7 O97 2.337745 1_555
Na7 O99 2.422128 1_555
Na7 O141 2.482729 1_545
Na7 O27 2.513628 1_555
Na7 O143 2.583271 1_545
Na7 O69 2.700981 1_545
Na7 O17 2.842760 1_545
Na7 O7 2.939556 1_555
Na8 O130 2.423266 1_555
Na8 O128 2.453428 1_555
Na8 O86 2.546455 1_555
Na8 O56 2.585703 1_555
Na8 O85 2.586583 1_455
Na8 O14 2.735726 1_555
Na8 O42 2.811458 1_555
Na8 O28 2.935673 1_555
Na9 O131 2.423575 1_555
Na9 O129 2.448833 1_555
Na9 O87 2.549480 1_555
Na9 O57 2.582275 1_555
Na9 O84 2.593861 1_555
Na9 O15 2.738931 1_555
Na9 O43 2.812668 1_555
Na9 O29 2.932121 1_555
Na10 O126 2.434516 1_555
Na10 O130 2.461669 1_555
Na10 O89 2.539531 1_455
Na10 O58 2.593080 1_555
Na10 O86 2.596182 1_565
Na10 O16 2.770278 1_555
Na10 O45 2.813898 1_455
Na10 O25 2.856637 1_455
Na11 O127 2.434052 1_555
Na11 O131 2.459412 1_555
Na11 O88 2.547103 1_555
Na11 O59 2.591449 1_555
Na11 O87 2.597481 1_565
Na11 O17 2.773636 1_555
Na11 O44 2.812455 1_555
Na11 O24 2.856880 1_555
Na12 O128 2.437014 1_555
Na12 O126 2.457650 1_555
Na12 O54 2.515768 1_555
Na12 O84 2.544288 1_565
Na12 O88 2.604190 1_555
Na12 O12 2.795582 1_555
Na12 O46 2.820499 1_565
Na12 O26 2.942625 1_565
Na13 O129 2.436273 1_555
Na13 O127 2.459763 1_555
Na13 O55 2.522559 1_555
Na13 O85 2.544725 1_565
Na13 O89 2.604548 1_555
Na13 O13 2.724513 1_555
Na13 O47 2.825749 1_565
Na13 O27 2.943974 1_565
Na14 O124 2.475109 1_555
Na14 O122 2.477939 1_555
Na14 O94 2.537429 1_565
Na14 O91 2.546286 1_455
Na14 O52 2.601236 1_554
Na14 O22 2.763190 1_555
Na14 O36 2.792363 1_565
Na14 O32 2.863698 1_565
Na15 O125 2.387726 1_555
Na15 O123 2.393785 1_555
Na15 O95 2.506287 1_565
Na15 O90 2.544817 1_555
Na15 O53 2.599712 1_554
Na15 O23 2.701222 1_555
Na15 O37 2.849146 1_565
Na15 O33 2.884019 1_565
Na16 O124 2.428648 1_555
Na16 O120 2.453382 1_555
Na16 O90 2.549752 1_555
Na16 O48 2.592435 1_554
Na16 O92 2.607063 1_565
Na16 O18 2.726644 1_555
Na16 O38 2.809475 1_555
Na16 O34 2.920441 1_555
Na17 O120 2.389806 1_555
Na17 O122 2.429869 1_555
Na17 O93 2.481718 1_455
Na17 O50 2.513492 1_554
Na17 O94 2.556477 1_555
Na17 O20 2.732213 1_555
Na17 O41 2.804422 1_455
Na17 O31 2.933674 1_455
Na18 O121 2.401377 1_555
Na18 O123 2.447356 1_555
Na18 O51 2.515879 1_554
Na18 O92 2.540142 1_555
Na18 O95 2.646301 1_555
Na18 O21 2.786061 1_555
Na18 O40 2.823557 1_555
Na18 O30 2.936837 1_555
Na19 O110 2.460289 1_555
Na19 O108 2.461501 1_555
Na19 O82 2.477557 1_555
Na19 O81 2.520560 1_555
Na19 O38 2.613685 1_556
Na19 O8 2.682058 1_555
Na19 O67 2.854450 1_555
Na19 O53 2.963290 1_555
Na20 O83 2.347204 1_555
Na20 O80 2.397427 1_655
Na20 O111 2.494857 1_555
Na20 O9 2.573945 1_555
Na20 O109 2.592256 1_555
Na20 O39 2.688047 1_556
Na20 O66 2.782527 1_655
Na20 O52 2.862242 1_655
Na21 O112 2.458453 1_555
Na21 O110 2.463003 1_555
Na21 O79 2.475735 1_555
Na21 O82 2.498210 1_545
Na21 O40 2.541069 1_556
Na21 O10 2.648953 1_555
Na21 O48 2.923385 1_545
Na21 O68 2.926322 1_545
Na22 O80 2.442782 1_545
Na22 O112 2.452636 1_555
Na22 O108 2.466019 1_555
Na22 O78 2.478841 1_555
Na22 O36 2.608306 1_556
Na22 O6 2.695586 1_555
Na23 O79 2.402253 1_555
Na23 O81 2.468466 1_545
Na23 O109 2.494793 1_555
Na23 O113 2.512758 1_555
Na23 O7 2.599186 1_555
Na23 O37 2.726674 1_556
Na23 O71 2.837492 1_555
Na23 O51 2.883633 1_555
Na24 O114 2.455005 1_555
Na24 O118 2.469425 1_555
Na24 O74 2.478069 1_545
Na24 O77 2.495026 1_555
Na24 O46 2.542138 1_555
Na24 O4 2.666075 1_555
Na24 O57 2.915326 1_555
Na24 O61 2.927155 1_555
Na25 O115 2.454525 1_555
Na25 O119 2.472591 1_555
Na25 O75 2.473266 1_545
Na25 O76 2.494055 1_655
Na25 O47 2.544727 1_555
Na25 O5 2.656271 1_555
Na25 O56 2.917848 1_655
Na25 O60 2.926298 1_655
Na26 O116 2.467226 1_555
Na26 O114 2.477728 1_555
Na26 O76 2.479004 1_555
Na26 O72 2.488029 1_545
Na26 O42 2.618551 1_555
Na26 O0 2.698013 1_555
Na26 O62 2.852853 1_545
Na26 O58 2.907677 1_545
Na27 O117 2.466195 1_555
Na27 O115 2.474978 1_555
Na27 O77 2.481559 1_555
Na27 O73 2.493107 1_545
Na27 O43 2.613092 1_555
Na27 O1 2.698207 1_555
Na27 O63 2.847950 1_545
Na27 O59 2.905218 1_545
Na28 O116 2.462012 1_555
Na28 O118 2.467535 1_555
Na28 O73 2.478614 1_555
Na28 O74 2.490809 1_555
Na28 O44 2.608170 1_555
Na28 O2 2.709233 1_555
Na28 O54 2.923240 1_555
Na28 O64 2.926302 1_555
Na29 O117 2.465851 1_555
Na29 O119 2.466128 1_555
Na29 O72 2.477664 1_655
Na29 O75 2.491081 1_555
Na29 O45 2.615917 1_555
Na29 O3 2.651750 1_555
Na29 O55 2.927382 1_555
Na29 O65 2.927506 1_555
Na30 O75 2.469529 1_545
Na30 O76 2.472429 1_655
Na30 O72 2.475878 1_645
Na30 O85 2.593011 1_555
Na30 O89 2.597652 1_545
Na30 O86 2.599625 1_655
Na31 O77 2.468209 1_555
Na31 O74 2.470518 1_545
Na31 O73 2.479421 1_545
Na31 O84 2.594879 1_555
Na31 O87 2.595275 1_555
Na31 O88 2.600507 1_545
Na32 O83 2.384741 1_555
Na32 O78 2.482619 1_665
Na32 O93 2.538340 1_566
Na32 O80 2.579655 1_655
Na32 O91 2.611500 1_556
Na32 O94 2.698541 1_666
Na33 O82 2.466237 1_555
Na33 O81 2.476344 1_555
Na33 O79 2.482737 1_565
Na33 O92 2.577987 1_566
Na33 O90 2.589964 1_556
Na33 O95 2.594995 1_566
Na34 O96 2.481639 1_555
Na34 O110 2.502823 1_555
Na34 O100 2.510906 1_555
Na34 O112 2.586119 1_555
Na34 O98 2.587140 1_555
Na34 O108 2.591990 1_555
Na35 O97 2.373031 1_555
Na35 O101 2.477687 1_555
Na35 O111 2.525886 1_555
Na35 O99 2.564657 1_555
Na35 O113 2.617800 1_555
Na35 O109 2.692725 1_555
Na36 O104 2.495403 1_555
Na36 O114 2.504221 1_555
Na36 O106 2.529436 1_555
Na36 O118 2.584894 1_555
Na36 O116 2.585647 1_555
Na36 O102 2.594036 1_555
Na37 O105 2.496775 1_555
Na37 O115 2.501798 1_555
Na37 O107 2.517463 1_555
Na37 O119 2.577092 1_555
Na37 O117 2.584061 1_555
Na37 O103 2.600218 1_555
Na38 O124 2.424464 1_555
Na38 O120 2.512768 1_555
Na38 O134 2.527448 1_555
Na38 O122 2.533293 1_555
Na38 O132 2.542003 1_555
Na38 O136 2.610520 1_555
Na39 O125 2.401265 1_555
Na39 O121 2.458316 1_555
Na39 O135 2.517267 1_555
Na39 O123 2.556967 1_555
Na39 O133 2.624366 1_555
Na39 O137 2.685018 1_555
Na40 O130 2.418089 1_555
Na40 O128 2.499816 1_555
Na40 O126 2.502907 1_555
Na40 O140 2.554515 1_555
Na40 O138 2.560040 1_555
Na40 O142 2.626942 1_555
Na41 O131 2.424848 1_555
Na41 O129 2.501211 1_555
Na41 O127 2.506395 1_555
Na41 O139 2.550708 1_555
Na41 O141 2.564065 1_555
Na41 O143 2.633232 1_555
Mg0 O5 2.023929 1_555
Mg0 O0 2.030554 1_655
Mg0 O3 2.033463 1_545
Mg0 O75 2.107330 1_545
Mg0 O76 2.116455 1_655
Mg0 O72 2.126637 1_645
Mg1 O4 2.022823 1_555
Mg1 O2 2.029088 1_545
Mg1 O1 2.030865 1_555
Mg1 O74 2.104244 1_545
Mg1 O77 2.113427 1_555
Mg1 O73 2.122302 1_545
Mg2 O11 1.976179 1_555
Mg2 O6 2.058238 1_655
Mg2 O9 2.069163 1_545
Mg2 O78 2.085815 1_655
Mg2 O83 2.110117 1_545
Mg2 O80 2.151276 1_645
Mg3 O10 2.022968 1_555
Mg3 O8 2.026144 1_545
Mg3 O7 2.032633 1_555
Mg3 O82 2.113984 1_545
Mg3 O79 2.115174 1_555
Mg3 O81 2.149847 1_545
Mg4 O24 1.985780 1_555
Mg4 O26 2.067636 1_555
Mg4 O28 2.070288 1_555
Mg4 O100 2.118244 1_555
Mg4 O96 2.135974 1_555
Mg4 O98 2.190367 1_555
Mg5 O25 1.983287 1_555
Mg5 O27 2.065815 1_555
Mg5 O29 2.066701 1_555
Mg5 O101 2.119655 1_555
Mg5 O97 2.137042 1_555
Mg5 O99 2.189347 1_555
Mg6 O32 1.985919 1_555
Mg6 O30 2.068143 1_555
Mg6 O34 2.072695 1_555
Mg6 O106 2.109562 1_555
Mg6 O104 2.136979 1_555
Mg6 O102 2.183339 1_555
Mg7 O33 1.977177 1_555
Mg7 O35 2.057272 1_555
Mg7 O31 2.059691 1_555
Mg7 O107 2.095385 1_555
Mg7 O105 2.112829 1_555
Mg7 O103 2.151894 1_555
Mg8 O38 2.072569 1_556
Mg8 O36 2.073653 1_556
Mg8 O40 2.075786 1_556
Mg8 O110 2.139247 1_555
Mg8 O112 2.145859 1_555
Mg8 O108 2.158540 1_555
Mg9 O44 2.070966 1_555
Mg9 O42 2.073332 1_555
Mg9 O46 2.076618 1_555
Mg9 O114 2.126242 1_555
Mg9 O118 2.149871 1_555
Mg9 O116 2.157467 1_555
Mg10 O45 2.068650 1_555
Mg10 O43 2.073457 1_555
Mg10 O47 2.075557 1_555
Mg10 O115 2.124310 1_555
Mg10 O119 2.147000 1_555
Mg10 O117 2.157209 1_555
Mg11 O48 2.020688 1_554
Mg11 O52 2.025016 1_554
Mg11 O50 2.027551 1_554
Mg11 O124 2.127149 1_555
Mg11 O122 2.143686 1_555
Mg11 O120 2.149344 1_555
Mg12 O49 1.966992 1_554
Mg12 O51 2.058808 1_554
Mg12 O53 2.064729 1_554
Mg12 O125 2.087807 1_555
Mg12 O121 2.125769 1_555
Mg12 O123 2.178406 1_555
Mg13 O56 2.022343 1_555
Mg13 O54 2.023479 1_555
Mg13 O58 2.025859 1_555
Mg13 O130 2.129502 1_555
Mg13 O126 2.146894 1_555
Mg13 O128 2.151874 1_555
Mg14 O57 2.022480 1_555
Mg14 O55 2.022622 1_555
Mg14 O59 2.027678 1_555
Mg14 O131 2.131368 1_555
Mg14 O127 2.146638 1_555
Mg14 O129 2.151207 1_555
O0 P0 1.529815 1_545
O1 P1 1.525849 1_545
O2 P2 1.524064 1_555
O3 P3 1.524076 1_555
O4 P5 1.520808 1_555
O5 P4 1.519727 1_555
O6 P6 1.519064 1_555
O7 P7 1.522807 1_555
O8 P9 1.526871 1_555
O9 P8 1.522732 1_655
O10 P10 1.517986 1_555
O11 P11 1.504217 1_555
O12 P10 1.593006 1_565
O12 Sn1 2.062087 1_565
O13 P11 1.597098 1_565
O13 Sn0 2.065253 1_565
O14 P6 1.582179 1_555
O14 Sn0 2.055972 1_455
O15 P7 1.580455 1_555
O15 Sn1 2.056424 1_555
O16 P8 1.596700 1_555
O16 Sn0 2.068735 1_465
O17 P9 1.598263 1_555
O17 Sn1 2.069722 1_565
O18 P2 1.580540 1_555
O18 Sn3 2.053584 1_565
O19 P3 1.566471 1_555
O19 Sn2 2.023147 1_555
O20 P4 1.587135 1_455
O20 Sn2 2.080937 1_445
O21 P5 1.595876 1_555
O21 Sn3 2.058956 1_555
O22 P0 1.594379 1_555
O22 Sn2 2.080710 1_455
O23 P1 1.597171 1_555
O23 Sn3 2.068800 1_565
O24 P12 1.519580 1_555
O25 P13 1.520580 1_555
O26 P14 1.532042 1_555
O27 P15 1.532100 1_555
O28 P16 1.531669 1_555
O29 P17 1.532581 1_555
O30 P18 1.532816 1_555
O31 P19 1.527539 1_555
O32 P20 1.521429 1_555
O33 P21 1.520813 1_555
O34 P22 1.534288 1_555
O35 P23 1.523667 1_555
O36 P22 1.540922 1_555
O37 P23 1.591561 1_555
O37 Sn4 2.078177 1_554
O38 P18 1.540714 1_555
O39 P19 1.578545 1_555
O39 Sn4 2.074064 1_554
O40 P20 1.541110 1_555
O41 P21 1.588711 1_555
O41 Sn4 2.036460 1_554
O42 P14 1.542401 1_555
O43 P15 1.541583 1_555
O44 P16 1.542814 1_555
O45 P17 1.542548 1_555
O46 P12 1.542642 1_555
O47 P13 1.542364 1_555
O48 P24 1.529313 1_555
O49 P25 1.512429 1_555
O50 P26 1.526152 1_555
O51 P27 1.533018 1_555
O52 P28 1.531073 1_555
O53 P29 1.522158 1_555
O54 P30 1.530439 1_555
O55 P31 1.529923 1_555
O56 P32 1.527894 1_555
O57 P33 1.527800 1_555
O58 P34 1.528690 1_555
O59 P35 1.529492 1_555
O60 P34 1.598544 1_555
O60 Sn5 2.055455 1_555
O61 P35 1.597021 1_555
O61 Sn6 2.054646 1_555
O62 P30 1.586644 1_555
O62 Sn5 2.017976 1_555
O63 P31 1.586871 1_555
O63 Sn6 2.017150 1_555
O64 P32 1.597186 1_555
O64 Sn5 2.059304 1_555
O65 P33 1.596393 1_555
O65 Sn6 2.059728 1_555
O66 P26 1.584831 1_555
O66 Sn7 2.031871 1_555
O67 P27 1.590200 1_555
O67 Sn8 2.017974 1_555
O68 P28 1.600223 1_555
O68 Sn7 2.051359 1_555
O69 P29 1.578789 1_555
O69 Sn8 2.070429 1_555
O70 P24 1.597450 1_555
O70 Sn7 2.059261 1_555
O71 P25 1.596279 1_555
O71 Sn8 2.082711 1_555
O72 P34 1.548075 1_555
O73 P35 1.548508 1_555
O74 P30 1.548416 1_555
O75 P31 1.547724 1_555
O76 P32 1.548642 1_555
O77 P33 1.548469 1_555
O78 P26 1.526127 1_555
O79 P27 1.549282 1_555
O80 P28 1.544461 1_555
O81 P29 1.547063 1_555
O82 P24 1.548742 1_555
O83 P25 1.520303 1_555
O84 P12 1.604931 1_555
O84 Sn1 2.088418 1_555
O85 P13 1.603679 1_555
O85 Sn0 2.088378 1_555
O86 P14 1.601147 1_555
O86 Sn0 2.106980 1_455
O87 P15 1.602007 1_555
O87 Sn1 2.103320 1_555
O88 P16 1.603307 1_555
O88 Sn1 2.102960 1_565
O89 P17 1.601907 1_555
O89 Sn0 2.104328 1_565
O90 P18 1.605190 1_555
O90 Sn3 2.101386 1_565
O91 P19 1.573516 1_555
O91 Sn2 2.101188 1_555
O92 P20 1.607546 1_555
O92 Sn3 2.087647 1_555
O93 P21 1.577165 1_555
O93 Sn2 2.082887 1_545
O94 P22 1.601338 1_555
O94 Sn2 2.106703 1_445
O95 P23 1.599738 1_555
O95 Sn3 2.123177 1_555
O96 P10 1.523286 1_555
O97 P11 1.524870 1_555
O98 P6 1.541153 1_555
O99 P7 1.540814 1_555
O100 P9 1.523267 1_555
O101 P8 1.525087 1_655
O102 P2 1.539205 1_555
O103 P3 1.544606 1_555
O104 P5 1.520159 1_555
O105 P4 1.525936 1_555
O106 P0 1.521549 1_545
O107 P1 1.525188 1_545
O108 P24 1.544982 1_555
O109 P25 1.599904 1_555
O109 Sn4 2.112198 1_555
O110 P27 1.541077 1_555
O111 P26 1.579347 1_655
O111 Sn4 2.090787 1_555
O112 P28 1.545019 1_545
O113 P29 1.577011 1_545
O113 Sn4 2.102978 1_555
O114 P30 1.544200 1_545
O115 P31 1.544539 1_545
O116 P32 1.545454 1_555
O117 P33 1.545645 1_555
O118 P35 1.544172 1_555
O119 P34 1.544407 1_655
O120 P22 1.551700 1_555
O121 P23 1.521501 1_555
O122 P19 1.544751 1_455
O123 P18 1.549973 1_555
O124 P20 1.551714 1_565
O125 P21 1.524869 1_565
O126 P14 1.551617 1_565
O127 P15 1.550935 1_565
O128 P16 1.550079 1_555
O129 P17 1.550281 1_555
O130 P13 1.551189 1_455
O131 P12 1.551472 1_555
O132 P0 1.578543 1_555
O132 Sn5 2.103802 1_555
O133 P1 1.572949 1_555
O133 Sn6 2.100938 1_555
O134 P2 1.573568 1_555
O134 Sn5 2.093829 1_555
O135 P3 1.574507 1_555
O135 Sn6 2.088199 1_555
O136 P4 1.597396 1_455
O136 Sn5 2.127640 1_555
O137 P5 1.593781 1_555
O137 Sn6 2.122948 1_555
O138 P6 1.577690 1_555
O138 Sn7 2.085262 1_555
O139 P7 1.574144 1_555
O139 Sn8 2.104236 1_555
O140 P8 1.579180 1_555
O140 Sn7 2.096513 1_555
O141 P9 1.577420 1_555
O141 Sn8 2.116895 1_555
O142 P10 1.595223 1_565
O142 Sn7 2.126141 1_555
O143 P11 1.599673 1_565
O143 Sn8 2.100338 1_555
