# generated using pymatgen
data_Na3Zr2Al2P5SO24
_symmetry_space_group_name_H-M   'P 1'
_cell_length_a   8.71561656
_cell_length_b   8.68830378
_cell_length_c   22.41834611
_cell_angle_alpha   90.13094210
_cell_angle_beta   89.86904154
_cell_angle_gamma   120.18391742
_symmetry_Int_Tables_number   1
_chemical_formula_structural   Na3Zr2Al2P5SO24
_chemical_formula_sum   'Na9 Zr6 Al6 P15 S3 O72'
_cell_volume   1467.43188424
_cell_formula_units_Z   3
loop_
 _symmetry_equiv_pos_site_id
 _symmetry_equiv_pos_as_xyz
  1  'x, y, z'
loop_
 _atom_site_type_symbol
 _atom_site_label
 _atom_site_symmetry_multiplicity
 _atom_site_fract_x
 _atom_site_fract_y
 _atom_site_fract_z
 _atom_site_occupancy
  Na  Na0  1  -0.00003067  0.36269597  0.75185123  1
  Na  Na1  1  0.66754213  0.97382356  0.58352991  1
  Na  Na2  1  0.02795009  0.33407167  0.08347620  1
  Na  Na3  1  0.00806315  0.99471457  0.50422234  1
  Na  Na4  1  0.00594832  0.99342425  0.00362223  1
  Na  Na5  1  0.65641899  0.32701263  0.83360483  1
  Na  Na6  1  0.67779286  0.33726072  0.33274778  1
  Na  Na7  1  0.34411661  0.67226549  0.16749497  1
  Na  Na8  1  0.33366458  0.66698097  0.66649774  1
  Zr  Zr0  1  0.98665040  0.99149652  0.35665039  1
  Zr  Zr1  1  0.00628887  0.00317810  0.85642709  1
  Zr  Zr2  1  0.66215372  0.33521468  0.68389729  1
  Zr  Zr3  1  0.67001734  0.33698652  0.18485639  1
  Zr  Zr4  1  0.66613222  0.32886731  0.98025766  1
  Zr  Zr5  1  0.67328919  0.33441252  0.47988227  1
  Al  Al0  1  0.00342513  0.99814199  0.64938480  1
  Al  Al1  1  0.99026049  0.99775592  0.14834878  1
  Al  Al2  1  0.32956019  0.66964601  0.01988689  1
  Al  Al3  1  0.32907695  0.67029039  0.51972609  1
  Al  Al4  1  0.33188880  0.66472622  0.31255482  1
  Al  Al5  1  0.33231629  0.67479021  0.81167293  1
  P  P0  1  0.70047884  0.71487939  0.24836588  1
  P  P1  1  0.01311316  0.29705626  0.24869552  1
  P  P2  1  0.28721609  0.29596143  0.74901441  1
  P  P3  1  0.01039866  0.71795757  0.74865912  1
  P  P4  1  0.70333721  0.98617573  0.74858534  1
  P  P5  1  0.97747360  0.33592691  0.58418613  1
  P  P6  1  0.35751160  0.02932354  0.58227588  1
  P  P7  1  0.66592520  0.63817644  0.58207385  1
  P  P8  1  0.97160026  0.64364645  0.08272476  1
  P  P9  1  0.66219910  0.02374147  0.08349172  1
  P  P10  1  0.36268630  0.33270834  0.08321979  1
  P  P11  1  0.05926126  0.39520914  0.91655067  1
  P  P12  1  0.33439846  0.93937790  0.91679390  1
  P  P13  1  0.60140402  0.93873940  0.41680253  1
  P  P14  1  0.06270838  0.66652299  0.41568396  1
  S  S0  1  0.28324240  0.99036005  0.24935635  1
  S  S1  1  0.60567679  0.66501652  0.91661359  1
  S  S2  1  0.33513527  0.39200917  0.41645306  1
  O  O0  1  0.20769561  0.02138514  0.30396564  1
  O  O1  1  0.81614866  0.79144716  0.30517844  1
  O  O2  1  0.98241566  0.18005948  0.30424533  1
  O  O3  1  0.20821891  0.18309159  0.80585483  1
  O  O4  1  0.97442721  0.79315744  0.80562021  1
  O  O5  1  0.82519274  0.02818540  0.80355429  1
  O  O6  1  0.79264903  0.96645814  0.69176643  1
  O  O7  1  0.16532373  0.20431660  0.69523218  1
  O  O8  1  0.03148097  0.83148960  0.69408009  1
  O  O9  1  0.79754614  0.83125622  0.19422004  1
  O  O10  1  0.03326980  0.20664412  0.19196192  1
  O  O11  1  0.17530478  0.96963084  0.19619531  1
  O  O12  1  0.89316362  0.37057197  0.64024854  1
  O  O13  1  0.48708974  0.11395620  0.63626244  1
  O  O14  1  0.62987214  0.51656582  0.63693317  1
  O  O15  1  0.88606109  0.51257820  0.13633878  1
  O  O16  1  0.62817000  0.11194712  0.13798631  1
  O  O17  1  0.48447737  0.36794380  0.13759718  1
  O  O18  1  0.44997891  0.29830643  0.02835423  1
  O  O19  1  0.84912910  0.55448292  0.02815019  1
  O  O20  1  0.70775617  0.15479590  0.02964791  1
  O  O21  1  0.44888461  0.15186119  0.52785446  1
  O  O22  1  0.70022261  0.54985462  0.52774911  1
  O  O23  1  0.84428810  0.29295359  0.53123667  1
  O  O24  1  0.52519392  0.68454588  0.97137574  1
  O  O25  1  0.16387742  0.47775655  0.97410664  1
  O  O26  1  0.31635272  0.83541290  0.97348001  1
  O  O27  1  0.52322089  0.83677589  0.47526919  1
  O  O28  1  0.31391603  0.47306505  0.47125773  1
  O  O29  1  0.16552630  0.68500742  0.47287022  1
  O  O30  1  0.14449322  0.64217913  0.35873481  1
  O  O31  1  0.49760722  0.84995855  0.36042560  1
  O  O32  1  0.35561672  0.49138916  0.36164026  1
  O  O33  1  0.14466201  0.49676983  0.85846185  1
  O  O34  1  0.35782339  0.85772794  0.85947089  1
  O  O35  1  0.50623858  0.64506021  0.86163574  1
  O  O36  1  0.04205362  0.83467929  0.41263946  1
  O  O37  1  0.79342530  0.96590105  0.41455375  1
  O  O38  1  0.17587935  0.20991193  0.41342760  1
  O  O39  1  0.03233114  0.20380375  0.91427553  1
  O  O40  1  0.16721202  0.96058651  0.91438553  1
  O  O41  1  0.78723653  0.82521051  0.91397289  1
  O  O42  1  0.98328153  0.16323324  0.59308025  1
  O  O43  1  0.17878585  0.01458090  0.59350130  1
  O  O44  1  0.83104024  0.82244622  0.59222061  1
  O  O45  1  0.98809906  0.82368502  0.09507865  1
  O  O46  1  0.83453150  0.01751480  0.09271816  1
  O  O47  1  0.17718246  0.16779760  0.09324993  1
  O  O48  1  0.68916179  0.15859982  0.74309861  1
  O  O49  1  0.47322181  0.31673510  0.74374811  1
  O  O50  1  0.84652797  0.52498238  0.74348164  1
  O  O51  1  0.67912673  0.52643836  0.24314149  1
  O  O52  1  0.84372998  0.31406537  0.24387549  1
  O  O53  1  0.46423653  0.15082451  0.24441942  1
  O  O54  1  0.62787871  0.50531319  0.91990865  1
  O  O55  1  0.87069587  0.37419620  0.92023270  1
  O  O56  1  0.49937430  0.13160374  0.92057962  1
  O  O57  1  0.62593034  0.12911998  0.42012527  1
  O  O58  1  0.49487983  0.37123520  0.42023437  1
  O  O59  1  0.87042904  0.50154002  0.42016692  1
  O  O60  1  0.34082507  0.49679492  0.07362583  1
  O  O61  1  0.15100207  0.65146557  0.07403206  1
  O  O62  1  0.49989783  0.84237376  0.07228952  1
  O  O63  1  0.34873146  0.84859883  0.57392519  1
  O  O64  1  0.50195233  0.65905082  0.57319562  1
  O  O65  1  0.15713335  0.49959341  0.57233834  1
  O  O66  1  0.30192311  0.83088898  0.25544546  1
  O  O67  1  0.51812751  0.69826530  0.25768754  1
  O  O68  1  0.17797426  0.48234790  0.25738465  1
  O  O69  1  0.30263511  0.47978006  0.75751413  1
  O  O70  1  0.17277610  0.69188148  0.75593512  1
  O  O71  1  0.51981691  0.82248732  0.75807510  1
loop_
_geom_bond_atom_site_label_1
_geom_bond_atom_site_label_2
_geom_bond_distance
_geom_bond_site_symmetry_2
Na0 O69 2.304807 1_555
Na0 O48 2.385704 1_455
Na0 O50 2.389607 1_455
Na0 O70 2.474803 1_555
Na0 O33 2.680190 1_555
Na0 O12 2.684481 1_455
Na0 O7 2.749434 1_555
Na0 O5 2.768794 1_455
Na1 O64 2.376057 1_555
Na1 O44 2.384395 1_555
Na1 O42 2.402932 1_565
Na1 O63 2.431589 1_555
Na1 O23 2.673363 1_565
Na1 O6 2.676532 1_555
Na1 O13 2.695153 1_565
Na1 O27 2.717559 1_555
Na2 O60 2.367602 1_555
Na2 O47 2.391412 1_555
Na2 O46 2.405813 1_455
Na2 O61 2.413959 1_555
Na2 O10 2.684640 1_555
Na2 O15 2.693064 1_455
Na2 O20 2.702991 1_455
Na2 O25 2.736281 1_554
Na3 O43 2.450210 1_565
Na3 O44 2.487964 1_455
Na3 O42 2.541910 1_465
Na3 O36 2.575814 1_555
Na3 O38 2.651811 1_565
Na3 O37 2.673417 1_455
Na4 O45 2.486861 1_455
Na4 O47 2.507203 1_565
Na4 O40 2.539052 1_554
Na4 O46 2.562086 1_465
Na4 O39 2.645355 1_564
Na4 O41 2.647933 1_454
Na5 O56 2.494782 1_555
Na5 O49 2.546729 1_555
Na5 O54 2.564501 1_555
Na5 O55 2.582728 1_555
Na5 O48 2.596722 1_555
Na5 O50 2.630729 1_555
Na6 O59 2.507872 1_555
Na6 O52 2.525835 1_555
Na6 O57 2.549883 1_555
Na6 O51 2.594766 1_555
Na6 O58 2.632788 1_555
Na6 O53 2.641924 1_555
Na7 O67 2.471220 1_555
Na7 O66 2.533001 1_555
Na7 O68 2.545523 1_555
Na7 O62 2.562534 1_555
Na7 O60 2.587498 1_555
Na7 O61 2.638991 1_555
Na8 O70 2.514653 1_555
Na8 O69 2.540124 1_555
Na8 O71 2.543798 1_555
Na8 O64 2.572568 1_555
Na8 O63 2.572839 1_555
Na8 O65 2.586301 1_555
Al0 O8 1.877245 1_555
Al0 O43 1.923133 1_565
Al0 O7 1.926865 1_565
Al0 O6 1.959070 1_455
Al0 O44 1.980778 1_455
Al0 O42 1.985955 1_465
Al1 O9 1.878023 1_555
Al1 O46 1.915739 1_565
Al1 O45 1.917558 1_555
Al1 O10 1.923475 1_665
Al1 O47 1.985305 1_665
Al1 O11 2.053461 1_655
Al2 O26 1.828657 1_554
Al2 O25 1.869809 1_554
Al2 O62 1.896275 1_555
Al2 O61 1.914503 1_555
Al2 O60 1.968111 1_555
Al2 O24 1.969003 1_554
Al3 O29 1.828219 1_555
Al3 O27 1.867212 1_555
Al3 O65 1.897762 1_555
Al3 O63 1.905573 1_555
Al3 O64 1.968083 1_555
Al3 O28 1.974550 1_555
Al4 O30 1.857205 1_555
Al4 O31 1.868070 1_555
Al4 O68 1.923869 1_555
Al4 O67 1.936367 1_555
Al4 O32 1.960490 1_555
Al4 O66 2.044670 1_555
Al5 O34 1.833547 1_555
Al5 O33 1.903503 1_555
Al5 O71 1.910606 1_555
Al5 O70 1.932177 1_555
Al5 O69 1.990743 1_555
Al5 O35 2.005464 1_555
O0 S0 1.475895 1_545
O0 Zr0 2.159156 1_445
O1 P0 1.551988 1_555
O1 Zr0 1.990535 1_555
O2 P1 1.544833 1_655
O2 Zr0 2.033568 1_545
O3 P2 1.543451 1_555
O3 Zr1 2.014660 1_555
O4 P3 1.534979 1_655
O4 Zr1 2.046089 1_665
O5 P4 1.547221 1_545
O5 Zr1 2.073160 1_655
O6 P4 1.544784 1_555
O7 P2 1.538579 1_555
O8 P3 1.525160 1_555
O9 P0 1.533718 1_555
O10 P1 1.548792 1_555
O11 S0 1.473619 1_555
O12 P5 1.557765 1_555
O12 Zr2 2.115674 1_555
O13 P6 1.564629 1_555
O13 Zr2 2.052452 1_555
O14 P7 1.548543 1_555
O14 Zr2 2.031010 1_555
O15 P8 1.563876 1_555
O15 Zr3 2.040993 1_555
O16 P9 1.546086 1_555
O16 Zr3 2.082122 1_555
O17 P10 1.544021 1_555
O17 Zr3 2.063085 1_555
O18 P10 1.550407 1_555
O18 Zr4 2.066701 1_554
O19 P8 1.551297 1_555
O19 Zr4 2.096057 1_554
O20 P9 1.568660 1_555
O20 Zr4 2.050881 1_554
O21 P6 1.550839 1_555
O21 Zr5 2.091970 1_555
O22 P7 1.544713 1_555
O22 Zr5 2.064099 1_555
O23 P5 1.569832 1_555
O23 Zr5 2.055707 1_555
O24 S1 1.463837 1_555
O25 P11 1.534347 1_555
O26 P12 1.522197 1_555
O27 P13 1.536666 1_555
O28 S2 1.471617 1_555
O29 P14 1.527089 1_555
O30 P14 1.526110 1_555
O31 P13 1.519822 1_555
O32 S2 1.461588 1_555
O33 P11 1.539119 1_555
O34 P12 1.528611 1_555
O35 S1 1.467332 1_555
O36 P14 1.560944 1_555
O36 Zr0 2.082579 1_455
O37 P13 1.568962 1_555
O37 Zr0 2.045816 1_555
O38 S2 1.491984 1_555
O38 Zr0 2.189233 1_445
O39 P11 1.558973 1_555
O39 Zr1 2.089245 1_555
O40 P12 1.559007 1_555
O40 Zr1 2.079604 1_565
O41 S1 1.493304 1_555
O41 Zr1 2.174749 1_665
O42 P5 1.539919 1_555
O43 P6 1.517862 1_555
O44 P7 1.539139 1_555
O45 P8 1.521912 1_555
O46 P9 1.544293 1_555
O47 P10 1.545273 1_555
O48 P4 1.568961 1_545
O48 Zr2 2.132005 1_555
O49 P2 1.542613 1_555
O49 Zr2 2.064608 1_555
O50 P3 1.567276 1_655
O50 Zr2 2.102509 1_555
O51 P0 1.556190 1_555
O51 Zr3 2.069360 1_555
O52 P1 1.559838 1_655
O52 Zr3 2.096679 1_555
O53 S0 1.494257 1_545
O53 Zr3 2.167424 1_555
O54 S1 1.496235 1_555
O54 Zr4 2.194810 1_555
O55 P11 1.561684 1_655
O55 Zr4 2.104762 1_555
O56 P12 1.564966 1_545
O56 Zr4 2.081662 1_555
O57 P13 1.559232 1_545
O57 Zr5 2.097075 1_555
O58 S2 1.493815 1_555
O58 Zr5 2.195457 1_555
O59 P14 1.567669 1_655
O59 Zr5 2.083849 1_555
O60 P10 1.545874 1_555
O61 P8 1.542493 1_455
O62 P9 1.518394 1_565
O63 P6 1.544118 1_565
O64 P7 1.541752 1_555
O65 P5 1.518324 1_455
O66 S0 1.480759 1_555
O67 P0 1.535685 1_555
O68 P1 1.538844 1_555
O69 P2 1.545289 1_555
O70 P3 1.550617 1_555
O71 P4 1.529265 1_555
