# generated using pymatgen
data_La(GePd)2
_symmetry_space_group_name_H-M   'P 1'
_cell_length_a   4.38956085
_cell_length_b   4.38956123
_cell_length_c   5.92935262
_cell_angle_alpha   111.72518860
_cell_angle_beta   111.72519167
_cell_angle_gamma   89.99999556
_symmetry_Int_Tables_number   1
_chemical_formula_structural   La(GePd)2
_chemical_formula_sum   'La1 Ge2 Pd2'
_cell_volume   97.34393015
_cell_formula_units_Z   1
loop_
 _symmetry_equiv_pos_site_id
 _symmetry_equiv_pos_as_xyz
  1  'x, y, z'
loop_
 _atom_site_type_symbol
 _atom_site_label
 _atom_site_symmetry_multiplicity
 _atom_site_fract_x
 _atom_site_fract_y
 _atom_site_fract_z
 _atom_site_occupancy
  La  La0  1  0.00000000  0.00000000  0.00000000  1
  Ge  Ge0  1  0.62413254  0.62413254  0.24826408  1
  Ge  Ge1  1  0.37586746  0.37586746  0.75173592  1
  Pd  Pd0  1  0.75000000  0.25000000  0.50000000  1
  Pd  Pd1  1  0.25000000  0.75000000  0.50000000  1
loop_
_geom_bond_atom_site_label_1
_geom_bond_atom_site_label_2
_geom_bond_distance
_geom_bond_site_symmetry_2
La0 Pd1 3.346317 1_444
La0 Pd0 3.346317 1_555
La0 Pd1 3.346317 1_545
La0 Pd0 3.346317 1_454
La0 Pd0 3.346317 1_455
La0 Pd1 3.346317 1_544
La0 Pd0 3.346317 1_444
La0 Pd1 3.346317 1_555
Ge0 Ge1 2.508480 1_554
Ge0 Pd1 2.536627 1_655
Ge0 Pd0 2.536627 1_565
Ge0 Pd1 2.536631 1_555
Ge0 Pd0 2.536631 1_555
Ge0 La0 3.347719 1_665
Ge0 La0 3.347722 1_565
Ge0 La0 3.347722 1_655
Ge0 La0 3.347725 1_555
Ge1 Pd0 2.536627 1_455
Ge1 Pd1 2.536627 1_545
Ge1 Pd0 2.536631 1_555
Ge1 Pd1 2.536631 1_555
Ge1 La0 3.347719 1_556
Ge1 La0 3.347722 1_656
Ge1 La0 3.347722 1_566
Ge1 La0 3.347725 1_666
