# generated using pymatgen
data_MnCoP
_symmetry_space_group_name_H-M   'P 1'
_cell_length_a   3.45408254
_cell_length_b   5.93533417
_cell_length_c   6.63346867
_cell_angle_alpha   90.00000000
_cell_angle_beta   90.00000000
_cell_angle_gamma   90.00000000
_symmetry_Int_Tables_number   1
_chemical_formula_structural   MnCoP
_chemical_formula_sum   'Mn4 Co4 P4'
_cell_volume   135.99363092
_cell_formula_units_Z   4
loop_
 _symmetry_equiv_pos_site_id
 _symmetry_equiv_pos_as_xyz
  1  'x, y, z'
loop_
 _atom_site_type_symbol
 _atom_site_label
 _atom_site_symmetry_multiplicity
 _atom_site_fract_x
 _atom_site_fract_y
 _atom_site_fract_z
 _atom_site_occupancy
  Mn  Mn0  1  0.75000000  0.02690471  0.66848758  1
  Mn  Mn1  1  0.25000000  0.97309529  0.33151242  1
  Mn  Mn2  1  0.75000000  0.52690471  0.83151242  1
  Mn  Mn3  1  0.25000000  0.47309529  0.16848758  1
  Co  Co0  1  0.25000000  0.35884257  0.56580827  1
  Co  Co1  1  0.75000000  0.64115743  0.43419173  1
  Co  Co2  1  0.25000000  0.85884257  0.93419173  1
  Co  Co3  1  0.75000000  0.14115743  0.06580827  1
  P  P0  1  0.25000000  0.73119116  0.62514119  1
  P  P1  1  0.75000000  0.26880884  0.37485881  1
  P  P2  1  0.25000000  0.23119116  0.87485881  1
  P  P3  1  0.75000000  0.76880884  0.12514119  1
loop_
_geom_bond_atom_site_label_1
_geom_bond_atom_site_label_2
_geom_bond_distance
_geom_bond_site_symmetry_2
Mn0 P1 2.419774 1_555
Mn0 P0 2.479099 1_545
Mn0 P0 2.479099 1_645
Mn0 P2 2.515331 1_655
Mn0 P2 2.515331 1_555
Mn1 P0 2.419774 1_555
Mn1 P1 2.479099 1_465
Mn1 P1 2.479099 1_565
Mn1 P3 2.515331 1_555
Mn1 P3 2.515331 1_455
Mn2 P3 2.419774 1_556
Mn2 P2 2.479099 1_655
Mn2 P2 2.479099 1_555
Mn2 P0 2.515331 1_555
Mn2 P0 2.515331 1_655
Mn3 P2 2.419774 1_554
Mn3 P3 2.479099 1_455
Mn3 P3 2.479099 1_555
Mn3 P1 2.515331 1_555
Mn3 P1 2.515331 1_455
Co0 P2 2.185602 1_555
Co0 P1 2.207409 1_455
Co0 P1 2.207409 1_555
Co0 P0 2.244787 1_555
Co1 P3 2.185602 1_555
Co1 P0 2.207409 1_555
Co1 P0 2.207409 1_655
Co1 P1 2.244787 1_555
Co2 P0 2.185602 1_555
Co2 P3 2.207409 1_456
Co2 P3 2.207409 1_556
Co2 P2 2.244787 1_565
Co3 P1 2.185602 1_555
Co3 P2 2.207409 1_654
Co3 P2 2.207409 1_554
Co3 P3 2.244787 1_545
