# generated using pymatgen
data_RbInI4
_symmetry_space_group_name_H-M   'P 1'
_cell_length_a   14.75622459
_cell_length_b   14.75622459
_cell_length_c   14.75622438
_cell_angle_alpha   115.16539673
_cell_angle_beta   115.16539673
_cell_angle_gamma   115.16540856
_symmetry_Int_Tables_number   1
_chemical_formula_structural   RbInI4
_chemical_formula_sum   'Rb6 In6 I24'
_cell_volume   1770.85128779
_cell_formula_units_Z   6
loop_
 _symmetry_equiv_pos_site_id
 _symmetry_equiv_pos_as_xyz
  1  'x, y, z'
loop_
 _atom_site_type_symbol
 _atom_site_label
 _atom_site_symmetry_multiplicity
 _atom_site_fract_x
 _atom_site_fract_y
 _atom_site_fract_z
 _atom_site_occupancy
  Rb  Rb0  1  0.87680824  0.68933429  0.09442437  1
  Rb  Rb1  1  0.09442437  0.87680824  0.68933429  1
  Rb  Rb2  1  0.68933429  0.09442437  0.87680824  1
  Rb  Rb3  1  0.18933429  0.37680824  0.59442437  1
  Rb  Rb4  1  0.59442437  0.18933429  0.37680824  1
  Rb  Rb5  1  0.37680824  0.59442437  0.18933429  1
  In  In0  1  0.86355971  0.07521981  0.68119971  1
  In  In1  1  0.68119971  0.86355971  0.07521981  1
  In  In2  1  0.07521981  0.68119971  0.86355971  1
  In  In3  1  0.57521981  0.36355971  0.18119971  1
  In  In4  1  0.18119971  0.57521981  0.36355971  1
  In  In5  1  0.36355971  0.18119971  0.57521981  1
  I  I0  1  0.96821745  0.11778816  0.91501267  1
  I  I1  1  0.91501267  0.96821745  0.11778816  1
  I  I2  1  0.11778816  0.91501267  0.96821745  1
  I  I3  1  0.61778816  0.46821745  0.41501267  1
  I  I4  1  0.41501267  0.61778816  0.46821745  1
  I  I5  1  0.46821745  0.41501267  0.61778816  1
  I  I6  1  0.07484674  0.33245926  0.78138582  1
  I  I7  1  0.78138582  0.07484674  0.33245926  1
  I  I8  1  0.33245926  0.78138582  0.07484674  1
  I  I9  1  0.83245926  0.57484674  0.28138582  1
  I  I10  1  0.28138582  0.83245926  0.57484674  1
  I  I11  1  0.57484674  0.28138582  0.83245926  1
  I  I12  1  0.61287718  0.00722812  0.54685046  1
  I  I13  1  0.54685046  0.61287718  0.00722812  1
  I  I14  1  0.00722812  0.54685046  0.61287718  1
  I  I15  1  0.50722812  0.11287718  0.04685046  1
  I  I16  1  0.04685046  0.50722812  0.11287718  1
  I  I17  1  0.11287718  0.04685046  0.50722812  1
  I  I18  1  0.78990506  0.84120681  0.47207414  1
  I  I19  1  0.47207414  0.78990506  0.84120681  1
  I  I20  1  0.84120681  0.47207414  0.78990506  1
  I  I21  1  0.34120681  0.28990506  0.97207414  1
  I  I22  1  0.97207414  0.34120681  0.28990506  1
  I  I23  1  0.28990506  0.97207414  0.34120681  1
loop_
_geom_bond_atom_site_label_1
_geom_bond_atom_site_label_2
_geom_bond_distance
_geom_bond_site_symmetry_2
I0 In0 2.735639 1_555
I0 Rb2 3.745273 1_555
I1 In1 2.735638 1_555
I1 Rb0 3.745273 1_555
I2 In2 2.735639 1_555
I2 Rb1 3.745273 1_555
I3 In3 2.735639 1_555
I3 Rb4 3.745273 1_555
I4 In4 2.735639 1_555
I4 Rb5 3.745273 1_555
I5 In5 2.735638 1_555
I5 Rb3 3.745273 1_555
I6 In0 2.749054 1_455
I6 Rb5 3.712637 1_556
I6 Rb3 3.930986 1_555
I7 In1 2.749054 1_545
I7 Rb3 3.712636 1_655
I7 Rb4 3.930986 1_555
I8 In2 2.749054 1_554
I8 Rb4 3.712636 1_565
I8 Rb5 3.930986 1_555
I9 In3 2.749054 1_555
I9 Rb1 3.712637 1_655
I9 Rb0 3.930986 1_555
I10 In4 2.749054 1_555
I10 Rb2 3.712636 1_565
I10 Rb1 3.930986 1_555
I11 In5 2.749054 1_555
I11 Rb0 3.712636 1_556
I11 Rb2 3.930986 1_555
I12 In0 2.745101 1_555
I12 Rb2 3.924354 1_555
I12 Rb5 4.008215 1_545
I13 In1 2.745101 1_555
I13 Rb0 3.924354 1_555
I13 Rb3 4.008215 1_554
I14 In2 2.745101 1_555
I14 Rb1 3.924354 1_555
I14 Rb4 4.008214 1_455
I15 In3 2.745101 1_555
I15 Rb4 3.924354 1_555
I15 Rb1 4.008215 1_544
I16 In4 2.745101 1_555
I16 Rb5 3.924354 1_555
I16 Rb2 4.008214 1_454
I17 In5 2.745101 1_555
I17 Rb3 3.924354 1_555
I17 Rb0 4.008215 1_445
I18 In0 2.742511 1_565
I18 Rb5 3.794293 1_555
I18 Rb1 3.879972 1_655
I19 In1 2.742511 1_556
I19 Rb3 3.794293 1_555
I19 Rb2 3.879972 1_565
I20 In2 2.742510 1_655
I20 Rb4 3.794293 1_555
I20 Rb0 3.879972 1_556
I21 In3 2.742511 1_556
I21 Rb1 3.794293 1_545
I21 Rb5 3.879972 1_556
I22 In4 2.742510 1_655
I22 Rb2 3.794293 1_554
I22 Rb3 3.879972 1_655
I23 In5 2.742511 1_565
I23 Rb0 3.794293 1_455
I23 Rb4 3.879972 1_565
