# generated using pymatgen
data_P2W7O25
_symmetry_space_group_name_H-M   'P 1'
_cell_length_a   6.71513600
_cell_length_b   5.41614800
_cell_length_c   27.81457201
_cell_angle_alpha   78.77212306
_cell_angle_beta   90.00000000
_cell_angle_gamma   90.00000000
_symmetry_Int_Tables_number   1
_chemical_formula_structural   P2W7O25
_chemical_formula_sum   'P4 W14 O50'
_cell_volume   992.25884525
_cell_formula_units_Z   2
loop_
 _symmetry_equiv_pos_site_id
 _symmetry_equiv_pos_as_xyz
  1  'x, y, z'
loop_
 _atom_site_type_symbol
 _atom_site_label
 _atom_site_symmetry_multiplicity
 _atom_site_fract_x
 _atom_site_fract_y
 _atom_site_fract_z
 _atom_site_occupancy
  P  P0  1  0.69777700  0.20047900  0.29112200  1
  P  P1  1  0.19777700  0.79952100  0.20887800  1
  P  P2  1  0.30222300  0.79952100  0.70887800  1
  P  P3  1  0.80222300  0.20047900  0.79112200  1
  W  W0  1  0.66919600  0.55792500  0.44353200  1
  W  W1  1  0.16919600  0.44207500  0.05646800  1
  W  W2  1  0.33080400  0.44207500  0.55646800  1
  W  W3  1  0.83080400  0.55792500  0.94353200  1
  W  W4  1  0.00282800  0.66914300  0.32864900  1
  W  W5  1  0.50282800  0.33085700  0.17135100  1
  W  W6  1  0.99717200  0.33085700  0.67135100  1
  W  W7  1  0.49717200  0.66914300  0.82864900  1
  W  W8  1  0.83877100  0.88825700  0.11444800  1
  W  W9  1  0.33877100  0.11174300  0.38555200  1
  W  W10  1  0.16122900  0.11174300  0.88555200  1
  W  W11  1  0.66122900  0.88825700  0.61444800  1
  W  W12  1  0.50000000  0.00000000  0.00000000  1
  W  W13  1  0.00000000  0.00000000  0.50000000  1
  O  O0  1  0.83311900  0.41242000  0.30186900  1
  O  O1  1  0.33311900  0.58758000  0.19813100  1
  O  O2  1  0.16688100  0.58758000  0.69813100  1
  O  O3  1  0.66688100  0.41242000  0.80186900  1
  O  O4  1  0.81005400  0.94772000  0.29767200  1
  O  O5  1  0.31005400  0.05228000  0.20232800  1
  O  O6  1  0.18994600  0.05228000  0.70232800  1
  O  O7  1  0.68994600  0.94772000  0.79767200  1
  O  O8  1  0.68216400  0.58920400  0.14714000  1
  O  O9  1  0.18216400  0.41079600  0.35286000  1
  O  O10  1  0.31783600  0.41079600  0.85286000  1
  O  O11  1  0.81783600  0.58920400  0.64714000  1
  O  O12  1  0.66066800  0.08821800  0.15099500  1
  O  O13  1  0.16066800  0.91178200  0.34900500  1
  O  O14  1  0.33933200  0.91178200  0.84900500  1
  O  O15  1  0.83933200  0.08821800  0.65099500  1
  O  O16  1  0.98551200  0.31755300  0.91304100  1
  O  O17  1  0.01448800  0.68244700  0.08695900  1
  O  O18  1  0.50000000  0.50000000  0.50000000  1
  O  O19  1  0.00000000  0.50000000  0.00000000  1
  O  O20  1  0.66890600  0.93969900  0.06132900  1
  O  O21  1  0.16890600  0.06030100  0.43867100  1
  O  O22  1  0.33109400  0.06030100  0.93867100  1
  O  O23  1  0.83109400  0.93969900  0.56132900  1
  O  O24  1  0.65773400  0.61223500  0.88383600  1
  O  O25  1  0.15773400  0.38776500  0.61616400  1
  O  O26  1  0.34226600  0.38776500  0.11616400  1
  O  O27  1  0.84226600  0.61223500  0.38383600  1
  O  O28  1  0.48942900  0.82588000  0.67663800  1
  O  O29  1  0.98942900  0.17412000  0.82336200  1
  O  O30  1  0.51057100  0.17412000  0.32336200  1
  O  O31  1  0.01057100  0.82588000  0.17663800  1
  O  O32  1  0.86606100  0.27164600  0.73692900  1
  O  O33  1  0.36606100  0.72835400  0.76307100  1
  O  O34  1  0.13393900  0.72835400  0.26307100  1
  O  O35  1  0.63393900  0.27164600  0.23692900  1
  O  O36  1  0.68407900  0.79730200  0.96771900  1
  O  O37  1  0.18407900  0.20269800  0.53228100  1
  O  O38  1  0.31592100  0.20269800  0.03228100  1
  O  O39  1  0.81592100  0.79730200  0.46771900  1
  O  O40  1  0.65590200  0.29296800  0.97343700  1
  O  O41  1  0.15590200  0.70703200  0.52656300  1
  O  O42  1  0.34409800  0.70703200  0.02656300  1
  O  O43  1  0.84409800  0.29296800  0.47343700  1
  O  O44  1  0.51180100  0.18138700  0.59113300  1
  O  O45  1  0.01180100  0.81861300  0.90886700  1
  O  O46  1  0.48819900  0.81861300  0.40886700  1
  O  O47  1  0.98819900  0.18138700  0.09113300  1
  O  O48  1  0.48551200  0.68244700  0.58695900  1
  O  O49  1  0.51448800  0.31755300  0.41304100  1
loop_
_geom_bond_atom_site_label_1
_geom_bond_atom_site_label_2
_geom_bond_distance
_geom_bond_site_symmetry_2
O0 P0 1.538393 1_555
O0 W4 2.047010 1_655
O1 P1 1.538393 1_555
O1 W5 2.047010 1_555
O2 P2 1.538393 1_555
O2 W6 2.047010 1_455
O3 P3 1.538393 1_555
O3 W7 2.047010 1_555
O4 P0 1.542278 1_565
O4 W4 2.046553 1_655
O5 P1 1.542278 1_545
O5 W5 2.046553 1_555
O6 P2 1.542278 1_545
O6 W6 2.046553 1_455
O7 P3 1.542278 1_565
O7 W7 2.046553 1_555
O8 W5 1.869409 1_555
O8 W8 1.995674 1_555
O9 W4 1.869409 1_555
O9 W9 1.995674 1_555
O10 W7 1.869409 1_555
O10 W10 1.995674 1_555
O11 W6 1.869409 1_555
O11 W11 1.995674 1_555
O12 W5 1.860322 1_555
O12 W8 2.016281 1_545
O13 W4 1.860322 1_555
O13 W9 2.016281 1_565
O14 W7 1.860322 1_555
O14 W10 2.016281 1_565
O15 W6 1.860322 1_555
O15 W11 2.016281 1_545
O16 W10 1.884508 1_655
O16 W3 1.980767 1_555
O17 W8 1.884508 1_455
O17 W1 1.980767 1_555
O18 W2 1.914241 1_555
O18 W0 1.914241 1_555
O19 W3 1.914241 1_454
O19 W1 1.914241 1_555
O20 W8 1.844287 1_555
O20 W12 2.021403 1_565
O21 W9 1.844287 1_555
O21 W13 2.021403 1_555
O22 W10 1.844287 1_555
O22 W12 2.021403 1_556
O23 W11 1.844287 1_555
O23 W13 2.021403 1_665
O24 W7 1.851890 1_555
O24 W3 2.000999 1_555
O25 W6 1.851890 1_455
O25 W2 2.000999 1_555
O26 W5 1.851890 1_555
O26 W1 2.000999 1_555
O27 W4 1.851890 1_655
O27 W0 2.000999 1_555
O28 P2 1.534603 1_555
O28 W11 2.051746 1_555
O29 P3 1.534603 1_555
O29 W10 2.051746 1_655
O30 P0 1.534603 1_555
O30 W9 2.051746 1_555
O31 P1 1.534603 1_555
O31 W8 2.051746 1_455
O32 P3 1.542141 1_555
O32 W6 1.994309 1_555
O33 P2 1.542141 1_555
O33 W7 1.994309 1_555
O34 P1 1.542141 1_555
O34 W4 1.994309 1_555
O35 P0 1.542141 1_555
O35 W5 1.994309 1_555
O36 W3 1.855787 1_555
O36 W12 1.980732 1_566
O37 W2 1.855787 1_555
O37 W13 1.980732 1_555
O38 W1 1.855787 1_555
O38 W12 1.980732 1_555
O39 W0 1.855787 1_555
O39 W13 1.980732 1_665
O40 W3 1.914635 1_555
O40 W12 1.924356 1_556
O41 W2 1.914635 1_555
O41 W13 1.924356 1_565
O42 W1 1.914635 1_555
O42 W12 1.924356 1_565
O43 W0 1.914635 1_555
O43 W13 1.924356 1_655
O44 W11 1.883365 1_545
O44 W2 1.967306 1_555
O45 W10 1.883365 1_565
O45 W3 1.967306 1_455
O46 W9 1.883365 1_565
O46 W0 1.967306 1_555
O47 W8 1.883365 1_545
O47 W1 1.967306 1_655
O48 W11 1.884508 1_555
O48 W2 1.980767 1_555
O49 W9 1.884508 1_555
O49 W0 1.980767 1_555
