# generated using pymatgen
data_AgBH2OF4
_symmetry_space_group_name_H-M   'P 1'
_cell_length_a   7.38696225
_cell_length_b   8.12250769
_cell_length_c   12.96337757
_cell_angle_alpha   90.00000000
_cell_angle_beta   90.00000000
_cell_angle_gamma   90.00000000
_symmetry_Int_Tables_number   1
_chemical_formula_structural   AgBH2OF4
_chemical_formula_sum   'Ag8 B8 H16 O8 F32'
_cell_volume   777.81117997
_cell_formula_units_Z   8
loop_
 _symmetry_equiv_pos_site_id
 _symmetry_equiv_pos_as_xyz
  1  'x, y, z'
loop_
 _atom_site_type_symbol
 _atom_site_label
 _atom_site_symmetry_multiplicity
 _atom_site_fract_x
 _atom_site_fract_y
 _atom_site_fract_z
 _atom_site_occupancy
  Ag  Ag0  1  0.89589628  0.23921589  0.15727338  1
  Ag  Ag1  1  0.39589628  0.76078411  0.34272662  1
  Ag  Ag2  1  0.60410372  0.73921589  0.84272662  1
  Ag  Ag3  1  0.10410372  0.26078411  0.65727338  1
  Ag  Ag4  1  0.10410372  0.76078411  0.84272662  1
  Ag  Ag5  1  0.60410372  0.23921589  0.65727338  1
  Ag  Ag6  1  0.39589628  0.26078411  0.15727338  1
  Ag  Ag7  1  0.89589628  0.73921589  0.34272662  1
  B  B0  1  0.61074066  0.36360565  0.37321323  1
  B  B1  1  0.61074066  0.86360565  0.12678677  1
  B  B2  1  0.11074066  0.13639435  0.37321323  1
  B  B3  1  0.88925934  0.36360565  0.87321323  1
  B  B4  1  0.38925934  0.63639435  0.62678677  1
  B  B5  1  0.38925934  0.13639435  0.87321323  1
  B  B6  1  0.88925934  0.86360565  0.62678677  1
  B  B7  1  0.11074066  0.63639435  0.12678677  1
  H  H0  1  0.66780088  0.42169681  0.03192983  1
  H  H1  1  0.16780088  0.57830319  0.46807017  1
  H  H2  1  0.83219912  0.92169681  0.96807017  1
  H  H3  1  0.33219912  0.07830319  0.53192983  1
  H  H4  1  0.33219912  0.57830319  0.96807017  1
  H  H5  1  0.83219912  0.42169681  0.53192983  1
  H  H6  1  0.16780088  0.07830319  0.03192983  1
  H  H7  1  0.66780088  0.92169681  0.46807017  1
  H  H8  1  0.84004868  0.01693160  0.86285252  1
  H  H9  1  0.34004868  0.98306840  0.63714748  1
  H  H10  1  0.34004868  0.48306840  0.86285252  1
  H  H11  1  0.84004868  0.51693160  0.63714748  1
  H  H12  1  0.15995132  0.98306840  0.13714748  1
  H  H13  1  0.65995132  0.01693160  0.36285252  1
  H  H14  1  0.65995132  0.51693160  0.13714748  1
  H  H15  1  0.15995132  0.48306840  0.36285252  1
  O  O0  1  0.65369176  0.40736771  0.10632482  1
  O  O1  1  0.84630824  0.90736771  0.89367518  1
  O  O2  1  0.34630824  0.09263229  0.60632482  1
  O  O3  1  0.34630824  0.59263229  0.89367518  1
  O  O4  1  0.84630824  0.40736771  0.60632482  1
  O  O5  1  0.15369176  0.09263229  0.10632482  1
  O  O6  1  0.65369176  0.90736771  0.39367518  1
  O  O7  1  0.15369176  0.59263229  0.39367518  1
  F  F0  1  0.66497074  0.22260141  0.31574922  1
  F  F1  1  0.16497074  0.27739859  0.31574922  1
  F  F2  1  0.83502926  0.22260141  0.81574922  1
  F  F3  1  0.33502926  0.77739859  0.68425078  1
  F  F4  1  0.51469706  0.81501140  0.03990137  1
  F  F5  1  0.83502926  0.72260141  0.68425078  1
  F  F6  1  0.16497074  0.77739859  0.18425078  1
  F  F7  1  0.66497074  0.72260141  0.18425078  1
  F  F8  1  0.50468446  0.96287015  0.19184761  1
  F  F9  1  0.00468446  0.03712985  0.30815239  1
  F  F10  1  0.99531554  0.46287015  0.80815239  1
  F  F11  1  0.49531554  0.53712985  0.69184761  1
  F  F12  1  0.49531554  0.03712985  0.80815239  1
  F  F13  1  0.99531554  0.96287015  0.69184761  1
  F  F14  1  0.76749879  0.45196365  0.40279834  1
  F  F15  1  0.50468446  0.46287015  0.30815239  1
  F  F16  1  0.26749879  0.54803635  0.09720166  1
  F  F17  1  0.73250121  0.95196365  0.59720166  1
  F  F18  1  0.23250121  0.04803635  0.90279834  1
  F  F19  1  0.23250121  0.54803635  0.59720166  1
  F  F20  1  0.73250121  0.45196365  0.90279834  1
  F  F21  1  0.26749879  0.04803635  0.40279834  1
  F  F22  1  0.76749879  0.95196365  0.09720166  1
  F  F23  1  0.51469706  0.31501140  0.46009863  1
  F  F24  1  0.01469706  0.68498860  0.03990137  1
  F  F25  1  0.98530294  0.81501140  0.53990137  1
  F  F26  1  0.48530294  0.18498860  0.96009863  1
  F  F27  1  0.48530294  0.68498860  0.53990137  1
  F  F28  1  0.98530294  0.31501140  0.96009863  1
  F  F29  1  0.01469706  0.18498860  0.46009863  1
  F  F30  1  0.00468446  0.53712985  0.19184761  1
  F  F31  1  0.33502926  0.27739859  0.81574922  1
loop_
_geom_bond_atom_site_label_1
_geom_bond_atom_site_label_2
_geom_bond_distance
_geom_bond_site_symmetry_2
Ag0 O5 2.340996 1_655
Ag0 O0 2.345792 1_555
Ag0 F30 2.588851 1_655
Ag0 F22 2.636262 1_545
Ag0 F0 2.673683 1_555
Ag0 F9 2.676881 1_655
Ag0 F28 2.710831 1_554
Ag1 O6 2.340996 1_555
Ag1 O7 2.345792 1_555
Ag1 F15 2.588851 1_555
Ag1 F21 2.636262 1_565
Ag1 F6 2.673683 1_555
Ag1 F8 2.676881 1_555
Ag1 F27 2.710831 1_555
Ag2 O3 2.340996 1_555
Ag2 O1 2.345792 1_555
Ag2 F12 2.588851 1_565
Ag2 F20 2.636262 1_555
Ag2 F5 2.673683 1_555
Ag2 F11 2.676881 1_555
Ag2 F4 2.710831 1_556
Ag3 O4 2.340996 1_455
Ag3 O2 2.345792 1_555
Ag3 F13 2.588851 1_445
Ag3 F19 2.636262 1_555
Ag3 F31 2.673683 1_555
Ag3 F10 2.676881 1_455
Ag3 F29 2.710831 1_555
Ag4 O1 2.340996 1_455
Ag4 O3 2.345792 1_555
Ag4 F10 2.588851 1_455
Ag4 F18 2.636262 1_565
Ag4 F3 2.673683 1_555
Ag4 F13 2.676881 1_455
Ag4 F24 2.710831 1_556
Ag5 O2 2.340996 1_555
Ag5 O4 2.345792 1_555
Ag5 F11 2.588851 1_555
Ag5 F17 2.636262 1_545
Ag5 F2 2.673683 1_555
Ag5 F12 2.676881 1_555
Ag5 F23 2.710831 1_555
Ag6 O0 2.340996 1_555
Ag6 O5 2.345792 1_555
Ag6 F8 2.588851 1_545
Ag6 F16 2.636262 1_555
Ag6 F1 2.673683 1_555
Ag6 F15 2.676881 1_555
Ag6 F26 2.710831 1_554
Ag7 O7 2.340996 1_655
Ag7 O6 2.345792 1_555
Ag7 F9 2.588851 1_665
Ag7 F14 2.636262 1_555
Ag7 F7 2.673683 1_555
Ag7 F30 2.676881 1_655
Ag7 F25 2.710831 1_555
B0 F23 1.388437 1_555
B0 F15 1.405413 1_555
B0 F14 1.415292 1_555
B0 F0 1.423771 1_555
B1 F4 1.388437 1_555
B1 F8 1.405413 1_555
B1 F22 1.415292 1_555
B1 F7 1.423771 1_555
B2 F29 1.388437 1_555
B2 F9 1.405413 1_555
B2 F21 1.415292 1_555
B2 F1 1.423771 1_555
B3 F28 1.388437 1_555
B3 F10 1.405413 1_555
B3 F20 1.415292 1_555
B3 F2 1.423771 1_555
B4 F27 1.388437 1_555
B4 F11 1.405413 1_555
B4 F19 1.415292 1_555
B4 F3 1.423771 1_555
B5 F26 1.388437 1_555
B5 F12 1.405413 1_555
B5 F18 1.415292 1_555
B5 F31 1.423771 1_555
B6 F25 1.388437 1_555
B6 F13 1.405413 1_555
B6 F17 1.415292 1_555
B6 F5 1.423771 1_555
B7 F24 1.388437 1_555
B7 F30 1.405413 1_555
B7 F16 1.415292 1_555
B7 F6 1.423771 1_555
H0 O0 0.976983 1_555
H1 O7 0.976983 1_555
H2 O1 0.976983 1_555
H3 O2 0.976983 1_555
H4 O3 0.976983 1_555
H5 O4 0.976983 1_555
H6 O5 0.976983 1_555
H7 O6 0.976983 1_555
H8 O1 0.976613 1_545
H9 O2 0.976613 1_565
H10 O3 0.976613 1_555
H11 O4 0.976613 1_555
H12 O5 0.976613 1_565
H13 O6 0.976613 1_545
H14 O0 0.976613 1_555
H15 O7 0.976613 1_555
