# generated using pymatgen
data_BaLa(CoO3)2
_symmetry_space_group_name_H-M   'P 1'
_cell_length_a   3.88561300
_cell_length_b   3.88561300
_cell_length_c   7.93077900
_cell_angle_alpha   90.00000000
_cell_angle_beta   90.00000000
_cell_angle_gamma   90.00000000
_symmetry_Int_Tables_number   1
_chemical_formula_structural   BaLa(CoO3)2
_chemical_formula_sum   'Ba1 La1 Co2 O6'
_cell_volume   119.73880923
_cell_formula_units_Z   1
loop_
 _symmetry_equiv_pos_site_id
 _symmetry_equiv_pos_as_xyz
  1  'x, y, z'
loop_
 _atom_site_type_symbol
 _atom_site_label
 _atom_site_symmetry_multiplicity
 _atom_site_fract_x
 _atom_site_fract_y
 _atom_site_fract_z
 _atom_site_occupancy
  Ba  Ba0  1  0.00000000  0.00000000  0.50000000  1
  La  La0  1  0.00000000  0.00000000  0.00000000  1
  Co  Co0  1  0.49999900  0.49999900  0.75122100  1
  Co  Co1  1  0.49999900  0.49999900  0.24877800  1
  O  O0  1  0.49999900  0.49999900  0.50000000  1
  O  O1  1  0.49999900  0.00000000  0.77182100  1
  O  O2  1  0.00000000  0.49999900  0.77182100  1
  O  O3  1  0.49999900  0.00000000  0.22818000  1
  O  O4  1  0.49999900  0.49999900  0.00000000  1
  O  O5  1  0.00000000  0.49999900  0.22818000  1
loop_
_geom_bond_atom_site_label_1
_geom_bond_atom_site_label_2
_geom_bond_distance
_geom_bond_site_symmetry_2
Ba0 O0 2.747538 1_555
Ba0 O0 2.747543 1_455
Ba0 O0 2.747543 1_545
Ba0 O0 2.747549 1_445
Ba0 O5 2.902019 1_555
Ba0 O3 2.902019 1_555
Ba0 O3 2.902024 1_455
Ba0 O5 2.902024 1_545
Ba0 O1 2.902025 1_555
Ba0 O2 2.902025 1_555
Ba0 O1 2.902030 1_455
Ba0 O2 2.902030 1_545
La0 O1 2.655046 1_554
La0 O2 2.655046 1_554
La0 O5 2.655051 1_555
La0 O3 2.655051 1_555
La0 O2 2.655052 1_544
La0 O1 2.655052 1_454
La0 O5 2.655057 1_545
La0 O3 2.655057 1_455
La0 O4 2.747538 1_555
La0 O4 2.747543 1_455
La0 O4 2.747543 1_545
La0 O4 2.747549 1_445
Co0 O2 1.949660 1_555
Co0 O1 1.949660 1_555
Co0 O2 1.949667 1_655
Co0 O1 1.949667 1_565
Co0 O4 1.973011 1_556
Co0 O0 1.992378 1_555
Co1 O3 1.949658 1_555
Co1 O5 1.949658 1_555
Co1 O5 1.949666 1_655
Co1 O3 1.949666 1_565
Co1 O4 1.973003 1_555
Co1 O0 1.992386 1_555
