# generated using pymatgen
data_Na2ScGe(PO4)3
_symmetry_space_group_name_H-M   'P 1'
_cell_length_a   8.74114421
_cell_length_b   8.74114393
_cell_length_c   22.14864992
_cell_angle_alpha   90.21411473
_cell_angle_beta   89.78588528
_cell_angle_gamma   120.41789890
_symmetry_Int_Tables_number   1
_chemical_formula_structural   Na2ScGe(PO4)3
_chemical_formula_sum   'Na12 Sc6 Ge6 P18 O72'
_cell_volume   1459.37246834
_cell_formula_units_Z   6
loop_
 _symmetry_equiv_pos_site_id
 _symmetry_equiv_pos_as_xyz
  1  'x, y, z'
loop_
 _atom_site_type_symbol
 _atom_site_label
 _atom_site_symmetry_multiplicity
 _atom_site_fract_x
 _atom_site_fract_y
 _atom_site_fract_z
 _atom_site_occupancy
  Na  Na0  1  0.36407191  0.35847991  0.24993048  1
  Na  Na1  1  0.64152009  0.63592809  0.74993048  1
  Na  Na2  1  0.03073891  0.69181291  0.58326348  1
  Na  Na3  1  0.30818709  0.96926109  0.08326348  1
  Na  Na4  1  0.69740491  0.02514691  0.91659748  1
  Na  Na5  1  0.97485309  0.30259509  0.41659748  1
  Na  Na6  1  0.99950633  0.99907326  0.49956366  1
  Na  Na7  1  0.00092674  0.00049367  0.99956366  1
  Na  Na8  1  0.66617333  0.33240626  0.83289666  1
  Na  Na9  1  0.66759374  0.33382667  0.33289666  1
  Na  Na10  1  0.33283933  0.66574026  0.16623066  1
  Na  Na11  1  0.33425974  0.66716067  0.66623066  1
  Sc  Sc0  1  0.99853519  0.99223553  0.35406788  1
  Sc  Sc1  1  0.00776447  0.00146481  0.85406788  1
  Sc  Sc2  1  0.66520219  0.32556853  0.68740088  1
  Sc  Sc3  1  0.67443147  0.33479781  0.18740088  1
  Sc  Sc4  1  0.33186819  0.65890253  0.02073488  1
  Sc  Sc5  1  0.34109747  0.66813181  0.52073488  1
  Ge  Ge0  1  0.00244139  0.00729356  0.64826327  1
  Ge  Ge1  1  0.99270644  0.99755861  0.14826327  1
  Ge  Ge2  1  0.66910839  0.34062656  0.98159627  1
  Ge  Ge3  1  0.65937344  0.33089161  0.48159627  1
  Ge  Ge4  1  0.33577439  0.67396056  0.31493027  1
  Ge  Ge5  1  0.32603944  0.66422561  0.81493027  1
  P  P0  1  0.28456836  0.98717430  0.24925546  1
  P  P1  1  0.70381543  0.71523163  0.24995121  1
  P  P2  1  0.00646656  0.29412997  0.25213960  1
  P  P3  1  0.28476837  0.29618457  0.74995121  1
  P  P4  1  0.01282570  0.71543164  0.74925546  1
  P  P5  1  0.70587003  0.99353344  0.75213960  1
  P  P6  1  0.95123536  0.32050730  0.58258846  1
  P  P7  1  0.37048243  0.04856463  0.58328421  1
  P  P8  1  0.67313356  0.62746297  0.58547260  1
  P  P9  1  0.95143537  0.62951757  0.08328421  1
  P  P10  1  0.67949270  0.04876464  0.08258846  1
  P  P11  1  0.37253703  0.32686644  0.08547260  1
  P  P12  1  0.61790136  0.65384130  0.91592246  1
  P  P13  1  0.03714843  0.38189863  0.91661821  1
  P  P14  1  0.33979956  0.96079697  0.91880660  1
  P  P15  1  0.61810137  0.96285157  0.41661821  1
  P  P16  1  0.34615870  0.38209864  0.41592246  1
  P  P17  1  0.03920303  0.66020044  0.41880660  1
  O  O0  1  0.20137858  0.02448728  0.30330160  1
  O  O1  1  0.81450316  0.79584923  0.30573598  1
  O  O2  1  0.98279218  0.19033147  0.30959915  1
  O  O3  1  0.20415077  0.18549684  0.80573598  1
  O  O4  1  0.97551272  0.79862142  0.80330160  1
  O  O5  1  0.80966853  0.01720782  0.80959915  1
  O  O6  1  0.79363201  0.95365941  0.69560958  1
  O  O7  1  0.16824865  0.20969463  0.69193372  1
  O  O8  1  0.04218027  0.82808529  0.68964698  1
  O  O9  1  0.79030537  0.83175135  0.19193372  1
  O  O10  1  0.04634059  0.20636799  0.19560958  1
  O  O11  1  0.17191471  0.95781973  0.18964698  1
  O  O12  1  0.86804558  0.35782028  0.63663460  1
  O  O13  1  0.48117016  0.12918223  0.63906898  1
  O  O14  1  0.64945918  0.52366447  0.64293215  1
  O  O15  1  0.87081777  0.51882984  0.13906898  1
  O  O16  1  0.64217972  0.13195442  0.13663460  1
  O  O17  1  0.47633553  0.35054082  0.14293215  1
  O  O18  1  0.46029901  0.28699241  0.02894258  1
  O  O19  1  0.83491565  0.54302763  0.02526672  1
  O  O20  1  0.70884727  0.16141829  0.02297998  1
  O  O21  1  0.45697237  0.16508435  0.52526672  1
  O  O22  1  0.71300759  0.53970099  0.52894258  1
  O  O23  1  0.83858171  0.29115273  0.52297998  1
  O  O24  1  0.53471158  0.69115428  0.96996860  1
  O  O25  1  0.14783616  0.46251623  0.97240298  1
  O  O26  1  0.31612518  0.85699847  0.97626615  1
  O  O27  1  0.53748377  0.85216384  0.47240298  1
  O  O28  1  0.30884572  0.46528842  0.46996860  1
  O  O29  1  0.14300153  0.68387482  0.47626615  1
  O  O30  1  0.12696501  0.62032641  0.36227658  1
  O  O31  1  0.50158165  0.87636163  0.35860072  1
  O  O32  1  0.37551327  0.49475229  0.35631398  1
  O  O33  1  0.12363837  0.49841835  0.85860072  1
  O  O34  1  0.37967359  0.87303499  0.86227658  1
  O  O35  1  0.50524771  0.62448673  0.85631398  1
  O  O36  1  0.01519061  0.81939458  0.41179352  1
  O  O37  1  0.80734736  0.99520484  0.41061415  1
  O  O38  1  0.18066396  0.19701170  0.41021632  1
  O  O39  1  0.00479516  0.19265264  0.91061415  1
  O  O40  1  0.18060542  0.98480939  0.91179352  1
  O  O41  1  0.80298830  0.81933604  0.91021632  1
  O  O42  1  0.96435254  0.14946051  0.58995670  1
  O  O43  1  0.18128549  0.03002649  0.58876798  1
  O  O44  1  0.85034023  0.81449663  0.58965276  1
  O  O45  1  0.96997351  0.81871451  0.08876798  1
  O  O46  1  0.85053949  0.03564746  0.08995670  1
  O  O47  1  0.18550337  0.14965977  0.08965276  1
  O  O48  1  0.68185761  0.15272758  0.74512652  1
  O  O49  1  0.47401436  0.32853784  0.74394715  1
  O  O50  1  0.84733096  0.53034470  0.74354932  1
  O  O51  1  0.67146216  0.52598564  0.24394715  1
  O  O52  1  0.84727242  0.31814239  0.24512652  1
  O  O53  1  0.46965530  0.15266904  0.24354932  1
  O  O54  1  0.63101954  0.48279351  0.92328970  1
  O  O55  1  0.84795249  0.36335949  0.92210098  1
  O  O56  1  0.51700723  0.14782963  0.92298576  1
  O  O57  1  0.63664051  0.15204751  0.42210098  1
  O  O58  1  0.51720649  0.36898046  0.42328970  1
  O  O59  1  0.85217037  0.48299277  0.42298576  1
  O  O60  1  0.34852361  0.48606158  0.07846052  1
  O  O61  1  0.14068036  0.66187184  0.07728115  1
  O  O62  1  0.51399696  0.86367870  0.07688332  1
  O  O63  1  0.33812816  0.85931964  0.57728115  1
  O  O64  1  0.51393842  0.65147639  0.57846052  1
  O  O65  1  0.13632130  0.48600304  0.57688332  1
  O  O66  1  0.29768554  0.81612751  0.25662370  1
  O  O67  1  0.51461849  0.69669349  0.25543498  1
  O  O68  1  0.18367323  0.48116363  0.25631976  1
  O  O69  1  0.30330651  0.48538151  0.75543498  1
  O  O70  1  0.18387249  0.70231446  0.75662370  1
  O  O71  1  0.51883637  0.81632677  0.75631976  1
loop_
_geom_bond_atom_site_label_1
_geom_bond_atom_site_label_2
_geom_bond_distance
_geom_bond_site_symmetry_2
Na0 O68 2.316509 1_555
Na0 O51 2.322945 1_555
Na0 O53 2.405545 1_555
Na0 O67 2.558467 1_555
Na0 O17 2.575736 1_555
Na0 O32 2.615526 1_555
Na0 O10 2.683780 1_555
Na0 O0 2.784272 1_555
Na1 O71 2.316509 1_555
Na1 O49 2.322945 1_555
Na1 O50 2.405545 1_555
Na1 O69 2.558467 1_555
Na1 O14 2.575736 1_555
Na1 O35 2.615526 1_555
Na1 O6 2.683780 1_555
Na1 O4 2.784272 1_555
Na2 O44 2.316509 1_455
Na2 O63 2.322937 1_555
Na2 O65 2.405529 1_555
Na2 O43 2.558467 1_565
Na2 O29 2.575710 1_555
Na2 O8 2.615526 1_555
Na2 O22 2.683780 1_455
Na2 O12 2.784272 1_455
Na3 O47 2.316509 1_565
Na3 O61 2.322937 1_555
Na3 O62 2.405529 1_555
Na3 O45 2.558467 1_455
Na3 O26 2.575710 1_554
Na3 O11 2.615526 1_555
Na3 O18 2.683780 1_565
Na3 O16 2.784272 1_565
Na4 O56 2.316492 1_555
Na4 O39 2.322945 1_655
Na4 O41 2.405545 1_545
Na4 O55 2.558458 1_555
Na4 O5 2.575736 1_555
Na4 O20 2.615500 1_556
Na4 O34 2.683780 1_545
Na4 O24 2.784272 1_545
Na5 O59 2.316492 1_555
Na5 O37 2.322945 1_545
Na5 O38 2.405545 1_655
Na5 O57 2.558458 1_555
Na5 O2 2.575736 1_555
Na5 O23 2.615500 1_555
Na5 O30 2.683780 1_655
Na5 O28 2.784272 1_655
Na6 O43 2.466928 1_665
Na6 O44 2.481740 1_555
Na6 O42 2.493108 1_565
Na6 O36 2.541240 1_655
Na6 O38 2.577811 1_665
Na6 O37 2.582743 1_555
Na7 O45 2.466928 1_446
Na7 O47 2.481740 1_556
Na7 O46 2.493108 1_456
Na7 O40 2.541240 1_545
Na7 O41 2.577811 1_445
Na7 O39 2.582743 1_555
Na8 O55 2.466928 1_555
Na8 O56 2.481740 1_555
Na8 O54 2.493108 1_555
Na8 O48 2.541240 1_555
Na8 O50 2.577811 1_555
Na8 O49 2.582743 1_555
Na9 O57 2.466928 1_555
Na9 O59 2.481740 1_555
Na9 O58 2.493108 1_555
Na9 O52 2.541240 1_555
Na9 O53 2.577811 1_555
Na9 O51 2.582743 1_555
Na10 O67 2.466928 1_555
Na10 O68 2.481740 1_555
Na10 O66 2.493108 1_555
Na10 O60 2.541240 1_555
Na10 O62 2.577811 1_555
Na10 O61 2.582743 1_555
Na11 O69 2.466928 1_555
Na11 O71 2.481740 1_555
Na11 O70 2.493108 1_555
Na11 O64 2.541240 1_555
Na11 O65 2.577811 1_555
Na11 O63 2.582743 1_555
Ge0 O7 1.888767 1_555
Ge0 O42 1.938316 1_455
Ge0 O6 1.942632 1_445
Ge0 O43 1.972774 1_555
Ge0 O8 1.994691 1_545
Ge0 O44 2.005155 1_445
Ge1 O9 1.888767 1_555
Ge1 O46 1.938316 1_565
Ge1 O10 1.942632 1_665
Ge1 O45 1.972774 1_555
Ge1 O11 1.994691 1_655
Ge1 O47 2.005155 1_665
Ge2 O19 1.888767 1_556
Ge2 O54 1.938316 1_555
Ge2 O18 1.942632 1_556
Ge2 O55 1.972774 1_555
Ge2 O20 1.994691 1_556
Ge2 O56 2.005155 1_555
Ge3 O21 1.888767 1_555
Ge3 O58 1.938316 1_555
Ge3 O22 1.942632 1_555
Ge3 O57 1.972774 1_555
Ge3 O23 1.994691 1_555
Ge3 O59 2.005155 1_555
Ge4 O31 1.888767 1_555
Ge4 O66 1.938316 1_555
Ge4 O30 1.942632 1_555
Ge4 O67 1.972774 1_555
Ge4 O32 1.994691 1_555
Ge4 O68 2.005155 1_555
Ge5 O33 1.888767 1_555
Ge5 O70 1.938316 1_555
Ge5 O34 1.942632 1_555
Ge5 O69 1.972774 1_555
Ge5 O35 1.994691 1_555
Ge5 O71 2.005155 1_555
O0 P0 1.516188 1_545
O0 Sc0 1.992208 1_445
O1 P1 1.507095 1_555
O1 Sc0 1.970635 1_555
O2 P2 1.517309 1_655
O2 Sc0 2.059720 1_545
O3 P3 1.507095 1_555
O3 Sc1 1.970635 1_555
O4 P4 1.516188 1_655
O4 Sc1 1.992208 1_665
O5 P5 1.517309 1_545
O5 Sc1 2.059720 1_655
O6 P5 1.593099 1_555
O7 P3 1.575749 1_555
O8 P4 1.590565 1_555
O9 P1 1.575749 1_555
O10 P2 1.593099 1_555
O11 P0 1.590565 1_555
O12 P6 1.516188 1_555
O12 Sc2 1.992208 1_555
O13 P7 1.507095 1_555
O13 Sc2 1.970635 1_555
O14 P8 1.517309 1_555
O14 Sc2 2.059720 1_555
O15 P9 1.507095 1_555
O15 Sc3 1.970635 1_555
O16 P10 1.516188 1_555
O16 Sc3 1.992208 1_555
O17 P11 1.517309 1_555
O17 Sc3 2.059720 1_555
O18 P11 1.593099 1_555
O19 P9 1.575749 1_555
O20 P10 1.590565 1_555
O21 P7 1.575749 1_555
O22 P8 1.593099 1_555
O23 P6 1.590565 1_555
O24 P12 1.516188 1_555
O24 Sc4 1.992208 1_556
O25 P13 1.507095 1_555
O25 Sc4 1.970635 1_556
O26 P14 1.517309 1_555
O26 Sc4 2.059720 1_556
O27 P15 1.507095 1_555
O27 Sc5 1.970635 1_555
O28 P16 1.516188 1_555
O28 Sc5 1.992208 1_555
O29 P17 1.517309 1_555
O29 Sc5 2.059720 1_555
O30 P17 1.593099 1_555
O31 P15 1.575749 1_555
O32 P16 1.590565 1_555
O33 P13 1.575749 1_555
O34 P14 1.593099 1_555
O35 P12 1.590565 1_555
O36 P17 1.517295 1_555
O36 Sc0 2.043779 1_455
O37 P15 1.535918 1_555
O37 Sc0 2.095277 1_555
O38 P16 1.534950 1_555
O38 Sc0 2.097061 1_445
O39 P13 1.535918 1_555
O39 Sc1 2.095277 1_555
O40 P14 1.517295 1_555
O40 Sc1 2.043779 1_565
O41 P12 1.534950 1_555
O41 Sc1 2.097061 1_665
O42 P6 1.565501 1_555
O43 P7 1.582193 1_555
O44 P8 1.586313 1_555
O45 P9 1.582193 1_555
O46 P10 1.565501 1_555
O47 P11 1.586313 1_555
O48 P5 1.517295 1_545
O48 Sc2 2.043779 1_555
O49 P3 1.535918 1_555
O49 Sc2 2.095277 1_555
O50 P4 1.534950 1_655
O50 Sc2 2.097061 1_555
O51 P1 1.535918 1_555
O51 Sc3 2.095277 1_555
O52 P2 1.517295 1_655
O52 Sc3 2.043779 1_555
O53 P0 1.534950 1_545
O53 Sc3 2.097061 1_555
O54 P12 1.565512 1_555
O55 P13 1.582179 1_655
O56 P14 1.586311 1_545
O57 P15 1.582179 1_545
O58 P16 1.565512 1_555
O59 P17 1.586311 1_655
O60 P11 1.517307 1_555
O60 Sc4 2.043779 1_555
O61 P9 1.535905 1_455
O61 Sc4 2.095277 1_555
O62 P10 1.534946 1_565
O62 Sc4 2.097061 1_555
O63 P7 1.535904 1_565
O63 Sc5 2.095277 1_555
O64 P8 1.517307 1_555
O64 Sc5 2.043779 1_555
O65 P6 1.534946 1_455
O65 Sc5 2.097061 1_555
O66 P0 1.565501 1_555
O67 P1 1.582193 1_555
O68 P2 1.586313 1_555
O69 P3 1.582193 1_555
O70 P4 1.565501 1_555
O71 P5 1.586313 1_555
