# generated using pymatgen
data_Li8CoO6
_symmetry_space_group_name_H-M   'P 1'
_cell_length_a   5.45702488
_cell_length_b   5.45707010
_cell_length_c   10.67414812
_cell_angle_alpha   89.99955681
_cell_angle_beta   90.00056865
_cell_angle_gamma   120.00256692
_symmetry_Int_Tables_number   1
_chemical_formula_structural   Li8CoO6
_chemical_formula_sum   'Li16 Co2 O12'
_cell_volume   275.27583524
_cell_formula_units_Z   2
loop_
 _symmetry_equiv_pos_site_id
 _symmetry_equiv_pos_as_xyz
  1  'x, y, z'
loop_
 _atom_site_type_symbol
 _atom_site_label
 _atom_site_symmetry_multiplicity
 _atom_site_fract_x
 _atom_site_fract_y
 _atom_site_fract_z
 _atom_site_occupancy
  Li  Li0  1  0.68869819  0.00003870  0.76779661  1
  Li  Li1  1  0.68866926  0.68866499  0.26779644  1
  Li  Li2  1  0.99996288  0.31129981  0.26780076  1
  Li  Li3  1  0.00004280  0.68870020  0.76779876  1
  Li  Li4  1  0.31132604  0.31133514  0.76779028  1
  Li  Li5  1  0.31130165  0.99995959  0.26780070  1
  Li  Li6  1  0.61049965  0.99997614  0.12783982  1
  Li  Li7  1  0.61050863  0.61050978  0.62784012  1
  Li  Li8  1  0.00001521  0.38949380  0.62782117  1
  Li  Li9  1  0.99997955  0.61050556  0.12784000  1
  Li  Li10  1  0.38950356  0.38949828  0.12785646  1
  Li  Li11  1  0.38949698  0.00001677  0.62782309  1
  Li  Li12  1  0.66669699  0.33335917  0.40569671  1
  Li  Li13  1  0.33332242  0.66664970  0.90570229  1
  Li  Li14  1  0.33335923  0.66669212  0.40569647  1
  Li  Li15  1  0.66664371  0.33330547  0.90570126  1
  Co  Co0  1  0.99985512  0.99985849  0.49573426  1
  Co  Co1  1  0.00011077  0.00014661  0.99580985  1
  O  O0  1  0.68667499  0.00002222  0.94901068  1
  O  O1  1  0.68647749  0.68647615  0.44898738  1
  O  O2  1  0.99998203  0.31332722  0.44899284  1
  O  O3  1  0.00001794  0.68670919  0.94901235  1
  O  O4  1  0.31353305  0.31353504  0.94900132  1
  O  O5  1  0.31333335  0.99997721  0.44899335  1
  O  O6  1  0.66664124  0.33329450  0.21655919  1
  O  O7  1  1.00002060  1.00002487  0.16784815  1
  O  O8  1  0.66669366  0.33334084  0.71655054  1
  O  O9  1  0.33330327  0.66663110  0.21655864  1
  O  O10  1  -0.00002614  -0.00002714  0.66780204  1
  O  O11  1  0.33335489  0.66668048  0.71655048  1
loop_
_geom_bond_atom_site_label_1
_geom_bond_atom_site_label_2
_geom_bond_distance
_geom_bond_site_symmetry_2
Li0 O0 1.934337 1_555
Li0 O8 1.959661 1_555
Li0 O11 1.959819 1_545
Li0 O10 2.006308 1_655
Li1 O1 1.934096 1_555
Li1 O9 1.959852 1_555
Li1 O6 1.959913 1_555
Li1 O7 2.006206 1_555
Li2 O2 1.934103 1_555
Li2 O6 1.959706 1_555
Li2 O9 1.959735 1_655
Li2 O7 2.006058 1_545
Li3 O3 1.934331 1_555
Li3 O11 1.959759 1_555
Li3 O8 1.959853 1_455
Li3 O10 2.006309 1_565
Li4 O4 1.934311 1_555
Li4 O11 1.959779 1_555
Li4 O8 1.959944 1_555
Li4 O10 2.006436 1_555
Li5 O5 1.934109 1_555
Li5 O6 1.959743 1_565
Li5 O9 1.959787 1_555
Li5 O7 2.006075 1_455
Li6 O6 1.934410 1_565
Li6 O9 1.934466 1_555
Li6 O0 1.953564 1_564
Li6 O7 2.167966 1_555
Li7 O11 1.934354 1_555
Li7 O8 1.934462 1_555
Li7 O1 1.953590 1_555
Li7 O10 2.167626 1_665
Li8 O8 1.934446 1_455
Li8 O11 1.934481 1_555
Li8 O2 1.953553 1_455
Li8 O10 2.167946 1_555
Li9 O9 1.934431 1_655
Li9 O6 1.934471 1_555
Li9 O3 1.953580 1_654
Li9 O7 2.168002 1_555
Li10 O9 1.934309 1_555
Li10 O6 1.934320 1_555
Li10 O4 1.953613 1_554
Li10 O7 2.167765 1_445
Li11 O8 1.934448 1_555
Li11 O11 1.934524 1_545
Li11 O5 1.953553 1_545
Li11 O10 2.167937 1_555
Li12 O1 1.931435 1_555
Li12 O2 1.931885 1_555
Li12 O5 1.932192 1_545
Li12 O6 2.018882 1_555
Li13 O4 1.931416 1_555
Li13 O3 1.932112 1_555
Li13 O0 1.932165 1_565
Li13 O11 2.019034 1_555
Li14 O1 1.931410 1_555
Li14 O5 1.931892 1_555
Li14 O2 1.932185 1_455
Li14 O9 2.018885 1_555
Li15 O4 1.931435 1_555
Li15 O0 1.931923 1_555
Li15 O3 1.932325 1_655
Li15 O8 2.019023 1_555
Co0 O1 1.781375 1_555
Co0 O2 1.781559 1_565
Co0 O5 1.781623 1_655
Co0 O10 1.836677 1_665
Co1 O0 1.781551 1_455
Co1 O3 1.781659 1_545
Co1 O4 1.781694 1_555
Co1 O7 1.836362 1_446
