# generated using pymatgen
data_Na9Nb4Zn2Si6(PO12)3
_symmetry_space_group_name_H-M   'P 1'
_cell_length_a   9.10212467
_cell_length_b   27.24326108
_cell_length_c   22.29730413
_cell_angle_alpha   89.94099523
_cell_angle_beta   90.03787356
_cell_angle_gamma   120.04418371
_symmetry_Int_Tables_number   1
_chemical_formula_structural   Na9Nb4Zn2Si6(PO12)3
_chemical_formula_sum   'Na54 Nb24 Zn12 Si36 P18 O216'
_cell_volume   4786.20277475
_cell_formula_units_Z   6
loop_
 _symmetry_equiv_pos_site_id
 _symmetry_equiv_pos_as_xyz
  1  'x, y, z'
loop_
 _atom_site_type_symbol
 _atom_site_label
 _atom_site_symmetry_multiplicity
 _atom_site_fract_x
 _atom_site_fract_y
 _atom_site_fract_z
 _atom_site_occupancy
  Na  Na0  1  0.01457355  0.99940092  0.49343170  1
  Na  Na1  1  0.00489514  0.33021792  0.50213465  1
  Na  Na2  1  0.99722252  0.66665827  0.49957090  1
  Na  Na3  1  0.98943222  0.00532572  0.00043351  1
  Na  Na4  1  0.01524118  0.33870002  -0.00006090  1
  Na  Na5  1  0.00311587  0.66636511  0.00968722  1
  Na  Na6  1  0.68000561  0.11137692  0.82928000  1
  Na  Na7  1  0.64881888  0.44427145  0.84417079  1
  Na  Na8  1  0.67989684  0.77578397  0.82358872  1
  Na  Na9  1  0.66221985  0.10670933  0.32391875  1
  Na  Na10  1  0.66915041  0.44249619  0.33931413  1
  Na  Na11  1  0.66750428  0.77928705  0.33335122  1
  Na  Na12  1  0.32658197  0.22011740  0.16548020  1
  Na  Na13  1  0.31919673  0.55639495  0.17213887  1
  Na  Na14  1  0.33719643  0.89279951  0.16184951  1
  Na  Na15  1  0.32249774  0.21833745  0.67037350  1
  Na  Na16  1  0.34223638  0.55620215  0.67325179  1
  Na  Na17  1  0.30125010  0.88561680  0.65879664  1
  Na  Na18  1  0.61759053  0.65963063  0.25591617  1
  Na  Na19  1  0.37969359  0.12012948  0.24457247  1
  Na  Na20  1  0.36611119  0.46148188  0.25690505  1
  Na  Na21  1  0.35498482  0.78697362  0.24322831  1
  Na  Na22  1  0.98402023  0.20496091  0.24154391  1
  Na  Na23  1  0.02344029  0.54892010  0.25114794  1
  Na  Na24  1  0.60816337  0.20386893  0.74783006  1
  Na  Na25  1  0.61868385  0.54303025  0.75877388  1
  Na  Na26  1  0.62376659  0.87011084  0.74370757  1
  Na  Na27  1  0.99569199  0.12854610  0.74997455  1
  Na  Na28  1  0.01886464  0.46239726  0.75614701  1
  Na  Na29  1  0.38569347  0.00506579  0.74378519  1
  Na  Na30  1  0.37084467  0.32796317  0.75716038  1
  Na  Na31  1  0.38883484  0.66722148  0.74932739  1
  Na  Na32  1  0.30964184  0.78465947  0.57684623  1
  Na  Na33  1  0.02144196  0.56483959  0.57699003  1
  Na  Na34  1  0.66910792  0.32433723  0.57740362  1
  Na  Na35  1  0.65220442  0.98547666  0.57748926  1
  Na  Na36  1  0.30818333  0.32684767  0.07550455  1
  Na  Na37  1  0.30829259  0.98423674  0.07633199  1
  Na  Na38  1  0.66495211  0.22847462  0.08744824  1
  Na  Na39  1  0.68483448  0.57181028  0.08718564  1
  Na  Na40  1  0.65202982  0.90036130  0.07378256  1
  Na  Na41  1  0.05806072  0.77844585  0.08395389  1
  Na  Na42  1  0.95527526  0.54965869  0.92328446  1
  Na  Na43  1  0.98155344  0.89153223  0.92000413  1
  Na  Na44  1  0.69625158  0.34848024  0.92417121  1
  Na  Na45  1  0.34095900  0.10331340  0.91209157  1
  Na  Na46  1  0.32991978  0.76976582  0.92225288  1
  Na  Na47  1  0.96687923  0.09360892  0.40996315  1
  Na  Na48  1  0.95109670  0.43542214  0.42314339  1
  Na  Na49  1  0.98462147  0.77204790  0.42365441  1
  Na  Na50  1  0.31055977  0.00740615  0.41520833  1
  Na  Na51  1  0.35101743  0.35060491  0.42662732  1
  Na  Na52  1  0.69772135  0.54996655  0.42332086  1
  Na  Na53  1  0.71637032  0.89664153  0.40934384  1
  Nb  Nb0  1  0.99191414  0.33263641  0.35435152  1
  Nb  Nb1  1  0.01014266  0.66788505  0.35222339  1
  Nb  Nb2  1  0.99410404  0.99978121  0.85513085  1
  Nb  Nb3  1  0.00668422  0.33480382  0.85559297  1
  Nb  Nb4  1  0.99171820  0.66464777  0.85650539  1
  Nb  Nb5  1  0.00280099  0.99893665  0.64288483  1
  Nb  Nb6  1  0.00180359  0.33278107  0.64416213  1
  Nb  Nb7  1  0.99934576  0.66949953  0.64437223  1
  Nb  Nb8  1  0.99757201  0.00045850  0.14836562  1
  Nb  Nb9  1  0.99448112  0.33298386  0.14583246  1
  Nb  Nb10  1  0.66714964  0.44423373  0.68615198  1
  Nb  Nb11  1  0.66646582  0.44237978  0.18553032  1
  Nb  Nb12  1  0.66729703  0.77639367  0.18899361  1
  Nb  Nb13  1  0.67237888  0.11079206  0.97991501  1
  Nb  Nb14  1  0.66932859  0.77820517  0.97697573  1
  Nb  Nb15  1  0.66812204  0.11379406  0.48211933  1
  Nb  Nb16  1  0.66815440  0.77767398  0.48023637  1
  Nb  Nb17  1  0.33029560  0.22094401  0.01784778  1
  Nb  Nb18  1  0.32883766  0.55515855  0.02067352  1
  Nb  Nb19  1  0.33393882  0.22164125  0.52323694  1
  Nb  Nb20  1  0.33968213  0.55641662  0.52203291  1
  Nb  Nb21  1  0.33953498  0.22210669  0.31285414  1
  Nb  Nb22  1  0.32797835  0.88971185  0.31290077  1
  Nb  Nb23  1  0.33015671  0.88837805  0.81240442  1
  Zn  Zn0  1  0.99692253  0.99623666  0.34791990  1
  Zn  Zn1  1  0.01026362  0.66980588  0.14951147  1
  Zn  Zn2  1  0.67465696  0.11302533  0.67861629  1
  Zn  Zn3  1  0.66922688  0.77609084  0.68622708  1
  Zn  Zn4  1  0.67224250  0.11406664  0.18061154  1
  Zn  Zn5  1  0.65318326  0.44104389  0.98756088  1
  Zn  Zn6  1  0.66351523  0.44282534  0.48965923  1
  Zn  Zn7  1  0.32928443  0.88892401  0.01081013  1
  Zn  Zn8  1  0.32059058  0.88687458  0.51406541  1
  Zn  Zn9  1  0.33631718  0.56020712  0.31766254  1
  Zn  Zn10  1  0.33463388  0.22005510  0.82035191  1
  Zn  Zn11  1  0.33653991  0.55796980  0.81685051  1
  Si  Si0  1  0.28852229  0.33305854  0.25028958  1
  Si  Si1  1  0.29090231  0.66435950  0.24513261  1
  Si  Si2  1  0.70299287  0.23420902  0.24957877  1
  Si  Si3  1  0.70223682  0.90303520  0.25236317  1
  Si  Si4  1  0.99905942  0.43131072  0.25100987  1
  Si  Si5  1  0.99864020  0.76397939  0.24756323  1
  Si  Si6  1  0.29343448  0.43058621  0.75003634  1
  Si  Si7  1  0.28844618  0.76292592  0.75123423  1
  Si  Si8  1  0.00171996  0.57037816  0.74895709  1
  Si  Si9  1  0.99923451  0.90184055  0.74980654  1
  Si  Si10  1  0.70916848  0.00080865  0.74813521  1
  Si  Si11  1  0.70773765  0.33193231  0.74964848  1
  Si  Si12  1  0.95846383  0.11078845  0.58643702  1
  Si  Si13  1  0.95857887  0.44376632  0.58012764  1
  Si  Si14  1  0.37333598  0.34657097  0.58072688  1
  Si  Si15  1  0.37721865  0.68164940  0.58752799  1
  Si  Si16  1  0.66458759  0.20768952  0.58969891  1
  Si  Si17  1  0.66525686  0.54142834  0.58123368  1
  Si  Si18  1  0.96130153  0.20825220  0.08648885  1
  Si  Si19  1  0.96048690  0.87520201  0.08356547  1
  Si  Si20  1  0.66902952  0.34697993  0.07779648  1
  Si  Si21  1  0.66682053  0.68057861  0.08350005  1
  Si  Si22  1  0.37494973  0.11061724  0.08521275  1
  Si  Si23  1  0.37500248  0.44472929  0.08345659  1
  Si  Si24  1  0.62980310  0.22314665  0.91479805  1
  Si  Si25  1  0.62320045  0.89011513  0.91937875  1
  Si  Si26  1  0.03986987  0.12586009  0.91057591  1
  Si  Si27  1  0.04232383  0.79128997  0.91997004  1
  Si  Si28  1  0.33246283  0.65185718  0.91227148  1
  Si  Si29  1  0.33723662  0.98678059  0.91825131  1
  Si  Si30  1  0.62740410  0.32045738  0.41813423  1
  Si  Si31  1  0.62843296  0.65259242  0.41399186  1
  Si  Si32  1  0.33531970  0.12451250  0.41672797  1
  Si  Si33  1  0.33885630  0.79267635  0.41861338  1
  Si  Si34  1  0.04623858  0.22222757  0.41617019  1
  Si  Si35  1  0.04242278  0.89163504  0.41998789  1
  P  P0  1  0.29520250  0.00077324  0.25194858  1
  P  P1  1  0.71229035  0.56940506  0.24723234  1
  P  P2  1  0.99862519  0.09627058  0.25463055  1
  P  P3  1  0.28573994  0.09638143  0.74945774  1
  P  P4  1  0.99608219  0.23674138  0.75145664  1
  P  P5  1  0.71279804  0.66793718  0.74994000  1
  P  P6  1  0.95848329  0.77973510  0.58692143  1
  P  P7  1  0.37517784  0.01284144  0.58586813  1
  P  P8  1  0.66823600  0.87486479  0.58568559  1
  P  P9  1  0.95735397  0.54096481  0.07966113  1
  P  P10  1  0.66737502  0.01535803  0.08716163  1
  P  P11  1  0.37634886  0.77675983  0.08331681  1
  P  P12  1  0.62059225  0.55354211  0.91480614  1
  P  P13  1  0.04391596  0.45873907  0.91306237  1
  P  P14  1  0.33582813  0.32099837  0.91323148  1
  P  P15  1  0.62025261  0.98602109  0.42017468  1
  P  P16  1  0.33052526  0.45949835  0.41353939  1
  P  P17  1  0.03934310  0.55496429  0.41391360  1
  O  O0  1  0.21966344  0.01000241  0.30908464  1
  O  O1  1  0.19966717  0.34469334  0.30899296  1
  O  O2  1  0.18888130  0.67252238  0.30537738  1
  O  O3  1  0.83179232  0.27355713  0.30531650  1
  O  O4  1  0.82632887  0.60011738  0.30417696  1
  O  O5  1  0.80401867  0.92551130  0.31332515  1
  O  O6  1  0.99221257  0.06567085  0.31234230  1
  O  O7  1  0.97657223  0.39353253  0.31225800  1
  O  O8  1  0.97093282  0.72183477  0.30650550  1
  O  O9  1  0.19127083  0.06216767  0.80705078  1
  O  O10  1  0.19867830  0.39065225  0.80985485  1
  O  O11  1  0.17681129  0.72105587  0.80825788  1
  O  O12  1  0.99129581  0.27204080  0.80746190  1
  O  O13  1  0.97095701  0.59914573  0.80980305  1
  O  O14  1  0.99003082  0.93797195  0.80886022  1
  O  O15  1  0.83251446  0.00647086  0.80587410  1
  O  O16  1  0.83411566  0.34186383  0.80866550  1
  O  O17  1  0.81554568  0.66688022  0.80612790  1
  O  O18  1  0.80494362  0.32571963  0.69063915  1
  O  O19  1  0.81724490  0.66653546  0.69424917  1
  O  O20  1  0.80537661  0.99168311  0.68916361  1
  O  O21  1  0.17253242  0.06090107  0.69442027  1
  O  O22  1  0.16739126  0.39428654  0.69441965  1
  O  O23  1  0.17643008  0.73321378  0.68943592  1
  O  O24  1  0.00397865  0.27284105  0.69592565  1
  O  O25  1  0.01526830  0.61134175  0.69127723  1
  O  O26  1  0.02455150  0.94375235  0.69145983  1
  O  O27  1  0.79806909  0.27019528  0.18883917  1
  O  O28  1  0.78597493  0.60443769  0.19056676  1
  O  O29  1  0.80754103  0.94433433  0.19392679  1
  O  O30  1  0.01991335  0.06348294  0.19911151  1
  O  O31  1  0.00982115  0.39236150  0.19618001  1
  O  O32  1  0.04360323  0.74245374  0.18753424  1
  O  O33  1  0.16889010  0.32297637  0.19123585  1
  O  O34  1  0.16524494  0.65240323  0.19085251  1
  O  O35  1  0.17505134  0.99346382  0.19596555  1
  O  O36  1  0.88989174  0.12101122  0.64829288  1
  O  O37  1  0.86327497  0.45432011  0.63874473  1
  O  O38  1  0.87248264  0.78482587  0.64149072  1
  O  O39  1  0.47576665  0.04019227  0.64319682  1
  O  O40  1  0.50353517  0.38123453  0.63824499  1
  O  O41  1  0.47228866  0.70267575  0.64980774  1
  O  O42  1  0.63478235  0.17437239  0.65111908  1
  O  O43  1  0.64145161  0.50115208  0.64049429  1
  O  O44  1  0.63971131  0.83965843  0.64189578  1
  O  O45  1  0.89593054  0.17652119  0.14897171  1
  O  O46  1  0.86472866  0.50265809  0.13691310  1
  O  O47  1  0.84498053  0.83182302  0.13882967  1
  O  O48  1  0.64108331  0.04311475  0.14154239  1
  O  O49  1  0.64303892  0.38295307  0.13468020  1
  O  O50  1  0.64191656  0.70862606  0.14560726  1
  O  O51  1  0.48980080  0.12896246  0.14471911  1
  O  O52  1  0.49983386  0.45686917  0.14379413  1
  O  O53  1  0.48021674  0.77639875  0.13949947  1
  O  O54  1  0.46553096  0.09864702  0.02737235  1
  O  O55  1  0.44521253  0.42547363  0.02850932  1
  O  O56  1  0.48101729  0.77839784  0.02635336  1
  O  O57  1  0.82542043  0.17180819  0.03272743  1
  O  O58  1  0.85530947  0.51328375  0.02299484  1
  O  O59  1  0.84575444  0.84726722  0.02213844  1
  O  O60  1  0.68670664  0.05060821  0.02888729  1
  O  O61  1  0.69879123  0.38023518  0.01670413  1
  O  O62  1  0.68413945  0.72445513  0.02849364  1
  O  O63  1  0.46939577  0.05153262  0.52937003  1
  O  O64  1  0.44408355  0.38150069  0.52005122  1
  O  O65  1  0.48356445  0.72559448  0.53112503  1
  O  O66  1  0.68589127  0.17218558  0.53181565  1
  O  O67  1  0.71430092  0.51892165  0.52256198  1
  O  O68  1  0.68868745  0.84474649  0.52820347  1
  O  O69  1  0.82915317  0.10003449  0.52818581  1
  O  O70  1  0.84320688  0.42761332  0.52107572  1
  O  O71  1  0.85575081  0.77508180  0.52742095  1
  O  O72  1  0.53529777  0.23451065  0.97291041  1
  O  O73  1  0.52357246  0.55908766  0.97084402  1
  O  O74  1  0.54930091  0.89948766  0.98016256  1
  O  O75  1  0.17483827  0.16243583  0.96589597  1
  O  O76  1  0.15641065  0.49004450  0.96934010  1
  O  O77  1  0.15361567  0.81213137  0.98006388  1
  O  O78  1  0.31987060  0.28432863  0.97026227  1
  O  O79  1  0.30506657  0.60774979  0.96859854  1
  O  O80  1  0.28037920  0.94744850  0.97725806  1
  O  O81  1  0.53783517  0.28506653  0.47886506  1
  O  O82  1  0.51958842  0.60860953  0.46972312  1
  O  O83  1  0.54826995  0.95168405  0.47746526  1
  O  O84  1  0.32311434  0.16331249  0.47086563  1
  O  O85  1  0.30774592  0.49097020  0.46896769  1
  O  O86  1  0.29223845  0.81351154  0.47891510  1
  O  O87  1  0.17396517  0.23399566  0.47254628  1
  O  O88  1  0.14712537  0.56071889  0.47097710  1
  O  O89  1  0.16404376  0.90401593  0.47576405  1
  O  O90  1  0.13087043  0.21068588  0.35582355  1
  O  O91  1  0.11648159  0.54725641  0.35639164  1
  O  O92  1  0.14095035  0.88137019  0.36094420  1
  O  O93  1  0.49981384  0.28188062  0.36136584  1
  O  O94  1  0.53282934  0.63126372  0.35176464  1
  O  O95  1  0.50073411  0.95354343  0.36506161  1
  O  O96  1  0.35707707  0.16235356  0.35475863  1
  O  O97  1  0.34632093  0.49201341  0.35596964  1
  O  O98  1  0.36524602  0.83389939  0.36012494  1
  O  O99  1  0.10714989  0.15848860  0.84850097  1
  O  O100  1  0.12329956  0.49173341  0.85536657  1
  O  O101  1  0.14250235  0.83514725  0.86345248  1
  O  O102  1  0.35361449  0.29287723  0.85642955  1
  O  O103  1  0.36421536  0.63020981  0.84994105  1
  O  O104  1  0.35948490  0.95396643  0.85942392  1
  O  O105  1  0.51457067  0.20671471  0.85545329  1
  O  O106  1  0.52650317  0.54760225  0.85625367  1
  O  O107  1  0.49966608  0.88033497  0.86089727  1
  O  O108  1  0.03258362  0.28003649  0.40967346  1
  O  O109  1  0.02289039  0.61023348  0.41176788  1
  O  O110  1  0.00824256  0.94372446  0.41230150  1
  O  O111  1  0.81772740  0.32617282  0.41272274  1
  O  O112  1  0.81771377  0.65699786  0.41486413  1
  O  O113  1  0.80032390  0.99677366  0.41121765  1
  O  O114  1  0.16773694  0.06320829  0.41712017  1
  O  O115  1  0.16395315  0.39922597  0.41463664  1
  O  O116  1  0.16869872  0.72929902  0.40566836  1
  O  O117  1  0.03397351  0.06399063  0.91336518  1
  O  O118  1  0.02901949  0.39829994  0.91315248  1
  O  O119  1  0.01349701  0.72764963  0.90688018  1
  O  O120  1  0.16829458  0.32486168  0.91316454  1
  O  O121  1  0.15368635  0.65564064  0.91369636  1
  O  O122  1  0.17456421  0.99738248  0.90633204  1
  O  O123  1  0.81676104  0.28207031  0.91206253  1
  O  O124  1  0.80041860  0.61056264  0.91530217  1
  O  O125  1  0.82088354  0.94300786  0.91036021  1
  O  O126  1  0.96926316  0.05127004  0.58707286  1
  O  O127  1  0.98342073  0.38896214  0.59236164  1
  O  O128  1  0.96800053  0.72233478  0.58551739  1
  O  O129  1  0.19591589  0.00883706  0.58680127  1
  O  O130  1  0.18287126  0.33638607  0.59352350  1
  O  O131  1  0.18484348  0.67617509  0.58467811  1
  O  O132  1  0.83386850  0.27200034  0.58645305  1
  O  O133  1  0.83047624  0.60547866  0.59289837  1
  O  O134  1  0.83603653  0.93481890  0.58684002  1
  O  O135  1  0.97903001  0.27223624  0.08460993  1
  O  O136  1  0.97507971  0.59923444  0.08652339  1
  O  O137  1  0.97001850  0.93774048  0.09083040  1
  O  O138  1  0.83594137  0.01099928  0.09018704  1
  O  O139  1  0.82669388  0.33525910  0.09032293  1
  O  O140  1  0.83304716  0.67421961  0.08305697  1
  O  O141  1  0.18607439  0.05275523  0.09102862  1
  O  O142  1  0.18364098  0.38978810  0.09512593  1
  O  O143  1  0.20116143  0.72424223  0.07972264  1
  O  O144  1  0.68860023  0.05596490  0.74867849  1
  O  O145  1  0.70313688  0.39215733  0.74516935  1
  O  O146  1  0.69682391  0.72009550  0.75166627  1
  O  O147  1  0.45853563  0.09999432  0.75044166  1
  O  O148  1  0.47703324  0.43195782  0.74560667  1
  O  O149  1  0.47091105  0.76761544  0.75333520  1
  O  O150  1  0.83269504  0.17973861  0.75455220  1
  O  O151  1  0.82414251  0.50818349  0.74428426  1
  O  O152  1  0.82762753  0.84245388  0.74877125  1
  O  O153  1  0.68674660  0.17310126  0.25426627  1
  O  O154  1  0.70979489  0.51082341  0.24580842  1
  O  O155  1  0.66977116  0.83812080  0.23857202  1
  O  O156  1  0.84938970  0.10611316  0.24874367  1
  O  O157  1  0.82840400  0.43753729  0.24309606  1
  O  O158  1  0.82286089  0.76763752  0.24756650  1
  O  O159  1  0.47008615  0.05240277  0.24211781  1
  O  O160  1  0.47494587  0.39137210  0.24277347  1
  O  O161  1  0.47475935  0.72513572  0.24688032  1
  O  O162  1  0.65003579  0.16744929  0.92940141  1
  O  O163  1  0.65901826  0.50514657  0.92175532  1
  O  O164  1  0.64048521  0.83203661  0.91996850  1
  O  O165  1  0.85167512  0.11583566  0.92736024  1
  O  O166  1  0.86437010  0.45008859  0.91779079  1
  O  O167  1  0.85668707  0.78840141  0.92204974  1
  O  O168  1  0.50377463  0.05079151  0.92155119  1
  O  O169  1  0.49287224  0.37995943  0.91801909  1
  O  O170  1  0.48678322  0.71699260  0.92721500  1
  O  O171  1  0.62473048  0.04469923  0.42126035  1
  O  O172  1  0.64505097  0.38192644  0.41293866  1
  O  O173  1  0.66148025  0.71701444  0.42946502  1
  O  O174  1  0.50563832  0.11797572  0.42382316  1
  O  O175  1  0.48621448  0.45224234  0.41957297  1
  O  O176  1  0.51402647  0.78847446  0.42193328  1
  O  O177  1  0.86142898  0.16395968  0.42521021  1
  O  O178  1  0.85817431  0.50383910  0.41902832  1
  O  O179  1  0.85534957  0.83104755  0.42256947  1
  O  O180  1  0.35039142  0.16632121  0.07086860  1
  O  O181  1  0.36488046  0.50321640  0.07671765  1
  O  O182  1  0.36997075  0.83187965  0.08780852  1
  O  O183  1  0.15459202  0.22030008  0.07193701  1
  O  O184  1  0.13684265  0.54472879  0.07703671  1
  O  O185  1  0.14491994  0.88137287  0.08550856  1
  O  O186  1  0.49333691  0.28433460  0.07991151  1
  O  O187  1  0.49443544  0.61738136  0.07338409  1
  O  O188  1  0.51665929  0.95479355  0.08085473  1
  O  O189  1  0.36577093  0.28495873  0.58179783  1
  O  O190  1  0.34072925  0.61693229  0.57076709  1
  O  O191  1  0.35857680  0.95446786  0.57985739  1
  O  O192  1  0.50394296  0.21798551  0.57663548  1
  O  O193  1  0.49240528  0.54691438  0.57654708  1
  O  O194  1  0.51772801  0.88518890  0.57844462  1
  O  O195  1  0.14854606  0.16493334  0.57293902  1
  O  O196  1  0.14250980  0.50276428  0.57555964  1
  O  O197  1  0.14380743  0.82768511  0.58220678  1
  O  O198  1  0.30057011  0.27528085  0.25629377  1
  O  O199  1  0.32509138  0.61214284  0.25228907  1
  O  O200  1  0.30308761  0.94456081  0.25444954  1
  O  O201  1  0.51509843  0.22955912  0.25291761  1
  O  O202  1  0.53116225  0.55786215  0.25569990  1
  O  O203  1  0.51020951  0.89592717  0.25273821  1
  O  O204  1  0.17081199  0.15584236  0.25094814  1
  O  O205  1  0.16642340  0.49254006  0.24952188  1
  O  O206  1  0.16584421  0.82635545  0.26187433  1
  O  O207  1  0.29394482  0.15374508  0.74651745  1
  O  O208  1  0.31616169  0.49277252  0.75124646  1
  O  O209  1  0.30471489  0.82583205  0.75669185  1
  O  O210  1  0.15857235  0.23349133  0.75028887  1
  O  O211  1  0.16702880  0.56371775  0.74712553  1
  O  O212  1  0.18049003  0.90183297  0.75429597  1
  O  O213  1  0.52038687  0.27720723  0.75292491  1
  O  O214  1  0.54207583  0.61204272  0.74710224  1
  O  O215  1  0.52534963  0.94130749  0.75453897  1
loop_
_geom_bond_atom_site_label_1
_geom_bond_atom_site_label_2
_geom_bond_distance
_geom_bond_site_symmetry_2
Na0 O114 2.330439 1_565
Na0 O110 2.344023 1_555
Na0 O129 2.587760 1_565
Na0 O113 2.650347 1_455
Na0 O126 2.667807 1_465
Na0 O134 2.684810 1_455
Na1 O132 2.449277 1_455
Na1 O130 2.555111 1_555
Na1 O108 2.556234 1_555
Na1 O111 2.587869 1_455
Na1 O115 2.589877 1_555
Na1 O127 2.639552 1_455
Na2 O112 2.423344 1_555
Na2 O131 2.477523 1_655
Na2 O128 2.540590 1_555
Na2 O109 2.572322 1_655
Na2 O133 2.622190 1_555
Na2 O116 2.657460 1_655
Na3 O117 2.415266 1_654
Na3 O138 2.490256 1_555
Na3 O141 2.576527 1_655
Na3 O125 2.581562 1_544
Na3 O137 2.674155 1_545
Na3 O122 2.767599 1_644
Na4 O118 2.487309 1_554
Na4 O135 2.519465 1_455
Na4 O120 2.521401 1_554
Na4 O142 2.580076 1_555
Na4 O123 2.587253 1_454
Na4 O139 2.618903 1_455
Na5 O143 2.308570 1_555
Na5 O140 2.335408 1_455
Na5 O136 2.423186 1_455
Na5 O121 2.636443 1_554
Na5 O124 2.708695 1_454
Na5 O119 2.808135 1_554
Na6 O150 2.362463 1_555
Na6 O144 2.374651 1_555
Na6 O147 2.573022 1_555
Na6 O168 2.622305 1_555
Na6 O165 2.654233 1_555
Na6 O162 2.795860 1_555
Na7 O169 2.302777 1_555
Na7 O163 2.367109 1_555
Na7 O166 2.500801 1_555
Na7 O148 2.618991 1_555
Na7 O151 2.784447 1_555
Na7 O145 2.800685 1_555
Na8 O146 2.266410 1_555
Na8 O152 2.332641 1_555
Na8 O149 2.386347 1_555
Na8 O167 2.640158 1_555
Na8 O164 2.766549 1_555
Na8 O170 2.858755 1_555
Na9 O153 2.307314 1_555
Na9 O156 2.396634 1_555
Na9 O159 2.446334 1_555
Na9 O171 2.664102 1_555
Na9 O174 2.744323 1_555
Na9 O177 2.826898 1_555
Na10 O172 2.257963 1_555
Na10 O178 2.456656 1_555
Na10 O175 2.548177 1_555
Na10 O157 2.631158 1_555
Na10 O160 2.689621 1_555
Na10 O154 2.693001 1_555
Na11 O158 2.492635 1_555
Na11 O176 2.504028 1_555
Na11 O161 2.526157 1_555
Na11 O179 2.540925 1_555
Na11 O155 2.644912 1_555
Na11 O173 2.715411 1_555
Na12 O204 2.493763 1_555
Na12 O186 2.518485 1_555
Na12 O201 2.523121 1_555
Na12 O198 2.603452 1_555
Na12 O183 2.608562 1_555
Na12 O180 2.640124 1_555
Na13 O199 2.329637 1_555
Na13 O205 2.347713 1_555
Na13 O184 2.611723 1_555
Na13 O202 2.667129 1_555
Na13 O181 2.722018 1_555
Na13 O187 2.738019 1_555
Na14 O185 2.347112 1_555
Na14 O188 2.453030 1_555
Na14 O182 2.463945 1_555
Na14 O203 2.540863 1_555
Na14 O200 2.606385 1_555
Na14 O206 2.802260 1_555
Na15 O207 2.362867 1_555
Na15 O210 2.488716 1_555
Na15 O213 2.512704 1_555
Na15 O189 2.574437 1_555
Na15 O195 2.653081 1_555
Na15 O192 2.667708 1_555
Na16 O214 2.358979 1_555
Na16 O211 2.372664 1_555
Na16 O208 2.377072 1_555
Na16 O193 2.633076 1_555
Na16 O196 2.742325 1_555
Na16 O190 2.823870 1_555
Na17 O197 2.280023 1_555
Na17 O191 2.429620 1_555
Na17 O212 2.535523 1_555
Na17 O194 2.668391 1_555
Na17 O209 2.731738 1_555
Na17 O215 2.814601 1_555
Na18 O94 2.271932 1_555
Na18 O199 2.306385 1_555
Na18 O202 2.474209 1_555
Na18 O158 2.584172 1_555
Na18 O161 2.690268 1_555
Na18 O50 2.752873 1_555
Na19 O159 2.367423 1_555
Na19 O51 2.404124 1_555
Na19 O153 2.429319 1_555
Na19 O204 2.536641 1_555
Na19 O201 2.600567 1_555
Na19 O96 2.765024 1_555
Na20 O202 2.280797 1_555
Na20 O205 2.363454 1_555
Na20 O97 2.399535 1_555
Na20 O160 2.573926 1_555
Na20 O154 2.728327 1_555
Na20 O52 2.831249 1_555
Na20 O1 2.989204 1_555
Na21 O161 2.423211 1_555
Na21 O206 2.477738 1_555
Na21 O155 2.482783 1_555
Na21 O203 2.579384 1_555
Na21 O53 2.658080 1_555
Na21 O32 2.757240 1_555
Na21 O98 2.885095 1_555
Na22 O45 2.209703 1_555
Na22 O156 2.339724 1_555
Na22 O153 2.409175 1_555
Na22 O198 2.559859 1_655
Na22 O204 2.646207 1_655
Na22 O90 2.844552 1_655
Na23 O199 2.402193 1_555
Na23 O205 2.460925 1_555
Na23 O91 2.502320 1_555
Na23 O154 2.504865 1_455
Na23 O157 2.645401 1_455
Na23 O34 2.787873 1_555
Na23 O46 2.888223 1_455
Na24 O42 2.356630 1_555
Na24 O150 2.444606 1_555
Na24 O147 2.450918 1_555
Na24 O207 2.476835 1_555
Na24 O213 2.498427 1_555
Na24 O105 2.561162 1_555
Na25 O214 2.323860 1_555
Na25 O106 2.356137 1_555
Na25 O208 2.389512 1_555
Na25 O151 2.506414 1_555
Na25 O148 2.645702 1_555
Na25 O43 2.922961 1_555
Na25 O13 3.000548 1_555
Na26 O152 2.328758 1_555
Na26 O149 2.426483 1_555
Na26 O44 2.446978 1_555
Na26 O215 2.522707 1_555
Na26 O209 2.542644 1_555
Na26 O107 2.915789 1_555
Na27 O99 2.385994 1_655
Na27 O36 2.431042 1_555
Na27 O207 2.445612 1_655
Na27 O210 2.475451 1_655
Na27 O144 2.487848 1_555
Na27 O150 2.495792 1_555
Na28 O100 2.382619 1_555
Na28 O211 2.397946 1_555
Na28 O208 2.403595 1_555
Na28 O145 2.544373 1_455
Na28 O151 2.641913 1_455
Na28 O37 2.931025 1_455
Na29 O147 2.330999 1_555
Na29 O144 2.389133 1_555
Na29 O39 2.414685 1_555
Na29 O212 2.488450 1_545
Na29 O215 2.626816 1_545
Na29 O104 2.881680 1_545
Na30 O210 2.324146 1_555
Na30 O213 2.378816 1_555
Na30 O102 2.384018 1_555
Na30 O148 2.506818 1_555
Na30 O145 2.642251 1_555
Na31 O41 2.386867 1_555
Na31 O103 2.422721 1_555
Na31 O146 2.427528 1_555
Na31 O149 2.449705 1_555
Na31 O214 2.511483 1_555
Na31 O211 2.515796 1_555
Na32 O197 2.332138 1_555
Na32 O86 2.351962 1_555
Na32 O194 2.428019 1_555
Na32 O131 2.587110 1_555
Na32 O128 2.702485 1_455
Na32 O23 2.834074 1_555
Na32 O65 2.948038 1_555
Na32 O44 2.977579 1_555
Na33 O196 2.437526 1_555
Na33 O133 2.510283 1_455
Na33 O190 2.519820 1_555
Na33 O131 2.631523 1_555
Na33 O88 2.653599 1_555
Na33 O67 2.711097 1_455
Na33 O25 2.860080 1_555
Na33 O37 2.947514 1_455
Na34 O189 2.412023 1_555
Na34 O81 2.474079 1_555
Na34 O192 2.508702 1_555
Na34 O127 2.520332 1_555
Na34 O132 2.542213 1_555
Na34 O70 2.745112 1_555
Na34 O18 2.802567 1_555
Na34 O40 2.976662 1_555
Na35 O191 2.366159 1_555
Na35 O194 2.369521 1_555
Na35 O83 2.417837 1_555
Na35 O126 2.531247 1_565
Na35 O134 2.656911 1_555
Na35 O20 2.816536 1_555
Na35 O69 2.916292 1_565
Na36 O186 2.478976 1_555
Na36 O183 2.514627 1_555
Na36 O142 2.522944 1_555
Na36 O55 2.552112 1_555
Na36 O135 2.601450 1_455
Na36 O78 2.643681 1_554
Na36 O33 2.854371 1_555
Na36 O49 2.949723 1_555
Na37 O80 2.387028 1_554
Na37 O188 2.402812 1_555
Na37 O185 2.435725 1_555
Na37 O141 2.628772 1_565
Na37 O137 2.698968 1_455
Na37 O54 2.912623 1_565
Na37 O35 2.993416 1_555
Na37 O48 2.999376 1_565
Na38 O135 2.487015 1_555
Na38 O139 2.519198 1_555
Na38 O180 2.519298 1_555
Na38 O27 2.548253 1_555
Na38 O186 2.676498 1_555
Na38 O51 2.681373 1_555
Na38 O72 2.851587 1_554
Na38 O57 2.875659 1_555
Na39 O136 2.358258 1_555
Na39 O140 2.417254 1_555
Na39 O28 2.476530 1_555
Na39 O181 2.564838 1_555
Na39 O187 2.606224 1_555
Na40 O74 2.282032 1_554
Na40 O182 2.318060 1_555
Na40 O188 2.360609 1_555
Na40 O137 2.570381 1_555
Na40 O138 2.640105 1_565
Na41 O143 2.410909 1_555
Na41 O182 2.459317 1_555
Na41 O77 2.482683 1_554
Na41 O32 2.485838 1_555
Na41 O185 2.503867 1_555
Na41 O140 2.536623 1_455
Na42 O163 2.338539 1_555
Na42 O166 2.410597 1_555
Na42 O58 2.418291 1_556
Na42 O121 2.534088 1_655
Na42 O124 2.666900 1_555
Na42 O13 2.835721 1_555
Na42 O79 2.935288 1_655
Na43 O167 2.447459 1_555
Na43 O125 2.490815 1_555
Na43 O122 2.533986 1_655
Na43 O59 2.583362 1_556
Na43 O80 2.683075 1_655
Na43 O164 2.688155 1_555
Na43 O14 2.764810 1_555
Na43 O101 2.890604 1_655
Na44 O61 2.233713 1_556
Na44 O169 2.402141 1_555
Na44 O166 2.404659 1_555
Na44 O123 2.556937 1_555
Na44 O118 2.638282 1_655
Na44 O72 2.899668 1_555
Na44 O16 2.910653 1_555
Na45 O117 2.441058 1_555
Na45 O162 2.488815 1_555
Na45 O122 2.502522 1_545
Na45 O168 2.531876 1_555
Na45 O9 2.659005 1_555
Na45 O105 2.750509 1_555
Na45 O54 2.837050 1_556
Na45 O75 2.960566 1_555
Na46 O164 2.463624 1_555
Na46 O170 2.484514 1_555
Na46 O119 2.533685 1_555
Na46 O56 2.647189 1_556
Na46 O121 2.698719 1_555
Na46 O77 2.725682 1_555
Na46 O11 2.883441 1_555
Na46 O107 2.943894 1_555
Na47 O113 2.292127 1_545
Na47 O6 2.355895 1_555
Na47 O114 2.359950 1_655
Na47 O177 2.560066 1_555
Na47 O171 2.717130 1_555
Na48 O70 2.360200 1_555
Na48 O178 2.403337 1_555
Na48 O172 2.422874 1_555
Na48 O115 2.583798 1_655
Na48 O111 2.601771 1_555
Na48 O7 2.782205 1_555
Na49 O179 2.421224 1_555
Na49 O116 2.506037 1_655
Na49 O173 2.549536 1_555
Na49 O71 2.614783 1_555
Na49 O112 2.720898 1_555
Na49 O86 2.732267 1_655
Na49 O8 2.923391 1_555
Na49 O92 2.932681 1_655
Na50 O110 2.409509 1_545
Na50 O114 2.445820 1_555
Na50 O171 2.513648 1_555
Na50 O0 2.518813 1_555
Na50 O174 2.628398 1_555
Na50 O89 2.787208 1_545
Na50 O63 2.876807 1_555
Na51 O64 2.247815 1_555
Na51 O172 2.387007 1_555
Na51 O175 2.406965 1_555
Na51 O108 2.580731 1_555
Na51 O115 2.642387 1_555
Na51 O1 2.928725 1_555
Na51 O87 2.933702 1_555
Na52 O178 2.357860 1_555
Na52 O175 2.381009 1_555
Na52 O67 2.399609 1_555
Na52 O112 2.557537 1_555
Na52 O109 2.579971 1_655
Na52 O4 2.947814 1_555
Na52 O82 2.975105 1_555
Na53 O5 2.282377 1_555
Na53 O110 2.301129 1_655
Na53 O113 2.437233 1_555
Na53 O176 2.592111 1_555
Na53 O179 2.672555 1_555
Nb0 O3 1.887512 1_555
Nb0 O7 1.970109 1_555
Nb0 O111 1.990321 1_555
Nb0 O1 2.021511 1_655
Nb0 O108 2.058890 1_655
Nb0 O115 2.169717 1_655
Nb1 O2 1.884143 1_555
Nb1 O8 1.961738 1_455
Nb1 O116 1.971347 1_555
Nb1 O4 2.064978 1_455
Nb1 O109 2.102623 1_555
Nb1 O112 2.142143 1_455
Nb2 O15 1.915359 1_565
Nb2 O14 1.960175 1_555
Nb2 O125 1.987819 1_555
Nb2 O122 2.027442 1_655
Nb2 O9 2.050179 1_665
Nb2 O117 2.060601 1_665
Nb3 O10 1.935374 1_555
Nb3 O12 1.964378 1_455
Nb3 O16 1.974591 1_455
Nb3 O123 2.037164 1_455
Nb3 O120 2.069011 1_555
Nb3 O118 2.081571 1_555
Nb4 O11 1.940044 1_655
Nb4 O119 1.977334 1_655
Nb4 O17 1.982915 1_555
Nb4 O13 1.992585 1_555
Nb4 O121 2.053995 1_655
Nb4 O124 2.086071 1_555
Nb5 O26 1.940848 1_555
Nb5 O21 1.986731 1_565
Nb5 O20 1.994855 1_455
Nb5 O126 2.026382 1_465
Nb5 O129 2.062453 1_565
Nb5 O134 2.064921 1_455
Nb6 O22 1.951375 1_555
Nb6 O130 1.959824 1_555
Nb6 O127 1.989269 1_455
Nb6 O18 1.994626 1_455
Nb6 O24 2.006879 1_555
Nb6 O132 2.049745 1_455
Nb7 O23 1.954612 1_655
Nb7 O25 1.962520 1_655
Nb7 O19 1.964404 1_555
Nb7 O133 2.009784 1_555
Nb7 O128 2.069364 1_555
Nb7 O131 2.085775 1_655
Nb8 O29 1.926810 1_545
Nb8 O30 1.980851 1_655
Nb8 O35 2.019401 1_645
Nb8 O141 2.039502 1_655
Nb8 O137 2.050156 1_545
Nb8 O138 2.085517 1_555
Nb9 O31 1.916738 1_655
Nb9 O139 1.990053 1_555
Nb9 O142 1.992119 1_655
Nb9 O27 1.994595 1_555
Nb9 O33 2.012475 1_655
Nb9 O135 2.096070 1_555
Nb10 O40 1.935678 1_555
Nb10 O43 1.963476 1_555
Nb10 O37 1.972400 1_555
Nb10 O151 2.065589 1_555
Nb10 O148 2.070361 1_555
Nb10 O145 2.076701 1_555
Nb11 O49 1.899969 1_555
Nb11 O52 1.979675 1_555
Nb11 O157 2.007341 1_555
Nb11 O46 2.039601 1_555
Nb11 O160 2.042706 1_555
Nb11 O154 2.169542 1_555
Nb12 O47 1.923663 1_555
Nb12 O50 1.993497 1_555
Nb12 O155 2.004090 1_555
Nb12 O158 2.025505 1_555
Nb12 O53 2.028614 1_555
Nb12 O161 2.058154 1_555
Nb13 O57 1.942555 1_556
Nb13 O165 1.957823 1_555
Nb13 O162 2.000717 1_555
Nb13 O60 2.026795 1_556
Nb13 O54 2.037671 1_556
Nb13 O168 2.051944 1_555
Nb14 O62 1.917280 1_556
Nb14 O170 1.999905 1_555
Nb14 O167 2.003253 1_555
Nb14 O59 2.027099 1_556
Nb14 O56 2.040007 1_556
Nb14 O164 2.053447 1_555
Nb15 O66 1.878925 1_555
Nb15 O69 1.972640 1_555
Nb15 O174 2.013884 1_555
Nb15 O177 2.040909 1_555
Nb15 O63 2.045867 1_555
Nb15 O171 2.191081 1_555
Nb16 O65 1.932785 1_555
Nb16 O173 1.979763 1_555
Nb16 O71 2.036109 1_555
Nb16 O176 2.038339 1_555
Nb16 O68 2.044399 1_555
Nb16 O179 2.046708 1_555
Nb17 O75 1.904715 1_554
Nb17 O180 1.978435 1_555
Nb17 O72 1.983304 1_554
Nb17 O183 1.996734 1_555
Nb17 O78 2.068044 1_554
Nb17 O186 2.129722 1_555
Nb18 O79 1.937651 1_554
Nb18 O187 1.992503 1_555
Nb18 O181 2.032810 1_555
Nb18 O76 2.033243 1_554
Nb18 O73 2.049403 1_554
Nb18 O184 2.054039 1_555
Nb19 O84 1.935290 1_555
Nb19 O195 1.962378 1_555
Nb19 O192 1.993397 1_555
Nb19 O87 1.999698 1_555
Nb19 O81 2.048579 1_555
Nb19 O189 2.065950 1_555
Nb20 O82 1.931662 1_555
Nb20 O193 1.958150 1_555
Nb20 O190 1.971509 1_555
Nb20 O85 2.036761 1_555
Nb20 O196 2.038214 1_555
Nb20 O88 2.141114 1_555
Nb21 O93 1.890196 1_555
Nb21 O96 1.950748 1_555
Nb21 O90 2.008016 1_555
Nb21 O201 2.014508 1_555
Nb21 O198 2.079647 1_555
Nb21 O204 2.179220 1_555
Nb22 O92 1.926584 1_555
Nb22 O206 1.975541 1_555
Nb22 O98 2.012083 1_555
Nb22 O95 2.028043 1_555
Nb22 O203 2.073810 1_555
Nb22 O200 2.077823 1_555
Nb23 O101 1.958296 1_555
Nb23 O104 1.972075 1_555
Nb23 O107 1.983305 1_555
Nb23 O209 2.027095 1_555
Nb23 O212 2.040988 1_555
Nb23 O215 2.081931 1_555
O0 P0 1.527716 1_555
O0 Zn0 2.059414 1_445
O1 Si0 1.651309 1_555
O2 Si1 1.710339 1_555
O3 Si2 1.676453 1_555
O4 P1 1.587597 1_555
O5 Si3 1.585211 1_555
O5 Zn0 2.001028 1_555
O6 P2 1.517702 1_555
O6 Zn0 2.070606 1_545
O7 Si4 1.659137 1_555
O8 Si5 1.678247 1_555
O9 P3 1.566433 1_555
O10 Si6 1.662958 1_555
O11 Si7 1.669848 1_555
O12 P4 1.590794 1_555
O13 Si8 1.660029 1_655
O14 Si9 1.671862 1_555
O15 Si10 1.663373 1_555
O16 Si11 1.677839 1_555
O17 P5 1.571756 1_555
O18 Si11 1.641533 1_555
O19 P5 1.576463 1_555
O20 Si10 1.666682 1_565
O21 P3 1.582883 1_555
O22 Si6 1.642135 1_555
O23 Si7 1.663583 1_555
O24 P4 1.559593 1_455
O25 Si8 1.665574 1_555
O26 Si9 1.668305 1_455
O27 Si2 1.641198 1_555
O28 P1 1.521443 1_555
O28 Zn1 2.129741 1_655
O29 Si3 1.673654 1_555
O30 P2 1.594927 1_455
O31 Si4 1.654416 1_455
O32 Si5 1.595492 1_455
O32 Zn1 2.032159 1_555
O33 Si0 1.641439 1_555
O34 Si1 1.582725 1_555
O34 Zn1 1.931713 1_555
O35 P0 1.604525 1_565
O36 Si12 1.595419 1_555
O36 Zn2 1.979189 1_555
O37 Si13 1.671959 1_555
O38 P6 1.490901 1_555
O38 Zn3 2.008845 1_555
O39 P7 1.531261 1_555
O39 Zn2 2.059747 1_555
O40 Si14 1.679550 1_555
O41 Si15 1.583997 1_555
O41 Zn3 2.069868 1_555
O42 Si16 1.588824 1_555
O42 Zn2 1.976323 1_555
O43 Si17 1.660185 1_555
O44 P8 1.518815 1_555
O44 Zn3 2.123755 1_555
O45 Si18 1.589307 1_555
O45 Zn4 2.017099 1_555
O46 P9 1.595986 1_555
O47 Si19 1.665822 1_555
O48 P10 1.510901 1_555
O48 Zn4 2.007448 1_555
O49 Si20 1.691227 1_555
O50 Si21 1.651970 1_555
O51 Si22 1.606073 1_555
O51 Zn4 2.057948 1_555
O52 Si23 1.683157 1_555
O53 P11 1.571924 1_555
O54 Si22 1.649516 1_555
O55 Si23 1.588300 1_555
O55 Zn5 1.947915 1_554
O56 P11 1.575368 1_555
O57 Si18 1.650242 1_555
O58 P9 1.525414 1_555
O58 Zn5 2.063469 1_554
O59 Si19 1.658359 1_555
O60 P10 1.571643 1_555
O61 Si20 1.581756 1_555
O61 Zn5 2.006257 1_554
O62 Si21 1.663288 1_555
O63 P7 1.589665 1_555
O64 Si14 1.592313 1_555
O64 Zn6 1.974271 1_555
O65 Si15 1.670334 1_555
O66 Si16 1.682148 1_555
O67 Si17 1.600995 1_555
O67 Zn6 2.023067 1_555
O68 P8 1.583060 1_555
O69 Si12 1.676794 1_555
O70 Si13 1.602108 1_555
O70 Zn6 2.003541 1_555
O71 P6 1.590784 1_555
O72 Si24 1.668449 1_555
O73 P12 1.580931 1_555
O74 Si25 1.590102 1_555
O74 Zn7 1.996142 1_556
O75 Si26 1.672832 1_555
O76 P13 1.573695 1_555
O77 Si27 1.602433 1_555
O77 Zn7 2.013790 1_556
O78 P14 1.577494 1_555
O79 Si28 1.667557 1_555
O80 Si29 1.609277 1_555
O80 Zn7 2.001930 1_556
O81 Si30 1.624690 1_555
O82 Si31 1.664737 1_555
O83 P15 1.523513 1_555
O83 Zn8 2.100829 1_555
O84 Si32 1.645361 1_555
O85 P16 1.576738 1_555
O86 Si33 1.597998 1_555
O86 Zn8 2.040088 1_555
O87 Si34 1.631011 1_555
O88 P17 1.565468 1_555
O89 Si35 1.584638 1_555
O89 Zn8 1.908313 1_555
O90 Si34 1.657592 1_555
O91 P17 1.526917 1_555
O91 Zn9 2.041770 1_555
O92 Si35 1.693850 1_555
O93 Si30 1.683472 1_555
O94 Si31 1.585490 1_555
O94 Zn9 2.014694 1_555
O95 P15 1.585276 1_555
O96 Si32 1.674583 1_555
O97 P16 1.524295 1_555
O97 Zn9 2.086951 1_555
O98 Si33 1.657403 1_555
O99 Si26 1.591987 1_555
O99 Zn10 2.004118 1_555
O100 P13 1.527592 1_555
O100 Zn11 2.062260 1_555
O101 Si27 1.659697 1_555
O102 P14 1.530914 1_555
O102 Zn10 2.067067 1_555
O103 Si28 1.592409 1_555
O103 Zn11 1.996848 1_555
O104 Si29 1.656732 1_555
O105 Si24 1.606445 1_555
O105 Zn10 2.005197 1_555
O106 P12 1.524567 1_555
O106 Zn11 2.080353 1_555
O107 Si25 1.653623 1_555
O108 Si34 1.646895 1_555
O109 P17 1.586669 1_555
O110 Si35 1.606699 1_555
O110 Zn0 2.064263 1_455
O111 Si30 1.664322 1_555
O112 Si31 1.666112 1_555
O113 P15 1.526978 1_555
O113 Zn0 2.285598 1_555
O114 Si32 1.601613 1_555
O114 Zn0 2.299808 1_445
O115 P16 1.581973 1_555
O116 Si33 1.669117 1_555
O117 Si26 1.660407 1_555
O118 P13 1.583030 1_555
O119 Si27 1.644813 1_555
O120 P14 1.580234 1_555
O121 Si28 1.681543 1_555
O122 Si29 1.665526 1_555
O123 Si24 1.655604 1_555
O124 P12 1.595725 1_555
O125 Si25 1.660744 1_555
O126 Si12 1.672900 1_555
O127 Si13 1.640686 1_555
O128 P6 1.609229 1_555
O129 P7 1.580020 1_555
O130 Si14 1.637897 1_555
O131 Si15 1.682480 1_555
O132 Si16 1.657015 1_555
O133 Si17 1.657350 1_555
O134 P8 1.582175 1_555
O135 Si18 1.668685 1_555
O136 P9 1.521006 1_555
O136 Zn1 2.271539 1_655
O137 Si19 1.670053 1_555
O138 P10 1.598452 1_555
O139 Si20 1.642428 1_555
O140 Si21 1.606802 1_555
O140 Zn1 2.236665 1_655
O141 Si22 1.656344 1_555
O142 Si23 1.652614 1_555
O143 P11 1.520436 1_555
O143 Zn1 2.249111 1_555
O144 Si10 1.604632 1_555
O144 Zn2 2.250637 1_555
O145 Si11 1.664983 1_555
O146 P5 1.499586 1_555
O146 Zn3 2.213118 1_555
O147 P3 1.526054 1_555
O147 Zn2 2.421633 1_555
O148 Si6 1.655759 1_555
O149 Si7 1.601336 1_555
O149 Zn3 2.266318 1_555
O150 P4 1.521647 1_555
O150 Zn2 2.371604 1_555
O151 Si8 1.658952 1_655
O152 Si9 1.589790 1_555
O152 Zn3 2.164396 1_555
O153 Si2 1.599193 1_555
O153 Zn4 2.256933 1_555
O154 P1 1.585056 1_555
O155 Si3 1.669464 1_555
O156 P2 1.516142 1_555
O156 Zn4 2.302307 1_555
O157 Si4 1.654134 1_555
O158 Si5 1.652115 1_555
O159 P0 1.522557 1_555
O159 Zn4 2.234291 1_555
O160 Si0 1.652793 1_555
O161 Si1 1.664046 1_555
O162 Si24 1.649574 1_555
O163 P12 1.531639 1_555
O163 Zn5 2.259977 1_555
O164 Si25 1.666629 1_555
O165 Si26 1.637412 1_655
O166 P13 1.533606 1_655
O166 Zn5 2.388470 1_555
O167 Si27 1.652375 1_655
O168 Si29 1.642386 1_545
O169 P14 1.528348 1_555
O169 Zn5 2.207646 1_555
O170 Si28 1.654578 1_555
O171 P15 1.578782 1_545
O172 Si30 1.604321 1_555
O172 Zn6 2.330972 1_555
O173 Si31 1.662002 1_555
O174 Si32 1.654120 1_555
O175 P16 1.531519 1_555
O175 Zn6 2.350057 1_555
O176 Si33 1.656306 1_555
O177 Si34 1.648061 1_655
O178 P17 1.540222 1_655
O178 Zn6 2.330611 1_555
O179 Si35 1.677140 1_655
O180 Si22 1.671474 1_555
O181 Si23 1.648154 1_555
O182 P11 1.534909 1_555
O182 Zn7 2.463706 1_555
O183 Si18 1.652465 1_455
O184 P9 1.585992 1_455
O185 Si19 1.601751 1_455
O185 Zn7 2.299960 1_555
O186 Si20 1.655090 1_555
O187 Si21 1.665042 1_555
O188 P10 1.535522 1_565
O188 Zn7 2.346457 1_555
O189 Si14 1.645272 1_555
O190 Si15 1.665337 1_555
O191 P7 1.526302 1_565
O191 Zn8 2.242747 1_555
O192 Si16 1.646673 1_555
O193 Si17 1.656439 1_555
O194 P8 1.538623 1_555
O194 Zn8 2.315481 1_555
O195 Si12 1.644423 1_455
O196 Si13 1.643781 1_455
O197 P6 1.535060 1_455
O197 Zn8 2.213123 1_555
O198 Si0 1.637064 1_555
O199 Si1 1.608945 1_555
O199 Zn9 2.068199 1_555
O200 P0 1.569508 1_565
O201 Si2 1.652185 1_555
O202 P1 1.527657 1_555
O202 Zn9 2.274882 1_555
O203 Si3 1.659419 1_555
O204 P2 1.596841 1_455
O205 Si4 1.599911 1_455
O205 Zn9 2.290475 1_555
O206 Si5 1.648195 1_455
O207 P3 1.528091 1_555
O207 Zn10 2.333735 1_555
O208 Si6 1.600890 1_555
O208 Zn11 2.236986 1_555
O209 Si7 1.649251 1_555
O210 P4 1.525503 1_455
O210 Zn10 2.392807 1_555
O211 Si8 1.603771 1_555
O211 Zn11 2.249529 1_555
O212 Si9 1.652882 1_455
O213 Si11 1.609425 1_555
O213 Zn10 2.214893 1_555
O214 P5 1.538875 1_555
O214 Zn11 2.308286 1_555
O215 Si10 1.652724 1_565
