# generated using pymatgen
data_NaHfTi(PO4)3
_symmetry_space_group_name_H-M   'P 1'
_cell_length_a   8.73515935
_cell_length_b   8.73515907
_cell_length_c   22.62353772
_cell_angle_alpha   90.00000000
_cell_angle_beta   90.00000000
_cell_angle_gamma   120.00000103
_symmetry_Int_Tables_number   1
_chemical_formula_structural   NaHfTi(PO4)3
_chemical_formula_sum   'Na6 Hf6 Ti6 P18 O72'
_cell_volume   1494.97109267
_cell_formula_units_Z   6
loop_
 _symmetry_equiv_pos_site_id
 _symmetry_equiv_pos_as_xyz
  1  'x, y, z'
loop_
 _atom_site_type_symbol
 _atom_site_label
 _atom_site_symmetry_multiplicity
 _atom_site_fract_x
 _atom_site_fract_y
 _atom_site_fract_z
 _atom_site_occupancy
  Na  Na0  1  -0.00000000  0.00000000  0.50354776  1
  Na  Na1  1  -0.00000000  0.00000000  0.00268557  1
  Na  Na2  1  0.66666700  0.33333300  0.83061531  1
  Na  Na3  1  0.66666700  0.33333300  0.33670333  1
  Na  Na4  1  0.33333300  0.66666700  0.16965736  1
  Na  Na5  1  0.33333300  0.66666700  0.66292030  1
  Hf  Hf0  1  -0.00000000  0.00000000  0.35762005  1
  Hf  Hf1  1  -0.00000000  0.00000000  0.85175391  1
  Hf  Hf2  1  0.66666700  0.33333300  0.18892735  1
  Hf  Hf3  1  0.66666700  0.33333300  0.98119316  1
  Hf  Hf4  1  0.33333300  0.66666700  0.02142146  1
  Hf  Hf5  1  0.33333300  0.66666700  0.80925807  1
  Ti  Ti0  1  -0.00000000  0.00000000  0.64474593  1
  Ti  Ti1  1  -0.00000000  0.00000000  0.14903231  1
  Ti  Ti2  1  0.66666700  0.33333300  0.68399744  1
  Ti  Ti3  1  0.66666700  0.33333300  0.48077266  1
  Ti  Ti4  1  0.33333300  0.66666700  0.52124289  1
  Ti  Ti5  1  0.33333300  0.66666700  0.31373742  1
  P  P0  1  0.28392526  0.99232902  0.25112765  1
  P  P1  1  0.70840376  0.71607474  0.25112765  1
  P  P2  1  0.00767098  0.29159624  0.25112765  1
  P  P3  1  0.29177526  0.28512010  0.74539844  1
  P  P4  1  0.99334484  0.70822474  0.74539844  1
  P  P5  1  0.71487990  0.00665516  0.74539844  1
  P  P6  1  0.95298960  0.33307256  0.58258715  1
  P  P7  1  0.38008396  0.04701040  0.58258715  1
  P  P8  1  0.66692744  0.61991604  0.58258715  1
  P  P9  1  0.95786517  0.63215252  0.08538730  1
  P  P10  1  0.67428835  0.04213483  0.08538730  1
  P  P11  1  0.36784748  0.32571165  0.08538730  1
  P  P12  1  0.62393292  0.66608244  0.91573082  1
  P  P13  1  0.04214852  0.37606708  0.91573082  1
  P  P14  1  0.33391756  0.95785148  0.91573082  1
  P  P15  1  0.61138863  0.95235277  0.41856468  1
  P  P16  1  0.34096315  0.38861137  0.41856468  1
  P  P17  1  0.04764723  0.65903685  0.41856468  1
  O  O0  1  0.19944052  0.02060603  0.30642278  1
  O  O1  1  0.82116551  0.80055948  0.30642278  1
  O  O2  1  0.97939397  0.17883449  0.30642278  1
  O  O3  1  0.21021189  0.17682548  0.80242628  1
  O  O4  1  0.96661359  0.78978811  0.80242628  1
  O  O5  1  0.82317452  0.03338641  0.80242628  1
  O  O6  1  0.80970404  0.98210095  0.69166844  1
  O  O7  1  0.17239691  0.19029596  0.69166844  1
  O  O8  1  0.01789905  0.82760309  0.69166844  1
  O  O9  1  0.80051101  0.83041205  0.19557604  1
  O  O10  1  0.02990104  0.19948899  0.19557604  1
  O  O11  1  0.16958795  0.97009896  0.19557604  1
  O  O12  1  0.86506163  0.36209156  0.63772099  1
  O  O13  1  0.49703093  0.13493837  0.63772099  1
  O  O14  1  0.63790844  0.50296907  0.63772099  1
  O  O15  1  0.86874243  0.51518113  0.13941339  1
  O  O16  1  0.64643970  0.13125757  0.13941339  1
  O  O17  1  0.48481887  0.35356030  0.13941339  1
  O  O18  1  0.45525150  0.30066782  0.02953851  1
  O  O19  1  0.84541732  0.54474850  0.02953851  1
  O  O20  1  0.69933218  0.15458268  0.02953851  1
  O  O21  1  0.46914419  0.16465299  0.52746360  1
  O  O22  1  0.69550979  0.53085581  0.52746360  1
  O  O23  1  0.83534701  0.30449021  0.52746360  1
  O  O24  1  0.53519806  0.68791218  0.97161369  1
  O  O25  1  0.15271311  0.46480194  0.97161369  1
  O  O26  1  0.31208782  0.84728689  0.97161369  1
  O  O27  1  0.52265621  0.83758846  0.47387855  1
  O  O28  1  0.31493126  0.47734379  0.47387855  1
  O  O29  1  0.16241154  0.68506874  0.47387855  1
  O  O30  1  0.13573101  0.63628781  0.36198785  1
  O  O31  1  0.50055580  0.86426899  0.36198785  1
  O  O32  1  0.36371219  0.49944420  0.36198785  1
  O  O33  1  0.13277703  0.48711389  0.86026630  1
  O  O34  1  0.35433586  0.86722297  0.86026630  1
  O  O35  1  0.51288611  0.64566414  0.86026630  1
  O  O36  1  0.02882967  0.82556304  0.41359456  1
  O  O37  1  0.79673336  0.97117033  0.41359456  1
  O  O38  1  0.17443696  0.20326664  0.41359456  1
  O  O39  1  0.02358004  0.19242828  0.91033187  1
  O  O40  1  0.16884824  0.97641996  0.91033187  1
  O  O41  1  0.80757172  0.83115176  0.91033187  1
  O  O42  1  0.97187246  0.16689847  0.58958312  1
  O  O43  1  0.19502601  0.02812754  0.58958312  1
  O  O44  1  0.83310153  0.80497399  0.58958312  1
  O  O45  1  0.97533130  0.81530980  0.09294828  1
  O  O46  1  0.83997850  0.02466870  0.09294828  1
  O  O47  1  0.18469020  0.16002150  0.09294828  1
  O  O48  1  0.69493026  0.17093306  0.73812197  1
  O  O49  1  0.47600380  0.30506974  0.73812197  1
  O  O50  1  0.82906694  0.52399620  0.73812197  1
  O  O51  1  0.68548874  0.52980391  0.24508091  1
  O  O52  1  0.84431618  0.31451126  0.24508091  1
  O  O53  1  0.47019609  0.15568382  0.24508091  1
  O  O54  1  0.64208793  0.50065682  0.92152183  1
  O  O55  1  0.85856989  0.35791207  0.92152183  1
  O  O56  1  0.49934318  0.14143011  0.92152183  1
  O  O57  1  0.62919079  0.13652922  0.42515092  1
  O  O58  1  0.50733944  0.37080921  0.42515092  1
  O  O59  1  0.86347078  0.49266056  0.42515092  1
  O  O60  1  0.34639728  0.49001145  0.07936940  1
  O  O61  1  0.14361317  0.65360272  0.07936940  1
  O  O62  1  0.50998855  0.85638683  0.07936940  1
  O  O63  1  0.36079212  0.86170852  0.57575403  1
  O  O64  1  0.50091540  0.63920788  0.57575403  1
  O  O65  1  0.13829148  0.49908460  0.57575403  1
  O  O66  1  0.29949237  0.82446746  0.25774842  1
  O  O67  1  0.52497410  0.70050763  0.25774842  1
  O  O68  1  0.17553254  0.47502590  0.25774842  1
  O  O69  1  0.30933359  0.46980942  0.75074482  1
  O  O70  1  0.16047483  0.69066641  0.75074482  1
  O  O71  1  0.53019058  0.83952517  0.75074482  1
loop_
_geom_bond_atom_site_label_1
_geom_bond_atom_site_label_2
_geom_bond_distance
_geom_bond_site_symmetry_2
Na0 O44 2.516458 1_445
Na0 O42 2.516458 1_455
Na0 O43 2.516458 1_555
Na0 O36 2.628760 1_545
Na0 O38 2.628760 1_555
Na0 O37 2.628760 1_445
Na1 O45 2.543922 1_445
Na1 O47 2.543922 1_555
Na1 O46 2.543922 1_455
Na1 O39 2.624320 1_554
Na1 O41 2.624320 1_444
Na1 O40 2.624320 1_544
Na2 O56 2.593433 1_555
Na2 O54 2.593433 1_555
Na2 O55 2.593433 1_555
Na2 O50 2.608111 1_555
Na2 O48 2.608111 1_555
Na2 O49 2.608111 1_555
Na3 O58 2.550242 1_555
Na3 O59 2.550242 1_555
Na3 O57 2.550242 1_555
Na3 O51 2.643260 1_555
Na3 O53 2.643260 1_555
Na3 O52 2.643260 1_555
Na4 O66 2.523220 1_555
Na4 O68 2.523220 1_555
Na4 O67 2.523220 1_555
Na4 O62 2.596666 1_555
Na4 O60 2.596666 1_555
Na4 O61 2.596666 1_555
Na5 O63 2.537786 1_555
Na5 O65 2.537786 1_555
Na5 O64 2.537786 1_555
Na5 O69 2.566748 1_555
Na5 O71 2.566748 1_555
Na5 O70 2.566748 1_555
Hf0 O1 2.023724 1_445
Hf0 O2 2.023724 1_455
Hf0 O0 2.023724 1_555
Hf0 O36 2.091060 1_545
Hf0 O38 2.091060 1_555
Hf0 O37 2.091060 1_445
Hf1 O4 2.041244 1_445
Hf1 O3 2.041244 1_555
Hf1 O5 2.041244 1_455
Hf1 O39 2.068300 1_555
Hf1 O41 2.068300 1_445
Hf1 O40 2.068300 1_545
Hf2 O16 2.022358 1_555
Hf2 O15 2.022358 1_555
Hf2 O17 2.022358 1_555
Hf2 O51 2.074638 1_555
Hf2 O53 2.074638 1_555
Hf2 O52 2.074638 1_555
Hf3 O19 2.039908 1_556
Hf3 O20 2.039908 1_556
Hf3 O18 2.039908 1_556
Hf3 O56 2.078128 1_555
Hf3 O54 2.078128 1_555
Hf3 O55 2.078128 1_555
Hf4 O25 2.021448 1_554
Hf4 O24 2.021448 1_554
Hf4 O26 2.021448 1_554
Hf4 O62 2.070993 1_555
Hf4 O60 2.070993 1_555
Hf4 O61 2.070993 1_555
Hf5 O34 2.028065 1_555
Hf5 O33 2.028065 1_555
Hf5 O35 2.028065 1_555
Hf5 O69 2.095902 1_555
Hf5 O71 2.095902 1_555
Hf5 O70 2.095902 1_555
O0 P0 1.533901 1_545
O1 P1 1.533901 1_555
O2 P2 1.533901 1_655
O3 P3 1.546945 1_555
O4 P4 1.546945 1_555
O5 P5 1.546946 1_555
O6 P5 1.545103 1_565
O6 Ti0 1.911693 1_665
O7 P3 1.545103 1_555
O7 Ti0 1.911693 1_555
O8 P4 1.545103 1_455
O8 Ti0 1.911693 1_565
O9 P1 1.555878 1_555
O9 Ti1 1.938659 1_665
O10 P2 1.555878 1_555
O10 Ti1 1.938659 1_555
O11 P0 1.555878 1_555
O11 Ti1 1.938659 1_565
O12 P6 1.550705 1_555
O12 Ti2 1.930584 1_555
O13 P7 1.550705 1_555
O13 Ti2 1.930584 1_555
O14 P8 1.550705 1_555
O14 Ti2 1.930584 1_555
O15 P9 1.532496 1_555
O16 P10 1.532496 1_555
O17 P11 1.532496 1_555
O18 P11 1.547326 1_555
O19 P9 1.547326 1_555
O20 P10 1.547326 1_555
O21 P7 1.554676 1_555
O21 Ti3 1.929132 1_555
O22 P8 1.554676 1_555
O22 Ti3 1.929132 1_555
O23 P6 1.554676 1_555
O23 Ti3 1.929132 1_555
O24 P12 1.543807 1_555
O25 P13 1.543807 1_555
O26 P14 1.543807 1_555
O27 P15 1.547487 1_555
O27 Ti4 1.908710 1_555
O28 P16 1.547487 1_555
O28 Ti4 1.908710 1_555
O29 P17 1.547487 1_555
O29 Ti4 1.908710 1_555
O30 P17 1.556509 1_555
O30 Ti5 1.945077 1_555
O31 P15 1.556509 1_555
O31 Ti5 1.945077 1_555
O32 P16 1.556509 1_555
O32 Ti5 1.945077 1_555
O33 P13 1.540863 1_555
O34 P14 1.540863 1_555
O35 P12 1.540863 1_555
O36 P17 1.547489 1_555
O37 P15 1.547498 1_555
O38 P16 1.547494 1_555
O39 P13 1.534348 1_555
O40 P14 1.534340 1_555
O41 P12 1.534345 1_555
O42 P6 1.548774 1_555
O42 Ti0 2.025202 1_655
O43 P7 1.548783 1_555
O43 Ti0 2.025202 1_555
O44 P8 1.548779 1_555
O44 Ti0 2.025202 1_665
O45 P9 1.538878 1_555
O45 Ti1 1.977732 1_665
O46 P10 1.538870 1_555
O46 Ti1 1.977732 1_655
O47 P11 1.538875 1_555
O47 Ti1 1.977732 1_555
O48 P5 1.538421 1_555
O48 Ti2 1.980643 1_555
O49 P3 1.538430 1_555
O49 Ti2 1.980643 1_555
O50 P4 1.538427 1_555
O50 Ti2 1.980643 1_555
O51 P1 1.542906 1_555
O52 P2 1.542898 1_655
O53 P0 1.542903 1_545
O54 P12 1.536084 1_555
O55 P13 1.536067 1_655
O56 P14 1.536074 1_545
O57 P15 1.544175 1_545
O57 Ti3 2.020696 1_555
O58 P16 1.544193 1_555
O58 Ti3 2.020696 1_555
O59 P17 1.544183 1_655
O59 Ti3 2.020696 1_555
O60 P11 1.543474 1_555
O61 P9 1.543456 1_455
O62 P10 1.543463 1_565
O63 P7 1.549041 1_565
O63 Ti4 2.018020 1_555
O64 P8 1.549058 1_555
O64 Ti4 2.018020 1_555
O65 P6 1.549048 1_455
O65 Ti4 2.018020 1_555
O66 P0 1.546074 1_555
O66 Ti5 1.999829 1_555
O67 P1 1.546082 1_555
O67 Ti5 1.999829 1_555
O68 P2 1.546078 1_555
O68 Ti5 1.999829 1_555
O69 P3 1.547069 1_555
O70 P4 1.547060 1_455
O71 P5 1.547065 1_565
