# generated using pymatgen
data_BaP3Pt2
_symmetry_space_group_name_H-M   'P 1'
_cell_length_a   5.80020833
_cell_length_b   8.37083018
_cell_length_c   11.74308985
_cell_angle_alpha   73.03026052
_cell_angle_beta   90.00000000
_cell_angle_gamma   90.00000000
_symmetry_Int_Tables_number   1
_chemical_formula_structural   BaP3Pt2
_chemical_formula_sum   'Ba4 P12 Pt8'
_cell_volume   545.33187480
_cell_formula_units_Z   4
loop_
 _symmetry_equiv_pos_site_id
 _symmetry_equiv_pos_as_xyz
  1  'x, y, z'
loop_
 _atom_site_type_symbol
 _atom_site_label
 _atom_site_symmetry_multiplicity
 _atom_site_fract_x
 _atom_site_fract_y
 _atom_site_fract_z
 _atom_site_occupancy
  Ba  Ba0  1  0.08542329  0.75980734  0.35168925  1
  Ba  Ba1  1  0.91457671  0.24019266  0.64831075  1
  Ba  Ba2  1  0.58542329  0.24019266  0.14831075  1
  Ba  Ba3  1  0.41457671  0.75980734  0.85168925  1
  P  P0  1  0.38452672  0.27610449  0.41713462  1
  P  P1  1  0.88452672  0.72389551  0.08286538  1
  P  P2  1  0.61547328  0.72389551  0.58286538  1
  P  P3  1  0.11547328  0.27610449  0.91713462  1
  P  P4  1  0.87952381  0.06966475  0.43064764  1
  P  P5  1  0.37952381  0.93033525  0.06935236  1
  P  P6  1  0.12047619  0.93033525  0.56935236  1
  P  P7  1  0.84804082  0.45514610  0.82594858  1
  P  P8  1  0.65195918  0.45514610  0.32594858  1
  P  P9  1  0.15195918  0.54485390  0.17405142  1
  P  P10  1  0.34804082  0.54485390  0.67405142  1
  P  P11  1  0.62047619  0.06966475  0.93064764  1
  Pt  Pt0  1  0.50000000  -0.00000000  0.50000000  1
  Pt  Pt1  1  -0.00000000  0.50000000  -0.00000000  1
  Pt  Pt2  1  0.50000000  0.50000000  0.50000000  1
  Pt  Pt3  1  -0.00000000  -0.00000000  -0.00000000  1
  Pt  Pt4  1  0.48376762  0.33863577  0.83858359  1
  Pt  Pt5  1  0.98376762  0.66136423  0.66141641  1
  Pt  Pt6  1  0.51623238  0.66136423  0.16141641  1
  Pt  Pt7  1  0.01623238  0.33863577  0.33858359  1
loop_
_geom_bond_atom_site_label_1
_geom_bond_atom_site_label_2
_geom_bond_distance
_geom_bond_site_symmetry_2
Ba0 P9 3.151037 1_555
Ba0 P4 3.227609 1_465
Ba0 P6 3.277520 1_555
Ba0 Pt2 3.366642 1_555
Ba0 P1 3.459427 1_455
Ba0 Pt5 3.536388 1_455
Ba0 Pt7 3.595972 1_555
Ba0 Pt6 3.604203 1_555
Ba0 P5 3.630079 1_555
Ba0 P8 3.656000 1_455
Ba0 P2 3.796543 1_455
Ba0 Pt0 3.860331 1_565
Ba1 P7 3.151037 1_555
Ba1 P6 3.227609 1_645
Ba1 P4 3.277520 1_555
Ba1 Pt2 3.366642 1_555
Ba1 P3 3.459427 1_655
Ba1 Pt7 3.536388 1_655
Ba1 Pt5 3.595972 1_555
Ba1 Pt4 3.604203 1_555
Ba1 P11 3.630079 1_555
Ba1 P10 3.656000 1_655
Ba1 P0 3.796543 1_655
Ba1 Pt0 3.860331 1_555
Ba2 P8 3.151037 1_555
Ba2 P5 3.227609 1_545
Ba2 P11 3.277520 1_554
Ba2 Pt1 3.366642 1_655
Ba2 P0 3.459427 1_555
Ba2 Pt4 3.536388 1_554
Ba2 Pt6 3.595972 1_555
Ba2 Pt7 3.604203 1_655
Ba2 P4 3.630079 1_555
Ba2 P9 3.656000 1_555
Ba2 P3 3.796543 1_554
Ba2 Pt3 3.860331 1_655
Ba3 P10 3.151037 1_555
Ba3 P11 3.227609 1_565
Ba3 P5 3.277520 1_556
Ba3 Pt1 3.366642 1_556
Ba3 P2 3.459427 1_555
Ba3 Pt6 3.536388 1_556
Ba3 Pt4 3.595972 1_555
Ba3 Pt5 3.604203 1_455
Ba3 P6 3.630079 1_555
Ba3 P7 3.656000 1_555
Ba3 P1 3.796543 1_556
Ba3 Pt3 3.860331 1_566
P0 P8 2.205021 1_555
P0 Pt7 2.325146 1_555
P0 Pt0 2.329039 1_555
P0 Pt2 2.443909 1_555
P1 P9 2.205021 1_655
P1 Pt6 2.325146 1_555
P1 Pt3 2.329039 1_665
P1 Pt1 2.443909 1_655
P2 Pt5 2.325146 1_555
P2 Pt0 2.329039 1_565
P2 Pt2 2.443909 1_555
P3 P7 2.205021 1_455
P3 Pt4 2.325146 1_555
P3 Pt3 2.329039 1_556
P3 Pt1 2.443909 1_556
P4 P6 2.204001 1_645
P4 Pt7 2.333661 1_655
P4 Pt0 2.360487 1_555
P5 Pt6 2.333661 1_555
P5 Pt3 2.360487 1_565
P6 Pt5 2.333661 1_455
P6 Pt0 2.360487 1_565
P7 Pt4 2.313636 1_555
P7 Pt5 2.320723 1_555
P7 Pt1 2.354427 1_656
P8 Pt7 2.313636 1_655
P8 Pt6 2.320723 1_555
P8 Pt2 2.354427 1_555
P9 Pt6 2.313636 1_555
P9 Pt7 2.320723 1_555
P9 Pt1 2.354427 1_555
P10 P2 2.205021 1_555
P10 Pt5 2.313636 1_455
P10 Pt4 2.320723 1_555
P10 Pt2 2.354427 1_555
P11 P5 2.204001 1_546
P11 Pt4 2.333661 1_555
P11 Pt3 2.360487 1_656
