# generated using pymatgen
data_Ce4Ge9Rh13
_symmetry_space_group_name_H-M   'P 1'
_cell_length_a   3.98185300
_cell_length_b   11.38274300
_cell_length_c   19.67599100
_cell_angle_alpha   90.00000000
_cell_angle_beta   90.00000000
_cell_angle_gamma   90.00000000
_symmetry_Int_Tables_number   1
_chemical_formula_structural   Ce4Ge9Rh13
_chemical_formula_sum   'Ce8 Ge18 Rh26'
_cell_volume   891.80267070
_cell_formula_units_Z   2
loop_
 _symmetry_equiv_pos_site_id
 _symmetry_equiv_pos_as_xyz
  1  'x, y, z'
loop_
 _atom_site_type_symbol
 _atom_site_label
 _atom_site_symmetry_multiplicity
 _atom_site_fract_x
 _atom_site_fract_y
 _atom_site_fract_z
 _atom_site_occupancy
  Ce  Ce0  1  0.25000000  0.56025200  0.70801700  1
  Ce  Ce1  1  0.75000000  0.43974800  0.29198300  1
  Ce  Ce2  1  0.75000000  0.06025200  0.29198300  1
  Ce  Ce3  1  0.25000000  0.93974800  0.70801700  1
  Ce  Ce4  1  0.25000000  0.75000000  0.52128300  1
  Ce  Ce5  1  0.75000000  0.25000000  0.47871700  1
  Ce  Ce6  1  0.25000000  0.25000000  0.02020500  1
  Ce  Ce7  1  0.75000000  0.75000000  0.97979500  1
  Ge  Ge0  1  0.25000000  0.25000000  0.60187200  1
  Ge  Ge1  1  0.75000000  0.75000000  0.39812800  1
  Ge  Ge2  1  0.25000000  0.06129000  0.41915700  1
  Ge  Ge3  1  0.75000000  0.93871000  0.58084300  1
  Ge  Ge4  1  0.75000000  0.56129000  0.58084300  1
  Ge  Ge5  1  0.25000000  0.43871000  0.41915700  1
  Ge  Ge6  1  0.25000000  0.56658900  0.91520600  1
  Ge  Ge7  1  0.75000000  0.43341100  0.08479400  1
  Ge  Ge8  1  0.75000000  0.06658900  0.08479400  1
  Ge  Ge9  1  0.25000000  0.93341100  0.91520600  1
  Ge  Ge10  1  0.25000000  0.62376600  0.22979500  1
  Ge  Ge11  1  0.75000000  0.37623400  0.77020500  1
  Ge  Ge12  1  0.75000000  0.12376600  0.77020500  1
  Ge  Ge13  1  0.25000000  0.87623400  0.22979500  1
  Ge  Ge14  1  0.25000000  0.75000000  0.10267200  1
  Ge  Ge15  1  0.75000000  0.25000000  0.89732800  1
  Ge  Ge16  1  0.25000000  0.25000000  0.23083800  1
  Ge  Ge17  1  0.75000000  0.75000000  0.76916200  1
  Rh  Rh0  1  0.25000000  0.44953500  0.54618500  1
  Rh  Rh1  1  0.75000000  0.55046500  0.45381500  1
  Rh  Rh2  1  0.75000000  0.94953500  0.45381500  1
  Rh  Rh3  1  0.25000000  0.05046500  0.54618500  1
  Rh  Rh4  1  0.25000000  0.43520200  0.16475400  1
  Rh  Rh5  1  0.75000000  0.56479800  0.83524600  1
  Rh  Rh6  1  0.75000000  0.93520200  0.83524600  1
  Rh  Rh7  1  0.25000000  0.06479800  0.16475400  1
  Rh  Rh8  1  0.25000000  0.37672600  0.85455600  1
  Rh  Rh9  1  0.75000000  0.62327400  0.14544400  1
  Rh  Rh10  1  0.75000000  0.87672600  0.14544400  1
  Rh  Rh11  1  0.25000000  0.12327400  0.85455600  1
  Rh  Rh12  1  0.25000000  0.55865500  0.04068800  1
  Rh  Rh13  1  0.75000000  0.44134500  0.95931200  1
  Rh  Rh14  1  0.75000000  0.05865500  0.95931200  1
  Rh  Rh15  1  0.25000000  0.94134500  0.04068800  1
  Rh  Rh16  1  0.25000000  0.62680200  0.35686500  1
  Rh  Rh17  1  0.75000000  0.37319800  0.64313500  1
  Rh  Rh18  1  0.75000000  0.12680200  0.64313500  1
  Rh  Rh19  1  0.25000000  0.87319800  0.35686500  1
  Rh  Rh20  1  0.25000000  0.75000000  0.84402400  1
  Rh  Rh21  1  0.75000000  0.25000000  0.15597600  1
  Rh  Rh22  1  0.25000000  0.25000000  0.35701100  1
  Rh  Rh23  1  0.75000000  0.75000000  0.64298900  1
  Rh  Rh24  1  0.25000000  0.25000000  0.72741000  1
  Rh  Rh25  1  0.75000000  0.75000000  0.27259000  1
loop_
_geom_bond_atom_site_label_1
_geom_bond_atom_site_label_2
_geom_bond_distance
_geom_bond_site_symmetry_2
Ce0 Ge11 3.138229 1_555
Ce0 Ge11 3.138229 1_455
Ce0 Ge17 3.174299 1_555
Ce0 Ge17 3.174299 1_455
Ce0 Rh17 3.182292 1_455
Ce0 Rh17 3.182292 1_555
Ce0 Ge4 3.197703 1_455
Ce0 Ge4 3.197703 1_555
Ce0 Rh5 3.198947 1_455
Ce0 Rh5 3.198947 1_555
Ce0 Rh23 3.204036 1_455
Ce0 Rh23 3.204036 1_555
Ce0 Rh0 3.424533 1_555
Ce0 Rh20 3.438943 1_555
Ce0 Rh24 3.552073 1_555
Ce0 Rh8 3.560542 1_555
Ce1 Ge10 3.138229 1_555
Ce1 Ge10 3.138229 1_655
Ce1 Ge16 3.174299 1_555
Ce1 Ge16 3.174299 1_655
Ce1 Rh16 3.182292 1_655
Ce1 Rh16 3.182292 1_555
Ce1 Ge5 3.197703 1_655
Ce1 Ge5 3.197703 1_555
Ce1 Rh4 3.198947 1_555
Ce1 Rh4 3.198947 1_655
Ce1 Rh22 3.204036 1_655
Ce1 Rh22 3.204036 1_555
Ce1 Rh1 3.424533 1_555
Ce1 Rh21 3.438943 1_555
Ce1 Rh25 3.552073 1_555
Ce1 Rh9 3.560542 1_555
Ce2 Ge13 3.138229 1_545
Ce2 Ge13 3.138229 1_645
Ce2 Ge16 3.174299 1_555
Ce2 Ge16 3.174299 1_655
Ce2 Rh19 3.182292 1_645
Ce2 Rh19 3.182292 1_545
Ce2 Ge2 3.197703 1_555
Ce2 Ge2 3.197703 1_655
Ce2 Rh7 3.198947 1_555
Ce2 Rh7 3.198947 1_655
Ce2 Rh22 3.204036 1_655
Ce2 Rh22 3.204036 1_555
Ce2 Rh2 3.424533 1_545
Ce2 Rh21 3.438943 1_555
Ce2 Rh25 3.552073 1_545
Ce2 Rh10 3.560542 1_545
Ce3 Ge12 3.138229 1_565
Ce3 Ge12 3.138229 1_465
Ce3 Ge17 3.174299 1_555
Ce3 Ge17 3.174299 1_455
Ce3 Rh18 3.182292 1_465
Ce3 Rh18 3.182292 1_565
Ce3 Ge3 3.197703 1_455
Ce3 Ge3 3.197703 1_555
Ce3 Rh6 3.198947 1_455
Ce3 Rh6 3.198947 1_555
Ce3 Rh23 3.204036 1_555
Ce3 Rh23 3.204036 1_455
Ce3 Rh3 3.424533 1_565
Ce3 Rh20 3.438943 1_555
Ce3 Rh24 3.552073 1_565
Ce3 Rh11 3.560542 1_565
Ce4 Rh23 3.114211 1_455
Ce4 Rh23 3.114211 1_555
Ce4 Ge1 3.136187 1_555
Ce4 Ge1 3.136187 1_455
Ce4 Ge4 3.154553 1_455
Ce4 Ge4 3.154553 1_555
Ce4 Ge3 3.154553 1_455
Ce4 Ge3 3.154553 1_555
Ce4 Rh2 3.299189 1_455
Ce4 Rh2 3.299189 1_555
Ce4 Rh1 3.299189 1_455
Ce4 Rh1 3.299189 1_555
Ce4 Rh3 3.455035 1_565
Ce4 Rh0 3.455035 1_555
Ce4 Rh19 3.525950 1_555
Ce4 Rh16 3.525950 1_555
Ce5 Rh22 3.114211 1_655
Ce5 Rh22 3.114211 1_555
Ce5 Ge0 3.136187 1_655
Ce5 Ge0 3.136187 1_555
Ce5 Ge2 3.154553 1_555
Ce5 Ge2 3.154553 1_655
Ce5 Ge5 3.154553 1_655
Ce5 Ge5 3.154553 1_555
Ce5 Rh0 3.299189 1_555
Ce5 Rh0 3.299189 1_655
Ce5 Rh3 3.299189 1_555
Ce5 Rh3 3.299189 1_655
Ce5 Rh1 3.455035 1_555
Ce5 Rh2 3.455035 1_545
Ce5 Rh18 3.525950 1_555
Ce5 Rh17 3.525950 1_555
Ce6 Ge15 3.131963 1_554
Ce6 Ge15 3.131963 1_454
Ce6 Ge7 3.152369 1_555
Ce6 Ge8 3.152369 1_555
Ce6 Ge7 3.152369 1_455
Ce6 Ge8 3.152369 1_455
Ce6 Rh13 3.184827 1_454
Ce6 Rh14 3.184827 1_554
Ce6 Rh14 3.184827 1_454
Ce6 Rh13 3.184827 1_554
Ce6 Rh21 3.331714 1_555
Ce6 Rh21 3.331714 1_455
Ce6 Rh12 3.536381 1_555
Ce6 Rh15 3.536381 1_545
Ce6 Rh7 3.540236 1_555
Ce6 Rh4 3.540236 1_555
Ce6 Rh11 3.564248 1_554
Ce6 Rh8 3.564248 1_554
Ce7 Ge14 3.131963 1_656
Ce7 Ge14 3.131963 1_556
Ce7 Ge6 3.152369 1_555
Ce7 Ge9 3.152369 1_555
Ce7 Ge6 3.152369 1_655
Ce7 Ge9 3.152369 1_655
Ce7 Rh15 3.184827 1_556
Ce7 Rh15 3.184827 1_656
Ce7 Rh12 3.184827 1_556
Ce7 Rh12 3.184827 1_656
Ce7 Rh20 3.331714 1_555
Ce7 Rh20 3.331714 1_655
Ce7 Rh14 3.536381 1_565
Ce7 Rh13 3.536381 1_555
Ce7 Rh5 3.540236 1_555
Ce7 Rh6 3.540236 1_555
Ce7 Rh9 3.564248 1_556
Ce7 Rh10 3.564248 1_556
Ge0 Rh24 2.470085 1_555
Ge0 Rh0 2.521736 1_555
Ge0 Rh3 2.521736 1_555
Ge0 Rh18 2.567000 1_455
Ge0 Rh18 2.567000 1_555
Ge0 Rh17 2.567000 1_455
Ge0 Rh17 2.567000 1_555
Ge1 Rh25 2.470085 1_555
Ge1 Rh2 2.521736 1_555
Ge1 Rh1 2.521736 1_555
Ge1 Rh19 2.567000 1_555
Ge1 Rh19 2.567000 1_655
Ge1 Rh16 2.567000 1_655
Ge1 Rh16 2.567000 1_555
Ge2 Rh2 2.459065 1_445
Ge2 Rh2 2.459065 1_545
Ge2 Rh19 2.467008 1_545
Ge2 Rh22 2.471693 1_555
Ge2 Rh3 2.502437 1_555
Ge3 Rh3 2.459065 1_565
Ge3 Rh3 2.459065 1_665
Ge3 Rh18 2.467008 1_565
Ge3 Rh23 2.471693 1_555
Ge3 Rh2 2.502437 1_555
Ge4 Rh0 2.459065 1_555
Ge4 Rh0 2.459065 1_655
Ge4 Rh17 2.467008 1_555
Ge4 Rh23 2.471693 1_555
Ge4 Rh1 2.502437 1_555
Ge5 Rh1 2.459065 1_555
Ge5 Rh1 2.459065 1_455
Ge5 Rh16 2.467008 1_555
Ge5 Rh22 2.471693 1_555
Ge5 Rh0 2.502437 1_555
Ge6 Rh8 2.468745 1_555
Ge6 Rh12 2.470634 1_556
Ge6 Rh20 2.513999 1_555
Ge6 Rh5 2.537608 1_555
Ge6 Rh5 2.537608 1_455
Ge6 Rh13 2.597943 1_555
Ge6 Rh13 2.597943 1_455
Ge7 Rh9 2.468745 1_555
Ge7 Rh13 2.470634 1_554
Ge7 Rh21 2.513999 1_555
Ge7 Rh4 2.537608 1_655
Ge7 Rh4 2.537608 1_555
Ge7 Rh12 2.597943 1_655
Ge7 Rh12 2.597943 1_555
Ge8 Rh10 2.468745 1_545
Ge8 Rh14 2.470634 1_554
Ge8 Rh21 2.513999 1_555
Ge8 Rh7 2.537608 1_555
Ge8 Rh7 2.537608 1_655
Ge8 Rh15 2.597943 1_545
Ge8 Rh15 2.597943 1_645
Ge9 Rh11 2.468745 1_565
Ge9 Rh15 2.470634 1_556
Ge9 Rh20 2.513999 1_555
Ge9 Rh6 2.537608 1_555
Ge9 Rh6 2.537608 1_455
Ge9 Rh14 2.597943 1_465
Ge9 Rh14 2.597943 1_565
Ge10 Rh4 2.498935 1_555
Ge10 Rh16 2.500467 1_555
Ge10 Rh9 2.591986 1_555
Ge10 Rh9 2.591986 1_455
Ge10 Rh25 2.595662 1_455
Ge10 Rh25 2.595662 1_555
Ge11 Rh5 2.498935 1_555
Ge11 Rh17 2.500467 1_555
Ge11 Rh8 2.591986 1_555
Ge11 Rh8 2.591986 1_655
Ge11 Rh24 2.595662 1_655
Ge11 Rh24 2.595662 1_555
Ge12 Rh6 2.498935 1_545
Ge12 Rh18 2.500467 1_555
Ge12 Rh11 2.591986 1_655
Ge12 Rh11 2.591986 1_555
Ge12 Rh24 2.595662 1_655
Ge12 Rh24 2.595662 1_555
Ge13 Rh7 2.498935 1_565
Ge13 Rh19 2.500467 1_555
Ge13 Rh10 2.591986 1_455
Ge13 Rh10 2.591986 1_555
Ge13 Rh25 2.595662 1_555
Ge13 Rh25 2.595662 1_455
Ge14 Rh15 2.496244 1_555
Ge14 Rh12 2.496244 1_555
Ge14 Rh9 2.598620 1_455
Ge14 Rh10 2.598620 1_455
Ge14 Rh10 2.598620 1_555
Ge14 Rh9 2.598620 1_555
Ge15 Rh14 2.496244 1_555
Ge15 Rh13 2.496244 1_555
Ge15 Rh11 2.598620 1_555
Ge15 Rh11 2.598620 1_655
Ge15 Rh8 2.598620 1_655
Ge15 Rh8 2.598620 1_555
Ge16 Rh21 2.476584 1_555
Ge16 Rh21 2.476584 1_455
Ge16 Rh4 2.476855 1_555
Ge16 Rh7 2.476855 1_555
Ge16 Rh22 2.482579 1_555
Ge17 Rh20 2.476584 1_655
Ge17 Rh20 2.476584 1_555
Ge17 Rh6 2.476855 1_555
Ge17 Rh5 2.476855 1_555
Ge17 Rh23 2.482579 1_555
