# generated using pymatgen
data_NaMnAs
_symmetry_space_group_name_H-M   'P 1'
_cell_length_a   4.13277800
_cell_length_b   4.13277800
_cell_length_c   7.00211200
_cell_angle_alpha   90.00000000
_cell_angle_beta   90.00000000
_cell_angle_gamma   90.00000000
_symmetry_Int_Tables_number   1
_chemical_formula_structural   NaMnAs
_chemical_formula_sum   'Na2 Mn2 As2'
_cell_volume   119.59505063
_cell_formula_units_Z   2
loop_
 _symmetry_equiv_pos_site_id
 _symmetry_equiv_pos_as_xyz
  1  'x, y, z'
loop_
 _atom_site_type_symbol
 _atom_site_label
 _atom_site_symmetry_multiplicity
 _atom_site_fract_x
 _atom_site_fract_y
 _atom_site_fract_z
 _atom_site_occupancy
  Na  Na0  1  0.50000000  0.00000000  0.64310800  1
  Na  Na1  1  0.00000000  0.50000000  0.35689200  1
  Mn  Mn0  1  0.50000000  0.50000000  0.00000000  1
  Mn  Mn1  1  0.00000000  0.00000000  0.00000000  1
  As  As0  1  0.50000000  0.00000000  0.20401500  1
  As  As1  1  0.00000000  0.50000000  0.79598500  1
loop_
_geom_bond_atom_site_label_1
_geom_bond_atom_site_label_2
_geom_bond_distance
_geom_bond_site_symmetry_2
As0 Mn1 2.512106 1_655
As0 Mn1 2.512106 1_555
As0 Mn0 2.512106 1_555
As0 Mn0 2.512106 1_545
As0 Na0 3.074578 1_555
As0 Na1 3.112204 1_645
As0 Na1 3.112204 1_545
As0 Na1 3.112204 1_555
As0 Na1 3.112204 1_655
As1 Mn1 2.512106 1_566
As1 Mn0 2.512106 1_556
As1 Mn1 2.512106 1_556
As1 Mn0 2.512106 1_456
As1 Na1 3.074578 1_555
As1 Na0 3.112204 1_555
As1 Na0 3.112204 1_565
As1 Na0 3.112204 1_465
As1 Na0 3.112204 1_455
