# generated using pymatgen
data_Ni2P
_symmetry_space_group_name_H-M   'P 1'
_cell_length_a   5.81965198
_cell_length_b   5.81965201
_cell_length_c   3.33582355
_cell_angle_alpha   90.00000000
_cell_angle_beta   90.00000000
_cell_angle_gamma   119.99999983
_symmetry_Int_Tables_number   1
_chemical_formula_structural   Ni2P
_chemical_formula_sum   'Ni6 P3'
_cell_volume   97.84254338
_cell_formula_units_Z   3
loop_
 _symmetry_equiv_pos_site_id
 _symmetry_equiv_pos_as_xyz
  1  'x, y, z'
loop_
 _atom_site_type_symbol
 _atom_site_label
 _atom_site_symmetry_multiplicity
 _atom_site_fract_x
 _atom_site_fract_y
 _atom_site_fract_z
 _atom_site_occupancy
  Ni  Ni0  1  0.60029052  -0.00000000  0.50000000  1
  Ni  Ni1  1  -0.00000000  0.60029052  0.50000000  1
  Ni  Ni2  1  0.74019387  0.74019387  -0.00000000  1
  Ni  Ni3  1  0.00000000  0.25980613  -0.00000000  1
  Ni  Ni4  1  0.39970948  0.39970948  0.50000000  1
  Ni  Ni5  1  0.25980613  -0.00000000  0.00000000  1
  P  P0  1  0.33333300  0.66666700  0.00000000  1
  P  P1  1  -0.00000000  -0.00000000  0.50000000  1
  P  P2  1  0.66666700  0.33333300  0.00000000  1
loop_
_geom_bond_atom_site_label_1
_geom_bond_atom_site_label_2
_geom_bond_distance
_geom_bond_site_symmetry_2
Ni0 P1 2.326170 1_655
Ni0 P2 2.438224 1_556
Ni0 P2 2.438224 1_555
Ni0 P0 2.438226 1_546
Ni0 P0 2.438226 1_545
Ni1 P1 2.326170 1_565
Ni1 P0 2.438224 1_555
Ni1 P0 2.438224 1_556
Ni1 P2 2.438226 1_455
Ni1 P2 2.438226 1_456
Ni2 P0 2.185485 1_555
Ni2 P2 2.185485 1_555
Ni2 P1 2.251226 1_665
Ni2 P1 2.251226 1_664
Ni3 P2 2.185479 1_455
Ni3 P0 2.185483 1_555
Ni3 P1 2.251226 1_554
Ni3 P1 2.251226 1_555
Ni4 P1 2.326170 1_555
Ni4 P2 2.438228 1_556
Ni4 P2 2.438228 1_555
Ni4 P0 2.438228 1_556
Ni4 P0 2.438228 1_555
Ni5 P0 2.185479 1_545
Ni5 P2 2.185483 1_555
Ni5 P1 2.251226 1_555
Ni5 P1 2.251226 1_554
