# generated using pymatgen
data_U8FeSe17
_symmetry_space_group_name_H-M   'P 1'
_cell_length_a   8.28718981
_cell_length_b   8.29597119
_cell_length_c   10.95226718
_cell_angle_alpha   80.27641538
_cell_angle_beta   80.60331320
_cell_angle_gamma   64.51075187
_symmetry_Int_Tables_number   1
_chemical_formula_structural   U8FeSe17
_chemical_formula_sum   'U8 Fe1 Se17'
_cell_volume   666.43609075
_cell_formula_units_Z   1
loop_
 _symmetry_equiv_pos_site_id
 _symmetry_equiv_pos_as_xyz
  1  'x, y, z'
loop_
 _atom_site_type_symbol
 _atom_site_label
 _atom_site_symmetry_multiplicity
 _atom_site_fract_x
 _atom_site_fract_y
 _atom_site_fract_z
 _atom_site_occupancy
  U  U0  1  0.81613072  0.30125545  0.29892257  1
  U  U1  1  0.30170182  0.81499494  0.29438259  1
  U  U2  1  0.18410358  0.69742549  0.70318204  1
  U  U3  1  0.70264711  0.18231052  0.70558055  1
  U  U4  1  0.20565143  0.20260702  0.54317085  1
  U  U5  1  0.79499511  0.79784550  0.45708981  1
  U  U6  1  0.67880587  0.67906530  0.98267588  1
  U  U7  1  0.31756213  0.32019777  0.01817843  1
  Fe  Fe0  1  -0.01125916  0.00412968  -0.00318941  1
  Se  Se0  1  0.82591070  0.43184341  0.53394235  1
  Se  Se1  1  0.43406290  0.82153750  0.53307961  1
  Se  Se2  1  0.17714789  0.56814001  0.46442829  1
  Se  Se3  1  0.56730621  0.17878163  0.46493920  1
  Se  Se4  1  0.94153024  0.32400407  0.02752766  1
  Se  Se5  1  0.32483266  0.94253932  0.02980552  1
  Se  Se6  1  0.05644292  0.67494010  0.97212663  1
  Se  Se7  1  0.67154081  0.05697361  0.97238924  1
  Se  Se8  1  0.20657590  0.21321704  0.27779283  1
  Se  Se9  1  0.79466222  0.78563962  0.72109932  1
  Se  Se10  1  0.06624100  0.05432037  0.77269186  1
  Se  Se11  1  0.94212759  0.94521812  0.22699132  1
  Se  Se12  1  0.30361888  0.30322023  0.75447730  1
  Se  Se13  1  0.69900910  0.69762653  0.24567969  1
  Se  Se14  1  0.51883448  0.52425784  0.83160131  1
  Se  Se15  1  0.47857938  0.47828814  0.17083880  1
  Se  Se16  1  0.00123852  -0.00037920  0.50059575  1
loop_
_geom_bond_atom_site_label_1
_geom_bond_atom_site_label_2
_geom_bond_distance
_geom_bond_site_symmetry_2
Fe0 Se10 2.445632 1_554
Fe0 Se11 2.484317 1_445
Fe0 Se7 2.524263 1_454
Fe0 Se4 2.583255 1_455
Fe0 Se6 2.593655 1_544
Fe0 Se5 2.681556 1_545
Se0 U4 2.901431 1_655
Se0 U5 2.920799 1_555
Se0 U3 2.956539 1_555
Se0 U0 2.981835 1_555
Se1 U5 2.900764 1_555
Se1 U4 2.913528 1_565
Se1 U2 2.957950 1_555
Se1 U1 3.012660 1_555
Se2 U5 2.916280 1_455
Se2 U4 2.926076 1_555
Se2 U1 2.937878 1_555
Se2 U2 3.006852 1_555
Se3 U5 2.908844 1_545
Se3 U4 2.909403 1_555
Se3 U0 2.923247 1_555
Se3 U3 3.037209 1_555
Se4 U6 2.828221 1_554
Se4 U0 2.986860 1_555
Se4 U7 3.087829 1_655
Se5 U6 2.831473 1_554
Se5 U1 2.917293 1_555
Se5 U7 3.088863 1_565
Se6 U7 2.823432 1_556
Se6 U2 2.965976 1_555
Se6 U6 3.098336 1_455
Se7 U7 2.828696 1_556
Se7 U3 2.940239 1_555
Se7 U6 3.092850 1_545
Se8 U4 2.891779 1_555
Se8 U7 2.952043 1_555
Se8 U0 2.972420 1_455
Se8 U1 3.028365 1_545
Se9 U5 2.875723 1_555
Se9 U2 2.966295 1_655
Se9 U6 2.981238 1_555
Se9 U3 3.022111 1_565
Se10 U2 2.886070 1_545
Se10 U4 2.897846 1_555
Se10 U3 2.907368 1_455
Se11 U1 2.875683 1_655
Se11 U0 2.880638 1_565
Se11 U5 2.927677 1_555
Se12 U4 2.925926 1_555
Se12 U7 2.938510 1_556
Se12 U2 2.960547 1_555
Se12 U3 2.996055 1_555
Se13 U5 2.916517 1_555
Se13 U6 2.945921 1_554
Se13 U0 2.980779 1_555
Se13 U1 2.986002 1_555
Se14 U2 2.983042 1_555
Se14 U6 3.007337 1_555
Se14 U3 3.031429 1_555
Se14 U7 3.157920 1_556
Se15 U1 2.981115 1_555
Se15 U0 2.999911 1_555
Se15 U7 3.044935 1_555
Se15 U6 3.142819 1_554
Se16 U4 2.983497 1_555
Se16 U5 2.991345 1_445
Se16 U0 3.070704 1_455
Se16 U2 3.074685 1_545
Se16 U3 3.093190 1_455
Se16 U1 3.113928 1_545
