# generated using pymatgen
data_Na6Fe2C4SO16
_symmetry_space_group_name_H-M   'P 1'
_cell_length_a   9.98268181
_cell_length_b   9.98268181
_cell_length_c   9.98268181
_cell_angle_alpha   60.00000000
_cell_angle_beta   60.00000000
_cell_angle_gamma   60.00000000
_symmetry_Int_Tables_number   1
_chemical_formula_structural   Na6Fe2C4SO16
_chemical_formula_sum   'Na12 Fe4 C8 S2 O32'
_cell_volume   703.43939621
_cell_formula_units_Z   2
loop_
 _symmetry_equiv_pos_site_id
 _symmetry_equiv_pos_as_xyz
  1  'x, y, z'
loop_
 _atom_site_type_symbol
 _atom_site_label
 _atom_site_symmetry_multiplicity
 _atom_site_fract_x
 _atom_site_fract_y
 _atom_site_fract_z
 _atom_site_occupancy
  Na  Na0  1  0.03365300  0.03365300  0.46634700  1
  Na  Na1  1  0.46634700  0.03365300  0.46634700  1
  Na  Na2  1  0.46634700  0.03365300  0.03365300  1
  Na  Na3  1  0.03365300  0.46634700  0.46634700  1
  Na  Na4  1  0.03365300  0.46634700  0.03365300  1
  Na  Na5  1  0.46634700  0.46634700  0.03365300  1
  Na  Na6  1  0.78365300  0.78365300  0.21634700  1
  Na  Na7  1  0.78365300  0.21634700  0.78365300  1
  Na  Na8  1  0.78365300  0.21634700  0.21634700  1
  Na  Na9  1  0.21634700  0.21634700  0.78365300  1
  Na  Na10  1  0.21634700  0.78365300  0.21634700  1
  Na  Na11  1  0.21634700  0.78365300  0.78365300  1
  Fe  Fe0  1  0.62500000  0.62500000  0.62500000  1
  Fe  Fe1  1  0.62500000  0.62500000  0.12500000  1
  Fe  Fe2  1  0.12500000  0.62500000  0.62500000  1
  Fe  Fe3  1  0.62500000  0.12500000  0.62500000  1
  C  C0  1  0.84444700  0.84444700  0.46666000  1
  C  C1  1  0.40555300  0.40555300  0.78334000  1
  C  C2  1  0.40555300  0.40555300  0.40555300  1
  C  C3  1  0.78334000  0.40555300  0.40555300  1
  C  C4  1  0.40555300  0.78334000  0.40555300  1
  C  C5  1  0.84444700  0.84444700  0.84444700  1
  C  C6  1  0.46666000  0.84444700  0.84444700  1
  C  C7  1  0.84444700  0.46666000  0.84444700  1
  S  S0  1  0.00000000  0.00000000  0.00000000  1
  S  S1  1  0.25000000  0.25000000  0.25000000  1
  O  O0  1  0.78570800  0.42930600  0.26401200  1
  O  O1  1  0.42930600  0.78570800  0.52097400  1
  O  O2  1  0.26401200  0.78570800  0.42930600  1
  O  O3  1  0.52097400  0.78570800  0.26401200  1
  O  O4  1  0.82069400  0.98598800  0.46429200  1
  O  O5  1  0.46429200  0.72902600  0.82069400  1
  O  O6  1  0.98598800  0.82069400  0.72902600  1
  O  O7  1  0.72902600  0.98598800  0.82069400  1
  O  O8  1  0.42930600  0.52097400  0.26401200  1
  O  O9  1  0.78570800  0.26401200  0.52097400  1
  O  O10  1  0.26401200  0.52097400  0.78570800  1
  O  O11  1  0.81622600  0.06125800  0.06125800  1
  O  O12  1  0.52097400  0.42930600  0.78570800  1
  O  O13  1  0.78570800  0.52097400  0.42930600  1
  O  O14  1  0.42930600  0.26401200  0.78570800  1
  O  O15  1  0.52097400  0.26401200  0.42930600  1
  O  O16  1  0.18874200  0.43377400  0.18874200  1
  O  O17  1  0.43377400  0.18874200  0.18874200  1
  O  O18  1  0.72902600  0.82069400  0.46429200  1
  O  O19  1  0.18874200  0.18874200  0.43377400  1
  O  O20  1  0.06125800  0.81622600  0.06125800  1
  O  O21  1  0.18874200  0.18874200  0.18874200  1
  O  O22  1  0.06125800  0.06125800  0.06125800  1
  O  O23  1  0.06125800  0.06125800  0.81622600  1
  O  O24  1  0.72902600  0.46429200  0.98598800  1
  O  O25  1  0.98598800  0.46429200  0.82069400  1
  O  O26  1  0.82069400  0.46429200  0.72902600  1
  O  O27  1  0.46429200  0.82069400  0.98598800  1
  O  O28  1  0.82069400  0.72902600  0.98598800  1
  O  O29  1  0.46429200  0.98598800  0.72902600  1
  O  O30  1  0.98598800  0.72902600  0.46429200  1
  O  O31  1  0.26401200  0.42930600  0.52097400  1
loop_
_geom_bond_atom_site_label_1
_geom_bond_atom_site_label_2
_geom_bond_distance
_geom_bond_site_symmetry_2
Na0 O4 2.410647 1_445
Na0 O6 2.410647 1_445
Na0 O2 2.433995 1_545
Na0 O9 2.433995 1_455
Na0 O21 2.507926 1_555
Na0 O19 2.507926 1_555
Na1 O18 2.410647 1_545
Na1 O29 2.410647 1_545
Na1 O1 2.433995 1_545
Na1 O15 2.433995 1_555
Na1 O17 2.507926 1_555
Na1 O19 2.507926 1_555
Na2 O27 2.410647 1_544
Na2 O7 2.410647 1_544
Na2 O14 2.433995 1_554
Na2 O3 2.433995 1_545
Na2 O21 2.507926 1_555
Na2 O17 2.507926 1_555
Na3 O26 2.410647 1_455
Na3 O30 2.410647 1_455
Na3 O13 2.433995 1_455
Na3 O31 2.433995 1_555
Na3 O19 2.507926 1_555
Na3 O16 2.507926 1_555
Na4 O25 2.410647 1_454
Na4 O28 2.410647 1_454
Na4 O0 2.433995 1_455
Na4 O10 2.433995 1_554
Na4 O21 2.507926 1_555
Na4 O16 2.507926 1_555
Na5 O5 2.410647 1_554
Na5 O24 2.410647 1_554
Na5 O12 2.433995 1_554
Na5 O8 2.433995 1_555
Na5 O17 2.507926 1_555
Na5 O16 2.507926 1_555
Na6 O3 2.410647 1_555
Na6 O13 2.410647 1_555
Na6 O28 2.433995 1_554
Na6 O18 2.433995 1_555
Na6 O20 2.507926 1_655
Na6 O11 2.507926 1_565
Na7 O9 2.410647 1_555
Na7 O12 2.410647 1_555
Na7 O7 2.433995 1_545
Na7 O26 2.433995 1_555
Na7 O23 2.507926 1_655
Na7 O11 2.507926 1_556
Na8 O15 2.410647 1_555
Na8 O0 2.410647 1_555
Na8 O24 2.433995 1_554
Na8 O4 2.433995 1_545
Na8 O11 2.507926 1_555
Na8 O22 2.507926 1_655
Na9 O31 2.410647 1_555
Na9 O14 2.410647 1_555
Na9 O29 2.433995 1_545
Na9 O25 2.433995 1_455
Na9 O23 2.507926 1_555
Na9 O22 2.507926 1_556
Na10 O8 2.410647 1_555
Na10 O2 2.410647 1_555
Na10 O30 2.433995 1_455
Na10 O27 2.433995 1_554
Na10 O20 2.507926 1_555
Na10 O22 2.507926 1_565
Na11 O10 2.410647 1_555
Na11 O1 2.410647 1_555
Na11 O6 2.433995 1_455
Na11 O5 2.433995 1_555
Na11 O20 2.507926 1_556
Na11 O23 2.507926 1_565
Fe0 O26 2.167288 1_555
Fe0 O5 2.167288 1_555
Fe0 O18 2.167288 1_555
Fe0 O1 2.167288 1_555
Fe0 O13 2.167288 1_555
Fe0 O12 2.167288 1_555
Fe1 O3 2.167288 1_555
Fe1 O28 2.167288 1_554
Fe1 O0 2.167288 1_555
Fe1 O27 2.167288 1_554
Fe1 O24 2.167288 1_554
Fe1 O8 2.167288 1_555
Fe2 O10 2.167288 1_555
Fe2 O6 2.167288 1_455
Fe2 O2 2.167288 1_555
Fe2 O25 2.167288 1_455
Fe2 O30 2.167288 1_455
Fe2 O31 2.167288 1_555
Fe3 O9 2.167288 1_555
Fe3 O7 2.167288 1_545
Fe3 O14 2.167288 1_555
Fe3 O4 2.167288 1_545
Fe3 O29 2.167288 1_545
Fe3 O15 2.167288 1_555
C0 O4 1.300155 1_555
C0 O30 1.300158 1_555
C0 O18 1.300164 1_555
C1 O14 1.300155 1_555
C1 O10 1.300158 1_555
C1 O12 1.300164 1_555
C2 O31 1.300159 1_555
C2 O8 1.300159 1_555
C2 O15 1.300159 1_555
C3 O0 1.300155 1_555
C3 O9 1.300158 1_555
C3 O13 1.300164 1_555
C4 O2 1.300155 1_555
C4 O3 1.300158 1_555
C4 O1 1.300164 1_555
C5 O6 1.300159 1_555
C5 O7 1.300159 1_555
C5 O28 1.300159 1_555
C6 O27 1.300155 1_555
C6 O29 1.300158 1_555
C6 O5 1.300164 1_555
C7 O25 1.300155 1_555
C7 O24 1.300158 1_555
C7 O26 1.300164 1_555
O11 S0 1.497910 1_655
O16 S1 1.497910 1_555
O17 S1 1.497910 1_555
O19 S1 1.497910 1_555
O20 S0 1.497910 1_565
O21 S1 1.497910 1_555
O22 S0 1.497910 1_555
O23 S0 1.497910 1_556
