# generated using pymatgen
data_Pu3Al
_symmetry_space_group_name_H-M   'P 1'
_cell_length_a   4.44593500
_cell_length_b   4.44593500
_cell_length_c   4.28620600
_cell_angle_alpha   90.00000000
_cell_angle_beta   90.00000000
_cell_angle_gamma   90.00000000
_symmetry_Int_Tables_number   1
_chemical_formula_structural   Pu3Al
_chemical_formula_sum   'Pu3 Al1'
_cell_volume   84.72259664
_cell_formula_units_Z   1
loop_
 _symmetry_equiv_pos_site_id
 _symmetry_equiv_pos_as_xyz
  1  'x, y, z'
loop_
 _atom_site_type_symbol
 _atom_site_label
 _atom_site_symmetry_multiplicity
 _atom_site_fract_x
 _atom_site_fract_y
 _atom_site_fract_z
 _atom_site_occupancy
  Pu  Pu0  1  0.50000000  0.50000000  0.00000000  1
  Pu  Pu1  1  0.50000000  0.00000000  0.50000000  1
  Pu  Pu2  1  0.00000000  0.50000000  0.50000000  1
  Al  Al0  1  0.00000000  0.00000000  0.00000000  1
loop_
_geom_bond_atom_site_label_1
_geom_bond_atom_site_label_2
_geom_bond_distance
_geom_bond_site_symmetry_2
Pu0 Pu1 3.087795 1_564
Pu0 Pu1 3.087795 1_554
Pu0 Pu2 3.087795 1_655
Pu0 Pu1 3.087795 1_555
Pu0 Pu1 3.087795 1_565
Pu0 Pu2 3.087795 1_654
Pu0 Pu2 3.087795 1_554
Pu0 Pu2 3.087795 1_555
Pu1 Pu2 3.143751 1_655
Pu1 Pu2 3.143751 1_545
Pu1 Pu2 3.143751 1_645
Pu1 Pu2 3.143751 1_555
Al0 Pu1 3.087795 1_554
Al0 Pu2 3.087795 1_544
Al0 Pu1 3.087795 1_455
Al0 Pu1 3.087795 1_454
Al0 Pu2 3.087795 1_545
Al0 Pu1 3.087795 1_555
Al0 Pu2 3.087795 1_554
Al0 Pu2 3.087795 1_555
Al0 Pu0 3.143751 1_445
Al0 Pu0 3.143751 1_455
Al0 Pu0 3.143751 1_545
Al0 Pu0 3.143751 1_555
