# generated using pymatgen
data_Li5BiO5
_symmetry_space_group_name_H-M   'P 1'
_cell_length_a   5.43769698
_cell_length_b   5.43769698
_cell_length_c   6.05401987
_cell_angle_alpha   71.91324149
_cell_angle_beta   71.91324149
_cell_angle_gamma   46.28069473
_symmetry_Int_Tables_number   1
_chemical_formula_structural   Li5BiO5
_chemical_formula_sum   'Li5 Bi1 O5'
_cell_volume   121.77903034
_cell_formula_units_Z   1
loop_
 _symmetry_equiv_pos_site_id
 _symmetry_equiv_pos_as_xyz
  1  'x, y, z'
loop_
 _atom_site_type_symbol
 _atom_site_label
 _atom_site_symmetry_multiplicity
 _atom_site_fract_x
 _atom_site_fract_y
 _atom_site_fract_z
 _atom_site_occupancy
  Li  Li0  1  0.70175400  0.70175400  0.64790700  1
  Li  Li1  1  0.98928000  0.98928000  0.48253400  1
  Li  Li2  1  0.30714100  0.30714100  0.84578100  1
  Li  Li3  1  0.68277000  0.68277000  0.12335900  1
  Li  Li4  1  0.28114700  0.28114700  0.32864200  1
  Bi  Bi0  1  0.99465800  0.99465800  0.98371400  1
  O  O0  1  0.84559500  0.84559500  0.80519900  1
  O  O1  1  0.49680600  0.49680600  0.97613200  1
  O  O2  1  0.16169600  0.16169600  0.65961200  1
  O  O3  1  0.82901900  0.82901900  0.31129900  1
  O  O4  1  0.14213400  0.14213400  0.16582100  1
loop_
_geom_bond_atom_site_label_1
_geom_bond_atom_site_label_2
_geom_bond_distance
_geom_bond_site_symmetry_2
Li0 O0 1.975070 1_555
Li0 O3 2.005308 1_555
Li0 O2 2.170901 1_655
Li0 O2 2.170901 1_565
Li0 O1 2.323616 1_555
Li1 O0 1.996306 1_555
Li1 O4 2.008463 1_665
Li1 O3 2.182911 1_555
Li1 O2 2.317405 1_665
Li2 O4 2.078005 1_556
Li2 O2 2.119631 1_555
Li2 O0 2.170467 1_455
Li2 O0 2.170467 1_545
Li2 O1 2.287145 1_555
Li3 O0 2.060013 1_554
Li3 O3 2.134778 1_555
Li3 O4 2.174204 1_655
Li3 O4 2.174204 1_565
Li3 O1 2.317814 1_554
Li4 O2 1.955906 1_555
Li4 O4 1.956930 1_555
Li4 O3 2.184663 1_455
Li4 O3 2.184663 1_545
Li4 O1 2.469376 1_554
Bi0 O2 2.104076 1_665
Bi0 O3 2.111571 1_556
Bi0 O0 2.116125 1_555
Bi0 O4 2.118601 1_666
Bi0 O1 2.137377 1_565
Bi0 O1 2.137377 1_655
