# generated using pymatgen
data_MgV4O7F5
_symmetry_space_group_name_H-M   'P 1'
_cell_length_a   5.17067961
_cell_length_b   5.46180692
_cell_length_c   8.89089645
_cell_angle_alpha   72.88864961
_cell_angle_beta   89.46465131
_cell_angle_gamma   60.93907063
_symmetry_Int_Tables_number   1
_chemical_formula_structural   MgV4O7F5
_chemical_formula_sum   'Mg1 V4 O7 F5'
_cell_volume   207.06475405
_cell_formula_units_Z   1
loop_
 _symmetry_equiv_pos_site_id
 _symmetry_equiv_pos_as_xyz
  1  'x, y, z'
loop_
 _atom_site_type_symbol
 _atom_site_label
 _atom_site_symmetry_multiplicity
 _atom_site_fract_x
 _atom_site_fract_y
 _atom_site_fract_z
 _atom_site_occupancy
  Mg  Mg0  1  0.44679400  0.08755500  0.15480600  1
  V  V0  1  0.75269200  0.44914400  0.24421600  1
  V  V1  1  0.44696400  0.06911100  0.50443700  1
  V  V2  1  0.25129900  0.54862700  0.73564900  1
  V  V3  1  0.03092400  0.97293800  0.98971100  1
  O  O0  1  0.99301400  0.24939300  0.13020900  1
  O  O1  1  0.43219100  0.76942000  0.08109000  1
  O  O2  1  0.42749200  0.74127900  0.66562000  1
  O  O3  1  0.54788200  0.24097100  0.31403900  1
  O  O4  1  0.45868000  0.25397100  0.62382200  1
  O  O5  1  0.02468700  0.77868100  0.87224200  1
  O  O6  1  0.07648800  0.23756600  0.43159300  1
  F  F0  1  0.90957700  0.76292200  0.57153200  1
  F  F1  1  0.90660600  0.77248600  0.17543200  1
  F  F2  1  0.53704500  0.75160100  0.36437500  1
  F  F3  1  0.55777200  0.26416200  0.94396200  1
  F  F4  1  0.08114400  0.27517400  0.82940800  1
loop_
_geom_bond_atom_site_label_1
_geom_bond_atom_site_label_2
_geom_bond_distance
_geom_bond_site_symmetry_2
Mg0 O3 2.029039 1_555
Mg0 O0 2.053168 1_455
Mg0 O1 2.062283 1_545
O0 V0 1.752718 1_555
O0 V3 2.167152 1_644
O1 V3 1.860128 1_554
O1 V0 1.909326 1_555
O2 V2 1.691149 1_555
O2 V1 1.983018 1_565
O3 V0 1.881955 1_555
O3 V1 1.882357 1_555
O4 V1 1.685536 1_555
O4 V2 1.993374 1_555
O5 V3 1.703959 1_555
O5 V2 1.966646 1_555
O6 V1 1.701720 1_555
O6 V0 1.988355 1_455
F0 V2 1.911851 1_655
F0 V1 2.104230 1_565
F1 V3 1.984550 1_654
F1 Mg0 2.120234 1_565
F1 V0 2.201585 1_555
F2 Mg0 2.056431 1_565
F2 V0 2.083364 1_555
F2 V1 2.291351 1_565
F3 Mg0 2.056060 1_556
F3 V2 2.079668 1_555
F3 V3 2.130338 1_645
F4 V3 1.961825 1_545
F4 V2 2.056665 1_555
