# generated using pymatgen
data_Na10Mg4Ta4Si7S5O48
_symmetry_space_group_name_H-M   'P 1'
_cell_length_a   17.94691498
_cell_length_b   9.03573573
_cell_length_c   22.43078900
_cell_angle_alpha   89.90924730
_cell_angle_beta   89.70919126
_cell_angle_gamma   120.16617695
_symmetry_Int_Tables_number   1
_chemical_formula_structural   Na10Mg4Ta4Si7S5O48
_chemical_formula_sum   'Na30 Mg12 Ta12 Si21 S15 O144'
_cell_volume   3144.76559450
_cell_formula_units_Z   3
loop_
 _symmetry_equiv_pos_site_id
 _symmetry_equiv_pos_as_xyz
  1  'x, y, z'
loop_
 _atom_site_type_symbol
 _atom_site_label
 _atom_site_symmetry_multiplicity
 _atom_site_fract_x
 _atom_site_fract_y
 _atom_site_fract_z
 _atom_site_occupancy
  Na  Na0  1  0.32106724  0.02152522  0.25281785  1
  Na  Na1  1  0.81946640  0.02316513  0.24469019  1
  Na  Na2  1  0.17587997  0.33965674  0.25386307  1
  Na  Na3  1  0.67711212  0.34405105  0.25381913  1
  Na  Na4  1  0.82210158  0.62232199  0.75205480  1
  Na  Na5  1  0.49751235  0.36710679  0.73813824  1
  Na  Na6  1  0.17634746  0.00808039  0.75385933  1
  Na  Na7  1  0.67422029  0.01083770  0.75389719  1
  Na  Na8  1  0.65489379  0.94984725  0.07560347  1
  Na  Na9  1  0.83073120  0.70065851  0.07039976  1
  Na  Na10  1  0.00884875  0.34090640  0.08610664  1
  Na  Na11  1  0.49005851  0.69617752  0.91108336  1
  Na  Na12  1  0.98953976  0.69408046  0.91273072  1
  Na  Na13  1  0.16305160  0.29380243  0.90506182  1
  Na  Na14  1  0.49226954  0.28652102  0.41450868  1
  Na  Na15  1  0.99182334  0.28552840  0.41466764  1
  Na  Na16  1  0.16317784  0.03231429  0.40729204  1
  Na  Na17  1  0.66299510  0.03228361  0.40700043  1
  Na  Na18  1  0.99078797  0.00494681  0.49508521  1
  Na  Na19  1  0.49099101  0.00468436  0.49473745  1
  Na  Na20  1  0.99540581  0.98072810  0.99047434  1
  Na  Na21  1  0.49359400  0.99145597  0.98907299  1
  Na  Na22  1  0.33080088  0.35391078  0.82161720  1
  Na  Na23  1  0.83165273  0.34053012  0.82713884  1
  Na  Na24  1  0.33809357  0.33800108  0.32461691  1
  Na  Na25  1  0.83793096  0.33815341  0.32414943  1
  Na  Na26  1  0.15437292  0.68002096  0.16138759  1
  Na  Na27  1  0.64976751  0.66319763  0.15950069  1
  Na  Na28  1  0.15127583  0.62927018  0.66029531  1
  Na  Na29  1  0.65608440  0.64762204  0.65682837  1
  Mg  Mg0  1  0.00223140  0.01016866  0.35285030  1
  Mg  Mg1  1  0.50111417  0.01044918  0.35332636  1
  Mg  Mg2  1  0.00156705  0.99268216  0.85211302  1
  Mg  Mg3  1  0.50357024  0.99385732  0.85331998  1
  Mg  Mg4  1  0.33779400  0.35268001  0.68598495  1
  Mg  Mg5  1  0.84045006  0.34557415  0.68621019  1
  Mg  Mg6  1  0.33903624  0.33295243  0.18618266  1
  Mg  Mg7  1  0.83873509  0.32790241  0.18553833  1
  Mg  Mg8  1  0.16901064  0.68611242  0.01883681  1
  Mg  Mg9  1  0.66807200  0.67663655  0.01849284  1
  Mg  Mg10  1  0.16643730  0.65169805  0.52021748  1
  Mg  Mg11  1  0.66591316  0.65096798  0.51989327  1
  Ta  Ta0  1  0.00730648  0.01459257  0.64677989  1
  Ta  Ta1  1  0.50465461  0.00893080  0.64639396  1
  Ta  Ta2  1  0.00620646  0.00282239  0.14543336  1
  Ta  Ta3  1  0.50334026  0.99795763  0.14771768  1
  Ta  Ta4  1  0.33659085  0.34307127  0.97728949  1
  Ta  Ta5  1  0.83558242  0.33479804  0.97856654  1
  Ta  Ta6  1  0.33452019  0.32708618  0.48026268  1
  Ta  Ta7  1  0.83463476  0.32603634  0.48019717  1
  Ta  Ta8  1  0.16726018  0.66563578  0.31412059  1
  Ta  Ta9  1  0.66800600  0.66697051  0.31344072  1
  Ta  Ta10  1  0.17028787  0.66933030  0.81205705  1
  Ta  Ta11  1  0.66996510  0.67360501  0.81496720  1
  Si  Si0  1  0.14749800  0.99873026  0.25323766  1
  Si  Si1  1  0.64707198  0.99967775  0.25392938  1
  Si  Si2  1  -0.00012131  0.29610162  0.25238312  1
  Si  Si3  1  0.49892682  0.29523771  0.25255308  1
  Si  Si4  1  0.14917627  0.29727501  0.75359727  1
  Si  Si5  1  0.64727173  0.29387970  0.75224678  1
  Si  Si6  1  0.99939807  0.70388949  0.75208290  1
  Si  Si7  1  0.49716582  0.70404794  0.75369055  1
  Si  Si8  1  0.48265034  0.33797641  0.58816804  1
  Si  Si9  1  0.98342068  0.33940281  0.58671117  1
  Si  Si10  1  0.47951569  0.62321046  0.08632255  1
  Si  Si11  1  0.98240645  0.62553729  0.08463433  1
  Si  Si12  1  0.83205557  0.03692126  0.08733033  1
  Si  Si13  1  0.31196603  0.67802998  0.92146872  1
  Si  Si14  1  0.81424250  0.67076640  0.92125433  1
  Si  Si15  1  0.16669671  0.95790096  0.91859154  1
  Si  Si16  1  0.66726523  0.96571867  0.92077322  1
  Si  Si17  1  0.31245302  0.94799213  0.42136568  1
  Si  Si18  1  0.81232401  0.94753781  0.42124373  1
  Si  Si19  1  0.16738777  0.37412111  0.41944015  1
  Si  Si20  1  0.66739255  0.37452045  0.41936457  1
  S  S0  1  0.35585160  0.71160660  0.25150294  1
  S  S1  1  0.85678294  0.71321121  0.25049192  1
  S  S2  1  0.35591951  0.99387409  0.75100075  1
  S  S3  1  0.85671040  0.00120508  0.75070577  1
  S  S4  1  0.18817437  0.04220050  0.58521078  1
  S  S5  1  0.68743889  0.04141820  0.58554833  1
  S  S6  1  0.33512552  0.62582751  0.58422905  1
  S  S7  1  0.83502398  0.62630474  0.58524452  1
  S  S8  1  0.33435886  0.04327572  0.08557387  1
  S  S9  1  0.19000611  0.33396328  0.08484366  1
  S  S10  1  0.68654777  0.32989579  0.08495488  1
  S  S11  1  0.02159157  0.37781389  0.91774928  1
  S  S12  1  0.52311917  0.37685015  0.91781066  1
  S  S13  1  0.02075894  0.66495045  0.41811531  1
  S  S14  1  0.52105322  0.66476355  0.41809563  1
  O  O0  1  0.10412612  0.02004708  0.31204825  1
  O  O1  1  0.59942133  0.01435044  0.31126932  1
  O  O2  1  0.40669923  0.78987913  0.30407400  1
  O  O3  1  0.90815079  0.79206451  0.30293832  1
  O  O4  1  0.48594175  0.18298876  0.31090221  1
  O  O5  1  0.98828293  0.18234707  0.30985365  1
  O  O6  1  0.10384698  0.18646933  0.81173409  1
  O  O7  1  0.59733658  0.17377339  0.80633689  1
  O  O8  1  0.48809188  0.78690396  0.81336110  1
  O  O9  1  0.98572791  0.78996690  0.81021022  1
  O  O10  1  0.40770333  0.02068930  0.80306500  1
  O  O11  1  0.90714081  0.02447019  0.80371448  1
  O  O12  1  0.39691417  0.97029941  0.69549248  1
  O  O13  1  0.89708162  0.97153615  0.69613891  1
  O  O14  1  0.08295858  0.19654717  0.69374825  1
  O  O15  1  0.58184466  0.19991287  0.69109100  1
  O  O16  1  0.01459733  0.84031447  0.69371340  1
  O  O17  1  0.51320978  0.83847827  0.69480530  1
  O  O18  1  0.39712052  0.82165838  0.19640785  1
  O  O19  1  0.89668002  0.82174029  0.19498690  1
  O  O20  1  0.01675239  0.19772182  0.19219296  1
  O  O21  1  0.51342544  0.18855328  0.19408755  1
  O  O22  1  0.08324474  0.97148544  0.19413794  1
  O  O23  1  0.58390418  0.97108080  0.19258363  1
  O  O24  1  0.43201081  0.33957674  0.64622599  1
  O  O25  1  0.92770907  0.33884341  0.64084677  1
  O  O26  1  0.23754324  0.12756103  0.63784563  1
  O  O27  1  0.73546840  0.12577551  0.63879615  1
  O  O28  1  0.32394415  0.52477729  0.63750670  1
  O  O29  1  0.82354143  0.52856864  0.64005786  1
  O  O30  1  0.42679192  0.51521915  0.14173423  1
  O  O31  1  0.92918969  0.50781945  0.13908531  1
  O  O32  1  0.32296971  0.11807721  0.14039810  1
  O  O33  1  0.81376840  0.11578530  0.14528353  1
  O  O34  1  0.23741775  0.34704314  0.13859298  1
  O  O35  1  0.73489561  0.35216969  0.13957016  1
  O  O36  1  0.23211433  0.30968394  0.02992297  1
  O  O37  1  0.73015231  0.30120011  0.03217946  1
  O  O38  1  0.41975963  0.52722885  0.02401796  1
  O  O39  1  0.92043357  0.53809899  0.02279191  1
  O  O40  1  0.34627888  0.15579210  0.03240341  1
  O  O41  1  0.84918167  0.17440180  0.02981292  1
  O  O42  1  0.23053150  0.15507266  0.52952375  1
  O  O43  1  0.73045931  0.15422477  0.53021914  1
  O  O44  1  0.34599687  0.53662076  0.52998848  1
  O  O45  1  0.84506871  0.53263973  0.53221456  1
  O  O46  1  0.41885521  0.31445283  0.52717607  1
  O  O47  1  0.92109943  0.31330311  0.52377951  1
  O  O48  1  0.25955663  0.66881685  0.97885181  1
  O  O49  1  0.76557884  0.67198087  0.98008105  1
  O  O50  1  0.06975831  0.44726578  0.97251977  1
  O  O51  1  0.57338979  0.45746925  0.97010101  1
  O  O52  1  0.14129599  0.82571361  0.97149584  1
  O  O53  1  0.65124071  0.84561237  0.97693769  1
  O  O54  1  0.25765424  0.84545866  0.47685481  1
  O  O55  1  0.75782662  0.84520566  0.47690263  1
  O  O56  1  0.14206412  0.46118597  0.47003006  1
  O  O57  1  0.64145818  0.45978943  0.47034608  1
  O  O58  1  0.07216586  0.69357353  0.47087609  1
  O  O59  1  0.57228061  0.69321166  0.47093050  1
  O  O60  1  0.06263876  0.63117686  0.36363582  1
  O  O61  1  0.56263802  0.63128819  0.36359587  1
  O  O62  1  0.25047432  0.86537948  0.35868958  1
  O  O63  1  0.74992505  0.86389171  0.35882641  1
  O  O64  1  0.18241211  0.49676965  0.35605973  1
  O  O65  1  0.68188698  0.49689008  0.35614798  1
  O  O66  1  0.06503856  0.49495704  0.86489379  1
  O  O67  1  0.56235251  0.49066039  0.86233145  1
  O  O68  1  0.18215347  0.86726131  0.85634405  1
  O  O69  1  0.67985429  0.86324269  0.85924258  1
  O  O70  1  0.24809564  0.63514780  0.86095997  1
  O  O71  1  0.75151539  0.64289180  0.85986699  1
  O  O72  1  0.00659847  0.80688955  0.40685622  1
  O  O73  1  0.50633194  0.80616530  0.40722705  1
  O  O74  1  0.40848276  0.98442631  0.41319501  1
  O  O75  1  0.90845432  0.98447819  0.41281832  1
  O  O76  1  0.09035467  0.17817334  0.41213298  1
  O  O77  1  0.59045289  0.17824055  0.41195342  1
  O  O78  1  0.00698282  0.20639910  0.90740588  1
  O  O79  1  0.50616844  0.20505466  0.90813765  1
  O  O80  1  0.09043670  0.00257262  0.91167217  1
  O  O81  1  0.58697047  0.99405774  0.91310616  1
  O  O82  1  0.40727263  0.83348100  0.91276435  1
  O  O83  1  0.90886069  0.83387266  0.91269046  1
  O  O84  1  0.48574065  0.15081837  0.58979235  1
  O  O85  1  0.98771242  0.15313949  0.58972191  1
  O  O86  1  0.10049009  0.03232559  0.58672650  1
  O  O87  1  0.59941616  0.03011109  0.58675836  1
  O  O88  1  0.41779454  0.79768270  0.58692092  1
  O  O89  1  0.91729824  0.79777109  0.58710384  1
  O  O90  1  0.48801676  0.82293184  0.09015813  1
  O  O91  1  0.98774424  0.81821395  0.09019518  1
  O  O92  1  0.41635707  0.03363544  0.08883579  1
  O  O93  1  0.92548440  0.03389958  0.09095391  1
  O  O94  1  0.10157620  0.16895889  0.08601835  1
  O  O95  1  0.59979897  0.16224614  0.08756220  1
  O  O96  1  0.33860900  0.13584662  0.74324936  1
  O  O97  1  0.83516316  0.13531100  0.74301837  1
  O  O98  1  0.23891124  0.30293487  0.74135099  1
  O  O99  1  0.74059560  0.31345389  0.74117480  1
  O  O100  1  0.42233671  0.50887798  0.74611289  1
  O  O101  1  0.91687929  0.51773452  0.74457752  1
  O  O102  1  0.33531722  0.53522787  0.24354429  1
  O  O103  1  0.83638494  0.53694328  0.24253262  1
  O  O104  1  0.41658920  0.31684497  0.24483417  1
  O  O105  1  0.91856958  0.32145999  0.24581253  1
  O  O106  1  0.24066847  0.16913549  0.24224437  1
  O  O107  1  0.73908468  0.17309782  0.24542316  1
  O  O108  1  0.32007227  0.48983995  0.92442567  1
  O  O109  1  0.82423543  0.49271482  0.92328641  1
  O  O110  1  0.43554395  0.37066517  0.92142673  1
  O  O111  1  0.93574738  0.37281410  0.92004673  1
  O  O112  1  0.25795451  0.14935884  0.92746795  1
  O  O113  1  0.75956124  0.15294444  0.92491410  1
  O  O114  1  0.32094536  0.15088655  0.42536432  1
  O  O115  1  0.81976162  0.14967784  0.42509826  1
  O  O116  1  0.25860693  0.36610763  0.42637634  1
  O  O117  1  0.75864507  0.36675467  0.42651906  1
  O  O118  1  0.43481058  0.49869896  0.42164874  1
  O  O119  1  0.93440132  0.49986443  0.42140330  1
  O  O120  1  0.17311661  0.47488117  0.07862671  1
  O  O121  1  0.67133905  0.47148725  0.07613876  1
  O  O122  1  0.07451781  0.63663738  0.07854070  1
  O  O123  1  0.57536286  0.65606576  0.07902844  1
  O  O124  1  0.26064916  0.87087436  0.07882835  1
  O  O125  1  0.75508304  0.84307769  0.07948557  1
  O  O126  1  0.17499569  0.87197496  0.57732887  1
  O  O127  1  0.67489872  0.87152926  0.57789339  1
  O  O128  1  0.26208320  0.65235312  0.57721580  1
  O  O129  1  0.76146199  0.65161268  0.57776675  1
  O  O130  1  0.07714910  0.50225940  0.57946546  1
  O  O131  1  0.57598006  0.50222444  0.58032439  1
  O  O132  1  0.15984318  0.82719352  0.25580371  1
  O  O133  1  0.65902396  0.82790766  0.25608988  1
  O  O134  1  0.27013422  0.70999729  0.25403952  1
  O  O135  1  0.77029228  0.70948948  0.25406066  1
  O  O136  1  0.09340674  0.48529748  0.25551339  1
  O  O137  1  0.59239104  0.48331852  0.25527779  1
  O  O138  1  0.15637599  0.48785560  0.75729241  1
  O  O139  1  0.65544466  0.48717143  0.75631626  1
  O  O140  1  0.09264994  0.70228503  0.75572444  1
  O  O141  1  0.59232106  0.70026606  0.75570540  1
  O  O142  1  0.26876834  0.83099398  0.75383130  1
  O  O143  1  0.76983062  0.83087783  0.75426381  1
loop_
_geom_bond_atom_site_label_1
_geom_bond_atom_site_label_2
_geom_bond_distance
_geom_bond_site_symmetry_2
Na0 O104 2.342937 1_555
Na0 O106 2.419465 1_555
Na0 O134 2.484635 1_545
Na0 O132 2.520196 1_545
Na0 O32 2.661445 1_555
Na0 O62 2.719872 1_545
Na0 O4 2.878908 1_555
Na1 O105 2.368858 1_555
Na1 O33 2.401069 1_555
Na1 O107 2.425024 1_555
Na1 O135 2.517653 1_545
Na1 O133 2.520861 1_545
Na2 O106 2.364884 1_555
Na2 O136 2.425111 1_555
Na2 O102 2.504814 1_555
Na2 O64 2.670159 1_555
Na2 O34 2.793903 1_555
Na2 O0 2.816936 1_555
Na2 O20 2.842348 1_555
Na2 O134 2.893154 1_555
Na3 O107 2.320345 1_555
Na3 O137 2.412270 1_555
Na3 O103 2.501364 1_555
Na3 O65 2.660098 1_555
Na3 O35 2.746670 1_555
Na3 O135 2.854881 1_555
Na3 O1 2.876572 1_555
Na3 O21 2.880423 1_555
Na4 O101 2.329726 1_555
Na4 O99 2.427143 1_555
Na4 O143 2.492022 1_555
Na4 O139 2.602352 1_555
Na4 O29 2.656582 1_555
Na4 O71 2.773902 1_555
Na4 O9 2.862567 1_555
Na5 O100 2.286588 1_555
Na5 O24 2.329505 1_555
Na5 O139 2.509931 1_555
Na5 O96 2.553296 1_555
Na5 O141 2.641077 1_555
Na5 O15 2.823728 1_555
Na6 O98 2.329275 1_555
Na6 O140 2.391743 1_545
Na6 O96 2.546180 1_555
Na6 O68 2.653456 1_545
Na6 O26 2.813189 1_555
Na6 O142 2.824692 1_545
Na6 O6 2.841432 1_555
Na6 O16 2.858079 1_545
Na7 O99 2.386979 1_555
Na7 O141 2.427072 1_545
Na7 O97 2.528747 1_555
Na7 O7 2.735994 1_555
Na7 O69 2.738692 1_545
Na7 O27 2.787107 1_555
Na7 O17 2.838119 1_545
Na7 O143 2.897036 1_545
Na8 O123 2.297835 1_555
Na8 O53 2.394873 1_554
Na8 O125 2.432314 1_555
Na8 O95 2.576628 1_565
Na8 O90 2.632188 1_555
Na8 O37 2.918783 1_565
Na8 O33 2.928654 1_565
Na8 O23 2.959472 1_555
Na9 O49 2.293452 1_554
Na9 O125 2.301014 1_555
Na9 O91 2.504393 1_555
Na9 O121 2.555323 1_555
Na9 O93 2.652769 1_565
Na9 O39 2.872916 1_555
Na10 O122 2.321555 1_555
Na10 O93 2.402443 1_455
Na10 O120 2.567582 1_555
Na10 O50 2.741933 1_554
Na10 O20 2.744921 1_555
Na10 O41 2.789113 1_455
Na10 O94 2.789606 1_555
Na10 O31 2.808212 1_455
Na11 O8 2.345691 1_555
Na11 O81 2.359657 1_555
Na11 O82 2.366468 1_555
Na11 O110 2.601042 1_555
Na11 O108 2.673040 1_555
Na11 O38 2.891192 1_556
Na11 O53 2.915000 1_555
Na11 O67 2.956546 1_555
Na12 O83 2.351625 1_555
Na12 O80 2.444575 1_665
Na12 O9 2.469499 1_555
Na12 O111 2.562420 1_555
Na12 O109 2.595083 1_555
Na12 O52 2.712139 1_655
Na12 O39 2.796519 1_556
Na12 O66 2.943812 1_655
Na13 O80 2.279305 1_555
Na13 O6 2.333518 1_555
Na13 O78 2.499404 1_555
Na13 O108 2.503146 1_555
Na13 O112 2.664148 1_555
Na13 O70 2.839883 1_555
Na14 O74 2.364000 1_545
Na14 O77 2.407762 1_555
Na14 O4 2.488311 1_555
Na14 O118 2.598246 1_555
Na14 O57 2.648781 1_555
Na14 O114 2.686928 1_555
Na14 O46 2.913575 1_555
Na14 O61 2.936642 1_555
Na15 O75 2.355942 1_545
Na15 O76 2.407135 1_655
Na15 O5 2.519854 1_555
Na15 O119 2.615494 1_555
Na15 O56 2.659091 1_655
Na15 O115 2.698024 1_555
Na15 O47 2.820405 1_555
Na15 O60 2.943553 1_655
Na16 O76 2.277506 1_555
Na16 O0 2.367552 1_555
Na16 O72 2.508679 1_545
Na16 O114 2.508682 1_555
Na16 O116 2.652023 1_555
Na16 O62 2.877706 1_545
Na16 O42 2.984038 1_555
Na16 O58 3.001407 1_545
Na17 O77 2.274033 1_555
Na17 O1 2.403996 1_555
Na17 O115 2.493836 1_555
Na17 O73 2.511198 1_545
Na17 O117 2.658936 1_555
Na17 O63 2.879332 1_545
Na17 O43 3.003658 1_555
Na17 O59 3.007149 1_545
Na18 O75 2.318811 1_545
Na18 O76 2.500241 1_655
Na18 O85 2.526721 1_555
Na18 O89 2.642520 1_545
Na18 O72 2.777705 1_645
Na18 O86 2.777779 1_655
Na19 O74 2.308201 1_545
Na19 O77 2.497502 1_555
Na19 O84 2.535828 1_555
Na19 O88 2.643951 1_545
Na19 O73 2.765591 1_545
Na19 O87 2.773586 1_555
Na20 O83 2.276159 1_555
Na20 O80 2.387904 1_665
Na20 O91 2.638580 1_556
Na20 O78 2.689090 1_665
Na20 O93 2.732390 1_566
Na20 O94 2.812893 1_666
Na21 O82 2.275861 1_555
Na21 O81 2.375672 1_555
Na21 O79 2.572693 1_565
Na21 O90 2.702503 1_556
Na21 O92 2.752532 1_566
Na21 O95 2.827084 1_566
Na22 O100 2.276000 1_555
Na22 O98 2.332965 1_555
Na22 O108 2.665656 1_555
Na22 O96 2.697779 1_555
Na22 O112 2.879027 1_555
Na22 O110 2.885596 1_555
Na23 O101 2.415235 1_555
Na23 O99 2.465811 1_555
Na23 O109 2.598130 1_555
Na23 O113 2.666899 1_555
Na23 O97 2.670216 1_555
Na23 O111 2.722494 1_555
Na24 O104 2.338783 1_555
Na24 O106 2.481876 1_555
Na24 O102 2.562273 1_555
Na24 O118 2.715467 1_555
Na24 O114 2.741902 1_555
Na24 O116 2.764491 1_555
Na25 O105 2.323618 1_555
Na25 O107 2.422976 1_555
Na25 O103 2.572724 1_555
Na25 O119 2.719815 1_555
Na25 O115 2.748837 1_555
Na25 O117 2.775340 1_555
Na26 O122 2.263995 1_555
Na26 O132 2.478519 1_555
Na26 O124 2.586418 1_555
Na26 O136 2.603949 1_555
Na26 O120 2.761587 1_555
Na26 O134 2.861612 1_555
Na27 O123 2.232454 1_555
Na27 O125 2.510848 1_555
Na27 O137 2.569422 1_555
Na27 O133 2.588819 1_555
Na27 O121 2.706267 1_555
Na27 O135 2.914222 1_555
Na28 O130 2.206988 1_555
Na28 O138 2.546691 1_555
Na28 O140 2.608351 1_555
Na28 O128 2.648642 1_555
Na28 O126 2.737636 1_555
Na28 O142 2.892211 1_555
Na29 O131 2.207163 1_555
Na29 O129 2.572968 1_555
Na29 O127 2.576463 1_555
Na29 O141 2.641876 1_555
Na29 O139 2.656084 1_555
Na29 O143 2.888827 1_555
Mg0 O5 1.949954 1_455
Mg0 O0 2.002107 1_555
Mg0 O76 2.046663 1_555
Mg0 O75 2.068615 1_445
Mg0 O3 2.161036 1_445
Mg0 O72 2.232927 1_545
Mg1 O4 1.958273 1_555
Mg1 O1 1.981030 1_555
Mg1 O77 2.045327 1_555
Mg1 O74 2.050824 1_545
Mg1 O2 2.166968 1_545
Mg1 O73 2.246222 1_545
Mg2 O9 1.950428 1_455
Mg2 O6 2.000910 1_565
Mg2 O80 2.053132 1_565
Mg2 O83 2.060357 1_455
Mg2 O11 2.154025 1_465
Mg2 O78 2.257649 1_565
Mg3 O7 1.952550 1_565
Mg3 O8 1.965482 1_555
Mg3 O81 2.014056 1_555
Mg3 O82 2.078021 1_555
Mg3 O10 2.174331 1_565
Mg3 O79 2.252639 1_565
Mg4 O24 1.963351 1_555
Mg4 O100 1.996934 1_555
Mg4 O28 2.012010 1_555
Mg4 O98 2.016902 1_555
Mg4 O26 2.211162 1_555
Mg4 O96 2.347295 1_555
Mg5 O25 1.889781 1_555
Mg5 O101 1.973736 1_555
Mg5 O99 2.066285 1_555
Mg5 O29 2.097587 1_555
Mg5 O27 2.211706 1_555
Mg5 O97 2.247711 1_555
Mg6 O30 1.886492 1_555
Mg6 O104 1.977565 1_555
Mg6 O106 2.057733 1_555
Mg6 O32 2.086661 1_555
Mg6 O34 2.175874 1_555
Mg6 O102 2.264875 1_555
Mg7 O31 1.920688 1_555
Mg7 O33 1.958585 1_555
Mg7 O105 1.996845 1_555
Mg7 O107 2.101161 1_555
Mg7 O35 2.239136 1_555
Mg7 O103 2.300225 1_555
Mg8 O52 1.896794 1_554
Mg8 O48 1.926244 1_554
Mg8 O122 2.020486 1_555
Mg8 O124 2.138423 1_555
Mg8 O50 2.252170 1_554
Mg8 O120 2.362453 1_555
Mg9 O53 1.937302 1_554
Mg9 O49 1.966023 1_554
Mg9 O125 2.059118 1_555
Mg9 O123 2.076574 1_555
Mg9 O51 2.151972 1_554
Mg9 O121 2.283401 1_555
Mg10 O56 1.917364 1_555
Mg10 O54 1.946579 1_555
Mg10 O130 1.988812 1_555
Mg10 O128 2.143192 1_555
Mg10 O58 2.211702 1_555
Mg10 O126 2.308477 1_555
Mg11 O57 1.913351 1_555
Mg11 O55 1.949387 1_555
Mg11 O131 2.010155 1_555
Mg11 O129 2.153686 1_555
Mg11 O59 2.199487 1_555
Mg11 O127 2.318988 1_555
O0 Si0 1.588792 1_545
O1 Si1 1.583192 1_545
O2 S0 1.445137 1_555
O3 S1 1.447416 1_555
O4 Si3 1.597237 1_555
O5 Si2 1.593644 1_655
O6 Si4 1.591006 1_555
O7 Si5 1.568532 1_555
O8 Si7 1.581765 1_555
O9 Si6 1.599020 1_555
O10 S2 1.439401 1_545
O11 S3 1.448319 1_555
O12 S2 1.511945 1_555
O12 Ta1 2.091032 1_565
O13 S3 1.510693 1_565
O13 Ta0 2.119753 1_665
O14 Si4 1.725076 1_555
O14 Ta0 1.852829 1_555
O15 Si5 1.731906 1_555
O15 Ta1 1.875953 1_555
O16 Si6 1.720894 1_455
O16 Ta0 1.951519 1_565
O17 Si7 1.715378 1_555
O17 Ta1 1.951647 1_565
O18 S0 1.520288 1_555
O18 Ta3 2.070228 1_555
O19 S1 1.518494 1_555
O19 Ta2 2.125130 1_665
O20 Si2 1.724794 1_555
O20 Ta2 1.977406 1_555
O21 Si3 1.723202 1_555
O21 Ta3 1.942880 1_545
O22 Si0 1.696749 1_555
O22 Ta2 1.895542 1_565
O23 Si1 1.722787 1_555
O23 Ta3 1.878621 1_555
O24 Si8 1.588512 1_555
O25 Si9 1.567431 1_555
O26 S4 1.449321 1_555
O27 S5 1.450374 1_555
O28 S6 1.453301 1_555
O29 S7 1.464628 1_555
O30 Si10 1.564813 1_555
O31 Si11 1.580628 1_555
O32 S8 1.466225 1_555
O33 Si12 1.593420 1_555
O34 S9 1.449603 1_555
O35 S10 1.459535 1_555
O36 S9 1.514883 1_555
O36 Ta4 2.099642 1_554
O37 S10 1.508809 1_555
O37 Ta5 2.125327 1_554
O38 Si10 1.714552 1_555
O38 Ta4 1.902805 1_554
O39 Si11 1.709237 1_555
O39 Ta5 1.971603 1_554
O40 S8 1.508904 1_555
O40 Ta4 2.171026 1_554
O41 Si12 1.705669 1_555
O41 Ta5 1.958173 1_554
O42 S4 1.544485 1_555
O42 Ta6 2.044030 1_555
O43 S5 1.539700 1_555
O43 Ta7 2.054428 1_555
O44 S6 1.525383 1_555
O44 Ta6 2.118537 1_555
O45 S7 1.522512 1_555
O45 Ta7 2.130551 1_555
O46 Si8 1.732042 1_555
O46 Ta6 1.897537 1_555
O47 Si9 1.746775 1_555
O47 Ta7 1.889813 1_555
O48 Si13 1.567501 1_555
O49 Si14 1.581778 1_555
O50 S11 1.455481 1_555
O51 S12 1.439888 1_555
O52 Si15 1.576530 1_555
O53 Si16 1.589314 1_555
O54 Si17 1.562990 1_555
O55 Si18 1.563747 1_555
O56 Si19 1.571647 1_555
O57 Si20 1.573459 1_555
O58 S13 1.445997 1_555
O59 S14 1.445809 1_555
O60 S13 1.540700 1_555
O60 Ta8 2.060632 1_555
O61 S14 1.536785 1_555
O61 Ta9 2.076081 1_555
O62 Si17 1.719210 1_555
O62 Ta8 1.949140 1_555
O63 Si18 1.718767 1_555
O63 Ta9 1.937968 1_555
O64 Si19 1.735744 1_555
O64 Ta8 1.924090 1_555
O65 Si20 1.732968 1_555
O65 Ta9 1.929775 1_555
O66 S11 1.513654 1_555
O66 Ta10 2.106026 1_555
O67 S12 1.536643 1_555
O67 Ta11 2.087173 1_555
O68 Si15 1.710342 1_555
O68 Ta10 1.963606 1_555
O69 Si16 1.739097 1_555
O69 Ta11 1.911932 1_555
O70 Si13 1.696265 1_555
O70 Ta10 1.922643 1_555
O71 Si14 1.720080 1_555
O71 Ta11 1.911983 1_555
O72 S13 1.449287 1_555
O73 S14 1.449344 1_555
O74 Si17 1.593295 1_555
O75 Si18 1.594156 1_555
O76 Si19 1.617447 1_555
O77 Si20 1.619188 1_555
O78 S11 1.454361 1_555
O79 S12 1.440969 1_555
O80 Si15 1.617818 1_545
O81 Si16 1.595299 1_555
O82 Si13 1.586783 1_555
O83 Si14 1.604086 1_555
O84 Si8 1.719984 1_555
O84 Ta1 1.951262 1_555
O85 Si9 1.724252 1_555
O85 Ta0 1.941856 1_655
O86 S4 1.530967 1_555
O86 Ta0 2.084257 1_555
O87 S5 1.531042 1_555
O87 Ta1 2.089806 1_555
O88 S6 1.517218 1_555
O88 Ta1 2.211753 1_565
O89 S7 1.511312 1_555
O89 Ta0 2.255901 1_665
O90 Si10 1.735304 1_555
O90 Ta3 1.953625 1_555
O91 Si11 1.699683 1_555
O91 Ta2 1.970458 1_665
O92 S8 1.519373 1_555
O92 Ta3 2.193327 1_545
O93 Si12 1.693003 1_555
O93 Ta2 2.024025 1_655
O94 S9 1.537429 1_555
O94 Ta2 2.085049 1_555
O95 S10 1.533152 1_555
O95 Ta3 2.099621 1_545
O96 S2 1.474031 1_545
O97 S3 1.455527 1_555
O98 Si4 1.607595 1_555
O99 Si5 1.611239 1_555
O100 Si7 1.601698 1_555
O101 Si6 1.597105 1_555
O102 S0 1.455641 1_555
O103 S1 1.455401 1_555
O104 Si3 1.595040 1_555
O105 Si2 1.594284 1_655
O106 Si0 1.623160 1_545
O107 Si1 1.616790 1_545
O108 Si13 1.779160 1_555
O108 Ta4 1.909548 1_555
O109 Si14 1.706574 1_555
O109 Ta5 1.975863 1_555
O110 S12 1.546083 1_555
O110 Ta4 2.077867 1_555
O111 S11 1.519046 1_655
O111 Ta5 2.103950 1_555
O112 Si15 1.694592 1_545
O112 Ta4 1.960578 1_555
O113 Si16 1.673345 1_545
O113 Ta5 1.944126 1_555
O114 Si17 1.764116 1_545
O114 Ta6 1.931302 1_555
O115 Si18 1.765482 1_545
O115 Ta7 1.928772 1_555
O116 Si19 1.682628 1_555
O116 Ta6 1.984845 1_555
O117 Si20 1.682519 1_555
O117 Ta7 1.991112 1_555
O118 S14 1.522426 1_555
O118 Ta6 2.130080 1_555
O119 S13 1.519074 1_655
O119 Ta7 2.134285 1_555
O120 S9 1.456148 1_555
O121 S10 1.449529 1_555
O122 Si11 1.610142 1_455
O123 Si10 1.599254 1_555
O124 S8 1.459874 1_565
O125 Si12 1.605870 1_565
O126 S4 1.445220 1_565
O127 S5 1.445888 1_565
O128 S6 1.455456 1_555
O129 S7 1.459084 1_555
O130 Si9 1.590637 1_455
O131 Si8 1.592776 1_555
O132 Si0 1.673247 1_555
O132 Ta8 2.012668 1_555
O133 Si1 1.670849 1_555
O133 Ta9 2.006813 1_555
O134 S0 1.531873 1_555
O134 Ta8 2.148221 1_555
O135 S1 1.537289 1_555
O135 Ta9 2.134550 1_555
O136 Si2 1.691912 1_555
O136 Ta8 1.998514 1_555
O137 Si3 1.685802 1_555
O137 Ta9 2.014692 1_555
O138 Si4 1.663102 1_555
O138 Ta10 1.964224 1_555
O139 Si5 1.680298 1_555
O139 Ta11 2.050791 1_555
O140 Si6 1.683310 1_455
O140 Ta10 2.015052 1_555
O141 Si7 1.725985 1_555
O141 Ta11 2.030263 1_555
O142 S2 1.517117 1_555
O142 Ta10 2.083060 1_555
O143 S3 1.546860 1_565
O143 Ta11 2.120163 1_555
