# generated using pymatgen
data_NaTaAl3P3(SO8)3
_symmetry_space_group_name_H-M   'P 1'
_cell_length_a   8.44492075
_cell_length_b   8.42380308
_cell_length_c   21.96838765
_cell_angle_alpha   90.40694491
_cell_angle_beta   89.93286758
_cell_angle_gamma   120.11350736
_symmetry_Int_Tables_number   1
_chemical_formula_structural   NaTaAl3P3(SO8)3
_chemical_formula_sum   'Na3 Ta3 Al9 P9 S9 O72'
_cell_volume   1351.83010108
_cell_formula_units_Z   3
loop_
 _symmetry_equiv_pos_site_id
 _symmetry_equiv_pos_as_xyz
  1  'x, y, z'
loop_
 _atom_site_type_symbol
 _atom_site_label
 _atom_site_symmetry_multiplicity
 _atom_site_fract_x
 _atom_site_fract_y
 _atom_site_fract_z
 _atom_site_occupancy
  Na  Na0  1  0.00087806  0.01048195  0.99933264  1
  Na  Na1  1  0.67684334  0.33917754  0.83444863  1
  Na  Na2  1  0.66438009  0.33913291  0.33701360  1
  Ta  Ta0  1  0.00286138  0.99571001  0.64310853  1
  Ta  Ta1  1  0.65952418  0.33318949  0.18553697  1
  Ta  Ta2  1  0.32939625  0.65748201  0.52473465  1
  Al  Al0  1  0.99912307  0.99763234  0.35566741  1
  Al  Al1  1  0.99743212  -0.00002175  0.85434473  1
  Al  Al2  1  0.99066588  0.00085039  0.14478003  1
  Al  Al3  1  0.67308241  0.34044499  0.68692612  1
  Al  Al4  1  0.66741369  0.32299552  0.98004012  1
  Al  Al5  1  0.65995622  0.33274853  0.48074728  1
  Al  Al6  1  0.33375510  0.65690923  0.02067771  1
  Al  Al7  1  0.34464385  0.66095939  0.31194258  1
  Al  Al8  1  0.31721835  0.66012445  0.81425467  1
  P  P0  1  0.71855942  0.72766482  0.25153614  1
  P  P1  1  0.99889388  0.70711581  0.75449895  1
  P  P2  1  0.93500149  0.32859229  0.58308408  1
  P  P3  1  0.39676674  0.06116836  0.58377988  1
  P  P4  1  0.66664277  0.60564229  0.58347086  1
  P  P5  1  0.66416177  0.03591739  0.07894547  1
  P  P6  1  0.36886215  0.32888666  0.07819570  1
  P  P7  1  0.04477594  0.37851765  0.91696899  1
  P  P8  1  0.33330374  0.37032313  0.41271536  1
  S  S0  1  0.27686766  0.98839677  0.25166680  1
  S  S1  1  0.00736768  0.28761797  0.25180878  1
  S  S2  1  0.29411697  0.29389301  0.75323262  1
  S  S3  1  0.70490779  0.99766208  0.75308592  1
  S  S4  1  0.96066440  0.62719299  0.08035408  1
  S  S5  1  0.61979984  0.66588127  0.91599627  1
  S  S6  1  0.33233648  0.95248404  0.91680474  1
  S  S7  1  0.62499565  0.95889093  0.41421208  1
  S  S8  1  0.04306843  0.66675675  0.41337114  1
  O  O0  1  0.20354949  0.03185596  0.30553973  1
  O  O1  1  0.83863181  0.80683234  0.30802049  1
  O  O2  1  0.96951576  0.17264178  0.30543072  1
  O  O3  1  0.20636369  0.17346173  0.80574385  1
  O  O4  1  0.96500576  0.80329653  0.80811454  1
  O  O5  1  0.82788528  0.03618176  0.80584917  1
  O  O6  1  0.78950129  0.96865383  0.69674793  1
  O  O7  1  0.17839595  0.21226286  0.69689408  1
  O  O8  1  0.02810740  0.82848505  0.69581976  1
  O  O9  1  0.80712238  0.83640057  0.19407002  1
  O  O10  1  0.03611461  0.20863222  0.19602192  1
  O  O11  1  0.17431059  0.96717633  0.19568442  1
  O  O12  1  0.86351429  0.36670775  0.64073237  1
  O  O13  1  0.50431221  0.13760411  0.64170960  1
  O  O14  1  0.63049700  0.49745342  0.64085514  1
  O  O15  1  0.87638773  0.51077165  0.13731244  1
  O  O16  1  0.63569083  0.13035016  0.13839289  1
  O  O17  1  0.49401585  0.36490865  0.13813900  1
  O  O18  1  0.46628362  0.29617162  0.02544285  1
  O  O19  1  0.83790412  0.54202987  0.02807442  1
  O  O20  1  0.70537911  0.16766983  0.02637732  1
  O  O21  1  0.46877405  0.16863251  0.52591810  1
  O  O22  1  0.70247768  0.53341925  0.52530301  1
  O  O23  1  0.82914530  0.29909681  0.52474081  1
  O  O24  1  0.54135333  0.70148689  0.97093597  1
  O  O25  1  0.16483057  0.46588050  0.97352589  1
  O  O26  1  0.30147422  0.84084034  0.97127384  1
  O  O27  1  0.54144396  0.84548477  0.46971207  1
  O  O28  1  0.30199687  0.46212171  0.47099983  1
  O  O29  1  0.15690775  0.69918741  0.46956163  1
  O  O30  1  0.13067255  0.63566557  0.36004355  1
  O  O31  1  0.50395586  0.87465432  0.36082503  1
  O  O32  1  0.36869161  0.49892118  0.35911847  1
  O  O33  1  0.12994168  0.49587033  0.86003494  1
  O  O34  1  0.36749171  0.87286880  0.86164421  1
  O  O35  1  0.50764904  0.63647357  0.86094372  1
  O  O36  1  0.02610775  0.83009835  0.40710148  1
  O  O37  1  0.80399246  0.97443205  0.40676107  1
  O  O38  1  0.16242314  0.18475983  0.40418484  1
  O  O39  1  0.02399659  0.18503906  0.90758504  1
  O  O40  1  0.16761659  0.97214726  0.90898166  1
  O  O41  1  0.80552906  0.83124598  0.90920756  1
  O  O42  1  0.96812658  0.16595733  0.59258359  1
  O  O43  1  0.20108871  0.03354811  0.59212246  1
  O  O44  1  0.83159001  0.80276113  0.59143851  1
  O  O45  1  0.97629210  0.80712727  0.09114271  1
  O  O46  1  0.83535608  0.02129921  0.09093596  1
  O  O47  1  0.18608774  0.15665938  0.09281385  1
  O  O48  1  0.68786775  0.16280719  0.74468549  1
  O  O49  1  0.47326161  0.30626593  0.74445877  1
  O  O50  1  0.82630903  0.51891166  0.74399690  1
  O  O51  1  0.69669671  0.52886286  0.24359587  1
  O  O52  1  0.83941245  0.30745081  0.24468443  1
  O  O53  1  0.46879619  0.15894809  0.24547740  1
  O  O54  1  0.63839752  0.50056896  0.92353281  1
  O  O55  1  0.85263099  0.35874501  0.92528359  1
  O  O56  1  0.49679683  0.13889691  0.92320029  1
  O  O57  1  0.64432238  0.14234854  0.42208294  1
  O  O58  1  0.50555145  0.35526286  0.42307414  1
  O  O59  1  0.86197316  0.50025375  0.42133879  1
  O  O60  1  0.35560277  0.50002795  0.07273412  1
  O  O61  1  0.13811556  0.64282727  0.07370944  1
  O  O62  1  0.49240014  0.85290146  0.07027291  1
  O  O63  1  0.36493827  0.86482087  0.57368266  1
  O  O64  1  0.50154934  0.63731442  0.57494279  1
  O  O65  1  0.13118249  0.49867140  0.57463553  1
  O  O66  1  0.30090889  0.82975526  0.26048507  1
  O  O67  1  0.52756258  0.70015383  0.26009272  1
  O  O68  1  0.16546534  0.47269520  0.26010723  1
  O  O69  1  0.31386596  0.47514464  0.76062247  1
  O  O70  1  0.17071770  0.69420497  0.76092026  1
  O  O71  1  0.52724031  0.83317805  0.76135340  1
loop_
_geom_bond_atom_site_label_1
_geom_bond_atom_site_label_2
_geom_bond_distance
_geom_bond_site_symmetry_2
Na0 O39 2.452720 1_555
Na0 O46 2.475980 1_456
Na0 O47 2.493805 1_556
Na0 O41 2.527258 1_445
Na0 O40 2.543091 1_545
Na0 O45 2.595519 1_446
Na1 O50 2.439931 1_555
Na1 O55 2.443296 1_555
Na1 O54 2.487439 1_555
Na1 O48 2.490249 1_555
Na1 O56 2.534845 1_555
Na1 O49 2.542201 1_555
Na2 O58 2.359074 1_555
Na2 O59 2.399424 1_555
Na2 O57 2.455735 1_555
Na2 O51 2.539322 1_555
Na2 O53 2.554306 1_555
Na2 O52 2.598332 1_555
Al0 O1 1.819186 1_555
Al0 O38 1.822338 1_665
Al0 O36 1.914762 1_655
Al0 O37 1.920718 1_555
Al0 O0 1.943397 1_665
Al0 O2 1.961509 1_565
Al1 O4 1.836558 1_545
Al1 O39 1.863415 1_655
Al1 O5 1.929882 1_555
Al1 O41 1.951321 1_545
Al1 O3 1.954269 1_655
Al1 O40 1.976692 1_645
Al2 O9 1.832175 1_545
Al2 O46 1.839109 1_555
Al2 O47 1.895494 1_655
Al2 O10 1.943461 1_655
Al2 O45 1.959717 1_545
Al2 O11 2.046025 1_645
Al3 O12 1.818620 1_555
Al3 O14 1.843945 1_555
Al3 O13 1.863658 1_555
Al3 O50 1.879210 1_555
Al3 O49 2.010112 1_555
Al3 O48 2.019812 1_555
Al4 O20 1.814290 1_556
Al4 O55 1.874119 1_555
Al4 O18 1.882824 1_556
Al4 O56 1.942889 1_555
Al4 O19 1.975131 1_556
Al4 O54 2.057545 1_555
Al5 O21 1.810712 1_555
Al5 O22 1.820095 1_555
Al5 O23 1.862631 1_555
Al5 O58 1.896551 1_555
Al5 O57 2.002339 1_555
Al5 O59 2.051891 1_555
Al6 O60 1.831648 1_555
Al6 O25 1.836803 1_554
Al6 O62 1.861760 1_555
Al6 O24 1.936334 1_554
Al6 O61 1.975291 1_555
Al6 O26 2.025164 1_554
Al7 O32 1.810311 1_555
Al7 O67 1.811661 1_555
Al7 O68 1.916214 1_555
Al7 O31 1.936351 1_555
Al7 O66 1.996719 1_555
Al7 O30 2.009863 1_555
Al8 O33 1.802069 1_555
Al8 O70 1.830420 1_555
Al8 O34 1.920112 1_555
Al8 O69 1.935668 1_555
Al8 O35 2.001549 1_555
Al8 O71 2.011532 1_555
O0 S0 1.462068 1_545
O1 P0 1.524909 1_555
O2 S1 1.460329 1_655
O3 S2 1.472879 1_555
O4 P1 1.531006 1_555
O5 S3 1.478766 1_545
O6 S3 1.506866 1_555
O6 Ta0 2.067315 1_655
O7 S2 1.508686 1_555
O7 Ta0 2.044832 1_545
O8 P1 1.591469 1_455
O8 Ta0 1.922455 1_555
O9 P0 1.522799 1_555
O10 S1 1.467449 1_555
O11 S0 1.462394 1_555
O12 P2 1.502781 1_555
O13 P3 1.504421 1_555
O14 P4 1.499748 1_555
O15 S4 1.532646 1_555
O15 Ta1 1.995769 1_555
O16 P5 1.603923 1_555
O16 Ta1 1.913894 1_555
O17 P6 1.618342 1_555
O17 Ta1 1.868500 1_555
O18 P6 1.522032 1_555
O19 S4 1.467402 1_555
O20 P5 1.521911 1_555
O21 P3 1.505724 1_555
O22 P4 1.505798 1_555
O23 P2 1.509615 1_555
O24 S5 1.475769 1_555
O25 P7 1.534433 1_555
O26 S6 1.467498 1_555
O27 S7 1.495057 1_555
O27 Ta2 2.086221 1_555
O28 P8 1.580391 1_555
O28 Ta2 1.935522 1_555
O29 S8 1.502361 1_555
O29 Ta2 2.058651 1_555
O30 S8 1.475266 1_555
O31 S7 1.478870 1_555
O32 P8 1.530235 1_555
O33 P7 1.536529 1_555
O34 S6 1.481136 1_555
O35 S5 1.477858 1_555
O36 S8 1.460561 1_555
O37 S7 1.459473 1_555
O38 P8 1.514600 1_555
O39 P7 1.561394 1_555
O40 S6 1.491358 1_555
O41 S5 1.494262 1_555
O42 P2 1.545145 1_555
O42 Ta0 1.954548 1_645
O43 P3 1.559657 1_555
O43 Ta0 1.903621 1_545
O44 P4 1.550395 1_555
O44 Ta0 1.908131 1_655
O45 S4 1.471488 1_555
O46 P5 1.534488 1_555
O47 P6 1.532595 1_555
O48 S3 1.481434 1_545
O49 S2 1.475855 1_555
O50 P1 1.538805 1_555
O51 P0 1.598344 1_555
O51 Ta1 1.973359 1_555
O52 S1 1.517513 1_655
O52 Ta1 2.093397 1_555
O53 S0 1.541196 1_545
O53 Ta1 2.032946 1_555
O54 S5 1.487983 1_555
O55 P7 1.556482 1_655
O56 S6 1.491119 1_545
O57 S7 1.479191 1_545
O58 P8 1.539530 1_555
O59 S8 1.478930 1_655
O60 P6 1.506582 1_555
O61 S4 1.444320 1_455
O62 P5 1.506539 1_565
O63 P3 1.551119 1_565
O63 Ta2 1.935193 1_555
O64 P4 1.557128 1_555
O64 Ta2 1.900867 1_555
O65 P2 1.566261 1_455
O65 Ta2 1.887563 1_555
O66 S0 1.463091 1_555
O67 P0 1.521673 1_555
O68 S1 1.467754 1_555
O69 S2 1.458218 1_555
O70 P1 1.515352 1_455
O71 S3 1.456325 1_555
