# generated using pymatgen
data_Na6Ti2Si5Sn2SO24
_symmetry_space_group_name_H-M   'P 1'
_cell_length_a   9.01516194
_cell_length_b   9.00454615
_cell_length_c   22.24138891
_cell_angle_alpha   90.00347809
_cell_angle_beta   89.73811060
_cell_angle_gamma   119.99438845
_symmetry_Int_Tables_number   1
_chemical_formula_structural   Na6Ti2Si5Sn2SO24
_chemical_formula_sum   'Na18 Ti6 Si15 Sn6 S3 O72'
_cell_volume   1563.67496078
_cell_formula_units_Z   3
loop_
 _symmetry_equiv_pos_site_id
 _symmetry_equiv_pos_as_xyz
  1  'x, y, z'
loop_
 _atom_site_type_symbol
 _atom_site_label
 _atom_site_symmetry_multiplicity
 _atom_site_fract_x
 _atom_site_fract_y
 _atom_site_fract_z
 _atom_site_occupancy
  Na  Na0  1  0.64097928  0.00785355  0.24904572  1
  Na  Na1  1  0.36458845  0.36804228  0.24796200  1
  Na  Na2  1  0.99509517  0.63016806  0.24987730  1
  Na  Na3  1  0.63548209  0.63607270  0.74860090  1
  Na  Na4  1  0.00143024  0.36932435  0.75115505  1
  Na  Na5  1  0.36809167  0.99933163  0.75116117  1
  Na  Na6  1  0.30112885  0.33191390  0.58607198  1
  Na  Na7  1  0.03214306  0.70078268  0.58341278  1
  Na  Na8  1  0.67011215  0.96898192  0.58277903  1
  Na  Na9  1  0.03474536  0.33002986  0.08719998  1
  Na  Na10  1  0.96855301  0.66392595  0.91654883  1
  Na  Na11  1  0.32985190  0.02621411  0.41723491  1
  Na  Na12  1  0.97969562  0.98881339  0.49805945  1
  Na  Na13  1  0.01308053  0.00486494  0.00031606  1
  Na  Na14  1  0.65922765  0.31434233  0.83815666  1
  Na  Na15  1  0.68566439  0.33946453  0.33294040  1
  Na  Na16  1  0.34355772  0.67054459  0.16298701  1
  Na  Na17  1  0.33403372  0.66835455  0.66732023  1
  Ti  Ti0  1  0.01490485  0.01592968  0.85314803  1
  Ti  Ti1  1  0.01122149  0.99461552  0.14765657  1
  Ti  Ti2  1  0.66669056  0.34695248  0.18548048  1
  Ti  Ti3  1  0.65603870  0.32765733  0.98157429  1
  Ti  Ti4  1  0.30535933  0.65144482  0.01987410  1
  Ti  Ti5  1  0.32844438  0.67866004  0.31053812  1
  Si  Si0  1  0.29430145  0.00618648  0.25103535  1
  Si  Si1  1  0.70922101  0.71167258  0.24739508  1
  Si  Si2  1  0.99937944  0.28936346  0.24747035  1
  Si  Si3  1  0.29403267  0.29439423  0.75040107  1
  Si  Si4  1  0.99981446  0.71193312  0.75260520  1
  Si  Si5  1  0.71288474  0.99911486  0.75217010  1
  Si  Si6  1  0.96111335  0.33221252  0.58390022  1
  Si  Si7  1  0.37711581  0.04577977  0.58271103  1
  Si  Si8  1  0.66597421  0.62223429  0.58283648  1
  Si  Si9  1  0.94947375  0.62674417  0.08164874  1
  Si  Si10  1  0.37565685  0.33632195  0.08327559  1
  Si  Si11  1  0.03079251  0.36437976  0.91763812  1
  Si  Si12  1  0.33498359  0.96211930  0.91829115  1
  Si  Si13  1  0.62851637  0.95928885  0.41529924  1
  Si  Si14  1  0.03735014  0.66658449  0.41530252  1
  Sn  Sn0  1  0.98695796  0.98923507  0.35009160  1
  Sn  Sn1  1  -0.00000301  0.00000624  0.64826870  1
  Sn  Sn2  1  0.67080058  0.33577054  0.68770345  1
  Sn  Sn3  1  0.67980687  0.33342420  0.47880151  1
  Sn  Sn4  1  0.33633340  0.67486821  0.51864176  1
  Sn  Sn5  1  0.32972318  0.67165724  0.81749798  1
  S  S0  1  0.66277530  0.04206809  0.08277489  1
  S  S1  1  0.62259642  0.66461579  0.91888670  1
  S  S2  1  0.33255900  0.37664291  0.41514667  1
  O  O0  1  0.22175187  0.05408189  0.31112562  1
  O  O1  1  0.83490056  0.77150090  0.30586614  1
  O  O2  1  0.94943136  0.16180550  0.30559820  1
  O  O3  1  0.19630834  0.16300320  0.80672418  1
  O  O4  1  0.97179935  0.80503050  0.81081444  1
  O  O5  1  0.84608036  0.03064338  0.80656147  1
  O  O6  1  0.78023024  0.95778228  0.68902981  1
  O  O7  1  0.17805551  0.22347167  0.68963225  1
  O  O8  1  0.04010290  0.82500958  0.69060916  1
  O  O9  1  0.80461055  0.84682220  0.19226704  1
  O  O10  1  0.03747874  0.20187499  0.18898540  1
  O  O11  1  0.15938736  0.96359488  0.19549776  1
  O  O12  1  0.89087877  0.38117653  0.64486486  1
  O  O13  1  0.49672165  0.12439141  0.64254241  1
  O  O14  1  0.62325745  0.50835270  0.64499102  1
  O  O15  1  0.86290200  0.50091893  0.14116112  1
  O  O16  1  0.63937696  0.11853707  0.13943810  1
  O  O17  1  0.49393293  0.35625573  0.14283674  1
  O  O18  1  0.47859823  0.31070627  0.02721459  1
  O  O19  1  0.83570797  0.52806060  0.02305183  1
  O  O20  1  0.68887997  0.15605509  0.03090855  1
  O  O21  1  0.45628770  0.16478684  0.52232013  1
  O  O22  1  0.70953387  0.53658328  0.52603943  1
  O  O23  1  0.83169207  0.28007707  0.52728206  1
  O  O24  1  0.52858350  0.68107382  0.96965499  1
  O  O25  1  0.15589653  0.46392894  0.97637966  1
  O  O26  1  0.30713408  0.82168161  0.97189251  1
  O  O27  1  0.55005726  0.85258036  0.47794735  1
  O  O28  1  0.31337916  0.45222954  0.47188533  1
  O  O29  1  0.15066501  0.69728974  0.47638424  1
  O  O30  1  0.14193724  0.64930780  0.35644878  1
  O  O31  1  0.50175974  0.85386109  0.35775091  1
  O  O32  1  0.34694173  0.47959200  0.36150944  1
  O  O33  1  0.11311569  0.49016409  0.85810104  1
  O  O34  1  0.37626085  0.89417925  0.85487096  1
  O  O35  1  0.52692220  0.63865516  0.86059468  1
  O  O36  1  0.03852104  0.84989067  0.41167844  1
  O  O37  1  0.82030054  0.98607571  0.41231703  1
  O  O38  1  0.17950576  0.20108014  0.41309032  1
  O  O39  1  0.01913579  0.17820504  0.91225862  1
  O  O40  1  0.15273906  0.96245432  0.91399182  1
  O  O41  1  0.79575755  0.81830897  0.91531038  1
  O  O42  1  0.98148369  0.16246984  0.58804509  1
  O  O43  1  0.18617286  0.02448372  0.58688111  1
  O  O44  1  0.83583457  0.81366731  0.58656935  1
  O  O45  1  0.97201185  0.81729823  0.08950904  1
  O  O46  1  0.82415033  0.03399053  0.08579538  1
  O  O47  1  0.18165358  0.16770934  0.08907375  1
  O  O48  1  0.69602416  0.17245859  0.74952444  1
  O  O49  1  0.47940704  0.30336742  0.74877429  1
  O  O50  1  0.82521104  0.52254152  0.74995689  1
  O  O51  1  0.68288961  0.51696166  0.23905757  1
  O  O52  1  0.83146781  0.31417098  0.23994411  1
  O  O53  1  0.48650588  0.16781647  0.24121340  1
  O  O54  1  0.64456163  0.51049598  0.92262688  1
  O  O55  1  0.84697226  0.35657050  0.92592792  1
  O  O56  1  0.50174174  0.15215393  0.92830507  1
  O  O57  1  0.62173623  0.14003269  0.41564083  1
  O  O58  1  0.48928575  0.35956209  0.41650855  1
  O  O59  1  0.84916718  0.49459089  0.41529281  1
  O  O60  1  0.35533897  0.50782332  0.07668989  1
  O  O61  1  0.14050172  0.63764757  0.07668438  1
  O  O62  1  0.51165791  0.86976834  0.07624588  1
  O  O63  1  0.35580209  0.85378303  0.58028447  1
  O  O64  1  0.49300152  0.63863023  0.57722531  1
  O  O65  1  0.15190442  0.50088072  0.57611394  1
  O  O66  1  0.30897603  0.83035691  0.25526090  1
  O  O67  1  0.51779668  0.68859484  0.25552381  1
  O  O68  1  0.17259784  0.48056960  0.25595066  1
  O  O69  1  0.31769567  0.48534518  0.75886283  1
  O  O70  1  0.16996337  0.68931561  0.75483072  1
  O  O71  1  0.52302087  0.82692491  0.75802337  1
loop_
_geom_bond_atom_site_label_1
_geom_bond_atom_site_label_2
_geom_bond_distance
_geom_bond_site_symmetry_2
Na0 O52 2.420533 1_555
Na0 O53 2.460127 1_555
Na0 O67 2.514957 1_545
Na0 O66 2.597179 1_545
Na0 O16 2.636576 1_555
Na0 O2 2.722851 1_555
Na0 O31 2.752480 1_545
Na0 O9 2.827507 1_545
Na1 O68 2.409287 1_555
Na1 O51 2.493831 1_555
Na1 O67 2.506688 1_555
Na1 O53 2.541832 1_555
Na1 O17 2.633744 1_555
Na1 O32 2.750989 1_555
Na1 O0 2.822807 1_555
Na1 O10 2.877356 1_555
Na2 O52 2.475367 1_555
Na2 O51 2.481220 1_555
Na2 O66 2.484750 1_655
Na2 O68 2.559444 1_655
Na2 O1 2.660251 1_555
Na2 O30 2.683467 1_655
Na2 O15 2.694572 1_555
Na2 O11 2.865077 1_655
Na3 O50 2.391725 1_555
Na3 O71 2.401096 1_555
Na3 O69 2.491624 1_555
Na3 O14 2.553517 1_555
Na3 O49 2.596214 1_555
Na3 O35 2.676452 1_555
Na3 O6 2.838163 1_555
Na3 O4 2.974582 1_555
Na4 O48 2.417713 1_455
Na4 O70 2.498293 1_555
Na4 O69 2.505264 1_555
Na4 O50 2.572884 1_455
Na4 O12 2.592545 1_455
Na4 O33 2.604191 1_555
Na4 O7 2.864162 1_555
Na4 O5 2.914588 1_455
Na5 O49 2.399489 1_565
Na5 O70 2.450138 1_555
Na5 O34 2.508808 1_555
Na5 O71 2.560099 1_555
Na5 O48 2.561780 1_565
Na5 O13 2.667989 1_565
Na5 O3 2.891689 1_565
Na5 O8 2.901094 1_555
Na6 O43 2.422620 1_555
Na6 O64 2.424664 1_555
Na6 O65 2.494580 1_555
Na6 O42 2.497335 1_455
Na6 O7 2.526563 1_555
Na6 O28 2.741166 1_555
Na6 O14 2.845411 1_555
Na6 O21 2.884118 1_555
Na7 O44 2.442874 1_455
Na7 O65 2.524598 1_555
Na7 O43 2.526714 1_565
Na7 O63 2.528955 1_555
Na7 O29 2.611439 1_555
Na7 O8 2.619505 1_555
Na7 O22 2.829724 1_455
Na7 O12 2.844716 1_455
Na8 O42 2.458044 1_565
Na8 O63 2.484106 1_555
Na8 O44 2.507058 1_555
Na8 O27 2.568058 1_555
Na8 O64 2.581910 1_555
Na8 O6 2.588785 1_555
Na8 O23 2.719692 1_565
Na8 O13 2.887283 1_565
Na9 O46 2.377362 1_455
Na9 O47 2.414141 1_555
Na9 O61 2.448252 1_555
Na9 O60 2.517646 1_555
Na9 O10 2.546869 1_555
Na9 O25 2.716790 1_554
Na9 O15 2.928225 1_455
Na9 O20 2.982521 1_455
Na10 O40 2.350048 1_655
Na10 O55 2.422703 1_555
Na10 O54 2.533781 1_555
Na10 O41 2.554510 1_555
Na10 O19 2.655485 1_556
Na10 O4 2.666119 1_555
Na10 O33 2.803488 1_655
Na10 O26 2.923849 1_655
Na11 O36 2.295157 1_545
Na11 O57 2.297515 1_555
Na11 O38 2.541636 1_555
Na11 O58 2.600430 1_555
Na11 O0 2.616865 1_555
Na11 O21 2.630753 1_555
Na11 O29 2.882692 1_545
Na11 O31 2.991075 1_545
Na12 O37 2.385768 1_555
Na12 O44 2.444710 1_555
Na12 O36 2.488152 1_655
Na12 O42 2.534906 1_565
Na12 O43 2.628022 1_665
Na12 O38 2.645082 1_665
Na13 O40 2.424018 1_544
Na13 O47 2.481081 1_555
Na13 O39 2.487817 1_554
Na13 O45 2.508682 1_445
Na13 O41 2.641548 1_444
Na13 O46 2.645984 1_455
Na14 O48 2.458820 1_555
Na14 O56 2.463723 1_555
Na14 O55 2.491356 1_555
Na14 O49 2.541481 1_555
Na14 O50 2.602069 1_555
Na14 O54 2.626342 1_555
Na15 O59 2.333345 1_555
Na15 O57 2.428218 1_555
Na15 O52 2.516383 1_555
Na15 O58 2.629046 1_555
Na15 O51 2.637439 1_555
Na15 O53 2.652020 1_555
Na16 O60 2.448580 1_555
Na16 O62 2.547994 1_555
Na16 O67 2.550299 1_555
Na16 O61 2.571597 1_555
Na16 O66 2.611954 1_555
Na16 O68 2.629082 1_555
Na17 O63 2.498603 1_555
Na17 O70 2.502896 1_555
Na17 O64 2.549123 1_555
Na17 O71 2.571005 1_555
Na17 O69 2.576382 1_555
Na17 O65 2.576728 1_555
O0 Si0 1.635222 1_555
O0 Sn0 2.078465 1_445
O1 Si1 1.633495 1_555
O1 Sn0 2.003884 1_555
O2 Si2 1.634391 1_555
O2 Sn0 2.009297 1_545
O3 Si3 1.641078 1_555
O3 Ti0 1.820372 1_555
O4 Si4 1.628259 1_555
O4 Ti0 1.977174 1_665
O5 Si5 1.630440 1_545
O5 Ti0 1.903583 1_655
O6 Si5 1.642355 1_555
O6 Sn1 2.030322 1_665
O7 Si3 1.634934 1_555
O7 Sn1 2.062975 1_555
O8 Si4 1.641888 1_455
O8 Sn1 2.018295 1_565
O9 Si1 1.633427 1_555
O9 Ti1 1.931266 1_655
O10 Si2 1.642245 1_455
O10 Ti1 1.985965 1_545
O11 Si0 1.643015 1_565
O11 Ti1 1.838616 1_555
O12 Si6 1.644710 1_555
O12 Sn2 2.045263 1_555
O13 Si7 1.638428 1_555
O13 Sn2 2.030326 1_555
O14 Si8 1.646622 1_555
O14 Sn2 2.042308 1_555
O15 Si9 1.658749 1_555
O15 Ti2 1.885459 1_555
O16 S0 1.499862 1_555
O16 Ti2 2.198936 1_555
O17 Si10 1.656980 1_555
O17 Ti2 1.864446 1_555
O18 Si10 1.634795 1_555
O18 Ti3 1.831305 1_554
O19 Si9 1.625085 1_555
O19 Ti3 1.955004 1_554
O20 S0 1.481817 1_555
O20 Ti3 2.034667 1_554
O21 Si7 1.639690 1_555
O21 Sn3 2.055766 1_555
O22 Si8 1.625727 1_555
O22 Sn3 2.008574 1_555
O23 Si6 1.622704 1_555
O23 Sn3 1.984824 1_555
O24 S1 1.460171 1_555
O24 Ti4 2.193441 1_556
O25 Si11 1.668824 1_555
O25 Ti4 1.827396 1_556
O26 Si12 1.662367 1_555
O26 Ti4 1.861301 1_556
O27 Si13 1.636062 1_555
O27 Sn4 1.998454 1_555
O28 S2 1.483652 1_555
O28 Sn4 2.174917 1_555
O29 Si14 1.641918 1_555
O29 Sn4 2.019432 1_555
O30 Si14 1.661928 1_555
O30 Ti5 1.865377 1_555
O31 Si13 1.665510 1_555
O31 Ti5 1.892898 1_555
O32 S2 1.475761 1_555
O32 Ti5 2.197039 1_555
O33 Si11 1.654652 1_555
O33 Sn5 2.023086 1_555
O34 Si12 1.650790 1_555
O34 Sn5 2.011042 1_555
O35 S1 1.512640 1_555
O35 Sn5 2.170580 1_555
O36 Si14 1.647313 1_555
O36 Sn0 2.062988 1_455
O37 Si13 1.622927 1_555
O37 Sn0 2.027759 1_555
O38 S2 1.491553 1_555
O38 Sn0 2.307924 1_445
O39 Si11 1.630855 1_555
O39 Ti0 1.951806 1_555
O40 Si12 1.647688 1_555
O40 Ti0 2.054479 1_565
O41 S1 1.482356 1_555
O41 Ti0 2.332715 1_665
O42 Si6 1.630709 1_555
O42 Sn1 2.051465 1_655
O43 Si7 1.636164 1_555
O43 Sn1 2.083029 1_555
O44 Si8 1.638646 1_555
O44 Sn1 2.103389 1_665
O45 Si9 1.633313 1_555
O45 Ti1 1.945890 1_655
O46 S0 1.494324 1_555
O46 Ti1 2.341383 1_645
O47 Si10 1.650360 1_555
O47 Ti1 2.018750 1_545
O48 Si5 1.643237 1_545
O48 Sn2 2.107665 1_555
O49 Si3 1.632520 1_555
O49 Sn2 2.093451 1_555
O50 Si4 1.645118 1_555
O50 Sn2 2.088043 1_555
O51 Si1 1.658004 1_555
O51 Ti2 1.887504 1_555
O52 Si2 1.646137 1_555
O52 Ti2 2.053313 1_555
O53 Si0 1.625887 1_555
O53 Ti2 2.034495 1_555
O54 S1 1.498996 1_555
O54 Ti3 2.147557 1_555
O55 Si11 1.632742 1_655
O55 Ti3 2.023593 1_555
O56 Si12 1.633630 1_545
O56 Ti3 1.911286 1_555
O57 Si13 1.658934 1_545
O57 Sn3 2.091624 1_555
O58 S2 1.496187 1_555
O58 Sn3 2.313224 1_555
O59 Si14 1.627789 1_655
O59 Sn3 2.048804 1_555
O60 Si10 1.650132 1_555
O60 Ti4 2.015032 1_555
O61 Si9 1.678343 1_455
O61 Ti4 1.902380 1_555
O62 S0 1.473993 1_565
O62 Ti4 2.293707 1_555
O63 Si7 1.642158 1_565
O63 Sn4 2.055527 1_555
O64 Si8 1.643470 1_555
O64 Sn4 2.068028 1_555
O65 Si6 1.637241 1_455
O65 Sn4 2.056519 1_555
O66 Si0 1.656085 1_565
O66 Ti5 1.910513 1_555
O67 Si1 1.640909 1_555
O67 Ti5 2.060925 1_555
O68 Si2 1.659204 1_455
O68 Ti5 2.034532 1_555
O69 Si3 1.634303 1_555
O69 Sn5 2.084750 1_555
O70 Si4 1.646171 1_455
O70 Sn5 2.071154 1_555
O71 Si5 1.641726 1_555
O71 Sn5 2.069881 1_555
