# generated using pymatgen
data_NaNbZnSi(SO6)2
_symmetry_space_group_name_H-M   'P 1'
_cell_length_a   8.80057242
_cell_length_b   8.80057213
_cell_length_c   22.94044021
_cell_angle_alpha   89.48234108
_cell_angle_beta   90.51765892
_cell_angle_gamma   119.50666135
_symmetry_Int_Tables_number   1
_chemical_formula_structural   NaNbZnSi(SO6)2
_chemical_formula_sum   'Na6 Nb6 Zn6 Si6 S12 O72'
_cell_volume   1546.20839657
_cell_formula_units_Z   6
loop_
 _symmetry_equiv_pos_site_id
 _symmetry_equiv_pos_as_xyz
  1  'x, y, z'
loop_
 _atom_site_type_symbol
 _atom_site_label
 _atom_site_symmetry_multiplicity
 _atom_site_fract_x
 _atom_site_fract_y
 _atom_site_fract_z
 _atom_site_occupancy
  Na  Na0  1  0.98630032  0.99522684  0.49186410  1
  Na  Na1  1  0.00477316  0.01369968  0.99186410  1
  Na  Na2  1  0.67218426  0.32230292  0.82526793  1
  Na  Na3  1  0.67769708  0.32781574  0.32526793  1
  Na  Na4  1  0.33114782  0.65073256  0.15920181  1
  Na  Na5  1  0.34926744  0.66885218  0.65920181  1
  Nb  Nb0  1  0.97706731  0.98634156  0.64533686  1
  Nb  Nb1  1  0.01365844  0.02293269  0.14533686  1
  Nb  Nb2  1  0.66547443  0.33231050  0.97904838  1
  Nb  Nb3  1  0.66768950  0.33452557  0.47904838  1
  Nb  Nb4  1  0.33774553  0.67235333  0.31231670  1
  Nb  Nb5  1  0.32764667  0.66225447  0.81231670  1
  Zn  Zn0  1  0.97791125  0.00606473  0.35189817  1
  Zn  Zn1  1  0.99393527  0.02208875  0.85189817  1
  Zn  Zn2  1  0.66140033  0.32818062  0.68458292  1
  Zn  Zn3  1  0.67181938  0.33859967  0.18458292  1
  Zn  Zn4  1  0.32421161  0.63948205  0.01916695  1
  Zn  Zn5  1  0.36051795  0.67578839  0.51916695  1
  Si  Si0  1  0.99113511  0.29755992  0.25220906  1
  Si  Si1  1  0.70244008  0.00886489  0.75220906  1
  Si  Si2  1  0.65256930  0.60926342  0.58703324  1
  Si  Si3  1  0.39073658  0.34743070  0.08703324  1
  Si  Si4  1  0.04295204  0.36873165  0.91900776  1
  Si  Si5  1  0.63126835  0.95704796  0.41900776  1
  S  S0  1  0.28576078  0.00028320  0.25271631  1
  S  S1  1  0.71294219  0.71062668  0.25125331  1
  S  S2  1  0.28937332  0.28705781  0.75125331  1
  S  S3  1  -0.00028320  0.71423922  0.75271631  1
  S  S4  1  0.96140627  0.33787210  0.58358385  1
  S  S5  1  0.37268191  0.04145784  0.58404345  1
  S  S6  1  0.95854216  0.62731809  0.08404345  1
  S  S7  1  0.66212790  0.03859373  0.08358385  1
  S  S8  1  0.62529559  0.66911533  0.91791605  1
  S  S9  1  0.33169441  0.95279447  0.91785279  1
  S  S10  1  0.33088467  0.37470441  0.41791605  1
  S  S11  1  0.04720553  0.66830559  0.41785279  1
  O  O0  1  0.20055378  0.01391557  0.30430413  1
  O  O1  1  0.81447578  0.78691518  0.30390718  1
  O  O2  1  0.97553602  0.18211463  0.30655929  1
  O  O3  1  0.21308482  0.18552422  0.80390718  1
  O  O4  1  0.98608443  0.79944622  0.80430413  1
  O  O5  1  0.81788536  0.02446398  0.80655929  1
  O  O6  1  0.80236853  0.97329225  0.69241926  1
  O  O7  1  0.18017453  0.20948353  0.69832463  1
  O  O8  1  0.02918736  0.82502088  0.69800751  1
  O  O9  1  0.79051647  0.81982547  0.19832463  1
  O  O10  1  0.02670774  0.19763147  0.19241926  1
  O  O11  1  0.17497912  0.97081264  0.19800751  1
  O  O12  1  0.88196055  0.35554420  0.63596514  1
  O  O13  1  0.47892174  0.11613409  0.63570396  1
  O  O14  1  0.64958511  0.50670381  0.64366192  1
  O  O15  1  0.88386591  0.52107826  0.13570396  1
  O  O16  1  0.64445580  0.11803945  0.13596514  1
  O  O17  1  0.49329619  0.35041489  0.14366192  1
  O  O18  1  0.47842202  0.30988078  0.02744214  1
  O  O19  1  0.84385930  0.53550741  0.03054173  1
  O  O20  1  0.69898977  0.15535169  0.03024611  1
  O  O21  1  0.46449259  0.15614070  0.53054173  1
  O  O22  1  0.69011922  0.52157798  0.52744214  1
  O  O23  1  0.84464831  0.30101023  0.53024611  1
  O  O24  1  0.54948357  0.69734692  0.96969446  1
  O  O25  1  0.15210484  0.46646707  0.97406864  1
  O  O26  1  0.31775401  0.85564066  0.97057991  1
  O  O27  1  0.53353293  0.84789516  0.47406864  1
  O  O28  1  0.30265308  0.45051643  0.46969446  1
  O  O29  1  0.14435934  0.68224599  0.47057991  1
  O  O30  1  0.12813275  0.63566845  0.36429318  1
  O  O31  1  0.50082624  0.85983856  0.35951844  1
  O  O32  1  0.35928347  0.48784309  0.36467089  1
  O  O33  1  0.14016144  0.49917376  0.85951844  1
  O  O34  1  0.36433155  0.87186725  0.86429318  1
  O  O35  1  0.51215691  0.64071653  0.86467089  1
  O  O36  1  0.02441644  0.81868040  0.40790690  1
  O  O37  1  0.82257199  0.98249919  0.41434563  1
  O  O38  1  0.19125834  0.19661657  0.40957308  1
  O  O39  1  0.01750081  0.17742801  0.91434563  1
  O  O40  1  0.18131960  0.97558356  0.90790690  1
  O  O41  1  0.80338343  0.80874166  0.90957308  1
  O  O42  1  0.97929942  0.17345506  0.58847453  1
  O  O43  1  0.20212077  0.04129714  0.58786549  1
  O  O44  1  0.84338184  0.81051814  0.59242172  1
  O  O45  1  0.95870286  0.79787923  0.08786549  1
  O  O46  1  0.82654494  0.02070058  0.08847453  1
  O  O47  1  0.18948186  0.15661816  0.09242172  1
  O  O48  1  0.67690769  0.17283229  0.74084217  1
  O  O49  1  0.46702535  0.32057728  0.74556443  1
  O  O50  1  0.85390614  0.53946599  0.74559259  1
  O  O51  1  0.67942272  0.53297465  0.24556443  1
  O  O52  1  0.82716771  0.32309231  0.24084217  1
  O  O53  1  0.46053401  0.14609386  0.24559259  1
  O  O54  1  0.63083645  0.49819958  0.92273759  1
  O  O55  1  0.84507552  0.35740876  0.92578326  1
  O  O56  1  0.49745430  0.13266690  0.92199879  1
  O  O57  1  0.64259124  0.15492448  0.42578326  1
  O  O58  1  0.50180042  0.36916355  0.42273759  1
  O  O59  1  0.86733310  0.50254570  0.42199879  1
  O  O60  1  0.35425027  0.50641770  0.08204824  1
  O  O61  1  0.13571192  0.66047167  0.07582794  1
  O  O62  1  0.51152515  0.86819460  0.07314706  1
  O  O63  1  0.33952833  0.86428808  0.57582794  1
  O  O64  1  0.49358230  0.64574973  0.58204824  1
  O  O65  1  0.13180540  0.48847485  0.57314706  1
  O  O66  1  0.29661467  0.83156695  0.25556084  1
  O  O67  1  0.53178621  0.69926787  0.25690163  1
  O  O68  1  0.17722646  0.48936419  0.25919994  1
  O  O69  1  0.30073213  0.46821379  0.75690163  1
  O  O70  1  0.16843305  0.70338533  0.75556084  1
  O  O71  1  0.51063581  0.82277354  0.75919994  1
loop_
_geom_bond_atom_site_label_1
_geom_bond_atom_site_label_2
_geom_bond_distance
_geom_bond_site_symmetry_2
Na0 O37 2.247096 1_555
Na0 O38 2.609689 1_665
Na0 O36 2.610595 1_655
Na0 O44 2.741631 1_555
Na0 O42 2.745254 1_565
Na0 O43 2.793575 1_665
Na1 O39 2.247096 1_555
Na1 O41 2.609689 1_445
Na1 O40 2.610595 1_545
Na1 O47 2.741631 1_556
Na1 O46 2.745254 1_456
Na1 O45 2.793575 1_446
Na2 O48 2.363151 1_555
Na2 O49 2.552866 1_555
Na2 O50 2.555370 1_555
Na2 O55 2.685885 1_555
Na2 O56 2.746053 1_555
Na2 O54 2.856656 1_555
Na3 O52 2.363151 1_555
Na3 O51 2.552866 1_555
Na3 O53 2.555370 1_555
Na3 O57 2.685885 1_555
Na3 O59 2.746053 1_555
Na3 O58 2.856656 1_555
Na4 O60 2.255777 1_555
Na4 O61 2.589699 1_555
Na4 O62 2.659980 1_555
Na4 O68 2.686352 1_555
Na4 O67 2.743435 1_555
Na4 O66 2.839646 1_555
Na5 O64 2.255777 1_555
Na5 O63 2.589699 1_555
Na5 O65 2.659980 1_555
Na5 O71 2.686352 1_555
Na5 O69 2.743435 1_555
Na5 O70 2.839646 1_555
Nb0 O6 1.843197 1_555
Nb0 O44 1.861957 1_555
Nb0 O8 2.070362 1_655
Nb0 O42 2.084081 1_565
Nb0 O43 2.233158 1_665
Nb0 O7 2.252821 1_665
Nb1 O10 1.843197 1_555
Nb1 O47 1.861957 1_555
Nb1 O11 2.070362 1_545
Nb1 O46 2.084081 1_455
Nb1 O45 2.233158 1_445
Nb1 O9 2.252821 1_445
Nb2 O18 1.921015 1_556
Nb2 O55 1.930358 1_555
Nb2 O54 2.071281 1_555
Nb2 O19 2.072942 1_556
Nb2 O20 2.074829 1_556
Nb2 O56 2.105631 1_555
Nb3 O22 1.921015 1_555
Nb3 O57 1.930358 1_555
Nb3 O58 2.071281 1_555
Nb3 O21 2.072942 1_555
Nb3 O23 2.074829 1_555
Nb3 O59 2.105631 1_555
Nb4 O31 1.904286 1_555
Nb4 O68 1.958884 1_555
Nb4 O67 2.055153 1_555
Nb4 O66 2.060982 1_555
Nb4 O30 2.091664 1_555
Nb4 O32 2.092591 1_555
Nb5 O33 1.904286 1_555
Nb5 O71 1.958884 1_555
Nb5 O69 2.055153 1_555
Nb5 O70 2.060982 1_555
Nb5 O34 2.091664 1_555
Nb5 O35 2.092591 1_555
O0 S0 1.443768 1_555
O0 Zn0 2.222606 1_455
O1 S1 1.453419 1_555
O1 Zn0 2.068262 1_565
O2 Si0 1.564749 1_555
O2 Zn0 1.866836 1_555
O3 S2 1.453419 1_555
O3 Zn1 2.068262 1_455
O4 S3 1.443768 1_655
O4 Zn1 2.222606 1_565
O5 Si1 1.564749 1_555
O5 Zn1 1.866836 1_555
O6 Si1 1.747412 1_565
O7 S2 1.487125 1_555
O8 S3 1.525650 1_555
O9 S1 1.487125 1_555
O10 Si0 1.747412 1_455
O11 S0 1.525650 1_565
O12 S4 1.443141 1_555
O12 Zn2 2.154863 1_555
O13 S5 1.448914 1_555
O13 Zn2 2.090924 1_555
O14 Si2 1.568137 1_555
O14 Zn2 1.868941 1_555
O15 S6 1.448914 1_555
O15 Zn3 2.090924 1_555
O16 S7 1.443141 1_555
O16 Zn3 2.154862 1_555
O17 Si3 1.568137 1_555
O17 Zn3 1.868941 1_555
O18 Si3 1.688767 1_555
O19 S6 1.539520 1_555
O20 S7 1.521297 1_555
O21 S5 1.539520 1_555
O22 Si2 1.688767 1_555
O23 S4 1.521297 1_555
O24 S8 1.449388 1_555
O24 Zn4 2.124497 1_556
O25 Si4 1.562650 1_555
O25 Zn4 1.846963 1_556
O26 S9 1.445631 1_555
O26 Zn4 2.220684 1_556
O27 Si5 1.562650 1_555
O27 Zn5 1.846963 1_555
O28 S10 1.449388 1_555
O28 Zn5 2.124497 1_555
O29 S11 1.445631 1_555
O29 Zn5 2.220684 1_555
O30 S11 1.524168 1_555
O31 Si5 1.713921 1_555
O32 S10 1.511373 1_555
O33 Si4 1.713921 1_555
O34 S9 1.524168 1_555
O35 S8 1.511373 1_555
O36 S11 1.448720 1_555
O36 Zn0 2.270446 1_465
O37 Si5 1.589785 1_555
O37 Zn0 1.927409 1_565
O38 S10 1.451557 1_555
O38 Zn0 2.231975 1_455
O39 Si4 1.589785 1_555
O39 Zn1 1.927409 1_455
O40 S9 1.448720 1_555
O40 Zn1 2.270446 1_465
O41 S8 1.451557 1_555
O41 Zn1 2.231975 1_565
O42 S4 1.533716 1_555
O43 S5 1.503690 1_555
O44 Si2 1.744313 1_555
O45 S6 1.503690 1_555
O46 S7 1.533716 1_555
O47 Si3 1.744313 1_555
O48 Si1 1.585021 1_555
O48 Zn2 1.924095 1_555
O49 S2 1.448130 1_555
O49 Zn2 2.194654 1_555
O50 S3 1.447638 1_655
O50 Zn2 2.277634 1_555
O51 S1 1.448130 1_555
O51 Zn3 2.194654 1_555
O52 Si0 1.585022 1_555
O52 Zn3 1.924095 1_555
O53 S0 1.447638 1_555
O53 Zn3 2.277634 1_555
O54 S8 1.531746 1_555
O55 Si4 1.703036 1_655
O56 S9 1.538971 1_545
O57 Si5 1.703036 1_545
O58 S10 1.531746 1_555
O59 S11 1.538971 1_655
O60 Si3 1.585207 1_555
O60 Zn4 1.946698 1_555
O61 S6 1.451871 1_455
O61 Zn4 2.195631 1_555
O62 S7 1.451108 1_565
O62 Zn4 2.245437 1_555
O63 S5 1.451871 1_565
O63 Zn5 2.195631 1_555
O64 Si2 1.585208 1_555
O64 Zn5 1.946698 1_555
O65 S4 1.451108 1_455
O65 Zn5 2.245437 1_555
O66 S0 1.534880 1_565
O67 S1 1.554030 1_555
O68 Si0 1.683496 1_455
O69 S2 1.554030 1_555
O70 S3 1.534880 1_555
O71 Si1 1.683496 1_565
