# generated using pymatgen
data_InAg(PS3)2
_symmetry_space_group_name_H-M   'P 1'
_cell_length_a   6.21164267
_cell_length_b   6.21164267
_cell_length_c   13.52044740
_cell_angle_alpha   90.00000000
_cell_angle_beta   90.00000000
_cell_angle_gamma   119.99999519
_symmetry_Int_Tables_number   1
_chemical_formula_structural   InAg(PS3)2
_chemical_formula_sum   'In2 Ag2 P4 S12'
_cell_volume   451.78795143
_cell_formula_units_Z   2
loop_
 _symmetry_equiv_pos_site_id
 _symmetry_equiv_pos_as_xyz
  1  'x, y, z'
loop_
 _atom_site_type_symbol
 _atom_site_label
 _atom_site_symmetry_multiplicity
 _atom_site_fract_x
 _atom_site_fract_y
 _atom_site_fract_z
 _atom_site_occupancy
  In  In0  1  -0.00000000  0.00000000  0.25000000  1
  In  In1  1  -0.00000000  0.00000000  0.75000000  1
  Ag  Ag0  1  0.66666700  0.33333300  0.25000000  1
  Ag  Ag1  1  0.33333300  0.66666700  0.75000000  1
  P  P0  1  0.66666700  0.33333300  0.66727423  1
  P  P1  1  0.66666700  0.33333300  0.83272577  1
  P  P2  1  0.33333300  0.66666700  0.33272577  1
  P  P3  1  0.33333300  0.66666700  0.16727423  1
  S  S0  1  0.97109622  0.31659307  0.87476121  1
  S  S1  1  0.34549585  0.31659307  0.62523879  1
  S  S2  1  0.97109622  0.65450415  0.62523879  1
  S  S3  1  0.68340693  0.02890378  0.62523879  1
  S  S4  1  0.31659307  0.34549585  0.12523879  1
  S  S5  1  0.65450415  0.97109622  0.12523879  1
  S  S6  1  0.02890378  0.68340693  0.12523879  1
  S  S7  1  0.65450415  0.68340693  0.37476121  1
  S  S8  1  0.02890378  0.34549585  0.37476121  1
  S  S9  1  0.31659307  0.97109622  0.37476121  1
  S  S10  1  0.68340693  0.65450415  0.87476121  1
  S  S11  1  0.34549585  0.02890378  0.87476121  1
loop_
_geom_bond_atom_site_label_1
_geom_bond_atom_site_label_2
_geom_bond_distance
_geom_bond_site_symmetry_2
In0 S8 2.664215 1_555
In0 S5 2.664215 1_445
In0 S4 2.664217 1_555
In0 S7 2.664217 1_445
In0 S6 2.664220 1_545
In0 S9 2.664220 1_545
In1 S11 2.664215 1_555
In1 S2 2.664215 1_445
In1 S1 2.664217 1_555
In1 S10 2.664217 1_445
In1 S3 2.664220 1_455
In1 S0 2.664220 1_455
Ag0 S7 2.782801 1_555
Ag0 S4 2.782801 1_555
Ag0 S5 2.782801 1_545
Ag0 S8 2.782801 1_655
Ag0 S6 2.782801 1_655
Ag0 S9 2.782801 1_545
Ag1 S10 2.782801 1_555
Ag1 S1 2.782801 1_555
Ag1 S2 2.782801 1_455
Ag1 S11 2.782801 1_565
Ag1 S3 2.782801 1_565
Ag1 S0 2.782801 1_455
P0 S3 2.026414 1_555
P0 S2 2.026421 1_555
P0 S1 2.026426 1_555
P0 P1 2.236979 1_555
P1 S0 2.026414 1_555
P1 S11 2.026421 1_555
P1 S10 2.026426 1_555
P2 S9 2.026414 1_555
P2 S8 2.026421 1_555
P2 S7 2.026426 1_555
P2 P3 2.236979 1_555
P3 S6 2.026414 1_555
P3 S5 2.026421 1_555
P3 S4 2.026426 1_555
