# generated using pymatgen
data_Cr2AgTe4
_symmetry_space_group_name_H-M   'P 1'
_cell_length_a   8.12343006
_cell_length_b   8.12342999
_cell_length_c   8.12343988
_cell_angle_alpha   59.99998272
_cell_angle_beta   59.99992917
_cell_angle_gamma   60.00094780
_symmetry_Int_Tables_number   1
_chemical_formula_structural   Cr2AgTe4
_chemical_formula_sum   'Cr4 Ag2 Te8'
_cell_volume   379.05888645
_cell_formula_units_Z   2
loop_
 _symmetry_equiv_pos_site_id
 _symmetry_equiv_pos_as_xyz
  1  'x, y, z'
loop_
 _atom_site_type_symbol
 _atom_site_label
 _atom_site_symmetry_multiplicity
 _atom_site_fract_x
 _atom_site_fract_y
 _atom_site_fract_z
 _atom_site_occupancy
  Cr  Cr0  1  0.12500407  0.12500423  0.12500668  1
  Cr  Cr1  1  0.62498499  0.12500320  0.12500544  1
  Cr  Cr2  1  0.12500352  0.12500315  0.62498643  1
  Cr  Cr3  1  0.12500345  0.62498513  0.12500569  1
  Ag  Ag0  1  0.74999343  0.74999062  0.75000732  1
  Ag  Ag1  1  0.50000273  0.50000512  0.49999566  1
  Te  Te0  1  0.33921262  0.88692975  0.88692943  1
  Te  Te1  1  0.36297728  0.36297715  0.36297361  1
  Te  Te2  1  0.88692433  0.88692480  0.33922003  1
  Te  Te3  1  0.88693032  0.33921130  0.88692900  1
  Te  Te4  1  0.36298043  0.36298205  0.91106740  1
  Te  Te5  1  0.36298186  0.91106695  0.36297905  1
  Te  Te6  1  0.91106565  0.36298283  0.36297977  1
  Te  Te7  1  0.88693533  0.88693572  0.88691450  1
loop_
_geom_bond_atom_site_label_1
_geom_bond_atom_site_label_2
_geom_bond_distance
_geom_bond_site_symmetry_2
Cr0 Te4 2.740887 1_554
Cr0 Te5 2.740906 1_545
Cr0 Te6 2.740912 1_455
Cr0 Te0 2.741960 1_544
Cr0 Te3 2.741962 1_454
Cr0 Te2 2.741963 1_445
Cr1 Te5 2.740800 1_545
Cr1 Te1 2.740861 1_555
Cr1 Te4 2.740864 1_554
Cr1 Te3 2.741931 1_554
Cr1 Te2 2.741976 1_545
Cr1 Te7 2.742004 1_544
Cr2 Te1 2.740851 1_555
Cr2 Te5 2.740865 1_545
Cr2 Te6 2.740872 1_455
Cr2 Te7 2.741824 1_445
Cr2 Te3 2.741954 1_455
Cr2 Te0 2.741965 1_545
Cr3 Te6 2.740804 1_455
Cr3 Te4 2.740854 1_554
Cr3 Te1 2.740861 1_555
Cr3 Te0 2.741933 1_554
Cr3 Te2 2.741974 1_455
Cr3 Te7 2.742012 1_454
Ag0 Te3 2.724617 1_555
Ag0 Te0 2.724626 1_555
Ag0 Te2 2.724646 1_555
Ag0 Te7 2.724691 1_555
Ag1 Te5 2.726491 1_555
Ag1 Te6 2.726497 1_555
Ag1 Te4 2.726532 1_555
Ag1 Te1 2.726557 1_555
