# generated using pymatgen
data_MgTe4Mo3W(SeS)2
_symmetry_space_group_name_H-M   'P 1'
_cell_length_a   6.78368600
_cell_length_b   6.78377082
_cell_length_c   77.43162400
_cell_angle_alpha   90.00035519
_cell_angle_beta   89.99999704
_cell_angle_gamma   119.99977812
_symmetry_Int_Tables_number   1
_chemical_formula_structural   MgTe4Mo3W(SeS)2
_chemical_formula_sum   'Mg8 Te32 Mo24 W8 Se16 S16'
_cell_volume   3085.93572035
_cell_formula_units_Z   8
loop_
 _symmetry_equiv_pos_site_id
 _symmetry_equiv_pos_as_xyz
  1  'x, y, z'
loop_
 _atom_site_type_symbol
 _atom_site_label
 _atom_site_symmetry_multiplicity
 _atom_site_fract_x
 _atom_site_fract_y
 _atom_site_fract_z
 _atom_site_occupancy
  Mg  Mg0_0  1  0.16928900  0.33025150  0.43986750  1
  Mg  Mg0_1  1  0.16928900  0.33025150  0.93986750  1
  Mg  Mg0_2  1  0.16928900  0.83025150  0.43986750  1
  Mg  Mg0_3  1  0.16928900  0.83025150  0.93986750  1
  Mg  Mg0_4  1  0.66928900  0.33025150  0.43986750  1
  Mg  Mg0_5  1  0.66928900  0.33025150  0.93986750  1
  Mg  Mg0_6  1  0.66928900  0.83025150  0.43986750  1
  Mg  Mg0_7  1  0.66928900  0.83025150  0.93986750  1
  Te  Te0_0  1  0.16668400  0.33336750  0.16526250  1
  Te  Te0_1  1  0.16668400  0.33336750  0.66526250  1
  Te  Te0_2  1  0.16668400  0.83336750  0.16526250  1
  Te  Te0_3  1  0.16668400  0.83336750  0.66526250  1
  Te  Te0_4  1  0.66668400  0.33336750  0.16526250  1
  Te  Te0_5  1  0.66668400  0.33336750  0.66526250  1
  Te  Te0_6  1  0.66668400  0.83336750  0.16526250  1
  Te  Te0_7  1  0.66668400  0.83336750  0.66526250  1
  Te  Te1_0  1  0.16667550  0.33335050  0.35296000  1
  Te  Te1_1  1  0.16667550  0.33335050  0.85296000  1
  Te  Te1_2  1  0.16667550  0.83335050  0.35296000  1
  Te  Te1_3  1  0.16667550  0.83335050  0.85296000  1
  Te  Te1_4  1  0.66667550  0.33335050  0.35296000  1
  Te  Te1_5  1  0.66667550  0.33335050  0.85296000  1
  Te  Te1_6  1  0.66667550  0.83335050  0.35296000  1
  Te  Te1_7  1  0.66667550  0.83335050  0.85296000  1
  Te  Te2_0  1  0.16667900  0.33335800  0.11657750  1
  Te  Te2_1  1  0.16667900  0.33335800  0.61657750  1
  Te  Te2_2  1  0.16667900  0.83335800  0.11657750  1
  Te  Te2_3  1  0.16667900  0.83335800  0.61657750  1
  Te  Te2_4  1  0.66667900  0.33335800  0.11657750  1
  Te  Te2_5  1  0.66667900  0.33335800  0.61657750  1
  Te  Te2_6  1  0.66667900  0.83335800  0.11657750  1
  Te  Te2_7  1  0.66667900  0.83335800  0.61657750  1
  Te  Te3_0  1  0.16667600  0.33335150  0.30454200  1
  Te  Te3_1  1  0.16667600  0.33335150  0.80454200  1
  Te  Te3_2  1  0.16667600  0.83335150  0.30454200  1
  Te  Te3_3  1  0.16667600  0.83335150  0.80454200  1
  Te  Te3_4  1  0.66667600  0.33335150  0.30454200  1
  Te  Te3_5  1  0.66667600  0.33335150  0.80454200  1
  Te  Te3_6  1  0.66667600  0.83335150  0.30454200  1
  Te  Te3_7  1  0.66667600  0.83335150  0.80454200  1
  Mo  Mo0_0  1  0.16665450  0.33330750  0.04692550  1
  Mo  Mo0_1  1  0.16665450  0.33330750  0.54692550  1
  Mo  Mo0_2  1  0.16665450  0.83330750  0.04692550  1
  Mo  Mo0_3  1  0.16665450  0.83330750  0.54692550  1
  Mo  Mo0_4  1  0.66665450  0.33330750  0.04692550  1
  Mo  Mo0_5  1  0.66665450  0.33330750  0.54692550  1
  Mo  Mo0_6  1  0.66665450  0.83330750  0.04692550  1
  Mo  Mo0_7  1  0.66665450  0.83330750  0.54692550  1
  Mo  Mo1_0  1  0.16665450  0.33330700  0.23483400  1
  Mo  Mo1_1  1  0.16665450  0.33330700  0.73483400  1
  Mo  Mo1_2  1  0.16665450  0.83330700  0.23483400  1
  Mo  Mo1_3  1  0.16665450  0.83330700  0.73483400  1
  Mo  Mo1_4  1  0.66665450  0.33330700  0.23483400  1
  Mo  Mo1_5  1  0.66665450  0.33330700  0.73483400  1
  Mo  Mo1_6  1  0.66665450  0.83330700  0.23483400  1
  Mo  Mo1_7  1  0.66665450  0.83330700  0.73483400  1
  Mo  Mo2_0  1  0.33334450  0.16668800  0.32878900  1
  Mo  Mo2_1  1  0.33334450  0.16668800  0.82878900  1
  Mo  Mo2_2  1  0.33334450  0.66668800  0.32878900  1
  Mo  Mo2_3  1  0.33334450  0.66668800  0.82878900  1
  Mo  Mo2_4  1  0.83334450  0.16668800  0.32878900  1
  Mo  Mo2_5  1  0.83334450  0.16668800  0.82878900  1
  Mo  Mo2_6  1  0.83334450  0.66668800  0.32878900  1
  Mo  Mo2_7  1  0.83334450  0.66668800  0.82878900  1
  W  W0_0  1  0.33334850  0.16669550  0.14090100  1
  W  W0_1  1  0.33334850  0.16669550  0.64090100  1
  W  W0_2  1  0.33334850  0.66669550  0.14090100  1
  W  W0_3  1  0.33334850  0.66669550  0.64090100  1
  W  W0_4  1  0.83334850  0.16669550  0.14090100  1
  W  W0_5  1  0.83334850  0.16669550  0.64090100  1
  W  W0_6  1  0.83334850  0.66669550  0.14090100  1
  W  W0_7  1  0.83334850  0.66669550  0.64090100  1
  Se  Se0_0  1  0.33332150  0.16664150  0.02564900  1
  Se  Se0_1  1  0.33332150  0.16664150  0.52564900  1
  Se  Se0_2  1  0.33332150  0.66664150  0.02564900  1
  Se  Se0_3  1  0.33332150  0.66664150  0.52564900  1
  Se  Se0_4  1  0.83332150  0.16664150  0.02564900  1
  Se  Se0_5  1  0.83332150  0.16664150  0.52564900  1
  Se  Se0_6  1  0.83332150  0.66664150  0.02564900  1
  Se  Se0_7  1  0.83332150  0.66664150  0.52564900  1
  Se  Se1_0  1  0.33332450  0.16664650  0.06827600  1
  Se  Se1_1  1  0.33332450  0.16664650  0.56827600  1
  Se  Se1_2  1  0.33332450  0.66664650  0.06827600  1
  Se  Se1_3  1  0.33332450  0.66664650  0.56827600  1
  Se  Se1_4  1  0.83332450  0.16664650  0.06827600  1
  Se  Se1_5  1  0.83332450  0.16664650  0.56827600  1
  Se  Se1_6  1  0.83332450  0.66664650  0.06827600  1
  Se  Se1_7  1  0.83332450  0.66664650  0.56827600  1
  S  S0_0  1  0.33332100  0.16664000  0.21542000  1
  S  S0_1  1  0.33332100  0.16664000  0.71542000  1
  S  S0_2  1  0.33332100  0.66664000  0.21542000  1
  S  S0_3  1  0.33332100  0.66664000  0.71542000  1
  S  S0_4  1  0.83332100  0.16664000  0.21542000  1
  S  S0_5  1  0.83332100  0.16664000  0.71542000  1
  S  S0_6  1  0.83332100  0.66664000  0.21542000  1
  S  S0_7  1  0.83332100  0.66664000  0.71542000  1
  S  S1_0  1  0.33332250  0.16664250  0.25423650  1
  S  S1_1  1  0.33332250  0.16664250  0.75423650  1
  S  S1_2  1  0.33332250  0.66664250  0.25423650  1
  S  S1_3  1  0.33332250  0.66664250  0.75423650  1
  S  S1_4  1  0.83332250  0.16664250  0.25423650  1
  S  S1_5  1  0.83332250  0.16664250  0.75423650  1
  S  S1_6  1  0.83332250  0.66664250  0.25423650  1
  S  S1_7  1  0.83332250  0.66664250  0.75423650  1
loop_
_geom_bond_atom_site_label_1
_geom_bond_atom_site_label_2
_geom_bond_distance
_geom_bond_site_symmetry_2
Mg0_0 Mg0_4 3.391843 1_555
Mg0_0 Mg0_4 3.391843 1_455
Mg0_0 Mg0_6 3.391876 1_445
Mg0_0 Mg0_6 3.391876 1_555
Mg0_0 Mg0_2 3.391885 1_545
Mg0_0 Mg0_2 3.391885 1_555
Mg0_1 Mg0_5 3.391843 1_455
Mg0_1 Mg0_5 3.391843 1_555
Mg0_1 Mg0_7 3.391876 1_445
Mg0_1 Mg0_7 3.391876 1_555
Mg0_1 Mg0_3 3.391885 1_545
Mg0_1 Mg0_3 3.391885 1_555
Mg0_2 Mg0_6 3.391843 1_555
Mg0_2 Mg0_6 3.391843 1_455
Mg0_2 Mg0_4 3.391876 1_565
Mg0_2 Mg0_4 3.391876 1_455
Mg0_3 Mg0_7 3.391843 1_555
Mg0_3 Mg0_7 3.391843 1_455
Mg0_3 Mg0_5 3.391876 1_565
Mg0_3 Mg0_5 3.391876 1_455
Mg0_4 Mg0_6 3.391885 1_545
Mg0_4 Mg0_6 3.391885 1_555
Mg0_5 Mg0_7 3.391885 1_545
Mg0_5 Mg0_7 3.391885 1_555
Te0_0 W0_4 2.719049 1_455
Te0_0 W0_2 2.719049 1_555
Te0_0 W0_0 2.719057 1_555
Te0_1 W0_5 2.719049 1_455
Te0_1 W0_3 2.719049 1_555
Te0_1 W0_1 2.719057 1_555
Te0_2 W0_6 2.719049 1_455
Te0_2 W0_0 2.719049 1_565
Te0_2 W0_2 2.719057 1_555
Te0_3 W0_7 2.719049 1_455
Te0_3 W0_1 2.719049 1_565
Te0_3 W0_3 2.719057 1_555
Te0_4 W0_0 2.719049 1_555
Te0_4 W0_6 2.719049 1_555
Te0_4 W0_4 2.719057 1_555
Te0_5 W0_1 2.719049 1_555
Te0_5 W0_7 2.719049 1_555
Te0_5 W0_5 2.719057 1_555
Te0_6 W0_2 2.719049 1_555
Te0_6 W0_4 2.719049 1_565
Te0_6 W0_6 2.719057 1_555
Te0_7 W0_3 2.719049 1_555
Te0_7 W0_5 2.719049 1_565
Te0_7 W0_7 2.719057 1_555
Te2_0 W0_4 2.716997 1_455
Te2_0 W0_0 2.717007 1_555
Te2_0 W0_2 2.717029 1_555
Te2_1 W0_5 2.716997 1_455
Te2_1 W0_1 2.717007 1_555
Te2_1 W0_3 2.717029 1_555
Te2_2 W0_6 2.716997 1_455
Te2_2 W0_2 2.717007 1_555
Te2_2 W0_0 2.717029 1_565
Te2_3 W0_7 2.716997 1_455
Te2_3 W0_3 2.717007 1_555
Te2_3 W0_1 2.717029 1_565
Te2_4 W0_0 2.716997 1_555
Te2_4 W0_4 2.717007 1_555
Te2_4 W0_6 2.717029 1_555
Te2_5 W0_1 2.716997 1_555
Te2_5 W0_5 2.717007 1_555
Te2_5 W0_7 2.717029 1_555
Te2_6 W0_2 2.716997 1_555
Te2_6 W0_6 2.717007 1_555
Te2_6 W0_4 2.717029 1_565
Te2_7 W0_3 2.716997 1_555
Te2_7 W0_7 2.717007 1_555
Te2_7 W0_5 2.717029 1_565
Mo0_0 Se0_4 2.559106 1_455
Mo0_0 Se0_0 2.559110 1_555
Mo0_0 Se0_2 2.559143 1_555
Mo0_0 Se1_4 2.562794 1_455
Mo0_0 Se1_0 2.562803 1_555
Mo0_0 Se1_2 2.562840 1_555
Mo0_1 Se0_5 2.559106 1_455
Mo0_1 Se0_1 2.559110 1_555
Mo0_1 Se0_3 2.559143 1_555
Mo0_1 Se1_5 2.562794 1_455
Mo0_1 Se1_1 2.562803 1_555
Mo0_1 Se1_3 2.562840 1_555
Mo0_2 Se0_6 2.559106 1_455
Mo0_2 Se0_2 2.559110 1_555
Mo0_2 Se0_0 2.559143 1_565
Mo0_2 Se1_6 2.562794 1_455
Mo0_2 Se1_2 2.562803 1_555
Mo0_2 Se1_0 2.562840 1_565
Mo0_3 Se0_7 2.559106 1_455
Mo0_3 Se0_3 2.559110 1_555
Mo0_3 Se0_1 2.559143 1_565
Mo0_3 Se1_7 2.562794 1_455
Mo0_3 Se1_3 2.562803 1_555
Mo0_3 Se1_1 2.562840 1_565
Mo0_4 Se0_0 2.559106 1_555
Mo0_4 Se0_4 2.559110 1_555
Mo0_4 Se0_6 2.559143 1_555
Mo0_4 Se1_0 2.562794 1_555
Mo0_4 Se1_4 2.562803 1_555
Mo0_4 Se1_6 2.562840 1_555
Mo0_5 Se0_1 2.559106 1_555
Mo0_5 Se0_5 2.559110 1_555
Mo0_5 Se0_7 2.559143 1_555
Mo0_5 Se1_1 2.562794 1_555
Mo0_5 Se1_5 2.562803 1_555
Mo0_5 Se1_7 2.562840 1_555
Mo0_6 Se0_2 2.559106 1_555
Mo0_6 Se0_6 2.559110 1_555
Mo0_6 Se0_4 2.559143 1_565
Mo0_6 Se1_2 2.562794 1_555
Mo0_6 Se1_6 2.562803 1_555
Mo0_6 Se1_4 2.562840 1_565
Mo0_7 Se0_3 2.559106 1_555
Mo0_7 Se0_7 2.559110 1_555
Mo0_7 Se0_5 2.559143 1_565
Mo0_7 Se1_3 2.562794 1_555
Mo0_7 Se1_7 2.562803 1_555
Mo0_7 Se1_5 2.562840 1_565
Mo1_0 S1_4 2.468194 1_455
Mo1_0 S1_0 2.468201 1_555
Mo1_0 S1_2 2.468217 1_555
Mo1_0 S0_4 2.468734 1_455
Mo1_0 S0_0 2.468739 1_555
Mo1_0 S0_2 2.468764 1_555
Mo1_1 S1_5 2.468194 1_455
Mo1_1 S1_1 2.468201 1_555
Mo1_1 S1_3 2.468217 1_555
Mo1_1 S0_5 2.468734 1_455
Mo1_1 S0_1 2.468739 1_555
Mo1_1 S0_3 2.468764 1_555
Mo1_2 S1_6 2.468194 1_455
Mo1_2 S1_2 2.468201 1_555
Mo1_2 S1_0 2.468217 1_565
Mo1_2 S0_6 2.468734 1_455
Mo1_2 S0_2 2.468739 1_555
Mo1_2 S0_0 2.468764 1_565
Mo1_3 S1_7 2.468194 1_455
Mo1_3 S1_3 2.468201 1_555
Mo1_3 S1_1 2.468217 1_565
Mo1_3 S0_7 2.468734 1_455
Mo1_3 S0_3 2.468739 1_555
Mo1_3 S0_1 2.468764 1_565
Mo1_4 S1_0 2.468194 1_555
Mo1_4 S1_4 2.468201 1_555
Mo1_4 S1_6 2.468217 1_555
Mo1_4 S0_0 2.468734 1_555
Mo1_4 S0_4 2.468739 1_555
Mo1_4 S0_6 2.468764 1_555
Mo1_5 S1_1 2.468194 1_555
Mo1_5 S1_5 2.468201 1_555
Mo1_5 S1_7 2.468217 1_555
Mo1_5 S0_1 2.468734 1_555
Mo1_5 S0_5 2.468739 1_555
Mo1_5 S0_7 2.468764 1_555
Mo1_6 S1_2 2.468194 1_555
Mo1_6 S1_6 2.468201 1_555
Mo1_6 S1_4 2.468217 1_565
Mo1_6 S0_2 2.468734 1_555
Mo1_6 S0_6 2.468739 1_555
Mo1_6 S0_4 2.468764 1_565
Mo1_7 S1_3 2.468194 1_555
Mo1_7 S1_7 2.468201 1_555
Mo1_7 S1_5 2.468217 1_565
Mo1_7 S0_3 2.468734 1_555
Mo1_7 S0_7 2.468739 1_555
Mo1_7 S0_5 2.468764 1_565
Mo2_0 Te1_4 2.708817 1_555
Mo2_0 Te1_0 2.708823 1_555
Mo2_0 Te1_2 2.708877 1_545
Mo2_0 Te3_4 2.712898 1_555
Mo2_0 Te3_0 2.712904 1_555
Mo2_0 Te3_2 2.712922 1_545
Mo2_1 Te1_5 2.708817 1_555
Mo2_1 Te1_1 2.708823 1_555
Mo2_1 Te1_3 2.708877 1_545
Mo2_1 Te3_5 2.712898 1_555
Mo2_1 Te3_1 2.712904 1_555
Mo2_1 Te3_3 2.712922 1_545
Mo2_2 Te1_6 2.708817 1_555
Mo2_2 Te1_2 2.708823 1_555
Mo2_2 Te1_0 2.708877 1_555
Mo2_2 Te3_6 2.712898 1_555
Mo2_2 Te3_2 2.712904 1_555
Mo2_2 Te3_0 2.712922 1_555
Mo2_3 Te1_7 2.708817 1_555
Mo2_3 Te1_3 2.708823 1_555
Mo2_3 Te1_1 2.708877 1_555
Mo2_3 Te3_7 2.712898 1_555
Mo2_3 Te3_3 2.712904 1_555
Mo2_3 Te3_1 2.712922 1_555
Mo2_4 Te1_0 2.708817 1_655
Mo2_4 Te1_4 2.708823 1_555
Mo2_4 Te1_6 2.708877 1_545
Mo2_4 Te3_0 2.712898 1_655
Mo2_4 Te3_4 2.712904 1_555
Mo2_4 Te3_6 2.712922 1_545
Mo2_5 Te1_1 2.708817 1_655
Mo2_5 Te1_5 2.708823 1_555
Mo2_5 Te1_7 2.708877 1_545
Mo2_5 Te3_1 2.712898 1_655
Mo2_5 Te3_5 2.712904 1_555
Mo2_5 Te3_7 2.712922 1_545
Mo2_6 Te1_2 2.708817 1_655
Mo2_6 Te1_6 2.708823 1_555
Mo2_6 Te1_4 2.708877 1_555
Mo2_6 Te3_2 2.712898 1_655
Mo2_6 Te3_6 2.712904 1_555
Mo2_6 Te3_4 2.712922 1_555
Mo2_7 Te1_3 2.708817 1_655
Mo2_7 Te1_7 2.708823 1_555
Mo2_7 Te1_5 2.708877 1_555
Mo2_7 Te3_3 2.712898 1_655
Mo2_7 Te3_7 2.712904 1_555
Mo2_7 Te3_5 2.712922 1_555
