# generated using pymatgen
data_MgVO2
_symmetry_space_group_name_H-M   'P 1'
_cell_length_a   5.59413464
_cell_length_b   5.59413605
_cell_length_c   5.59413564
_cell_angle_alpha   31.43610205
_cell_angle_beta   31.43610257
_cell_angle_gamma   31.43610082
_symmetry_Int_Tables_number   1
_chemical_formula_structural   MgVO2
_chemical_formula_sum   'Mg1 V1 O2'
_cell_volume   42.27255157
_cell_formula_units_Z   1
loop_
 _symmetry_equiv_pos_site_id
 _symmetry_equiv_pos_as_xyz
  1  'x, y, z'
loop_
 _atom_site_type_symbol
 _atom_site_label
 _atom_site_symmetry_multiplicity
 _atom_site_fract_x
 _atom_site_fract_y
 _atom_site_fract_z
 _atom_site_occupancy
  Mg  Mg0  1  0.16917400  0.16917400  0.16917400  1
  V  V0  1  0.99894200  0.99894200  0.99894200  1
  O  O0  1  0.58144300  0.58144300  0.58144300  1
  O  O1  1  0.41710700  0.41710700  0.41710700  1
loop_
_geom_bond_atom_site_label_1
_geom_bond_atom_site_label_2
_geom_bond_distance
_geom_bond_site_symmetry_2
Mg0 O0 2.155318 1_545
Mg0 O0 2.155318 1_554
Mg0 O0 2.155319 1_455
Mg0 O1 2.217055 1_455
Mg0 O1 2.217056 1_554
Mg0 O1 2.217056 1_545
O0 V0 2.205026 1_545
O0 V0 2.205026 1_554
O0 V0 2.205027 1_455
O1 V0 2.211501 1_454
O1 V0 2.211501 1_445
O1 V0 2.211502 1_544
