# generated using pymatgen
data_MgV6O15
_symmetry_space_group_name_H-M   'P 1'
_cell_length_a   8.65515761
_cell_length_b   8.65515739
_cell_length_c   10.38746054
_cell_angle_alpha   70.13631283
_cell_angle_beta   109.86368561
_cell_angle_gamma   155.45875620
_symmetry_Int_Tables_number   1
_chemical_formula_structural   MgV6O15
_chemical_formula_sum   'Mg1 V6 O15'
_cell_volume   303.03110742
_cell_formula_units_Z   1
loop_
 _symmetry_equiv_pos_site_id
 _symmetry_equiv_pos_as_xyz
  1  'x, y, z'
loop_
 _atom_site_type_symbol
 _atom_site_label
 _atom_site_symmetry_multiplicity
 _atom_site_fract_x
 _atom_site_fract_y
 _atom_site_fract_z
 _atom_site_occupancy
  Mg  Mg0  1  0.48181400  0.51818600  0.87817900  1
  V  V0  1  0.12514300  0.87485700  0.10661700  1
  V  V1  1  0.84949400  0.15050600  0.87824500  1
  V  V2  1  0.28429200  0.71570800  0.41346900  1
  V  V3  1  0.33461700  0.66538300  0.11535600  1
  V  V4  1  0.66654000  0.33346000  0.89637700  1
  V  V5  1  0.70581000  0.29419000  0.57496800  1
  O  O0  1  0.19495900  0.80504100  0.95701300  1
  O  O1  1  0.12331500  0.87668500  0.26281900  1
  O  O2  1  0.23943700  0.76056300  0.56803500  1
  O  O3  1  0.37063900  0.62936100  0.93944000  1
  O  O4  1  0.26931400  0.73068600  0.22614700  1
  O  O5  1  0.38463700  0.61536300  0.48409100  1
  O  O6  1  0.42737100  0.57262900  0.22842700  1
  O  O7  1  0.56706500  0.43293500  0.78769500  1
  O  O8  1  0.01841300  0.98158700  0.99230000  1
  O  O9  1  0.60544400  0.39455600  0.51418700  1
  O  O10  1  0.73244300  0.26755700  0.76491000  1
  O  O11  1  0.64179000  0.35821000  0.07180700  1
  O  O12  1  0.75386300  0.24613700  0.42377200  1
  O  O13  1  0.89820700  0.10179300  0.76130400  1
  O  O14  1  0.81706100  0.18293900  0.05483900  1
loop_
_geom_bond_atom_site_label_1
_geom_bond_atom_site_label_2
_geom_bond_distance
_geom_bond_site_symmetry_2
Mg0 O7 1.976203 1_555
Mg0 O8 2.159117 1_545
Mg0 O8 2.159117 1_655
Mg0 O3 2.184827 1_555
Mg0 O13 2.379809 1_565
Mg0 O13 2.379810 1_455
O0 V4 1.949589 1_565
O0 V4 1.949589 1_455
O0 V0 2.255172 1_556
O0 V3 2.362960 1_556
O1 V0 1.633551 1_555
O2 V5 1.934133 1_565
O2 V5 1.934133 1_455
O2 V2 2.000152 1_555
O3 V1 1.938438 1_565
O3 V1 1.938439 1_455
O3 V3 2.117705 1_556
O4 V3 1.851651 1_555
O4 V2 1.872828 1_555
O4 V0 2.320087 1_555
O5 V2 1.597847 1_555
O6 V3 1.599836 1_555
O7 V4 1.668711 1_555
O8 V0 1.782799 1_556
O9 V5 1.592263 1_555
O10 V5 1.864830 1_555
O10 V1 1.919621 1_555
O10 V4 2.041132 1_555
O11 V0 1.914291 1_655
O11 V0 1.914291 1_545
O11 V4 2.006611 1_554
O12 V2 1.923109 1_545
O12 V2 1.923110 1_655
O12 V5 2.003758 1_555
O13 V1 1.688359 1_555
O14 V3 1.933182 1_545
O14 V3 1.933182 1_655
O14 V1 2.089428 1_554
O14 V4 2.505427 1_554
