# generated using pymatgen
data_Te2AuI
_symmetry_space_group_name_H-M   'P 1'
_cell_length_a   4.09301006
_cell_length_b   4.82150655
_cell_length_c   12.92208401
_cell_angle_alpha   90.00000000
_cell_angle_beta   90.00000000
_cell_angle_gamma   90.00000000
_symmetry_Int_Tables_number   1
_chemical_formula_structural   Te2AuI
_chemical_formula_sum   'Te4 Au2 I2'
_cell_volume   255.01054143
_cell_formula_units_Z   2
loop_
 _symmetry_equiv_pos_site_id
 _symmetry_equiv_pos_as_xyz
  1  'x, y, z'
loop_
 _atom_site_type_symbol
 _atom_site_label
 _atom_site_symmetry_multiplicity
 _atom_site_fract_x
 _atom_site_fract_y
 _atom_site_fract_z
 _atom_site_occupancy
  Te  Te0  1  0.50000000  0.19821338  0.57922622  1
  Te  Te1  1  0.50000000  0.80178662  0.42077378  1
  Te  Te2  1  0.50000000  0.19821338  0.92077378  1
  Te  Te3  1  0.50000000  0.80178662  0.07922622  1
  Au  Au0  1  -0.00000000  0.50000000  0.50000000  1
  Au  Au1  1  -0.00000000  0.50000000  -0.00000000  1
  I  I0  1  0.00000000  0.26377565  0.25000000  1
  I  I1  1  -0.00000000  0.73622435  0.75000000  1
loop_
_geom_bond_atom_site_label_1
_geom_bond_atom_site_label_2
_geom_bond_distance
_geom_bond_site_symmetry_2
Te0 Te1 2.801027 1_545
Te2 Te3 2.801027 1_546
Au0 Te0 2.711734 1_455
Au0 Te1 2.711734 1_555
Au0 Te1 2.711734 1_455
Au0 Te0 2.711734 1_555
Au0 I0 3.425418 1_555
Au0 I1 3.425418 1_555
Au1 Te3 2.711734 1_455
Au1 Te3 2.711734 1_555
Au1 Te2 2.711734 1_554
Au1 Te2 2.711734 1_454
Au1 I0 3.425418 1_555
Au1 I1 3.425418 1_554
