# generated using pymatgen
data_Na3YIn(PO4)3
_symmetry_space_group_name_H-M   'P 1'
_cell_length_a   15.99494460
_cell_length_b   9.25009632
_cell_length_c   9.25775110
_cell_angle_alpha   89.97513916
_cell_angle_beta   125.25191522
_cell_angle_gamma   90.13042555
_symmetry_Int_Tables_number   1
_chemical_formula_structural   Na3YIn(PO4)3
_chemical_formula_sum   'Na12 Y4 In4 P12 O48'
_cell_volume   1118.54724786
_cell_formula_units_Z   4
loop_
 _symmetry_equiv_pos_site_id
 _symmetry_equiv_pos_as_xyz
  1  'x, y, z'
loop_
 _atom_site_type_symbol
 _atom_site_label
 _atom_site_symmetry_multiplicity
 _atom_site_fract_x
 _atom_site_fract_y
 _atom_site_fract_z
 _atom_site_occupancy
  Na  Na0  1  0.24467612  0.77910315  0.99688869  1
  Na  Na1  1  0.74081870  0.72043331  0.49000734  1
  Na  Na2  1  0.73946262  0.27982378  0.98864217  1
  Na  Na3  1  0.24447535  0.22040070  0.49765157  1
  Na  Na4  1  0.49945827  0.11426134  0.74012121  1
  Na  Na5  1  0.50098787  0.88450776  0.24838977  1
  Na  Na6  1  0.99866394  0.61174708  0.73595338  1
  Na  Na7  1  0.00369898  0.39326562  0.25012870  1
  Na  Na8  1  0.80760257  0.93474193  0.20678692  1
  Na  Na9  1  0.80813494  0.06330046  0.70586294  1
  Na  Na10  1  0.31342568  0.44020516  0.22039966  1
  Na  Na11  1  0.31142759  0.56733881  0.70492378  1
  Y  Y0  1  0.89857712  0.74887990  0.94242944  1
  Y  Y1  1  0.89674992  0.25030212  0.44065987  1
  Y  Y2  1  0.10292621  0.23942087  0.04948954  1
  Y  Y3  1  0.39683894  0.24881196  0.94303101  1
  In  In0  1  0.10205059  0.75981946  0.54875617  1
  In  In1  1  0.60259728  0.25871687  0.54875221  1
  In  In2  1  0.40140210  0.74978595  0.44683537  1
  In  In3  1  0.60075981  0.74141399  0.04782649  1
  P  P0  1  0.99760156  0.94177549  0.73405180  1
  P  P1  1  0.00105472  0.05362787  0.24650034  1
  P  P2  1  0.50001403  0.45005631  0.73964499  1
  P  P3  1  0.50032998  0.55303729  0.24769567  1
  P  P4  1  0.35460987  0.89308709  0.75597305  1
  P  P5  1  0.64905100  0.90660513  0.74521182  1
  P  P6  1  0.64929044  0.09178124  0.24560467  1
  P  P7  1  0.35831846  0.10074589  0.27020759  1
  P  P8  1  0.85150047  0.39336188  0.76208946  1
  P  P9  1  0.15191712  0.40931891  0.74324716  1
  P  P10  1  0.15453539  0.59845753  0.25101281  1
  P  P11  1  0.85230161  0.60722956  0.26170885  1
  O  O0  1  0.15969741  0.57777093  0.74875521  1
  O  O1  1  0.84092594  0.55966786  0.74493715  1
  O  O2  1  0.84237743  0.44041303  0.24618145  1
  O  O3  1  0.16385172  0.43079745  0.25081251  1
  O  O4  1  0.65632313  0.07557458  0.74809687  1
  O  O5  1  0.34638040  0.06036010  0.74858094  1
  O  O6  1  0.34937646  0.93282662  0.25797123  1
  O  O7  1  0.65658617  0.92291669  0.24812289  1
  O  O8  1  0.43231883  0.53884595  0.56749071  1
  O  O9  1  0.55944780  0.54736923  0.90469849  1
  O  O10  1  0.56169438  0.45897667  0.41551330  1
  O  O11  1  0.43519414  0.46036841  0.08004019  1
  O  O12  1  0.93631093  0.03239741  0.56425246  1
  O  O13  1  0.05192599  0.04070911  0.89803474  1
  O  O14  1  0.05819301  0.95851473  0.41357613  1
  O  O15  1  0.94362544  0.96124377  0.07715007  1
  O  O16  1  0.26387231  0.82113932  0.74672815  1
  O  O17  1  0.74098797  0.84663170  0.74988764  1
  O  O18  1  0.73876040  0.15499047  0.24523429  1
  O  O19  1  0.26762627  0.17259435  0.25901593  1
  O  O20  1  0.76197510  0.31848746  0.75492166  1
  O  O21  1  0.23976056  0.34528165  0.73845669  1
  O  O22  1  0.24421445  0.66554347  0.25190424  1
  O  O23  1  0.76143563  0.67888653  0.25235130  1
  O  O24  1  0.35854517  0.84588114  0.60071693  1
  O  O25  1  0.65428326  0.86686554  0.91425071  1
  O  O26  1  0.65650883  0.13151961  0.41689938  1
  O  O27  1  0.36187793  0.15037777  0.11517865  1
  O  O28  1  0.85597084  0.33600193  0.61041358  1
  O  O29  1  0.16061311  0.36409615  0.91335383  1
  O  O30  1  0.15779474  0.63469840  0.41897300  1
  O  O31  1  0.85713418  0.66265277  0.10994626  1
  O  O32  1  0.45304833  0.84274029  0.93513937  1
  O  O33  1  0.55006960  0.85128647  0.57359915  1
  O  O34  1  0.54858642  0.14463578  0.07847236  1
  O  O35  1  0.45756753  0.15131125  0.44706323  1
  O  O36  1  0.95172835  0.35077971  0.94064026  1
  O  O37  1  0.04894346  0.35862533  0.57645005  1
  O  O38  1  0.05273308  0.64819285  0.08175425  1
  O  O39  1  0.95212423  0.65356414  0.44097279  1
  O  O40  1  0.07937330  0.84344470  0.74458474  1
  O  O41  1  0.91844768  0.84278142  0.73504057  1
  O  O42  1  0.91821031  0.14897937  0.23992784  1
  O  O43  1  0.07915433  0.15884568  0.25447068  1
  O  O44  1  0.57758692  0.34899135  0.74025604  1
  O  O45  1  0.42409225  0.35032060  0.74830180  1
  O  O46  1  0.42159230  0.65110843  0.25207838  1
  O  O47  1  0.57589274  0.65462738  0.24231748  1
loop_
_geom_bond_atom_site_label_1
_geom_bond_atom_site_label_2
_geom_bond_distance
_geom_bond_site_symmetry_2
Na0 O40 2.382810 1_555
Na0 O6 2.447081 1_556
Na0 O16 2.535446 1_555
Na0 O22 2.587493 1_556
Na0 O0 2.642094 1_555
Na0 O46 2.699329 1_556
Na1 O47 2.366178 1_555
Na1 O23 2.436387 1_555
Na1 O1 2.447619 1_555
Na1 O7 2.619728 1_555
Na1 O41 2.654562 1_555
Na1 O17 2.673200 1_555
Na2 O44 2.352538 1_555
Na2 O20 2.416072 1_555
Na2 O2 2.462181 1_556
Na2 O4 2.621229 1_555
Na2 O18 2.646640 1_556
Na2 O42 2.717822 1_556
Na3 O43 2.346743 1_555
Na3 O5 2.425277 1_555
Na3 O19 2.481793 1_555
Na3 O21 2.550808 1_555
Na3 O3 2.697871 1_555
Na3 O45 2.715483 1_555
Na4 O35 2.414310 1_555
Na4 O4 2.493798 1_555
Na4 O44 2.502388 1_555
Na4 O45 2.518810 1_555
Na4 O5 2.542736 1_555
Na4 O34 2.768863 1_556
Na5 O47 2.459613 1_555
Na5 O46 2.512475 1_555
Na5 O7 2.514630 1_555
Na5 O6 2.518256 1_555
Na5 O32 2.565136 1_554
Na5 O33 2.654621 1_555
Na6 O39 2.411456 1_555
Na6 O40 2.476854 1_655
Na6 O41 2.492670 1_555
Na6 O0 2.529512 1_655
Na6 O1 2.615574 1_555
Na6 O38 2.813152 1_656
Na7 O43 2.473067 1_555
Na7 O36 2.510936 1_454
Na7 O3 2.580654 1_555
Na7 O2 2.597287 1_455
Na7 O42 2.611864 1_455
Na7 O37 2.688749 1_555
Na8 O18 2.439900 1_565
Na8 O25 2.463850 1_554
Na8 O42 2.551327 1_565
Na8 O23 2.583637 1_555
Na8 O7 2.656846 1_555
Na8 O12 2.852289 1_565
Na8 O31 2.932049 1_555
Na8 O15 3.040639 1_555
Na9 O17 2.414798 1_545
Na9 O26 2.439815 1_555
Na9 O20 2.592166 1_555
Na9 O41 2.610143 1_545
Na9 O4 2.675681 1_555
Na9 O28 2.915318 1_555
Na9 O15 2.968218 1_546
Na9 O12 3.018146 1_555
Na10 O22 2.457449 1_555
Na10 O46 2.506921 1_555
Na10 O29 2.554151 1_554
Na10 O3 2.566544 1_555
Na10 O19 2.661854 1_555
Na10 O8 2.777585 1_555
Na10 O11 2.904534 1_555
Na11 O30 2.435371 1_555
Na11 O21 2.455409 1_555
Na11 O16 2.566845 1_555
Na11 O45 2.572725 1_555
Na11 O0 2.683614 1_555
Na11 O8 2.875729 1_555
Na11 O24 2.994247 1_555
Na11 O11 3.004668 1_556
In0 O14 2.103995 1_555
In0 O40 2.185918 1_555
In0 O30 2.195602 1_555
In0 O16 2.213245 1_555
In0 O39 2.222689 1_455
In0 O0 2.268870 1_555
In1 O10 2.110209 1_555
In1 O35 2.173465 1_555
In1 O44 2.195903 1_555
In1 O20 2.196627 1_555
In1 O26 2.199743 1_555
In1 O4 2.277594 1_555
In2 O24 2.102536 1_555
In2 O8 2.159709 1_555
In2 O33 2.163963 1_555
In2 O46 2.205269 1_555
In2 O22 2.222599 1_555
In2 O6 2.222749 1_555
In3 O9 2.097645 1_554
In3 O32 2.170923 1_554
In3 O25 2.196598 1_554
In3 O47 2.206498 1_555
In3 O23 2.216565 1_555
In3 O7 2.266948 1_555
O0 P9 1.561386 1_555
O1 P8 1.546060 1_555
O1 Y0 2.303407 1_555
O2 P11 1.549084 1_555
O2 Y1 2.299374 1_555
O3 P10 1.558456 1_555
O3 Y2 2.335721 1_555
O4 P5 1.566136 1_545
O5 P4 1.551308 1_545
O5 Y3 2.291271 1_555
O6 P7 1.557682 1_565
O7 P6 1.565792 1_565
O8 P2 1.548519 1_555
O9 P2 1.539268 1_555
O10 P3 1.541613 1_555
O11 P3 1.536139 1_555
O11 Y3 2.216566 1_554
O12 P0 1.535739 1_545
O12 Y1 2.222705 1_555
O13 P0 1.540146 1_445
O13 Y2 2.164515 1_556
O14 P1 1.540268 1_565
O15 P1 1.538579 1_665
O15 Y0 2.211750 1_554
O16 P4 1.552065 1_555
O17 P5 1.549934 1_555
O17 Y0 2.273976 1_555
O18 P6 1.546506 1_555
O18 Y1 2.269378 1_555
O19 P7 1.545172 1_555
O19 Y2 2.278658 1_555
O20 P8 1.555770 1_555
O21 P9 1.550083 1_555
O21 Y3 2.282887 1_555
O22 P10 1.557233 1_555
O23 P11 1.555059 1_555
O24 P4 1.538062 1_555
O25 P5 1.561910 1_555
O26 P6 1.565944 1_555
O27 P7 1.538669 1_555
O27 Y3 2.169519 1_554
O28 P8 1.541125 1_555
O28 Y1 2.170321 1_555
O29 P9 1.556017 1_555
O29 Y2 2.259652 1_556
O30 P10 1.561958 1_555
O31 P11 1.538614 1_555
O31 Y0 2.159596 1_554
O32 P4 1.560502 1_555
O33 P5 1.544659 1_555
O34 P6 1.534143 1_555
O34 Y3 2.211003 1_554
O35 P7 1.554521 1_555
O36 P8 1.549481 1_555
O36 Y2 2.263286 1_656
O37 P9 1.542195 1_555
O37 Y1 2.228838 1_455
O38 P10 1.541394 1_555
O38 Y0 2.224644 1_454
O39 P11 1.557549 1_555
O40 P0 1.551010 1_455
O41 P0 1.565121 1_555
O41 Y0 2.289847 1_555
O42 P1 1.565157 1_655
O42 Y1 2.277927 1_555
O43 P1 1.549623 1_555
O43 Y2 2.265307 1_555
O44 P2 1.552640 1_555
O45 P2 1.561861 1_555
O45 Y3 2.285915 1_555
O46 P3 1.573188 1_555
O47 P3 1.552601 1_555
