# generated using pymatgen
data_MgMn6O7F5
_symmetry_space_group_name_H-M   'P 1'
_cell_length_a   7.90866720
_cell_length_b   5.70901130
_cell_length_c   5.80516388
_cell_angle_alpha   68.85331209
_cell_angle_beta   67.89747688
_cell_angle_gamma   72.24083640
_symmetry_Int_Tables_number   1
_chemical_formula_structural   MgMn6O7F5
_chemical_formula_sum   'Mg1 Mn6 O7 F5'
_cell_volume   222.10381569
_cell_formula_units_Z   1
loop_
 _symmetry_equiv_pos_site_id
 _symmetry_equiv_pos_as_xyz
  1  'x, y, z'
loop_
 _atom_site_type_symbol
 _atom_site_label
 _atom_site_symmetry_multiplicity
 _atom_site_fract_x
 _atom_site_fract_y
 _atom_site_fract_z
 _atom_site_occupancy
  Mg  Mg0  1  0.64810300  0.83508700  0.36000700  1
  Mn  Mn0  1  0.86130700  0.70397500  0.70025600  1
  Mn  Mn1  1  0.67952400  0.33012400  0.34276500  1
  Mn  Mn2  1  0.26064100  0.61336700  0.60900600  1
  Mn  Mn3  1  0.16665400  0.24637300  0.36516100  1
  Mn  Mn4  1  0.48831100  0.94910400  0.97955400  1
  Mn  Mn5  1  0.01289200  0.06329200  0.97135800  1
  O  O0  1  0.65944600  0.99085300  0.62319100  1
  O  O1  1  0.95441700  0.23414400  0.22876900  1
  O  O2  1  0.04362700  0.88323100  0.70989600  1
  O  O3  1  0.41345900  0.38572100  0.41864800  1
  O  O4  1  0.37950900  0.90361400  0.35144500  1
  O  O5  1  0.68750800  0.66420900  0.07247300  1
  O  O6  1  0.05515800  0.39910800  0.69262400  1
  F  F0  1  0.32971300  0.31357800  0.95143200  1
  F  F1  1  0.28470500  0.84916100  0.92996000  1
  F  F2  1  0.67532200  0.51278100  0.61617800  1
  F  F3  1  0.70729900  0.13331100  0.06623000  1
  F  F4  1  0.94240200  0.75087400  0.28486200  1
loop_
_geom_bond_atom_site_label_1
_geom_bond_atom_site_label_2
_geom_bond_distance
_geom_bond_site_symmetry_2
Mg0 O4 2.055796 1_555
Mg0 O0 2.065234 1_555
Mg0 O5 2.105456 1_555
Mn0 O6 1.938662 1_655
Mn0 O0 1.960852 1_555
Mn0 O2 2.032669 1_655
Mn0 O5 2.052120 1_556
Mn1 O3 1.928325 1_555
Mn1 O1 1.979110 1_555
Mn1 O5 1.985806 1_555
Mn1 O0 2.035927 1_545
Mn2 O3 1.855765 1_555
Mn2 O2 1.985912 1_555
Mn2 O4 1.992484 1_555
Mn2 O6 2.136213 1_555
Mn3 O1 2.135575 1_455
Mn3 O6 2.148738 1_555
Mn3 O4 2.161328 1_545
Mn3 O2 2.453867 1_545
Mn3 O3 2.474020 1_555
Mn4 O4 1.950000 1_556
Mn4 O5 1.965089 1_556
Mn4 O0 1.975432 1_555
Mn5 O1 1.911717 1_456
Mn5 O2 2.028623 1_545
Mn5 O6 2.037447 1_555
F0 Mn4 2.060691 1_545
F0 Mn3 2.210174 1_556
F0 Mn2 2.229628 1_555
F1 Mn4 2.007294 1_555
F1 Mn5 2.096044 1_565
F2 Mg0 1.915352 1_555
F2 Mn1 2.177408 1_555
F2 Mn0 2.344625 1_555
F3 Mg0 1.953663 1_545
F3 Mn1 2.184798 1_555
F3 Mn5 2.207266 1_654
F3 Mn4 2.550934 1_544
F4 Mn5 2.074896 1_664
F4 Mg0 2.131521 1_555
F4 Mn0 2.184738 1_555
