# generated using pymatgen
data_Mg(BiO2)2
_symmetry_space_group_name_H-M   'P 1'
_cell_length_a   4.59037477
_cell_length_b   4.61864836
_cell_length_c   6.78313594
_cell_angle_alpha   73.37622191
_cell_angle_beta   67.08170063
_cell_angle_gamma   83.34628639
_symmetry_Int_Tables_number   1
_chemical_formula_structural   Mg(BiO2)2
_chemical_formula_sum   'Mg1 Bi2 O4'
_cell_volume   126.92126532
_cell_formula_units_Z   1
loop_
 _symmetry_equiv_pos_site_id
 _symmetry_equiv_pos_as_xyz
  1  'x, y, z'
loop_
 _atom_site_type_symbol
 _atom_site_label
 _atom_site_symmetry_multiplicity
 _atom_site_fract_x
 _atom_site_fract_y
 _atom_site_fract_z
 _atom_site_occupancy
  Mg  Mg0  1  0.50000000  0.50000000  -0.00000000  1
  Bi  Bi0  1  0.11491458  0.93322670  0.74160433  1
  Bi  Bi1  1  0.88508542  0.06677330  0.25839567  1
  O  O0  1  0.97542663  0.31179247  0.89741146  1
  O  O1  1  0.37689165  0.15013102  0.26072960  1
  O  O2  1  0.62310835  0.84986898  0.73927040  1
  O  O3  1  0.02457337  0.68820753  0.10258854  1
loop_
_geom_bond_atom_site_label_1
_geom_bond_atom_site_label_2
_geom_bond_distance
_geom_bond_site_symmetry_2
Mg0 O1 1.963773 1_555
Mg0 O2 1.963773 1_554
Mg0 O3 2.174020 1_555
Mg0 O0 2.174020 1_554
Bi0 O0 2.203380 1_465
Bi0 O3 2.276117 1_556
Bi0 O2 2.314525 1_555
Bi0 O2 2.340483 1_455
Bi1 O3 2.203380 1_645
Bi1 O0 2.276117 1_554
Bi1 O1 2.314525 1_555
Bi1 O1 2.340483 1_655
