# generated using pymatgen
data_MgTe4(MoS)4
_symmetry_space_group_name_H-M   'P 1'
_cell_length_a   3.39379000
_cell_length_b   3.39374820
_cell_length_c   38.28533100
_cell_angle_alpha   90.00024162
_cell_angle_beta   90.00014984
_cell_angle_gamma   120.00093364
_symmetry_Int_Tables_number   1
_chemical_formula_structural   MgTe4(MoS)4
_chemical_formula_sum   'Mg1 Te4 Mo4 S4'
_cell_volume   381.87702768
_cell_formula_units_Z   1
loop_
 _symmetry_equiv_pos_site_id
 _symmetry_equiv_pos_as_xyz
  1  'x, y, z'
loop_
 _atom_site_type_symbol
 _atom_site_label
 _atom_site_symmetry_multiplicity
 _atom_site_fract_x
 _atom_site_fract_y
 _atom_site_fract_z
 _atom_site_occupancy
  Mg  Mg0  1  0.00000000  0.99999900  0.37514900  1
  Te  Te0  1  0.33335400  0.66670700  0.70658900  1
  Te  Te1  1  0.66664400  0.33328900  0.04490600  1
  Te  Te2  1  0.66664100  0.33328100  0.14288200  1
  Te  Te3  1  0.33335500  0.66671100  0.60854900  1
  Mo  Mo0  1  0.33331200  0.66662100  0.09389100  1
  Mo  Mo1  1  0.33330300  0.66661500  0.47063600  1
  Mo  Mo2  1  0.66668300  0.33336800  0.28066800  1
  Mo  Mo3  1  0.66669300  0.33338900  0.65757100  1
  S  S0  1  0.33336400  0.66672800  0.32231700  1
  S  S1  1  0.66665100  0.33329200  0.42923700  1
  S  S2  1  0.66665000  0.33329700  0.50917300  1
  S  S3  1  0.33335200  0.66670300  0.24218100  1
loop_
_geom_bond_atom_site_label_1
_geom_bond_atom_site_label_2
_geom_bond_distance
_geom_bond_site_symmetry_2
Mg0 S0 2.816040 1_455
Mg0 S0 2.816055 1_555
Mg0 S0 2.816230 1_565
Mg0 S1 2.850804 1_465
Mg0 S1 2.850805 1_565
Mg0 S1 2.850919 1_455
Mo0 Te1 2.712253 1_565
Mo0 Te1 2.712254 1_455
Mo0 Te1 2.712263 1_555
Mo0 Te2 2.712378 1_565
Mo0 Te2 2.712434 1_455
Mo0 Te2 2.712435 1_555
Mo1 S2 2.452730 1_455
Mo1 S2 2.452764 1_565
Mo1 S2 2.452765 1_555
Mo1 S1 2.520147 1_455
Mo1 S1 2.520200 1_565
Mo1 S1 2.520208 1_555
Mo2 S3 2.451574 1_545
Mo2 S3 2.451616 1_655
Mo2 S3 2.451616 1_555
Mo2 S0 2.526146 1_545
Mo2 S0 2.526243 1_655
Mo2 S0 2.526256 1_555
Mo3 Te0 2.713113 1_655
Mo3 Te0 2.713122 1_555
Mo3 Te0 2.713157 1_545
Mo3 Te3 2.713236 1_655
Mo3 Te3 2.713237 1_545
Mo3 Te3 2.713237 1_555
