# generated using pymatgen
data_YbMgTiO3
_symmetry_space_group_name_H-M   'P 1'
_cell_length_a   4.33004066
_cell_length_b   4.29997403
_cell_length_c   4.33004066
_cell_angle_alpha   81.80189703
_cell_angle_beta   81.51294091
_cell_angle_gamma   81.80189703
_symmetry_Int_Tables_number   1
_chemical_formula_structural   YbMgTiO3
_chemical_formula_sum   'Yb1 Mg1 Ti1 O3'
_cell_volume   78.31283067
_cell_formula_units_Z   1
loop_
 _symmetry_equiv_pos_site_id
 _symmetry_equiv_pos_as_xyz
  1  'x, y, z'
loop_
 _atom_site_type_symbol
 _atom_site_label
 _atom_site_symmetry_multiplicity
 _atom_site_fract_x
 _atom_site_fract_y
 _atom_site_fract_z
 _atom_site_occupancy
  Yb  Yb0  1  0.86253415  0.86871828  0.86253415  1
  Mg  Mg0  1  0.23079118  0.23439323  0.23079118  1
  Ti  Ti0  1  0.53752736  0.53879822  0.53752736  1
  O  O0  1  0.53477583  0.53576931  0.03513771  1
  O  O1  1  0.53256978  0.03655465  0.53256978  1
  O  O2  1  0.03513771  0.53576931  0.53477583  1
loop_
_geom_bond_atom_site_label_1
_geom_bond_atom_site_label_2
_geom_bond_distance
_geom_bond_site_symmetry_2
Mg0 O2 1.993458 1_555
Mg0 O0 1.993458 1_555
Mg0 O1 2.002161 1_555
O0 Yb0 2.140942 1_554
O0 Ti0 2.151137 1_554
O0 Ti0 2.179062 1_555
O1 Ti0 2.134457 1_545
O1 Yb0 2.148943 1_545
O1 Ti0 2.165992 1_555
O2 Yb0 2.140942 1_455
O2 Ti0 2.151137 1_455
O2 Ti0 2.179062 1_555
