# generated using pymatgen
data_Na7Zr2Zn2SiP5O24
_symmetry_space_group_name_H-M   'P 1'
_cell_length_a   9.12058698
_cell_length_b   9.11503115
_cell_length_c   22.57680087
_cell_angle_alpha   90.20273104
_cell_angle_beta   89.62751173
_cell_angle_gamma   120.08483692
_symmetry_Int_Tables_number   1
_chemical_formula_structural   Na7Zr2Zn2SiP5O24
_chemical_formula_sum   'Na21 Zr6 Zn6 Si3 P15 O72'
_cell_volume   1624.02562864
_cell_formula_units_Z   3
loop_
 _symmetry_equiv_pos_site_id
 _symmetry_equiv_pos_as_xyz
  1  'x, y, z'
loop_
 _atom_site_type_symbol
 _atom_site_label
 _atom_site_symmetry_multiplicity
 _atom_site_fract_x
 _atom_site_fract_y
 _atom_site_fract_z
 _atom_site_occupancy
  Na  Na0  1  0.35935535  0.37219539  0.25344264  1
  Na  Na1  1  0.01130485  0.63916800  0.25184034  1
  Na  Na2  1  0.62787453  0.64466554  0.75178783  1
  Na  Na3  1  0.00936560  0.36951918  0.75348527  1
  Na  Na4  1  0.36289874  0.98457253  0.75238503  1
  Na  Na5  1  0.29338771  0.31466798  0.58436004  1
  Na  Na6  1  0.02807556  0.71097719  0.58585049  1
  Na  Na7  1  0.67925426  0.97298003  0.58863567  1
  Na  Na8  1  0.28942788  0.97192989  0.08618391  1
  Na  Na9  1  0.68498705  0.70644073  0.08509053  1
  Na  Na10  1  0.02586850  0.32279831  0.08671039  1
  Na  Na11  1  0.95743582  0.65208388  0.92161899  1
  Na  Na12  1  0.69343155  0.03873225  0.91837527  1
  Na  Na13  1  0.96131820  0.30671702  0.41892830  1
  Na  Na14  1  0.34934612  0.04267721  0.42106605  1
  Na  Na15  1  0.99716206  0.99217400  0.50594978  1
  Na  Na16  1  0.00837177  0.00253898  0.00552375  1
  Na  Na17  1  0.65701398  0.33114478  0.84076050  1
  Na  Na18  1  0.66539949  0.33439356  0.34007854  1
  Na  Na19  1  0.34079497  0.67691738  0.17414741  1
  Na  Na20  1  0.33906003  0.67347611  0.67287985  1
  Zr  Zr0  1  0.99333725  0.99379454  0.35123517  1
  Zr  Zr1  1  0.00229716  0.00614864  0.85135855  1
  Zr  Zr2  1  0.66435557  0.32545121  0.68372052  1
  Zr  Zr3  1  0.67083296  0.32980506  0.18486944  1
  Zr  Zr4  1  0.32959745  0.66389489  0.01702999  1
  Zr  Zr5  1  0.33709098  0.67092949  0.51642523  1
  Zn  Zn0  1  0.00022623  0.99787158  0.65329716  1
  Zn  Zn1  1  0.99796868  0.99216757  0.15328729  1
  Zn  Zn2  1  0.66220487  0.34000990  0.98665187  1
  Zn  Zn3  1  0.65915361  0.33727837  0.48609942  1
  Zn  Zn4  1  0.34354168  0.67470082  0.31928057  1
  Zn  Zn5  1  0.34248358  0.67271174  0.81972570  1
  Si  Si0  1  0.70282495  0.99631353  0.74778416  1
  Si  Si1  1  0.36471380  0.03668900  0.58050236  1
  Si  Si2  1  0.96135499  0.63239415  0.08098458  1
  P  P0  1  0.29324417  0.99650478  0.24912777  1
  P  P1  1  0.70017970  0.70478646  0.24711759  1
  P  P2  1  0.00190760  0.29396577  0.24845187  1
  P  P3  1  0.29390262  0.29689382  0.74750235  1
  P  P4  1  0.00153955  0.70562060  0.74900195  1
  P  P5  1  0.96136558  0.33278932  0.58012700  1
  P  P6  1  0.66806593  0.62652816  0.58201372  1
  P  P7  1  0.66881484  0.04023031  0.07988667  1
  P  P8  1  0.37307548  0.33133016  0.08297564  1
  P  P9  1  0.62799151  0.66224644  0.91430229  1
  P  P10  1  0.03800790  0.37284362  0.91408993  1
  P  P11  1  0.33713380  0.96531751  0.91538923  1
  P  P12  1  0.62775962  0.96354217  0.41496561  1
  P  P13  1  0.33586237  0.37242461  0.41337793  1
  P  P14  1  0.03608994  0.66206972  0.41450193  1
  O  O0  1  0.20599765  0.02637762  0.30473842  1
  O  O1  1  0.82156328  0.79450208  0.30084853  1
  O  O2  1  0.97738597  0.18289424  0.30457867  1
  O  O3  1  0.20833362  0.17552659  0.80154098  1
  O  O4  1  0.97349699  0.79245630  0.80471718  1
  O  O5  1  0.82674688  0.03261398  0.80655305  1
  O  O6  1  0.78751745  0.96619179  0.68968884  1
  O  O7  1  0.18967852  0.21898504  0.69166589  1
  O  O8  1  0.03299704  0.81375719  0.69365775  1
  O  O9  1  0.78055713  0.80584017  0.19085885  1
  O  O10  1  0.02721460  0.21156798  0.19309924  1
  O  O11  1  0.18766667  0.97167933  0.19345284  1
  O  O12  1  0.88079749  0.36731846  0.63688850  1
  O  O13  1  0.48944519  0.12260221  0.63963727  1
  O  O14  1  0.63616980  0.51687981  0.63947410  1
  O  O15  1  0.87443880  0.50697578  0.13985961  1
  O  O16  1  0.63266611  0.12465749  0.13459404  1
  O  O17  1  0.48508512  0.36324274  0.13962209  1
  O  O18  1  0.45359025  0.29670458  0.02987628  1
  O  O19  1  0.84758514  0.54838271  0.02315375  1
  O  O20  1  0.69538590  0.14554029  0.02433716  1
  O  O21  1  0.45020580  0.15190730  0.52290565  1
  O  O22  1  0.70016623  0.54290411  0.52941313  1
  O  O23  1  0.85322210  0.30762254  0.52579152  1
  O  O24  1  0.54456290  0.69407645  0.97042541  1
  O  O25  1  0.14783824  0.45874877  0.97076379  1
  O  O26  1  0.30665888  0.84776722  0.97111426  1
  O  O27  1  0.54761712  0.85479800  0.47256826  1
  O  O28  1  0.30474323  0.45503317  0.46999984  1
  O  O29  1  0.15319299  0.69538908  0.47046273  1
  O  O30  1  0.11896697  0.63713695  0.35914485  1
  O  O31  1  0.51170131  0.87611319  0.36318082  1
  O  O32  1  0.35194235  0.47521921  0.35830392  1
  O  O33  1  0.12306554  0.48227347  0.85956485  1
  O  O34  1  0.36167379  0.88296161  0.85974980  1
  O  O35  1  0.52596248  0.64505145  0.85900566  1
  O  O36  1  0.03065442  0.83194278  0.41061909  1
  O  O37  1  0.80866587  0.98275664  0.41041106  1
  O  O38  1  0.16641012  0.19212493  0.41040890  1
  O  O39  1  0.02036938  0.19231587  0.91233310  1
  O  O40  1  0.16754718  0.96923867  0.91216724  1
  O  O41  1  0.80794228  0.83134059  0.91137105  1
  O  O42  1  0.98264250  0.17740115  0.58711034  1
  O  O43  1  0.17675221  0.01280710  0.58815585  1
  O  O44  1  0.82057081  0.80663888  0.58689043  1
  O  O45  1  0.98726666  0.82173279  0.08767605  1
  O  O46  1  0.82509604  0.02106135  0.08854011  1
  O  O47  1  0.19178600  0.18075895  0.08963366  1
  O  O48  1  0.69289538  0.17490906  0.74612876  1
  O  O49  1  0.47452530  0.31463891  0.74455276  1
  O  O50  1  0.83393954  0.52930526  0.74524520  1
  O  O51  1  0.69013156  0.52567308  0.24483902  1
  O  O52  1  0.83984905  0.31344097  0.24594538  1
  O  O53  1  0.46764881  0.16595885  0.24549676  1
  O  O54  1  0.65782923  0.51236093  0.91941489  1
  O  O55  1  0.85927621  0.34896110  0.91983202  1
  O  O56  1  0.49741200  0.13755115  0.92317253  1
  O  O57  1  0.65285626  0.14288329  0.42049214  1
  O  O58  1  0.48536213  0.34197373  0.41869827  1
  O  O59  1  0.86302395  0.50332589  0.42299785  1
  O  O60  1  0.36358855  0.49911912  0.07720601  1
  O  O61  1  0.15080646  0.64474508  0.07810336  1
  O  O62  1  0.50520821  0.85926673  0.07686938  1
  O  O63  1  0.35339549  0.84799844  0.57777094  1
  O  O64  1  0.50064558  0.63664991  0.57669024  1
  O  O65  1  0.14158105  0.49710473  0.57664080  1
  O  O66  1  0.30605683  0.83638389  0.25641887  1
  O  O67  1  0.51987491  0.67272716  0.25508274  1
  O  O68  1  0.15799133  0.47307036  0.25440131  1
  O  O69  1  0.31250115  0.47255029  0.75596021  1
  O  O70  1  0.15404545  0.67880454  0.75588405  1
  O  O71  1  0.51328811  0.83272104  0.75408407  1
loop_
_geom_bond_atom_site_label_1
_geom_bond_atom_site_label_2
_geom_bond_distance
_geom_bond_site_symmetry_2
Na0 O67 2.372348 1_555
Na0 O68 2.431296 1_555
Na0 O53 2.529501 1_555
Na0 O32 2.556754 1_555
Na0 O51 2.619035 1_555
Na0 O17 2.824720 1_555
Na0 O10 2.961306 1_555
Na0 O0 2.969528 1_555
Na1 O66 2.372023 1_555
Na1 O68 2.473400 1_555
Na1 O52 2.573573 1_455
Na1 O51 2.577333 1_455
Na1 O30 2.623543 1_555
Na1 O15 2.813050 1_455
Na1 O11 2.936678 1_555
Na1 O1 2.940118 1_455
Na2 O71 2.414094 1_555
Na2 O69 2.493414 1_555
Na2 O50 2.576116 1_555
Na2 O35 2.587937 1_555
Na2 O49 2.610264 1_555
Na2 O14 2.803046 1_555
Na2 O6 2.898124 1_555
Na2 O4 2.993287 1_555
Na3 O69 2.434658 1_555
Na3 O70 2.441728 1_555
Na3 O48 2.525156 1_455
Na3 O33 2.610316 1_555
Na3 O50 2.656672 1_455
Na3 O12 2.884622 1_455
Na3 O5 2.917565 1_455
Na3 O7 2.958743 1_555
Na4 O71 2.388125 1_555
Na4 O70 2.465677 1_555
Na4 O34 2.595892 1_555
Na4 O48 2.617192 1_565
Na4 O49 2.655148 1_565
Na4 O13 2.814811 1_565
Na4 O8 2.928490 1_555
Na4 O3 2.945241 1_565
Na5 O43 2.403244 1_555
Na5 O42 2.458653 1_455
Na5 O64 2.579544 1_555
Na5 O7 2.585061 1_555
Na5 O65 2.650697 1_555
Na5 O28 2.863716 1_555
Na5 O21 2.873784 1_555
Na5 O14 2.996149 1_555
Na6 O43 2.381221 1_565
Na6 O44 2.448758 1_455
Na6 O63 2.583832 1_555
Na6 O8 2.597478 1_555
Na6 O65 2.633054 1_555
Na6 O29 2.868825 1_555
Na6 O22 2.890879 1_455
Na6 O12 2.954880 1_455
Na7 O44 2.433067 1_555
Na7 O42 2.441291 1_565
Na7 O6 2.505080 1_555
Na7 O63 2.608439 1_555
Na7 O64 2.667910 1_555
Na7 O27 2.862312 1_555
Na7 O13 2.917668 1_565
Na7 O23 2.997320 1_565
Na8 O45 2.384711 1_455
Na8 O47 2.473851 1_565
Na8 O11 2.587502 1_555
Na8 O61 2.597076 1_555
Na8 O62 2.644108 1_555
Na8 O18 2.859991 1_565
Na8 O26 2.864762 1_554
Na8 O16 2.932105 1_565
Na9 O45 2.409483 1_555
Na9 O46 2.487736 1_565
Na9 O9 2.550053 1_555
Na9 O60 2.578043 1_555
Na9 O62 2.638042 1_555
Na9 O24 2.872472 1_554
Na9 O19 2.886353 1_555
Na9 O17 2.984261 1_555
Na10 O46 2.422773 1_455
Na10 O47 2.436534 1_555
Na10 O61 2.568363 1_555
Na10 O10 2.612928 1_555
Na10 O60 2.673471 1_555
Na10 O25 2.868539 1_554
Na10 O15 2.907651 1_455
Na10 O20 2.972444 1_455
Na11 O54 2.367224 1_555
Na11 O55 2.440674 1_555
Na11 O19 2.487583 1_556
Na11 O40 2.553429 1_655
Na11 O41 2.612012 1_555
Na11 O4 2.907796 1_555
Na11 O26 2.985222 1_655
Na11 O33 2.990301 1_655
Na12 O56 2.372890 1_555
Na12 O55 2.448869 1_555
Na12 O20 2.576396 1_556
Na12 O41 2.581560 1_545
Na12 O39 2.584742 1_655
Na12 O5 2.807521 1_555
Na12 O34 2.941936 1_545
Na12 O24 2.970308 1_545
Na13 O59 2.373239 1_555
Na13 O57 2.435835 1_555
Na13 O37 2.563735 1_545
Na13 O38 2.565095 1_655
Na13 O23 2.601911 1_555
Na13 O2 2.846141 1_555
Na13 O30 2.936316 1_655
Na13 O28 2.959498 1_655
Na14 O58 2.364633 1_555
Na14 O57 2.441728 1_555
Na14 O21 2.493381 1_555
Na14 O36 2.569453 1_545
Na14 O38 2.642647 1_555
Na14 O31 2.901784 1_545
Na14 O0 2.911365 1_555
Na14 O29 2.964165 1_545
Na15 O43 2.427153 1_665
Na15 O44 2.458909 1_555
Na15 O42 2.534693 1_565
Na15 O36 2.697246 1_655
Na15 O37 2.741245 1_555
Na15 O38 2.742475 1_665
Na16 O45 2.427369 1_445
Na16 O47 2.517597 1_555
Na16 O46 2.564263 1_455
Na16 O40 2.653228 1_544
Na16 O39 2.695151 1_554
Na16 O41 2.731738 1_444
Na17 O54 2.418452 1_555
Na17 O56 2.471315 1_555
Na17 O55 2.521263 1_555
Na17 O48 2.671389 1_555
Na17 O49 2.702660 1_555
Na17 O50 2.752596 1_555
Na18 O58 2.434468 1_555
Na18 O57 2.485110 1_555
Na18 O59 2.522969 1_555
Na18 O51 2.709252 1_555
Na18 O52 2.709689 1_555
Na18 O53 2.724070 1_555
Na19 O66 2.469444 1_555
Na19 O67 2.471821 1_555
Na19 O68 2.528601 1_555
Na19 O62 2.705345 1_555
Na19 O61 2.706536 1_555
Na19 O60 2.786850 1_555
Na20 O71 2.387408 1_555
Na20 O70 2.530215 1_555
Na20 O69 2.550432 1_555
Na20 O63 2.640145 1_555
Na20 O64 2.729451 1_555
Na20 O65 2.769955 1_555
O0 P0 1.576538 1_545
O0 Zr0 2.085757 1_445
O1 P1 1.571213 1_555
O1 Zr0 2.050297 1_555
O2 P2 1.568153 1_655
O2 Zr0 2.089961 1_545
O3 P3 1.566187 1_555
O3 Zr1 2.063011 1_555
O4 P4 1.570311 1_655
O4 Zr1 2.109013 1_665
O5 Si0 1.669976 1_545
O5 Zr1 2.013719 1_655
O6 Si0 1.609122 1_555
O6 Zn0 1.985308 1_655
O7 P3 1.526274 1_555
O7 Zn0 2.076963 1_545
O8 P4 1.528276 1_555
O8 Zn0 2.062347 1_555
O9 P1 1.522599 1_555
O9 Zn1 2.036647 1_555
O10 P2 1.530518 1_555
O10 Zn1 2.081825 1_445
O11 P0 1.534164 1_555
O11 Zn1 2.048452 1_455
O12 P5 1.580514 1_555
O12 Zr2 2.093077 1_555
O13 Si1 1.676024 1_555
O13 Zr2 2.001150 1_555
O14 P6 1.574551 1_555
O14 Zr2 2.138680 1_555
O15 Si2 1.670507 1_555
O15 Zr3 2.017306 1_555
O16 P7 1.571236 1_555
O16 Zr3 2.060019 1_555
O17 P8 1.574887 1_555
O17 Zr3 2.132812 1_555
O18 P8 1.514682 1_555
O18 Zn2 1.988458 1_554
O19 Si2 1.606767 1_555
O19 Zn2 1.983121 1_554
O20 P7 1.524576 1_555
O20 Zn2 2.123536 1_554
O21 Si1 1.605411 1_555
O21 Zn3 1.984519 1_555
O22 P6 1.513212 1_555
O22 Zn3 1.974340 1_555
O23 P5 1.522241 1_555
O23 Zn3 2.123933 1_555
O24 P9 1.573169 1_555
O24 Zr4 2.112163 1_556
O25 P10 1.573823 1_555
O25 Zr4 2.058319 1_556
O26 P11 1.585725 1_555
O26 Zr4 2.072199 1_556
O27 P12 1.574299 1_555
O27 Zr5 2.058360 1_555
O28 P13 1.576206 1_555
O28 Zr5 2.113200 1_555
O29 P14 1.587076 1_555
O29 Zr5 2.082994 1_555
O30 P14 1.530657 1_555
O30 Zn4 2.097067 1_555
O31 P12 1.512019 1_555
O31 Zn4 1.972061 1_555
O32 P13 1.521042 1_555
O32 Zn4 2.059151 1_555
O33 P10 1.527285 1_555
O33 Zn5 2.081340 1_555
O34 P11 1.532862 1_555
O34 Zn5 2.042888 1_555
O35 P9 1.522027 1_555
O35 Zn5 2.023430 1_555
O36 P14 1.576596 1_555
O36 Zr0 2.147816 1_455
O37 P12 1.572214 1_555
O37 Zr0 2.105642 1_555
O38 P13 1.596270 1_555
O38 Zr0 2.166561 1_445
O39 P10 1.571432 1_555
O39 Zr1 2.123149 1_555
O40 P11 1.567114 1_555
O40 Zr1 2.192732 1_565
O41 P9 1.592753 1_555
O41 Zr1 2.160820 1_665
O42 P5 1.531716 1_555
O42 Zn0 2.284733 1_645
O43 Si1 1.624320 1_555
O43 Zn0 2.127085 1_545
O44 P6 1.534076 1_555
O44 Zn0 2.262957 1_655
O45 Si2 1.626919 1_555
O45 Zn1 2.109678 1_555
O46 P7 1.534257 1_555
O46 Zn1 2.267414 1_545
O47 P8 1.537299 1_555
O47 Zn1 2.254558 1_445
O48 Si0 1.675694 1_545
O48 Zr2 2.076643 1_555
O49 P3 1.573525 1_555
O49 Zr2 2.166223 1_555
O50 P4 1.569854 1_655
O50 Zr2 2.214201 1_555
O51 P1 1.589329 1_555
O51 Zr3 2.173126 1_555
O52 P2 1.575949 1_655
O52 Zr3 2.135305 1_555
O53 P0 1.568014 1_545
O53 Zr3 2.178286 1_555
O54 P9 1.525841 1_555
O54 Zn2 2.203274 1_555
O55 P10 1.537278 1_655
O55 Zn2 2.309052 1_555
O56 P11 1.527421 1_545
O56 Zn2 2.224197 1_555
O57 P12 1.537530 1_545
O57 Zn3 2.284174 1_555
O58 P13 1.527242 1_555
O58 Zn3 2.220298 1_555
O59 P14 1.526507 1_655
O59 Zn3 2.221958 1_555
O60 P8 1.580428 1_555
O60 Zr4 2.164349 1_555
O61 Si2 1.675153 1_455
O61 Zr4 2.068305 1_555
O62 P7 1.576372 1_565
O62 Zr4 2.171022 1_555
O63 Si1 1.671501 1_565
O63 Zr5 2.071595 1_555
O64 P6 1.580603 1_555
O64 Zr5 2.161190 1_555
O65 P5 1.575476 1_455
O65 Zr5 2.165510 1_555
O66 P0 1.530966 1_555
O66 Zn4 2.197553 1_555
O67 P1 1.528661 1_555
O67 Zn4 2.164729 1_555
O68 P2 1.542963 1_555
O68 Zn4 2.298305 1_555
O69 P3 1.534525 1_555
O69 Zn5 2.227631 1_555
O70 P4 1.537058 1_555
O70 Zn5 2.272186 1_555
O71 Si0 1.626678 1_555
O71 Zn5 2.111320 1_555
