# generated using pymatgen
data_MgNb2Cu2(O3F)2
_symmetry_space_group_name_H-M   'P 1'
_cell_length_a   3.86722034
_cell_length_b   7.37398945
_cell_length_c   6.61449908
_cell_angle_alpha   71.56343888
_cell_angle_beta   87.95060576
_cell_angle_gamma   87.79894685
_symmetry_Int_Tables_number   1
_chemical_formula_structural   MgNb2Cu2(O3F)2
_chemical_formula_sum   'Mg1 Nb2 Cu2 O6 F2'
_cell_volume   178.75584035
_cell_formula_units_Z   1
loop_
 _symmetry_equiv_pos_site_id
 _symmetry_equiv_pos_as_xyz
  1  'x, y, z'
loop_
 _atom_site_type_symbol
 _atom_site_label
 _atom_site_symmetry_multiplicity
 _atom_site_fract_x
 _atom_site_fract_y
 _atom_site_fract_z
 _atom_site_occupancy
  Mg  Mg0  1  0.20776196  0.32751273  0.03075051  1
  Nb  Nb0  1  0.25420299  0.83089827  0.19464373  1
  Nb  Nb1  1  0.76466414  0.13661646  0.77243490  1
  Cu  Cu0  1  0.31865377  0.68261654  0.75731869  1
  Cu  Cu1  1  0.58275015  0.47129647  0.27861737  1
  O  O0  1  0.75517421  0.88917112  0.11946430  1
  O  O1  1  0.25424760  0.08502811  0.85661135  1
  O  O2  1  0.71986785  0.31908754  0.93076315  1
  O  O3  1  0.78431434  0.29938132  0.50231579  1
  O  O4  1  0.27659003  0.61224019  0.06487732  1
  O  O5  1  0.25917640  0.70021526  0.47622420  1
  F  F0  1  0.75840502  0.88884464  0.70114163  1
  F  F1  1  0.23085955  0.09042335  0.26483904  1
loop_
_geom_bond_atom_site_label_1
_geom_bond_atom_site_label_2
_geom_bond_distance
_geom_bond_site_symmetry_2
Mg0 O2 2.031133 1_454
Mg0 O2 2.070317 1_554
Mg0 O4 2.208398 1_555
Mg0 O1 2.412363 1_554
Nb0 O5 1.806615 1_555
Nb0 O0 2.006502 1_455
Nb0 O0 2.011268 1_555
Nb0 O4 2.050209 1_555
Nb0 O1 2.420908 1_564
Nb1 O3 1.810949 1_555
Nb1 O2 1.948757 1_555
Nb1 O1 1.981291 1_655
Nb1 O1 2.048433 1_555
Nb1 O0 2.439189 1_546
Cu0 O5 1.844565 1_555
Cu0 O4 1.936335 1_556
Cu0 F0 2.266893 1_555
Cu0 F0 2.567477 1_455
Cu1 O3 1.795607 1_555
Cu1 O4 1.891191 1_555
F0 Nb1 2.027391 1_565
F1 Mg0 1.935890 1_555
F1 Nb0 2.105200 1_545
