# generated using pymatgen
data_LuTiSi
_symmetry_space_group_name_H-M   'P 1'
_cell_length_a   3.96641288
_cell_length_b   3.96641288
_cell_length_c   7.43715408
_cell_angle_alpha   90.00000000
_cell_angle_beta   90.00000000
_cell_angle_gamma   90.00000000
_symmetry_Int_Tables_number   1
_chemical_formula_structural   LuTiSi
_chemical_formula_sum   'Lu2 Ti2 Si2'
_cell_volume   117.00451440
_cell_formula_units_Z   2
loop_
 _symmetry_equiv_pos_site_id
 _symmetry_equiv_pos_as_xyz
  1  'x, y, z'
loop_
 _atom_site_type_symbol
 _atom_site_label
 _atom_site_symmetry_multiplicity
 _atom_site_fract_x
 _atom_site_fract_y
 _atom_site_fract_z
 _atom_site_occupancy
  Lu  Lu0  1  0.75000000  0.75000000  0.34800257  1
  Lu  Lu1  1  0.25000000  0.25000000  0.65199743  1
  Ti  Ti0  1  0.75000000  0.25000000  -0.00000000  1
  Ti  Ti1  1  0.25000000  0.75000000  -0.00000000  1
  Si  Si0  1  0.75000000  0.75000000  0.75352240  1
  Si  Si1  1  0.25000000  0.25000000  0.24647760  1
loop_
_geom_bond_atom_site_label_1
_geom_bond_atom_site_label_2
_geom_bond_distance
_geom_bond_site_symmetry_2
Lu0 Si1 2.904535 1_655
Lu0 Si1 2.904535 1_565
Lu0 Si1 2.904535 1_665
Lu0 Si1 2.904535 1_555
Lu0 Si0 3.015913 1_555
Lu1 Si0 2.904535 1_545
Lu1 Si0 2.904535 1_555
Lu1 Si0 2.904535 1_445
Lu1 Si0 2.904535 1_455
Lu1 Si1 3.015913 1_555
Si0 Ti1 2.700617 1_656
Si0 Ti1 2.700617 1_556
Si0 Ti0 2.700617 1_566
Si0 Ti0 2.700617 1_556
Si1 Ti1 2.700617 1_545
Si1 Ti1 2.700617 1_555
Si1 Ti0 2.700617 1_455
Si1 Ti0 2.700617 1_555
