# generated using pymatgen
data_MgV4O7F5
_symmetry_space_group_name_H-M   'P 1'
_cell_length_a   5.26395899
_cell_length_b   7.26252947
_cell_length_c   5.62707160
_cell_angle_alpha   92.19286766
_cell_angle_beta   87.38928853
_cell_angle_gamma   89.54067883
_symmetry_Int_Tables_number   1
_chemical_formula_structural   MgV4O7F5
_chemical_formula_sum   'Mg1 V4 O7 F5'
_cell_volume   214.73010339
_cell_formula_units_Z   1
loop_
 _symmetry_equiv_pos_site_id
 _symmetry_equiv_pos_as_xyz
  1  'x, y, z'
loop_
 _atom_site_type_symbol
 _atom_site_label
 _atom_site_symmetry_multiplicity
 _atom_site_fract_x
 _atom_site_fract_y
 _atom_site_fract_z
 _atom_site_occupancy
  Mg  Mg0  1  0.51060000  0.21259600  0.10623200  1
  V  V0  1  0.52426900  0.50511800  0.47541800  1
  V  V1  1  0.56147000  0.00163600  0.54325200  1
  V  V2  1  0.00019900  0.48874700  0.95303500  1
  V  V3  1  0.02283700  0.99543600  0.03210600  1
  O  O0  1  0.87423200  0.23695200  0.99149800  1
  O  O1  1  0.75814100  0.55055800  0.27002600  1
  O  O2  1  0.81591400  0.95439100  0.69232500  1
  O  O3  1  0.56472400  0.24682300  0.46268400  1
  O  O4  1  0.20289200  0.05097300  0.26123600  1
  O  O5  1  0.19933200  0.46609100  0.71055100  1
  O  O6  1  0.06208400  0.76244200  0.99909200  1
  F  F0  1  0.68839700  0.95504100  0.19921700  1
  F  F1  1  0.69101700  0.54284400  0.77728800  1
  F  F2  1  0.38930000  0.76468600  0.51717700  1
  F  F3  1  0.28951000  0.43831600  0.18036200  1
  F  F4  1  0.33258000  0.07734700  0.82850300  1
loop_
_geom_bond_atom_site_label_1
_geom_bond_atom_site_label_2
_geom_bond_distance
_geom_bond_site_symmetry_2
Mg0 O0 2.003408 1_554
Mg0 O3 2.044788 1_555
Mg0 O4 2.177685 1_555
O0 V3 1.940532 1_646
O0 V2 1.966522 1_655
O1 V0 1.693029 1_555
O1 V2 2.174685 1_654
O2 V1 1.652981 1_565
O2 V3 2.254382 1_656
O3 V1 1.854240 1_555
O3 V0 1.884492 1_555
O4 V3 1.673632 1_545
O4 V1 2.552464 1_555
O5 V2 1.684459 1_555
O5 V0 2.141708 1_555
O6 V3 1.705088 1_556
O6 V2 2.025576 1_555
F0 V3 1.987003 1_655
F0 V1 2.033980 1_565
F0 Mg0 2.177137 1_565
F1 V0 1.958311 1_555
F1 V2 1.986780 1_655
F2 V1 1.955005 1_565
F2 V0 2.010742 1_555
F3 Mg0 2.022030 1_555
F3 V2 2.072228 1_554
F3 V0 2.157304 1_555
F4 V1 2.018944 1_555
F4 V3 2.054864 1_546
F4 Mg0 2.077498 1_556
