# generated using pymatgen
data_MgMo2W(Se2S)2
_symmetry_space_group_name_H-M   'P 1'
_cell_length_a   6.55300800
_cell_length_b   6.55301052
_cell_length_c   60.38987800
_cell_angle_alpha   89.99982806
_cell_angle_beta   89.99999810
_cell_angle_gamma   120.00006264
_symmetry_Int_Tables_number   1
_chemical_formula_structural   MgMo2W(Se2S)2
_chemical_formula_sum   'Mg8 Mo16 W8 Se32 S16'
_cell_volume   2245.82583345
_cell_formula_units_Z   8
loop_
 _symmetry_equiv_pos_site_id
 _symmetry_equiv_pos_as_xyz
  1  'x, y, z'
loop_
 _atom_site_type_symbol
 _atom_site_label
 _atom_site_symmetry_multiplicity
 _atom_site_fract_x
 _atom_site_fract_y
 _atom_site_fract_z
 _atom_site_occupancy
  Mg  Mg0_0  1  0.00000000  0.01041600  0.42499950  1
  Mg  Mg0_1  1  0.00000000  0.01041600  0.92499950  1
  Mg  Mg0_2  1  0.00000000  0.51041600  0.42499950  1
  Mg  Mg0_3  1  0.00000000  0.51041600  0.92499950  1
  Mg  Mg0_4  1  0.50000000  0.01041600  0.42499950  1
  Mg  Mg0_5  1  0.50000000  0.01041600  0.92499950  1
  Mg  Mg0_6  1  0.50000000  0.51041600  0.42499950  1
  Mg  Mg0_7  1  0.50000000  0.51041600  0.92499950  1
  Mo  Mo0_0  1  0.16665400  0.33330800  0.05780750  1
  Mo  Mo0_1  1  0.16665400  0.33330800  0.55780750  1
  Mo  Mo0_2  1  0.16665400  0.83330800  0.05780750  1
  Mo  Mo0_3  1  0.16665400  0.83330800  0.55780750  1
  Mo  Mo0_4  1  0.66665400  0.33330800  0.05780750  1
  Mo  Mo0_5  1  0.66665400  0.33330800  0.55780750  1
  Mo  Mo0_6  1  0.66665400  0.83330800  0.05780750  1
  Mo  Mo0_7  1  0.66665400  0.83330800  0.55780750  1
  Mo  Mo1_0  1  0.33334350  0.16668700  0.17348950  1
  Mo  Mo1_1  1  0.33334350  0.16668700  0.67348950  1
  Mo  Mo1_2  1  0.33334350  0.66668700  0.17348950  1
  Mo  Mo1_3  1  0.33334350  0.66668700  0.67348950  1
  Mo  Mo1_4  1  0.83334350  0.16668700  0.17348950  1
  Mo  Mo1_5  1  0.83334350  0.16668700  0.67348950  1
  Mo  Mo1_6  1  0.83334350  0.66668700  0.17348950  1
  Mo  Mo1_7  1  0.83334350  0.66668700  0.67348950  1
  W  W0_0  1  0.16665600  0.33331150  0.28917150  1
  W  W0_1  1  0.16665600  0.33331150  0.78917150  1
  W  W0_2  1  0.16665600  0.83331150  0.28917150  1
  W  W0_3  1  0.16665600  0.83331150  0.78917150  1
  W  W0_4  1  0.66665600  0.33331150  0.28917150  1
  W  W0_5  1  0.66665600  0.33331150  0.78917150  1
  W  W0_6  1  0.66665600  0.83331150  0.28917150  1
  W  W0_7  1  0.66665600  0.83331150  0.78917150  1
  Se  Se0_0  1  0.33332350  0.16664800  0.02984550  1
  Se  Se0_1  1  0.33332350  0.16664800  0.52984550  1
  Se  Se0_2  1  0.33332350  0.66664800  0.02984550  1
  Se  Se0_3  1  0.33332350  0.66664800  0.52984550  1
  Se  Se0_4  1  0.83332350  0.16664800  0.02984550  1
  Se  Se0_5  1  0.83332350  0.16664800  0.52984550  1
  Se  Se0_6  1  0.83332350  0.66664800  0.02984550  1
  Se  Se0_7  1  0.83332350  0.66664800  0.52984550  1
  Se  Se1_0  1  0.33332500  0.16664900  0.26102950  1
  Se  Se1_1  1  0.33332500  0.16664900  0.76102950  1
  Se  Se1_2  1  0.33332500  0.66664900  0.26102950  1
  Se  Se1_3  1  0.33332500  0.66664900  0.76102950  1
  Se  Se1_4  1  0.83332500  0.16664900  0.26102950  1
  Se  Se1_5  1  0.83332500  0.16664900  0.76102950  1
  Se  Se1_6  1  0.83332500  0.66664900  0.26102950  1
  Se  Se1_7  1  0.83332500  0.66664900  0.76102950  1
  Se  Se2_0  1  0.33332050  0.16664150  0.08579950  1
  Se  Se2_1  1  0.33332050  0.16664150  0.58579950  1
  Se  Se2_2  1  0.33332050  0.66664150  0.08579950  1
  Se  Se2_3  1  0.33332050  0.66664150  0.58579950  1
  Se  Se2_4  1  0.83332050  0.16664150  0.08579950  1
  Se  Se2_5  1  0.83332050  0.16664150  0.58579950  1
  Se  Se2_6  1  0.83332050  0.66664150  0.08579950  1
  Se  Se2_7  1  0.83332050  0.66664150  0.58579950  1
  Se  Se3_0  1  0.33332400  0.16664800  0.31729900  1
  Se  Se3_1  1  0.33332400  0.16664800  0.81729900  1
  Se  Se3_2  1  0.33332400  0.66664800  0.31729900  1
  Se  Se3_3  1  0.33332400  0.66664800  0.81729900  1
  Se  Se3_4  1  0.83332400  0.16664800  0.31729900  1
  Se  Se3_5  1  0.83332400  0.16664800  0.81729900  1
  Se  Se3_6  1  0.83332400  0.66664800  0.31729900  1
  Se  Se3_7  1  0.83332400  0.66664800  0.81729900  1
  S  S0_0  1  0.16667700  0.33335400  0.19892200  1
  S  S0_1  1  0.16667700  0.33335400  0.69892200  1
  S  S0_2  1  0.16667700  0.83335400  0.19892200  1
  S  S0_3  1  0.16667700  0.83335400  0.69892200  1
  S  S0_4  1  0.66667700  0.33335400  0.19892200  1
  S  S0_5  1  0.66667700  0.33335400  0.69892200  1
  S  S0_6  1  0.66667700  0.83335400  0.19892200  1
  S  S0_7  1  0.66667700  0.83335400  0.69892200  1
  S  S1_0  1  0.16667700  0.33335350  0.14805750  1
  S  S1_1  1  0.16667700  0.33335350  0.64805750  1
  S  S1_2  1  0.16667700  0.83335350  0.14805750  1
  S  S1_3  1  0.16667700  0.83335350  0.64805750  1
  S  S1_4  1  0.66667700  0.33335350  0.14805750  1
  S  S1_5  1  0.66667700  0.33335350  0.64805750  1
  S  S1_6  1  0.66667700  0.83335350  0.14805750  1
  S  S1_7  1  0.66667700  0.83335350  0.64805750  1
loop_
_geom_bond_atom_site_label_1
_geom_bond_atom_site_label_2
_geom_bond_distance
_geom_bond_site_symmetry_2
Mg0_0 Mg0_6 3.276502 1_445
Mg0_0 Mg0_6 3.276502 1_555
Mg0_0 Mg0_4 3.276504 1_555
Mg0_0 Mg0_4 3.276504 1_455
Mg0_0 Mg0_2 3.276505 1_555
Mg0_0 Mg0_2 3.276505 1_545
Mg0_1 Mg0_7 3.276502 1_445
Mg0_1 Mg0_7 3.276502 1_555
Mg0_1 Mg0_5 3.276504 1_555
Mg0_1 Mg0_5 3.276504 1_455
Mg0_1 Mg0_3 3.276505 1_545
Mg0_1 Mg0_3 3.276505 1_555
Mg0_2 Mg0_4 3.276502 1_565
Mg0_2 Mg0_4 3.276502 1_455
Mg0_2 Mg0_6 3.276504 1_555
Mg0_2 Mg0_6 3.276504 1_455
Mg0_3 Mg0_5 3.276502 1_565
Mg0_3 Mg0_5 3.276502 1_455
Mg0_3 Mg0_7 3.276504 1_555
Mg0_3 Mg0_7 3.276504 1_455
Mg0_4 Mg0_6 3.276505 1_555
Mg0_4 Mg0_6 3.276505 1_545
Mg0_5 Mg0_7 3.276505 1_545
Mg0_5 Mg0_7 3.276505 1_555
Mo0_0 Se0_0 2.535719 1_555
Mo0_0 Se0_4 2.535721 1_455
Mo0_0 Se0_2 2.535755 1_555
Mo0_0 Se2_0 2.536936 1_555
Mo0_0 Se2_4 2.536936 1_455
Mo0_0 Se2_2 2.536943 1_555
Mo0_1 Se0_1 2.535719 1_555
Mo0_1 Se0_5 2.535721 1_455
Mo0_1 Se0_3 2.535755 1_555
Mo0_1 Se2_1 2.536936 1_555
Mo0_1 Se2_5 2.536936 1_455
Mo0_1 Se2_3 2.536943 1_555
Mo0_2 Se0_2 2.535719 1_555
Mo0_2 Se0_6 2.535721 1_455
Mo0_2 Se0_0 2.535755 1_565
Mo0_2 Se2_2 2.536936 1_555
Mo0_2 Se2_6 2.536936 1_455
Mo0_2 Se2_0 2.536943 1_565
Mo0_3 Se0_3 2.535719 1_555
Mo0_3 Se0_7 2.535721 1_455
Mo0_3 Se0_1 2.535755 1_565
Mo0_3 Se2_3 2.536936 1_555
Mo0_3 Se2_7 2.536936 1_455
Mo0_3 Se2_1 2.536943 1_565
Mo0_4 Se0_4 2.535719 1_555
Mo0_4 Se0_0 2.535721 1_555
Mo0_4 Se0_6 2.535755 1_555
Mo0_4 Se2_4 2.536936 1_555
Mo0_4 Se2_0 2.536936 1_555
Mo0_4 Se2_6 2.536943 1_555
Mo0_5 Se0_5 2.535719 1_555
Mo0_5 Se0_1 2.535721 1_555
Mo0_5 Se0_7 2.535755 1_555
Mo0_5 Se2_5 2.536936 1_555
Mo0_5 Se2_1 2.536936 1_555
Mo0_5 Se2_7 2.536943 1_555
Mo0_6 Se0_6 2.535719 1_555
Mo0_6 Se0_2 2.535721 1_555
Mo0_6 Se0_4 2.535755 1_565
Mo0_6 Se2_6 2.536936 1_555
Mo0_6 Se2_2 2.536936 1_555
Mo0_6 Se2_4 2.536943 1_565
Mo0_7 Se0_7 2.535719 1_555
Mo0_7 Se0_3 2.535721 1_555
Mo0_7 Se0_5 2.535755 1_565
Mo0_7 Se2_7 2.536936 1_555
Mo0_7 Se2_3 2.536936 1_555
Mo0_7 Se2_5 2.536943 1_565
Mo1_0 S1_0 2.436651 1_555
Mo1_0 S1_4 2.436652 1_555
Mo1_0 S1_2 2.436659 1_545
Mo1_0 S0_2 2.436667 1_545
Mo1_0 S0_4 2.436675 1_555
Mo1_0 S0_0 2.436677 1_555
Mo1_1 S1_1 2.436651 1_555
Mo1_1 S1_5 2.436652 1_555
Mo1_1 S1_3 2.436659 1_545
Mo1_1 S0_3 2.436667 1_545
Mo1_1 S0_5 2.436675 1_555
Mo1_1 S0_1 2.436677 1_555
Mo1_2 S1_2 2.436651 1_555
Mo1_2 S1_6 2.436652 1_555
Mo1_2 S1_0 2.436659 1_555
Mo1_2 S0_0 2.436667 1_555
Mo1_2 S0_6 2.436675 1_555
Mo1_2 S0_2 2.436677 1_555
Mo1_3 S1_3 2.436651 1_555
Mo1_3 S1_7 2.436652 1_555
Mo1_3 S1_1 2.436659 1_555
Mo1_3 S0_1 2.436667 1_555
Mo1_3 S0_7 2.436675 1_555
Mo1_3 S0_3 2.436677 1_555
Mo1_4 S1_4 2.436651 1_555
Mo1_4 S1_0 2.436652 1_655
Mo1_4 S1_6 2.436659 1_545
Mo1_4 S0_6 2.436667 1_545
Mo1_4 S0_0 2.436675 1_655
Mo1_4 S0_4 2.436677 1_555
Mo1_5 S1_5 2.436651 1_555
Mo1_5 S1_1 2.436652 1_655
Mo1_5 S1_7 2.436659 1_545
Mo1_5 S0_7 2.436667 1_545
Mo1_5 S0_1 2.436675 1_655
Mo1_5 S0_5 2.436677 1_555
Mo1_6 S1_6 2.436651 1_555
Mo1_6 S1_2 2.436652 1_655
Mo1_6 S1_4 2.436659 1_555
Mo1_6 S0_4 2.436667 1_555
Mo1_6 S0_2 2.436675 1_655
Mo1_6 S0_6 2.436677 1_555
Mo1_7 S1_7 2.436651 1_555
Mo1_7 S1_3 2.436652 1_655
Mo1_7 S1_5 2.436659 1_555
Mo1_7 S0_5 2.436667 1_555
Mo1_7 S0_3 2.436675 1_655
Mo1_7 S0_7 2.436677 1_555
Se1_0 W0_4 2.542975 1_555
Se1_0 W0_0 2.542979 1_555
Se1_0 W0_2 2.542996 1_545
Se1_1 W0_5 2.542975 1_555
Se1_1 W0_1 2.542979 1_555
Se1_1 W0_3 2.542996 1_545
Se1_2 W0_6 2.542975 1_555
Se1_2 W0_2 2.542979 1_555
Se1_2 W0_0 2.542996 1_555
Se1_3 W0_7 2.542975 1_555
Se1_3 W0_3 2.542979 1_555
Se1_3 W0_1 2.542996 1_555
Se1_4 W0_0 2.542975 1_655
Se1_4 W0_4 2.542979 1_555
Se1_4 W0_6 2.542996 1_545
Se1_5 W0_1 2.542975 1_655
Se1_5 W0_5 2.542979 1_555
Se1_5 W0_7 2.542996 1_545
Se1_6 W0_2 2.542975 1_655
Se1_6 W0_6 2.542979 1_555
Se1_6 W0_4 2.542996 1_555
Se1_7 W0_3 2.542975 1_655
Se1_7 W0_7 2.542979 1_555
Se1_7 W0_5 2.542996 1_555
Se3_0 W0_0 2.542389 1_555
Se3_0 W0_4 2.542390 1_555
Se3_0 W0_2 2.542416 1_545
Se3_1 W0_1 2.542389 1_555
Se3_1 W0_5 2.542390 1_555
Se3_1 W0_3 2.542416 1_545
Se3_2 W0_2 2.542389 1_555
Se3_2 W0_6 2.542390 1_555
Se3_2 W0_0 2.542416 1_555
Se3_3 W0_3 2.542389 1_555
Se3_3 W0_7 2.542390 1_555
Se3_3 W0_1 2.542416 1_555
Se3_4 W0_4 2.542389 1_555
Se3_4 W0_0 2.542390 1_655
Se3_4 W0_6 2.542416 1_545
Se3_5 W0_5 2.542389 1_555
Se3_5 W0_1 2.542390 1_655
Se3_5 W0_7 2.542416 1_545
Se3_6 W0_6 2.542389 1_555
Se3_6 W0_2 2.542390 1_655
Se3_6 W0_4 2.542416 1_555
Se3_7 W0_7 2.542389 1_555
Se3_7 W0_3 2.542390 1_655
Se3_7 W0_5 2.542416 1_555
