# generated using pymatgen
data_MgTe2Mo3W(Se2S)2
_symmetry_space_group_name_H-M   'P 1'
_cell_length_a   6.67641400
_cell_length_b   6.67619615
_cell_length_c   91.71190607
_cell_angle_alpha   89.99595904
_cell_angle_beta   90.00000000
_cell_angle_gamma   120.00108931
_symmetry_Int_Tables_number   1
_chemical_formula_structural   MgTe2Mo3W(Se2S)2
_chemical_formula_sum   'Mg8 Te16 Mo24 W8 Se32 S16'
_cell_volume   3540.16847240
_cell_formula_units_Z   8
loop_
 _symmetry_equiv_pos_site_id
 _symmetry_equiv_pos_as_xyz
  1  'x, y, z'
loop_
 _atom_site_type_symbol
 _atom_site_label
 _atom_site_symmetry_multiplicity
 _atom_site_fract_x
 _atom_site_fract_y
 _atom_site_fract_z
 _atom_site_occupancy
  Mg  Mg0_0  1  0.00001450  0.00002950  0.09216000  1
  Mg  Mg0_1  1  0.00001450  0.00002950  0.59216000  1
  Mg  Mg0_2  1  0.00001450  0.50002950  0.09216000  1
  Mg  Mg0_3  1  0.00001450  0.50002950  0.59216000  1
  Mg  Mg0_4  1  0.50001450  0.00002950  0.09216000  1
  Mg  Mg0_5  1  0.50001450  0.00002950  0.59216000  1
  Mg  Mg0_6  1  0.50001450  0.50002950  0.09216000  1
  Mg  Mg0_7  1  0.50001450  0.50002950  0.59216000  1
  Te  Te0_0  1  0.16666400  0.33332900  0.34951300  1
  Te  Te0_1  1  0.16666400  0.33332900  0.84951300  1
  Te  Te0_2  1  0.16666400  0.83332900  0.34951300  1
  Te  Te0_3  1  0.16666400  0.83332900  0.84951300  1
  Te  Te0_4  1  0.66666400  0.33332900  0.34951300  1
  Te  Te0_5  1  0.66666400  0.33332900  0.84951300  1
  Te  Te0_6  1  0.66666400  0.83332900  0.34951300  1
  Te  Te0_7  1  0.66666400  0.83332900  0.84951300  1
  Te  Te1_0  1  0.16668800  0.33337600  0.30805850  1
  Te  Te1_1  1  0.16668800  0.33337600  0.80805850  1
  Te  Te1_2  1  0.16668800  0.83337600  0.30805850  1
  Te  Te1_3  1  0.16668800  0.83337600  0.80805850  1
  Te  Te1_4  1  0.66668800  0.33337600  0.30805850  1
  Te  Te1_5  1  0.66668800  0.33337600  0.80805850  1
  Te  Te1_6  1  0.66668800  0.83337600  0.30805850  1
  Te  Te1_7  1  0.66668800  0.83337600  0.80805850  1
  Mo  Mo0_0  1  0.16664350  0.33328800  0.04334750  1
  Mo  Mo0_1  1  0.16664350  0.33328800  0.54334750  1
  Mo  Mo0_2  1  0.16664350  0.83328800  0.04334750  1
  Mo  Mo0_3  1  0.16664350  0.83328800  0.54334750  1
  Mo  Mo0_4  1  0.66664350  0.33328800  0.04334750  1
  Mo  Mo0_5  1  0.66664350  0.33328800  0.54334750  1
  Mo  Mo0_6  1  0.66664350  0.83328800  0.04334750  1
  Mo  Mo0_7  1  0.66664350  0.83328800  0.54334750  1
  Mo  Mo1_0  1  0.16663650  0.33327350  0.23476350  1
  Mo  Mo1_1  1  0.16663650  0.33327350  0.73476350  1
  Mo  Mo1_2  1  0.16663650  0.83327350  0.23476350  1
  Mo  Mo1_3  1  0.16663650  0.83327350  0.73476350  1
  Mo  Mo1_4  1  0.66663650  0.33327350  0.23476350  1
  Mo  Mo1_5  1  0.66663650  0.33327350  0.73476350  1
  Mo  Mo1_6  1  0.66663650  0.83327350  0.23476350  1
  Mo  Mo1_7  1  0.66663650  0.83327350  0.73476350  1
  Mo  Mo2_0  1  0.33335050  0.16670000  0.32878600  1
  Mo  Mo2_1  1  0.33335050  0.16670000  0.82878600  1
  Mo  Mo2_2  1  0.33335050  0.66670000  0.32878600  1
  Mo  Mo2_3  1  0.33335050  0.66670000  0.82878600  1
  Mo  Mo2_4  1  0.83335050  0.16670000  0.32878600  1
  Mo  Mo2_5  1  0.83335050  0.16670000  0.82878600  1
  Mo  Mo2_6  1  0.83335050  0.66670000  0.32878600  1
  Mo  Mo2_7  1  0.83335050  0.66670000  0.82878600  1
  W  W0_0  1  0.33335500  0.16670900  0.14501050  1
  W  W0_1  1  0.33335500  0.16670900  0.64501050  1
  W  W0_2  1  0.33335500  0.66670900  0.14501050  1
  W  W0_3  1  0.33335500  0.66670900  0.64501050  1
  W  W0_4  1  0.83335500  0.16670900  0.14501050  1
  W  W0_5  1  0.83335500  0.16670900  0.64501050  1
  W  W0_6  1  0.83335500  0.66670900  0.14501050  1
  W  W0_7  1  0.83335500  0.66670900  0.64501050  1
  Se  Se0_0  1  0.16667100  0.33334250  0.16328900  1
  Se  Se0_1  1  0.16667100  0.33334250  0.66328900  1
  Se  Se0_2  1  0.16667100  0.83334250  0.16328900  1
  Se  Se0_3  1  0.16667100  0.83334250  0.66328900  1
  Se  Se0_4  1  0.66667100  0.33334250  0.16328900  1
  Se  Se0_5  1  0.66667100  0.33334250  0.66328900  1
  Se  Se0_6  1  0.66667100  0.83334250  0.16328900  1
  Se  Se0_7  1  0.66667100  0.83334250  0.66328900  1
  Se  Se1_0  1  0.33332500  0.16665000  0.02523250  1
  Se  Se1_1  1  0.33332500  0.16665000  0.52523250  1
  Se  Se1_2  1  0.33332500  0.66665000  0.02523250  1
  Se  Se1_3  1  0.33332500  0.66665000  0.52523250  1
  Se  Se1_4  1  0.83332500  0.16665000  0.02523250  1
  Se  Se1_5  1  0.83332500  0.16665000  0.52523250  1
  Se  Se1_6  1  0.83332500  0.66665000  0.02523250  1
  Se  Se1_7  1  0.83332500  0.66665000  0.52523250  1
  Se  Se2_0  1  0.33331450  0.16662850  0.06181700  1
  Se  Se2_1  1  0.33331450  0.16662850  0.56181700  1
  Se  Se2_2  1  0.33331450  0.66662850  0.06181700  1
  Se  Se2_3  1  0.33331450  0.66662850  0.56181700  1
  Se  Se2_4  1  0.83331450  0.16662850  0.06181700  1
  Se  Se2_5  1  0.83331450  0.16662850  0.56181700  1
  Se  Se2_6  1  0.83331450  0.66662850  0.06181700  1
  Se  Se2_7  1  0.83331450  0.66662850  0.56181700  1
  Se  Se3_0  1  0.16669000  0.33338050  0.12661650  1
  Se  Se3_1  1  0.16669000  0.33338050  0.62661650  1
  Se  Se3_2  1  0.16669000  0.83338050  0.12661650  1
  Se  Se3_3  1  0.16669000  0.83338050  0.62661650  1
  Se  Se3_4  1  0.66669000  0.33338050  0.12661650  1
  Se  Se3_5  1  0.66669000  0.33338050  0.62661650  1
  Se  Se3_6  1  0.66669000  0.83338050  0.12661650  1
  Se  Se3_7  1  0.66669000  0.83338050  0.62661650  1
  S  S0_0  1  0.33333050  0.16666050  0.21821700  1
  S  S0_1  1  0.33333050  0.16666050  0.71821700  1
  S  S0_2  1  0.33333050  0.66666050  0.21821700  1
  S  S0_3  1  0.33333050  0.66666050  0.71821700  1
  S  S0_4  1  0.83333050  0.16666050  0.21821700  1
  S  S0_5  1  0.83333050  0.16666050  0.71821700  1
  S  S0_6  1  0.83333050  0.66666050  0.21821700  1
  S  S0_7  1  0.83333050  0.66666050  0.71821700  1
  S  S1_0  1  0.33331650  0.16663300  0.25131400  1
  S  S1_1  1  0.33331650  0.16663300  0.75131400  1
  S  S1_2  1  0.33331650  0.66663300  0.25131400  1
  S  S1_3  1  0.33331650  0.66663300  0.75131400  1
  S  S1_4  1  0.83331650  0.16663300  0.25131400  1
  S  S1_5  1  0.83331650  0.16663300  0.75131400  1
  S  S1_6  1  0.83331650  0.66663300  0.25131400  1
  S  S1_7  1  0.83331650  0.66663300  0.75131400  1
loop_
_geom_bond_atom_site_label_1
_geom_bond_atom_site_label_2
_geom_bond_distance
_geom_bond_site_symmetry_2
Mg0_0 Mg0_6 3.338098 1_445
Mg0_0 Mg0_6 3.338098 1_555
Mg0_0 Mg0_2 3.338098 1_545
Mg0_0 Mg0_2 3.338098 1_555
Mg0_0 Mg0_4 3.338207 1_455
Mg0_0 Mg0_4 3.338207 1_555
Mg0_0 Se2_4 3.384866 1_455
Mg0_0 Se2_0 3.384869 1_555
Mg0_0 Se2_6 3.385359 1_445
Mg0_1 Mg0_7 3.338098 1_555
Mg0_1 Mg0_7 3.338098 1_445
Mg0_1 Mg0_3 3.338098 1_545
Mg0_1 Mg0_3 3.338098 1_555
Mg0_1 Mg0_5 3.338207 1_455
Mg0_1 Mg0_5 3.338207 1_555
Mg0_1 Se2_5 3.384866 1_455
Mg0_1 Se2_1 3.384869 1_555
Mg0_1 Se2_7 3.385359 1_445
Mg0_2 Mg0_4 3.338098 1_455
Mg0_2 Mg0_4 3.338098 1_565
Mg0_2 Mg0_6 3.338207 1_455
Mg0_2 Mg0_6 3.338207 1_555
Mg0_2 Se2_6 3.384866 1_455
Mg0_2 Se2_2 3.384869 1_555
Mg0_2 Se2_4 3.385359 1_455
Mg0_3 Mg0_5 3.338098 1_455
Mg0_3 Mg0_5 3.338098 1_565
Mg0_3 Mg0_7 3.338207 1_555
Mg0_3 Mg0_7 3.338207 1_455
Mg0_3 Se2_7 3.384866 1_455
Mg0_3 Se2_3 3.384869 1_555
Mg0_3 Se2_5 3.385359 1_455
Mg0_4 Mg0_6 3.338098 1_555
Mg0_4 Mg0_6 3.338098 1_545
Mg0_4 Se2_0 3.384866 1_555
Mg0_4 Se2_4 3.384869 1_555
Mg0_4 Se2_2 3.385359 1_545
Mg0_5 Mg0_7 3.338098 1_545
Mg0_5 Mg0_7 3.338098 1_555
Mg0_5 Se2_1 3.384866 1_555
Mg0_5 Se2_5 3.384869 1_555
Mg0_5 Se2_3 3.385359 1_545
Mg0_6 Se2_2 3.384866 1_555
Mg0_6 Se2_6 3.384869 1_555
Mg0_6 Se2_0 3.385359 1_555
Mg0_7 Se2_3 3.384866 1_555
Mg0_7 Se2_7 3.384869 1_555
Mg0_7 Se2_1 3.385359 1_555
Mo0_0 Se1_2 2.544495 1_555
Mo0_0 Se1_4 2.544506 1_455
Mo0_0 Se1_0 2.544511 1_555
Mo0_0 Se2_4 2.565795 1_455
Mo0_0 Se2_0 2.565802 1_555
Mo0_0 Se2_2 2.565953 1_555
Mo0_1 Se1_3 2.544495 1_555
Mo0_1 Se1_5 2.544506 1_455
Mo0_1 Se1_1 2.544511 1_555
Mo0_1 Se2_5 2.565795 1_455
Mo0_1 Se2_1 2.565802 1_555
Mo0_1 Se2_3 2.565953 1_555
Mo0_2 Se1_0 2.544495 1_565
Mo0_2 Se1_6 2.544506 1_455
Mo0_2 Se1_2 2.544511 1_555
Mo0_2 Se2_6 2.565795 1_455
Mo0_2 Se2_2 2.565802 1_555
Mo0_2 Se2_0 2.565953 1_565
Mo0_3 Se1_1 2.544495 1_565
Mo0_3 Se1_7 2.544506 1_455
Mo0_3 Se1_3 2.544511 1_555
Mo0_3 Se2_7 2.565795 1_455
Mo0_3 Se2_3 2.565802 1_555
Mo0_3 Se2_1 2.565953 1_565
Mo0_4 Se1_6 2.544495 1_555
Mo0_4 Se1_0 2.544506 1_555
Mo0_4 Se1_4 2.544511 1_555
Mo0_4 Se2_0 2.565795 1_555
Mo0_4 Se2_4 2.565802 1_555
Mo0_4 Se2_6 2.565953 1_555
Mo0_5 Se1_7 2.544495 1_555
Mo0_5 Se1_1 2.544506 1_555
Mo0_5 Se1_5 2.544511 1_555
Mo0_5 Se2_1 2.565795 1_555
Mo0_5 Se2_5 2.565802 1_555
Mo0_5 Se2_7 2.565953 1_555
Mo0_6 Se1_4 2.544495 1_565
Mo0_6 Se1_2 2.544506 1_555
Mo0_6 Se1_6 2.544511 1_555
Mo0_6 Se2_2 2.565795 1_555
Mo0_6 Se2_6 2.565802 1_555
Mo0_6 Se2_4 2.565953 1_565
Mo0_7 Se1_5 2.544495 1_565
Mo0_7 Se1_3 2.544506 1_555
Mo0_7 Se1_7 2.544511 1_555
Mo0_7 Se2_3 2.565795 1_555
Mo0_7 Se2_7 2.565802 1_555
Mo0_7 Se2_5 2.565953 1_565
Mo1_0 S0_4 2.452943 1_455
Mo1_0 S0_0 2.452948 1_555
Mo1_0 S0_2 2.453116 1_555
Mo1_0 S1_4 2.453136 1_455
Mo1_0 S1_0 2.453139 1_555
Mo1_0 S1_2 2.453412 1_555
Mo1_1 S0_5 2.452943 1_455
Mo1_1 S0_1 2.452948 1_555
Mo1_1 S0_3 2.453116 1_555
Mo1_1 S1_5 2.453136 1_455
Mo1_1 S1_1 2.453139 1_555
Mo1_1 S1_3 2.453412 1_555
Mo1_2 S0_6 2.452943 1_455
Mo1_2 S0_2 2.452948 1_555
Mo1_2 S0_0 2.453116 1_565
Mo1_2 S1_6 2.453136 1_455
Mo1_2 S1_2 2.453139 1_555
Mo1_2 S1_0 2.453412 1_565
Mo1_3 S0_7 2.452943 1_455
Mo1_3 S0_3 2.452948 1_555
Mo1_3 S0_1 2.453116 1_565
Mo1_3 S1_7 2.453136 1_455
Mo1_3 S1_3 2.453139 1_555
Mo1_3 S1_1 2.453412 1_565
Mo1_4 S0_0 2.452943 1_555
Mo1_4 S0_4 2.452948 1_555
Mo1_4 S0_6 2.453116 1_555
Mo1_4 S1_0 2.453136 1_555
Mo1_4 S1_4 2.453139 1_555
Mo1_4 S1_6 2.453412 1_555
Mo1_5 S0_1 2.452943 1_555
Mo1_5 S0_5 2.452948 1_555
Mo1_5 S0_7 2.453116 1_555
Mo1_5 S1_1 2.453136 1_555
Mo1_5 S1_5 2.453139 1_555
Mo1_5 S1_7 2.453412 1_555
Mo1_6 S0_2 2.452943 1_555
Mo1_6 S0_6 2.452948 1_555
Mo1_6 S0_4 2.453116 1_565
Mo1_6 S1_2 2.453136 1_555
Mo1_6 S1_6 2.453139 1_555
Mo1_6 S1_4 2.453412 1_565
Mo1_7 S0_3 2.452943 1_555
Mo1_7 S0_7 2.452948 1_555
Mo1_7 S0_5 2.453116 1_565
Mo1_7 S1_3 2.453136 1_555
Mo1_7 S1_7 2.453139 1_555
Mo1_7 S1_5 2.453412 1_565
Mo2_0 Te0_4 2.706988 1_555
Mo2_0 Te0_0 2.706997 1_555
Mo2_0 Te1_4 2.707009 1_555
Mo2_0 Te1_0 2.707013 1_555
Mo2_0 Te0_2 2.707015 1_545
Mo2_0 Te1_2 2.707074 1_545
Mo2_1 Te0_5 2.706988 1_555
Mo2_1 Te0_1 2.706997 1_555
Mo2_1 Te1_5 2.707009 1_555
Mo2_1 Te1_1 2.707013 1_555
Mo2_1 Te0_3 2.707015 1_545
Mo2_1 Te1_3 2.707074 1_545
Mo2_2 Te0_6 2.706988 1_555
Mo2_2 Te0_2 2.706997 1_555
Mo2_2 Te1_6 2.707009 1_555
Mo2_2 Te1_2 2.707013 1_555
Mo2_2 Te0_0 2.707015 1_555
Mo2_2 Te1_0 2.707074 1_555
Mo2_3 Te0_7 2.706988 1_555
Mo2_3 Te0_3 2.706997 1_555
Mo2_3 Te1_7 2.707009 1_555
Mo2_3 Te1_3 2.707013 1_555
Mo2_3 Te0_1 2.707015 1_555
Mo2_3 Te1_1 2.707074 1_555
Mo2_4 Te0_0 2.706988 1_655
Mo2_4 Te0_4 2.706997 1_555
Mo2_4 Te1_0 2.707009 1_655
Mo2_4 Te1_4 2.707013 1_555
Mo2_4 Te0_6 2.707015 1_545
Mo2_4 Te1_6 2.707074 1_545
Mo2_5 Te0_1 2.706988 1_655
Mo2_5 Te0_5 2.706997 1_555
Mo2_5 Te1_1 2.707009 1_655
Mo2_5 Te1_5 2.707013 1_555
Mo2_5 Te0_7 2.707015 1_545
Mo2_5 Te1_7 2.707074 1_545
Mo2_6 Te0_2 2.706988 1_655
Mo2_6 Te0_6 2.706997 1_555
Mo2_6 Te1_2 2.707009 1_655
Mo2_6 Te1_6 2.707013 1_555
Mo2_6 Te0_4 2.707015 1_555
Mo2_6 Te1_4 2.707074 1_555
Mo2_7 Te0_3 2.706988 1_655
Mo2_7 Te0_7 2.706997 1_555
Mo2_7 Te1_3 2.707009 1_655
Mo2_7 Te1_7 2.707013 1_555
Mo2_7 Te0_5 2.707015 1_555
Mo2_7 Te1_5 2.707074 1_555
Se0_0 W0_4 2.554311 1_455
Se0_0 W0_0 2.554318 1_555
Se0_0 W0_2 2.554330 1_555
Se0_1 W0_5 2.554311 1_455
Se0_1 W0_1 2.554318 1_555
Se0_1 W0_3 2.554330 1_555
Se0_2 W0_6 2.554311 1_455
Se0_2 W0_2 2.554318 1_555
Se0_2 W0_0 2.554330 1_565
Se0_3 W0_7 2.554311 1_455
Se0_3 W0_3 2.554318 1_555
Se0_3 W0_1 2.554330 1_565
Se0_4 W0_0 2.554311 1_555
Se0_4 W0_4 2.554318 1_555
Se0_4 W0_6 2.554330 1_555
Se0_5 W0_1 2.554311 1_555
Se0_5 W0_5 2.554318 1_555
Se0_5 W0_7 2.554330 1_555
Se0_6 W0_2 2.554311 1_555
Se0_6 W0_6 2.554318 1_555
Se0_6 W0_4 2.554330 1_565
Se0_7 W0_3 2.554311 1_555
Se0_7 W0_7 2.554318 1_555
Se0_7 W0_5 2.554330 1_565
Se3_0 W0_4 2.561255 1_455
Se3_0 W0_0 2.561262 1_555
Se3_0 W0_2 2.561335 1_555
Se3_1 W0_5 2.561255 1_455
Se3_1 W0_1 2.561262 1_555
Se3_1 W0_3 2.561335 1_555
Se3_2 W0_6 2.561255 1_455
Se3_2 W0_2 2.561262 1_555
Se3_2 W0_0 2.561335 1_565
Se3_3 W0_7 2.561255 1_455
Se3_3 W0_3 2.561262 1_555
Se3_3 W0_1 2.561335 1_565
Se3_4 W0_0 2.561255 1_555
Se3_4 W0_4 2.561262 1_555
Se3_4 W0_6 2.561335 1_555
Se3_5 W0_1 2.561255 1_555
Se3_5 W0_5 2.561262 1_555
Se3_5 W0_7 2.561335 1_555
Se3_6 W0_2 2.561255 1_555
Se3_6 W0_6 2.561262 1_555
Se3_6 W0_4 2.561335 1_565
Se3_7 W0_3 2.561255 1_555
Se3_7 W0_7 2.561262 1_555
Se3_7 W0_5 2.561335 1_565
