# generated using pymatgen
data_MgV2(FeO2)4
_symmetry_space_group_name_H-M   'P 1'
_cell_length_a   6.25741343
_cell_length_b   6.12921939
_cell_length_c   6.23253879
_cell_angle_alpha   60.54688748
_cell_angle_beta   62.21760545
_cell_angle_gamma   60.67542433
_symmetry_Int_Tables_number   1
_chemical_formula_structural   MgV2(FeO2)4
_chemical_formula_sum   'Mg1 V2 Fe4 O8'
_cell_volume   173.29667798
_cell_formula_units_Z   1
loop_
 _symmetry_equiv_pos_site_id
 _symmetry_equiv_pos_as_xyz
  1  'x, y, z'
loop_
 _atom_site_type_symbol
 _atom_site_label
 _atom_site_symmetry_multiplicity
 _atom_site_fract_x
 _atom_site_fract_y
 _atom_site_fract_z
 _atom_site_occupancy
  Mg  Mg0  1  0.11235988  0.38452125  0.11859761  1
  V  V0  1  0.10090981  0.65763699  0.58381621  1
  V  V1  1  0.58307340  0.65663439  0.10365783  1
  Fe  Fe0  1  0.02735707  0.97598985  0.02066322  1
  Fe  Fe1  1  0.43264908  0.07607319  0.41520455  1
  Fe  Fe2  1  0.64775283  0.12989366  0.65380515  1
  Fe  Fe3  1  0.64775283  0.56854835  0.65380515  1
  O  O0  1  0.29942356  0.46825178  0.29870601  1
  O  O1  1  0.29942356  0.93361865  0.29870602  1
  O  O2  1  0.35898097  0.43230167  0.77641568  1
  O  O3  1  0.77172745  0.43126422  0.36574411  1
  O  O4  1  0.40694475  0.88707480  0.81890564  1
  O  O5  1  0.87875699  0.40661339  0.88067302  1
  O  O6  1  0.82496383  0.88678820  0.40145976  1
  O  O7  1  0.87875699  0.83395660  0.88067302  1
loop_
_geom_bond_atom_site_label_1
_geom_bond_atom_site_label_2
_geom_bond_distance
_geom_bond_site_symmetry_2
Mg0 O3 1.942441 1_455
Mg0 O2 1.943162 1_554
Mg0 O0 2.296405 1_555
Mg0 O1 2.296405 1_545
Mg0 O5 2.446082 1_454
Mg0 O7 2.446082 1_454
Fe0 O6 2.033633 1_455
Fe0 O4 2.035093 1_554
Fe0 O7 2.163309 1_454
Fe0 O5 2.163309 1_464
Fe1 O1 1.971100 1_545
Fe1 O0 1.971100 1_555
Fe1 O6 2.119367 1_545
Fe1 O4 2.153452 1_545
Fe2 O3 2.020150 1_555
Fe2 O2 2.027235 1_555
Fe2 O7 2.047867 1_545
Fe2 O4 2.188505 1_545
Fe2 O6 2.232441 1_545
Fe3 O3 2.020150 1_555
Fe3 O2 2.027235 1_555
Fe3 O5 2.047867 1_555
Fe3 O4 2.188505 1_555
Fe3 O6 2.232441 1_555
O0 V1 2.139369 1_555
O0 V0 2.146255 1_555
O1 V1 2.139369 1_555
O1 V0 2.146255 1_555
O2 V0 1.987020 1_555
O3 V1 1.987773 1_555
O4 V1 2.047626 1_556
O5 V0 2.149567 1_655
O5 V1 2.150153 1_556
O6 V0 2.032256 1_655
O7 V0 2.149566 1_655
O7 V1 2.150152 1_556
