# generated using pymatgen
data_Rb2In2Sb3
_symmetry_space_group_name_H-M   'P 1'
_cell_length_a   7.67359710
_cell_length_b   15.72694842
_cell_length_c   17.52237288
_cell_angle_alpha   89.44877186
_cell_angle_beta   90.00000000
_cell_angle_gamma   90.00000000
_symmetry_Int_Tables_number   1
_chemical_formula_structural   Rb2In2Sb3
_chemical_formula_sum   'Rb16 In16 Sb24'
_cell_volume   2114.54179712
_cell_formula_units_Z   8
loop_
 _symmetry_equiv_pos_site_id
 _symmetry_equiv_pos_as_xyz
  1  'x, y, z'
loop_
 _atom_site_type_symbol
 _atom_site_label
 _atom_site_symmetry_multiplicity
 _atom_site_fract_x
 _atom_site_fract_y
 _atom_site_fract_z
 _atom_site_occupancy
  Rb  Rb0  1  0.97065393  0.85754730  0.99291801  1
  Rb  Rb1  1  0.47065393  0.14245270  0.50708199  1
  Rb  Rb2  1  0.02934607  0.14245270  0.00708199  1
  Rb  Rb3  1  0.52934607  0.85754730  0.49291801  1
  Rb  Rb4  1  0.54664991  0.34648683  0.02099422  1
  Rb  Rb5  1  0.04664991  0.65351317  0.47900578  1
  Rb  Rb6  1  0.45335009  0.65351317  0.97900578  1
  Rb  Rb7  1  0.95335009  0.34648683  0.52099422  1
  Rb  Rb8  1  0.53216646  0.07695657  0.11107915  1
  Rb  Rb9  1  0.03216646  0.92304343  0.38892085  1
  Rb  Rb10  1  0.46783354  0.92304343  0.88892085  1
  Rb  Rb11  1  0.96783354  0.07695657  0.61107915  1
  Rb  Rb12  1  0.94515523  0.55674089  0.89752291  1
  Rb  Rb13  1  0.44515523  0.44325911  0.60247709  1
  Rb  Rb14  1  0.05484477  0.44325911  0.10247709  1
  Rb  Rb15  1  0.55484477  0.55674089  0.39752291  1
  In  In0  1  0.27843244  0.31573113  0.83059389  1
  In  In1  1  0.77843244  0.68426887  0.66940611  1
  In  In2  1  0.72156756  0.68426887  0.16940611  1
  In  In3  1  0.22156756  0.31573113  0.33059389  1
  In  In4  1  0.78821314  0.90752577  0.72957503  1
  In  In5  1  0.28821314  0.09247423  0.77042497  1
  In  In6  1  0.21178686  0.09247423  0.27042497  1
  In  In7  1  0.71178686  0.90752577  0.22957503  1
  In  In8  1  0.76326442  0.18168080  0.82288748  1
  In  In9  1  0.26326442  0.81831920  0.67711252  1
  In  In10  1  0.23673558  0.81831920  0.17711252  1
  In  In11  1  0.73673558  0.18168080  0.32288748  1
  In  In12  1  0.76062809  0.40667415  0.75947333  1
  In  In13  1  0.26062809  0.59332585  0.74052667  1
  In  In14  1  0.23937191  0.59332585  0.24052667  1
  In  In15  1  0.73937191  0.40667415  0.25947333  1
  Sb  Sb0  1  0.46266481  0.97342314  0.67246497  1
  Sb  Sb1  1  0.96266481  0.02657686  0.82753503  1
  Sb  Sb2  1  0.53733519  0.02657686  0.32753503  1
  Sb  Sb3  1  0.03733519  0.97342314  0.17246497  1
  Sb  Sb4  1  0.44559316  0.16401508  0.90446014  1
  Sb  Sb5  1  0.94559316  0.83598492  0.59553986  1
  Sb  Sb6  1  0.55440684  0.83598492  0.09553986  1
  Sb  Sb7  1  0.05440684  0.16401508  0.40446014  1
  Sb  Sb8  1  0.93527161  0.32908586  0.88915952  1
  Sb  Sb9  1  0.43527161  0.67091414  0.61084048  1
  Sb  Sb10  1  0.06472839  0.67091414  0.11084048  1
  Sb  Sb11  1  0.56472839  0.32908586  0.38915952  1
  Sb  Sb12  1  0.83488384  0.25195056  0.17529562  1
  Sb  Sb13  1  0.33488384  0.74804944  0.32470438  1
  Sb  Sb14  1  0.16511616  0.74804944  0.82470438  1
  Sb  Sb15  1  0.66511616  0.25195056  0.67529562  1
  Sb  Sb16  1  0.45999804  0.47648442  0.83695412  1
  Sb  Sb17  1  0.95999804  0.52351558  0.66304588  1
  Sb  Sb18  1  0.54000196  0.52351558  0.16304588  1
  Sb  Sb19  1  0.04000196  0.47648442  0.33695412  1
  Sb  Sb20  1  0.20924799  0.24720652  0.17939873  1
  Sb  Sb21  1  0.70924799  0.75279348  0.32060127  1
  Sb  Sb22  1  0.79075201  0.75279348  0.82060127  1
  Sb  Sb23  1  0.29075201  0.24720652  0.67939873  1
loop_
_geom_bond_atom_site_label_1
_geom_bond_atom_site_label_2
_geom_bond_distance
_geom_bond_site_symmetry_2
Rb0 Sb10 3.645432 1_656
Rb0 Sb6 3.679547 1_556
Rb0 Sb3 3.686605 1_656
Rb0 Sb22 3.719188 1_555
Rb0 Sb14 3.738674 1_655
Rb0 Sb1 3.914081 1_565
Rb1 Sb11 3.645432 1_555
Rb1 Sb7 3.679547 1_555
Rb1 Sb2 3.686605 1_555
Rb1 Sb23 3.719188 1_555
Rb1 Sb15 3.738674 1_555
Rb1 Sb0 3.914081 1_545
Rb2 Sb8 3.645432 1_454
Rb2 Sb4 3.679547 1_554
Rb2 Sb1 3.686605 1_454
Rb2 Sb20 3.719188 1_555
Rb2 Sb12 3.738674 1_455
Rb2 Sb3 3.914081 1_545
Rb3 Sb9 3.645432 1_555
Rb3 Sb5 3.679547 1_555
Rb3 Sb0 3.686605 1_555
Rb3 Sb21 3.719188 1_555
Rb3 Sb13 3.738674 1_555
Rb3 Sb2 3.914081 1_565
Rb4 Sb4 3.622015 1_554
Rb4 Sb18 3.752707 1_555
Rb4 Sb8 3.783715 1_554
Rb4 Sb12 3.786197 1_555
Rb4 Sb16 3.859349 1_554
Rb4 Sb20 4.094137 1_555
Rb5 Sb5 3.622015 1_455
Rb5 Sb19 3.752707 1_555
Rb5 Sb9 3.783715 1_555
Rb5 Sb13 3.786197 1_555
Rb5 Sb17 3.859349 1_455
Rb5 Sb21 4.094137 1_455
Rb6 Sb6 3.622015 1_556
Rb6 Sb16 3.752707 1_555
Rb6 Sb10 3.783715 1_556
Rb6 Sb14 3.786197 1_555
Rb6 Sb18 3.859349 1_556
Rb6 Sb22 4.094137 1_555
Rb7 Sb7 3.622015 1_655
Rb7 Sb17 3.752707 1_555
Rb7 Sb11 3.783715 1_555
Rb7 Sb15 3.786197 1_555
Rb7 Sb19 3.859349 1_655
Rb7 Sb23 4.094137 1_655
Rb8 Sb12 3.780992 1_555
Rb8 Sb6 3.805958 1_545
Rb8 Sb20 3.847605 1_555
Rb8 Sb2 3.867429 1_555
Rb8 Sb4 3.915133 1_554
Rb9 Sb13 3.780992 1_555
Rb9 Sb7 3.805958 1_565
Rb9 Sb21 3.847605 1_455
Rb9 Sb3 3.867429 1_555
Rb9 Sb5 3.915133 1_455
Rb10 Sb14 3.780992 1_555
Rb10 Sb4 3.805958 1_565
Rb10 Sb22 3.847605 1_555
Rb10 Sb0 3.867429 1_555
Rb10 Sb6 3.915133 1_556
Rb11 Sb15 3.780992 1_555
Rb11 Sb5 3.805958 1_545
Rb11 Sb23 3.847605 1_655
Rb11 Sb1 3.867429 1_555
Rb11 Sb7 3.915133 1_655
Rb12 Sb22 3.556311 1_555
Rb12 Sb8 3.585527 1_555
Rb12 Sb14 3.668166 1_655
Rb12 Sb16 4.074956 1_555
Rb12 Sb17 4.148236 1_555
Rb12 Sb16 4.284072 1_655
Rb13 Sb23 3.556311 1_555
Rb13 Sb9 3.585527 1_555
Rb13 Sb15 3.668166 1_555
Rb13 Sb17 4.074956 1_455
Rb13 Sb16 4.148236 1_555
Rb13 Sb17 4.284072 1_555
Rb14 Sb20 3.556311 1_555
Rb14 Sb10 3.585527 1_555
Rb14 Sb12 3.668166 1_455
Rb14 Sb18 4.074956 1_555
Rb14 Sb19 4.148236 1_555
Rb14 Sb18 4.284072 1_455
Rb15 Sb21 3.556311 1_555
Rb15 Sb11 3.585527 1_555
Rb15 Sb13 3.668166 1_555
Rb15 Sb19 4.074956 1_655
Rb15 Sb18 4.148236 1_555
Rb15 Sb19 4.284072 1_555
In0 Sb8 2.834699 1_455
In0 Sb23 2.871246 1_555
In0 Sb16 2.889741 1_555
In0 Sb4 2.992381 1_555
In0 Rb4 3.953712 1_556
In1 Sb9 2.834699 1_555
In1 Sb22 2.871246 1_555
In1 Sb17 2.889741 1_555
In1 Sb5 2.992381 1_555
In1 Rb5 3.953712 1_655
In2 Sb10 2.834699 1_655
In2 Sb21 2.871246 1_555
In2 Sb18 2.889741 1_555
In2 Sb6 2.992381 1_555
In2 Rb6 3.953712 1_554
In3 Sb11 2.834699 1_555
In3 Sb20 2.871246 1_555
In3 Sb19 2.889741 1_555
In3 Sb7 2.992381 1_555
In3 Rb7 3.953712 1_455
In4 Sb5 2.879444 1_555
In4 Sb0 2.880302 1_555
In4 Sb1 2.881973 1_565
In4 Sb22 2.896803 1_555
In4 Rb11 3.633833 1_565
In4 Rb10 3.729964 1_555
In5 Sb4 2.879444 1_555
In5 Sb1 2.880302 1_455
In5 Sb0 2.881973 1_545
In5 Sb23 2.896803 1_555
In5 Rb10 3.633833 1_545
In5 Rb11 3.729964 1_455
In6 Sb7 2.879444 1_555
In6 Sb2 2.880302 1_555
In6 Sb3 2.881973 1_545
In6 Sb20 2.896803 1_555
In6 Rb9 3.633833 1_545
In6 Rb8 3.729964 1_555
In7 Sb6 2.879444 1_555
In7 Sb3 2.880302 1_655
In7 Sb2 2.881973 1_565
In7 Sb21 2.896803 1_555
In7 Rb8 3.633833 1_565
In7 Rb9 3.729964 1_655
In8 Sb4 2.838110 1_555
In8 Sb1 2.879985 1_555
In8 Sb15 2.902029 1_555
In8 Sb8 2.918331 1_555
In8 Rb2 3.863700 1_656
In9 Sb5 2.838110 1_455
In9 Sb0 2.879985 1_555
In9 Sb14 2.902029 1_555
In9 Sb9 2.918331 1_555
In9 Rb3 3.863700 1_555
In10 Sb6 2.838110 1_555
In10 Sb3 2.879985 1_555
In10 Sb13 2.902029 1_555
In10 Sb10 2.918331 1_555
In10 Rb0 3.863700 1_454
In11 Sb7 2.838110 1_655
In11 Sb2 2.879985 1_555
In11 Sb12 2.902029 1_555
In11 Sb11 2.918331 1_555
In11 Rb1 3.863700 1_555
In12 Sb8 2.897487 1_555
In12 Sb16 2.898125 1_555
In12 Sb17 2.917586 1_555
In12 Sb15 2.950073 1_555
In12 Rb12 3.679164 1_555
In12 Rb13 3.705217 1_555
In13 Sb9 2.897487 1_555
In13 Sb17 2.898125 1_455
In13 Sb16 2.917586 1_555
In13 Sb14 2.950073 1_555
In13 Rb13 3.679164 1_555
In13 Rb12 3.705217 1_455
In14 Sb10 2.897487 1_555
In14 Sb18 2.898125 1_555
In14 Sb19 2.917586 1_555
In14 Sb13 2.950073 1_555
In14 Rb14 3.679164 1_555
In14 Rb15 3.705217 1_555
In15 Sb11 2.897487 1_555
In15 Sb19 2.898125 1_655
In15 Sb18 2.917586 1_555
In15 Sb12 2.950073 1_555
In15 Rb15 3.679164 1_555
In15 Rb14 3.705217 1_655
Sb12 Sb20 2.874570 1_655
Sb13 Sb21 2.874570 1_555
Sb14 Sb22 2.874570 1_455
Sb15 Sb23 2.874570 1_555
