# generated using pymatgen
data_Na14Sc4Al4Si7S5O48
_symmetry_space_group_name_H-M   'P 1'
_cell_length_a   17.93343464
_cell_length_b   8.94496366
_cell_length_c   22.06352562
_cell_angle_alpha   89.92151414
_cell_angle_beta   90.14091534
_cell_angle_gamma   120.01781413
_symmetry_Int_Tables_number   1
_chemical_formula_structural   Na14Sc4Al4Si7S5O48
_chemical_formula_sum   'Na42 Sc12 Al12 Si21 S15 O144'
_cell_volume   3064.56115140
_cell_formula_units_Z   3
loop_
 _symmetry_equiv_pos_site_id
 _symmetry_equiv_pos_as_xyz
  1  'x, y, z'
loop_
 _atom_site_type_symbol
 _atom_site_label
 _atom_site_symmetry_multiplicity
 _atom_site_fract_x
 _atom_site_fract_y
 _atom_site_fract_z
 _atom_site_occupancy
  Na  Na0  1  0.81277815  0.98990998  0.23854771  1
  Na  Na1  1  0.18584686  0.36635005  0.25922346  1
  Na  Na2  1  0.68696160  0.36455903  0.25509931  1
  Na  Na3  1  0.99607682  0.64290525  0.23895273  1
  Na  Na4  1  0.50391084  0.65145470  0.24405300  1
  Na  Na5  1  0.31339587  0.63865033  0.75252715  1
  Na  Na6  1  0.00273942  0.35318594  0.74898942  1
  Na  Na7  1  0.49741591  0.35072491  0.74691737  1
  Na  Na8  1  0.18402470  0.00617785  0.76097338  1
  Na  Na9  1  0.68726133  0.00645487  0.76288775  1
  Na  Na10  1  0.14174342  0.33312643  0.58390783  1
  Na  Na11  1  0.63986595  0.33334029  0.58581125  1
  Na  Na12  1  0.33645132  0.97044777  0.57911708  1
  Na  Na13  1  0.83733815  0.97509119  0.58118213  1
  Na  Na14  1  0.13750614  0.94500507  0.08764685  1
  Na  Na15  1  0.65013837  0.95753519  0.08638570  1
  Na  Na16  1  0.33728045  0.70011835  0.08120466  1
  Na  Na17  1  0.83684828  0.71743772  0.07857163  1
  Na  Na18  1  0.48957105  0.68297258  0.92631738  1
  Na  Na19  1  0.98645119  0.67720555  0.92854033  1
  Na  Na20  1  0.34224350  0.01426812  0.91386414  1
  Na  Na21  1  0.84114764  0.01887911  0.92155950  1
  Na  Na22  1  0.16924539  0.30259440  0.90807837  1
  Na  Na23  1  0.67369518  0.31414793  0.90897401  1
  Na  Na24  1  0.48833696  0.29786689  0.42111927  1
  Na  Na25  1  0.98704310  0.29196991  0.42128608  1
  Na  Na26  1  0.17061705  0.02974461  0.40217552  1
  Na  Na27  1  0.67004366  0.03557757  0.40404435  1
  Na  Na28  1  0.34209158  0.66742025  0.40658328  1
  Na  Na29  1  0.84236333  0.67006252  0.40910297  1
  Na  Na30  1  0.99754372  0.00619348  0.49490342  1
  Na  Na31  1  0.49917506  0.00955184  0.49494173  1
  Na  Na32  1  0.99024398  0.98989272  0.00051302  1
  Na  Na33  1  0.50153484  0.99207807  0.99652307  1
  Na  Na34  1  0.32666531  0.32661910  0.83478591  1
  Na  Na35  1  0.82337791  0.33581893  0.83671675  1
  Na  Na36  1  0.32440063  0.31168712  0.33259383  1
  Na  Na37  1  0.82665959  0.32623453  0.33003826  1
  Na  Na38  1  0.16528737  0.68014870  0.17083646  1
  Na  Na39  1  0.66443296  0.67488580  0.16483426  1
  Na  Na40  1  0.15582717  0.65236946  0.67068028  1
  Na  Na41  1  0.66771422  0.65304607  0.67241198  1
  Sc  Sc0  1  0.99952661  0.01809232  0.64863044  1
  Sc  Sc1  1  0.49442551  0.01094959  0.64822566  1
  Sc  Sc2  1  0.99061623  0.98205073  0.14486280  1
  Sc  Sc3  1  0.50098642  0.98049206  0.14840038  1
  Sc  Sc4  1  0.83670840  0.33315446  0.69209937  1
  Sc  Sc5  1  0.33597856  0.33868099  0.19158182  1
  Sc  Sc6  1  0.16291237  0.67280482  0.01617997  1
  Sc  Sc7  1  0.67268670  0.69339928  0.01915385  1
  Sc  Sc8  1  0.16684759  0.65453330  0.51503373  1
  Sc  Sc9  1  0.66400814  0.65353194  0.51612288  1
  Sc  Sc10  1  0.17931553  0.68605439  0.31471337  1
  Sc  Sc11  1  0.68078434  0.67233855  0.81670294  1
  Al  Al0  1  0.99833858  0.99683752  0.35009991  1
  Al  Al1  1  0.50311000  0.00704230  0.35006228  1
  Al  Al2  1  0.00358763  0.00020888  0.85060296  1
  Al  Al3  1  0.49903544  0.00405891  0.85173083  1
  Al  Al4  1  0.33419918  0.32479676  0.69057581  1
  Al  Al5  1  0.83258745  0.33339394  0.18572127  1
  Al  Al6  1  0.33138722  0.34231859  0.97705082  1
  Al  Al7  1  0.83185075  0.33416693  0.98312577  1
  Al  Al8  1  0.33260138  0.32202753  0.47978883  1
  Al  Al9  1  0.83180350  0.32114200  0.47672114  1
  Al  Al10  1  0.68434203  0.68513416  0.31588372  1
  Al  Al11  1  0.18167955  0.67909229  0.81708404  1
  Si  Si0  1  0.14183585  0.99718208  0.25062588  1
  Si  Si1  1  0.64926210  0.99492552  0.25338068  1
  Si  Si2  1  0.35598247  0.71359191  0.25185288  1
  Si  Si3  1  0.85220248  0.70068317  0.25223481  1
  Si  Si4  1  0.15039244  0.30348953  0.75051495  1
  Si  Si5  1  0.64346751  0.29084221  0.75150901  1
  Si  Si6  1  0.35097530  0.99883004  0.75234533  1
  Si  Si7  1  0.85602635  0.99725413  0.75182744  1
  Si  Si8  1  0.47421716  0.34420576  0.58500117  1
  Si  Si9  1  0.97883992  0.34292276  0.58076059  1
  Si  Si10  1  0.47788899  0.61450983  0.08052796  1
  Si  Si11  1  0.97507231  0.60558989  0.08465843  1
  Si  Si12  1  0.83771952  0.06361505  0.08281978  1
  Si  Si13  1  0.31760803  0.66990526  0.91620113  1
  Si  Si14  1  0.82270442  0.66765952  0.91943744  1
  Si  Si15  1  0.16638230  0.96602985  0.91473390  1
  Si  Si16  1  0.66519457  0.97591856  0.91524635  1
  Si  Si17  1  0.32160598  0.97152391  0.42027868  1
  Si  Si18  1  0.81736961  0.96457862  0.41682883  1
  Si  Si19  1  0.16694460  0.35591312  0.41702053  1
  Si  Si20  1  0.66659567  0.36690250  0.41547331  1
  S  S0  1  0.99769590  0.28716126  0.25283788  1
  S  S1  1  0.50312998  0.29124331  0.25408288  1
  S  S2  1  0.00318224  0.71498889  0.75337649  1
  S  S3  1  0.49560307  0.70517190  0.74999870  1
  S  S4  1  0.19212453  0.04939037  0.58455364  1
  S  S5  1  0.68797169  0.04436754  0.58018825  1
  S  S6  1  0.33545558  0.61173730  0.58346634  1
  S  S7  1  0.83547228  0.61937406  0.57958534  1
  S  S8  1  0.33531617  0.05165446  0.07942631  1
  S  S9  1  0.18990788  0.33362757  0.07986701  1
  S  S10  1  0.69035886  0.33445919  0.08429812  1
  S  S11  1  0.02212209  0.37405780  0.91120235  1
  S  S12  1  0.51575346  0.36768189  0.91716256  1
  S  S13  1  0.01486404  0.66276517  0.41738246  1
  S  S14  1  0.51789441  0.66599983  0.41503983  1
  O  O0  1  0.09291487  0.02364356  0.30951428  1
  O  O1  1  0.60027711  0.03036549  0.30958416  1
  O  O2  1  0.41767282  0.81904145  0.30916174  1
  O  O3  1  0.91511804  0.79682744  0.31085940  1
  O  O4  1  0.49428850  0.19074462  0.30984457  1
  O  O5  1  0.98692832  0.18162970  0.30820614  1
  O  O6  1  0.10442489  0.16863603  0.80664405  1
  O  O7  1  0.59221446  0.16225812  0.80817554  1
  O  O8  1  0.48287809  0.78537800  0.80486298  1
  O  O9  1  0.99586963  0.79970678  0.80858316  1
  O  O10  1  0.41610734  0.03124985  0.80894802  1
  O  O11  1  0.92143500  0.02060049  0.80686279  1
  O  O12  1  0.38724216  0.95614474  0.68992465  1
  O  O13  1  0.89459420  0.97628532  0.68681914  1
  O  O14  1  0.09287291  0.22608219  0.68811995  1
  O  O15  1  0.58986504  0.20562937  0.68767970  1
  O  O16  1  0.01588265  0.82055405  0.69859090  1
  O  O17  1  0.50859119  0.81124010  0.69555950  1
  O  O18  1  0.39557343  0.81501378  0.18793523  1
  O  O19  1  0.88872129  0.82099897  0.19170454  1
  O  O20  1  0.01181717  0.20940441  0.19877185  1
  O  O21  1  0.51555659  0.20974972  0.19990211  1
  O  O22  1  0.08955557  0.98010593  0.18770216  1
  O  O23  1  0.59076133  0.95567315  0.19138152  1
  O  O24  1  0.42434449  0.34762998  0.64674862  1
  O  O25  1  0.93491036  0.35196657  0.64409938  1
  O  O26  1  0.24197043  0.13715311  0.64020809  1
  O  O27  1  0.73754943  0.12700296  0.63609267  1
  O  O28  1  0.32634348  0.51028159  0.63886226  1
  O  O29  1  0.82452239  0.51575615  0.63416285  1
  O  O30  1  0.43244403  0.51789646  0.14411844  1
  O  O31  1  0.92660676  0.50469454  0.14707548  1
  O  O32  1  0.32425386  0.13310027  0.13407305  1
  O  O33  1  0.82194369  0.14874837  0.14437714  1
  O  O34  1  0.24045234  0.35289294  0.13570937  1
  O  O35  1  0.74021728  0.35096013  0.14053346  1
  O  O36  1  0.23291801  0.31176570  0.02506801  1
  O  O37  1  0.73133184  0.31248037  0.02920168  1
  O  O38  1  0.41434668  0.51305944  0.02259470  1
  O  O39  1  0.91897044  0.51401970  0.02381526  1
  O  O40  1  0.33666469  0.14497225  0.02345260  1
  O  O41  1  0.83840777  0.16172423  0.02019896  1
  O  O42  1  0.23341377  0.15416564  0.52940773  1
  O  O43  1  0.73112332  0.15324559  0.52564818  1
  O  O44  1  0.33726779  0.52322084  0.52759629  1
  O  O45  1  0.83695472  0.52967902  0.52364933  1
  O  O46  1  0.41636708  0.32612429  0.52523205  1
  O  O47  1  0.91622866  0.32050238  0.52275750  1
  O  O48  1  0.27594788  0.70749519  0.97649641  1
  O  O49  1  0.78076169  0.71023784  0.97825019  1
  O  O50  1  0.07535748  0.45298334  0.96610345  1
  O  O51  1  0.57286628  0.45293076  0.96910636  1
  O  O52  1  0.14312847  0.84482363  0.97556285  1
  O  O53  1  0.64205891  0.84727472  0.97410293  1
  O  O54  1  0.28129144  0.85128689  0.48166797  1
  O  O55  1  0.77647732  0.84558117  0.47808464  1
  O  O56  1  0.14514758  0.43995793  0.47661112  1
  O  O57  1  0.64289855  0.43856923  0.47715846  1
  O  O58  1  0.07192517  0.69097738  0.47014278  1
  O  O59  1  0.57274226  0.69326718  0.46906344  1
  O  O60  1  0.05041638  0.62758010  0.36256422  1
  O  O61  1  0.55583117  0.63276293  0.36109747  1
  O  O62  1  0.25024481  0.88308115  0.36668964  1
  O  O63  1  0.75088707  0.87237827  0.36056426  1
  O  O64  1  0.18821145  0.48585634  0.35986963  1
  O  O65  1  0.68306771  0.50411616  0.36051243  1
  O  O66  1  0.06515827  0.48508456  0.85751781  1
  O  O67  1  0.55032952  0.47095306  0.86105131  1
  O  O68  1  0.18395313  0.86494093  0.85892341  1
  O  O69  1  0.68298866  0.88387811  0.85752940  1
  O  O70  1  0.25258770  0.62925420  0.85845627  1
  O  O71  1  0.75333564  0.61210334  0.86384144  1
  O  O72  1  0.00702902  0.81998432  0.41340395  1
  O  O73  1  0.51069479  0.82435379  0.41060131  1
  O  O74  1  0.41606116  0.98787009  0.40822395  1
  O  O75  1  0.91379722  0.98588733  0.40587413  1
  O  O76  1  0.08112096  0.16441032  0.40900065  1
  O  O77  1  0.58281107  0.17286752  0.40640454  1
  O  O78  1  0.01417794  0.20017297  0.90680060  1
  O  O79  1  0.50631615  0.19235756  0.91252216  1
  O  O80  1  0.08354806  0.99396108  0.90520111  1
  O  O81  1  0.57904885  0.99571080  0.90728889  1
  O  O82  1  0.41364217  0.84205521  0.90525772  1
  O  O83  1  0.91668818  0.84332099  0.90716136  1
  O  O84  1  0.48247100  0.16291368  0.58327429  1
  O  O85  1  0.98820954  0.16412021  0.57898039  1
  O  O86  1  0.10477016  0.02757317  0.58679793  1
  O  O87  1  0.60068893  0.02416426  0.58194964  1
  O  O88  1  0.41328615  0.78538884  0.58432270  1
  O  O89  1  0.91412425  0.79207304  0.58148501  1
  O  O90  1  0.48748427  0.81275753  0.07943704  1
  O  O91  1  0.98597494  0.80393534  0.08372688  1
  O  O92  1  0.41403059  0.03723025  0.08142379  1
  O  O93  1  0.92198166  0.03700513  0.08374301  1
  O  O94  1  0.10378156  0.17934807  0.08200133  1
  O  O95  1  0.60356140  0.17725573  0.08743407  1
  O  O96  1  0.34115250  0.17373075  0.74651869  1
  O  O97  1  0.84991366  0.17620183  0.75225639  1
  O  O98  1  0.24805029  0.32727049  0.74053142  1
  O  O99  1  0.73838567  0.30670524  0.74809117  1
  O  O100  1  0.41462314  0.53155448  0.74491436  1
  O  O101  1  0.92471618  0.54207435  0.75040643  1
  O  O102  1  0.35051056  0.52337256  0.25304462  1
  O  O103  1  0.84153362  0.50564183  0.24508102  1
  O  O104  1  0.42468708  0.30718826  0.25080626  1
  O  O105  1  0.91804977  0.29998239  0.24926664  1
  O  O106  1  0.23846821  0.17042728  0.24893698  1
  O  O107  1  0.74512208  0.16914413  0.24540435  1
  O  O108  1  0.32692755  0.49433166  0.92149505  1
  O  O109  1  0.83364945  0.49670545  0.92750705  1
  O  O110  1  0.42702289  0.34241657  0.92452307  1
  O  O111  1  0.93554726  0.35384593  0.91567444  1
  O  O112  1  0.25540083  0.15696627  0.92404553  1
  O  O113  1  0.75210345  0.16700057  0.92468458  1
  O  O114  1  0.33338815  0.16600388  0.42570706  1
  O  O115  1  0.82698107  0.15919950  0.42216886  1
  O  O116  1  0.25506969  0.34328193  0.42921224  1
  O  O117  1  0.75533676  0.35399612  0.42440167  1
  O  O118  1  0.42936130  0.51513784  0.42275468  1
  O  O119  1  0.92656163  0.51107976  0.42514030  1
  O  O120  1  0.18515875  0.49392660  0.07543765  1
  O  O121  1  0.68350146  0.49152652  0.08027770  1
  O  O122  1  0.07535929  0.63871947  0.08318397  1
  O  O123  1  0.57446363  0.64151361  0.07898748  1
  O  O124  1  0.25742559  0.87172175  0.07890660  1
  O  O125  1  0.75053594  0.86246915  0.08291302  1
  O  O126  1  0.18761355  0.87986642  0.58147789  1
  O  O127  1  0.68305346  0.87448290  0.57606277  1
  O  O128  1  0.25732715  0.63340528  0.58316335  1
  O  O129  1  0.75757648  0.64325762  0.57927688  1
  O  O130  1  0.07793871  0.50968999  0.57941243  1
  O  O131  1  0.57420883  0.50782486  0.58353324  1
  O  O132  1  0.14294228  0.81502479  0.25615666  1
  O  O133  1  0.65531721  0.81675320  0.26304120  1
  O  O134  1  0.25621417  0.67338564  0.25216217  1
  O  O135  1  0.75477031  0.67586849  0.25883360  1
  O  O136  1  0.07323528  0.46326951  0.25908657  1
  O  O137  1  0.57980979  0.46869552  0.25904819  1
  O  O138  1  0.15676369  0.49313590  0.76032013  1
  O  O139  1  0.64420496  0.47356649  0.75561467  1
  O  O140  1  0.07973058  0.69001052  0.75769736  1
  O  O141  1  0.56998382  0.67789518  0.75556278  1
  O  O142  1  0.25372325  0.83005003  0.75865879  1
  O  O143  1  0.75656174  0.83818594  0.75265017  1
loop_
_geom_bond_atom_site_label_1
_geom_bond_atom_site_label_2
_geom_bond_distance
_geom_bond_site_symmetry_2
Na0 O107 2.452187 1_565
Na0 O105 2.464425 1_565
Na0 O33 2.474391 1_565
Na0 O135 2.499705 1_555
Na0 O133 2.508808 1_555
Na0 O19 2.697383 1_555
Na0 O63 2.902432 1_555
Na1 O106 2.381225 1_555
Na1 O134 2.385731 1_555
Na1 O64 2.456890 1_555
Na1 O102 2.561850 1_555
Na1 O136 2.565488 1_555
Na1 O0 2.879946 1_555
Na1 O34 2.920940 1_555
Na2 O103 2.414047 1_555
Na2 O135 2.419068 1_555
Na2 O107 2.452620 1_555
Na2 O137 2.521864 1_555
Na2 O65 2.658658 1_555
Na2 O35 2.728605 1_555
Na2 O1 2.854417 1_555
Na2 O21 2.928613 1_555
Na3 O132 2.321823 1_655
Na3 O31 2.375542 1_555
Na3 O103 2.409076 1_555
Na3 O136 2.629362 1_655
Na3 O105 2.669092 1_555
Na3 O22 2.850881 1_655
Na3 O60 2.919964 1_655
Na3 O3 2.921981 1_555
Na4 O133 2.390287 1_555
Na4 O102 2.401772 1_555
Na4 O30 2.528404 1_555
Na4 O137 2.618637 1_555
Na4 O23 2.634586 1_555
Na4 O104 2.673209 1_555
Na4 O61 2.776064 1_555
Na5 O142 2.434979 1_555
Na5 O98 2.436364 1_555
Na5 O138 2.440819 1_555
Na5 O100 2.446088 1_555
Na5 O70 2.564939 1_555
Na5 O28 2.817662 1_555
Na5 O12 2.821751 1_555
Na5 O8 2.879149 1_555
Na6 O97 2.383764 1_455
Na6 O138 2.407706 1_555
Na6 O25 2.609299 1_455
Na6 O140 2.618943 1_555
Na6 O66 2.655541 1_555
Na6 O101 2.679425 1_455
Na6 O14 2.750023 1_555
Na6 O11 2.874985 1_455
Na7 O139 2.297367 1_555
Na7 O96 2.433223 1_555
Na7 O141 2.546421 1_555
Na7 O24 2.559693 1_555
Na7 O100 2.687974 1_555
Na7 O67 2.715317 1_555
Na7 O10 2.827654 1_555
Na7 O15 2.882653 1_555
Na8 O142 2.453125 1_545
Na8 O96 2.462882 1_555
Na8 O140 2.491810 1_545
Na8 O68 2.501488 1_545
Na8 O98 2.543719 1_555
Na8 O6 2.692857 1_555
Na8 O26 2.887733 1_555
Na8 O16 2.952999 1_545
Na9 O69 2.340683 1_545
Na9 O99 2.386562 1_555
Na9 O143 2.394783 1_545
Na9 O97 2.537698 1_555
Na9 O141 2.627185 1_545
Na9 O7 2.869677 1_555
Na9 O27 2.972117 1_555
Na10 O130 2.370785 1_555
Na10 O85 2.390118 1_455
Na10 O128 2.437383 1_555
Na10 O86 2.469899 1_555
Na10 O14 2.477075 1_555
Na10 O56 2.541135 1_555
Na11 O131 2.379729 1_555
Na11 O84 2.447144 1_555
Na11 O15 2.477628 1_555
Na11 O87 2.491088 1_555
Na11 O129 2.511427 1_555
Na11 O57 2.564968 1_555
Na12 O84 2.306111 1_565
Na12 O126 2.370740 1_555
Na12 O54 2.382922 1_555
Na12 O128 2.613482 1_555
Na12 O12 2.632088 1_555
Na12 O88 2.633031 1_555
Na13 O85 2.367480 1_565
Na13 O127 2.446535 1_555
Na13 O55 2.537213 1_555
Na13 O13 2.542445 1_555
Na13 O129 2.571040 1_555
Na13 O89 2.613775 1_555
Na14 O91 2.356409 1_455
Na14 O122 2.388091 1_555
Na14 O22 2.448018 1_555
Na14 O94 2.458185 1_565
Na14 O124 2.550433 1_555
Na14 O52 2.650749 1_554
Na15 O125 2.345938 1_555
Na15 O123 2.453778 1_555
Na15 O95 2.490737 1_565
Na15 O90 2.535342 1_555
Na15 O23 2.548522 1_555
Na15 O53 2.644421 1_554
Na16 O90 2.357430 1_555
Na16 O120 2.413483 1_555
Na16 O124 2.570682 1_555
Na16 O48 2.571190 1_554
Na16 O18 2.571765 1_555
Na16 O92 2.614338 1_565
Na17 O91 2.385828 1_555
Na17 O49 2.416567 1_554
Na17 O121 2.467334 1_555
Na17 O125 2.469474 1_555
Na17 O93 2.479628 1_565
Na17 O19 2.662101 1_555
Na18 O82 2.455338 1_555
Na18 O81 2.466894 1_555
Na18 O108 2.537850 1_555
Na18 O38 2.568264 1_556
Na18 O53 2.592030 1_555
Na18 O110 2.668476 1_555
Na18 O8 2.852375 1_555
Na18 O67 2.990041 1_555
Na19 O109 2.385257 1_555
Na19 O83 2.418839 1_555
Na19 O39 2.500142 1_556
Na19 O80 2.527699 1_655
Na19 O111 2.576672 1_555
Na19 O52 2.644620 1_655
Na19 O9 2.836057 1_555
Na20 O82 2.454376 1_545
Na20 O112 2.469142 1_555
Na20 O79 2.550827 1_555
Na20 O110 2.552979 1_555
Na20 O10 2.636079 1_555
Na20 O40 2.710932 1_556
Na20 O68 2.739612 1_545
Na20 O48 2.754367 1_545
Na21 O113 2.535330 1_555
Na21 O41 2.538196 1_556
Na21 O83 2.556201 1_545
Na21 O111 2.604859 1_555
Na21 O78 2.708017 1_655
Na21 O49 2.713857 1_545
Na21 O69 2.838462 1_545
Na21 O11 2.910839 1_555
Na22 O80 2.396329 1_545
Na22 O78 2.454400 1_555
Na22 O108 2.484003 1_555
Na22 O112 2.493592 1_555
Na22 O6 2.529157 1_555
Na22 O70 2.756832 1_555
Na22 O36 2.804561 1_556
Na22 O50 2.926624 1_555
Na23 O113 2.382844 1_555
Na23 O81 2.481619 1_545
Na23 O71 2.515129 1_555
Na23 O109 2.524197 1_555
Na23 O79 2.632894 1_555
Na23 O7 2.633075 1_555
Na23 O37 2.847273 1_556
Na23 O51 2.972065 1_555
Na24 O114 2.417588 1_555
Na24 O74 2.419564 1_545
Na24 O77 2.474900 1_555
Na24 O118 2.637043 1_555
Na24 O4 2.658418 1_555
Na24 O57 2.700504 1_555
Na24 O46 2.710892 1_555
Na24 O61 2.926052 1_555
Na25 O75 2.395658 1_545
Na25 O76 2.480124 1_655
Na25 O115 2.497945 1_555
Na25 O47 2.651424 1_555
Na25 O119 2.674486 1_555
Na25 O5 2.683948 1_555
Na25 O56 2.741106 1_655
Na25 O60 2.926657 1_655
Na26 O76 2.446563 1_555
Na26 O0 2.456551 1_555
Na26 O62 2.501195 1_545
Na26 O116 2.503107 1_555
Na26 O72 2.585206 1_545
Na26 O114 2.590457 1_555
Na27 O1 2.416653 1_555
Na27 O77 2.425049 1_555
Na27 O115 2.487069 1_555
Na27 O117 2.508985 1_555
Na27 O73 2.521138 1_545
Na27 O63 2.698430 1_545
Na27 O43 2.888935 1_555
Na28 O74 2.484538 1_555
Na28 O2 2.542409 1_555
Na28 O118 2.561458 1_555
Na28 O116 2.562014 1_555
Na28 O64 2.611833 1_555
Na28 O73 2.621650 1_555
Na28 O54 2.906696 1_555
Na28 O44 2.946190 1_555
Na29 O75 2.450704 1_555
Na29 O117 2.475475 1_555
Na29 O3 2.492691 1_555
Na29 O72 2.562117 1_655
Na29 O119 2.563594 1_555
Na29 O65 2.694463 1_555
Na29 O45 2.800737 1_555
Na29 O55 2.837056 1_555
Na30 O85 2.389572 1_555
Na30 O76 2.392886 1_655
Na30 O75 2.420864 1_545
Na30 O72 2.515922 1_645
Na30 O89 2.587048 1_545
Na30 O86 2.731123 1_655
Na31 O74 2.370176 1_545
Na31 O77 2.452342 1_555
Na31 O84 2.488232 1_555
Na31 O73 2.569528 1_545
Na31 O87 2.600374 1_555
Na31 O88 2.682539 1_545
Na32 O93 2.361720 1_565
Na32 O83 2.442304 1_554
Na32 O91 2.451219 1_555
Na32 O94 2.605405 1_665
Na32 O80 2.679471 1_654
Na32 O78 2.680152 1_664
Na33 O90 2.360679 1_556
Na33 O81 2.403697 1_555
Na33 O82 2.493083 1_555
Na33 O79 2.547493 1_565
Na33 O92 2.604852 1_566
Na33 O95 2.659596 1_566
Na34 O112 2.424546 1_555
Na34 O108 2.431320 1_555
Na34 O96 2.468959 1_555
Na34 O98 2.511199 1_555
Na34 O100 2.625390 1_555
Na34 O110 2.628298 1_555
Na35 O113 2.398768 1_555
Na35 O99 2.409183 1_555
Na35 O109 2.420430 1_555
Na35 O97 2.535557 1_555
Na35 O111 2.601213 1_555
Na35 O101 2.643039 1_555
Na36 O106 2.328613 1_555
Na36 O102 2.448061 1_555
Na36 O114 2.479092 1_555
Na36 O116 2.556631 1_555
Na36 O104 2.565351 1_555
Na36 O118 2.715928 1_555
Na37 O107 2.353191 1_555
Na37 O103 2.392910 1_555
Na37 O105 2.513514 1_555
Na37 O115 2.522826 1_555
Na37 O117 2.522828 1_555
Na37 O119 2.715434 1_555
Na38 O132 2.377699 1_555
Na38 O122 2.422170 1_555
Na38 O134 2.442591 1_555
Na38 O124 2.637172 1_555
Na38 O136 2.661037 1_555
Na38 O120 2.817671 1_555
Na39 O123 2.405105 1_555
Na39 O125 2.424831 1_555
Na39 O133 2.559083 1_555
Na39 O121 2.619202 1_555
Na39 O135 2.625879 1_555
Na39 O137 2.688908 1_555
Na40 O130 2.417523 1_555
Na40 O138 2.440626 1_555
Na40 O140 2.477119 1_555
Na40 O142 2.564379 1_555
Na40 O126 2.678318 1_555
Na40 O128 2.719869 1_555
Na41 O139 2.333163 1_555
Na41 O143 2.401968 1_555
Na41 O131 2.481151 1_555
Na41 O141 2.625572 1_555
Na41 O129 2.642963 1_555
Na41 O127 2.822097 1_555
Al0 O0 1.826474 1_665
Al0 O3 1.871928 1_555
Al0 O75 1.919059 1_555
Al0 O76 1.977114 1_665
Al0 O5 1.990433 1_565
Al0 O72 2.171910 1_655
Al1 O2 1.846420 1_545
Al1 O1 1.876430 1_555
Al1 O77 1.914029 1_555
Al1 O4 1.941123 1_555
Al1 O74 1.963293 1_545
Al1 O73 2.165307 1_545
Al2 O11 1.842977 1_455
Al2 O80 1.892619 1_545
Al2 O6 1.938902 1_555
Al2 O83 1.942119 1_445
Al2 O9 1.962351 1_445
Al2 O78 2.106619 1_555
Al3 O7 1.832083 1_555
Al3 O10 1.875174 1_555
Al3 O82 1.903600 1_545
Al3 O81 1.914540 1_545
Al3 O8 2.101554 1_545
Al3 O79 2.106726 1_555
Al4 O24 1.807485 1_555
Al4 O96 1.878367 1_555
Al4 O98 1.909144 1_555
Al4 O26 2.001570 1_555
Al4 O100 2.065595 1_555
Al4 O28 2.074217 1_555
Al5 O33 1.812268 1_555
Al5 O31 1.826568 1_555
Al5 O103 1.967765 1_555
Al5 O35 2.003651 1_555
Al5 O107 2.012967 1_555
Al5 O105 2.202400 1_555
Al6 O38 1.810835 1_556
Al6 O108 1.860526 1_555
Al6 O112 1.926251 1_555
Al6 O36 1.959845 1_556
Al6 O110 2.071935 1_555
Al6 O40 2.082056 1_556
Al7 O41 1.799925 1_556
Al7 O39 1.821346 1_556
Al7 O109 1.889216 1_555
Al7 O113 1.949460 1_555
Al7 O37 1.994804 1_556
Al7 O111 2.321504 1_555
Al8 O46 1.789096 1_555
Al8 O114 1.842858 1_555
Al8 O116 1.863031 1_555
Al8 O42 1.987432 1_555
Al8 O44 2.052435 1_555
Al8 O118 2.141058 1_555
Al9 O47 1.823489 1_555
Al9 O115 1.852956 1_555
Al9 O117 1.921949 1_555
Al9 O43 1.993205 1_555
Al9 O119 2.045723 1_555
Al9 O45 2.095841 1_555
Al10 O63 1.788888 1_555
Al10 O135 1.816405 1_555
Al10 O65 1.884308 1_555
Al10 O133 1.903350 1_555
Al10 O137 2.280074 1_555
Al10 O61 2.335765 1_555
Al11 O70 1.791474 1_555
Al11 O142 1.847206 1_555
Al11 O68 1.885106 1_555
Al11 O138 1.947900 1_555
Al11 O66 2.133223 1_555
Al11 O140 2.288133 1_555
O0 Si0 1.651691 1_545
O1 Si1 1.641642 1_545
O2 Si2 1.632404 1_555
O3 Si3 1.646425 1_555
O4 S1 1.483987 1_555
O5 S0 1.495444 1_555
O6 Si4 1.635323 1_555
O7 Si5 1.635500 1_555
O8 S3 1.483123 1_555
O9 S2 1.475756 1_655
O10 Si6 1.631859 1_545
O11 Si7 1.625608 1_545
O12 Si6 1.649193 1_555
O12 Sc1 1.961160 1_565
O13 Si7 1.645064 1_555
O13 Sc0 1.921922 1_565
O14 Si4 1.649136 1_555
O14 Sc0 1.975835 1_455
O15 Si5 1.658772 1_555
O15 Sc1 1.932456 1_555
O16 S2 1.479082 1_555
O16 Sc0 2.221473 1_465
O17 S3 1.474539 1_555
O17 Sc1 2.189532 1_565
O18 Si2 1.634898 1_555
O18 Sc3 1.931426 1_555
O19 Si3 1.632760 1_555
O19 Sc2 1.963137 1_555
O20 S0 1.466584 1_455
O20 Sc2 2.219431 1_445
O21 S1 1.475230 1_555
O21 Sc3 2.243580 1_545
O22 Si0 1.637279 1_555
O22 Sc2 2.016058 1_455
O23 Si1 1.649496 1_555
O23 Sc3 1.972340 1_555
O24 Si8 1.640252 1_555
O25 Si9 1.627765 1_555
O25 Sc4 1.990866 1_555
O26 S4 1.489391 1_555
O27 S5 1.482505 1_555
O27 Sc4 2.191827 1_555
O28 S6 1.481115 1_555
O29 S7 1.470938 1_555
O29 Sc4 2.167879 1_555
O30 Si10 1.636200 1_555
O30 Sc5 1.972009 1_555
O31 Si11 1.638323 1_555
O32 S8 1.473776 1_555
O32 Sc5 2.157312 1_555
O33 Si12 1.650715 1_555
O34 S9 1.485982 1_555
O34 Sc5 2.162788 1_555
O35 S10 1.491214 1_555
O36 S9 1.500383 1_555
O37 S10 1.485222 1_555
O38 Si10 1.648401 1_555
O39 Si11 1.630050 1_555
O40 S8 1.483120 1_555
O41 Si12 1.632528 1_555
O42 S4 1.487952 1_555
O43 S5 1.497563 1_555
O44 S6 1.475164 1_555
O45 S7 1.480457 1_555
O46 Si8 1.633232 1_555
O47 Si9 1.645319 1_555
O48 Si13 1.642698 1_555
O48 Sc6 2.085836 1_556
O49 Si14 1.639335 1_555
O49 Sc7 2.075994 1_556
O50 S11 1.483045 1_555
O50 Sc6 2.112061 1_556
O51 S12 1.469409 1_555
O51 Sc7 2.279202 1_556
O52 Si15 1.642253 1_555
O52 Sc6 1.958942 1_556
O53 Si16 1.644224 1_555
O53 Sc7 1.983476 1_556
O54 Si17 1.654339 1_555
O54 Sc8 2.059482 1_555
O55 Si18 1.648431 1_555
O55 Sc9 2.064266 1_555
O56 Si19 1.657067 1_555
O56 Sc8 1.951814 1_555
O57 Si20 1.649747 1_555
O57 Sc9 1.963234 1_555
O58 S13 1.484075 1_555
O58 Sc8 2.128636 1_555
O59 S14 1.484156 1_555
O59 Sc9 2.110899 1_555
O60 S13 1.474454 1_555
O60 Sc10 2.352122 1_555
O61 S14 1.474806 1_555
O62 Si17 1.625962 1_555
O62 Sc10 1.947953 1_555
O63 Si18 1.629241 1_555
O64 Si19 1.625205 1_555
O64 Sc10 2.122519 1_555
O65 Si20 1.642893 1_555
O66 S11 1.489734 1_555
O67 S12 1.482574 1_555
O67 Sc11 2.337842 1_555
O68 Si15 1.650232 1_555
O69 Si16 1.633718 1_555
O69 Sc11 2.079203 1_555
O70 Si13 1.638541 1_555
O71 Si14 1.635487 1_555
O71 Sc11 1.938571 1_555
O72 S13 1.484079 1_555
O73 S14 1.488352 1_555
O74 Si17 1.647949 1_555
O75 Si18 1.660510 1_555
O76 Si19 1.641978 1_555
O77 Si20 1.643261 1_555
O78 S11 1.492519 1_555
O79 S12 1.494452 1_555
O80 Si15 1.637999 1_555
O81 Si16 1.649571 1_555
O82 Si13 1.656247 1_555
O83 Si14 1.653594 1_555
O84 Si8 1.701022 1_555
O84 Sc1 2.057199 1_555
O85 Si9 1.690235 1_555
O85 Sc0 2.089766 1_555
O86 S4 1.479570 1_555
O86 Sc0 2.298423 1_455
O87 S5 1.483753 1_555
O87 Sc1 2.360438 1_555
O88 S6 1.480546 1_555
O88 Sc1 2.288300 1_565
O89 S7 1.482371 1_555
O89 Sc0 2.350913 1_565
O90 Si10 1.693942 1_555
O90 Sc3 2.065406 1_555
O91 Si11 1.685008 1_555
O91 Sc2 2.058505 1_555
O92 S8 1.480935 1_555
O92 Sc3 2.377298 1_545
O93 Si12 1.643239 1_555
O93 Sc2 2.042187 1_545
O94 S9 1.469632 1_555
O94 Sc2 2.362298 1_445
O95 S10 1.488394 1_555
O95 Sc3 2.248839 1_545
O96 Si6 1.664403 1_545
O97 Si7 1.658281 1_545
O97 Sc4 2.028492 1_555
O98 Si4 1.670325 1_555
O99 Si5 1.637765 1_555
O99 Sc4 2.069723 1_555
O100 S3 1.508821 1_555
O101 S2 1.482870 1_655
O101 Sc4 2.164218 1_555
O102 Si2 1.654772 1_555
O102 Sc5 2.051783 1_555
O103 Si3 1.664904 1_555
O104 S1 1.484835 1_555
O104 Sc5 2.180544 1_555
O105 S0 1.490906 1_555
O106 Si0 1.648999 1_545
O106 Sc5 2.072881 1_555
O107 Si1 1.653815 1_545
O108 Si13 1.664352 1_555
O109 Si14 1.645602 1_555
O110 S12 1.500288 1_555
O111 S11 1.474040 1_655
O112 Si15 1.667051 1_545
O113 Si16 1.651651 1_545
O114 Si17 1.648615 1_545
O115 Si18 1.665676 1_545
O116 Si19 1.661091 1_555
O117 Si20 1.663434 1_555
O118 S14 1.492587 1_555
O119 S13 1.492938 1_655
O120 S9 1.481400 1_555
O120 Sc6 2.249252 1_555
O121 S10 1.472883 1_555
O121 Sc7 2.336561 1_555
O122 Si11 1.670464 1_455
O122 Sc6 2.067599 1_555
O123 Si10 1.625033 1_555
O123 Sc7 2.062224 1_555
O124 S8 1.514042 1_565
O124 Sc6 2.220788 1_555
O125 Si12 1.693277 1_565
O125 Sc7 2.024562 1_555
O126 S4 1.479220 1_565
O126 Sc8 2.367454 1_555
O127 S5 1.480379 1_565
O127 Sc9 2.258609 1_555
O128 S6 1.507442 1_555
O128 Sc8 2.285207 1_555
O129 S7 1.515149 1_555
O129 Sc9 2.215433 1_555
O130 Si9 1.652922 1_455
O130 Sc8 2.043934 1_555
O131 Si8 1.653150 1_555
O131 Sc9 2.100153 1_555
O132 Si0 1.643773 1_555
O132 Sc10 2.042116 1_555
O133 Si1 1.664139 1_555
O134 Si2 1.639153 1_555
O134 Sc10 1.996363 1_555
O135 Si3 1.654271 1_555
O136 S0 1.483308 1_455
O136 Sc10 2.301901 1_555
O137 S1 1.496105 1_555
O138 Si4 1.656658 1_555
O139 Si5 1.630527 1_555
O139 Sc11 2.059974 1_555
O140 S2 1.499901 1_555
O141 S3 1.476023 1_555
O141 Sc11 2.419904 1_555
O142 Si6 1.645170 1_555
O143 Si7 1.633188 1_555
O143 Sc11 2.007822 1_555
