# generated using pymatgen
data_MgMn3Cd2O8
_symmetry_space_group_name_H-M   'P 1'
_cell_length_a   5.28493346
_cell_length_b   6.23708003
_cell_length_c   5.81084254
_cell_angle_alpha   120.32547022
_cell_angle_beta   92.52465936
_cell_angle_gamma   87.34406088
_symmetry_Int_Tables_number   1
_chemical_formula_structural   MgMn3Cd2O8
_chemical_formula_sum   'Mg1 Mn3 Cd2 O8'
_cell_volume   165.10700437
_cell_formula_units_Z   1
loop_
 _symmetry_equiv_pos_site_id
 _symmetry_equiv_pos_as_xyz
  1  'x, y, z'
loop_
 _atom_site_type_symbol
 _atom_site_label
 _atom_site_symmetry_multiplicity
 _atom_site_fract_x
 _atom_site_fract_y
 _atom_site_fract_z
 _atom_site_occupancy
  Mg  Mg0  1  0.00000340  0.00000203  0.50002012  1
  Mn  Mn0  1  0.49994634  -0.00003013  -0.00004671  1
  Mn  Mn1  1  0.98261889  0.72064689  0.94628052  1
  Mn  Mn2  1  0.01741186  0.27928083  0.05361859  1
  Cd  Cd0  1  0.52374473  0.67862107  0.36950726  1
  Cd  Cd1  1  0.47624332  0.32139503  0.63051884  1
  O  O0  1  0.08221631  0.37503521  0.74583332  1
  O  O1  1  0.91776855  0.62497503  0.25415984  1
  O  O2  1  0.18348062  0.94987297  0.79557801  1
  O  O3  1  0.81656066  0.05015198  0.20447250  1
  O  O4  1  0.34952674  0.32038153  0.23931316  1
  O  O5  1  0.30667124  0.87386495  0.19550187  1
  O  O6  1  0.69333428  0.12614719  0.80452052  1
  O  O7  1  0.65047806  0.67965540  0.76072415  1
loop_
_geom_bond_atom_site_label_1
_geom_bond_atom_site_label_2
_geom_bond_distance
_geom_bond_site_symmetry_2
Mg0 O3 2.086816 1_455
Mg0 O2 2.086874 1_545
Mg0 O0 2.089509 1_555
Mg0 O1 2.089536 1_445
Mg0 O6 2.259475 1_455
Mg0 O5 2.259540 1_545
Mn0 O7 1.924131 1_544
Mn0 O4 1.924457 1_555
Mn0 O2 1.950382 1_544
Mn0 O3 1.951393 1_555
Mn0 O5 2.008078 1_545
Mn0 O6 2.008195 1_554
Mn1 O0 1.921927 1_655
Mn1 O7 1.976275 1_555
Mn1 O3 2.019892 1_566
Mn1 O5 2.116390 1_656
Mn1 O1 2.196631 1_556
Mn1 O2 2.329084 1_655
Mn2 O1 1.922429 1_455
Mn2 O4 1.976438 1_555
Mn2 O2 2.019320 1_544
Mn2 O6 2.116120 1_454
Mn2 O0 2.196413 1_554
Mn2 O3 2.329177 1_455
Cd0 O1 2.174736 1_555
Cd0 O5 2.198434 1_555
Cd0 O4 2.198818 1_555
Cd0 O7 2.338373 1_555
Cd1 O0 2.174702 1_555
Cd1 O6 2.198481 1_555
Cd1 O7 2.198958 1_555
Cd1 O4 2.338350 1_555
