# generated using pymatgen
data_BaPrO3
_symmetry_space_group_name_H-M   'P 1'
_cell_length_a   6.41045100
_cell_length_b   6.49693600
_cell_length_c   9.10700900
_cell_angle_alpha   90.00000000
_cell_angle_beta   90.00000000
_cell_angle_gamma   90.00000000
_symmetry_Int_Tables_number   1
_chemical_formula_structural   BaPrO3
_chemical_formula_sum   'Ba4 Pr4 O12'
_cell_volume   379.29135075
_cell_formula_units_Z   4
loop_
 _symmetry_equiv_pos_site_id
 _symmetry_equiv_pos_as_xyz
  1  'x, y, z'
loop_
 _atom_site_type_symbol
 _atom_site_label
 _atom_site_symmetry_multiplicity
 _atom_site_fract_x
 _atom_site_fract_y
 _atom_site_fract_z
 _atom_site_occupancy
  Ba  Ba0  1  0.98411000  0.03670800  0.25000000  1
  Ba  Ba1  1  0.48411000  0.46329200  0.75000000  1
  Ba  Ba2  1  0.51589000  0.53670800  0.25000000  1
  Ba  Ba3  1  0.01589000  0.96329200  0.75000000  1
  Pr  Pr0  1  0.50000000  0.00000000  0.00000000  1
  Pr  Pr1  1  0.00000000  0.50000000  0.00000000  1
  Pr  Pr2  1  0.00000000  0.50000000  0.50000000  1
  Pr  Pr3  1  0.50000000  0.00000000  0.50000000  1
  O  O0  1  0.71746800  0.28204600  0.44395400  1
  O  O1  1  0.21746800  0.21795400  0.55604600  1
  O  O2  1  0.78253200  0.78204600  0.05604600  1
  O  O3  1  0.28253200  0.71795400  0.94395400  1
  O  O4  1  0.28253200  0.71795400  0.55604600  1
  O  O5  1  0.78253200  0.78204600  0.44395400  1
  O  O6  1  0.21746800  0.21795400  0.94395400  1
  O  O7  1  0.71746800  0.28204600  0.05604600  1
  O  O8  1  0.09891700  0.46305300  0.25000000  1
  O  O9  1  0.59891700  0.03694700  0.75000000  1
  O  O10  1  0.40108300  0.96305300  0.25000000  1
  O  O11  1  0.90108300  0.53694700  0.75000000  1
loop_
_geom_bond_atom_site_label_1
_geom_bond_atom_site_label_2
_geom_bond_distance
_geom_bond_site_symmetry_2
Ba0 O10 2.715482 1_645
Ba0 O5 2.743575 1_545
Ba0 O2 2.743575 1_545
Ba0 O8 2.866041 1_655
Ba0 O0 2.929558 1_555
Ba0 O7 2.929558 1_555
Ba0 O1 3.375307 1_655
Ba0 O6 3.375307 1_654
Ba1 O11 2.715482 1_555
Ba1 O3 2.743575 1_555
Ba1 O4 2.743575 1_555
Ba1 O9 2.866041 1_555
Ba1 O6 2.929558 1_555
Ba1 O1 2.929558 1_555
Ba1 O7 3.375307 1_556
Ba1 O0 3.375307 1_555
Ba2 O8 2.715482 1_555
Ba2 O0 2.743575 1_555
Ba2 O7 2.743575 1_555
Ba2 O10 2.866041 1_555
Ba2 O5 2.929558 1_555
Ba2 O2 2.929558 1_555
Ba2 O4 3.375307 1_555
Ba2 O3 3.375307 1_554
Ba3 O9 2.715482 1_465
Ba3 O6 2.743575 1_565
Ba3 O1 2.743575 1_565
Ba3 O11 2.866041 1_455
Ba3 O3 2.929558 1_555
Ba3 O4 2.929558 1_555
Ba3 O2 3.375307 1_456
Ba3 O5 3.375307 1_455
O0 Pr2 2.354987 1_655
O0 Pr3 2.358339 1_555
O1 Pr3 2.354987 1_555
O1 Pr2 2.358339 1_555
O2 Pr0 2.354987 1_565
O2 Pr1 2.358339 1_655
O3 Pr1 2.354987 1_556
O3 Pr0 2.358339 1_566
O4 Pr2 2.354987 1_555
O4 Pr3 2.358339 1_565
O5 Pr3 2.354987 1_565
O5 Pr2 2.358339 1_655
O6 Pr0 2.354987 1_556
O6 Pr1 2.358339 1_556
O7 Pr1 2.354987 1_655
O7 Pr0 2.358339 1_555
O8 Pr1 2.375565 1_555
O8 Pr2 2.375565 1_555
O9 Pr0 2.375565 1_556
O9 Pr3 2.375565 1_555
O10 Pr3 2.375565 1_565
O10 Pr0 2.375565 1_565
O11 Pr1 2.375565 1_656
O11 Pr2 2.375565 1_655
