# generated using pymatgen
data_NaSc3Zn(SO4)6
_symmetry_space_group_name_H-M   'P 1'
_cell_length_a   8.80935274
_cell_length_b   8.80935245
_cell_length_c   22.88447636
_cell_angle_alpha   90.00000000
_cell_angle_beta   90.00000000
_cell_angle_gamma   120.00000109
_symmetry_Int_Tables_number   1
_chemical_formula_structural   NaSc3Zn(SO4)6
_chemical_formula_sum   'Na3 Sc9 Zn3 S18 O72'
_cell_volume   1538.01153408
_cell_formula_units_Z   3
loop_
 _symmetry_equiv_pos_site_id
 _symmetry_equiv_pos_as_xyz
  1  'x, y, z'
loop_
 _atom_site_type_symbol
 _atom_site_label
 _atom_site_symmetry_multiplicity
 _atom_site_fract_x
 _atom_site_fract_y
 _atom_site_fract_z
 _atom_site_occupancy
  Na  Na0  1  0.00000000  -0.00000000  0.99819465  1
  Na  Na1  1  0.66666700  0.33333300  0.83511160  1
  Na  Na2  1  0.66666700  0.33333300  0.33337968  1
  Sc  Sc0  1  0.00000000  -0.00000000  0.64597244  1
  Sc  Sc1  1  0.00000000  -0.00000000  0.14826128  1
  Sc  Sc2  1  0.66666700  0.33333300  0.68583594  1
  Sc  Sc3  1  0.66666700  0.33333300  0.18485817  1
  Sc  Sc4  1  0.66666700  0.33333300  0.48081264  1
  Sc  Sc5  1  0.33333300  0.66666700  0.02058366  1
  Sc  Sc6  1  0.33333300  0.66666700  0.52039851  1
  Sc  Sc7  1  0.33333300  0.66666700  0.31202877  1
  Sc  Sc8  1  0.33333300  0.66666700  0.81257484  1
  Zn  Zn0  1  0.00000000  -0.00000000  0.35348825  1
  Zn  Zn1  1  0.00000000  -0.00000000  0.85090006  1
  Zn  Zn2  1  0.66666700  0.33333300  0.98224920  1
  S  S0  1  0.28915678  0.00016534  0.25109588  1
  S  S1  1  0.71100856  0.71084322  0.25109588  1
  S  S2  1  -0.00016534  0.28899144  0.25109588  1
  S  S3  1  0.28863055  0.28875413  0.75083565  1
  S  S4  1  0.00012358  0.71136945  0.75083565  1
  S  S5  1  0.71124587  -0.00012358  0.75083565  1
  S  S6  1  0.95748389  0.33335066  0.58331909  1
  S  S7  1  0.37586777  0.04251611  0.58331909  1
  S  S8  1  0.66664934  0.62413223  0.58331909  1
  S  S9  1  0.95595863  0.62269037  0.08229030  1
  S  S10  1  0.66673274  0.04404137  0.08229030  1
  S  S11  1  0.37730963  0.33326726  0.08229030  1
  S  S12  1  0.62628131  0.66669409  0.91665744  1
  S  S13  1  0.04041178  0.37371869  0.91665744  1
  S  S14  1  0.33330591  0.95958822  0.91665744  1
  S  S15  1  0.62649190  0.95646768  0.41623421  1
  S  S16  1  0.32997479  0.37350810  0.41623421  1
  S  S17  1  0.04353232  0.67002521  0.41623421  1
  O  O0  1  0.21285557  0.03295150  0.30308484  1
  O  O1  1  0.82009593  0.78714443  0.30308484  1
  O  O2  1  0.96704850  0.17990407  0.30308484  1
  O  O3  1  0.21330012  0.18017699  0.80302850  1
  O  O4  1  0.96687687  0.78669988  0.80302850  1
  O  O5  1  0.81982301  0.03312313  0.80302850  1
  O  O6  1  0.79041481  0.97195352  0.69757933  1
  O  O7  1  0.18153871  0.20958519  0.69757933  1
  O  O8  1  0.02804648  0.81846129  0.69757933  1
  O  O9  1  0.78980589  0.81794847  0.19770177  1
  O  O10  1  0.02814258  0.21019411  0.19770177  1
  O  O11  1  0.18205153  0.97185742  0.19770177  1
  O  O12  1  0.87624896  0.36323373  0.63554610  1
  O  O13  1  0.48698578  0.12375104  0.63554610  1
  O  O14  1  0.63676627  0.51301422  0.63554610  1
  O  O15  1  0.87669334  0.51524248  0.13563723  1
  O  O16  1  0.63855014  0.12330666  0.13563723  1
  O  O17  1  0.48475752  0.36144986  0.13563723  1
  O  O18  1  0.45354467  0.30027043  0.03030413  1
  O  O19  1  0.84672676  0.54645533  0.03030413  1
  O  O20  1  0.69972957  0.15327324  0.03030413  1
  O  O21  1  0.45715076  0.15379996  0.53114118  1
  O  O22  1  0.69665020  0.54284924  0.53114118  1
  O  O23  1  0.84620004  0.30334980  0.53114118  1
  O  O24  1  0.54310737  0.69483479  0.96922496  1
  O  O25  1  0.15172642  0.45689263  0.96922496  1
  O  O26  1  0.30516521  0.84827358  0.96922496  1
  O  O27  1  0.54223152  0.84856175  0.46895540  1
  O  O28  1  0.30632923  0.45776848  0.46895540  1
  O  O29  1  0.15143825  0.69367077  0.46895540  1
  O  O30  1  0.12291856  0.63540867  0.36417745  1
  O  O31  1  0.51248911  0.87708144  0.36417745  1
  O  O32  1  0.36459133  0.48751089  0.36417745  1
  O  O33  1  0.12352914  0.48503245  0.86414024  1
  O  O34  1  0.36150231  0.87647086  0.86414024  1
  O  O35  1  0.51496755  0.63849769  0.86414024  1
  O  O36  1  0.02431382  0.82377418  0.40846299  1
  O  O37  1  0.79946036  0.97568618  0.40846299  1
  O  O38  1  0.17622582  0.20053964  0.40846299  1
  O  O39  1  0.02513297  0.19935015  0.91020665  1
  O  O40  1  0.17421718  0.97486703  0.91020665  1
  O  O41  1  0.80064985  0.82578282  0.91020665  1
  O  O42  1  0.97507797  0.17723001  0.59199694  1
  O  O43  1  0.20215204  0.02492203  0.59199694  1
  O  O44  1  0.82276999  0.79784796  0.59199694  1
  O  O45  1  0.97633875  0.80056234  0.09093202  1
  O  O46  1  0.82422359  0.02366125  0.09093202  1
  O  O47  1  0.19943766  0.17577641  0.09093202  1
  O  O48  1  0.69035458  0.15746056  0.74236291  1
  O  O49  1  0.46710698  0.30964542  0.74236291  1
  O  O50  1  0.84253944  0.53289302  0.74236291  1
  O  O51  1  0.69015501  0.53264998  0.24247927  1
  O  O52  1  0.84249598  0.30984499  0.24247927  1
  O  O53  1  0.46735002  0.15750402  0.24247927  1
  O  O54  1  0.64156130  0.50758819  0.92317095  1
  O  O55  1  0.86602788  0.35843870  0.92317095  1
  O  O56  1  0.49241181  0.13397212  0.92317095  1
  O  O57  1  0.64128502  0.13295983  0.42384706  1
  O  O58  1  0.49167581  0.35871498  0.42384706  1
  O  O59  1  0.86704017  0.50832419  0.42384706  1
  O  O60  1  0.35747892  0.48889672  0.07514273  1
  O  O61  1  0.13141680  0.64252108  0.07514273  1
  O  O62  1  0.51110328  0.86858320  0.07514273  1
  O  O63  1  0.35817001  0.86884978  0.57469764  1
  O  O64  1  0.51067878  0.64182999  0.57469764  1
  O  O65  1  0.13115022  0.48932122  0.57469764  1
  O  O66  1  0.30918031  0.84447561  0.25823499  1
  O  O67  1  0.53529430  0.69081969  0.25823499  1
  O  O68  1  0.15552439  0.46470570  0.25823499  1
  O  O69  1  0.30917413  0.46461363  0.75818424  1
  O  O70  1  0.15543849  0.69082587  0.75818424  1
  O  O71  1  0.53538637  0.84456151  0.75818424  1
loop_
_geom_bond_atom_site_label_1
_geom_bond_atom_site_label_2
_geom_bond_distance
_geom_bond_site_symmetry_2
Na0 O39 2.607426 1_555
Na0 O41 2.607426 1_445
Na0 O40 2.607426 1_545
Na0 O45 2.695908 1_446
Na0 O47 2.695908 1_556
Na0 O46 2.695908 1_456
Na1 O56 2.608807 1_555
Na1 O55 2.608807 1_555
Na1 O54 2.608807 1_555
Na1 O50 2.696715 1_555
Na1 O48 2.696715 1_555
Na1 O49 2.696715 1_555
Na2 O57 2.656544 1_555
Na2 O59 2.656544 1_555
Na2 O58 2.656544 1_555
Na2 O51 2.662666 1_555
Na2 O53 2.662666 1_555
Na2 O52 2.662666 1_555
O0 S0 1.464529 1_555
O0 Zn0 2.094394 1_555
O1 S1 1.464529 1_555
O1 Zn0 2.094394 1_665
O2 S2 1.464529 1_655
O2 Zn0 2.094394 1_655
O3 S3 1.465308 1_555
O3 Zn1 2.065861 1_555
O4 S4 1.465308 1_655
O4 Zn1 2.065861 1_665
O5 S5 1.465308 1_555
O5 Zn1 2.065862 1_655
O6 S5 1.484521 1_565
O6 Sc0 2.099640 1_665
O7 S3 1.484521 1_555
O7 Sc0 2.099640 1_555
O8 S4 1.484521 1_555
O8 Sc0 2.099640 1_565
O9 S1 1.486664 1_555
O9 Sc1 2.076345 1_665
O10 S2 1.486664 1_555
O10 Sc1 2.076345 1_555
O11 S0 1.486664 1_565
O11 Sc1 2.076345 1_565
O12 S6 1.482662 1_555
O12 Sc2 2.077568 1_555
O13 S7 1.482662 1_555
O13 Sc2 2.077568 1_555
O14 S8 1.482662 1_555
O14 Sc2 2.077567 1_555
O15 S9 1.487609 1_555
O15 Sc3 2.072454 1_555
O16 S10 1.487609 1_555
O16 Sc3 2.072454 1_555
O17 S11 1.487609 1_555
O17 Sc3 2.072454 1_555
O18 S11 1.464944 1_555
O18 Zn2 2.066945 1_554
O19 S9 1.464944 1_555
O19 Zn2 2.066945 1_554
O20 S10 1.464944 1_555
O20 Zn2 2.066945 1_554
O21 S7 1.482434 1_555
O21 Sc4 2.077350 1_555
O22 S8 1.482434 1_555
O22 Sc4 2.077350 1_555
O23 S6 1.482434 1_555
O23 Sc4 2.077350 1_555
O24 S12 1.492353 1_555
O24 Sc5 2.097475 1_556
O25 S13 1.492353 1_555
O25 Sc5 2.097475 1_556
O26 S14 1.492353 1_555
O26 Sc5 2.097475 1_556
O27 S15 1.484797 1_555
O27 Sc6 2.095541 1_555
O28 S16 1.484797 1_555
O28 Sc6 2.095541 1_555
O29 S17 1.484797 1_555
O29 Sc6 2.095541 1_555
O30 S17 1.488124 1_555
O30 Sc7 2.103684 1_555
O31 S15 1.488124 1_555
O31 Sc7 2.103684 1_555
O32 S16 1.488124 1_555
O32 Sc7 2.103684 1_555
O33 S13 1.491341 1_555
O33 Sc8 2.100339 1_555
O34 S14 1.491341 1_555
O34 Sc8 2.100339 1_555
O35 S12 1.491341 1_555
O35 Sc8 2.100339 1_555
O36 S17 1.457421 1_555
O36 Zn0 2.090737 1_565
O37 S15 1.457430 1_555
O37 Zn0 2.090737 1_665
O38 S16 1.457426 1_555
O38 Zn0 2.090737 1_555
O39 S13 1.480771 1_555
O39 Zn1 2.141551 1_555
O40 S14 1.480762 1_555
O40 Zn1 2.141551 1_565
O41 S12 1.480767 1_555
O41 Zn1 2.141551 1_665
O42 S6 1.472459 1_555
O42 Sc0 2.086695 1_655
O43 S7 1.472467 1_555
O43 Sc0 2.086695 1_555
O44 S8 1.472464 1_555
O44 Sc0 2.086695 1_665
O45 S9 1.498437 1_555
O45 Sc1 2.117830 1_665
O46 S10 1.498428 1_555
O46 Sc1 2.117830 1_655
O47 S11 1.498433 1_555
O47 Sc1 2.117830 1_555
O48 S5 1.501362 1_555
O48 Sc2 2.107278 1_555
O49 S3 1.501371 1_555
O49 Sc2 2.107278 1_555
O50 S4 1.501368 1_655
O50 Sc2 2.107278 1_555
O51 S1 1.499474 1_555
O51 Sc3 2.121628 1_555
O52 S2 1.499466 1_655
O52 Sc3 2.121628 1_555
O53 S0 1.499471 1_555
O53 Sc3 2.121628 1_555
O54 S12 1.481062 1_555
O54 Zn2 2.138390 1_555
O55 S13 1.481044 1_655
O55 Zn2 2.138390 1_555
O56 S14 1.481052 1_545
O56 Zn2 2.138390 1_555
O57 S15 1.504016 1_545
O57 Sc4 2.114364 1_555
O58 S16 1.504033 1_555
O58 Sc4 2.114364 1_555
O59 S17 1.504023 1_655
O59 Sc4 2.114364 1_555
O60 S11 1.475265 1_555
O60 Sc5 2.095169 1_555
O61 S9 1.475248 1_455
O61 Sc5 2.095169 1_555
O62 S10 1.475255 1_565
O62 Sc5 2.095169 1_555
O63 S7 1.471486 1_565
O63 Sc6 2.091545 1_555
O64 S8 1.471503 1_555
O64 Sc6 2.091545 1_555
O65 S6 1.471493 1_455
O65 Sc6 2.091545 1_555
O66 S0 1.476759 1_565
O66 Sc7 2.085079 1_555
O67 S1 1.476768 1_555
O67 Sc7 2.085080 1_555
O68 S2 1.476765 1_555
O68 Sc7 2.085079 1_555
O69 S3 1.476723 1_555
O69 Sc8 2.093803 1_555
O70 S4 1.476714 1_555
O70 Sc8 2.093803 1_555
O71 S5 1.476719 1_565
O71 Sc8 2.093803 1_555
