# generated using pymatgen
data_Na7NbZn3Si3(SO8)3
_symmetry_space_group_name_H-M   'P 1'
_cell_length_a   9.16367686
_cell_length_b   9.19727380
_cell_length_c   22.25239749
_cell_angle_alpha   89.48046588
_cell_angle_beta   90.69481125
_cell_angle_gamma   120.39251176
_symmetry_Int_Tables_number   1
_chemical_formula_structural   Na7NbZn3Si3(SO8)3
_chemical_formula_sum   'Na21 Nb3 Zn9 Si9 S9 O72'
_cell_volume   1617.59773106
_cell_formula_units_Z   3
loop_
 _symmetry_equiv_pos_site_id
 _symmetry_equiv_pos_as_xyz
  1  'x, y, z'
loop_
 _atom_site_type_symbol
 _atom_site_label
 _atom_site_symmetry_multiplicity
 _atom_site_fract_x
 _atom_site_fract_y
 _atom_site_fract_z
 _atom_site_occupancy
  Na  Na0  1  0.63638797  0.00462363  0.23910003  1
  Na  Na1  1  0.37812531  0.35160959  0.25331589  1
  Na  Na2  1  0.98652858  0.64772113  0.24860049  1
  Na  Na3  1  0.66137349  0.63623692  0.75004153  1
  Na  Na4  1  0.98078121  0.34628904  0.74979915  1
  Na  Na5  1  0.36144119  0.01406326  0.74921429  1
  Na  Na6  1  0.29033873  0.32664606  0.58712667  1
  Na  Na7  1  0.03895486  0.71134360  0.58634862  1
  Na  Na8  1  0.67420362  0.96708356  0.59189492  1
  Na  Na9  1  0.30360831  0.96619005  0.09063391  1
  Na  Na10  1  0.66954405  0.72093671  0.08173010  1
  Na  Na11  1  0.03123806  0.32252401  0.08074053  1
  Na  Na12  1  0.97349177  0.30167018  0.42021333  1
  Na  Na13  1  0.31906617  0.03817735  0.41463172  1
  Na  Na14  1  0.71060759  0.66199504  0.40972700  1
  Na  Na15  1  0.01189849  0.00064525  0.49632647  1
  Na  Na16  1  0.97982526  0.99272207  0.99022207  1
  Na  Na17  1  0.66798532  0.33746763  0.82283626  1
  Na  Na18  1  0.65679313  0.33974194  0.33298495  1
  Na  Na19  1  0.35268904  0.68648978  0.16300980  1
  Na  Na20  1  0.32986623  0.66742554  0.66372133  1
  Nb  Nb0  1  0.67031695  0.32911850  0.97480844  1
  Nb  Nb1  1  0.33064775  0.66343551  0.31609081  1
  Nb  Nb2  1  0.34514836  0.66104096  0.81057620  1
  Zn  Zn0  1  0.01374368  0.98095960  0.34866410  1
  Zn  Zn1  1  0.98096597  0.98096238  0.84138948  1
  Zn  Zn2  1  0.99843084  0.99446457  0.67708477  1
  Zn  Zn3  1  0.98146921  0.98151933  0.15712466  1
  Zn  Zn4  1  0.66207031  0.33244784  0.69029193  1
  Zn  Zn5  1  0.64891457  0.32040837  0.18574501  1
  Zn  Zn6  1  0.66773694  0.35041843  0.47866932  1
  Zn  Zn7  1  0.36881171  0.69557240  0.01025798  1
  Zn  Zn8  1  0.31573357  0.64716339  0.50677448  1
  Si  Si0  1  0.29539747  0.00035864  0.24909287  1
  Si  Si1  1  0.70127968  0.70190989  0.25004060  1
  Si  Si2  1  0.28838617  0.28397379  0.75041242  1
  Si  Si3  1  0.00084880  0.70195734  0.74878823  1
  Si  Si4  1  0.70891647  0.00557022  0.74867959  1
  Si  Si5  1  0.66925324  0.04006539  0.08677327  1
  Si  Si6  1  0.64169103  0.67659161  0.92093507  1
  Si  Si7  1  0.32689626  0.36158248  0.42047051  1
  Si  Si8  1  0.03522128  0.66545660  0.42141423  1
  S  S0  1  0.00379152  0.29800146  0.25062177  1
  S  S1  1  0.95857627  0.33229076  0.58142664  1
  S  S2  1  0.37749663  0.04028063  0.58042206  1
  S  S3  1  0.66616454  0.63285799  0.58140985  1
  S  S4  1  0.95868348  0.62082734  0.08244903  1
  S  S5  1  0.37426098  0.33351474  0.08193402  1
  S  S6  1  0.04435008  0.37703600  0.92103244  1
  S  S7  1  0.33069350  0.96113962  0.91898596  1
  S  S8  1  0.62478816  0.95886862  0.41856183  1
  O  O0  1  0.22184977  0.04015531  0.30821219  1
  O  O1  1  0.81297357  0.78849681  0.30981208  1
  O  O2  1  0.98060323  0.19708516  0.30466647  1
  O  O3  1  0.20251981  0.16166491  0.80640896  1
  O  O4  1  0.94935926  0.77942341  0.80259913  1
  O  O5  1  0.83441507  0.05477664  0.80470124  1
  O  O6  1  0.76503032  0.94473538  0.68846009  1
  O  O7  1  0.17806816  0.22912378  0.68756403  1
  O  O8  1  0.05863244  0.81861841  0.68736081  1
  O  O9  1  0.76232240  0.81820096  0.18926956  1
  O  O10  1  0.03387470  0.22690325  0.19578163  1
  O  O11  1  0.17544061  0.95851936  0.18862292  1
  O  O12  1  0.87350745  0.34512923  0.63545047  1
  O  O13  1  0.47513304  0.12645487  0.63540403  1
  O  O14  1  0.64609889  0.52996450  0.63565757  1
  O  O15  1  0.88220780  0.52661017  0.13838024  1
  O  O16  1  0.64442707  0.12888104  0.14497804  1
  O  O17  1  0.47470188  0.36443211  0.13807465  1
  O  O18  1  0.47161381  0.31932220  0.03008723  1
  O  O19  1  0.84513924  0.52575086  0.02931074  1
  O  O20  1  0.68419880  0.17065913  0.02850860  1
  O  O21  1  0.46454796  0.13883478  0.52518746  1
  O  O22  1  0.68107398  0.54950332  0.52629078  1
  O  O23  1  0.85980526  0.31980152  0.52562496  1
  O  O24  1  0.55590130  0.68233548  0.98299885  1
  O  O25  1  0.13663287  0.46719824  0.97636997  1
  O  O26  1  0.31542673  0.86712345  0.97555115  1
  O  O27  1  0.54760773  0.85580640  0.47266450  1
  O  O28  1  0.30572732  0.44582827  0.48073699  1
  O  O29  1  0.15553003  0.70675477  0.48007174  1
  O  O30  1  0.14743161  0.65005977  0.36244032  1
  O  O31  1  0.51513600  0.86770584  0.36321616  1
  O  O32  1  0.35154096  0.49734905  0.36247697  1
  O  O33  1  0.12164876  0.48316963  0.86635239  1
  O  O34  1  0.35921094  0.88031035  0.86635883  1
  O  O35  1  0.50436358  0.64372462  0.86394240  1
  O  O36  1  0.00782118  0.82587310  0.41566260  1
  O  O37  1  0.79448871  0.98216284  0.41134437  1
  O  O38  1  0.15265630  0.18269365  0.41149413  1
  O  O39  1  0.01976005  0.21121486  0.91761285  1
  O  O40  1  0.19344748  0.99239686  0.91383208  1
  O  O41  1  0.82618957  0.83432369  0.91217135  1
  O  O42  1  0.97638624  0.18005546  0.58193262  1
  O  O43  1  0.20582015  0.02082989  0.58022652  1
  O  O44  1  0.82199233  0.80255244  0.58332498  1
  O  O45  1  0.97413724  0.78910038  0.08064622  1
  O  O46  1  0.84424734  0.03176598  0.08438145  1
  O  O47  1  0.20952001  0.17360482  0.08318779  1
  O  O48  1  0.66092420  0.15179000  0.74137461  1
  O  O49  1  0.48481324  0.33269682  0.74448669  1
  O  O50  1  0.84729255  0.50831814  0.74093955  1
  O  O51  1  0.68148794  0.51486545  0.24343652  1
  O  O52  1  0.86121341  0.32959441  0.24505002  1
  O  O53  1  0.48972515  0.15851368  0.24698646  1
  O  O54  1  0.64659800  0.49115672  0.92649116  1
  O  O55  1  0.86561459  0.36301325  0.92324586  1
  O  O56  1  0.49837435  0.13659831  0.92348067  1
  O  O57  1  0.63116433  0.12254792  0.41868352  1
  O  O58  1  0.49937079  0.35043207  0.41711260  1
  O  O59  1  0.85728397  0.48500863  0.41777569  1
  O  O60  1  0.34425776  0.47756188  0.07596158  1
  O  O61  1  0.12711934  0.63561587  0.07628000  1
  O  O62  1  0.49460495  0.85447062  0.08071896  1
  O  O63  1  0.36369398  0.86982296  0.58058970  1
  O  O64  1  0.51255542  0.65269870  0.57863240  1
  O  O65  1  0.13217513  0.48931687  0.58142059  1
  O  O66  1  0.31063016  0.82335554  0.25768793  1
  O  O67  1  0.50565115  0.67753790  0.25929029  1
  O  O68  1  0.16516164  0.47301842  0.25527468  1
  O  O69  1  0.30518860  0.47894979  0.76090302  1
  O  O70  1  0.17472695  0.68724630  0.76493945  1
  O  O71  1  0.51477067  0.82748505  0.76067931  1
loop_
_geom_bond_atom_site_label_1
_geom_bond_atom_site_label_2
_geom_bond_distance
_geom_bond_site_symmetry_2
Na0 O16 2.360786 1_555
Na0 O53 2.403183 1_555
Na0 O66 2.615984 1_545
Na0 O52 2.639167 1_555
Na0 O67 2.651191 1_545
Na0 O9 2.751128 1_545
Na1 O51 2.411666 1_555
Na1 O53 2.462812 1_555
Na1 O67 2.613070 1_555
Na1 O68 2.695389 1_555
Na1 O17 2.705031 1_555
Na1 O0 2.752596 1_555
Na1 O32 2.856631 1_555
Na2 O51 2.420464 1_555
Na2 O52 2.547171 1_555
Na2 O66 2.570592 1_655
Na2 O15 2.661844 1_555
Na2 O11 2.815832 1_655
Na2 O68 2.816828 1_655
Na2 O1 2.868654 1_555
Na2 O30 2.910320 1_655
Na3 O49 2.420305 1_555
Na3 O50 2.523613 1_555
Na3 O4 2.550100 1_555
Na3 O14 2.711387 1_555
Na3 O71 2.713122 1_555
Na3 O69 2.835445 1_555
Na3 O6 2.839828 1_555
Na3 O35 2.948008 1_555
Na4 O50 2.364170 1_555
Na4 O48 2.552197 1_555
Na4 O69 2.589333 1_655
Na4 O5 2.611822 1_555
Na4 O12 2.714831 1_555
Na4 O70 2.733360 1_655
Na4 O33 2.882985 1_655
Na4 O7 2.899405 1_655
Na5 O48 2.378372 1_555
Na5 O49 2.553882 1_555
Na5 O70 2.622313 1_545
Na5 O71 2.721581 1_545
Na5 O13 2.737624 1_555
Na5 O3 2.767708 1_555
Na5 O8 2.780403 1_545
Na5 O34 2.868195 1_545
Na6 O7 2.437982 1_555
Na6 O42 2.485559 1_455
Na6 O43 2.517002 1_555
Na6 O65 2.557609 1_555
Na6 O28 2.575028 1_555
Na6 O64 2.644870 1_555
Na7 O8 2.430798 1_555
Na7 O43 2.460258 1_565
Na7 O44 2.518805 1_455
Na7 O63 2.571653 1_555
Na7 O65 2.585163 1_555
Na7 O29 2.616196 1_555
Na8 O6 2.339672 1_555
Na8 O42 2.464263 1_565
Na8 O44 2.499095 1_555
Na8 O64 2.512573 1_555
Na8 O63 2.524104 1_555
Na8 O27 2.864570 1_555
Na9 O62 2.449681 1_555
Na9 O47 2.462724 1_565
Na9 O11 2.472735 1_555
Na9 O45 2.613843 1_455
Na9 O61 2.644096 1_555
Na9 O26 2.747515 1_554
Na9 O16 2.944159 1_565
Na10 O24 2.371060 1_554
Na10 O62 2.463636 1_555
Na10 O46 2.471629 1_565
Na10 O45 2.532815 1_555
Na10 O9 2.543520 1_555
Na10 O60 2.675224 1_555
Na11 O46 2.335995 1_455
Na11 O60 2.477585 1_555
Na11 O61 2.551621 1_555
Na11 O25 2.606782 1_554
Na11 O47 2.609321 1_555
Na11 O10 2.703051 1_555
Na12 O38 2.399998 1_655
Na12 O59 2.407092 1_555
Na12 O37 2.547606 1_545
Na12 O23 2.618664 1_555
Na12 O57 2.706491 1_555
Na12 O2 2.766383 1_555
Na13 O38 2.478615 1_555
Na13 O58 2.485987 1_555
Na13 O36 2.512701 1_545
Na13 O0 2.523145 1_555
Na13 O57 2.557175 1_555
Na13 O21 2.720208 1_555
Na14 O36 2.355471 1_655
Na14 O1 2.465000 1_555
Na14 O58 2.524261 1_555
Na14 O59 2.586710 1_555
Na14 O37 2.640874 1_555
Na14 O22 2.748933 1_555
Na15 O36 2.407705 1_545
Na15 O38 2.418091 1_555
Na15 O43 2.503985 1_555
Na15 O44 2.627782 1_445
Na15 O42 2.659484 1_455
Na15 O37 2.673186 1_445
Na16 O41 2.243267 1_555
Na16 O39 2.448286 1_665
Na16 O46 2.567266 1_566
Na16 O40 2.609275 1_655
Na16 O45 2.719221 1_556
Na16 O47 2.809139 1_666
Na17 O49 2.390596 1_555
Na17 O50 2.428646 1_555
Na17 O48 2.479506 1_555
Na17 O54 2.776170 1_555
Na17 O55 2.794306 1_555
Na17 O56 2.819305 1_555
Na18 O58 2.409887 1_555
Na18 O53 2.487766 1_555
Na18 O59 2.489660 1_555
Na18 O51 2.489997 1_555
Na18 O57 2.673810 1_555
Na18 O52 2.759669 1_555
Na19 O62 2.324822 1_555
Na19 O67 2.569524 1_555
Na19 O66 2.594313 1_555
Na19 O61 2.675314 1_555
Na19 O60 2.713693 1_555
Na19 O68 2.760740 1_555
Na20 O65 2.508076 1_555
Na20 O63 2.520104 1_555
Na20 O64 2.591722 1_555
Na20 O71 2.671736 1_555
Na20 O69 2.698108 1_555
Na20 O70 2.733991 1_555
Nb0 O54 1.928030 1_555
Nb0 O20 1.928840 1_556
Nb0 O56 2.022986 1_555
Nb0 O55 2.023690 1_555
Nb0 O19 2.090237 1_556
Nb0 O18 2.173256 1_556
Nb1 O32 1.923025 1_555
Nb1 O30 1.930912 1_555
Nb1 O67 2.005463 1_555
Nb1 O66 2.029410 1_555
Nb1 O31 2.065515 1_555
Nb1 O68 2.122300 1_555
Nb2 O69 1.887824 1_555
Nb2 O71 1.896233 1_555
Nb2 O35 1.937504 1_555
Nb2 O70 1.966265 1_555
Nb2 O33 2.246329 1_555
Nb2 O34 2.324433 1_555
O0 Si0 1.612051 1_555
O0 Zn0 1.930180 1_545
O1 Si1 1.616261 1_555
O1 Zn0 1.989871 1_655
O2 S0 1.462643 1_655
O2 Zn0 2.360146 1_645
O3 Si2 1.593723 1_555
O3 Zn1 2.022537 1_445
O4 Si3 1.591664 1_655
O4 Zn1 1.935086 1_555
O5 Si4 1.590681 1_555
O5 Zn1 1.953656 1_545
O6 Si4 1.641514 1_565
O6 Zn2 1.966971 1_555
O7 Si2 1.641589 1_555
O7 Zn2 1.956295 1_445
O8 Si3 1.648075 1_555
O8 Zn2 1.966041 1_455
O9 Si1 1.634725 1_555
O9 Zn3 1.940078 1_555
O10 S0 1.482503 1_555
O10 Zn3 2.234403 1_445
O11 Si0 1.646988 1_565
O11 Zn3 2.010735 1_455
O12 S1 1.478262 1_555
O12 Zn4 2.254560 1_555
O13 S2 1.482934 1_555
O13 Zn4 2.173246 1_555
O14 S3 1.481606 1_555
O14 Zn4 2.241473 1_555
O15 S4 1.475867 1_555
O15 Zn5 2.279006 1_555
O16 Si5 1.615834 1_555
O16 Zn5 1.970381 1_555
O17 S5 1.484049 1_555
O17 Zn5 2.107835 1_555
O18 S5 1.513103 1_555
O19 S4 1.521101 1_555
O20 Si5 1.718144 1_555
O21 S2 1.496861 1_555
O21 Zn6 2.160842 1_555
O22 S3 1.495953 1_555
O22 Zn6 2.072727 1_555
O23 S1 1.498137 1_555
O23 Zn6 2.172646 1_555
O24 Si6 1.611784 1_555
O24 Zn7 1.886738 1_556
O25 S6 1.484186 1_555
O25 Zn7 2.230507 1_556
O26 S7 1.487867 1_555
O26 Zn7 2.018659 1_556
O27 S8 1.473001 1_555
O27 Zn8 2.158782 1_555
O28 Si7 1.616698 1_555
O28 Zn8 1.902470 1_555
O29 Si8 1.616732 1_555
O29 Zn8 1.896238 1_555
O30 Si8 1.727125 1_555
O31 S8 1.538076 1_555
O32 Si7 1.722816 1_555
O33 S6 1.494939 1_555
O34 S7 1.487332 1_555
O35 Si6 1.693144 1_555
O36 Si8 1.620755 1_555
O36 Zn0 2.035993 1_555
O37 S8 1.469113 1_555
O37 Zn0 2.464367 1_655
O38 Si7 1.623692 1_555
O38 Zn0 2.152146 1_545
O39 S6 1.427047 1_555
O40 S7 1.428040 1_555
O40 Zn1 2.473999 1_455
O41 Si6 1.588121 1_555
O41 Zn1 2.095601 1_555
O42 S1 1.489318 1_555
O43 S2 1.490645 1_555
O44 S3 1.490446 1_555
O45 S4 1.481264 1_555
O45 Zn3 2.442173 1_555
O46 Si5 1.645040 1_555
O46 Zn3 2.222622 1_545
O47 S5 1.482075 1_555
O47 Zn3 2.547593 1_445
O48 Si4 1.618989 1_555
O48 Zn4 2.000346 1_555
O49 Si2 1.626868 1_555
O49 Zn4 2.035709 1_555
O50 Si3 1.626743 1_655
O50 Zn4 1.994035 1_555
O51 Si1 1.643825 1_555
O51 Zn5 2.104280 1_555
O52 S0 1.478649 1_655
O52 Zn5 2.303663 1_555
O53 Si0 1.633699 1_555
O53 Zn5 2.003953 1_555
O54 Si6 1.731953 1_555
O55 S6 1.577908 1_655
O56 S7 1.570168 1_545
O57 S8 1.476729 1_545
O57 Zn6 2.369724 1_555
O58 Si7 1.637404 1_555
O58 Zn6 2.050766 1_555
O59 Si8 1.637289 1_655
O59 Zn6 2.058275 1_555
O60 S5 1.487597 1_555
O60 Zn7 2.388934 1_555
O61 S4 1.487309 1_455
O61 Zn7 2.489221 1_555
O62 Si5 1.651652 1_565
O62 Zn7 2.053312 1_555
O63 S2 1.507681 1_565
O63 Zn8 2.493537 1_555
O64 S3 1.508680 1_555
O64 Zn8 2.377197 1_555
O65 S1 1.513850 1_455
O65 Zn8 2.291117 1_555
O66 Si0 1.711698 1_565
O67 Si1 1.705232 1_555
O68 S0 1.542494 1_555
O69 Si2 1.738183 1_555
O70 Si3 1.699897 1_555
O71 Si4 1.724612 1_565
