# generated using pymatgen
data_Na2Sc4SiS5O24
_symmetry_space_group_name_H-M   'P 1'
_cell_length_a   8.88126690
_cell_length_b   8.86891229
_cell_length_c   23.20349973
_cell_angle_alpha   89.92457608
_cell_angle_beta   90.00959075
_cell_angle_gamma   119.94801610
_symmetry_Int_Tables_number   1
_chemical_formula_structural   Na2Sc4SiS5O24
_chemical_formula_sum   'Na6 Sc12 Si3 S15 O72'
_cell_volume   1583.63910466
_cell_formula_units_Z   3
loop_
 _symmetry_equiv_pos_site_id
 _symmetry_equiv_pos_as_xyz
  1  'x, y, z'
loop_
 _atom_site_type_symbol
 _atom_site_label
 _atom_site_symmetry_multiplicity
 _atom_site_fract_x
 _atom_site_fract_y
 _atom_site_fract_z
 _atom_site_occupancy
  Na  Na0  1  0.99420229  0.99292100  0.50401751  1
  Na  Na1  1  0.99993559  0.99993788  0.99888771  1
  Na  Na2  1  0.66765658  0.32646450  0.82649578  1
  Na  Na3  1  0.66065462  0.32810672  0.33476555  1
  Na  Na4  1  0.33218238  0.67224355  0.17067902  1
  Na  Na5  1  0.34495080  0.67052140  0.66523047  1
  Sc  Sc0  1  0.01394805  0.00367886  0.35211525  1
  Sc  Sc1  1  0.99246523  0.00342947  0.84596755  1
  Sc  Sc2  1  0.97738499  0.98629823  0.64635464  1
  Sc  Sc3  1  0.00829219  0.99660970  0.15204864  1
  Sc  Sc4  1  0.66367094  0.33277145  0.68435666  1
  Sc  Sc5  1  0.65765591  0.32476572  0.18986106  1
  Sc  Sc6  1  0.66743195  0.33314059  0.98054164  1
  Sc  Sc7  1  0.66876966  0.34477246  0.48532776  1
  Sc  Sc8  1  0.33267961  0.66688940  0.01725253  1
  Sc  Sc9  1  0.34343523  0.66653547  0.52288546  1
  Sc  Sc10  1  0.33286906  0.67746406  0.31461127  1
  Sc  Sc11  1  0.34213851  0.67428490  0.80831681  1
  Si  Si0  1  0.29195567  0.99735876  0.25047502  1
  Si  Si1  1  0.70816766  0.00724870  0.74944940  1
  Si  Si2  1  0.66830462  0.62531016  0.58443053  1
  S  S0  1  0.70897640  0.70956943  0.25013231  1
  S  S1  1  0.00141026  0.29123255  0.25001730  1
  S  S2  1  0.29077048  0.28975661  0.74986060  1
  S  S3  1  0.99886801  0.70833868  0.75029758  1
  S  S4  1  0.95828653  0.33418370  0.58292863  1
  S  S5  1  0.37450440  0.04274245  0.58304541  1
  S  S6  1  0.95710135  0.62386103  0.08297080  1
  S  S7  1  0.66711558  0.04186000  0.08289586  1
  S  S8  1  0.37549213  0.33390710  0.08278783  1
  S  S9  1  0.62520083  0.66679935  0.91729021  1
  S  S10  1  0.04274603  0.37523031  0.91718291  1
  S  S11  1  0.33245133  0.95807842  0.91718374  1
  S  S12  1  0.62602679  0.95945053  0.41650654  1
  S  S13  1  0.33354847  0.37649361  0.41617728  1
  S  S14  1  0.04135046  0.66493301  0.41689141  1
  O  O0  1  0.20168049  0.03073445  0.30594492  1
  O  O1  1  0.81543059  0.78948718  0.30162482  1
  O  O2  1  0.96917269  0.18269546  0.30164060  1
  O  O3  1  0.21191671  0.18396286  0.80303853  1
  O  O4  1  0.97557235  0.78977112  0.80308053  1
  O  O5  1  0.82399255  0.02968763  0.80773107  1
  O  O6  1  0.79622982  0.96898894  0.69477025  1
  O  O7  1  0.18569176  0.21143399  0.69851488  1
  O  O8  1  0.03255990  0.81695586  0.69896627  1
  O  O9  1  0.78634173  0.81653792  0.19751534  1
  O  O10  1  0.02531387  0.21031361  0.19749523  1
  O  O11  1  0.17390683  0.96927093  0.19302854  1
  O  O12  1  0.87939931  0.36058945  0.63471808  1
  O  O13  1  0.48268944  0.11795416  0.63477614  1
  O  O14  1  0.63588935  0.50383046  0.64030531  1
  O  O15  1  0.87855824  0.51773835  0.13462041  1
  O  O16  1  0.63921036  0.12174364  0.13441804  1
  O  O17  1  0.48293826  0.36206141  0.13433186  1
  O  O18  1  0.45814455  0.30817425  0.03093030  1
  O  O19  1  0.84978750  0.54045572  0.03080011  1
  O  O20  1  0.69118393  0.15005161  0.03086588  1
  O  O21  1  0.45697869  0.14788952  0.53067572  1
  O  O22  1  0.69498154  0.53552139  0.52645354  1
  O  O23  1  0.85041464  0.30410452  0.53075730  1
  O  O24  1  0.54139413  0.69127825  0.96957422  1
  O  O25  1  0.15007944  0.45990091  0.96972185  1
  O  O26  1  0.30942429  0.85009237  0.96966170  1
  O  O27  1  0.54386704  0.85103609  0.46783655  1
  O  O28  1  0.30661761  0.45657410  0.46779595  1
  O  O29  1  0.14851245  0.69276999  0.46810504  1
  O  O30  1  0.12345601  0.64101668  0.36441699  1
  O  O31  1  0.51796651  0.87625833  0.36431937  1
  O  O32  1  0.35836316  0.48220779  0.36396321  1
  O  O33  1  0.12057503  0.48228216  0.86595291  1
  O  O34  1  0.36138329  0.87877132  0.86609591  1
  O  O35  1  0.51692546  0.63714203  0.86621623  1
  O  O36  1  0.02038110  0.82069376  0.40967225  1
  O  O37  1  0.79939920  0.97570564  0.40888905  1
  O  O38  1  0.17421592  0.20150081  0.41050260  1
  O  O39  1  0.02569502  0.20121269  0.91327137  1
  O  O40  1  0.17803591  0.97739806  0.91230905  1
  O  O41  1  0.80010634  0.82073262  0.91252723  1
  O  O42  1  0.98235962  0.18174333  0.58879091  1
  O  O43  1  0.20305483  0.02784727  0.58972151  1
  O  O44  1  0.84185693  0.81707467  0.58702274  1
  O  O45  1  0.97393579  0.79845545  0.08765430  1
  O  O46  1  0.82214257  0.02296769  0.08874491  1
  O  O47  1  0.20019548  0.17917642  0.08841111  1
  O  O48  1  0.68609168  0.17670282  0.74475909  1
  O  O49  1  0.46569685  0.31064547  0.74585445  1
  O  O50  1  0.84358510  0.53538407  0.74506818  1
  O  O51  1  0.69441727  0.53632808  0.24227461  1
  O  O52  1  0.84693938  0.31296272  0.24224200  1
  O  O53  1  0.48387449  0.17139622  0.24221436  1
  O  O54  1  0.64226450  0.50855289  0.92564951  1
  O  O55  1  0.86686592  0.35660474  0.92572714  1
  O  O56  1  0.49075080  0.13314092  0.92559059  1
  O  O57  1  0.64307935  0.13313199  0.42211218  1
  O  O58  1  0.48738508  0.35369777  0.42181175  1
  O  O59  1  0.86723677  0.50711642  0.42123559  1
  O  O60  1  0.35763668  0.49152982  0.07525521  1
  O  O61  1  0.13325399  0.64345533  0.07519262  1
  O  O62  1  0.50919038  0.86672178  0.07531479  1
  O  O63  1  0.35407361  0.86663970  0.57559263  1
  O  O64  1  0.49464141  0.64503035  0.57580533  1
  O  O65  1  0.13096724  0.49282194  0.57544319  1
  O  O66  1  0.31296867  0.82573633  0.25644178  1
  O  O67  1  0.53313662  0.68672665  0.25637685  1
  O  O68  1  0.15826307  0.46409980  0.25644877  1
  O  O69  1  0.30586280  0.46370656  0.75828402  1
  O  O70  1  0.15416334  0.68753714  0.75840309  1
  O  O71  1  0.51712618  0.82934793  0.75848300  1
loop_
_geom_bond_atom_site_label_1
_geom_bond_atom_site_label_2
_geom_bond_distance
_geom_bond_site_symmetry_2
Na0 O44 2.420452 1_555
Na0 O42 2.620946 1_565
Na0 O43 2.630190 1_665
Na0 O36 2.746471 1_655
Na0 O37 2.761277 1_555
Na0 O38 2.779234 1_665
Na1 O39 2.601639 1_665
Na1 O41 2.623387 1_555
Na1 O40 2.625934 1_655
Na1 O45 2.658436 1_556
Na1 O47 2.681394 1_666
Na1 O46 2.684494 1_566
Na2 O48 2.368934 1_555
Na2 O49 2.546852 1_555
Na2 O50 2.558437 1_555
Na2 O56 2.827803 1_555
Na2 O55 2.833950 1_555
Na2 O54 2.885428 1_555
Na3 O53 2.614678 1_555
Na3 O57 2.616035 1_555
Na3 O58 2.617259 1_555
Na3 O59 2.647883 1_555
Na3 O51 2.746437 1_555
Na3 O52 2.754648 1_555
Na4 O66 2.466081 1_555
Na4 O68 2.626555 1_555
Na4 O67 2.631814 1_555
Na4 O62 2.761634 1_555
Na4 O61 2.765016 1_555
Na4 O60 2.809566 1_555
Na5 O64 2.535014 1_555
Na5 O71 2.619306 1_555
Na5 O63 2.684731 1_555
Na5 O65 2.729993 1_555
Na5 O69 2.738789 1_555
Na5 O70 2.797359 1_555
O0 Si0 1.620294 1_545
O0 Sc0 1.893584 1_555
O1 S0 1.468535 1_555
O1 Sc0 2.179648 1_665
O2 S1 1.471501 1_655
O2 Sc0 2.162376 1_655
O3 S2 1.494836 1_555
O3 Sc1 2.057964 1_455
O4 S3 1.488629 1_555
O4 Sc1 2.079560 1_565
O5 Si1 1.649982 1_555
O5 Sc1 1.851235 1_555
O6 Si1 1.613375 1_565
O6 Sc2 1.904650 1_555
O7 S2 1.458577 1_555
O7 Sc2 2.278537 1_445
O8 S3 1.464737 1_455
O8 Sc2 2.171598 1_455
O9 S0 1.486313 1_555
O9 Sc3 2.098164 1_655
O10 S1 1.483184 1_555
O10 Sc3 2.108612 1_545
O11 Si0 1.636360 1_555
O11 Sc3 1.865853 1_555
O12 S4 1.467865 1_555
O12 Sc4 2.141578 1_555
O13 S5 1.473345 1_555
O13 Sc4 2.117664 1_555
O14 Si2 1.615954 1_555
O14 Sc4 1.943410 1_555
O15 S6 1.466467 1_555
O15 Sc5 2.250268 1_555
O16 S7 1.473164 1_555
O16 Sc5 2.153015 1_555
O17 S8 1.471693 1_555
O17 Sc5 2.165191 1_555
O18 S8 1.485626 1_555
O18 Sc6 2.111888 1_554
O19 S6 1.489640 1_555
O19 Sc6 2.096535 1_554
O20 S7 1.488685 1_555
O20 Sc6 2.093244 1_554
O21 S5 1.482596 1_555
O21 Sc7 2.100189 1_555
O22 Si2 1.640525 1_555
O22 Sc7 1.854116 1_555
O23 S4 1.483153 1_555
O23 Sc7 2.103136 1_555
O24 S9 1.495075 1_555
O24 Sc8 2.075198 1_556
O25 S10 1.498696 1_555
O25 Sc8 2.061228 1_556
O26 S11 1.497743 1_555
O26 Sc8 2.057266 1_556
O27 S12 1.473871 1_555
O27 Sc9 2.136555 1_555
O28 S13 1.472459 1_555
O28 Sc9 2.146301 1_555
O29 S14 1.464475 1_555
O29 Sc9 2.251086 1_555
O30 S14 1.488173 1_555
O30 Sc10 2.073306 1_555
O31 S12 1.492229 1_555
O31 Sc10 2.062076 1_555
O32 S13 1.478599 1_555
O32 Sc10 2.178898 1_555
O33 S10 1.460932 1_555
O33 Sc11 2.282472 1_555
O34 S11 1.465847 1_555
O34 Sc11 2.193744 1_555
O35 S9 1.465010 1_555
O35 Sc11 2.198147 1_555
O36 S14 1.492425 1_555
O36 Sc0 2.123080 1_565
O37 S12 1.483677 1_555
O37 Sc0 2.226152 1_665
O38 S13 1.495394 1_555
O38 Sc0 2.109949 1_555
O39 S10 1.476518 1_555
O39 Sc1 2.256787 1_455
O40 S11 1.468813 1_555
O40 Sc1 2.348887 1_465
O41 S9 1.473541 1_555
O41 Sc1 2.271513 1_565
O42 S4 1.476539 1_555
O42 Sc2 2.169811 1_545
O43 S5 1.469428 1_555
O43 Sc2 2.267550 1_445
O44 Si2 1.629369 1_555
O44 Sc2 1.948806 1_555
O45 S6 1.483640 1_555
O45 Sc3 2.210323 1_655
O46 S7 1.473900 1_555
O46 Sc3 2.308590 1_645
O47 S8 1.480036 1_555
O47 Sc3 2.223994 1_545
O48 Si1 1.613280 1_555
O48 Sc4 2.046917 1_555
O49 S2 1.472812 1_555
O49 Sc4 2.195867 1_555
O50 S3 1.468976 1_555
O50 Sc4 2.214914 1_555
O51 S0 1.487633 1_555
O51 Sc5 2.121445 1_555
O52 S1 1.488489 1_655
O52 Sc5 2.118704 1_555
O53 Si0 1.642261 1_545
O53 Sc5 1.899522 1_555
O54 S9 1.497317 1_555
O54 Sc6 2.105795 1_555
O55 S10 1.499649 1_655
O55 Sc6 2.104826 1_555
O56 S11 1.498844 1_545
O56 Sc6 2.112021 1_555
O57 S12 1.476544 1_545
O57 Sc7 2.303558 1_555
O58 S13 1.483342 1_555
O58 Sc7 2.213510 1_555
O59 S14 1.482946 1_655
O59 Sc7 2.202946 1_555
O60 S8 1.493527 1_555
O60 Sc8 2.148918 1_555
O61 S6 1.496286 1_455
O61 Sc8 2.149454 1_555
O62 S7 1.495433 1_565
O62 Sc8 2.155279 1_555
O63 S5 1.489940 1_565
O63 Sc9 2.119547 1_555
O64 Si2 1.648823 1_555
O64 Sc9 1.897926 1_555
O65 S4 1.485524 1_455
O65 Sc9 2.124797 1_555
O66 Si0 1.629063 1_555
O66 Sc10 1.951815 1_555
O67 S0 1.478173 1_555
O67 Sc10 2.202443 1_555
O68 S1 1.477002 1_555
O68 Sc10 2.209776 1_555
O69 S2 1.493505 1_555
O69 Sc11 2.084307 1_555
O70 S3 1.491819 1_455
O70 Sc11 2.082587 1_555
O71 Si1 1.654855 1_565
O71 Sc11 1.872464 1_555
