# generated using pymatgen
data_LiFe4(PO4)3
_symmetry_space_group_name_H-M   'P 1'
_cell_length_a   8.85226504
_cell_length_b   8.85226504
_cell_length_c   6.58688317
_cell_angle_alpha   73.66857999
_cell_angle_beta   73.66857999
_cell_angle_gamma   95.60324474
_symmetry_Int_Tables_number   1
_chemical_formula_structural   LiFe4(PO4)3
_chemical_formula_sum   'Li2 Fe8 P6 O24'
_cell_volume   466.51946102
_cell_formula_units_Z   2
loop_
 _symmetry_equiv_pos_site_id
 _symmetry_equiv_pos_as_xyz
  1  'x, y, z'
loop_
 _atom_site_type_symbol
 _atom_site_label
 _atom_site_symmetry_multiplicity
 _atom_site_fract_x
 _atom_site_fract_y
 _atom_site_fract_z
 _atom_site_occupancy
  Li  Li0  1  0.00689900  0.99310100  0.25000000  1
  Li  Li1  1  0.99310100  0.00689900  0.75000000  1
  Fe  Fe0  1  0.94413100  0.63242900  0.12565300  1
  Fe  Fe1  1  0.26728700  0.73271300  0.25000000  1
  Fe  Fe2  1  0.36757100  0.05586900  0.37434700  1
  Fe  Fe3  1  0.49939600  0.50060400  0.25000000  1
  Fe  Fe4  1  0.63242900  0.94413100  0.62565300  1
  Fe  Fe5  1  0.05586900  0.36757100  0.87434700  1
  Fe  Fe6  1  0.50060400  0.49939600  0.75000000  1
  Fe  Fe7  1  0.73271300  0.26728700  0.75000000  1
  P  P0  1  0.70561700  0.29438300  0.25000000  1
  P  P1  1  0.88877700  0.66907600  0.61828700  1
  P  P2  1  0.11122300  0.33092400  0.38171300  1
  P  P3  1  0.33092400  0.11122300  0.88171300  1
  P  P4  1  0.29438300  0.70561700  0.75000000  1
  P  P5  1  0.66907600  0.88877700  0.11828700  1
  O  O0  1  0.85103400  0.83921500  0.59576300  1
  O  O1  1  0.72852500  0.47435000  0.24287400  1
  O  O2  1  0.27147500  0.52565000  0.75712600  1
  O  O3  1  0.73452500  0.19342600  0.46317500  1
  O  O4  1  0.47435000  0.72852500  0.74287400  1
  O  O5  1  0.60711300  0.95973500  0.30758200  1
  O  O6  1  0.19342600  0.73452500  0.96317500  1
  O  O7  1  0.16078500  0.14896600  0.90423700  1
  O  O8  1  0.80657400  0.26547500  0.03682500  1
  O  O9  1  0.83921500  0.85103400  0.09576300  1
  O  O10  1  0.04026500  0.39288700  0.19241800  1
  O  O11  1  0.31843800  0.98990400  0.11300200  1
  O  O12  1  0.39288700  0.04026500  0.69241800  1
  O  O13  1  0.01009600  0.68156200  0.38699800  1
  O  O14  1  0.26275600  0.46299200  0.33448800  1
  O  O15  1  0.95973500  0.60711300  0.80758200  1
  O  O16  1  0.14896600  0.16078500  0.40423700  1
  O  O17  1  0.46299200  0.26275600  0.83448800  1
  O  O18  1  0.26547500  0.80657400  0.53682500  1
  O  O19  1  0.68156200  0.01009600  0.88699800  1
  O  O20  1  0.52565000  0.27147500  0.25712600  1
  O  O21  1  0.53700800  0.73724400  0.16551200  1
  O  O22  1  0.98990400  0.31843800  0.61300200  1
  O  O23  1  0.73724400  0.53700800  0.66551200  1
loop_
_geom_bond_atom_site_label_1
_geom_bond_atom_site_label_2
_geom_bond_distance
_geom_bond_site_symmetry_2
Li0 O0 2.251079 1_455
Li0 O7 2.251079 1_564
Li0 O9 2.453411 1_455
Li0 O16 2.453411 1_565
Li1 O16 2.251079 1_655
Li1 O9 2.251079 1_546
Li1 O7 2.453411 1_655
Li1 O0 2.453411 1_545
Fe0 O1 2.058923 1_555
Fe0 O13 2.104838 1_655
Fe0 O15 2.136838 1_554
Fe0 O6 2.137893 1_654
Fe0 O9 2.210354 1_555
Fe0 O10 2.335059 1_655
Fe1 O13 2.148553 1_555
Fe1 O11 2.148553 1_555
Fe1 O6 2.162605 1_554
Fe1 O18 2.162605 1_555
Fe1 O14 2.287711 1_555
Fe1 O21 2.287711 1_555
Fe2 O20 2.058923 1_555
Fe2 O11 2.104838 1_545
Fe2 O12 2.136838 1_555
Fe2 O18 2.137893 1_545
Fe2 O16 2.210354 1_555
Fe2 O5 2.335059 1_545
Fe3 O21 1.978061 1_555
Fe3 O14 1.978061 1_555
Fe3 O20 2.053024 1_555
Fe3 O1 2.053024 1_555
Fe4 O4 2.058923 1_555
Fe4 O19 2.104838 1_565
Fe4 O5 2.136838 1_555
Fe4 O3 2.137893 1_565
Fe4 O0 2.210354 1_555
Fe4 O12 2.335059 1_565
Fe5 O2 2.058923 1_555
Fe5 O22 2.104838 1_455
Fe5 O10 2.136838 1_556
Fe5 O8 2.137893 1_456
Fe5 O7 2.210354 1_555
Fe5 O15 2.335059 1_455
Fe6 O23 1.978061 1_555
Fe6 O17 1.978061 1_555
Fe6 O4 2.053024 1_555
Fe6 O2 2.053024 1_555
Fe7 O19 2.148553 1_555
Fe7 O22 2.148553 1_555
Fe7 O8 2.162605 1_556
Fe7 O3 2.162605 1_555
Fe7 O17 2.287711 1_555
Fe7 O23 2.287711 1_555
O0 P1 1.550001 1_555
O1 P0 1.571893 1_555
O2 P4 1.571893 1_555
O3 P0 1.541703 1_555
O4 P4 1.571893 1_555
O5 P5 1.540523 1_555
O6 P4 1.541703 1_555
O7 P3 1.550001 1_555
O8 P0 1.541703 1_555
O9 P5 1.550001 1_555
O10 P2 1.540523 1_555
O11 P3 1.564780 1_564
O12 P3 1.540523 1_555
O13 P1 1.564780 1_455
O14 P2 1.586666 1_555
O15 P1 1.540523 1_555
O16 P2 1.550001 1_555
O17 P3 1.586666 1_555
O18 P4 1.541703 1_555
O19 P5 1.564780 1_546
O20 P0 1.571893 1_555
O21 P5 1.586666 1_555
O22 P2 1.564780 1_655
O23 P1 1.586666 1_555
