# generated using pymatgen
data_MgMn6(OF)6
_symmetry_space_group_name_H-M   'P 1'
_cell_length_a   5.00008935
_cell_length_b   4.88110514
_cell_length_c   9.42013850
_cell_angle_alpha   91.72798944
_cell_angle_beta   91.18390296
_cell_angle_gamma   88.80162822
_symmetry_Int_Tables_number   1
_chemical_formula_structural   MgMn6(OF)6
_chemical_formula_sum   'Mg1 Mn6 O6 F6'
_cell_volume   229.70656722
_cell_formula_units_Z   1
loop_
 _symmetry_equiv_pos_site_id
 _symmetry_equiv_pos_as_xyz
  1  'x, y, z'
loop_
 _atom_site_type_symbol
 _atom_site_label
 _atom_site_symmetry_multiplicity
 _atom_site_fract_x
 _atom_site_fract_y
 _atom_site_fract_z
 _atom_site_occupancy
  Mg  Mg0  1  0.99333500  0.50152100  0.49950500  1
  Mn  Mn0  1  0.98432700  0.95499000  0.99548200  1
  Mn  Mn1  1  0.98466600  0.96548000  0.31605500  1
  Mn  Mn2  1  0.07022300  0.02987100  0.67790400  1
  Mn  Mn3  1  0.47888000  0.52675300  0.83150600  1
  Mn  Mn4  1  0.55959500  0.47281300  0.15410400  1
  Mn  Mn5  1  0.48516900  0.55986400  0.49496600  1
  O  O0  1  0.19651200  0.83875800  0.48401000  1
  O  O1  1  0.20949900  0.81573900  0.84169600  1
  O  O2  1  0.28817100  0.38678200  0.64578200  1
  O  O3  1  0.70712400  0.66578900  0.98393000  1
  O  O4  1  0.72600100  0.65399600  0.34732800  1
  O  O5  1  0.80697400  0.13414500  0.15893900  1
  F  F0  1  0.23078000  0.77620900  0.16652900  1
  F  F1  1  0.27614900  0.28263600  0.00068600  1
  F  F2  1  0.22943900  0.32018500  0.34659700  1
  F  F3  1  0.75963700  0.68698800  0.64875600  1
  F  F4  1  0.76200400  0.19592200  0.50136300  1
  F  F5  1  0.76540600  0.20378000  0.81458900  1
loop_
_geom_bond_atom_site_label_1
_geom_bond_atom_site_label_2
_geom_bond_distance
_geom_bond_site_symmetry_2
Mg0 O0 1.963044 1_655
Mg0 O2 2.076958 1_655
Mg0 O4 2.083076 1_555
Mn0 O1 1.950459 1_655
Mn0 O5 1.965913 1_566
Mn0 O3 1.997990 1_555
Mn1 O5 1.909523 1_565
Mn1 O0 1.992535 1_655
Mn1 O4 2.048443 1_555
Mn2 O1 1.995118 1_545
Mn2 O2 2.106882 1_555
Mn2 O0 2.127282 1_545
Mn3 O3 1.931473 1_555
Mn3 O1 1.931541 1_555
Mn3 O2 2.079229 1_555
Mn4 O3 2.042104 1_554
Mn4 O5 2.044842 1_555
Mn4 O4 2.158389 1_555
Mn5 O4 1.930361 1_555
Mn5 O0 1.966494 1_555
Mn5 O2 1.966574 1_555
F0 Mn1 2.073037 1_455
F0 Mn4 2.192150 1_555
F0 Mn0 2.198650 1_454
F1 Mn0 2.186112 1_444
F1 Mn4 2.201918 1_555
F1 Mn3 2.284520 1_554
F2 Mg0 2.049776 1_455
F2 Mn1 2.149953 1_445
F2 Mn5 2.201640 1_555
F2 Mn4 2.612450 1_555
F3 Mg0 2.026962 1_555
F3 Mn5 2.065540 1_555
F3 Mn2 2.313341 1_665
F3 Mn3 2.402720 1_555
F4 Mg0 1.907311 1_555
F4 Mn5 2.230590 1_555
F4 Mn1 2.336970 1_545
F4 Mn2 2.391825 1_655
F5 Mn3 2.112570 1_555
F5 Mn2 2.159270 1_655
F5 Mn0 2.359822 1_545
