# generated using pymatgen
data_K6Mg(SbS4)2
_symmetry_space_group_name_H-M   'P 1'
_cell_length_a   7.97123865
_cell_length_b   8.35656069
_cell_length_c   8.35656070
_cell_angle_alpha   93.44884107
_cell_angle_beta   95.48307708
_cell_angle_gamma   84.51692292
_symmetry_Int_Tables_number   1
_chemical_formula_structural   K6Mg(SbS4)2
_chemical_formula_sum   'K6 Mg1 Sb2 S8'
_cell_volume   550.83425679
_cell_formula_units_Z   1
loop_
 _symmetry_equiv_pos_site_id
 _symmetry_equiv_pos_as_xyz
  1  'x, y, z'
loop_
 _atom_site_type_symbol
 _atom_site_label
 _atom_site_symmetry_multiplicity
 _atom_site_fract_x
 _atom_site_fract_y
 _atom_site_fract_z
 _atom_site_occupancy
  K  K0  1  0.01674165  0.30094045  0.69905955  1
  K  K1  1  0.52957482  0.66630947  0.33369053  1
  K  K2  1  0.43475124  0.20968723  0.30592879  1
  K  K3  1  0.96413429  0.81192602  0.70789413  1
  K  K4  1  0.43475124  0.69407121  0.79031277  1
  K  K5  1  0.96413429  0.29210587  0.18807398  1
  Mg  Mg0  1  0.68027289  0.91051617  0.08948383  1
  Sb  Sb0  1  0.51052801  0.22777525  0.77222475  1
  Sb  Sb1  1  0.05736367  0.75892993  0.24107007  1
  S  S0  1  0.11254106  0.55424986  0.44575014  1
  S  S1  1  0.62567940  0.39920499  0.60079501  1
  S  S2  1  0.38517493  0.91190181  0.08809819  1
  S  S3  1  0.76944710  0.10005613  0.89994387  1
  S  S4  1  0.84356725  0.96435617  0.35740160  1
  S  S5  1  0.34751895  0.04513344  0.61476241  1
  S  S6  1  0.84356725  0.64259840  0.03564383  1
  S  S7  1  0.34751895  0.38523759  0.95486656  1
loop_
_geom_bond_atom_site_label_1
_geom_bond_atom_site_label_2
_geom_bond_distance
_geom_bond_site_symmetry_2
K0 S1 3.188826 1_455
K0 S0 3.271349 1_555
K0 S5 3.333872 1_555
K0 S7 3.333872 1_555
K0 S3 3.335522 1_455
K1 S2 3.058220 1_555
K1 S1 3.239917 1_555
K1 S4 3.680256 1_555
K1 S6 3.680256 1_555
K2 S2 3.027808 1_545
K2 S5 3.160306 1_555
K2 S1 3.189124 1_555
K2 S7 3.342910 1_554
K2 S4 3.683625 1_545
K3 S3 3.174644 1_565
K3 S0 3.205594 1_655
K3 S4 3.286596 1_555
K3 S6 3.414149 1_556
K4 S2 3.027808 1_556
K4 S7 3.160306 1_555
K4 S1 3.189124 1_555
K4 S5 3.342910 1_565
K4 S6 3.683625 1_556
K5 S3 3.174644 1_554
K5 S0 3.205594 1_655
K5 S6 3.286596 1_555
K5 S4 3.414149 1_545
Mg0 S2 2.350143 1_555
Mg0 S3 2.500986 1_564
Mg0 S6 2.518548 1_555
Mg0 S4 2.518548 1_555
S0 Sb1 2.471636 1_555
S1 Sb0 2.386736 1_555
S3 Sb0 2.415174 1_555
S4 Sb1 2.520528 1_655
S5 Sb0 2.357949 1_555
S6 Sb1 2.520528 1_655
S7 Sb0 2.357949 1_555
