# generated using pymatgen
data_Na4TiGaSi2PO12
_symmetry_space_group_name_H-M   'P 1'
_cell_length_a   8.93455495
_cell_length_b   8.93455464
_cell_length_c   21.88412643
_cell_angle_alpha   90.02223881
_cell_angle_beta   89.97776119
_cell_angle_gamma   119.62837832
_symmetry_Int_Tables_number   1
_chemical_formula_structural   Na4TiGaSi2PO12
_chemical_formula_sum   'Na24 Ti6 Ga6 Si12 P6 O72'
_cell_volume   1518.51746770
_cell_formula_units_Z   6
loop_
 _symmetry_equiv_pos_site_id
 _symmetry_equiv_pos_as_xyz
  1  'x, y, z'
loop_
 _atom_site_type_symbol
 _atom_site_label
 _atom_site_symmetry_multiplicity
 _atom_site_fract_x
 _atom_site_fract_y
 _atom_site_fract_z
 _atom_site_occupancy
  Na  Na0  1  0.63659792  0.00379958  0.25020193  1
  Na  Na1  1  0.37134012  0.36902507  0.24708882  1
  Na  Na2  1  0.99221294  0.62641445  0.24936466  1
  Na  Na3  1  0.63097493  0.62865988  0.74708882  1
  Na  Na4  1  0.99620042  0.36340208  0.75020193  1
  Na  Na5  1  0.37358555  0.00778706  0.74936466  1
  Na  Na6  1  0.30326492  0.33713258  0.58353493  1
  Na  Na7  1  0.03800712  0.70235807  0.58042182  1
  Na  Na8  1  0.65887994  0.95974745  0.58269766  1
  Na  Na9  1  0.29764193  0.96199288  0.08042182  1
  Na  Na10  1  0.66286742  0.69673508  0.08353493  1
  Na  Na11  1  0.04025255  0.34112006  0.08269766  1
  Na  Na12  1  0.96993092  0.67046658  0.91686893  1
  Na  Na13  1  0.70467312  0.03569207  0.91375582  1
  Na  Na14  1  0.32554594  0.29308145  0.91603166  1
  Na  Na15  1  0.96430793  0.29532688  0.41375582  1
  Na  Na16  1  0.32953342  0.03006908  0.41686893  1
  Na  Na17  1  0.70691855  0.67445406  0.41603166  1
  Na  Na18  1  0.99738783  0.99493727  0.49810892  1
  Na  Na19  1  0.00506273  0.00261217  0.99810892  1
  Na  Na20  1  0.66405483  0.32827027  0.83144192  1
  Na  Na21  1  0.67172973  0.33594517  0.33144192  1
  Na  Na22  1  0.33072083  0.66160427  0.16477592  1
  Na  Na23  1  0.33839573  0.66927917  0.66477592  1
  Ti  Ti0  1  0.99821966  0.00042491  0.64781730  1
  Ti  Ti1  1  0.99957509  0.00178034  0.14781730  1
  Ti  Ti2  1  0.66488666  0.33375791  0.98115030  1
  Ti  Ti3  1  0.66624209  0.33511334  0.48115030  1
  Ti  Ti4  1  0.33155266  0.66709191  0.31448430  1
  Ti  Ti5  1  0.33290809  0.66844734  0.81448430  1
  Ga  Ga0  1  0.98853660  0.99152848  0.35073863  1
  Ga  Ga1  1  0.00847152  0.01146340  0.85073863  1
  Ga  Ga2  1  0.65520360  0.32486148  0.68407163  1
  Ga  Ga3  1  0.67513852  0.34479640  0.18407163  1
  Ga  Ga4  1  0.32186960  0.65819548  0.01740563  1
  Ga  Ga5  1  0.34180452  0.67813040  0.51740563  1
  Si  Si0  1  0.70749135  0.70633010  0.25053791  1
  Si  Si1  1  0.99763095  0.29004154  0.25110391  1
  Si  Si2  1  0.29366990  0.29250865  0.75053791  1
  Si  Si3  1  0.70995846  0.00236905  0.75110391  1
  Si  Si4  1  0.37415835  0.03966310  0.58387091  1
  Si  Si5  1  0.66429795  0.62337454  0.58443691  1
  Si  Si6  1  0.96033690  0.62584165  0.08387091  1
  Si  Si7  1  0.37662546  0.33570205  0.08443691  1
  Si  Si8  1  0.04082435  0.37299710  0.91720491  1
  Si  Si9  1  0.33096395  0.95670854  0.91777091  1
  Si  Si10  1  0.62700290  0.95917565  0.41720491  1
  Si  Si11  1  0.04329146  0.66903605  0.41777091  1
  P  P0  1  0.28930286  0.00100085  0.25096053  1
  P  P1  1  0.99899915  0.71069714  0.75096053  1
  P  P2  1  0.95596986  0.33433385  0.58429353  1
  P  P3  1  0.66566615  0.04403014  0.08429353  1
  P  P4  1  0.62263586  0.66766785  0.91762753  1
  P  P5  1  0.33233215  0.37736414  0.41762753  1
  O  O0  1  0.20971430  0.03467767  0.30828992  1
  O  O1  1  0.82965244  0.78652640  0.31022981  1
  O  O2  1  0.96665380  0.17096124  0.31106861  1
  O  O3  1  0.21347360  0.17034756  0.81022981  1
  O  O4  1  0.96532233  0.79028570  0.80828992  1
  O  O5  1  0.82903876  0.03334620  0.81106861  1
  O  O6  1  0.80193062  0.96619728  0.69089322  1
  O  O7  1  0.16434791  0.19733050  0.69111560  1
  O  O8  1  0.03087047  0.82806104  0.69360212  1
  O  O9  1  0.80266950  0.83565209  0.19111560  1
  O  O10  1  0.03380272  0.19806938  0.19089322  1
  O  O11  1  0.17193896  0.96912953  0.19360212  1
  O  O12  1  0.87638130  0.36801067  0.64162292  1
  O  O13  1  0.49631944  0.11985940  0.64356281  1
  O  O14  1  0.63332080  0.50429424  0.64440161  1
  O  O15  1  0.88014060  0.50368056  0.14356281  1
  O  O16  1  0.63198933  0.12361870  0.14162292  1
  O  O17  1  0.49570576  0.36667920  0.14440161  1
  O  O18  1  0.46859762  0.29953028  0.02422622  1
  O  O19  1  0.83101491  0.53066350  0.02444860  1
  O  O20  1  0.69753747  0.16139404  0.02693512  1
  O  O21  1  0.46933650  0.16898509  0.52444860  1
  O  O22  1  0.70046972  0.53140238  0.52422622  1
  O  O23  1  0.83860596  0.30246253  0.52693512  1
  O  O24  1  0.54304730  0.70134467  0.97495692  1
  O  O25  1  0.16298544  0.45319340  0.97689681  1
  O  O26  1  0.29998680  0.83762824  0.97773561  1
  O  O27  1  0.54680660  0.83701456  0.47689681  1
  O  O28  1  0.29865533  0.45695270  0.47495692  1
  O  O29  1  0.16237176  0.70001320  0.47773561  1
  O  O30  1  0.13526362  0.63286428  0.35756022  1
  O  O31  1  0.49768091  0.86399750  0.35778260  1
  O  O32  1  0.36420347  0.49472804  0.36026912  1
  O  O33  1  0.13600250  0.50231909  0.85778260  1
  O  O34  1  0.36713572  0.86473638  0.85756022  1
  O  O35  1  0.50527196  0.63579653  0.86026912  1
  O  O36  1  0.02826644  0.84359606  0.41127563  1
  O  O37  1  0.82020626  0.98331991  0.41213497  1
  O  O38  1  0.17531352  0.19546911  0.41110702  1
  O  O39  1  0.01668009  0.17979374  0.91213497  1
  O  O40  1  0.15640394  0.97173356  0.91127563  1
  O  O41  1  0.80453089  0.82468648  0.91110702  1
  O  O42  1  0.96943093  0.16636098  0.58787209  1
  O  O43  1  0.18342859  0.02680912  0.58833438  1
  O  O44  1  0.83956886  0.81529280  0.58815401  1
  O  O45  1  0.97319088  0.81657141  0.08833438  1
  O  O46  1  0.83363902  0.03056907  0.08787209  1
  O  O47  1  0.18470720  0.16043114  0.08815401  1
  O  O48  1  0.69493344  0.17692906  0.74460863  1
  O  O49  1  0.48687326  0.31665291  0.74546797  1
  O  O50  1  0.84198052  0.52880211  0.74444002  1
  O  O51  1  0.68334709  0.51312674  0.24546797  1
  O  O52  1  0.82307094  0.30506656  0.24460863  1
  O  O53  1  0.47119789  0.15801948  0.24444002  1
  O  O54  1  0.63609793  0.49969398  0.92120509  1
  O  O55  1  0.85009559  0.36014212  0.92166738  1
  O  O56  1  0.50623586  0.14862580  0.92148701  1
  O  O57  1  0.63985788  0.14990441  0.42166738  1
  O  O58  1  0.50030602  0.36390207  0.42120509  1
  O  O59  1  0.85137420  0.49376414  0.42148701  1
  O  O60  1  0.36159944  0.51026306  0.07794263  1
  O  O61  1  0.15353926  0.64998691  0.07880197  1
  O  O62  1  0.50864652  0.86213611  0.07777402  1
  O  O63  1  0.35001309  0.84646074  0.57880197  1
  O  O64  1  0.48973694  0.63840056  0.57794263  1
  O  O65  1  0.13786389  0.49135348  0.57777402  1
  O  O66  1  0.30276393  0.83302798  0.25453909  1
  O  O67  1  0.51676159  0.69347612  0.25500138  1
  O  O68  1  0.17290186  0.48195980  0.25482101  1
  O  O69  1  0.30652388  0.48323841  0.75500138  1
  O  O70  1  0.16697202  0.69723607  0.75453909  1
  O  O71  1  0.51804020  0.82709814  0.75482101  1
loop_
_geom_bond_atom_site_label_1
_geom_bond_atom_site_label_2
_geom_bond_distance
_geom_bond_site_symmetry_2
Na0 O52 2.366848 1_555
Na0 O67 2.430985 1_545
Na0 O53 2.472217 1_555
Na0 O66 2.594898 1_545
Na0 O16 2.615241 1_555
Na0 O31 2.666570 1_545
Na0 O9 2.886447 1_545
Na0 O2 2.889242 1_555
Na1 O51 2.425105 1_555
Na1 O68 2.441022 1_555
Na1 O53 2.452838 1_555
Na1 O17 2.511204 1_555
Na1 O67 2.529248 1_555
Na1 O32 2.732899 1_555
Na1 O10 2.896045 1_555
Na1 O0 2.922182 1_555
Na2 O51 2.425989 1_555
Na2 O66 2.460669 1_655
Na2 O52 2.499539 1_555
Na2 O68 2.519247 1_655
Na2 O15 2.545637 1_555
Na2 O30 2.678167 1_655
Na2 O1 2.825139 1_555
Na2 O11 2.929742 1_655
Na3 O49 2.425105 1_555
Na3 O71 2.441022 1_555
Na3 O50 2.452838 1_555
Na3 O14 2.511204 1_555
Na3 O69 2.529248 1_555
Na3 O35 2.732899 1_555
Na3 O6 2.896045 1_555
Na3 O4 2.922182 1_555
Na4 O48 2.366848 1_555
Na4 O69 2.430985 1_655
Na4 O50 2.472217 1_555
Na4 O70 2.594898 1_655
Na4 O12 2.615241 1_555
Na4 O33 2.666570 1_655
Na4 O7 2.886447 1_655
Na4 O5 2.889242 1_555
Na5 O49 2.425989 1_555
Na5 O70 2.460669 1_545
Na5 O48 2.499539 1_555
Na5 O71 2.519247 1_545
Na5 O13 2.545637 1_555
Na5 O34 2.678167 1_545
Na5 O3 2.825139 1_555
Na5 O8 2.929742 1_545
Na6 O64 2.366853 1_555
Na6 O43 2.430985 1_555
Na6 O65 2.472232 1_555
Na6 O42 2.594898 1_455
Na6 O28 2.615227 1_555
Na6 O7 2.666570 1_555
Na6 O21 2.886447 1_555
Na6 O14 2.889242 1_555
Na7 O63 2.425097 1_555
Na7 O44 2.441022 1_455
Na7 O65 2.452822 1_555
Na7 O29 2.511179 1_555
Na7 O43 2.529248 1_565
Na7 O8 2.732899 1_555
Na7 O22 2.896045 1_455
Na7 O12 2.922182 1_455
Na8 O63 2.425998 1_555
Na8 O42 2.460669 1_565
Na8 O64 2.499531 1_555
Na8 O44 2.519247 1_555
Na8 O27 2.545616 1_555
Na8 O6 2.678167 1_555
Na8 O13 2.825139 1_565
Na8 O23 2.929742 1_565
Na9 O61 2.425097 1_555
Na9 O47 2.441022 1_565
Na9 O62 2.452822 1_555
Na9 O26 2.511179 1_554
Na9 O45 2.529248 1_455
Na9 O11 2.732899 1_555
Na9 O18 2.896045 1_565
Na9 O16 2.922182 1_565
Na10 O60 2.366853 1_555
Na10 O45 2.430985 1_555
Na10 O62 2.472232 1_555
Na10 O46 2.594898 1_565
Na10 O24 2.615227 1_554
Na10 O9 2.666570 1_555
Na10 O19 2.886447 1_555
Na10 O17 2.889242 1_555
Na11 O61 2.425998 1_555
Na11 O46 2.460669 1_455
Na11 O60 2.499531 1_555
Na11 O47 2.519247 1_555
Na11 O25 2.545616 1_554
Na11 O10 2.678167 1_555
Na11 O15 2.825139 1_455
Na11 O20 2.929742 1_455
Na12 O40 2.366848 1_655
Na12 O55 2.430993 1_555
Na12 O41 2.472217 1_555
Na12 O54 2.594890 1_555
Na12 O4 2.615241 1_555
Na12 O19 2.666550 1_556
Na12 O33 2.886447 1_655
Na12 O26 2.889242 1_655
Na13 O39 2.425105 1_655
Na13 O56 2.441005 1_555
Na13 O41 2.452838 1_545
Na13 O5 2.511204 1_555
Na13 O55 2.529238 1_555
Na13 O20 2.732874 1_556
Na13 O34 2.896045 1_545
Na13 O24 2.922182 1_545
Na14 O39 2.425989 1_555
Na14 O54 2.460673 1_555
Na14 O40 2.499539 1_545
Na14 O56 2.519261 1_555
Na14 O3 2.545637 1_555
Na14 O18 2.678154 1_556
Na14 O25 2.825139 1_555
Na14 O35 2.929742 1_555
Na15 O37 2.425105 1_545
Na15 O59 2.441005 1_555
Na15 O38 2.452838 1_655
Na15 O2 2.511204 1_555
Na15 O57 2.529238 1_555
Na15 O23 2.732874 1_555
Na15 O30 2.896045 1_655
Na15 O28 2.922182 1_655
Na16 O36 2.366848 1_545
Na16 O57 2.430993 1_555
Na16 O38 2.472217 1_555
Na16 O58 2.594889 1_555
Na16 O0 2.615241 1_555
Na16 O21 2.666550 1_555
Na16 O31 2.886447 1_545
Na16 O29 2.889242 1_545
Na17 O37 2.425989 1_555
Na17 O58 2.460673 1_555
Na17 O36 2.499539 1_655
Na17 O59 2.519261 1_555
Na17 O1 2.545637 1_555
Na17 O22 2.678154 1_555
Na17 O27 2.825139 1_555
Na17 O32 2.929742 1_555
Na18 O36 2.425271 1_655
Na18 O37 2.428249 1_555
Na18 O44 2.492002 1_555
Na18 O43 2.505345 1_665
Na18 O38 2.558593 1_665
Na18 O42 2.577312 1_565
Na19 O40 2.425271 1_545
Na19 O39 2.428249 1_555
Na19 O47 2.492002 1_556
Na19 O45 2.505345 1_446
Na19 O41 2.558593 1_445
Na19 O46 2.577312 1_456
Na20 O48 2.425271 1_555
Na20 O49 2.428249 1_555
Na20 O56 2.492002 1_555
Na20 O55 2.505345 1_555
Na20 O50 2.558593 1_555
Na20 O54 2.577312 1_555
Na21 O52 2.425271 1_555
Na21 O51 2.428249 1_555
Na21 O59 2.492002 1_555
Na21 O57 2.505345 1_555
Na21 O53 2.558593 1_555
Na21 O58 2.577312 1_555
Na22 O60 2.425271 1_555
Na22 O61 2.428249 1_555
Na22 O68 2.492002 1_555
Na22 O67 2.505345 1_555
Na22 O62 2.558593 1_555
Na22 O66 2.577312 1_555
Na23 O64 2.425271 1_555
Na23 O63 2.428249 1_555
Na23 O71 2.492002 1_555
Na23 O69 2.505345 1_555
Na23 O65 2.558593 1_555
Na23 O70 2.577312 1_555
Ga0 O1 1.893333 1_555
Ga0 O2 1.916538 1_565
Ga0 O37 1.990475 1_555
Ga0 O36 2.023270 1_655
Ga0 O0 2.040157 1_665
Ga0 O38 2.200820 1_665
Ga1 O3 1.893333 1_555
Ga1 O5 1.916538 1_455
Ga1 O39 1.990474 1_555
Ga1 O40 2.023270 1_545
Ga1 O4 2.040157 1_445
Ga1 O41 2.200820 1_445
Ga2 O13 1.893333 1_555
Ga2 O14 1.916538 1_555
Ga2 O49 1.990475 1_555
Ga2 O48 2.023270 1_555
Ga2 O12 2.040157 1_555
Ga2 O50 2.200820 1_555
Ga3 O15 1.893333 1_555
Ga3 O17 1.916538 1_555
Ga3 O51 1.990474 1_555
Ga3 O52 2.023270 1_555
Ga3 O16 2.040157 1_555
Ga3 O53 2.200820 1_555
Ga4 O25 1.893333 1_554
Ga4 O26 1.916538 1_554
Ga4 O61 1.990475 1_555
Ga4 O60 2.023270 1_555
Ga4 O24 2.040157 1_554
Ga4 O62 2.200820 1_555
Ga5 O27 1.893333 1_555
Ga5 O29 1.916538 1_555
Ga5 O63 1.990474 1_555
Ga5 O64 2.023270 1_555
Ga5 O28 2.040157 1_555
Ga5 O65 2.200820 1_555
O0 P0 1.542976 1_555
O1 Si0 1.624266 1_555
O2 Si1 1.624890 1_555
O3 Si2 1.624266 1_555
O4 P1 1.542976 1_555
O5 Si3 1.624890 1_555
O6 Si3 1.666528 1_565
O6 Ti0 1.877893 1_565
O7 Si2 1.666744 1_555
O7 Ti0 1.901023 1_455
O8 P1 1.569003 1_455
O8 Ti0 1.976417 1_465
O9 Si0 1.666744 1_555
O9 Ti1 1.901023 1_565
O10 Si1 1.666528 1_455
O10 Ti1 1.877893 1_455
O11 P0 1.569003 1_565
O11 Ti1 1.976417 1_465
O12 P2 1.542976 1_555
O13 Si4 1.624266 1_555
O14 Si5 1.624890 1_555
O15 Si6 1.624266 1_555
O16 P3 1.542976 1_555
O17 Si7 1.624890 1_555
O18 Si7 1.666528 1_555
O18 Ti2 1.877893 1_554
O19 Si6 1.666744 1_555
O19 Ti2 1.901023 1_554
O20 P3 1.569003 1_555
O20 Ti2 1.976417 1_554
O21 Si4 1.666744 1_555
O21 Ti3 1.901023 1_555
O22 Si5 1.666528 1_555
O22 Ti3 1.877893 1_555
O23 P2 1.569003 1_555
O23 Ti3 1.976417 1_555
O24 P4 1.542976 1_555
O25 Si8 1.624266 1_555
O26 Si9 1.624890 1_555
O27 Si10 1.624266 1_555
O28 P5 1.542976 1_555
O29 Si11 1.624890 1_555
O30 Si11 1.666528 1_555
O30 Ti4 1.877893 1_555
O31 Si10 1.666744 1_555
O31 Ti4 1.901023 1_555
O32 P5 1.569003 1_555
O32 Ti4 1.976417 1_555
O33 Si8 1.666744 1_555
O33 Ti5 1.901023 1_555
O34 Si9 1.666528 1_555
O34 Ti5 1.877893 1_555
O35 P4 1.569003 1_555
O35 Ti5 1.976417 1_555
O36 Si11 1.636406 1_555
O37 Si10 1.634091 1_555
O38 P5 1.541203 1_555
O39 Si8 1.634091 1_555
O40 Si9 1.636406 1_555
O41 P4 1.541203 1_555
O42 P2 1.565710 1_555
O42 Ti0 2.089000 1_555
O43 Si4 1.653183 1_555
O43 Ti0 2.025137 1_455
O44 Si5 1.656540 1_555
O44 Ti0 2.032617 1_565
O45 Si6 1.653183 1_555
O45 Ti1 2.025137 1_565
O46 P3 1.565710 1_555
O46 Ti1 2.089000 1_555
O47 Si7 1.656540 1_555
O47 Ti1 2.032617 1_455
O48 Si3 1.636406 1_555
O49 Si2 1.634091 1_555
O50 P1 1.541203 1_555
O51 Si0 1.634091 1_555
O52 Si1 1.636406 1_555
O53 P0 1.541203 1_555
O54 P4 1.565723 1_555
O54 Ti2 2.089000 1_555
O55 Si8 1.653169 1_655
O55 Ti2 2.025137 1_555
O56 Si9 1.656537 1_545
O56 Ti2 2.032617 1_555
O57 Si10 1.653169 1_545
O57 Ti3 2.025137 1_555
O58 P5 1.565723 1_555
O58 Ti3 2.089000 1_555
O59 Si11 1.656537 1_655
O59 Ti3 2.032617 1_555
O60 Si7 1.636418 1_555
O61 Si6 1.634077 1_455
O62 P3 1.541199 1_565
O63 Si4 1.634077 1_565
O64 Si5 1.636418 1_555
O65 P2 1.541200 1_455
O66 P0 1.565710 1_565
O66 Ti4 2.089000 1_555
O67 Si0 1.653183 1_555
O67 Ti4 2.025137 1_555
O68 Si1 1.656540 1_455
O68 Ti4 2.032617 1_555
O69 Si2 1.653183 1_555
O69 Ti5 2.025137 1_555
O70 P1 1.565710 1_455
O70 Ti5 2.089000 1_555
O71 Si3 1.656540 1_565
O71 Ti5 2.032617 1_555
