# generated using pymatgen
data_Ba2HoMg(CuO2)4
_symmetry_space_group_name_H-M   'P 1'
_cell_length_a   3.74123500
_cell_length_b   4.04254671
_cell_length_c   14.86417598
_cell_angle_alpha   96.77942086
_cell_angle_beta   90.00000000
_cell_angle_gamma   90.00000000
_symmetry_Int_Tables_number   1
_chemical_formula_structural   Ba2HoMg(CuO2)4
_chemical_formula_sum   'Ba2 Ho1 Mg1 Cu4 O8'
_cell_volume   223.23567953
_cell_formula_units_Z   1
loop_
 _symmetry_equiv_pos_site_id
 _symmetry_equiv_pos_as_xyz
  1  'x, y, z'
loop_
 _atom_site_type_symbol
 _atom_site_label
 _atom_site_symmetry_multiplicity
 _atom_site_fract_x
 _atom_site_fract_y
 _atom_site_fract_z
 _atom_site_occupancy
  Ba  Ba0  1  0.50000000  0.38637200  0.75277100  1
  Ba  Ba1  1  0.50000000  0.61362800  0.24722900  1
  Ho  Ho0  1  0.50000000  0.50000000  0.00000000  1
  Mg  Mg0  1  0.50000000  0.50000000  0.50000000  1
  Cu  Cu0  1  0.00000000  0.94866000  0.89149400  1
  Cu  Cu1  1  0.00000000  0.05134000  0.10850600  1
  Cu  Cu2  1  0.00000000  0.83895500  0.58916800  1
  Cu  Cu3  1  0.00000000  0.16104500  0.41083200  1
  O  O0  1  0.00000000  0.29646700  0.55288300  1
  O  O1  1  0.00000000  0.70353300  0.44711700  1
  O  O2  1  0.00000000  0.45206400  0.90036500  1
  O  O3  1  0.00000000  0.54793600  0.09963500  1
  O  O4  1  0.50000000  0.95539100  0.90571100  1
  O  O5  1  0.50000000  0.04460900  0.09428900  1
  O  O6  1  0.00000000  0.86892900  0.71477100  1
  O  O7  1  0.00000000  0.13107100  0.28522900  1
loop_
_geom_bond_atom_site_label_1
_geom_bond_atom_site_label_2
_geom_bond_distance
_geom_bond_site_symmetry_2
Ba0 O6 2.807821 1_555
Ba0 O6 2.807821 1_655
Ba0 O6 2.813339 1_545
Ba0 O6 2.813339 1_645
Ba0 O2 2.871449 1_655
Ba0 O2 2.871449 1_555
Ba0 O4 3.023011 1_545
Ba0 O4 3.037223 1_555
Ba1 O7 2.807821 1_655
Ba1 O7 2.807821 1_555
Ba1 O7 2.813339 1_565
Ba1 O7 2.813339 1_665
Ba1 O3 2.871449 1_555
Ba1 O3 2.871449 1_655
Ba1 O5 3.023011 1_565
Ba1 O5 3.037223 1_555
Ho0 O3 2.379568 1_555
Ho0 O3 2.379568 1_655
Ho0 O2 2.379568 1_554
Ho0 O2 2.379568 1_654
Ho0 O5 2.441822 1_555
Ho0 O4 2.441822 1_554
Ho0 O5 2.466345 1_565
Ho0 O4 2.466345 1_544
Mg0 O1 2.224137 1_655
Mg0 O0 2.224137 1_555
Mg0 O0 2.224137 1_655
Mg0 O1 2.224137 1_555
Cu0 O4 1.882352 1_455
Cu0 O4 1.882352 1_555
Cu0 O2 2.023709 1_565
Cu0 O2 2.027311 1_555
Cu0 O6 2.608503 1_555
Cu1 O5 1.882352 1_555
Cu1 O5 1.882352 1_455
Cu1 O3 2.023709 1_545
Cu1 O3 2.027311 1_555
Cu1 O7 2.608503 1_555
Cu2 O6 1.856584 1_555
Cu2 O0 1.986733 1_565
Cu2 O1 2.117806 1_555
Cu2 O0 2.195686 1_555
Cu3 O7 1.856584 1_555
Cu3 O1 1.986733 1_545
Cu3 O0 2.117806 1_555
Cu3 O1 2.195686 1_555
