# generated using pymatgen
data_Sr4MgIn2(SbO6)2
_symmetry_space_group_name_H-M   'P 1'
_cell_length_a   6.04888739
_cell_length_b   5.96640130
_cell_length_c   8.87424491
_cell_angle_alpha   89.90464618
_cell_angle_beta   83.45509092
_cell_angle_gamma   89.81981359
_symmetry_Int_Tables_number   1
_chemical_formula_structural   Sr4MgIn2(SbO6)2
_chemical_formula_sum   'Sr4 Mg1 In2 Sb2 O12'
_cell_volume   318.18317353
_cell_formula_units_Z   1
loop_
 _symmetry_equiv_pos_site_id
 _symmetry_equiv_pos_as_xyz
  1  'x, y, z'
loop_
 _atom_site_type_symbol
 _atom_site_label
 _atom_site_symmetry_multiplicity
 _atom_site_fract_x
 _atom_site_fract_y
 _atom_site_fract_z
 _atom_site_occupancy
  Sr  Sr0  1  0.95818000  0.02622200  0.73773100  1
  Sr  Sr1  1  0.43730400  0.55864800  0.69623700  1
  Sr  Sr2  1  0.96794900  0.95930700  0.24742600  1
  Sr  Sr3  1  0.50462900  0.46735700  0.28260700  1
  Mg  Mg0  1  0.71240700  0.43029500  0.93809500  1
  In  In0  1  0.96491100  0.49843300  0.49848600  1
  In  In1  1  0.51707500  0.97262300  0.03880200  1
  Sb  Sb0  1  0.47176900  0.00737500  0.49514100  1
  Sb  Sb1  1  0.10996700  0.50711600  0.03318500  1
  O  O0  1  0.68221600  0.73521000  0.44375100  1
  O  O1  1  0.71661700  0.68449900  0.07647500  1
  O  O2  1  0.83576100  0.47003000  0.72798400  1
  O  O3  1  0.25603500  0.27215800  0.54725000  1
  O  O4  1  0.40068300  0.33649500  0.99035300  1
  O  O5  1  0.54509500  0.97922900  0.70660300  1
  O  O6  1  0.10403100  0.53646900  0.25806300  1
  O  O7  1  0.39360800  0.03150400  0.27853700  1
  O  O8  1  0.23360800  0.80909300  0.97337700  1
  O  O9  1  0.20178100  0.78916700  0.54297800  1
  O  O10  1  0.82048300  0.14770600  0.01532600  1
  O  O11  1  0.73880700  0.21856400  0.43253000  1
loop_
_geom_bond_atom_site_label_1
_geom_bond_atom_site_label_2
_geom_bond_distance
_geom_bond_site_symmetry_2
Mg0 O2 1.942184 1_555
Mg0 O1 1.955141 1_556
Mg0 O10 1.957343 1_556
Mg0 O4 1.972341 1_555
In0 O2 2.103289 1_555
In0 O6 2.214065 1_655
In0 O11 2.280680 1_555
In0 O3 2.295159 1_655
In0 O0 2.308162 1_555
In0 O9 2.316170 1_655
In1 O10 2.104056 1_565
In1 O8 2.113875 1_554
In1 O1 2.144957 1_555
In1 O7 2.201348 1_565
In1 O4 2.334542 1_564
O0 Sb0 2.079045 1_565
O0 Sr3 2.474162 1_555
O0 Sr2 2.670333 1_555
O0 Sr1 2.751376 1_555
O1 Sr3 2.477254 1_555
O1 Sb1 2.589598 1_655
O1 Sr2 2.801925 1_555
O2 Sr1 2.512843 1_555
O2 Sr0 2.751162 1_555
O3 Sb0 2.065045 1_555
O3 Sr1 2.494369 1_555
O3 Sr0 2.751488 1_455
O3 Sr3 2.886154 1_555
O4 Sb1 2.027509 1_556
O4 Sr3 2.848321 1_556
O4 Sr1 2.911499 1_555
O5 Sb0 1.983596 1_565
O5 Sr0 2.561339 1_565
O5 Sr1 2.599073 1_555
O6 Sb1 1.999815 1_555
O6 Sr3 2.490576 1_555
O6 Sr2 2.656118 1_455
O7 Sb0 2.035907 1_555
O7 Sr2 2.657179 1_445
O7 Sr3 2.689160 1_555
O8 Sb1 2.000505 1_556
O8 Sr2 2.899538 1_456
O8 Sr1 3.018193 1_555
O8 Sr0 3.098160 1_465
O9 Sb0 2.096615 1_565
O9 Sr1 2.488812 1_555
O9 Sr0 2.563812 1_465
O10 Sr2 2.589677 1_545
O10 Sr0 2.611911 1_554
O11 Sb0 2.076398 1_555
O11 Sr3 2.527823 1_555
O11 Sr2 2.547175 1_545
