# generated using pymatgen
data_HoBi
_symmetry_space_group_name_H-M   'P 1'
_cell_length_a   4.44472418
_cell_length_b   4.44472377
_cell_length_c   4.44472439
_cell_angle_alpha   60.00001086
_cell_angle_beta   60.00001393
_cell_angle_gamma   60.00000631
_symmetry_Int_Tables_number   1
_chemical_formula_structural   HoBi
_chemical_formula_sum   'Ho1 Bi1'
_cell_volume   62.08969576
_cell_formula_units_Z   1
loop_
 _symmetry_equiv_pos_site_id
 _symmetry_equiv_pos_as_xyz
  1  'x, y, z'
loop_
 _atom_site_type_symbol
 _atom_site_label
 _atom_site_symmetry_multiplicity
 _atom_site_fract_x
 _atom_site_fract_y
 _atom_site_fract_z
 _atom_site_occupancy
  Ho  Ho0  1  -0.00000000  0.00000000  0.00000000  1
  Bi  Bi0  1  0.50000000  0.50000000  0.50000000  1
loop_
_geom_bond_atom_site_label_1
_geom_bond_atom_site_label_2
_geom_bond_distance
_geom_bond_site_symmetry_2
Bi0 Ho0 3.142895 1_656
Bi0 Ho0 3.142895 1_565
Bi0 Ho0 3.142895 1_566
Bi0 Ho0 3.142895 1_655
Bi0 Ho0 3.142895 1_556
Bi0 Ho0 3.142895 1_665
