# generated using pymatgen
data_Na3Y2In2P3(SO8)3
_symmetry_space_group_name_H-M   'P 1'
_cell_length_a   9.03735906
_cell_length_b   9.06029326
_cell_length_c   23.65100111
_cell_angle_alpha   89.46499547
_cell_angle_beta   90.46664545
_cell_angle_gamma   120.19448028
_symmetry_Int_Tables_number   1
_chemical_formula_structural   Na3Y2In2P3(SO8)3
_chemical_formula_sum   'Na9 Y6 In6 P9 S9 O72'
_cell_volume   1673.73666694
_cell_formula_units_Z   3
loop_
 _symmetry_equiv_pos_site_id
 _symmetry_equiv_pos_as_xyz
  1  'x, y, z'
loop_
 _atom_site_type_symbol
 _atom_site_label
 _atom_site_symmetry_multiplicity
 _atom_site_fract_x
 _atom_site_fract_y
 _atom_site_fract_z
 _atom_site_occupancy
  Na  Na0  1  0.34792251  0.34922784  0.25371494  1
  Na  Na1  1  0.68663019  0.02250166  0.91531162  1
  Na  Na2  1  0.98260834  0.31486449  0.41778253  1
  Na  Na3  1  0.01404450  0.99554419  0.50323859  1
  Na  Na4  1  0.00146771  0.98450594  0.99725349  1
  Na  Na5  1  0.65148965  0.33901566  0.82903266  1
  Na  Na6  1  0.66654350  0.33401339  0.33286708  1
  Na  Na7  1  0.33182954  0.69938905  0.16299102  1
  Na  Na8  1  0.33277263  0.66576506  0.66658966  1
  Y  Y0  1  0.00624971  0.99269361  0.35231123  1
  Y  Y1  1  0.99409177  0.00233624  0.14694989  1
  Y  Y2  1  0.67634308  0.32059221  0.18038823  1
  Y  Y3  1  0.66060393  0.33367789  0.97991647  1
  Y  Y4  1  0.66160135  0.33578542  0.48722181  1
  Y  Y5  1  0.32625734  0.67441670  0.31635001  1
  In  In0  1  0.99833940  0.99430291  0.84711294  1
  In  In1  1  0.99328017  0.00768118  0.65238436  1
  In  In2  1  0.67581561  0.32406633  0.68340053  1
  In  In3  1  0.34136006  0.68003670  0.01221741  1
  In  In4  1  0.32252565  0.65513999  0.51986673  1
  In  In5  1  0.34287508  0.67506852  0.81445310  1
  P  P0  1  0.30309002  0.00517389  0.24700705  1
  P  P1  1  0.00105857  0.29926622  0.25357538  1
  P  P2  1  0.70170068  0.00130773  0.75221196  1
  P  P3  1  0.97243696  0.33257756  0.58413850  1
  P  P4  1  0.65919648  0.01944472  0.07638454  1
  P  P5  1  0.63149113  0.67322684  0.91330257  1
  P  P6  1  0.32290589  0.95716895  0.91311542  1
  P  P7  1  0.33338312  0.37158009  0.41638795  1
  P  P8  1  0.03490143  0.66544499  0.42227595  1
  S  S0  1  0.69521393  0.69328185  0.24903131  1
  S  S1  1  0.30184747  0.29946576  0.74954317  1
  S  S2  1  0.99906606  0.70104633  0.74810127  1
  S  S3  1  0.35861616  0.02567676  0.58818114  1
  S  S4  1  0.66635993  0.63512011  0.58851863  1
  S  S5  1  0.97818421  0.63517663  0.08009948  1
  S  S6  1  0.36635881  0.34590843  0.08267887  1
  S  S7  1  0.04560098  0.37224541  0.91443273  1
  S  S8  1  0.63055330  0.96232413  0.42208158  1
  O  O0  1  0.21306610  0.01818575  0.30065192  1
  O  O1  1  0.79367147  0.77666912  0.30080475  1
  O  O2  1  0.98553163  0.20369130  0.30987856  1
  O  O3  1  0.22255168  0.19322822  0.80049728  1
  O  O4  1  0.97888201  0.77795432  0.80009637  1
  O  O5  1  0.80159745  0.02174582  0.80818716  1
  O  O6  1  0.79291369  0.98116509  0.70090558  1
  O  O7  1  0.20133987  0.21791883  0.69768767  1
  O  O8  1  0.02555349  0.80972863  0.69748459  1
  O  O9  1  0.78073863  0.79164200  0.19802873  1
  O  O10  1  0.01069141  0.19658714  0.20347699  1
  O  O11  1  0.19601838  0.98773982  0.19428996  1
  O  O12  1  0.87946920  0.35179856  0.63543388  1
  O  O13  1  0.46147897  0.11097787  0.63914815  1
  O  O14  1  0.64112129  0.52643969  0.63875769  1
  O  O15  1  0.89305730  0.54054571  0.13268669  1
  O  O16  1  0.65116028  0.11767766  0.12860809  1
  O  O17  1  0.46101860  0.36215272  0.13634872  1
  O  O18  1  0.46232834  0.33467985  0.03435493  1
  O  O19  1  0.87264443  0.54666749  0.03041977  1
  O  O20  1  0.66944330  0.11735417  0.02139202  1
  O  O21  1  0.43760586  0.13006720  0.53683018  1
  O  O22  1  0.68249684  0.55414896  0.53661325  1
  O  O23  1  0.87488271  0.31702969  0.52864518  1
  O  O24  1  0.54907993  0.70263841  0.96596882  1
  O  O25  1  0.14403457  0.45279304  0.96635353  1
  O  O26  1  0.28860991  0.85082776  0.96774475  1
  O  O27  1  0.54527325  0.86392254  0.47344677  1
  O  O28  1  0.31573052  0.46817991  0.46704593  1
  O  O29  1  0.14432884  0.69381097  0.47559139  1
  O  O30  1  0.12245037  0.64763100  0.36918360  1
  O  O31  1  0.53516992  0.88115495  0.37008035  1
  O  O32  1  0.35093936  0.46740567  0.36023259  1
  O  O33  1  0.12596801  0.47314785  0.86283878  1
  O  O34  1  0.35385283  0.87289829  0.86181207  1
  O  O35  1  0.52195041  0.64106706  0.85991230  1
  O  O36  1  0.00036550  0.81473747  0.41790163  1
  O  O37  1  0.80578255  0.98577690  0.41977071  1
  O  O38  1  0.16253695  0.19577056  0.41614112  1
  O  O39  1  0.02504241  0.19813785  0.91121768  1
  O  O40  1  0.16931630  0.98635053  0.90599095  1
  O  O41  1  0.80701133  0.84562064  0.90911438  1
  O  O42  1  0.98886765  0.16931322  0.58872144  1
  O  O43  1  0.18341675  0.00176386  0.59252799  1
  O  O44  1  0.82589998  0.80434437  0.59253535  1
  O  O45  1  0.00254219  0.80979233  0.08184818  1
  O  O46  1  0.81889935  0.99903241  0.07991102  1
  O  O47  1  0.19531679  0.18781671  0.08318991  1
  O  O48  1  0.68577727  0.16507783  0.74767506  1
  O  O49  1  0.47765131  0.32388258  0.74480179  1
  O  O50  1  0.84000878  0.53098447  0.74281307  1
  O  O51  1  0.67233693  0.51871721  0.24648961  1
  O  O52  1  0.84810422  0.32915368  0.24835481  1
  O  O53  1  0.47584118  0.17846423  0.24486941  1
  O  O54  1  0.66376496  0.52297387  0.91995056  1
  O  O55  1  0.86903946  0.34756012  0.91791947  1
  O  O56  1  0.49220272  0.13356672  0.91821980  1
  O  O57  1  0.65187865  0.13714522  0.42393334  1
  O  O58  1  0.48678263  0.34296192  0.42249078  1
  O  O59  1  0.86191349  0.49270219  0.42512552  1
  O  O60  1  0.34463615  0.49643796  0.07727484  1
  O  O61  1  0.14612316  0.64344702  0.07758089  1
  O  O62  1  0.49360683  0.84185727  0.07828834  1
  O  O63  1  0.34766062  0.85656490  0.58369226  1
  O  O64  1  0.51601740  0.66079889  0.58376369  1
  O  O65  1  0.15560867  0.49355311  0.58403821  1
  O  O66  1  0.33756373  0.85563171  0.25005566  1
  O  O67  1  0.52176671  0.67319122  0.25138186  1
  O  O68  1  0.17222652  0.47288265  0.25263210  1
  O  O69  1  0.31301747  0.46897398  0.75400871  1
  O  O70  1  0.15023614  0.67625472  0.75224060  1
  O  O71  1  0.51993549  0.84005925  0.75300248  1
loop_
_geom_bond_atom_site_label_1
_geom_bond_atom_site_label_2
_geom_bond_distance
_geom_bond_site_symmetry_2
Na0 O68 2.359069 1_555
Na0 O53 2.362844 1_555
Na0 O67 2.539020 1_555
Na0 O51 2.541197 1_555
Na0 O32 2.741114 1_555
Na0 O0 2.827838 1_555
Na0 O10 2.888739 1_555
Na0 O17 2.946753 1_555
Na1 O41 2.352468 1_545
Na1 O56 2.426225 1_555
Na1 O55 2.552117 1_555
Na1 O39 2.646080 1_655
Na1 O20 2.690386 1_556
Na1 O5 2.747556 1_555
Na1 O24 2.777614 1_545
Na1 O34 2.890084 1_545
Na2 O38 2.361490 1_655
Na2 O59 2.364789 1_555
Na2 O37 2.579131 1_545
Na2 O57 2.590220 1_555
Na2 O2 2.757542 1_555
Na2 O23 2.808006 1_555
Na2 O28 2.849050 1_655
Na2 O30 2.852121 1_655
Na3 O36 2.574177 1_555
Na3 O43 2.582361 1_565
Na3 O38 2.619487 1_565
Na3 O42 2.654291 1_465
Na3 O37 2.687479 1_455
Na3 O44 2.716576 1_455
Na4 O45 2.542605 1_556
Na4 O41 2.604265 1_455
Na4 O46 2.614794 1_456
Na4 O40 2.643361 1_555
Na4 O47 2.712775 1_566
Na4 O39 2.729665 1_565
Na5 O49 2.488585 1_555
Na5 O48 2.615265 1_555
Na5 O50 2.663781 1_555
Na5 O56 2.695812 1_555
Na5 O54 2.700202 1_555
Na5 O55 2.841403 1_555
Na6 O52 2.610976 1_555
Na6 O51 2.612758 1_555
Na6 O53 2.615564 1_555
Na6 O58 2.707518 1_555
Na6 O59 2.718110 1_555
Na6 O57 2.744650 1_555
Na7 O62 2.432711 1_555
Na7 O66 2.495134 1_555
Na7 O61 2.502473 1_555
Na7 O67 2.777634 1_555
Na7 O68 2.788903 1_555
Na7 O60 2.791399 1_555
Na8 O65 2.510597 1_555
Na8 O63 2.560769 1_555
Na8 O64 2.590621 1_555
Na8 O71 2.617036 1_555
Na8 O70 2.655124 1_555
Na8 O69 2.665078 1_555
In0 O40 2.099275 1_655
In0 O5 2.117668 1_565
In0 O41 2.148546 1_555
In0 O4 2.191019 1_555
In0 O3 2.212585 1_665
In0 O39 2.316385 1_665
In1 O6 2.060267 1_545
In1 O42 2.104721 1_555
In1 O7 2.171301 1_655
In1 O44 2.212803 1_545
In1 O8 2.219211 1_645
In1 O43 2.256845 1_655
In2 O12 2.073900 1_555
In2 O48 2.116906 1_555
In2 O13 2.194975 1_555
In2 O50 2.215409 1_555
In2 O14 2.260931 1_555
In2 O49 2.314188 1_555
In3 O24 2.098810 1_554
In3 O26 2.105125 1_554
In3 O62 2.112626 1_555
In3 O25 2.216494 1_554
In3 O61 2.249319 1_555
In3 O60 2.266381 1_555
In4 O29 2.084710 1_555
In4 O28 2.089835 1_555
In4 O65 2.120552 1_555
In4 O27 2.236712 1_555
In4 O64 2.283079 1_555
In4 O63 2.299933 1_555
In5 O34 2.081810 1_555
In5 O35 2.082532 1_555
In5 O71 2.121001 1_555
In5 O33 2.211177 1_555
In5 O69 2.267148 1_555
In5 O70 2.274378 1_555
O0 P0 1.549720 1_555
O0 Y0 2.153431 1_545
O1 S0 1.478259 1_555
O1 Y0 2.286862 1_655
O2 P1 1.549855 1_655
O2 Y0 2.240084 1_645
O3 S1 1.480174 1_555
O4 S2 1.476000 1_555
O5 P2 1.555289 1_555
O6 P2 1.535259 1_565
O7 S1 1.482837 1_555
O8 S2 1.485130 1_455
O9 S0 1.465920 1_555
O9 Y1 2.261369 1_565
O10 P1 1.542953 1_555
O10 Y1 2.163899 1_455
O11 P0 1.531701 1_565
O11 Y1 2.192713 1_465
O12 P3 1.541357 1_555
O13 S3 1.480198 1_555
O14 S4 1.479896 1_555
O15 S5 1.485277 1_555
O15 Y2 2.268943 1_555
O16 P4 1.552413 1_555
O16 Y2 2.132642 1_555
O17 S6 1.491272 1_555
O17 Y2 2.389597 1_555
O18 S6 1.475090 1_555
O18 Y3 2.218744 1_554
O19 S5 1.470834 1_555
O19 Y3 2.260286 1_554
O20 P4 1.544318 1_555
O20 Y3 2.220441 1_554
O21 S3 1.480774 1_555
O21 Y4 2.269607 1_555
O22 S4 1.481168 1_555
O22 Y4 2.231195 1_555
O23 P3 1.542526 1_555
O23 Y4 2.235968 1_555
O24 P5 1.548610 1_555
O25 S7 1.475736 1_555
O26 P6 1.541630 1_555
O27 S8 1.472598 1_555
O28 P7 1.545989 1_555
O29 P8 1.537582 1_555
O30 P8 1.541828 1_555
O30 Y5 2.143602 1_555
O31 S8 1.469174 1_555
O31 Y5 2.266309 1_555
O32 P7 1.544742 1_555
O32 Y5 2.241747 1_555
O33 S7 1.475808 1_555
O34 P6 1.539831 1_555
O35 P5 1.534854 1_555
O36 P8 1.535986 1_555
O36 Y0 2.208463 1_555
O37 S8 1.489522 1_555
O37 Y0 2.400572 1_655
O38 P7 1.564423 1_555
O38 Y0 2.249984 1_545
O39 S7 1.495293 1_555
O40 P6 1.545790 1_555
O41 P5 1.572618 1_555
O42 P3 1.561916 1_555
O43 S3 1.490521 1_555
O44 S4 1.488460 1_555
O45 S5 1.484546 1_455
O45 Y1 2.367689 1_465
O46 P4 1.546123 1_565
O46 Y1 2.221241 1_565
O47 S6 1.487978 1_555
O47 Y1 2.308365 1_455
O48 P2 1.563796 1_555
O49 S1 1.494892 1_555
O50 S2 1.492929 1_555
O51 S0 1.490133 1_555
O51 Y2 2.405493 1_555
O52 P1 1.540273 1_655
O52 Y2 2.200023 1_555
O53 P0 1.561808 1_555
O53 Y2 2.220052 1_555
O54 P5 1.535473 1_555
O54 Y3 2.204473 1_555
O55 S7 1.498582 1_655
O55 Y3 2.348916 1_555
O56 P6 1.565479 1_545
O56 Y3 2.229426 1_555
O57 S8 1.497331 1_545
O57 Y4 2.318705 1_555
O58 P7 1.538693 1_555
O58 Y4 2.214995 1_555
O59 P8 1.561002 1_655
O59 Y4 2.206991 1_555
O60 S6 1.476683 1_555
O61 S5 1.483120 1_455
O62 P4 1.551817 1_565
O63 S3 1.489629 1_565
O64 S4 1.492592 1_555
O65 P3 1.561716 1_455
O66 P0 1.536364 1_565
O66 Y5 2.224934 1_555
O67 S0 1.485773 1_555
O67 Y5 2.355274 1_555
O68 P1 1.555668 1_555
O68 Y5 2.236827 1_555
O69 S1 1.492287 1_555
O70 S2 1.494177 1_455
O71 P2 1.555362 1_565
