# generated using pymatgen
data_Na14Y6Ta2Si9(SO16)3
_symmetry_space_group_name_H-M   'P 1'
_cell_length_a   18.79946374
_cell_length_b   9.38630217
_cell_length_c   23.04515001
_cell_angle_alpha   90.10089990
_cell_angle_beta   89.62372294
_cell_angle_gamma   119.91826811
_symmetry_Int_Tables_number   1
_chemical_formula_structural   Na14Y6Ta2Si9(SO16)3
_chemical_formula_sum   'Na42 Y18 Ta6 Si27 S9 O144'
_cell_volume   3524.49764527
_cell_formula_units_Z   3
loop_
 _symmetry_equiv_pos_site_id
 _symmetry_equiv_pos_as_xyz
  1  'x, y, z'
loop_
 _atom_site_type_symbol
 _atom_site_label
 _atom_site_symmetry_multiplicity
 _atom_site_fract_x
 _atom_site_fract_y
 _atom_site_fract_z
 _atom_site_occupancy
  Na  Na0  1  0.81438244  0.00805451  0.23874155  1
  Na  Na1  1  0.68955822  0.36923070  0.23852625  1
  Na  Na2  1  0.50150706  0.62254713  0.24199256  1
  Na  Na3  1  0.31250707  0.61789050  0.73847446  1
  Na  Na4  1  0.99248118  0.35961554  0.74417378  1
  Na  Na5  1  0.18701614  0.01031632  0.73829422  1
  Na  Na6  1  0.15274954  0.33210323  0.58717813  1
  Na  Na7  1  0.66248414  0.34422842  0.59272517  1
  Na  Na8  1  0.01479272  0.69152618  0.58828870  1
  Na  Na9  1  0.51068389  0.67467330  0.58567132  1
  Na  Na10  1  0.32304975  0.97792919  0.59100699  1
  Na  Na11  1  0.83197927  0.97874311  0.59462532  1
  Na  Na12  1  0.15918953  0.97952121  0.08801429  1
  Na  Na13  1  0.65948938  0.97225697  0.08021391  1
  Na  Na14  1  0.33044571  0.68169076  0.08837461  1
  Na  Na15  1  0.82701312  0.67767736  0.08575076  1
  Na  Na16  1  0.01030760  0.34558920  0.08089907  1
  Na  Na17  1  0.51546364  0.34780118  0.07894898  1
  Na  Na18  1  0.49180625  0.67374040  0.91384698  1
  Na  Na19  1  0.98068845  0.64769393  0.90671646  1
  Na  Na20  1  0.36163779  0.05937616  0.91076951  1
  Na  Na21  1  0.85378888  0.05256105  0.91065949  1
  Na  Na22  1  0.15815120  0.29986818  0.91641535  1
  Na  Na23  1  0.66309813  0.28845839  0.92403090  1
  Na  Na24  1  0.48207358  0.31549524  0.41366133  1
  Na  Na25  1  0.99006022  0.30549956  0.42151584  1
  Na  Na26  1  0.15926671  0.03603540  0.42972155  1
  Na  Na27  1  0.65956555  0.01296370  0.42431161  1
  Na  Na28  1  0.35208488  0.65186179  0.42499070  1
  Na  Na29  1  0.86082041  0.66592431  0.41579975  1
  Na  Na30  1  0.00687754  0.00224424  0.50822706  1
  Na  Na31  1  0.50358357  0.98518282  0.50702126  1
  Na  Na32  1  0.00157376  0.01968967  0.00044563  1
  Na  Na33  1  0.50770974  0.01348787  0.99566139  1
  Na  Na34  1  0.34972462  0.33774399  0.81994800  1
  Na  Na35  1  0.83685411  0.32038294  0.82783400  1
  Na  Na36  1  0.33709185  0.33480327  0.33550169  1
  Na  Na37  1  0.85049449  0.36350485  0.32152681  1
  Na  Na38  1  0.16489362  0.66533695  0.16025953  1
  Na  Na39  1  0.66893384  0.66751635  0.16317005  1
  Na  Na40  1  0.16573372  0.66714464  0.66483235  1
  Na  Na41  1  0.67099649  0.67201187  0.66465962  1
  Y  Y0  1  0.00112802  0.99797683  0.34717303  1
  Y  Y1  1  0.50139405  0.00073750  0.34694389  1
  Y  Y2  1  0.99848482  0.00225525  0.84479300  1
  Y  Y3  1  0.50137450  0.00607805  0.84602482  1
  Y  Y4  1  0.33798838  0.33375357  0.68250093  1
  Y  Y5  1  0.83261874  0.33586592  0.68382070  1
  Y  Y6  1  0.33210743  0.32198194  0.18280645  1
  Y  Y7  1  0.83936699  0.34317516  0.18320491  1
  Y  Y8  1  0.33929073  0.33730045  0.98948344  1
  Y  Y9  1  0.83601229  0.33106945  0.98660910  1
  Y  Y10  1  0.33447876  0.33822445  0.48902061  1
  Y  Y11  1  0.83773654  0.33872232  0.49130552  1
  Y  Y12  1  0.16331377  0.65644082  0.01882190  1
  Y  Y13  1  0.66298436  0.66728328  0.01829042  1
  Y  Y14  1  0.16236867  0.65864518  0.52045280  1
  Y  Y15  1  0.66359098  0.67054501  0.51967919  1
  Y  Y16  1  0.66153780  0.66454872  0.30667160  1
  Y  Y17  1  0.16065033  0.65757512  0.80667019  1
  Ta  Ta0  1  0.99514615  0.99175215  0.65326708  1
  Ta  Ta1  1  0.49723347  0.99178192  0.64947004  1
  Ta  Ta2  1  0.99681265  0.00407405  0.14860567  1
  Ta  Ta3  1  0.50512906  0.01595426  0.14745188  1
  Ta  Ta4  1  0.15619521  0.64154064  0.31345061  1
  Ta  Ta5  1  0.65996695  0.68235219  0.81070796  1
  Si  Si0  1  0.64750389  0.00141592  0.24922289  1
  Si  Si1  1  0.85219606  0.70858208  0.25234120  1
  Si  Si2  1  0.00259327  0.29563016  0.25261194  1
  Si  Si3  1  0.49670994  0.29368948  0.25309723  1
  Si  Si4  1  0.14697245  0.29236801  0.75015277  1
  Si  Si5  1  0.99839893  0.70096710  0.75323117  1
  Si  Si6  1  0.50079393  0.70845297  0.75272287  1
  Si  Si7  1  0.35140634  0.99521297  0.75258203  1
  Si  Si8  1  0.84603462  0.99112255  0.75282965  1
  Si  Si9  1  0.48422737  0.32140403  0.57955078  1
  Si  Si10  1  0.98374737  0.32284809  0.58585020  1
  Si  Si11  1  0.17714950  0.03164192  0.58449445  1
  Si  Si12  1  0.68039569  0.03524810  0.58244704  1
  Si  Si13  1  0.33557378  0.64167589  0.58557110  1
  Si  Si14  1  0.83649377  0.64312704  0.58099871  1
  Si  Si15  1  0.48301109  0.64300901  0.08824769  1
  Si  Si16  1  0.98455633  0.64637570  0.08084614  1
  Si  Si17  1  0.33652620  0.02864203  0.08193131  1
  Si  Si18  1  0.83489449  0.03056689  0.08628521  1
  Si  Si19  1  0.18211467  0.32704440  0.08458306  1
  Si  Si20  1  0.68213809  0.33220117  0.08414800  1
  Si  Si21  1  0.01493473  0.36079454  0.91714556  1
  Si  Si22  1  0.52035686  0.37661929  0.91472440  1
  Si  Si23  1  0.66769093  0.97024268  0.91677778  1
  Si  Si24  1  0.16866087  0.36762242  0.41603130  1
  Si  Si25  1  0.01711368  0.66205442  0.41618302  1
  Si  Si26  1  0.51374272  0.66546581  0.41529483  1
  S  S0  1  0.14953681  0.98501733  0.25071484  1
  S  S1  1  0.34504154  0.70473971  0.25072547  1
  S  S2  1  0.64707440  0.31027916  0.74919762  1
  S  S3  1  0.31587113  0.66456602  0.91619768  1
  S  S4  1  0.81038585  0.66399090  0.91418179  1
  S  S5  1  0.16971832  0.97015984  0.91699159  1
  S  S6  1  0.30775618  0.95185816  0.41149869  1
  S  S7  1  0.81505581  0.96681171  0.41499979  1
  S  S8  1  0.66894299  0.36832636  0.41554156  1
  O  O0  1  0.10919431  0.99764653  0.30427999  1
  O  O1  1  0.60596422  0.01613242  0.30931815  1
  O  O2  1  0.39412667  0.78416266  0.30348620  1
  O  O3  1  0.89570964  0.78338800  0.31406523  1
  O  O4  1  0.49070288  0.20346998  0.31450743  1
  O  O5  1  0.99750972  0.20640534  0.31289109  1
  O  O6  1  0.10978428  0.19785917  0.81138589  1
  O  O7  1  0.60876890  0.21674581  0.80314985  1
  O  O8  1  0.49440817  0.78564915  0.81346604  1
  O  O9  1  0.99479765  0.77985505  0.81525123  1
  O  O10  1  0.39515853  0.00930344  0.81444195  1
  O  O11  1  0.89718761  0.01597418  0.81177221  1
  O  O12  1  0.41507582  0.99207279  0.69976427  1
  O  O13  1  0.89894846  0.97421492  0.69625971  1
  O  O14  1  0.08123363  0.17325672  0.69771253  1
  O  O15  1  0.59596926  0.22000410  0.69770402  1
  O  O16  1  0.99965212  0.82344023  0.69892661  1
  O  O17  1  0.51394378  0.83773228  0.69780077  1
  O  O18  1  0.38707425  0.80406244  0.19820896  1
  O  O19  1  0.91554481  0.84023552  0.19959892  1
  O  O20  1  0.01514517  0.19291323  0.19732641  1
  O  O21  1  0.49793968  0.17228433  0.19858467  1
  O  O22  1  0.09930148  0.96813663  0.19863651  1
  O  O23  1  0.58280512  0.99335843  0.19625399  1
  O  O24  1  0.44107131  0.37671843  0.62822103  1
  O  O25  1  0.94056671  0.36196315  0.63944372  1
  O  O26  1  0.23993503  0.11934006  0.63770604  1
  O  O27  1  0.74766195  0.12818543  0.63169788  1
  O  O28  1  0.31611512  0.52339155  0.64065538  1
  O  O29  1  0.81139973  0.50339036  0.63002083  1
  O  O30  1  0.44086148  0.52461287  0.14387472  1
  O  O31  1  0.94275676  0.50852225  0.13069371  1
  O  O32  1  0.31277914  0.11650606  0.13271567  1
  O  O33  1  0.81610531  0.10735170  0.14271028  1
  O  O34  1  0.24674805  0.36822830  0.13623626  1
  O  O35  1  0.73888767  0.35978956  0.13970291  1
  O  O36  1  0.21702796  0.28876257  0.02411442  1
  O  O37  1  0.71561216  0.28677494  0.02531786  1
  O  O38  1  0.42607206  0.56824432  0.03001565  1
  O  O39  1  0.92761547  0.58304015  0.02219606  1
  O  O40  1  0.36056798  0.14314962  0.02291017  1
  O  O41  1  0.85752519  0.14859675  0.02925521  1
  O  O42  1  0.21400856  0.14259369  0.52460050  1
  O  O43  1  0.71256142  0.13653211  0.52033872  1
  O  O44  1  0.35794312  0.57076433  0.52724735  1
  O  O45  1  0.85675360  0.57658031  0.51978848  1
  O  O46  1  0.42884916  0.27268772  0.51976899  1
  O  O47  1  0.92970877  0.28787568  0.52585678  1
  O  O48  1  0.27624079  0.68258301  0.96925379  1
  O  O49  1  0.77435979  0.68017823  0.96956663  1
  O  O50  1  0.06821123  0.44653275  0.97561393  1
  O  O51  1  0.56858731  0.45311646  0.97480200  1
  O  O52  1  0.16604135  0.87656375  0.96967319  1
  O  O53  1  0.65896198  0.86615528  0.97459251  1
  O  O54  1  0.27161772  0.86349131  0.46628370  1
  O  O55  1  0.77493079  0.86757865  0.46753481  1
  O  O56  1  0.16058009  0.45836428  0.47262691  1
  O  O57  1  0.66363604  0.45374682  0.46787565  1
  O  O58  1  0.07115310  0.68564205  0.47266478  1
  O  O59  1  0.57134289  0.69446467  0.47185836  1
  O  O60  1  0.07627994  0.65240679  0.35908955  1
  O  O61  1  0.56070945  0.65036914  0.35732359  1
  O  O62  1  0.25597413  0.85533010  0.36101952  1
  O  O63  1  0.76689795  0.88117498  0.36290144  1
  O  O64  1  0.17225526  0.49621747  0.35939662  1
  O  O65  1  0.67555282  0.46445152  0.36286833  1
  O  O66  1  0.06429392  0.47420278  0.86072630  1
  O  O67  1  0.58039584  0.50376949  0.86017224  1
  O  O68  1  0.17699123  0.88632570  0.86456132  1
  O  O69  1  0.67137200  0.85141881  0.86042778  1
  O  O70  1  0.26728509  0.65387441  0.86437029  1
  O  O71  1  0.75906900  0.65871236  0.86447949  1
  O  O72  1  0.00788961  0.82482267  0.41081081  1
  O  O73  1  0.49844458  0.82628231  0.41505893  1
  O  O74  1  0.39128353  0.97267201  0.40735564  1
  O  O75  1  0.89956250  0.99040053  0.41328117  1
  O  O76  1  0.08706220  0.18640910  0.41197240  1
  O  O77  1  0.59214521  0.20227665  0.41495874  1
  O  O78  1  0.00365998  0.17341679  0.91732504  1
  O  O79  1  0.50934217  0.19220865  0.91092581  1
  O  O80  1  0.09356990  0.98284138  0.91661016  1
  O  O81  1  0.58558221  0.98785692  0.91281807  1
  O  O82  1  0.40028183  0.81078692  0.91440415  1
  O  O83  1  0.89517008  0.80749047  0.91144922  1
  O  O84  1  0.49082055  0.15493588  0.59754176  1
  O  O85  1  0.98860381  0.15214603  0.59633221  1
  O  O86  1  0.08524110  0.01490037  0.59589340  1
  O  O87  1  0.59094104  0.02908129  0.59734257  1
  O  O88  1  0.42415205  0.82318894  0.59691929  1
  O  O89  1  0.92180884  0.82070272  0.59475572  1
  O  O90  1  0.48828705  0.82467684  0.09959959  1
  O  O91  1  0.99251587  0.82820520  0.09842603  1
  O  O92  1  0.42035231  0.01619467  0.09672363  1
  O  O93  1  0.92317050  0.02312939  0.09660107  1
  O  O94  1  0.09209520  0.15466838  0.09843836  1
  O  O95  1  0.58722231  0.16326011  0.09428601  1
  O  O96  1  0.33399958  0.14663529  0.74567147  1
  O  O97  1  0.83681189  0.15179707  0.74540026  1
  O  O98  1  0.23828393  0.31703924  0.74404649  1
  O  O99  1  0.72951585  0.33072642  0.74483726  1
  O  O100  1  0.41981809  0.53347237  0.74442176  1
  O  O101  1  0.92346242  0.51322762  0.74909527  1
  O  O102  1  0.33591011  0.53914254  0.24725173  1
  O  O103  1  0.83504780  0.52248712  0.24589652  1
  O  O104  1  0.42225466  0.33481940  0.24964224  1
  O  O105  1  0.92163509  0.30966477  0.24528626  1
  O  O106  1  0.23149733  0.13180758  0.24743081  1
  O  O107  1  0.73829162  0.15992254  0.24513134  1
  O  O108  1  0.32098087  0.51141128  0.91908826  1
  O  O109  1  0.81412670  0.50883199  0.91433025  1
  O  O110  1  0.43090958  0.37035098  0.91309753  1
  O  O111  1  0.92541268  0.35357993  0.91810365  1
  O  O112  1  0.24360015  0.13817730  0.91856631  1
  O  O113  1  0.75200557  0.14705089  0.91350033  1
  O  O114  1  0.31282056  0.11521615  0.41163871  1
  O  O115  1  0.81968726  0.12973947  0.41839030  1
  O  O116  1  0.25337720  0.36032918  0.41263336  1
  O  O117  1  0.74212555  0.34676933  0.41748875  1
  O  O118  1  0.42481069  0.49242387  0.41873960  1
  O  O119  1  0.92918393  0.48945902  0.41372563  1
  O  O120  1  0.16318362  0.47935716  0.08126818  1
  O  O121  1  0.66537841  0.48519018  0.08058584  1
  O  O122  1  0.08007164  0.68831188  0.07581690  1
  O  O123  1  0.57603568  0.67413511  0.08232204  1
  O  O124  1  0.26162734  0.84001545  0.07685817  1
  O  O125  1  0.76283910  0.84118578  0.07891263  1
  O  O126  1  0.16356703  0.84641184  0.58035118  1
  O  O127  1  0.66003969  0.84400600  0.58094916  1
  O  O128  1  0.26501917  0.69101491  0.57836081  1
  O  O129  1  0.76209061  0.68524855  0.57665330  1
  O  O130  1  0.07765275  0.47663588  0.58225468  1
  O  O131  1  0.57966670  0.46975604  0.57475199  1
  O  O132  1  0.15837950  0.83359329  0.25470243  1
  O  O133  1  0.64763014  0.82766714  0.24423932  1
  O  O134  1  0.26251979  0.69306995  0.25612842  1
  O  O135  1  0.76648280  0.71327627  0.24550840  1
  O  O136  1  0.08837723  0.48800597  0.25627031  1
  O  O137  1  0.58637789  0.46337709  0.24580470  1
  O  O138  1  0.14794574  0.46737426  0.74535297  1
  O  O139  1  0.65217909  0.47439330  0.75218573  1
  O  O140  1  0.08819217  0.71046830  0.74547714  1
  O  O141  1  0.58593924  0.68925003  0.75631595  1
  O  O142  1  0.26676200  0.81830878  0.74592337  1
  O  O143  1  0.75460847  0.81540474  0.75959449  1
loop_
_geom_bond_atom_site_label_1
_geom_bond_atom_site_label_2
_geom_bond_distance
_geom_bond_site_symmetry_2
Na0 O33 2.396572 1_555
Na0 O135 2.450531 1_545
Na0 O107 2.475977 1_555
Na0 O105 2.532042 1_555
Na0 O133 2.722316 1_545
Na1 O103 2.378978 1_555
Na1 O35 2.471424 1_555
Na1 O137 2.505333 1_555
Na1 O107 2.553556 1_555
Na1 O135 2.808633 1_555
Na2 O104 2.351395 1_555
Na2 O133 2.445692 1_555
Na2 O30 2.497738 1_555
Na2 O137 2.676876 1_555
Na2 O102 2.807742 1_555
Na2 O61 2.849105 1_555
Na3 O142 2.432820 1_555
Na3 O28 2.433926 1_555
Na3 O98 2.450746 1_555
Na3 O100 2.512985 1_555
Na3 O138 2.688181 1_555
Na4 O101 2.374664 1_555
Na4 O138 2.572506 1_655
Na4 O97 2.583577 1_555
Na4 O25 2.613551 1_555
Na4 O140 2.858873 1_655
Na4 O66 2.963589 1_655
Na5 O96 2.404155 1_555
Na5 O140 2.486338 1_545
Na5 O26 2.524460 1_555
Na5 O98 2.543128 1_555
Na5 O142 2.868153 1_545
Na6 O130 2.399917 1_555
Na6 O86 2.597144 1_555
Na6 O85 2.685764 1_455
Na6 O56 2.868254 1_555
Na6 O14 2.913422 1_555
Na6 O42 2.929620 1_555
Na6 O28 2.952290 1_555
Na6 O128 2.957897 1_555
Na7 O131 2.413276 1_555
Na7 O87 2.569236 1_555
Na7 O29 2.581287 1_555
Na7 O15 2.700324 1_555
Na7 O84 2.803594 1_555
Na7 O129 2.811672 1_555
Na8 O126 2.430573 1_555
Na8 O89 2.580350 1_455
Na8 O86 2.643653 1_565
Na8 O130 2.803351 1_555
Na8 O58 2.871654 1_555
Na8 O16 2.906171 1_455
Na8 O25 2.931089 1_455
Na9 O127 2.442688 1_555
Na9 O24 2.614866 1_555
Na9 O88 2.629084 1_555
Na9 O131 2.815466 1_555
Na9 O59 2.822288 1_555
Na9 O44 2.874318 1_555
Na9 O87 2.900069 1_565
Na9 O17 2.986318 1_555
Na10 O128 2.366089 1_555
Na10 O126 2.624869 1_555
Na10 O26 2.720870 1_565
Na10 O84 2.740239 1_565
Na10 O46 2.964723 1_565
Na11 O129 2.424760 1_555
Na11 O85 2.557578 1_565
Na11 O13 2.676773 1_555
Na11 O27 2.721409 1_565
Na11 O89 2.747981 1_555
Na11 O127 2.842734 1_555
Na11 O47 2.994415 1_565
Na12 O122 2.389546 1_555
Na12 O94 2.532684 1_565
Na12 O32 2.717084 1_565
Na12 O91 2.728527 1_455
Na12 O22 2.760651 1_555
Na12 O124 2.827919 1_555
Na12 O52 2.915190 1_554
Na12 O36 2.936284 1_565
Na13 O123 2.431914 1_555
Na13 O53 2.626500 1_554
Na13 O95 2.754436 1_565
Na13 O125 2.770005 1_555
Na13 O90 2.830759 1_555
Na13 O37 2.883999 1_565
Na13 O33 2.945521 1_565
Na14 O124 2.424135 1_555
Na14 O90 2.590261 1_555
Na14 O92 2.731355 1_565
Na14 O120 2.751319 1_555
Na14 O18 2.768529 1_555
Na14 O34 2.778445 1_555
Na14 O38 2.836758 1_555
Na14 O48 2.935933 1_554
Na15 O125 2.384552 1_555
Na15 O121 2.653181 1_555
Na15 O91 2.717995 1_555
Na15 O93 2.828479 1_565
Na15 O39 2.854118 1_555
Na15 O49 2.864869 1_554
Na15 O35 2.872026 1_555
Na16 O120 2.497406 1_555
Na16 O50 2.629494 1_554
Na16 O93 2.650574 1_455
Na16 O31 2.679627 1_455
Na16 O41 2.797227 1_455
Na16 O122 2.805877 1_555
Na16 O94 2.915161 1_555
Na17 O121 2.446041 1_555
Na17 O51 2.593655 1_554
Na17 O123 2.684415 1_555
Na17 O95 2.698987 1_555
Na17 O92 2.737909 1_555
Na17 O40 2.880632 1_555
Na18 O110 2.483620 1_555
Na18 O8 2.532370 1_555
Na18 O81 2.572206 1_555
Na18 O82 2.612066 1_555
Na18 O108 2.786379 1_555
Na18 O38 2.901703 1_556
Na19 O9 2.392863 1_555
Na19 O111 2.430469 1_555
Na19 O83 2.692366 1_555
Na19 O109 2.730728 1_555
Na19 O80 2.792126 1_655
Na19 O39 2.795141 1_556
Na19 O66 2.961530 1_655
Na20 O79 2.410714 1_555
Na20 O10 2.412321 1_555
Na20 O110 2.535221 1_555
Na20 O112 2.671158 1_555
Na20 O40 2.702821 1_556
Na20 O82 2.769780 1_545
Na21 O111 2.456001 1_555
Na21 O78 2.462835 1_655
Na21 O113 2.478569 1_555
Na21 O11 2.495828 1_555
Na21 O83 2.771707 1_545
Na21 O41 2.866666 1_556
Na22 O78 2.530822 1_555
Na22 O80 2.593261 1_545
Na22 O6 2.598898 1_555
Na22 O108 2.693647 1_555
Na22 O112 2.705474 1_555
Na22 O36 2.747382 1_556
Na23 O81 2.460137 1_545
Na23 O37 2.543463 1_556
Na23 O109 2.554377 1_555
Na23 O79 2.582271 1_555
Na23 O113 2.611652 1_555
Na23 O7 2.932828 1_555
Na24 O118 2.389880 1_555
Na24 O4 2.551491 1_555
Na24 O46 2.590798 1_555
Na24 O77 2.758027 1_555
Na24 O114 2.774039 1_555
Na24 O74 2.794954 1_545
Na25 O119 2.509677 1_555
Na25 O76 2.578879 1_655
Na25 O75 2.580859 1_545
Na25 O47 2.621993 1_555
Na25 O5 2.695972 1_555
Na25 O115 2.777988 1_555
Na26 O42 2.415642 1_555
Na26 O76 2.433632 1_555
Na26 O72 2.569871 1_545
Na26 O114 2.627617 1_555
Na26 O116 2.678374 1_555
Na27 O43 2.470276 1_555
Na27 O115 2.642950 1_555
Na27 O73 2.646385 1_545
Na27 O77 2.657455 1_555
Na27 O117 2.719962 1_555
Na27 O59 2.816081 1_545
Na27 O1 2.846799 1_555
Na28 O73 2.408922 1_555
Na28 O116 2.439552 1_555
Na28 O118 2.483401 1_555
Na28 O44 2.497619 1_555
Na28 O74 2.750002 1_555
Na28 O2 3.001900 1_555
Na29 O72 2.401024 1_655
Na29 O45 2.528385 1_555
Na29 O3 2.531792 1_555
Na29 O119 2.553416 1_555
Na29 O117 2.699261 1_555
Na29 O75 2.756271 1_555
Na30 O86 2.475809 1_555
Na30 O85 2.585186 1_455
Na30 O89 2.586351 1_445
Na30 O76 2.747938 1_555
Na30 O72 2.798477 1_545
Na30 O75 2.950161 1_445
Na31 O88 2.557218 1_555
Na31 O87 2.562462 1_565
Na31 O73 2.563798 1_555
Na31 O84 2.703898 1_565
Na31 O77 2.830188 1_565
Na32 O78 2.388540 1_554
Na32 O93 2.662357 1_455
Na32 O80 2.719155 1_544
Na32 O94 2.736886 1_555
Na32 O91 2.839328 1_445
Na32 O83 2.870531 1_444
Na33 O81 2.481706 1_545
Na33 O79 2.566641 1_555
Na33 O95 2.704363 1_556
Na33 O82 2.722016 1_545
Na33 O92 2.848350 1_556
Na33 O90 2.892997 1_546
Na34 O96 2.387874 1_555
Na34 O100 2.388975 1_555
Na34 O110 2.570195 1_555
Na34 O98 2.669692 1_555
Na34 O112 2.980228 1_555
Na34 O108 3.003066 1_555
Na35 O97 2.470023 1_555
Na35 O101 2.500580 1_555
Na35 O113 2.543614 1_555
Na35 O111 2.592703 1_555
Na35 O99 2.826030 1_555
Na35 O109 2.831070 1_555
Na36 O116 2.455944 1_555
Na36 O118 2.487108 1_555
Na36 O104 2.537013 1_555
Na36 O114 2.568861 1_555
Na36 O102 2.805724 1_555
Na36 O106 2.820765 1_555
Na37 O105 2.402334 1_555
Na37 O103 2.407689 1_555
Na37 O119 2.527535 1_555
Na37 O107 2.686360 1_555
Na37 O117 2.947632 1_555
Na37 O115 2.977482 1_555
Na38 O120 2.509125 1_555
Na38 O124 2.584630 1_555
Na38 O122 2.600275 1_555
Na38 O136 2.705179 1_555
Na38 O132 2.724602 1_555
Na38 O134 2.809250 1_555
Na39 O135 2.530843 1_555
Na39 O121 2.536017 1_555
Na39 O133 2.547800 1_555
Na39 O125 2.576738 1_555
Na39 O123 2.583915 1_555
Na39 O137 2.591185 1_555
Na40 O140 2.509454 1_555
Na40 O138 2.539635 1_555
Na40 O142 2.542008 1_555
Na40 O130 2.576176 1_555
Na40 O126 2.589264 1_555
Na40 O128 2.653427 1_555
Na41 O127 2.591927 1_555
Na41 O129 2.608535 1_555
Na41 O139 2.642644 1_555
Na41 O143 2.644447 1_555
Na41 O141 2.693907 1_555
Na41 O131 2.761575 1_555
O0 S0 1.479832 1_555
O0 Y0 2.254849 1_555
O1 Si0 1.624687 1_555
O1 Y1 2.081353 1_555
O2 S1 1.486927 1_555
O2 Y1 2.265412 1_565
O3 Si1 1.619978 1_555
O3 Y0 2.144585 1_655
O4 Si3 1.624625 1_555
O4 Y1 2.146792 1_555
O5 Si2 1.600861 1_655
O5 Y0 2.143612 1_645
O6 Si4 1.624738 1_555
O6 Y2 2.119748 1_455
O7 S2 1.482113 1_555
O7 Y3 2.227287 1_555
O8 Si6 1.606228 1_555
O8 Y3 2.141606 1_565
O9 Si5 1.625014 1_555
O9 Y2 2.162702 1_565
O10 Si7 1.622499 1_545
O10 Y3 2.144143 1_555
O11 Si8 1.617574 1_545
O11 Y2 2.118050 1_555
O12 Si7 1.712032 1_555
O12 Ta1 1.926032 1_555
O13 Si8 1.689369 1_555
O13 Ta0 1.989813 1_555
O14 Si4 1.695382 1_555
O14 Ta0 1.958570 1_445
O15 S2 1.499533 1_555
O15 Ta1 2.306974 1_545
O16 Si5 1.692889 1_555
O16 Ta0 1.936682 1_555
O17 Si6 1.684522 1_555
O17 Ta1 1.973167 1_555
O18 S1 1.488221 1_555
O18 Ta3 2.412550 1_565
O19 Si1 1.714911 1_555
O19 Ta2 1.928512 1_565
O20 Si2 1.681409 1_555
O20 Ta2 1.977340 1_455
O21 Si3 1.702386 1_555
O21 Ta3 1.936390 1_555
O22 S0 1.490741 1_555
O22 Ta2 2.415428 1_465
O23 Si0 1.703695 1_565
O23 Ta3 1.942566 1_565
O24 Si9 1.609967 1_555
O24 Y4 2.161753 1_555
O25 Si10 1.612981 1_555
O25 Y5 2.168394 1_555
O26 Si11 1.618880 1_555
O26 Y4 2.197945 1_555
O27 Si12 1.601024 1_555
O27 Y5 2.169083 1_555
O28 Si13 1.603635 1_555
O28 Y4 2.238040 1_555
O29 Si14 1.612494 1_555
O29 Y5 2.192695 1_555
O30 Si15 1.618485 1_555
O30 Y6 2.169189 1_555
O31 Si16 1.609498 1_555
O31 Y7 2.148854 1_555
O32 Si17 1.614358 1_555
O32 Y6 2.117281 1_555
O33 Si18 1.606136 1_555
O33 Y7 2.234777 1_555
O34 Si19 1.609849 1_555
O34 Y6 2.152774 1_555
O35 Si20 1.607959 1_555
O35 Y7 2.217381 1_555
O36 Si19 1.650231 1_555
O36 Y8 2.249463 1_554
O37 Si20 1.634102 1_555
O37 Y9 2.264488 1_554
O38 Si15 1.644802 1_555
O38 Y8 2.172139 1_554
O39 Si16 1.645445 1_555
O39 Y9 2.276106 1_554
O40 Si17 1.649844 1_555
O40 Y8 2.193291 1_554
O41 Si18 1.631953 1_555
O41 Y9 2.182899 1_554
O42 Si11 1.656050 1_555
O42 Y10 2.237370 1_555
O43 Si12 1.654700 1_555
O43 Y11 2.261831 1_555
O44 Si13 1.641662 1_555
O44 Y10 2.184643 1_555
O45 Si14 1.658967 1_555
O45 Y11 2.178282 1_555
O46 Si9 1.653085 1_555
O46 Y10 2.265985 1_555
O47 Si10 1.653923 1_555
O47 Y11 2.166540 1_555
O48 S3 1.480412 1_555
O48 Y12 2.306849 1_556
O49 S4 1.483734 1_555
O49 Y13 2.318669 1_556
O50 Si21 1.635903 1_555
O50 Y12 2.138344 1_556
O51 Si22 1.618044 1_555
O51 Y13 2.156940 1_556
O52 S5 1.480738 1_555
O52 Y12 2.335858 1_556
O53 Si23 1.611952 1_555
O53 Y13 2.157014 1_556
O54 S6 1.474387 1_555
O54 Y14 2.347136 1_555
O55 S7 1.481021 1_555
O55 Y15 2.314918 1_555
O56 Si24 1.603795 1_555
O56 Y14 2.163336 1_555
O57 S8 1.477216 1_555
O57 Y15 2.357819 1_555
O58 Si25 1.602287 1_555
O58 Y14 2.162598 1_555
O59 Si26 1.633733 1_555
O59 Y15 2.164895 1_555
O60 Si25 1.748534 1_555
O60 Ta4 1.872275 1_555
O61 Si26 1.641068 1_555
O61 Y16 2.166352 1_555
O62 S6 1.501055 1_555
O62 Ta4 2.238651 1_555
O63 S7 1.480603 1_555
O63 Y16 2.396610 1_555
O64 Si24 1.757257 1_555
O64 Ta4 1.868959 1_555
O65 S8 1.480883 1_555
O65 Y16 2.404332 1_555
O66 Si21 1.639627 1_555
O66 Y17 2.159504 1_555
O67 Si22 1.709298 1_555
O67 Ta5 1.957017 1_555
O68 S5 1.483105 1_555
O68 Y17 2.412816 1_555
O69 Si23 1.733718 1_555
O69 Ta5 1.880035 1_555
O70 S3 1.480995 1_555
O70 Y17 2.427487 1_555
O71 S4 1.487187 1_555
O71 Ta5 2.345094 1_555
O72 Si25 1.626275 1_555
O72 Y0 2.241731 1_555
O73 Si26 1.671629 1_555
O73 Y1 2.250735 1_565
O74 S6 1.484961 1_555
O74 Y1 2.389993 1_565
O75 S7 1.490912 1_555
O75 Y0 2.408002 1_655
O76 Si24 1.628993 1_555
O76 Y0 2.267205 1_545
O77 S8 1.506433 1_555
O77 Y1 2.398185 1_555
O78 Si21 1.663253 1_555
O78 Y2 2.285007 1_455
O79 Si22 1.639768 1_555
O79 Y3 2.245972 1_555
O80 S5 1.494566 1_555
O80 Y2 2.516453 1_465
O81 Si23 1.635494 1_555
O81 Y3 2.282031 1_565
O82 S3 1.493433 1_555
O82 Y3 2.439445 1_565
O83 S4 1.488662 1_555
O83 Y2 2.429570 1_565
O84 Si9 1.680738 1_555
O84 Ta1 1.996085 1_545
O85 Si10 1.667784 1_555
O85 Ta0 2.048656 1_545
O86 Si11 1.674047 1_555
O86 Ta0 2.066065 1_445
O87 Si12 1.686619 1_555
O87 Ta1 2.006870 1_545
O88 Si13 1.708257 1_555
O88 Ta1 1.924768 1_555
O89 Si14 1.670090 1_555
O89 Ta0 2.026188 1_555
O90 Si15 1.678095 1_555
O90 Ta3 1.992564 1_565
O91 Si16 1.686113 1_555
O91 Ta2 1.982491 1_565
O92 Si17 1.674555 1_555
O92 Ta3 1.983631 1_555
O93 Si18 1.713556 1_555
O93 Ta2 1.911672 1_555
O94 Si19 1.687333 1_555
O94 Ta2 1.999022 1_455
O95 Si20 1.710669 1_555
O95 Ta3 1.909773 1_555
O96 Si7 1.618012 1_545
O96 Y4 2.255184 1_555
O97 Si8 1.611210 1_545
O97 Y5 2.269601 1_555
O98 Si4 1.618819 1_555
O98 Y4 2.285198 1_555
O99 S2 1.466385 1_555
O99 Y5 2.368045 1_555
O100 Si6 1.600057 1_555
O100 Y4 2.249378 1_555
O101 Si5 1.619812 1_555
O101 Y5 2.267096 1_555
O102 S1 1.478323 1_555
O102 Y6 2.492182 1_555
O103 Si1 1.617125 1_555
O103 Y7 2.247849 1_555
O104 Si3 1.629479 1_555
O104 Y6 2.255851 1_555
O105 Si2 1.601780 1_655
O105 Y7 2.248028 1_555
O106 S0 1.469469 1_545
O106 Y6 2.363518 1_555
O107 Si0 1.612699 1_555
O107 Y7 2.306203 1_555
O108 S3 1.489432 1_555
O108 Y8 2.449255 1_555
O109 S4 1.492700 1_555
O109 Y9 2.536011 1_555
O110 Si22 1.653675 1_555
O110 Y8 2.364464 1_555
O111 Si21 1.650237 1_655
O111 Y9 2.230195 1_555
O112 S5 1.494331 1_545
O112 Y8 2.464602 1_555
O113 Si23 1.627013 1_545
O113 Y9 2.370594 1_555
O114 S6 1.488130 1_545
O114 Y10 2.621766 1_555
O115 S7 1.489717 1_545
O115 Y11 2.473539 1_555
O116 Si24 1.629221 1_555
O116 Y10 2.412178 1_555
O117 S8 1.488051 1_555
O117 Y11 2.511240 1_555
O118 Si26 1.652118 1_555
O118 Y10 2.263237 1_555
O119 Si25 1.640057 1_655
O119 Y11 2.386608 1_555
O120 Si19 1.638504 1_555
O120 Y12 2.199561 1_555
O121 Si20 1.618700 1_555
O121 Y13 2.251781 1_555
O122 Si16 1.638612 1_455
O122 Y12 2.168457 1_555
O123 Si15 1.627785 1_555
O123 Y13 2.219531 1_555
O124 Si17 1.626532 1_565
O124 Y12 2.240838 1_555
O125 Si18 1.619759 1_565
O125 Y13 2.260508 1_555
O126 Si11 1.629117 1_565
O126 Y14 2.228078 1_555
O127 Si12 1.638469 1_565
O127 Y15 2.179019 1_555
O128 Si13 1.617808 1_555
O128 Y14 2.246052 1_555
O129 Si14 1.635983 1_555
O129 Y15 2.224469 1_555
O130 Si10 1.632047 1_455
O130 Y14 2.179028 1_555
O131 Si9 1.635886 1_555
O131 Y15 2.160544 1_555
O132 S0 1.514120 1_555
O132 Ta4 2.240145 1_555
O133 Si0 1.635877 1_565
O133 Y16 2.212378 1_555
O134 S1 1.504073 1_555
O134 Ta4 2.231039 1_555
O135 Si1 1.642379 1_555
O135 Y16 2.270224 1_555
O136 Si2 1.721871 1_555
O136 Ta4 1.902969 1_555
O137 Si3 1.650951 1_555
O137 Y16 2.210153 1_555
O138 Si4 1.637540 1_555
O138 Y17 2.193453 1_555
O139 S2 1.496366 1_555
O139 Ta5 2.314890 1_555
O140 Si5 1.653895 1_455
O140 Y17 2.189288 1_555
O141 Si6 1.700334 1_555
O141 Ta5 1.904007 1_555
O142 Si7 1.636900 1_555
O142 Y17 2.276823 1_555
O143 Si8 1.693618 1_555
O143 Ta5 1.968222 1_555
