# generated using pymatgen
data_LiCr4(PO4)3
_symmetry_space_group_name_H-M   'P 1'
_cell_length_a   7.56967200
_cell_length_b   8.12144978
_cell_length_c   9.79395611
_cell_angle_alpha   109.76921722
_cell_angle_beta   110.43487979
_cell_angle_gamma   93.47479108
_symmetry_Int_Tables_number   1
_chemical_formula_structural   LiCr4(PO4)3
_chemical_formula_sum   'Li2 Cr8 P6 O24'
_cell_volume   519.94061946
_cell_formula_units_Z   2
loop_
 _symmetry_equiv_pos_site_id
 _symmetry_equiv_pos_as_xyz
  1  'x, y, z'
loop_
 _atom_site_type_symbol
 _atom_site_label
 _atom_site_symmetry_multiplicity
 _atom_site_fract_x
 _atom_site_fract_y
 _atom_site_fract_z
 _atom_site_occupancy
  Li  Li0  1  0.40916700  0.11905500  0.43268800  1
  Li  Li1  1  0.59083300  0.88094500  0.56731200  1
  Cr  Cr0  1  0.98761700  0.20428800  0.52829000  1
  Cr  Cr1  1  0.74155400  0.09876400  0.09506400  1
  Cr  Cr2  1  0.72855600  0.47444700  0.08177400  1
  Cr  Cr3  1  0.73422000  0.43016300  0.71792300  1
  Cr  Cr4  1  0.26578000  0.56983700  0.28207700  1
  Cr  Cr5  1  0.27144400  0.52555300  0.91822600  1
  Cr  Cr6  1  0.25844600  0.90123600  0.90493600  1
  Cr  Cr7  1  0.01238300  0.79571200  0.47171000  1
  P  P0  1  0.01739300  0.24965800  0.93443900  1
  P  P1  1  0.32193800  0.55984500  0.61527600  1
  P  P2  1  0.39661600  0.13668100  0.73803900  1
  P  P3  1  0.60338400  0.86331900  0.26196100  1
  P  P4  1  0.67806200  0.44015500  0.38472400  1
  P  P5  1  0.98260700  0.75034200  0.06556100  1
  O  O0  1  0.27741700  0.64665500  0.76606300  1
  O  O1  1  0.79199600  0.63483600  0.47495800  1
  O  O2  1  0.75073100  0.32863600  0.49192300  1
  O  O3  1  0.58200600  0.66645700  0.15558400  1
  O  O4  1  0.86410600  0.26149900  0.00979000  1
  O  O5  1  0.92398700  0.92906600  0.09342300  1
  O  O6  1  0.53859900  0.57965100  0.65993300  1
  O  O7  1  0.81495500  0.94201600  0.39393100  1
  O  O8  1  0.13589400  0.73850100  0.99021000  1
  O  O9  1  0.07601300  0.07093400  0.90657700  1
  O  O10  1  0.94123600  0.28385100  0.77782600  1
  O  O11  1  0.18504500  0.05798400  0.60606900  1
  O  O12  1  0.05876400  0.71614900  0.22217400  1
  O  O13  1  0.55767600  0.97785800  0.16001000  1
  O  O14  1  0.24926900  0.67136400  0.50807700  1
  O  O15  1  0.41799400  0.33354300  0.84441600  1
  O  O16  1  0.44232400  0.02214200  0.83999000  1
  O  O17  1  0.19201900  0.40966400  0.05013000  1
  O  O18  1  0.72258300  0.35334500  0.23393700  1
  O  O19  1  0.53359300  0.12520300  0.65083100  1
  O  O20  1  0.46640700  0.87479700  0.34916900  1
  O  O21  1  0.46140100  0.42034900  0.34006700  1
  O  O22  1  0.80798100  0.59033600  0.94987000  1
  O  O23  1  0.20800400  0.36516400  0.52504200  1
loop_
_geom_bond_atom_site_label_1
_geom_bond_atom_site_label_2
_geom_bond_distance
_geom_bond_site_symmetry_2
Li0 O19 1.992776 1_555
Li0 O20 2.011473 1_545
Li1 O20 1.992776 1_555
Li1 O19 2.011473 1_565
Cr0 O11 2.063522 1_655
Cr0 O23 2.071742 1_655
Cr0 O2 2.092599 1_555
Cr0 O7 2.131281 1_545
Cr0 O10 2.464153 1_555
Cr1 O5 2.009463 1_545
Cr1 O13 2.044805 1_545
Cr1 O18 2.101295 1_555
Cr1 O4 2.108058 1_555
Cr1 O16 2.566114 1_554
Cr2 O3 2.047445 1_555
Cr2 O22 2.052430 1_554
Cr2 O18 2.055106 1_555
Cr2 O4 2.106248 1_555
Cr2 O15 2.509658 1_554
Cr2 O12 2.677899 1_655
Cr3 O6 2.021468 1_555
Cr3 O22 2.047365 1_555
Cr3 O10 2.065703 1_555
Cr3 O2 2.136786 1_555
Cr3 O19 2.572666 1_555
Cr4 O21 2.021468 1_555
Cr4 O17 2.047365 1_555
Cr4 O12 2.065703 1_555
Cr4 O14 2.136786 1_555
Cr4 O20 2.572666 1_555
Cr5 O15 2.047445 1_555
Cr5 O17 2.052430 1_556
Cr5 O0 2.055106 1_555
Cr5 O8 2.106248 1_555
Cr5 O3 2.509658 1_556
Cr5 O10 2.677899 1_455
Cr6 O9 2.009463 1_565
Cr6 O16 2.044805 1_565
Cr6 O0 2.101295 1_555
Cr6 O8 2.108058 1_555
Cr6 O13 2.566114 1_556
Cr7 O7 2.063522 1_455
Cr7 O1 2.071742 1_455
Cr7 O14 2.092599 1_555
Cr7 O11 2.131281 1_565
Cr7 O12 2.464153 1_555
O0 P1 1.569582 1_555
O1 P4 1.543354 1_555
O2 P4 1.589190 1_555
O3 P3 1.546586 1_555
O4 P0 1.569619 1_654
O5 P5 1.507614 1_555
O6 P1 1.525281 1_555
O7 P3 1.586068 1_555
O8 P5 1.569619 1_456
O9 P0 1.507614 1_555
O10 P0 1.565972 1_655
O11 P2 1.586068 1_555
O12 P5 1.565972 1_455
O13 P3 1.551815 1_555
O14 P1 1.589190 1_555
O15 P2 1.546586 1_555
O16 P2 1.551815 1_555
O17 P0 1.571529 1_554
O18 P4 1.569582 1_555
O19 P2 1.545820 1_555
O20 P3 1.545820 1_555
O21 P4 1.525281 1_555
O22 P5 1.571529 1_556
O23 P1 1.543354 1_555
