# generated using pymatgen
data_CuP2PbO7
_symmetry_space_group_name_H-M   'P 1'
_cell_length_a   8.28281600
_cell_length_b   5.53836400
_cell_length_c   13.77385108
_cell_angle_alpha   67.17186262
_cell_angle_beta   90.00000000
_cell_angle_gamma   90.00000000
_symmetry_Int_Tables_number   1
_chemical_formula_structural   CuP2PbO7
_chemical_formula_sum   'Cu4 P8 Pb4 O28'
_cell_volume   582.36012831
_cell_formula_units_Z   4
loop_
 _symmetry_equiv_pos_site_id
 _symmetry_equiv_pos_as_xyz
  1  'x, y, z'
loop_
 _atom_site_type_symbol
 _atom_site_label
 _atom_site_symmetry_multiplicity
 _atom_site_fract_x
 _atom_site_fract_y
 _atom_site_fract_z
 _atom_site_occupancy
  Cu  Cu0  1  0.64381500  0.67214700  0.11280100  1
  Cu  Cu1  1  0.14381500  0.32785300  0.38719900  1
  Cu  Cu2  1  0.35618500  0.32785300  0.88719900  1
  Cu  Cu3  1  0.85618500  0.67214700  0.61280100  1
  P  P0  1  0.96330000  0.40564100  0.83857900  1
  P  P1  1  0.46330000  0.59435900  0.66142100  1
  P  P2  1  0.03670000  0.59435900  0.16142100  1
  P  P3  1  0.53670000  0.40564100  0.33857900  1
  P  P4  1  0.69481900  0.33316800  0.98757400  1
  P  P5  1  0.19481900  0.66683200  0.51242600  1
  P  P6  1  0.30518100  0.66683200  0.01242600  1
  P  P7  1  0.80518100  0.33316800  0.48757400  1
  Pb  Pb0  1  0.83129200  0.01385200  0.27672200  1
  Pb  Pb1  1  0.33129200  0.98614800  0.22327800  1
  Pb  Pb2  1  0.16870800  0.98614800  0.72327800  1
  Pb  Pb3  1  0.66870800  0.01385200  0.77672200  1
  O  O0  1  0.94207000  0.17458400  0.80535500  1
  O  O1  1  0.44207000  0.82541600  0.69464500  1
  O  O2  1  0.05793000  0.82541600  0.19464500  1
  O  O3  1  0.55793000  0.17458400  0.30535500  1
  O  O4  1  0.87800800  0.65853500  0.76267000  1
  O  O5  1  0.37800800  0.34146500  0.73733000  1
  O  O6  1  0.12199200  0.34146500  0.23733000  1
  O  O7  1  0.62199200  0.65853500  0.26267000  1
  O  O8  1  0.13943700  0.47673900  0.84881000  1
  O  O9  1  0.63943700  0.52326100  0.65119000  1
  O  O10  1  0.86056300  0.52326100  0.15119000  1
  O  O11  1  0.36056300  0.47673900  0.34881000  1
  O  O12  1  0.88282900  0.32691100  0.95295400  1
  O  O13  1  0.38282900  0.67308900  0.54704600  1
  O  O14  1  0.11717100  0.67308900  0.04704600  1
  O  O15  1  0.61717100  0.32691100  0.45295400  1
  O  O16  1  0.83573500  0.61607900  0.48026300  1
  O  O17  1  0.33573500  0.38392100  0.01973700  1
  O  O18  1  0.16426500  0.38392100  0.51973700  1
  O  O19  1  0.66426500  0.61607900  0.98026300  1
  O  O20  1  0.81738400  0.11868200  0.59702100  1
  O  O21  1  0.31738400  0.88131800  0.90297900  1
  O  O22  1  0.18261600  0.88131800  0.40297900  1
  O  O23  1  0.68261600  0.11868200  0.09702100  1
  O  O24  1  0.90598100  0.28044400  0.40285900  1
  O  O25  1  0.40598100  0.71955600  0.09714100  1
  O  O26  1  0.09401900  0.71955600  0.59714100  1
  O  O27  1  0.59401900  0.28044400  0.90285900  1
loop_
_geom_bond_atom_site_label_1
_geom_bond_atom_site_label_2
_geom_bond_distance
_geom_bond_site_symmetry_2
Cu0 O10 1.960678 1_555
Cu0 O19 1.974245 1_554
Cu0 O25 1.988006 1_555
Cu0 O7 2.044218 1_555
Cu0 O23 2.418581 1_565
Cu1 O11 1.960678 1_555
Cu1 O18 1.974245 1_555
Cu1 O24 1.988006 1_455
Cu1 O6 2.044218 1_555
Cu1 O22 2.418581 1_545
Cu2 O8 1.960678 1_555
Cu2 O17 1.974245 1_556
Cu2 O27 1.988006 1_555
Cu2 O5 2.044218 1_555
Cu2 O21 2.418581 1_545
Cu3 O9 1.960678 1_555
Cu3 O16 1.974245 1_555
Cu3 O26 1.988006 1_655
Cu3 O4 2.044218 1_555
Cu3 O20 2.418581 1_565
O0 P0 1.527190 1_555
O0 Pb3 2.519332 1_555
O0 Pb2 2.608944 1_645
O1 P1 1.527190 1_555
O1 Pb2 2.519332 1_555
O1 Pb3 2.608944 1_565
O2 P2 1.527190 1_555
O2 Pb1 2.519332 1_555
O2 Pb0 2.608944 1_465
O3 P3 1.527190 1_555
O3 Pb0 2.519332 1_555
O3 Pb1 2.608944 1_545
O4 P0 1.554897 1_555
O4 Pb3 2.685308 1_565
O5 P1 1.554897 1_555
O5 Pb2 2.685308 1_545
O6 P2 1.554897 1_555
O6 Pb1 2.685308 1_545
O7 P3 1.554897 1_555
O7 Pb0 2.685308 1_565
O8 P0 1.531792 1_455
O8 Pb2 2.687556 1_555
O9 P1 1.531792 1_555
O9 Pb3 2.687556 1_555
O10 P2 1.531792 1_655
O10 Pb0 2.687556 1_555
O11 P3 1.531792 1_555
O11 Pb1 2.687556 1_555
O12 P0 1.607237 1_555
O12 P4 1.632925 1_555
O13 P1 1.607237 1_555
O13 P5 1.632925 1_555
O14 P2 1.607237 1_555
O14 P6 1.632925 1_555
O15 P3 1.607237 1_555
O15 P7 1.632925 1_555
O16 P7 1.551393 1_555
O16 Pb0 2.814623 1_565
O17 P6 1.551393 1_555
O17 Pb1 2.814623 1_545
O18 P5 1.551393 1_555
O18 Pb2 2.814623 1_545
O19 P4 1.551393 1_555
O19 Pb3 2.814623 1_565
O20 P7 1.518018 1_555
O20 Pb3 2.620113 1_555
O21 P6 1.518018 1_556
O21 Pb2 2.620113 1_555
O22 P5 1.518018 1_555
O22 Pb1 2.620113 1_555
O23 P4 1.518018 1_554
O23 Pb0 2.620113 1_555
O24 P7 1.551858 1_555
O24 Pb0 2.751672 1_555
O25 P6 1.551858 1_555
O25 Pb1 2.751672 1_555
O26 P5 1.551858 1_555
O26 Pb2 2.751672 1_555
O27 P4 1.551858 1_555
O27 Pb3 2.751672 1_555
