# generated using pymatgen
data_Na2Hf4Si5Ge4S7O48
_symmetry_space_group_name_H-M   'P 1'
_cell_length_a   17.46224164
_cell_length_b   8.72789740
_cell_length_c   22.54030419
_cell_angle_alpha   90.04909782
_cell_angle_beta   89.24739138
_cell_angle_gamma   120.09223769
_symmetry_Int_Tables_number   1
_chemical_formula_structural   Na2Hf4Si5Ge4S7O48
_chemical_formula_sum   'Na6 Hf12 Si15 Ge12 S21 O144'
_cell_volume   2971.99883752
_cell_formula_units_Z   3
loop_
 _symmetry_equiv_pos_site_id
 _symmetry_equiv_pos_as_xyz
  1  'x, y, z'
loop_
 _atom_site_type_symbol
 _atom_site_label
 _atom_site_symmetry_multiplicity
 _atom_site_fract_x
 _atom_site_fract_y
 _atom_site_fract_z
 _atom_site_occupancy
  Na  Na0  1  0.99521191  0.99469752  0.49951081  1
  Na  Na1  1  0.49458837  0.99572600  0.99399176  1
  Na  Na2  1  0.34112359  0.34696072  0.83818700  1
  Na  Na3  1  0.83539187  0.34347696  0.83058841  1
  Na  Na4  1  0.33724248  0.33092851  0.33227662  1
  Na  Na5  1  0.83589399  0.33413561  0.34164427  1
  Hf  Hf0  1  0.49575776  0.00128042  0.35867945  1
  Hf  Hf1  1  0.99441022  0.98780867  0.85883132  1
  Hf  Hf2  1  0.50543768  0.99502921  0.64554889  1
  Hf  Hf3  1  0.00466863  0.00392804  0.14240776  1
  Hf  Hf4  1  0.33904828  0.35475159  0.68976157  1
  Hf  Hf5  1  0.83355292  0.32536498  0.18595184  1
  Hf  Hf6  1  0.17205671  0.66014536  0.01837779  1
  Hf  Hf7  1  0.65595552  0.65834864  0.02686658  1
  Hf  Hf8  1  0.15557017  0.65312267  0.52922446  1
  Hf  Hf9  1  0.67331414  0.68587937  0.51894388  1
  Hf  Hf10  1  0.65869375  0.65900388  0.31175422  1
  Hf  Hf11  1  0.16009149  0.65906384  0.81118583  1
  Si  Si0  1  0.14577618  0.00440285  0.25158509  1
  Si  Si1  1  0.49879563  0.28201099  0.24487438  1
  Si  Si2  1  0.64601628  0.28070110  0.75028245  1
  Si  Si3  1  0.99959880  0.71630117  0.74456810  1
  Si  Si4  1  0.50465422  0.72097222  0.75609127  1
  Si  Si5  1  0.96738409  0.30887502  0.59083128  1
  Si  Si6  1  0.33608014  0.62886242  0.58105709  1
  Si  Si7  1  0.46763158  0.62319262  0.09055007  1
  Si  Si8  1  0.83480695  0.04479281  0.08013191  1
  Si  Si9  1  0.31857950  0.67503751  0.91209301  1
  Si  Si10  1  0.01497864  0.37491915  0.91860918  1
  Si  Si11  1  0.52131346  0.36597800  0.91654203  1
  Si  Si12  1  0.81853421  0.96324737  0.41121707  1
  Si  Si13  1  0.02074885  0.66574338  0.41727723  1
  Si  Si14  1  0.51397376  0.65238555  0.41923778  1
  Ge  Ge0  1  0.00620781  0.99433157  0.35713533  1
  Ge  Ge1  1  0.50298906  0.00177823  0.85291091  1
  Ge  Ge2  1  0.99168578  0.99508861  0.65098073  1
  Ge  Ge3  1  0.48998730  0.99111978  0.14828136  1
  Ge  Ge4  1  0.83703605  0.35108551  0.69141796  1
  Ge  Ge5  1  0.33638519  0.31942468  0.19066276  1
  Ge  Ge6  1  0.35315236  0.38636370  0.97620339  1
  Ge  Ge7  1  0.83512915  0.31735914  0.97732874  1
  Ge  Ge8  1  0.34172661  0.35366259  0.48437814  1
  Ge  Ge9  1  0.85096839  0.31727735  0.47926358  1
  Ge  Ge10  1  0.15707035  0.67672435  0.31390924  1
  Ge  Ge11  1  0.64265375  0.61824079  0.80447454  1
  S  S0  1  0.64111504  0.99908684  0.24810338  1
  S  S1  1  0.34854608  0.70457597  0.25193924  1
  S  S2  1  0.85886249  0.71517602  0.25221474  1
  S  S3  1  0.00556753  0.29731440  0.25389797  1
  S  S4  1  0.14006039  0.28115746  0.74800199  1
  S  S5  1  0.35774265  0.00153609  0.75142977  1
  S  S6  1  0.85147983  0.99621316  0.75143129  1
  S  S7  1  0.47715053  0.33055632  0.58007277  1
  S  S8  1  0.18946209  0.05642905  0.58184951  1
  S  S9  1  0.69900688  0.06585763  0.58180528  1
  S  S10  1  0.83561692  0.61543964  0.58320000  1
  S  S11  1  0.97614730  0.62066828  0.07947682  1
  S  S12  1  0.33492451  0.05312884  0.08406354  1
  S  S13  1  0.19923776  0.33553129  0.08322978  1
  S  S14  1  0.68737062  0.32274954  0.08180880  1
  S  S15  1  0.80420821  0.64811446  0.91903037  1
  S  S16  1  0.17184571  0.96593933  0.91871099  1
  S  S17  1  0.66886953  0.96067594  0.91610094  1
  S  S18  1  0.30342335  0.95607928  0.41809882  1
  S  S19  1  0.16793322  0.37978818  0.41348658  1
  S  S20  1  0.67188033  0.37845905  0.41851147  1
  O  O0  1  0.09891901  0.04450844  0.30923002  1
  O  O1  1  0.59949681  0.02178746  0.30196325  1
  O  O2  1  0.40729010  0.78858775  0.30314075  1
  O  O3  1  0.91441371  0.79512575  0.30496175  1
  O  O4  1  0.48233494  0.16002331  0.30322772  1
  O  O5  1  0.98527875  0.18443557  0.30645203  1
  O  O6  1  0.09795368  0.17556353  0.80164514  1
  O  O7  1  0.60074742  0.15980861  0.80933160  1
  O  O8  1  0.48295692  0.80688964  0.81254476  1
  O  O9  1  0.98249774  0.80452275  0.80299903  1
  O  O10  1  0.41273902  0.03850647  0.80472712  1
  O  O11  1  0.91170852  0.03321975  0.80218958  1
  O  O12  1  0.39865773  0.97903019  0.69688605  1
  O  O13  1  0.89203457  0.96710051  0.69530829  1
  O  O14  1  0.08795182  0.20385809  0.69336698  1
  O  O15  1  0.58649199  0.21105312  0.69190266  1
  O  O16  1  0.01389907  0.84225863  0.68524345  1
  O  O17  1  0.51676056  0.82696653  0.69479136  1
  O  O18  1  0.38766132  0.81533910  0.19658249  1
  O  O19  1  0.89937876  0.82042351  0.19752644  1
  O  O20  1  0.01557272  0.21496619  0.19921077  1
  O  O21  1  0.51329085  0.18397587  0.18608294  1
  O  O22  1  0.08462910  0.96479860  0.19412840  1
  O  O23  1  0.59024834  0.97665982  0.19379928  1
  O  O24  1  0.43426472  0.35706493  0.63328881  1
  O  O25  1  0.91927130  0.34603301  0.64561109  1
  O  O26  1  0.24243198  0.13534086  0.63515610  1
  O  O27  1  0.74921198  0.14045325  0.63589698  1
  O  O28  1  0.31955234  0.50512702  0.63942017  1
  O  O29  1  0.81875579  0.51104531  0.63877871  1
  O  O30  1  0.41979304  0.49282406  0.14648909  1
  O  O31  1  0.93390910  0.51354407  0.13447239  1
  O  O32  1  0.31845059  0.12360654  0.14020244  1
  O  O33  1  0.81897663  0.13410374  0.14013608  1
  O  O34  1  0.24880046  0.35914032  0.13783413  1
  O  O35  1  0.74148797  0.34972411  0.13603636  1
  O  O36  1  0.23687374  0.30218488  0.02864142  1
  O  O37  1  0.73080019  0.29899219  0.02800032  1
  O  O38  1  0.41225133  0.55365433  0.02827122  1
  O  O39  1  0.92001672  0.54000859  0.02738222  1
  O  O40  1  0.35172530  0.16629701  0.03179288  1
  O  O41  1  0.85155791  0.17772673  0.02422471  1
  O  O42  1  0.23313787  0.16632111  0.52611025  1
  O  O43  1  0.73882026  0.17437450  0.52638847  1
  O  O44  1  0.35281412  0.53375574  0.52293508  1
  O  O45  1  0.85185228  0.53495598  0.53020827  1
  O  O46  1  0.41985813  0.29647691  0.52626521  1
  O  O47  1  0.91374112  0.26862186  0.52785919  1
  O  O48  1  0.27478849  0.70438409  0.97298851  1
  O  O49  1  0.76624479  0.68006647  0.97246065  1
  O  O50  1  0.07711655  0.46887430  0.97581580  1
  O  O51  1  0.57952672  0.45388051  0.97448598  1
  O  O52  1  0.15510795  0.85280758  0.97198177  1
  O  O53  1  0.65787143  0.85478654  0.97045203  1
  O  O54  1  0.26470800  0.84511490  0.47027445  1
  O  O55  1  0.77787680  0.84298127  0.47136735  1
  O  O56  1  0.15449920  0.46113148  0.46698617  1
  O  O57  1  0.65535718  0.45794666  0.47146746  1
  O  O58  1  0.08101436  0.70026918  0.47363808  1
  O  O59  1  0.57881157  0.68687204  0.47481643  1
  O  O60  1  0.06034945  0.61555311  0.35783090  1
  O  O61  1  0.55782563  0.61839711  0.35992591  1
  O  O62  1  0.25203182  0.87686591  0.36243536  1
  O  O63  1  0.75478927  0.87105555  0.35564950  1
  O  O64  1  0.18503449  0.49201000  0.35889792  1
  O  O65  1  0.68589238  0.48789336  0.36455940  1
  O  O66  1  0.05966863  0.49790023  0.86007395  1
  O  O67  1  0.56074269  0.50159021  0.85875224  1
  O  O68  1  0.18609998  0.88463276  0.86504068  1
  O  O69  1  0.68775752  0.88959172  0.86297359  1
  O  O70  1  0.25391460  0.63838331  0.85702392  1
  O  O71  1  0.75440057  0.62466345  0.86477928  1
  O  O72  1  0.01223626  0.84235649  0.40745274  1
  O  O73  1  0.50223399  0.82159108  0.40761061  1
  O  O74  1  0.39312631  0.97936261  0.40970859  1
  O  O75  1  0.91954761  0.99566718  0.40210036  1
  O  O76  1  0.08491278  0.20329652  0.40862287  1
  O  O77  1  0.59079680  0.20232985  0.41043963  1
  O  O78  1  0.00320083  0.18183168  0.90852392  1
  O  O79  1  0.51252013  0.17516501  0.90457735  1
  O  O80  1  0.09127872  0.98032166  0.91077545  1
  O  O81  1  0.58902578  0.97861386  0.91337115  1
  O  O82  1  0.41728288  0.84757435  0.90777835  1
  O  O83  1  0.89553991  0.80421388  0.91243645  1
  O  O84  1  0.48437838  0.17283589  0.58621203  1
  O  O85  1  0.98212856  0.13586207  0.59803783  1
  O  O86  1  0.10131973  0.04093112  0.58529865  1
  O  O87  1  0.61000366  0.04410899  0.58559668  1
  O  O88  1  0.42283558  0.81776620  0.58867869  1
  O  O89  1  0.91551173  0.79740980  0.58855496  1
  O  O90  1  0.48149567  0.82535068  0.09894369  1
  O  O91  1  0.98346514  0.79563423  0.08721265  1
  O  O92  1  0.41567514  0.03207615  0.08965668  1
  O  O93  1  0.92364724  0.03785211  0.09223510  1
  O  O94  1  0.10854223  0.17992078  0.08947216  1
  O  O95  1  0.59918929  0.16044733  0.08730321  1
  O  O96  1  0.34504902  0.15761169  0.74418980  1
  O  O97  1  0.84424371  0.15673053  0.74432288  1
  O  O98  1  0.22764428  0.29060531  0.74349496  1
  O  O99  1  0.74356909  0.29444314  0.73954424  1
  O  O100  1  0.41852566  0.51896105  0.75008881  1
  O  O101  1  0.91088739  0.51910661  0.74050341  1
  O  O102  1  0.34005792  0.52883141  0.24516039  1
  O  O103  1  0.84973087  0.53592434  0.24593706  1
  O  O104  1  0.41023674  0.30227147  0.24090129  1
  O  O105  1  0.92734979  0.32593283  0.24665662  1
  O  O106  1  0.24295543  0.18567732  0.24049002  1
  O  O107  1  0.73059665  0.16527983  0.24469806  1
  O  O108  1  0.32051128  0.48729563  0.92169052  1
  O  O109  1  0.81349744  0.48619459  0.92647283  1
  O  O110  1  0.42150918  0.34463177  0.92672813  1
  O  O111  1  0.91829565  0.36615063  0.92280742  1
  O  O112  1  0.25000722  0.14165202  0.92598630  1
  O  O113  1  0.74875692  0.14756202  0.92342929  1
  O  O114  1  0.31177787  0.13340836  0.42388909  1
  O  O115  1  0.82146088  0.15388055  0.42229981  1
  O  O116  1  0.24513675  0.35249608  0.41933334  1
  O  O117  1  0.74941176  0.35809905  0.42482287  1
  O  O118  1  0.41664896  0.46589502  0.42422453  1
  O  O119  1  0.92055295  0.49236965  0.42722545  1
  O  O120  1  0.18908742  0.49403725  0.07747450  1
  O  O121  1  0.67986067  0.48196826  0.07742561  1
  O  O122  1  0.06434268  0.64143233  0.07519832  1
  O  O123  1  0.56314700  0.64352479  0.07951255  1
  O  O124  1  0.25623322  0.87605551  0.07761148  1
  O  O125  1  0.75075506  0.85397189  0.07155888  1
  O  O126  1  0.18095984  0.88072046  0.57542878  1
  O  O127  1  0.68990187  0.88741839  0.57516253  1
  O  O128  1  0.24949116  0.64292803  0.57099762  1
  O  O129  1  0.75633744  0.63364547  0.57577935  1
  O  O130  1  0.06274693  0.48166667  0.58048939  1
  O  O131  1  0.56405818  0.48974981  0.57311775  1
  O  O132  1  0.15974564  0.83405235  0.26340208  1
  O  O133  1  0.65426692  0.84708151  0.25313086  1
  O  O134  1  0.26095313  0.69078911  0.26112792  1
  O  O135  1  0.77103064  0.69342774  0.25831487  1
  O  O136  1  0.08825246  0.47293872  0.25873853  1
  O  O137  1  0.58781049  0.47097347  0.25268588  1
  O  O138  1  0.15349809  0.46004822  0.75278303  1
  O  O139  1  0.66695611  0.48594424  0.76083314  1
  O  O140  1  0.08806525  0.70484283  0.75279296  1
  O  O141  1  0.59552158  0.71040644  0.76064073  1
  O  O142  1  0.27044364  0.84380932  0.75795155  1
  O  O143  1  0.76653594  0.83592361  0.76026487  1
loop_
_geom_bond_atom_site_label_1
_geom_bond_atom_site_label_2
_geom_bond_distance
_geom_bond_site_symmetry_2
Na0 O89 2.541594 1_555
Na0 O72 2.556833 1_655
Na0 O75 2.579575 1_555
Na0 O86 2.584212 1_665
Na0 O85 2.601254 1_565
Na0 O76 2.650947 1_665
Na1 O82 2.363224 1_555
Na1 O79 2.471804 1_565
Na1 O81 2.492360 1_555
Na1 O92 2.647341 1_566
Na1 O95 2.699889 1_566
Na1 O90 2.740563 1_556
Na2 O108 2.364901 1_555
Na2 O100 2.433846 1_555
Na2 O110 2.460913 1_555
Na2 O112 2.592948 1_555
Na2 O96 2.707144 1_555
Na2 O98 2.802892 1_555
Na3 O101 2.473731 1_555
Na3 O111 2.499356 1_555
Na3 O99 2.522367 1_555
Na3 O97 2.588568 1_555
Na3 O109 2.611524 1_555
Na3 O113 2.630718 1_555
Na4 O118 2.457455 1_555
Na4 O104 2.485797 1_555
Na4 O106 2.567144 1_555
Na4 O114 2.578189 1_555
Na4 O116 2.587067 1_555
Na4 O102 2.599971 1_555
Na5 O115 2.332167 1_555
Na5 O119 2.415972 1_555
Na5 O117 2.466007 1_555
Na5 O105 2.676616 1_555
Na5 O103 2.716630 1_555
Na5 O107 2.776798 1_555
Hf0 O73 1.967974 1_545
Hf0 O4 1.968017 1_555
Hf0 O74 2.043014 1_545
Hf0 O77 2.078849 1_555
Hf0 O1 2.135967 1_555
Hf0 O2 2.137945 1_545
Hf1 O9 1.963622 1_555
Hf1 O78 1.971396 1_665
Hf1 O83 2.045158 1_555
Hf1 O80 2.097485 1_655
Hf1 O11 2.120372 1_565
Hf1 O6 2.141794 1_665
Hf2 O17 1.929262 1_555
Hf2 O88 1.981093 1_555
Hf2 O15 2.002316 1_565
Hf2 O87 2.120272 1_565
Hf2 O12 2.125512 1_555
Hf2 O84 2.218367 1_565
Hf3 O93 1.957294 1_455
Hf3 O22 1.986700 1_545
Hf3 O94 2.055620 1_555
Hf3 O91 2.079218 1_445
Hf3 O19 2.116509 1_445
Hf3 O20 2.172304 1_555
Hf4 O28 1.893882 1_555
Hf4 O100 1.969991 1_555
Hf4 O24 2.072689 1_555
Hf4 O98 2.100453 1_555
Hf4 O96 2.159724 1_555
Hf4 O26 2.199821 1_555
Hf5 O33 1.869685 1_555
Hf5 O31 2.044163 1_555
Hf5 O35 2.070343 1_555
Hf5 O107 2.087942 1_555
Hf5 O105 2.146097 1_555
Hf5 O103 2.184123 1_555
Hf6 O48 1.916205 1_554
Hf6 O50 1.928591 1_554
Hf6 O120 2.100176 1_555
Hf6 O52 2.125799 1_554
Hf6 O124 2.182644 1_555
Hf6 O122 2.198615 1_555
Hf7 O123 1.947013 1_555
Hf7 O125 1.968988 1_555
Hf7 O51 2.002331 1_554
Hf7 O53 2.121948 1_554
Hf7 O121 2.121965 1_555
Hf7 O49 2.195716 1_554
Hf8 O130 1.929593 1_555
Hf8 O128 1.942002 1_555
Hf8 O58 2.003770 1_555
Hf8 O126 2.086290 1_555
Hf8 O56 2.177506 1_555
Hf8 O54 2.222708 1_555
Hf9 O59 1.941679 1_555
Hf9 O55 1.950517 1_555
Hf9 O127 2.068495 1_555
Hf9 O57 2.140266 1_555
Hf9 O129 2.159500 1_555
Hf9 O131 2.174547 1_555
Hf10 O61 1.931702 1_555
Hf10 O137 2.000143 1_555
Hf10 O63 2.036236 1_555
Hf10 O133 2.140160 1_555
Hf10 O65 2.145178 1_555
Hf10 O135 2.176419 1_555
Hf11 O66 1.935556 1_555
Hf11 O140 2.005553 1_555
Hf11 O70 2.031171 1_555
Hf11 O138 2.136084 1_555
Hf11 O142 2.140052 1_555
Hf11 O68 2.160911 1_555
Ge0 O72 1.789569 1_555
Ge0 O0 1.795175 1_565
Ge0 O75 1.815149 1_455
Ge0 O76 2.021575 1_565
Ge0 O3 2.055869 1_455
Ge0 O5 2.194072 1_465
Ge1 O8 1.803483 1_545
Ge1 O7 1.838094 1_555
Ge1 O79 1.850278 1_555
Ge1 O82 1.874861 1_545
Ge1 O10 2.078018 1_555
Ge1 O81 2.124646 1_545
Ge2 O16 1.747749 1_655
Ge2 O85 1.781824 1_565
Ge2 O13 1.901193 1_555
Ge2 O14 2.006586 1_665
Ge2 O89 2.114153 1_555
Ge2 O86 2.274976 1_665
Ge3 O21 1.744889 1_565
Ge3 O90 1.771564 1_555
Ge3 O18 1.983589 1_555
Ge3 O92 2.017140 1_565
Ge3 O23 2.098286 1_555
Ge3 O95 2.195035 1_565
Ge4 O25 1.776121 1_555
Ge4 O101 1.782136 1_555
Ge4 O99 1.797309 1_555
Ge4 O29 1.979523 1_555
Ge4 O27 2.125323 1_555
Ge4 O97 2.129989 1_555
Ge5 O30 1.776863 1_555
Ge5 O104 1.788880 1_555
Ge5 O106 1.824868 1_555
Ge5 O32 1.944732 1_555
Ge5 O34 2.111260 1_555
Ge5 O102 2.175812 1_555
Ge6 O38 1.758454 1_556
Ge6 O108 1.770444 1_555
Ge6 O110 1.789261 1_555
Ge6 O36 2.121836 1_556
Ge6 O40 2.283662 1_556
Ge6 O112 2.297572 1_555
Ge7 O41 1.745179 1_556
Ge7 O111 1.770465 1_555
Ge7 O113 1.936674 1_555
Ge7 O109 2.049534 1_555
Ge7 O37 2.074131 1_556
Ge7 O39 2.097151 1_556
Ge8 O44 1.720570 1_555
Ge8 O118 1.783300 1_555
Ge8 O46 1.928598 1_555
Ge8 O42 2.000155 1_555
Ge8 O114 2.198642 1_555
Ge8 O116 2.245491 1_555
Ge9 O47 1.755229 1_555
Ge9 O115 1.795902 1_555
Ge9 O119 1.814168 1_555
Ge9 O43 2.004329 1_555
Ge9 O45 2.212624 1_555
Ge9 O117 2.338639 1_555
Ge10 O132 1.766556 1_555
Ge10 O60 1.780588 1_555
Ge10 O136 2.011511 1_555
Ge10 O62 2.034003 1_555
Ge10 O134 2.107466 1_555
Ge10 O64 2.161274 1_555
Ge11 O139 1.720311 1_555
Ge11 O141 1.728378 1_555
Ge11 O67 1.753596 1_555
Ge11 O143 2.259985 1_555
Ge11 O71 2.370323 1_555
Ge11 O69 2.473736 1_555
O0 Si0 1.654932 1_555
O1 S0 1.470394 1_545
O2 S1 1.482312 1_555
O3 S2 1.480395 1_555
O4 Si1 1.622282 1_555
O5 S3 1.462986 1_655
O6 S4 1.466639 1_555
O7 Si2 1.627293 1_555
O8 Si4 1.611112 1_555
O9 Si3 1.623326 1_555
O10 S5 1.479365 1_555
O11 S6 1.486529 1_545
O12 S5 1.475736 1_565
O13 S6 1.524052 1_555
O14 S4 1.487319 1_555
O15 Si2 1.607006 1_555
O16 Si3 1.666573 1_455
O17 Si4 1.614950 1_555
O18 S1 1.508487 1_555
O19 S2 1.480273 1_555
O20 S3 1.478277 1_555
O21 Si1 1.660937 1_555
O22 Si0 1.613168 1_565
O23 S0 1.476262 1_555
O24 S7 1.484197 1_555
O25 Si5 1.606534 1_555
O26 S8 1.470574 1_555
O27 S9 1.460608 1_555
O28 Si6 1.630979 1_555
O29 S10 1.486449 1_555
O30 Si7 1.613683 1_555
O31 S11 1.497087 1_555
O32 S12 1.492945 1_555
O33 Si8 1.648566 1_555
O34 S13 1.468022 1_555
O35 S14 1.499750 1_555
O36 S13 1.483429 1_555
O37 S14 1.490723 1_555
O38 Si7 1.649185 1_555
O39 S11 1.473773 1_555
O40 S12 1.467017 1_555
O41 Si8 1.634692 1_555
O42 S8 1.524284 1_555
O43 S9 1.503190 1_555
O44 Si6 1.649869 1_555
O45 S10 1.479830 1_555
O46 S7 1.514334 1_555
O47 Si5 1.649143 1_555
O48 Si9 1.643967 1_555
O49 S15 1.459967 1_555
O50 Si10 1.629475 1_555
O51 Si11 1.605887 1_555
O52 S16 1.485119 1_555
O53 S17 1.486483 1_555
O54 S18 1.450038 1_555
O55 Si12 1.635211 1_555
O56 S19 1.473557 1_555
O57 S20 1.476347 1_555
O58 Si13 1.590171 1_555
O59 Si14 1.623819 1_555
O60 Si13 1.656484 1_555
O61 Si14 1.631538 1_555
O62 S18 1.504479 1_555
O63 Si12 1.609975 1_555
O64 S19 1.503868 1_555
O65 S20 1.486894 1_555
O66 Si10 1.623990 1_555
O67 Si11 1.653369 1_555
O68 S16 1.482150 1_555
O69 S17 1.456459 1_555
O70 Si9 1.609992 1_555
O71 S15 1.463792 1_555
O72 Si13 1.636601 1_555
O73 Si14 1.611628 1_555
O74 S18 1.484519 1_555
O75 Si12 1.650388 1_555
O76 S19 1.500353 1_555
O77 S20 1.491517 1_555
O78 Si10 1.608428 1_555
O79 Si11 1.616705 1_555
O80 S16 1.486878 1_555
O81 S17 1.481012 1_555
O82 Si9 1.625109 1_555
O83 S15 1.495675 1_555
O84 S7 1.450872 1_555
O85 Si5 1.662616 1_555
O86 S8 1.476978 1_555
O87 S9 1.469544 1_555
O88 Si6 1.595162 1_555
O89 S10 1.505176 1_555
O90 Si7 1.667287 1_555
O91 S11 1.477554 1_555
O92 S12 1.517409 1_555
O93 Si8 1.609400 1_555
O94 S13 1.486654 1_555
O95 S14 1.483585 1_555
O96 S5 1.495160 1_555
O97 S6 1.477436 1_545
O98 S4 1.491873 1_555
O99 Si2 1.661079 1_555
O100 Si4 1.653708 1_555
O101 Si3 1.643213 1_555
O102 S1 1.473197 1_555
O103 S2 1.497707 1_555
O104 Si1 1.645795 1_555
O105 S3 1.517444 1_655
O106 Si0 1.656087 1_555
O107 S0 1.508532 1_545
O108 Si9 1.670074 1_555
O109 S15 1.510842 1_555
O110 Si11 1.669958 1_555
O111 Si10 1.652702 1_655
O112 S16 1.465657 1_545
O113 S17 1.535487 1_545
O114 S18 1.485751 1_545
O115 Si12 1.657616 1_545
O116 S19 1.489415 1_555
O117 S20 1.459844 1_555
O118 Si14 1.664819 1_555
O119 Si13 1.654277 1_655
O120 S13 1.486240 1_555
O121 S14 1.463350 1_555
O122 S11 1.459542 1_455
O123 Si7 1.602401 1_555
O124 S12 1.474157 1_565
O125 Si8 1.587761 1_565
O126 S8 1.471964 1_565
O127 S9 1.491680 1_565
O128 Si6 1.596225 1_555
O129 S10 1.482060 1_555
O130 Si5 1.604311 1_455
O131 S7 1.462138 1_555
O132 Si0 1.645332 1_565
O133 S0 1.460193 1_555
O134 S1 1.484625 1_555
O135 S2 1.452536 1_555
O136 S3 1.493554 1_555
O137 Si1 1.613422 1_555
O138 S4 1.461999 1_555
O139 Si2 1.656465 1_555
O140 Si3 1.610381 1_455
O141 Si4 1.639455 1_555
O142 S5 1.459673 1_565
O143 S6 1.452181 1_555
