# generated using pymatgen
data_NaMgCu2O3
_symmetry_space_group_name_H-M   'P 1'
_cell_length_a   3.59341491
_cell_length_b   7.77864080
_cell_length_c   3.12669809
_cell_angle_alpha   90.00000000
_cell_angle_beta   90.00000000
_cell_angle_gamma   90.89358512
_symmetry_Int_Tables_number   1
_chemical_formula_structural   NaMgCu2O3
_chemical_formula_sum   'Na1 Mg1 Cu2 O3'
_cell_volume   87.38647301
_cell_formula_units_Z   1
loop_
 _symmetry_equiv_pos_site_id
 _symmetry_equiv_pos_as_xyz
  1  'x, y, z'
loop_
 _atom_site_type_symbol
 _atom_site_label
 _atom_site_symmetry_multiplicity
 _atom_site_fract_x
 _atom_site_fract_y
 _atom_site_fract_z
 _atom_site_occupancy
  Na  Na0  1  -0.00000000  0.00000000  0.50000000  1
  Mg  Mg0  1  -0.00000000  0.50000000  0.50000000  1
  Cu  Cu0  1  0.49151791  0.75529947  0.00000000  1
  Cu  Cu1  1  0.50848209  0.24470053  -0.00000000  1
  O  O0  1  0.01258859  0.32920878  -0.00000000  1
  O  O1  1  0.50000000  0.00000000  0.00000000  1
  O  O2  1  0.98741141  0.67079122  0.00000000  1
loop_
_geom_bond_atom_site_label_1
_geom_bond_atom_site_label_2
_geom_bond_distance
_geom_bond_site_symmetry_2
Na0 O1 2.381642 1_455
Na0 O1 2.381642 1_556
Na0 O1 2.381642 1_456
Na0 O1 2.381642 1_555
Mg0 O2 2.052549 1_455
Mg0 O0 2.052549 1_555
Mg0 O2 2.052549 1_456
Mg0 O0 2.052549 1_556
Cu0 O1 1.903206 1_565
Cu0 O2 1.908928 1_555
Cu0 O2 1.917389 1_455
Cu1 O1 1.903206 1_555
Cu1 O0 1.908928 1_555
Cu1 O0 1.917389 1_655
