# generated using pymatgen
data_MgMn6O7F5
_symmetry_space_group_name_H-M   'P 1'
_cell_length_a   4.98423040
_cell_length_b   5.06346059
_cell_length_c   9.20127075
_cell_angle_alpha   92.34233272
_cell_angle_beta   87.89262212
_cell_angle_gamma   98.42974150
_symmetry_Int_Tables_number   1
_chemical_formula_structural   MgMn6O7F5
_chemical_formula_sum   'Mg1 Mn6 O7 F5'
_cell_volume   229.40460842
_cell_formula_units_Z   1
loop_
 _symmetry_equiv_pos_site_id
 _symmetry_equiv_pos_as_xyz
  1  'x, y, z'
loop_
 _atom_site_type_symbol
 _atom_site_label
 _atom_site_symmetry_multiplicity
 _atom_site_fract_x
 _atom_site_fract_y
 _atom_site_fract_z
 _atom_site_occupancy
  Mg  Mg0  1  0.00493100  0.51121400  0.33636300  1
  Mn  Mn0  1  0.98403000  0.00333800  0.00420400  1
  Mn  Mn1  1  0.03287100  0.02233800  0.33464500  1
  Mn  Mn2  1  0.00155300  0.98350700  0.66567800  1
  Mn  Mn3  1  0.49081100  0.49718600  0.83656200  1
  Mn  Mn4  1  0.52843100  0.44561100  0.15034900  1
  Mn  Mn5  1  0.46823500  0.51873700  0.52208700  1
  O  O0  1  0.14860200  0.81220500  0.48525800  1
  O  O1  1  0.31379700  0.27393000  0.99410700  1
  O  O2  1  0.32466300  0.32318400  0.34097800  1
  O  O3  1  0.29955100  0.29389800  0.67213900  1
  O  O4  1  0.68565400  0.68977300  0.00203900  1
  O  O5  1  0.67137400  0.71174800  0.67452800  1
  O  O6  1  0.86022500  0.20190600  0.18830700  1
  F  F0  1  0.16736100  0.75528000  0.18166800  1
  F  F1  1  0.16351700  0.80220100  0.84279300  1
  F  F2  1  0.69446100  0.71348400  0.33409600  1
  F  F3  1  0.82395700  0.26126900  0.48705400  1
  F  F4  1  0.82209200  0.17919100  0.82571300  1
loop_
_geom_bond_atom_site_label_1
_geom_bond_atom_site_label_2
_geom_bond_distance
_geom_bond_site_symmetry_2
Mg0 O2 1.975098 1_555
Mg0 O0 2.072196 1_555
Mg0 O6 2.096575 1_455
Mn0 O1 1.981498 1_654
Mn0 O4 2.010038 1_545
Mn0 O6 2.055985 1_555
Mn1 O0 1.935103 1_545
Mn1 O2 1.946403 1_555
Mn1 O6 1.948054 1_455
Mn2 O5 1.985892 1_455
Mn2 O3 1.998538 1_565
Mn2 O0 2.006152 1_555
Mn3 O1 1.976152 1_555
Mn3 O4 1.980424 1_556
Mn3 O3 1.987018 1_555
Mn3 O5 1.990013 1_555
Mn4 O1 1.924886 1_554
Mn4 O4 1.944219 1_555
Mn4 O2 2.065349 1_555
Mn4 O6 2.248464 1_555
Mn5 O5 1.910489 1_555
Mn5 O3 1.916167 1_555
Mn5 O2 2.003647 1_555
Mn5 O0 2.374009 1_555
F0 Mg0 1.993594 1_555
F0 Mn1 2.073636 1_565
F0 Mn0 2.385961 1_465
F0 Mn4 2.555913 1_555
F1 Mn0 2.022155 1_466
F1 Mn2 2.141650 1_555
F1 Mn3 2.402975 1_555
F2 Mg0 1.978081 1_655
F2 Mn1 2.125397 1_665
F2 Mn5 2.214909 1_555
F2 Mn4 2.229211 1_555
F3 Mg0 2.013607 1_655
F3 Mn1 2.153554 1_655
F3 Mn5 2.355489 1_555
F3 Mn2 2.474647 1_645
F4 Mn2 1.998474 1_645
F4 Mn0 2.137606 1_556
F4 Mn3 2.466415 1_555
