# generated using pymatgen
data_MgMn5O7F
_symmetry_space_group_name_H-M   'P 1'
_cell_length_a   6.21698086
_cell_length_b   6.21696576
_cell_length_c   6.21686945
_cell_angle_alpha   59.53446294
_cell_angle_beta   120.46117679
_cell_angle_gamma   120.46983491
_symmetry_Int_Tables_number   1
_chemical_formula_structural   MgMn5O7F
_chemical_formula_sum   'Mg1 Mn5 O7 F1'
_cell_volume   168.10990289
_cell_formula_units_Z   1
loop_
 _symmetry_equiv_pos_site_id
 _symmetry_equiv_pos_as_xyz
  1  'x, y, z'
loop_
 _atom_site_type_symbol
 _atom_site_label
 _atom_site_symmetry_multiplicity
 _atom_site_fract_x
 _atom_site_fract_y
 _atom_site_fract_z
 _atom_site_occupancy
  Mg  Mg0  1  0.77250100  0.22755800  0.22745600  1
  Mn  Mn0  1  0.88200600  0.63448100  0.63441600  1
  Mn  Mn1  1  0.37601000  0.62388200  0.62405500  1
  Mn  Mn2  1  0.98925800  0.01052600  0.01087300  1
  Mn  Mn3  1  0.36545400  0.63458400  0.11790200  1
  Mn  Mn4  1  0.36570800  0.11814700  0.63427100  1
  O  O0  1  0.62593200  0.82721100  0.37404900  1
  O  O1  1  0.57434600  0.87308300  0.87303200  1
  O  O2  1  0.62593000  0.37411500  0.82721200  1
  O  O3  1  0.12699300  0.87303400  0.42567400  1
  O  O4  1  0.12150900  0.87854400  0.87847700  1
  O  O5  1  0.12687500  0.42561600  0.87309700  1
  O  O6  1  0.17278700  0.37410500  0.37404600  1
  F  F0  1  0.64363600  0.35617000  0.35649600  1
loop_
_geom_bond_atom_site_label_1
_geom_bond_atom_site_label_2
_geom_bond_distance
_geom_bond_site_symmetry_2
Mg0 O2 2.023881 1_554
Mg0 O6 2.024020 1_655
Mg0 O0 2.024217 1_545
Mn0 O2 1.986235 1_555
Mn0 O0 1.986284 1_555
Mn0 O3 1.991206 1_655
Mn0 O5 1.991497 1_655
Mn0 O4 2.138731 1_655
Mn1 O5 2.208040 1_555
Mn1 O1 2.208102 1_555
Mn1 O3 2.208167 1_555
Mn1 O2 2.211088 1_555
Mn1 O6 2.211351 1_555
Mn1 O0 2.211810 1_555
Mn2 O4 2.020387 1_644
Mn2 O3 2.093348 1_645
Mn2 O1 2.093857 1_544
Mn2 O5 2.094658 1_654
Mn3 O6 1.986136 1_555
Mn3 O0 1.986147 1_555
Mn3 O1 1.991299 1_554
Mn3 O5 1.991473 1_554
Mn3 O4 2.137925 1_554
Mn4 O2 1.986340 1_555
Mn4 O6 1.986380 1_555
Mn4 O3 1.991325 1_545
Mn4 O1 1.991435 1_545
Mn4 O4 2.139830 1_545
F0 Mg0 1.968877 1_555
F0 Mn4 2.449163 1_555
F0 Mn0 2.451552 1_555
F0 Mn3 2.453287 1_555
