# generated using pymatgen
data_Rb2MgH8(CO5)2
_symmetry_space_group_name_H-M   'P 1'
_cell_length_a   6.52221000
_cell_length_b   7.16279000
_cell_length_c   12.35283759
_cell_angle_alpha   64.95496438
_cell_angle_beta   90.00000000
_cell_angle_gamma   90.00000000
_symmetry_Int_Tables_number   1
_chemical_formula_structural   Rb2MgH8(CO5)2
_chemical_formula_sum   'Rb4 Mg2 H16 C4 O20'
_cell_volume   522.82951386
_cell_formula_units_Z   2
loop_
 _symmetry_equiv_pos_site_id
 _symmetry_equiv_pos_as_xyz
  1  'x, y, z'
loop_
 _atom_site_type_symbol
 _atom_site_label
 _atom_site_symmetry_multiplicity
 _atom_site_fract_x
 _atom_site_fract_y
 _atom_site_fract_z
 _atom_site_occupancy
  Rb  Rb0  1  0.64796500  0.24771600  0.17586200  1
  Rb  Rb1  1  0.14796500  0.75228400  0.32413800  1
  Rb  Rb2  1  0.35203500  0.75228400  0.82413800  1
  Rb  Rb3  1  0.85203500  0.24771600  0.67586200  1
  Mg  Mg0  1  0.00000000  0.00000000  0.00000000  1
  Mg  Mg1  1  0.50000000  0.00000000  0.50000000  1
  H  H0  1  0.67972900  0.29318500  0.91447800  1
  H  H1  1  0.17972900  0.70681500  0.58552200  1
  H  H2  1  0.32027100  0.70681500  0.08552200  1
  H  H3  1  0.82027100  0.29318500  0.41447800  1
  H  H4  1  0.88468800  0.42619300  0.87787500  1
  H  H5  1  0.38468800  0.57380700  0.62212500  1
  H  H6  1  0.65512800  0.79993000  0.36505700  1
  H  H7  1  0.15512800  0.20007000  0.13494300  1
  H  H8  1  0.34487200  0.20007000  0.63494300  1
  H  H9  1  0.61531200  0.42619300  0.37787500  1
  H  H10  1  0.70641300  0.80067800  0.97751000  1
  H  H11  1  0.20641300  0.19932200  0.52249000  1
  H  H12  1  0.29358700  0.19932200  0.02249000  1
  H  H13  1  0.79358700  0.80067800  0.47751000  1
  H  H14  1  0.11531200  0.57380700  0.12212500  1
  H  H15  1  0.84487200  0.79993000  0.86505700  1
  C  C0  1  0.65113900  0.75319900  0.17484700  1
  C  C1  1  0.84886100  0.75319900  0.67484700  1
  C  C2  1  0.34886100  0.24680100  0.82515300  1
  C  C3  1  0.15113900  0.24680100  0.32515300  1
  O  O0  1  0.16843100  0.71385000  0.06957700  1
  O  O1  1  0.57427800  0.69186900  0.09737700  1
  O  O2  1  0.69939800  0.88533700  0.40839400  1
  O  O3  1  0.19939800  0.11466300  0.09160600  1
  O  O4  1  0.30060200  0.11466300  0.59160600  1
  O  O5  1  0.80060200  0.88533700  0.90839400  1
  O  O6  1  0.66843100  0.28615000  0.43042300  1
  O  O7  1  0.07427800  0.30813100  0.40262300  1
  O  O8  1  0.33156900  0.71385000  0.56957700  1
  O  O9  1  0.83156900  0.28615000  0.93042300  1
  O  O10  1  0.80235000  0.88245900  0.14543000  1
  O  O11  1  0.30235000  0.11754100  0.35457000  1
  O  O12  1  0.19765000  0.11754100  0.85457000  1
  O  O13  1  0.69765000  0.88245900  0.64543000  1
  O  O14  1  0.07399900  0.31664900  0.21793800  1
  O  O15  1  0.42600100  0.31664900  0.71793800  1
  O  O16  1  0.92572200  0.69186900  0.59737700  1
  O  O17  1  0.57399900  0.68335100  0.28206200  1
  O  O18  1  0.42572200  0.30813100  0.90262300  1
  O  O19  1  0.92600100  0.68335100  0.78206200  1
loop_
_geom_bond_atom_site_label_1
_geom_bond_atom_site_label_2
_geom_bond_distance
_geom_bond_site_symmetry_2
Mg0 O12 2.077835 1_554
Mg0 O10 2.077835 1_445
Mg0 O5 2.105532 1_444
Mg0 O3 2.105532 1_555
Mg0 O0 2.157545 1_545
Mg0 O9 2.157545 1_454
Mg1 O13 2.077835 1_545
Mg1 O11 2.077835 1_555
Mg1 O2 2.105532 1_545
Mg1 O4 2.105532 1_555
Mg1 O6 2.157545 1_555
Mg1 O8 2.157545 1_545
H0 O9 1.006822 1_555
H0 O18 1.662602 1_555
H1 O8 1.006822 1_555
H1 O16 1.662602 1_455
H2 O0 1.006822 1_555
H2 O1 1.662602 1_555
H3 O6 1.006822 1_555
H3 O7 1.662602 1_655
H4 O9 0.998151 1_555
H4 O19 1.737953 1_555
H5 O8 0.998151 1_555
H5 O15 1.737953 1_555
H6 O2 1.010678 1_555
H6 O17 1.659268 1_555
H7 O3 1.010678 1_555
H7 O14 1.659268 1_555
H8 O4 1.010678 1_555
H8 O15 1.659268 1_555
H9 O6 0.998151 1_555
H9 O17 1.737953 1_555
H10 O5 1.017695 1_555
H10 O1 1.601733 1_556
H11 O4 1.017695 1_555
H11 O7 1.601733 1_555
H12 O3 1.017695 1_555
H12 O18 1.601733 1_554
H13 O2 1.017695 1_555
H13 O16 1.601733 1_555
H14 O0 0.998151 1_555
H14 O14 1.737953 1_555
H15 O5 1.010678 1_555
H15 O19 1.659268 1_555
C0 O10 1.295015 1_555
C0 O17 1.302495 1_555
C0 O1 1.309967 1_555
C1 O13 1.295015 1_555
C1 O19 1.302495 1_555
C1 O16 1.309967 1_555
C2 O12 1.295015 1_555
C2 O15 1.302495 1_555
C2 O18 1.309967 1_555
C3 O11 1.295015 1_555
C3 O14 1.302495 1_555
C3 O7 1.309967 1_555
O1 Rb0 2.946294 1_555
O2 Rb0 2.964492 1_565
O3 Rb1 2.964492 1_545
O4 Rb2 2.964492 1_545
O5 Rb3 2.964492 1_565
O7 Rb1 2.946294 1_555
O10 Rb0 2.971992 1_565
O10 Rb1 3.013511 1_655
O11 Rb1 2.971992 1_545
O11 Rb0 3.013511 1_555
O12 Rb2 2.971992 1_545
O12 Rb3 3.013511 1_455
O13 Rb3 2.971992 1_565
O13 Rb2 3.013511 1_555
O14 Rb0 2.907284 1_455
O15 Rb3 2.907284 1_555
O16 Rb3 2.946294 1_555
O17 Rb1 2.907284 1_555
O18 Rb2 2.946294 1_555
O19 Rb2 2.907284 1_655
