# generated using pymatgen
data_NaHfScSi(SO6)2
_symmetry_space_group_name_H-M   'P 1'
_cell_length_a   8.88280485
_cell_length_b   8.90409816
_cell_length_c   23.32312917
_cell_angle_alpha   89.76926997
_cell_angle_beta   90.00000000
_cell_angle_gamma   119.92092447
_symmetry_Int_Tables_number   1
_chemical_formula_structural   NaHfScSi(SO6)2
_chemical_formula_sum   'Na6 Hf6 Sc6 Si6 S12 O72'
_cell_volume   1598.81540255
_cell_formula_units_Z   6
loop_
 _symmetry_equiv_pos_site_id
 _symmetry_equiv_pos_as_xyz
  1  'x, y, z'
loop_
 _atom_site_type_symbol
 _atom_site_label
 _atom_site_symmetry_multiplicity
 _atom_site_fract_x
 _atom_site_fract_y
 _atom_site_fract_z
 _atom_site_occupancy
  Na  Na0  1  0.01539186  0.00893766  0.50279429  1
  Na  Na1  1  0.99354580  0.00893766  0.00279429  1
  Na  Na2  1  0.67924684  0.33064336  0.83570930  1
  Na  Na3  1  0.65139752  0.33064336  0.33570930  1
  Na  Na4  1  0.33918049  0.68344659  0.16907542  1
  Na  Na5  1  0.34426509  0.68344659  0.66907542  1
  Hf  Hf0  1  0.01909845  0.01133234  0.35341478  1
  Hf  Hf1  1  0.99223389  0.01133234  0.85341478  1
  Hf  Hf2  1  0.65948459  0.31358620  0.68628324  1
  Hf  Hf3  1  0.65410261  0.31358620  0.18628324  1
  Hf  Hf4  1  0.33251415  0.66437450  0.01959625  1
  Hf  Hf5  1  0.33185935  0.66437450  0.51959625  1
  Sc  Sc0  1  0.99594988  0.99608558  0.64784716  1
  Sc  Sc1  1  0.00013570  0.99608558  0.14784716  1
  Sc  Sc2  1  0.68186896  0.32343068  0.98050290  1
  Sc  Sc3  1  0.64156271  0.32343068  0.48050290  1
  Sc  Sc4  1  0.33771602  0.66693977  0.31406012  1
  Sc  Sc5  1  0.32922275  0.66693977  0.81406012  1
  Si  Si0  1  0.28971437  0.99294786  0.24834038  1
  Si  Si1  1  0.70323349  0.99294786  0.74834038  1
  Si  Si2  1  0.36658162  0.03598272  0.58286778  1
  Si  Si3  1  0.66940210  0.03598272  0.08286778  1
  Si  Si4  1  0.04390231  0.37962334  0.91580213  1
  Si  Si5  1  0.33572003  0.37962334  0.41580213  1
  S  S0  1  0.71116994  0.70963788  0.25003118  1
  S  S1  1  0.00048788  0.29110781  0.24954859  1
  S  S2  1  0.29061994  0.29110781  0.74954859  1
  S  S3  1  0.99846794  0.70963788  0.75003118  1
  S  S4  1  0.95578759  0.33344714  0.58242302  1
  S  S5  1  0.66757864  0.62325336  0.58315508  1
  S  S6  1  0.95567572  0.62325336  0.08315508  1
  S  S7  1  0.37766055  0.33344714  0.08242302  1
  S  S8  1  0.62301816  0.66429521  0.91634312  1
  S  S9  1  0.33190860  0.95699054  0.91621474  1
  S  S10  1  0.62508095  0.95699054  0.41621474  1
  S  S11  1  0.04127605  0.66429521  0.41634312  1
  O  O0  1  0.19922418  0.02642835  0.30542486  1
  O  O1  1  0.81591780  0.79188785  0.30212300  1
  O  O2  1  0.96782545  0.18075250  0.30172542  1
  O  O3  1  0.21292705  0.18075250  0.80172542  1
  O  O4  1  0.97597005  0.79188785  0.80212300  1
  O  O5  1  0.82720417  0.02642835  0.80542486  1
  O  O6  1  0.80105979  0.97402287  0.69297083  1
  O  O7  1  0.18643526  0.20992935  0.69835689  1
  O  O8  1  0.02658166  0.81613854  0.69827043  1
  O  O9  1  0.78955688  0.81613854  0.19827043  1
  O  O10  1  0.02349409  0.20992935  0.19835689  1
  O  O11  1  0.17296307  0.97402287  0.19297083  1
  O  O12  1  0.87702019  0.36331406  0.63482872  1
  O  O13  1  0.49318937  0.13164629  0.63908461  1
  O  O14  1  0.64147031  0.51774471  0.63535033  1
  O  O15  1  0.87627540  0.51774471  0.13535033  1
  O  O16  1  0.63845792  0.13164629  0.13908461  1
  O  O17  1  0.48629487  0.36331406  0.13482872  1
  O  O18  1  0.45943579  0.31263824  0.03101165  1
  O  O19  1  0.85044964  0.54484729  0.03157549  1
  O  O20  1  0.69379160  0.15652820  0.02755721  1
  O  O21  1  0.46273760  0.15652820  0.52755721  1
  O  O22  1  0.69439865  0.54484729  0.53157549  1
  O  O23  1  0.85320345  0.31263824  0.53101165  1
  O  O24  1  0.54523255  0.69753741  0.96838630  1
  O  O25  1  0.16365439  0.47029666  0.97292776  1
  O  O26  1  0.30830544  0.84922984  0.96838117  1
  O  O27  1  0.54092340  0.84922984  0.46838117  1
  O  O28  1  0.30664126  0.47029666  0.47292776  1
  O  O29  1  0.15230385  0.69753741  0.46838630  1
  O  O30  1  0.12403131  0.64411242  0.36497010  1
  O  O31  1  0.51750681  0.87985181  0.36507931  1
  O  O32  1  0.35658635  0.49498661  0.35972888  1
  O  O33  1  0.13839925  0.49498661  0.85972888  1
  O  O34  1  0.36234400  0.87985181  0.86507931  1
  O  O35  1  0.52008011  0.64411242  0.86497010  1
  O  O36  1  0.02005180  0.82088027  0.41012665  1
  O  O37  1  0.79646979  0.96791708  0.40977383  1
  O  O38  1  0.15777533  0.18532630  0.41066854  1
  O  O39  1  0.02755097  0.18532630  0.91066854  1
  O  O40  1  0.17144729  0.96791708  0.90977383  1
  O  O41  1  0.80082847  0.82088027  0.91012665  1
  O  O42  1  0.97734106  0.18122046  0.59000392  1
  O  O43  1  0.17722901  0.01747066  0.59102995  1
  O  O44  1  0.81954245  0.79841006  0.58883180  1
  O  O45  1  0.97886760  0.79841006  0.08883180  1
  O  O46  1  0.84024165  0.01747066  0.09102995  1
  O  O47  1  0.20387940  0.18122046  0.09000392  1
  O  O48  1  0.69305780  0.17444004  0.74390437  1
  O  O49  1  0.46843537  0.31261596  0.74341386  1
  O  O50  1  0.83974759  0.53671775  0.74293327  1
  O  O51  1  0.69697116  0.53671775  0.24293327  1
  O  O52  1  0.84418158  0.31261596  0.24341386  1
  O  O53  1  0.48138324  0.17444004  0.24390437  1
  O  O54  1  0.63966685  0.51010077  0.92465923  1
  O  O55  1  0.85097489  0.35723171  0.92071183  1
  O  O56  1  0.48238971  0.13279223  0.92341263  1
  O  O57  1  0.65040352  0.13279223  0.42341263  1
  O  O58  1  0.50625782  0.35723171  0.42071183  1
  O  O59  1  0.87043492  0.51010077  0.42465923  1
  O  O60  1  0.36027118  0.49240999  0.07736407  1
  O  O61  1  0.13181755  0.63995213  0.07650779  1
  O  O62  1  0.49223372  0.84596037  0.07546560  1
  O  O63  1  0.35372565  0.84596037  0.57546560  1
  O  O64  1  0.50813358  0.63995213  0.57650779  1
  O  O65  1  0.13213781  0.49240999  0.57736407  1
  O  O66  1  0.31495875  0.82677139  0.25705526  1
  O  O67  1  0.53578138  0.68835883  0.25575425  1
  O  O68  1  0.15420666  0.46346845  0.25662075  1
  O  O69  1  0.30926078  0.46346845  0.75662075  1
  O  O70  1  0.15257645  0.68835883  0.75575425  1
  O  O71  1  0.51181165  0.82677139  0.75705526  1
loop_
_geom_bond_atom_site_label_1
_geom_bond_atom_site_label_2
_geom_bond_distance
_geom_bond_site_symmetry_2
Na0 O43 2.489930 1_555
Na0 O38 2.583458 1_555
Na0 O42 2.673391 1_455
Na0 O44 2.698805 1_445
Na0 O36 2.752292 1_545
Na0 O37 2.814195 1_445
Na1 O46 2.489930 1_555
Na1 O39 2.583458 1_654
Na1 O47 2.673391 1_655
Na1 O45 2.698805 1_545
Na1 O41 2.752292 1_544
Na1 O40 2.814195 1_644
Na2 O55 2.440673 1_555
Na2 O48 2.593909 1_555
Na2 O56 2.691321 1_555
Na2 O50 2.727618 1_555
Na2 O54 2.750998 1_555
Na2 O49 2.805186 1_555
Na3 O58 2.440673 1_555
Na3 O53 2.593909 1_555
Na3 O57 2.691321 1_555
Na3 O51 2.727618 1_555
Na3 O59 2.750998 1_555
Na3 O52 2.805186 1_555
Na4 O66 2.486061 1_555
Na4 O62 2.592472 1_555
Na4 O67 2.657664 1_555
Na4 O68 2.731758 1_555
Na4 O61 2.738438 1_555
Na4 O60 2.801972 1_555
Na5 O71 2.486061 1_555
Na5 O63 2.592472 1_555
Na5 O70 2.657664 1_555
Na5 O69 2.731758 1_555
Na5 O64 2.738438 1_555
Na5 O65 2.801972 1_555
Hf0 O0 1.901354 1_555
Hf0 O38 1.952830 1_555
Hf0 O2 2.146449 1_455
Hf0 O36 2.149794 1_545
Hf0 O1 2.237661 1_445
Hf0 O37 2.240826 1_445
Hf1 O5 1.901354 1_555
Hf1 O39 1.952830 1_655
Hf1 O3 2.146449 1_655
Hf1 O41 2.149794 1_545
Hf1 O4 2.237661 1_545
Hf1 O40 2.240826 1_645
Hf2 O13 1.909273 1_555
Hf2 O48 1.945576 1_555
Hf2 O12 2.124218 1_555
Hf2 O49 2.154253 1_555
Hf2 O14 2.239222 1_555
Hf2 O50 2.259299 1_555
Hf3 O16 1.909273 1_555
Hf3 O53 1.945576 1_555
Hf3 O17 2.124218 1_555
Hf3 O52 2.154253 1_555
Hf3 O15 2.239222 1_555
Hf3 O51 2.259299 1_555
Hf4 O25 1.962186 1_554
Hf4 O62 2.013346 1_555
Hf4 O26 2.125924 1_554
Hf4 O24 2.127114 1_554
Hf4 O60 2.140241 1_555
Hf4 O61 2.144360 1_555
Hf5 O28 1.962186 1_555
Hf5 O63 2.013346 1_555
Hf5 O27 2.125924 1_555
Hf5 O29 2.127114 1_555
Hf5 O65 2.140241 1_555
Hf5 O64 2.144360 1_555
O0 Si0 1.658259 1_545
O1 S0 1.485111 1_555
O2 S1 1.495520 1_655
O3 S2 1.495520 1_555
O4 S3 1.485111 1_555
O5 Si1 1.658259 1_545
O6 Si1 1.612151 1_555
O6 Sc0 1.949924 1_555
O7 S2 1.464262 1_555
O7 Sc0 2.163405 1_445
O8 S3 1.474293 1_455
O8 Sc0 2.108100 1_455
O9 S0 1.474293 1_555
O9 Sc1 2.108100 1_655
O10 S1 1.464262 1_555
O10 Sc1 2.163405 1_545
O11 Si0 1.612151 1_555
O11 Sc1 1.949924 1_555
O12 S4 1.497479 1_555
O13 Si2 1.662168 1_555
O14 S5 1.480460 1_555
O15 S6 1.480460 1_555
O16 Si3 1.662168 1_555
O17 S7 1.497479 1_555
O18 S7 1.461442 1_555
O18 Sc2 2.260652 1_554
O19 S6 1.471068 1_555
O19 Sc2 2.149853 1_554
O20 Si3 1.618648 1_555
O20 Sc2 1.888925 1_554
O21 Si2 1.618648 1_555
O21 Sc3 1.888925 1_555
O22 S5 1.471068 1_555
O22 Sc3 2.149853 1_555
O23 S4 1.461442 1_555
O23 Sc3 2.260652 1_555
O24 S8 1.498427 1_555
O25 Si4 1.646334 1_555
O26 S9 1.494941 1_555
O27 S10 1.494941 1_555
O28 Si5 1.646334 1_555
O29 S11 1.498427 1_555
O30 S11 1.463497 1_555
O30 Sc4 2.160374 1_555
O31 S10 1.469383 1_555
O31 Sc4 2.135005 1_555
O32 Si5 1.612172 1_555
O32 Sc4 1.936425 1_555
O33 Si4 1.612172 1_555
O33 Sc5 1.936425 1_555
O34 S9 1.469382 1_555
O34 Sc5 2.135005 1_555
O35 S8 1.463497 1_555
O35 Sc5 2.160374 1_555
O36 S11 1.503694 1_555
O37 S10 1.483878 1_555
O38 Si5 1.667167 1_555
O39 Si4 1.667171 1_555
O40 S9 1.483870 1_555
O41 S8 1.503700 1_555
O42 S4 1.470406 1_555
O42 Sc0 2.195153 1_545
O43 Si2 1.617293 1_555
O43 Sc0 2.019242 1_445
O44 S5 1.474275 1_555
O44 Sc0 2.171646 1_555
O45 S6 1.474279 1_555
O45 Sc1 2.171646 1_655
O46 Si3 1.617285 1_555
O46 Sc1 2.019242 1_645
O47 S7 1.470411 1_555
O47 Sc1 2.195153 1_545
O48 Si1 1.665768 1_545
O49 S2 1.499993 1_555
O50 S3 1.490736 1_555
O51 S0 1.490740 1_555
O52 S1 1.499985 1_655
O53 Si0 1.665773 1_545
O54 S8 1.464558 1_555
O54 Sc2 2.281170 1_555
O55 Si4 1.627486 1_655
O55 Sc2 1.958895 1_555
O56 S9 1.476479 1_545
O56 Sc2 2.193557 1_555
O57 S10 1.476473 1_545
O57 Sc3 2.193557 1_555
O58 Si5 1.627503 1_555
O58 Sc3 1.958895 1_555
O59 S11 1.464548 1_655
O59 Sc3 2.281170 1_555
O60 S7 1.502653 1_555
O61 S6 1.503978 1_455
O62 Si3 1.647803 1_565
O63 Si2 1.647796 1_565
O64 S5 1.503996 1_555
O65 S4 1.502642 1_455
O66 Si0 1.615410 1_555
O66 Sc4 2.026241 1_555
O67 S0 1.478587 1_555
O67 Sc4 2.155042 1_555
O68 S1 1.469180 1_555
O68 Sc4 2.192617 1_555
O69 S2 1.469184 1_555
O69 Sc5 2.192617 1_555
O70 S3 1.478578 1_455
O70 Sc5 2.155042 1_555
O71 Si1 1.615415 1_555
O71 Sc5 2.026241 1_555
