# generated using pymatgen
data_Na14Sc6Nb2Si9(SO16)3
_symmetry_space_group_name_H-M   'P 1'
_cell_length_a   18.42515165
_cell_length_b   9.21371689
_cell_length_c   22.46620265
_cell_angle_alpha   90.02698340
_cell_angle_beta   89.79291146
_cell_angle_gamma   119.95579935
_symmetry_Int_Tables_number   1
_chemical_formula_structural   Na14Sc6Nb2Si9(SO16)3
_chemical_formula_sum   'Na42 Sc18 Nb6 Si27 S9 O144'
_cell_volume   3304.42688878
_cell_formula_units_Z   3
loop_
 _symmetry_equiv_pos_site_id
 _symmetry_equiv_pos_as_xyz
  1  'x, y, z'
loop_
 _atom_site_type_symbol
 _atom_site_label
 _atom_site_symmetry_multiplicity
 _atom_site_fract_x
 _atom_site_fract_y
 _atom_site_fract_z
 _atom_site_occupancy
  Na  Na0  1  0.81282056  0.00478794  0.24311413  1
  Na  Na1  1  0.69023960  0.37257346  0.24234753  1
  Na  Na2  1  0.49983555  0.62123134  0.24497547  1
  Na  Na3  1  0.31134288  0.61930365  0.74249883  1
  Na  Na4  1  0.99395910  0.36535232  0.74699417  1
  Na  Na5  1  0.18780489  0.00758194  0.74176833  1
  Na  Na6  1  0.15354160  0.33835220  0.58415331  1
  Na  Na7  1  0.66022826  0.34676517  0.58906480  1
  Na  Na8  1  0.01640099  0.69260504  0.58487450  1
  Na  Na9  1  0.51235189  0.67936014  0.58383267  1
  Na  Na10  1  0.32452356  0.97425897  0.58721263  1
  Na  Na11  1  0.83040037  0.97240353  0.59020729  1
  Na  Na12  1  0.15725163  0.97122684  0.08431861  1
  Na  Na13  1  0.65814755  0.96862595  0.07825605  1
  Na  Na14  1  0.32962340  0.68675804  0.08448643  1
  Na  Na15  1  0.82722687  0.68317224  0.08259432  1
  Na  Na16  1  0.01209524  0.34342284  0.07972486  1
  Na  Na17  1  0.51636956  0.34608686  0.07728538  1
  Na  Na18  1  0.48832875  0.67053989  0.91590270  1
  Na  Na19  1  0.98086222  0.65383176  0.90907597  1
  Na  Na20  1  0.35800846  0.05218466  0.91194340  1
  Na  Na21  1  0.85462775  0.05228637  0.91277755  1
  Na  Na22  1  0.16181482  0.29879726  0.91659488  1
  Na  Na23  1  0.66503709  0.29150173  0.92371892  1
  Na  Na24  1  0.48164216  0.31017595  0.41561839  1
  Na  Na25  1  0.98680118  0.30204610  0.42207948  1
  Na  Na26  1  0.16261967  0.03762524  0.42891317  1
  Na  Na27  1  0.66239323  0.01983261  0.42333777  1
  Na  Na28  1  0.35296532  0.65454703  0.42401417  1
  Na  Na29  1  0.85719541  0.66505529  0.41624525  1
  Na  Na30  1  0.00556124  0.00185848  0.50335540  1
  Na  Na31  1  0.50280116  0.99051703  0.50262947  1
  Na  Na32  1  0.00168469  0.01314808  0.99781010  1
  Na  Na33  1  0.50516910  0.00898695  0.99478342  1
  Na  Na34  1  0.34669797  0.33744443  0.82232779  1
  Na  Na35  1  0.83361751  0.32316171  0.82706552  1
  Na  Na36  1  0.33364227  0.33076087  0.33335051  1
  Na  Na37  1  0.84724427  0.35681465  0.32373773  1
  Na  Na38  1  0.16479741  0.66489623  0.16075081  1
  Na  Na39  1  0.66908161  0.66698517  0.16369294  1
  Na  Na40  1  0.16631257  0.66823787  0.66518169  1
  Na  Na41  1  0.67052217  0.67125397  0.66428877  1
  Sc  Sc0  1  0.00035911  0.99818629  0.35094111  1
  Sc  Sc1  1  0.50307132  0.00282493  0.34890777  1
  Sc  Sc2  1  0.99853834  0.00560126  0.84635594  1
  Sc  Sc3  1  0.50063006  0.00384280  0.84985467  1
  Sc  Sc4  1  0.33610109  0.33361689  0.68447059  1
  Sc  Sc5  1  0.83443488  0.33605579  0.68354080  1
  Sc  Sc6  1  0.33327260  0.32210844  0.18169362  1
  Sc  Sc7  1  0.83645312  0.33765179  0.18564769  1
  Sc  Sc8  1  0.33907671  0.33577254  0.98727160  1
  Sc  Sc9  1  0.83650075  0.32918007  0.98378746  1
  Sc  Sc10  1  0.33553698  0.34178164  0.48587012  1
  Sc  Sc11  1  0.83801716  0.34008028  0.48807552  1
  Sc  Sc12  1  0.16219398  0.65178656  0.02150814  1
  Sc  Sc13  1  0.66111908  0.66488457  0.02067004  1
  Sc  Sc14  1  0.16080099  0.65767303  0.52247597  1
  Sc  Sc15  1  0.66244665  0.67247916  0.52246418  1
  Sc  Sc16  1  0.65946385  0.66194648  0.30614138  1
  Sc  Sc17  1  0.15863503  0.65521709  0.80617087  1
  Nb  Nb0  1  0.99726914  0.99512415  0.64988523  1
  Nb  Nb1  1  0.49623964  0.99113049  0.64666723  1
  Nb  Nb2  1  0.99619109  0.00221467  0.14600409  1
  Nb  Nb3  1  0.50546319  0.01409505  0.14501035  1
  Nb  Nb4  1  0.15761807  0.64576176  0.31357158  1
  Nb  Nb5  1  0.66111626  0.68024770  0.81066248  1
  Si  Si0  1  0.64724192  0.00117878  0.25109918  1
  Si  Si1  1  0.85366673  0.70623866  0.25402074  1
  Si  Si2  1  0.00036653  0.29216144  0.25249213  1
  Si  Si3  1  0.49414014  0.28931597  0.25441323  1
  Si  Si4  1  0.14730503  0.29218337  0.75150991  1
  Si  Si5  1  0.99570462  0.70165382  0.75443705  1
  Si  Si6  1  0.49832268  0.70731487  0.75245836  1
  Si  Si7  1  0.35281910  0.00095341  0.75412933  1
  Si  Si8  1  0.84938606  0.99763422  0.75195721  1
  Si  Si9  1  0.47972073  0.32983346  0.58038261  1
  Si  Si10  1  0.98056767  0.32980905  0.58439673  1
  Si  Si11  1  0.18525068  0.04093638  0.58319481  1
  Si  Si12  1  0.68751352  0.04459657  0.58212663  1
  Si  Si13  1  0.33222841  0.62770203  0.58418161  1
  Si  Si14  1  0.83377628  0.62951357  0.58124153  1
  Si  Si15  1  0.47973539  0.62936139  0.08620887  1
  Si  Si16  1  0.97945406  0.62825292  0.08152725  1
  Si  Si17  1  0.33353504  0.03600523  0.08155586  1
  Si  Si18  1  0.83199270  0.03789762  0.08477761  1
  Si  Si19  1  0.18862104  0.33071324  0.08373129  1
  Si  Si20  1  0.68952309  0.33721759  0.08321880  1
  Si  Si21  1  0.01854742  0.36820929  0.91659887  1
  Si  Si22  1  0.51946145  0.37357128  0.91756865  1
  Si  Si23  1  0.66692319  0.96721947  0.91907589  1
  Si  Si24  1  0.16708816  0.36695530  0.41883105  1
  Si  Si25  1  0.01686569  0.66470141  0.41911245  1
  Si  Si26  1  0.51772345  0.66735982  0.41531878  1
  S  S0  1  0.14915749  0.99673387  0.25104026  1
  S  S1  1  0.34988766  0.70735775  0.25099538  1
  S  S2  1  0.64707827  0.29919865  0.75044439  1
  S  S3  1  0.31272233  0.66460995  0.91661603  1
  S  S4  1  0.81107148  0.66639826  0.91623987  1
  S  S5  1  0.16830340  0.96202101  0.91723855  1
  S  S6  1  0.31050480  0.95303078  0.41428296  1
  S  S7  1  0.81218834  0.95998471  0.41538553  1
  S  S8  1  0.66737852  0.37281204  0.41563953  1
  O  O0  1  0.10604058  0.00761933  0.30551276  1
  O  O1  1  0.60035162  0.01986427  0.31000588  1
  O  O2  1  0.40107261  0.79268072  0.30451468  1
  O  O3  1  0.90601923  0.79668998  0.31401792  1
  O  O4  1  0.48699759  0.18482459  0.31472513  1
  O  O5  1  0.99537788  0.18900599  0.31191378  1
  O  O6  1  0.10361761  0.18332714  0.81146522  1
  O  O7  1  0.60493493  0.20023202  0.80482116  1
  O  O8  1  0.49302847  0.79943999  0.81222379  1
  O  O9  1  0.99075242  0.79272636  0.81519312  1
  O  O10  1  0.40517304  0.01624790  0.81436449  1
  O  O11  1  0.90558335  0.02212521  0.81087343  1
  O  O12  1  0.40950998  0.98448168  0.69671181  1
  O  O13  1  0.89939125  0.97705634  0.69282398  1
  O  O14  1  0.08390220  0.18609282  0.69443401  1
  O  O15  1  0.59563803  0.21512284  0.69620744  1
  O  O16  1  0.00458583  0.82565432  0.69616203  1
  O  O17  1  0.51276421  0.83117668  0.69376119  1
  O  O18  1  0.39109194  0.80584148  0.19617913  1
  O  O19  1  0.90986487  0.83675966  0.19675149  1
  O  O20  1  0.01462483  0.19734300  0.19383035  1
  O  O21  1  0.50164309  0.17895989  0.19629171  1
  O  O22  1  0.09809439  0.97374380  0.19678163  1
  O  O23  1  0.58468442  0.98529922  0.19373758  1
  O  O24  1  0.43534366  0.37371004  0.63364033  1
  O  O25  1  0.93745350  0.36287172  0.64154738  1
  O  O26  1  0.24493247  0.12734304  0.64025625  1
  O  O27  1  0.75117728  0.13613147  0.63582133  1
  O  O28  1  0.31619840  0.51328803  0.64198981  1
  O  O29  1  0.81283382  0.49844764  0.63500005  1
  O  O30  1  0.43699091  0.51275692  0.14435390  1
  O  O31  1  0.93543816  0.49784932  0.13563960  1
  O  O32  1  0.31368482  0.12402930  0.13656338  1
  O  O33  1  0.81592411  0.11803055  0.14350041  1
  O  O34  1  0.25121146  0.36635218  0.13889136  1
  O  O35  1  0.74432768  0.36117850  0.14185747  1
  O  O36  1  0.22717584  0.29501704  0.02286766  1
  O  O37  1  0.72633426  0.29415866  0.02399640  1
  O  O38  1  0.42162067  0.54899834  0.02679439  1
  O  O39  1  0.92229616  0.56172870  0.02114455  1
  O  O40  1  0.35718029  0.15557791  0.02214538  1
  O  O41  1  0.85403519  0.15809014  0.02640859  1
  O  O42  1  0.22626940  0.15769496  0.52332877  1
  O  O43  1  0.72431569  0.15278555  0.51998030  1
  O  O44  1  0.35434271  0.55236782  0.52518208  1
  O  O45  1  0.85309698  0.55447519  0.51990700  1
  O  O46  1  0.42290097  0.28424842  0.51957887  1
  O  O47  1  0.92349495  0.29750553  0.52422292  1
  O  O48  1  0.27268655  0.68413164  0.97138838  1
  O  O49  1  0.77190865  0.68357826  0.97191757  1
  O  O50  1  0.07609391  0.45843948  0.97576957  1
  O  O51  1  0.57294166  0.45770954  0.97784214  1
  O  O52  1  0.16353195  0.86445277  0.97133452  1
  O  O53  1  0.65556934  0.85182416  0.97674648  1
  O  O54  1  0.27155671  0.85798853  0.46934191  1
  O  O55  1  0.77195118  0.85954145  0.46966707  1
  O  O56  1  0.15644881  0.46215942  0.47554628  1
  O  O57  1  0.66067980  0.45853498  0.46936882  1
  O  O58  1  0.07448786  0.69007552  0.47628908  1
  O  O59  1  0.57735571  0.69868921  0.47352289  1
  O  O60  1  0.07371803  0.65015055  0.35986698  1
  O  O61  1  0.56559367  0.64753308  0.35633814  1
  O  O62  1  0.25878617  0.86149896  0.36121923  1
  O  O63  1  0.76301492  0.87333311  0.36166645  1
  O  O64  1  0.17471199  0.49538223  0.35932584  1
  O  O65  1  0.67503672  0.47086614  0.36115297  1
  O  O66  1  0.06732280  0.48481221  0.85837188  1
  O  O67  1  0.57681479  0.50072849  0.86086332  1
  O  O68  1  0.17685763  0.87946947  0.86304916  1
  O  O69  1  0.67469650  0.85721291  0.86024722  1
  O  O70  1  0.26346933  0.65305835  0.86320560  1
  O  O71  1  0.75974701  0.65566218  0.86384547  1
  O  O72  1  0.00836124  0.83190582  0.41262757  1
  O  O73  1  0.50303566  0.83279227  0.41264431  1
  O  O74  1  0.39559848  0.97068924  0.41051687  1
  O  O75  1  0.89881151  0.98337613  0.41383411  1
  O  O76  1  0.08330483  0.18257326  0.41303420  1
  O  O77  1  0.58881575  0.20239161  0.41494791  1
  O  O78  1  0.00751178  0.17775178  0.91535077  1
  O  O79  1  0.50924136  0.18652309  0.91259810  1
  O  O80  1  0.09061382  0.97553866  0.91709979  1
  O  O81  1  0.58302190  0.98431075  0.91335712  1
  O  O82  1  0.39917265  0.81467953  0.91525773  1
  O  O83  1  0.89702823  0.81683724  0.91387046  1
  O  O84  1  0.49124434  0.16293978  0.59338695  1
  O  O85  1  0.98922341  0.15939126  0.59032316  1
  O  O86  1  0.09006155  0.01963983  0.59100842  1
  O  O87  1  0.59350572  0.02941871  0.59271953  1
  O  O88  1  0.42051129  0.81857426  0.59137676  1
  O  O89  1  0.91959010  0.81592542  0.59052245  1
  O  O90  1  0.48705974  0.81695613  0.09419676  1
  O  O91  1  0.99242172  0.82090573  0.09390216  1
  O  O92  1  0.41804234  0.01650556  0.09281941  1
  O  O93  1  0.92020251  0.02226391  0.09151442  1
  O  O94  1  0.09472799  0.15785315  0.09375354  1
  O  O95  1  0.59150992  0.16514799  0.09065617  1
  O  O96  1  0.33857116  0.15874380  0.74613044  1
  O  O97  1  0.83999252  0.16149815  0.74558581  1
  O  O98  1  0.23937713  0.31303840  0.74572095  1
  O  O99  1  0.73038154  0.31586878  0.74664434  1
  O  O100  1  0.41523497  0.52901221  0.74567171  1
  O  O101  1  0.91740755  0.51337866  0.74850735  1
  O  O102  1  0.34091880  0.53921808  0.24871747  1
  O  O103  1  0.83945322  0.51973904  0.24672704  1
  O  O104  1  0.41636344  0.32475656  0.24932278  1
  O  O105  1  0.91712832  0.30453478  0.24621783  1
  O  O106  1  0.23205751  0.14837135  0.24795001  1
  O  O107  1  0.73875531  0.16482522  0.24765813  1
  O  O108  1  0.31901782  0.50945369  0.91941698  1
  O  O109  1  0.81702772  0.51117902  0.91686855  1
  O  O110  1  0.42772650  0.36513613  0.91681802  1
  O  O111  1  0.92638747  0.35667776  0.91981903  1
  O  O112  1  0.24369322  0.13408005  0.91901484  1
  O  O113  1  0.75216195  0.14880163  0.91735244  1
  O  O114  1  0.31712834  0.12047607  0.41455715  1
  O  O115  1  0.81848464  0.12760060  0.41799351  1
  O  O116  1  0.25276303  0.35724697  0.41620697  1
  O  O117  1  0.74174435  0.34977477  0.41731703  1
  O  O118  1  0.42609361  0.49400813  0.41929957  1
  O  O119  1  0.92690265  0.48988570  0.41655262  1
  O  O120  1  0.17266436  0.49090502  0.07926004  1
  O  O121  1  0.67340715  0.49510229  0.07844039  1
  O  O122  1  0.07625137  0.66390689  0.07517130  1
  O  O123  1  0.57453069  0.65865443  0.08085065  1
  O  O124  1  0.25469738  0.84654577  0.07497090  1
  O  O125  1  0.75584033  0.84617216  0.07738738  1
  O  O126  1  0.17289896  0.85264734  0.57737950  1
  O  O127  1  0.67072041  0.85158798  0.57860986  1
  O  O128  1  0.25655112  0.66824914  0.57658462  1
  O  O129  1  0.75495803  0.66392530  0.57405648  1
  O  O130  1  0.07540647  0.49174545  0.58015259  1
  O  O131  1  0.57593619  0.48808568  0.57401074  1
  O  O132  1  0.15990257  0.84445647  0.25494932  1
  O  O133  1  0.65226307  0.82870434  0.24967419  1
  O  O134  1  0.26570052  0.69544037  0.25510169  1
  O  O135  1  0.76304711  0.70130228  0.25211440  1
  O  O136  1  0.08755667  0.48722842  0.25511794  1
  O  O137  1  0.58439626  0.46749979  0.25058399  1
  O  O138  1  0.15250499  0.47540937  0.75041300  1
  O  O139  1  0.65442063  0.46829671  0.75367016  1
  O  O140  1  0.08567753  0.70093505  0.75098040  1
  O  O141  1  0.58458360  0.68796504  0.75521971  1
  O  O142  1  0.26320846  0.82395866  0.75237047  1
  O  O143  1  0.75726633  0.81903610  0.75772973  1
loop_
_geom_bond_atom_site_label_1
_geom_bond_atom_site_label_2
_geom_bond_distance
_geom_bond_site_symmetry_2
Na0 O105 2.454791 1_555
Na0 O33 2.458047 1_555
Na0 O107 2.460772 1_555
Na0 O135 2.477716 1_545
Na0 O133 2.570868 1_545
Na0 O63 2.877202 1_545
Na1 O103 2.384484 1_555
Na1 O107 2.487363 1_555
Na1 O35 2.487789 1_555
Na1 O137 2.510586 1_555
Na1 O135 2.639179 1_555
Na1 O65 2.875491 1_555
Na2 O104 2.374938 1_555
Na2 O133 2.488660 1_555
Na2 O30 2.512167 1_555
Na2 O137 2.579765 1_555
Na2 O102 2.634443 1_555
Na2 O61 2.741225 1_555
Na3 O100 2.439843 1_555
Na3 O98 2.447253 1_555
Na3 O142 2.461635 1_555
Na3 O28 2.478848 1_555
Na3 O138 2.544791 1_555
Na3 O70 2.912842 1_555
Na4 O101 2.402392 1_555
Na4 O97 2.501195 1_555
Na4 O138 2.571194 1_655
Na4 O25 2.586617 1_555
Na4 O140 2.684537 1_655
Na4 O66 2.799263 1_655
Na5 O96 2.409178 1_555
Na5 O98 2.482185 1_555
Na5 O140 2.500930 1_545
Na5 O26 2.520262 1_555
Na5 O142 2.683184 1_545
Na5 O68 2.935880 1_545
Na6 O130 2.472080 1_555
Na6 O86 2.565931 1_555
Na6 O85 2.629835 1_455
Na6 O128 2.665908 1_555
Na6 O56 2.682968 1_555
Na6 O14 2.817009 1_555
Na6 O28 2.910366 1_555
Na6 O42 2.940365 1_555
Na7 O131 2.499138 1_555
Na7 O87 2.545037 1_555
Na7 O129 2.569543 1_555
Na7 O29 2.649439 1_555
Na7 O15 2.687385 1_555
Na7 O84 2.702566 1_555
Na7 O57 2.878509 1_555
Na8 O126 2.503550 1_555
Na8 O89 2.551708 1_455
Na8 O130 2.574196 1_555
Na8 O86 2.618643 1_565
Na8 O58 2.665174 1_555
Na8 O16 2.839173 1_555
Na8 O25 2.922980 1_455
Na8 O45 3.001549 1_455
Na9 O127 2.533751 1_555
Na9 O131 2.566472 1_555
Na9 O88 2.588976 1_555
Na9 O24 2.682761 1_555
Na9 O59 2.715481 1_555
Na9 O87 2.804239 1_565
Na9 O17 2.835887 1_555
Na9 O44 2.864534 1_555
Na10 O126 2.446872 1_555
Na10 O128 2.459705 1_555
Na10 O84 2.673475 1_565
Na10 O26 2.758906 1_565
Na10 O88 2.780129 1_555
Na10 O54 2.843319 1_555
Na10 O12 2.897061 1_555
Na10 O46 2.926771 1_565
Na11 O129 2.489837 1_555
Na11 O85 2.548887 1_565
Na11 O127 2.587994 1_555
Na11 O13 2.626647 1_555
Na11 O89 2.673092 1_555
Na11 O27 2.764667 1_565
Na11 O55 2.911166 1_555
Na11 O47 2.994475 1_565
Na12 O122 2.463477 1_555
Na12 O94 2.510967 1_565
Na12 O124 2.577655 1_555
Na12 O91 2.642528 1_455
Na12 O52 2.744726 1_554
Na12 O22 2.752757 1_555
Na12 O32 2.763668 1_565
Na12 O36 2.935740 1_565
Na13 O123 2.477698 1_555
Na13 O53 2.511707 1_554
Na13 O125 2.557583 1_555
Na13 O95 2.661019 1_565
Na13 O90 2.758845 1_555
Na13 O37 2.879193 1_565
Na13 O33 2.920095 1_565
Na13 O23 2.961203 1_555
Na14 O124 2.480163 1_555
Na14 O120 2.534618 1_555
Na14 O90 2.535822 1_555
Na14 O92 2.641673 1_565
Na14 O48 2.747923 1_554
Na14 O18 2.749574 1_555
Na14 O34 2.833295 1_555
Na14 O38 2.880181 1_555
Na15 O125 2.444021 1_555
Na15 O121 2.478112 1_555
Na15 O91 2.662175 1_555
Na15 O49 2.691399 1_554
Na15 O93 2.718989 1_565
Na15 O39 2.857401 1_555
Na15 O35 2.893257 1_555
Na15 O19 2.961671 1_555
Na16 O120 2.566000 1_555
Na16 O122 2.576949 1_555
Na16 O93 2.585930 1_455
Na16 O50 2.588909 1_554
Na16 O31 2.754973 1_455
Na16 O41 2.808729 1_455
Na16 O94 2.818591 1_555
Na16 O20 2.907250 1_555
Na17 O51 2.459721 1_554
Na17 O121 2.508173 1_555
Na17 O123 2.523295 1_555
Na17 O95 2.663599 1_555
Na17 O92 2.669766 1_555
Na17 O40 2.846281 1_555
Na18 O110 2.455067 1_555
Na18 O81 2.523367 1_555
Na18 O82 2.577086 1_555
Na18 O8 2.596528 1_555
Na18 O108 2.704681 1_555
Na18 O38 2.752696 1_556
Na19 O111 2.411688 1_555
Na19 O9 2.426209 1_555
Na19 O109 2.627673 1_555
Na19 O80 2.631325 1_655
Na19 O83 2.639822 1_555
Na19 O39 2.700284 1_556
Na19 O66 2.953531 1_655
Na20 O79 2.419230 1_555
Na20 O10 2.437947 1_555
Na20 O110 2.505605 1_555
Na20 O112 2.572092 1_555
Na20 O82 2.650954 1_545
Na20 O40 2.655081 1_556
Na21 O111 2.436540 1_555
Na21 O78 2.454340 1_655
Na21 O113 2.457815 1_555
Na21 O11 2.538594 1_555
Na21 O83 2.647596 1_545
Na21 O41 2.734156 1_556
Na22 O78 2.482253 1_555
Na22 O108 2.558851 1_555
Na22 O80 2.586489 1_545
Na22 O6 2.595527 1_555
Na22 O112 2.620947 1_555
Na22 O36 2.686009 1_556
Na23 O81 2.465621 1_545
Na23 O109 2.509877 1_555
Na23 O37 2.518382 1_556
Na23 O113 2.536154 1_555
Na23 O79 2.543665 1_555
Na23 O7 2.856215 1_555
Na24 O118 2.377764 1_555
Na24 O46 2.531311 1_555
Na24 O4 2.567344 1_555
Na24 O77 2.616117 1_555
Na24 O114 2.636885 1_555
Na24 O74 2.712780 1_545
Na25 O119 2.477392 1_555
Na25 O76 2.523196 1_655
Na25 O75 2.555672 1_545
Na25 O47 2.561309 1_555
Na25 O115 2.689529 1_555
Na25 O5 2.719283 1_555
Na25 O56 2.968178 1_655
Na26 O42 2.412188 1_555
Na26 O76 2.449451 1_555
Na26 O72 2.536067 1_545
Na26 O114 2.571886 1_555
Na26 O116 2.573956 1_555
Na26 O0 2.929403 1_555
Na26 O58 2.970138 1_545
Na27 O43 2.477102 1_555
Na27 O115 2.533277 1_555
Na27 O73 2.569092 1_545
Na27 O117 2.637749 1_555
Na27 O77 2.642362 1_555
Na27 O1 2.794803 1_555
Na27 O59 2.800324 1_545
Na28 O73 2.422455 1_555
Na28 O116 2.427788 1_555
Na28 O118 2.450265 1_555
Na28 O44 2.465594 1_555
Na28 O74 2.628255 1_555
Na28 O2 2.910759 1_555
Na29 O72 2.418671 1_655
Na29 O119 2.514905 1_555
Na29 O45 2.528162 1_555
Na29 O3 2.540272 1_555
Na29 O117 2.606277 1_555
Na29 O75 2.635686 1_555
Na30 O86 2.468981 1_555
Na30 O85 2.538554 1_455
Na30 O76 2.557754 1_555
Na30 O89 2.559234 1_445
Na30 O72 2.585790 1_545
Na30 O75 2.763392 1_445
Na31 O73 2.490443 1_555
Na31 O88 2.523148 1_555
Na31 O87 2.538421 1_565
Na31 O84 2.656733 1_565
Na31 O77 2.663521 1_565
Na31 O74 2.808241 1_555
Na32 O78 2.362661 1_555
Na32 O80 2.576377 1_545
Na32 O93 2.606860 1_456
Na32 O83 2.661978 1_445
Na32 O94 2.665345 1_556
Na32 O91 2.743369 1_446
Na33 O81 2.400450 1_545
Na33 O79 2.443318 1_555
Na33 O82 2.596514 1_545
Na33 O95 2.641256 1_556
Na33 O92 2.741936 1_556
Na33 O90 2.763844 1_546
Na34 O96 2.327411 1_555
Na34 O100 2.331772 1_555
Na34 O110 2.538200 1_555
Na34 O98 2.550083 1_555
Na34 O112 2.872963 1_555
Na34 O108 2.885394 1_555
Na35 O97 2.398740 1_555
Na35 O101 2.418894 1_555
Na35 O113 2.553619 1_555
Na35 O99 2.604632 1_555
Na35 O111 2.618659 1_555
Na35 O109 2.772352 1_555
Na36 O104 2.439904 1_555
Na36 O116 2.467398 1_555
Na36 O118 2.520895 1_555
Na36 O114 2.566230 1_555
Na36 O106 2.624920 1_555
Na36 O102 2.658312 1_555
Na37 O103 2.342402 1_555
Na37 O105 2.350639 1_555
Na37 O119 2.495616 1_555
Na37 O107 2.556731 1_555
Na37 O117 2.836795 1_555
Na37 O115 2.846676 1_555
Na38 O120 2.483973 1_555
Na38 O122 2.523127 1_555
Na38 O124 2.543652 1_555
Na38 O136 2.618147 1_555
Na38 O132 2.714446 1_555
Na38 O134 2.744854 1_555
Na39 O121 2.510948 1_555
Na39 O125 2.526975 1_555
Na39 O123 2.528736 1_555
Na39 O133 2.549838 1_555
Na39 O135 2.553666 1_555
Na39 O137 2.596332 1_555
Na40 O130 2.529651 1_555
Na40 O138 2.536949 1_555
Na40 O140 2.537592 1_555
Na40 O142 2.558782 1_555
Na40 O126 2.566757 1_555
Na40 O128 2.588859 1_555
Na41 O127 2.542206 1_555
Na41 O129 2.572222 1_555
Na41 O143 2.581400 1_555
Na41 O141 2.631366 1_555
Na41 O139 2.657514 1_555
Na41 O131 2.661597 1_555
Nb0 O16 1.936480 1_655
Nb0 O14 1.962297 1_665
Nb0 O13 1.974428 1_555
Nb0 O89 2.050601 1_555
Nb0 O86 2.078952 1_665
Nb0 O85 2.081034 1_565
Nb1 O12 1.926336 1_555
Nb1 O88 1.952652 1_555
Nb1 O17 1.958576 1_555
Nb1 O84 2.023678 1_565
Nb1 O87 2.039237 1_565
Nb1 O15 2.256115 1_565
Nb2 O19 1.928920 1_545
Nb2 O93 1.940080 1_555
Nb2 O20 1.973106 1_655
Nb2 O91 2.012093 1_545
Nb2 O94 2.028975 1_655
Nb2 O22 2.324467 1_645
Nb3 O95 1.930221 1_555
Nb3 O21 1.935003 1_555
Nb3 O23 1.948844 1_545
Nb3 O92 2.004799 1_555
Nb3 O90 2.025637 1_545
Nb3 O18 2.321744 1_545
Nb4 O64 1.874854 1_555
Nb4 O60 1.877202 1_555
Nb4 O136 1.911009 1_555
Nb4 O62 2.209929 1_555
Nb4 O134 2.229845 1_555
Nb4 O132 2.238917 1_555
Nb5 O69 1.885466 1_555
Nb5 O141 1.912568 1_555
Nb5 O67 1.960569 1_555
Nb5 O143 1.977806 1_555
Nb5 O71 2.282213 1_555
Nb5 O139 2.286150 1_555
O0 S0 1.487037 1_545
O0 Sc0 2.158116 1_545
O1 Si0 1.633262 1_555
O1 Sc1 1.925871 1_555
O2 S1 1.489980 1_555
O2 Sc1 2.157156 1_565
O3 Si1 1.627078 1_555
O3 Sc0 1.985563 1_655
O4 Si3 1.628985 1_555
O4 Sc1 1.997063 1_555
O5 Si2 1.614629 1_655
O5 Sc0 2.007859 1_645
O6 Si4 1.629536 1_555
O6 Sc2 1.966842 1_455
O7 S2 1.487922 1_555
O7 Sc3 2.122746 1_555
O8 Si6 1.616638 1_555
O8 Sc3 2.004281 1_565
O9 Si5 1.627893 1_555
O9 Sc2 2.018945 1_565
O10 Si7 1.629470 1_555
O10 Sc3 1.988264 1_555
O11 Si8 1.628290 1_545
O11 Sc2 1.965300 1_555
O12 Si7 1.710690 1_565
O13 Si8 1.677831 1_555
O14 Si4 1.683358 1_555
O15 S2 1.502454 1_555
O16 Si5 1.690947 1_455
O17 Si6 1.675649 1_555
O18 S1 1.490872 1_555
O19 Si1 1.709399 1_555
O20 Si2 1.671749 1_555
O21 Si3 1.701713 1_555
O22 S0 1.491645 1_555
O23 Si0 1.689038 1_565
O24 Si9 1.608160 1_555
O24 Sc4 2.023584 1_555
O25 Si10 1.614411 1_555
O25 Sc5 2.018154 1_555
O26 Si11 1.619070 1_555
O26 Sc4 2.059737 1_555
O27 Si12 1.601170 1_555
O27 Sc5 2.020837 1_555
O28 Si13 1.603996 1_555
O28 Sc4 2.096681 1_555
O29 Si14 1.611991 1_555
O29 Sc5 2.045910 1_555
O30 Si15 1.621670 1_555
O30 Sc6 2.019587 1_555
O31 Si16 1.612571 1_555
O31 Sc7 2.016314 1_555
O32 Si17 1.615792 1_555
O32 Sc6 1.957590 1_555
O33 Si18 1.608673 1_555
O33 Sc7 2.090633 1_555
O34 Si19 1.614082 1_555
O34 Sc6 2.000847 1_555
O35 Si20 1.609541 1_555
O35 Sc7 2.067809 1_555
O36 Si19 1.645723 1_555
O36 Sc8 2.060752 1_554
O37 Si20 1.627686 1_555
O37 Sc9 2.091241 1_554
O38 Si15 1.641390 1_555
O38 Sc8 1.996333 1_554
O39 Si16 1.640116 1_555
O39 Sc9 2.102269 1_554
O40 Si17 1.644053 1_555
O40 Sc8 2.009415 1_554
O41 Si18 1.630726 1_555
O41 Sc9 2.004612 1_554
O42 Si11 1.649084 1_555
O42 Sc10 2.053585 1_555
O43 Si12 1.649923 1_555
O43 Sc11 2.064105 1_555
O44 Si13 1.637809 1_555
O44 Sc10 1.998492 1_555
O45 Si14 1.656757 1_555
O45 Sc11 1.985624 1_555
O46 Si9 1.645947 1_555
O46 Sc10 2.075325 1_555
O47 Si10 1.649029 1_555
O47 Sc11 1.979985 1_555
O48 S3 1.488769 1_555
O48 Sc12 2.208888 1_556
O49 S4 1.489214 1_555
O49 Sc13 2.242581 1_556
O50 Si21 1.646626 1_555
O50 Sc12 1.983401 1_556
O51 Si22 1.628302 1_555
O51 Sc13 2.030157 1_556
O52 S5 1.488028 1_555
O52 Sc12 2.250396 1_556
O53 Si23 1.621756 1_555
O53 Sc13 2.032027 1_556
O54 S6 1.476120 1_555
O54 Sc14 2.284494 1_555
O55 S7 1.484123 1_555
O55 Sc15 2.227150 1_555
O56 Si24 1.612536 1_555
O56 Sc14 2.053698 1_555
O57 S8 1.480376 1_555
O57 Sc15 2.289901 1_555
O58 Si25 1.610466 1_555
O58 Sc14 2.044840 1_555
O59 Si26 1.641255 1_555
O59 Sc15 2.028825 1_555
O60 Si25 1.736916 1_555
O61 Si26 1.649051 1_555
O61 Sc16 2.009351 1_555
O62 S6 1.498396 1_555
O63 S7 1.483047 1_555
O63 Sc16 2.300778 1_555
O64 Si24 1.743912 1_555
O65 S8 1.485611 1_555
O65 Sc16 2.284394 1_555
O66 Si21 1.643687 1_555
O66 Sc17 2.005126 1_555
O67 Si22 1.693383 1_555
O68 S5 1.484238 1_555
O68 Sc17 2.307073 1_555
O69 Si23 1.713755 1_555
O70 S3 1.478512 1_555
O70 Sc17 2.330146 1_555
O71 S4 1.484638 1_555
O72 Si25 1.631136 1_555
O72 Sc0 2.125705 1_555
O73 Si26 1.677001 1_555
O73 Sc1 2.122688 1_565
O74 S6 1.495370 1_555
O74 Sc1 2.306450 1_565
O75 S7 1.500369 1_555
O75 Sc0 2.289530 1_655
O76 Si24 1.633498 1_555
O76 Sc0 2.141999 1_545
O77 S8 1.513733 1_555
O77 Sc1 2.278491 1_555
O78 Si21 1.662885 1_555
O78 Sc2 2.164138 1_455
O79 Si22 1.641324 1_555
O79 Sc3 2.139600 1_555
O80 S5 1.497540 1_555
O80 Sc2 2.443371 1_465
O81 Si23 1.635745 1_555
O81 Sc3 2.158946 1_565
O82 S3 1.500059 1_555
O82 Sc3 2.328097 1_565
O83 S4 1.496516 1_555
O83 Sc2 2.357353 1_565
O84 Si9 1.679858 1_555
O85 Si10 1.661043 1_555
O86 Si11 1.673175 1_555
O87 Si12 1.682718 1_555
O88 Si13 1.705775 1_555
O89 Si14 1.668361 1_555
O90 Si15 1.674776 1_555
O91 Si16 1.691640 1_555
O92 Si17 1.674220 1_555
O93 Si18 1.709031 1_555
O94 Si19 1.681098 1_555
O95 Si20 1.715087 1_555
O96 Si7 1.611393 1_555
O96 Sc4 2.143100 1_555
O97 Si8 1.609743 1_545
O97 Sc5 2.169749 1_555
O98 Si4 1.613891 1_555
O98 Sc4 2.179596 1_555
O99 S2 1.466409 1_555
O99 Sc5 2.311838 1_555
O100 Si6 1.598625 1_555
O100 Sc4 2.155987 1_555
O101 Si5 1.615591 1_555
O101 Sc5 2.157840 1_555
O102 S1 1.474531 1_555
O102 Sc6 2.450713 1_555
O103 Si1 1.612083 1_555
O103 Sc7 2.146273 1_555
O104 Si3 1.625384 1_555
O104 Sc6 2.152301 1_555
O105 Si2 1.600381 1_655
O105 Sc7 2.149963 1_555
O106 S0 1.469026 1_545
O106 Sc6 2.292799 1_555
O107 Si0 1.607082 1_555
O107 Sc7 2.199592 1_555
O108 S3 1.492251 1_555
O108 Sc8 2.370297 1_555
O109 S4 1.488063 1_555
O109 Sc9 2.409992 1_555
O110 Si22 1.652943 1_555
O110 Sc8 2.187893 1_555
O111 Si21 1.648902 1_655
O111 Sc9 2.106310 1_555
O112 S5 1.498493 1_545
O112 Sc8 2.376724 1_555
O113 Si23 1.625645 1_545
O113 Sc9 2.199962 1_555
O114 S6 1.485634 1_545
O114 Sc10 2.479869 1_555
O115 S7 1.490972 1_545
O115 Sc11 2.395572 1_555
O116 Si24 1.625947 1_555
O116 Sc10 2.242817 1_555
O117 S8 1.488206 1_555
O117 Sc11 2.420807 1_555
O118 Si26 1.647879 1_555
O118 Sc10 2.152857 1_555
O119 Si25 1.636932 1_655
O119 Sc11 2.212427 1_555
O120 Si19 1.645814 1_555
O120 Sc12 2.051123 1_555
O121 Si20 1.627151 1_555
O121 Sc13 2.130871 1_555
O122 Si16 1.649937 1_455
O122 Sc12 2.033746 1_555
O123 Si15 1.632710 1_555
O123 Sc13 2.066305 1_555
O124 Si17 1.627311 1_565
O124 Sc12 2.127457 1_555
O125 Si18 1.625715 1_565
O125 Sc13 2.135972 1_555
O126 Si11 1.638368 1_565
O126 Sc14 2.097220 1_555
O127 Si12 1.647715 1_565
O127 Sc15 2.021352 1_555
O128 Si13 1.623256 1_555
O128 Sc14 2.107929 1_555
O129 Si14 1.642301 1_555
O129 Sc15 2.098489 1_555
O130 Si10 1.638273 1_455
O130 Sc14 2.019110 1_555
O131 Si9 1.645060 1_555
O131 Sc15 2.013036 1_555
O132 S0 1.514291 1_555
O133 Si0 1.637582 1_565
O133 Sc16 2.047998 1_555
O134 S1 1.501848 1_555
O135 Si1 1.648154 1_555
O135 Sc16 2.130681 1_555
O136 Si2 1.712210 1_555
O137 Si3 1.655529 1_555
O137 Sc16 2.053390 1_555
O138 Si4 1.642642 1_555
O138 Sc17 2.034399 1_555
O139 S2 1.496815 1_555
O140 Si5 1.662616 1_455
O140 Sc17 2.024816 1_555
O141 Si6 1.686842 1_555
O142 Si7 1.642725 1_565
O142 Sc17 2.141011 1_555
O143 Si8 1.677758 1_555
