# generated using pymatgen
data_Ba(FeS2)2
_symmetry_space_group_name_H-M   'P 1'
_cell_length_a   5.08585800
_cell_length_b   5.97786869
_cell_length_c   5.97786869
_cell_angle_alpha   79.57448445
_cell_angle_beta   64.82461194
_cell_angle_gamma   64.82461194
_symmetry_Int_Tables_number   1
_chemical_formula_structural   Ba(FeS2)2
_chemical_formula_sum   'Ba1 Fe2 S4'
_cell_volume   148.85505923
_cell_formula_units_Z   1
loop_
 _symmetry_equiv_pos_site_id
 _symmetry_equiv_pos_as_xyz
  1  'x, y, z'
loop_
 _atom_site_type_symbol
 _atom_site_label
 _atom_site_symmetry_multiplicity
 _atom_site_fract_x
 _atom_site_fract_y
 _atom_site_fract_z
 _atom_site_occupancy
  Ba  Ba0  1  0.00000000  0.00000000  0.00000000  1
  Fe  Fe0  1  0.25000000  0.50000000  0.50000000  1
  Fe  Fe1  1  0.75000000  0.50000000  0.50000000  1
  S  S0  1  0.61396400  0.57933800  0.19273400  1
  S  S1  1  0.80669800  0.80726600  0.57933800  1
  S  S2  1  0.19330200  0.19273400  0.42066200  1
  S  S3  1  0.38603600  0.42066200  0.80726600  1
loop_
_geom_bond_atom_site_label_1
_geom_bond_atom_site_label_2
_geom_bond_distance
_geom_bond_site_symmetry_2
Ba0 S2 3.303128 1_554
Ba0 S0 3.303128 1_455
Ba0 S1 3.303128 1_445
Ba0 S3 3.303128 1_544
Ba0 S1 3.568325 1_544
Ba0 S3 3.568325 1_554
Ba0 S0 3.568325 1_545
Ba0 S0 3.568325 1_445
Ba0 S2 3.568325 1_455
Ba0 S2 3.568325 1_555
Ba0 S3 3.568325 1_454
Ba0 S1 3.568325 1_444
Fe0 S3 2.136388 1_555
Fe0 S0 2.136388 1_555
Fe0 S2 2.136388 1_555
Fe0 S1 2.136388 1_455
Fe1 S1 2.136388 1_555
Fe1 S3 2.136388 1_555
Fe1 S0 2.136388 1_555
Fe1 S2 2.136388 1_655
