# generated using pymatgen
data_KHSO4
_symmetry_space_group_name_H-M   'P 1'
_cell_length_a   8.47732300
_cell_length_b   10.02338100
_cell_length_c   19.38196200
_cell_angle_alpha   90.00000000
_cell_angle_beta   90.00000000
_cell_angle_gamma   90.00000000
_symmetry_Int_Tables_number   1
_chemical_formula_structural   KHSO4
_chemical_formula_sum   'K16 H16 S16 O64'
_cell_volume   1646.91318800
_cell_formula_units_Z   16
loop_
 _symmetry_equiv_pos_site_id
 _symmetry_equiv_pos_as_xyz
  1  'x, y, z'
loop_
 _atom_site_type_symbol
 _atom_site_label
 _atom_site_symmetry_multiplicity
 _atom_site_fract_x
 _atom_site_fract_y
 _atom_site_fract_z
 _atom_site_occupancy
  K  K0  1  0.12343500  0.31801200  0.38109300  1
  K  K1  1  0.62343500  0.18198800  0.61890700  1
  K  K2  1  0.87656500  0.81801200  0.11890700  1
  K  K3  1  0.37656500  0.68198800  0.88109300  1
  K  K4  1  0.87656500  0.68198800  0.61890700  1
  K  K5  1  0.37656500  0.81801200  0.38109300  1
  K  K6  1  0.12343500  0.18198800  0.88109300  1
  K  K7  1  0.62343500  0.31801200  0.11890700  1
  K  K8  1  0.61646200  0.18025400  0.37535900  1
  K  K9  1  0.11646200  0.31974600  0.62464100  1
  K  K10  1  0.38353800  0.68025400  0.12464100  1
  K  K11  1  0.88353800  0.81974600  0.87535900  1
  K  K12  1  0.38353800  0.81974600  0.62464100  1
  K  K13  1  0.88353800  0.68025400  0.37535900  1
  K  K14  1  0.61646200  0.31974600  0.87535900  1
  K  K15  1  0.11646200  0.18025400  0.12464100  1
  H  H0  1  0.76969300  0.06337500  0.22466300  1
  H  H1  1  0.26969300  0.43662500  0.77533700  1
  H  H2  1  0.23030700  0.56337500  0.27533700  1
  H  H3  1  0.73030700  0.93662500  0.72466300  1
  H  H4  1  0.23030700  0.93662500  0.77533700  1
  H  H5  1  0.73030700  0.56337500  0.22466300  1
  H  H6  1  0.76969300  0.43662500  0.72466300  1
  H  H7  1  0.26969300  0.06337500  0.27533700  1
  H  H8  1  0.91017600  0.09791800  0.49868500  1
  H  H9  1  0.41017600  0.40208200  0.50131500  1
  H  H10  1  0.08982400  0.59791800  0.00131500  1
  H  H11  1  0.58982400  0.90208200  0.99868500  1
  H  H12  1  0.08982400  0.90208200  0.50131500  1
  H  H13  1  0.58982400  0.59791800  0.49868500  1
  H  H14  1  0.91017600  0.40208200  0.99868500  1
  H  H15  1  0.41017600  0.09791800  0.00131500  1
  S  S0  1  0.51667400  0.01891100  0.20648300  1
  S  S1  1  0.01667400  0.48108900  0.79351700  1
  S  S2  1  0.48332600  0.51891100  0.29351700  1
  S  S3  1  0.98332600  0.98108900  0.70648300  1
  S  S4  1  0.48332600  0.98108900  0.79351700  1
  S  S5  1  0.98332600  0.51891100  0.20648300  1
  S  S6  1  0.51667400  0.48108900  0.70648300  1
  S  S7  1  0.01667400  0.01891100  0.29351700  1
  S  S8  1  0.75621100  0.92223000  0.49715500  1
  S  S9  1  0.25621100  0.57777000  0.50284500  1
  S  S10  1  0.24378900  0.42223000  0.00284500  1
  S  S11  1  0.74378900  0.07777000  0.99715500  1
  S  S12  1  0.24378900  0.07777000  0.50284500  1
  S  S13  1  0.74378900  0.42223000  0.49715500  1
  S  S14  1  0.75621100  0.57777000  0.99715500  1
  S  S15  1  0.25621100  0.92223000  0.00284500  1
  O  O0  1  0.57811000  0.89286100  0.17999700  1
  O  O1  1  0.07811000  0.60713900  0.82000300  1
  O  O2  1  0.42189000  0.39286100  0.32000300  1
  O  O3  1  0.92189000  0.10713900  0.67999700  1
  O  O4  1  0.42189000  0.10713900  0.82000300  1
  O  O5  1  0.92189000  0.39286100  0.17999700  1
  O  O6  1  0.57811000  0.60713900  0.67999700  1
  O  O7  1  0.07811000  0.89286100  0.32000300  1
  O  O8  1  0.42119200  0.09656000  0.15847500  1
  O  O9  1  0.92119200  0.40344000  0.84152500  1
  O  O10  1  0.57880800  0.59656000  0.34152500  1
  O  O11  1  0.07880800  0.90344000  0.65847500  1
  O  O12  1  0.57880800  0.90344000  0.84152500  1
  O  O13  1  0.07880800  0.59656000  0.15847500  1
  O  O14  1  0.42119200  0.40344000  0.65847500  1
  O  O15  1  0.92119200  0.09656000  0.34152500  1
  O  O16  1  0.43487800  0.00172000  0.27422600  1
  O  O17  1  0.93487800  0.49827900  0.72577400  1
  O  O18  1  0.56512200  0.50172100  0.22577400  1
  O  O19  1  0.06512200  0.99827900  0.77422600  1
  O  O20  1  0.56512200  0.99827900  0.72577400  1
  O  O21  1  0.06512200  0.50172100  0.27422600  1
  O  O22  1  0.43487800  0.49827900  0.77422600  1
  O  O23  1  0.93487800  0.00172000  0.22577400  1
  O  O24  1  0.66318900  0.11348500  0.22321100  1
  O  O25  1  0.16318900  0.38651500  0.77678900  1
  O  O26  1  0.33681100  0.61348500  0.27678900  1
  O  O27  1  0.83681100  0.88651500  0.72321100  1
  O  O28  1  0.33681100  0.88651500  0.77678900  1
  O  O29  1  0.83681100  0.61348500  0.22321100  1
  O  O30  1  0.66318900  0.38651500  0.72321100  1
  O  O31  1  0.16318900  0.11348500  0.27678900  1
  O  O32  1  0.66679200  0.89914200  0.43379400  1
  O  O33  1  0.16679200  0.60085800  0.56620600  1
  O  O34  1  0.33320800  0.39914200  0.06620600  1
  O  O35  1  0.83320800  0.10085800  0.93379400  1
  O  O36  1  0.33320800  0.10085800  0.56620600  1
  O  O37  1  0.83320800  0.39914200  0.43379400  1
  O  O38  1  0.66679200  0.60085800  0.93379400  1
  O  O39  1  0.16679200  0.89914200  0.06620600  1
  O  O40  1  0.66773300  0.89533800  0.56043000  1
  O  O41  1  0.16773300  0.60466200  0.43957000  1
  O  O42  1  0.33226700  0.39533800  0.93957000  1
  O  O43  1  0.83226700  0.10466200  0.06043000  1
  O  O44  1  0.33226700  0.10466200  0.43957000  1
  O  O45  1  0.83226700  0.39533800  0.56043000  1
  O  O46  1  0.66773300  0.60466200  0.06043000  1
  O  O47  1  0.16773300  0.89533800  0.93957000  1
  O  O48  1  0.91125100  0.85393200  0.49623300  1
  O  O49  1  0.41125100  0.64606800  0.50376700  1
  O  O50  1  0.08874900  0.35393200  0.00376700  1
  O  O51  1  0.58874900  0.14606800  0.99623300  1
  O  O52  1  0.08874900  0.14606800  0.50376700  1
  O  O53  1  0.58874900  0.35393200  0.49623300  1
  O  O54  1  0.91125100  0.64606800  0.99623300  1
  O  O55  1  0.41125100  0.85393200  0.00376700  1
  O  O56  1  0.79220300  0.07911400  0.49879200  1
  O  O57  1  0.29220300  0.42088600  0.50120800  1
  O  O58  1  0.20779700  0.57911400  0.00120800  1
  O  O59  1  0.70779700  0.92088600  0.99879200  1
  O  O60  1  0.20779700  0.92088600  0.50120800  1
  O  O61  1  0.70779700  0.57911400  0.49879200  1
  O  O62  1  0.79220300  0.42088600  0.99879200  1
  O  O63  1  0.29220300  0.07911400  0.00120800  1
loop_
_geom_bond_atom_site_label_1
_geom_bond_atom_site_label_2
_geom_bond_distance
_geom_bond_site_symmetry_2
K0 O37 2.785311 1_455
K0 O21 2.815195 1_555
K0 O2 2.892442 1_555
K0 O31 2.898831 1_555
K0 O15 2.907687 1_455
K0 O57 2.920625 1_555
K0 O52 2.951281 1_555
K0 O44 2.998636 1_555
K0 O41 3.111415 1_555
K1 O36 2.785311 1_555
K1 O20 2.815195 1_545
K1 O3 2.892442 1_555
K1 O30 2.898831 1_555
K1 O14 2.907687 1_555
K1 O56 2.920625 1_555
K1 O53 2.951281 1_555
K1 O45 2.998636 1_555
K1 O40 3.111415 1_545
K2 O39 2.785311 1_655
K2 O23 2.815188 1_565
K2 O0 2.892442 1_555
K2 O29 2.898831 1_555
K2 O13 2.907687 1_655
K2 O59 2.920625 1_554
K2 O54 2.951281 1_554
K2 O46 2.998636 1_555
K2 O43 3.111415 1_565
K3 O38 2.785311 1_555
K3 O22 2.815195 1_555
K3 O1 2.892442 1_555
K3 O28 2.898831 1_555
K3 O12 2.907687 1_555
K3 O58 2.920625 1_556
K3 O55 2.951281 1_556
K3 O47 2.998636 1_555
K3 O42 3.111415 1_555
K4 O33 2.785311 1_655
K4 O17 2.815195 1_555
K4 O6 2.892442 1_555
K4 O27 2.898831 1_555
K4 O11 2.907687 1_655
K4 O61 2.920625 1_555
K4 O48 2.951281 1_555
K4 O40 2.998636 1_555
K4 O45 3.111415 1_555
K5 O32 2.785311 1_555
K5 O16 2.815188 1_565
K5 O7 2.892442 1_555
K5 O26 2.898831 1_555
K5 O10 2.907687 1_555
K5 O60 2.920625 1_555
K5 O49 2.951281 1_555
K5 O41 2.998636 1_555
K5 O44 3.111415 1_565
K6 O35 2.785311 1_455
K6 O19 2.815195 1_545
K6 O4 2.892442 1_555
K6 O25 2.898831 1_555
K6 O9 2.907687 1_455
K6 O63 2.920625 1_556
K6 O50 2.951281 1_556
K6 O42 2.998636 1_555
K6 O47 3.111415 1_545
K7 O34 2.785311 1_555
K7 O18 2.815195 1_555
K7 O5 2.892442 1_555
K7 O24 2.898831 1_555
K7 O8 2.907687 1_555
K7 O62 2.920625 1_554
K7 O51 2.951281 1_554
K7 O43 2.998636 1_555
K7 O46 3.111415 1_555
K8 O15 2.794135 1_555
K8 O44 2.815540 1_555
K8 O2 2.900543 1_555
K8 O53 2.928193 1_555
K8 O56 2.995115 1_555
K8 O24 3.049750 1_555
K8 O32 3.066624 1_545
K8 O16 3.068250 1_555
K8 O37 3.077744 1_555
K9 O14 2.794135 1_555
K9 O45 2.815540 1_455
K9 O3 2.900543 1_455
K9 O52 2.928193 1_555
K9 O57 2.995115 1_555
K9 O25 3.049750 1_555
K9 O33 3.066624 1_555
K9 O17 3.068244 1_455
K9 O36 3.077744 1_555
K10 O13 2.794135 1_555
K10 O46 2.815540 1_555
K10 O0 2.900543 1_555
K10 O55 2.928193 1_555
K10 O58 2.995115 1_555
K10 O26 3.049750 1_555
K10 O34 3.066624 1_555
K10 O18 3.068244 1_555
K10 O39 3.077744 1_555
K11 O12 2.794135 1_555
K11 O47 2.815540 1_655
K11 O1 2.900543 1_655
K11 O54 2.928193 1_555
K11 O59 2.995115 1_555
K11 O27 3.049750 1_555
K11 O35 3.066624 1_565
K11 O19 3.068244 1_655
K11 O38 3.077744 1_555
K12 O11 2.794135 1_555
K12 O40 2.815540 1_555
K12 O6 2.900543 1_555
K12 O49 2.928193 1_555
K12 O60 2.995115 1_555
K12 O28 3.049750 1_555
K12 O36 3.066624 1_565
K12 O20 3.068244 1_555
K12 O33 3.077744 1_555
K13 O10 2.794135 1_555
K13 O41 2.815540 1_655
K13 O7 2.900543 1_655
K13 O48 2.928193 1_555
K13 O61 2.995115 1_555
K13 O29 3.049750 1_555
K13 O37 3.066624 1_555
K13 O21 3.068244 1_655
K13 O32 3.077744 1_555
K14 O9 2.794135 1_555
K14 O42 2.815540 1_555
K14 O4 2.900543 1_555
K14 O51 2.928193 1_555
K14 O62 2.995115 1_555
K14 O30 3.049750 1_555
K14 O38 3.066624 1_555
K14 O22 3.068244 1_555
K14 O35 3.077744 1_555
K15 O8 2.794135 1_555
K15 O43 2.815540 1_455
K15 O5 2.900543 1_455
K15 O50 2.928193 1_555
K15 O63 2.995115 1_555
K15 O31 3.049750 1_555
K15 O39 3.066624 1_545
K15 O23 3.068250 1_455
K15 O34 3.077744 1_555
H0 O24 1.033557 1_555
H0 O23 1.530781 1_555
H1 O25 1.033557 1_555
H1 O22 1.530777 1_555
H2 O26 1.033557 1_555
H2 O21 1.530777 1_555
H3 O27 1.033557 1_555
H3 O20 1.530777 1_555
H4 O28 1.033557 1_555
H4 O19 1.530777 1_555
H5 O29 1.033557 1_555
H5 O18 1.530777 1_555
H6 O30 1.033557 1_555
H6 O17 1.530777 1_555
H7 O31 1.033557 1_555
H7 O16 1.530781 1_555
H8 O56 1.017703 1_555
H8 O52 1.591943 1_655
H9 O57 1.017703 1_555
H9 O53 1.591943 1_555
H10 O58 1.017703 1_555
H10 O54 1.591943 1_454
H11 O59 1.017703 1_555
H11 O55 1.591943 1_556
H12 O60 1.017703 1_555
H12 O48 1.591943 1_455
H13 O61 1.017703 1_555
H13 O49 1.591943 1_555
H14 O62 1.017703 1_555
H14 O50 1.591943 1_656
H15 O63 1.017703 1_555
H15 O51 1.591943 1_554
O0 S0 1.459820 1_565
O1 S1 1.459820 1_555
O2 S2 1.459820 1_555
O3 S3 1.459820 1_545
O4 S4 1.459820 1_545
O5 S5 1.459820 1_555
O6 S6 1.459820 1_555
O7 S7 1.459820 1_565
O8 S0 1.458338 1_555
O9 S1 1.458338 1_655
O10 S2 1.458338 1_555
O11 S3 1.458338 1_455
O12 S4 1.458338 1_555
O13 S5 1.458338 1_455
O14 S6 1.458338 1_555
O15 S7 1.458338 1_655
O16 S0 1.494811 1_555
O17 S1 1.494810 1_655
O18 S2 1.494810 1_555
O19 S3 1.494810 1_455
O20 S4 1.494810 1_555
O21 S5 1.494810 1_455
O22 S6 1.494810 1_555
O23 S7 1.494811 1_655
O24 S0 1.595754 1_555
O25 S1 1.595754 1_555
O26 S2 1.595754 1_555
O27 S3 1.595754 1_555
O28 S4 1.595754 1_555
O29 S5 1.595754 1_555
O30 S6 1.595754 1_555
O31 S7 1.595754 1_555
O32 S8 1.461610 1_555
O33 S9 1.461610 1_555
O34 S10 1.461610 1_555
O35 S11 1.461610 1_555
O36 S12 1.461610 1_555
O37 S13 1.461610 1_555
O38 S14 1.461610 1_555
O39 S15 1.461610 1_555
O40 S8 1.462629 1_555
O41 S9 1.462629 1_555
O42 S10 1.462629 1_556
O43 S11 1.462629 1_554
O44 S12 1.462629 1_555
O45 S13 1.462629 1_555
O46 S14 1.462629 1_554
O47 S15 1.462629 1_556
O48 S8 1.482030 1_555
O49 S9 1.482030 1_555
O50 S10 1.482030 1_555
O51 S11 1.482030 1_555
O52 S12 1.482030 1_555
O53 S13 1.482030 1_555
O54 S14 1.482030 1_555
O55 S15 1.482030 1_555
O56 S8 1.602150 1_545
O57 S9 1.602150 1_555
O58 S10 1.602150 1_555
O59 S11 1.602150 1_565
O60 S12 1.602150 1_565
O61 S13 1.602150 1_555
O62 S14 1.602150 1_555
O63 S15 1.602150 1_545
