# generated using pymatgen
data_Na3CaScP2SO12
_symmetry_space_group_name_H-M   'P 1'
_cell_length_a   9.27072105
_cell_length_b   9.22983796
_cell_length_c   22.99694008
_cell_angle_alpha   90.36016386
_cell_angle_beta   90.00000000
_cell_angle_gamma   120.14663342
_symmetry_Int_Tables_number   1
_chemical_formula_structural   Na3CaScP2SO12
_chemical_formula_sum   'Na18 Ca6 Sc6 P12 S6 O72'
_cell_volume   1701.58324165
_cell_formula_units_Z   6
loop_
 _symmetry_equiv_pos_site_id
 _symmetry_equiv_pos_as_xyz
  1  'x, y, z'
loop_
 _atom_site_type_symbol
 _atom_site_label
 _atom_site_symmetry_multiplicity
 _atom_site_fract_x
 _atom_site_fract_y
 _atom_site_fract_z
 _atom_site_occupancy
  Na  Na0  1  0.35956173  0.35507326  0.24707410  1
  Na  Na1  1  0.99943810  0.63298717  0.24492980  1
  Na  Na2  1  0.63354907  0.63298717  0.74492980  1
  Na  Na3  1  0.99551153  0.35507326  0.74707410  1
  Na  Na4  1  0.02622873  0.68840626  0.58040710  1
  Na  Na5  1  0.66610510  0.96632017  0.57826280  1
  Na  Na6  1  0.30021607  0.96632017  0.07826280  1
  Na  Na7  1  0.66217853  0.68840626  0.08040710  1
  Na  Na8  1  0.69289473  0.02174026  0.91374110  1
  Na  Na9  1  0.33277110  0.29965417  0.91159680  1
  Na  Na10  1  0.96688207  0.29965417  0.41159680  1
  Na  Na11  1  0.32884453  0.02174026  0.41374110  1
  Na  Na12  1  0.98165164  0.98507072  0.49796794  1
  Na  Na13  1  0.00341908  0.98507072  0.99796794  1
  Na  Na14  1  0.64831864  0.31840372  0.83130094  1
  Na  Na15  1  0.67008608  0.31840372  0.33130094  1
  Na  Na16  1  0.31498464  0.65173772  0.16463494  1
  Na  Na17  1  0.33675208  0.65173772  0.66463494  1
  Ca  Ca0  1  0.98829814  0.99340322  0.34985374  1
  Ca  Ca1  1  0.00510508  0.99340322  0.84985374  1
  Ca  Ca2  1  0.65496514  0.32673622  0.68318674  1
  Ca  Ca3  1  0.67177208  0.32673622  0.18318674  1
  Ca  Ca4  1  0.32163114  0.66007022  0.01652074  1
  Ca  Ca5  1  0.33843808  0.66007022  0.51652074  1
  Sc  Sc0  1  0.00030393  0.01544307  0.65046181  1
  Sc  Sc1  1  0.01513914  0.01544307  0.15046181  1
  Sc  Sc2  1  0.66697093  0.34877607  0.98379481  1
  Sc  Sc3  1  0.68180614  0.34877607  0.48379481  1
  Sc  Sc4  1  0.33363693  0.68211007  0.31712881  1
  Sc  Sc5  1  0.34847214  0.68211007  0.81712881  1
  P  P0  1  0.29403990  0.99655235  0.25165490  1
  P  P1  1  0.01039076  0.30539395  0.25342583  1
  P  P2  1  0.29500319  0.30539395  0.75342583  1
  P  P3  1  0.70251245  0.99655235  0.75165490  1
  P  P4  1  0.96070690  0.32988535  0.58498790  1
  P  P5  1  0.67705776  0.63872695  0.58675883  1
  P  P6  1  0.96167019  0.63872695  0.08675883  1
  P  P7  1  0.36917945  0.32988535  0.08498790  1
  P  P8  1  0.62737290  0.66321935  0.91832190  1
  P  P9  1  0.34372376  0.97206095  0.92009283  1
  P  P10  1  0.62833619  0.97206095  0.42009283  1
  P  P11  1  0.03584545  0.66321935  0.41832190  1
  S  S0  1  0.69615921  0.70381960  0.24771050  1
  S  S1  1  0.00766039  0.70381960  0.74771050  1
  S  S2  1  0.36282621  0.03715260  0.58104350  1
  S  S3  1  0.67432739  0.03715260  0.08104350  1
  S  S4  1  0.02949221  0.37048660  0.91437750  1
  S  S5  1  0.34099339  0.37048660  0.41437750  1
  O  O0  1  0.21459644  0.01763067  0.30671502  1
  O  O1  1  0.79925117  0.78188845  0.29892887  1
  O  O2  1  0.98950707  0.21257196  0.30996874  1
  O  O3  1  0.22306490  0.21257196  0.80996874  1
  O  O4  1  0.98263728  0.78188845  0.79892887  1
  O  O5  1  0.80303423  0.01763067  0.80671502  1
  O  O6  1  0.79233895  0.97127882  0.69702827  1
  O  O7  1  0.17630741  0.20475047  0.70089072  1
  O  O8  1  0.02676057  0.80358901  0.69438010  1
  O  O9  1  0.77682844  0.80358901  0.19438010  1
  O  O10  1  0.02844306  0.20475047  0.20089072  1
  O  O11  1  0.17893987  0.97127882  0.19702827  1
  O  O12  1  0.88126344  0.35096367  0.64004802  1
  O  O13  1  0.46591817  0.11522145  0.63226187  1
  O  O14  1  0.65617407  0.54590496  0.64330174  1
  O  O15  1  0.88973190  0.54590496  0.14330174  1
  O  O16  1  0.64930428  0.11522145  0.13226187  1
  O  O17  1  0.46970123  0.35096367  0.14004802  1
  O  O18  1  0.45900595  0.30461182  0.03036127  1
  O  O19  1  0.84297441  0.53808347  0.03422372  1
  O  O20  1  0.69342757  0.13692201  0.02771310  1
  O  O21  1  0.44349544  0.13692201  0.52771310  1
  O  O22  1  0.69511006  0.53808347  0.53422372  1
  O  O23  1  0.84560687  0.30461182  0.53036127  1
  O  O24  1  0.54792944  0.68429767  0.97338202  1
  O  O25  1  0.13258417  0.44855545  0.96559587  1
  O  O26  1  0.32284007  0.87923896  0.97663574  1
  O  O27  1  0.55639790  0.87923896  0.47663574  1
  O  O28  1  0.31597028  0.44855545  0.46559587  1
  O  O29  1  0.13636723  0.68429767  0.47338202  1
  O  O30  1  0.12567195  0.63794582  0.36369527  1
  O  O31  1  0.50964041  0.87141747  0.36755772  1
  O  O32  1  0.36009357  0.47025601  0.36104710  1
  O  O33  1  0.11016144  0.47025601  0.86104710  1
  O  O34  1  0.36177606  0.87141747  0.86755772  1
  O  O35  1  0.51227287  0.63794582  0.86369527  1
  O  O36  1  0.02045299  0.82020243  0.41217330  1
  O  O37  1  0.80850996  0.00798808  0.41346618  1
  O  O38  1  0.19114166  0.19903437  0.41040598  1
  O  O39  1  0.00789271  0.19903437  0.91040598  1
  O  O40  1  0.19947813  0.00798808  0.91346618  1
  O  O41  1  0.79974944  0.82020243  0.91217330  1
  O  O42  1  0.96807265  0.16269823  0.58817313  1
  O  O43  1  0.19232356  0.01698996  0.58684115  1
  O  O44  1  0.84671399  0.81363420  0.58794991  1
  O  O45  1  0.96692021  0.81363420  0.08794991  1
  O  O46  1  0.82466640  0.01698996  0.08684115  1
  O  O47  1  0.19462558  0.16269823  0.08817313  1
  O  O48  1  0.68711999  0.15353543  0.74550630  1
  O  O49  1  0.47517696  0.34132108  0.74679918  1
  O  O50  1  0.85780866  0.53236737  0.74373898  1
  O  O51  1  0.67455971  0.53236737  0.24373898  1
  O  O52  1  0.86614513  0.34132108  0.24679918  1
  O  O53  1  0.46641644  0.15353543  0.24550630  1
  O  O54  1  0.63473965  0.49603123  0.92150613  1
  O  O55  1  0.85899056  0.35032296  0.92017415  1
  O  O56  1  0.51338099  0.14696720  0.92128291  1
  O  O57  1  0.63358721  0.14696720  0.42128291  1
  O  O58  1  0.49133340  0.35032296  0.42017415  1
  O  O59  1  0.86129258  0.49603123  0.42150613  1
  O  O60  1  0.35378599  0.48686943  0.07884030  1
  O  O61  1  0.14184296  0.67465508  0.08013318  1
  O  O62  1  0.52447466  0.86570137  0.07707298  1
  O  O63  1  0.34122571  0.86570137  0.57707298  1
  O  O64  1  0.53281113  0.67465508  0.58013318  1
  O  O65  1  0.13308244  0.48686943  0.57884030  1
  O  O66  1  0.30140565  0.82936523  0.25484013  1
  O  O67  1  0.52565656  0.68365696  0.25350815  1
  O  O68  1  0.18004699  0.48030120  0.25461691  1
  O  O69  1  0.30025321  0.48030120  0.75461691  1
  O  O70  1  0.15799940  0.68365696  0.75350815  1
  O  O71  1  0.52795858  0.82936523  0.75484013  1
loop_
_geom_bond_atom_site_label_1
_geom_bond_atom_site_label_2
_geom_bond_distance
_geom_bond_site_symmetry_2
Na0 O68 2.462779 1_555
Na0 O53 2.508558 1_555
Na0 O51 2.532448 1_555
Na0 O67 2.625720 1_555
Na0 O17 2.672006 1_555
Na0 O32 2.821302 1_555
Na0 O10 2.860013 1_555
Na1 O52 2.331524 1_555
Na1 O66 2.464225 1_655
Na1 O15 2.509566 1_555
Na1 O51 2.669211 1_555
Na1 O68 2.685746 1_655
Na1 O11 2.925106 1_655
Na1 O30 2.962425 1_655
Na2 O49 2.331524 1_555
Na2 O71 2.464232 1_555
Na2 O14 2.509568 1_555
Na2 O50 2.669220 1_555
Na2 O69 2.685754 1_555
Na2 O6 2.925106 1_555
Na2 O35 2.962429 1_555
Na3 O69 2.462770 1_655
Na3 O48 2.508551 1_555
Na3 O50 2.532441 1_555
Na3 O70 2.625720 1_655
Na3 O12 2.672003 1_555
Na3 O33 2.821301 1_655
Na3 O7 2.860013 1_655
Na4 O44 2.462779 1_455
Na4 O65 2.508542 1_555
Na4 O63 2.532441 1_555
Na4 O43 2.625720 1_565
Na4 O29 2.671980 1_555
Na4 O8 2.821302 1_555
Na4 O22 2.860013 1_455
Na5 O64 2.331516 1_555
Na5 O42 2.464225 1_565
Na5 O27 2.509546 1_555
Na5 O63 2.669222 1_555
Na5 O44 2.685746 1_555
Na5 O23 2.925106 1_565
Na5 O6 2.962425 1_555
Na6 O61 2.331517 1_555
Na6 O47 2.464232 1_565
Na6 O26 2.509541 1_554
Na6 O62 2.669204 1_555
Na6 O45 2.685754 1_455
Na6 O18 2.925106 1_565
Na6 O11 2.962429 1_555
Na7 O45 2.462770 1_555
Na7 O60 2.508556 1_555
Na7 O62 2.532456 1_555
Na7 O46 2.625720 1_565
Na7 O24 2.671987 1_554
Na7 O9 2.821301 1_555
Na7 O19 2.860013 1_555
Na8 O56 2.462761 1_555
Na8 O41 2.508558 1_545
Na8 O39 2.532448 1_655
Na8 O55 2.625711 1_555
Na8 O5 2.672006 1_555
Na8 O20 2.821276 1_556
Na8 O34 2.860013 1_545
Na9 O40 2.331524 1_555
Na9 O54 2.464228 1_555
Na9 O3 2.509566 1_555
Na9 O39 2.669211 1_555
Na9 O56 2.685760 1_555
Na9 O35 2.925106 1_555
Na9 O18 2.962409 1_556
Na10 O37 2.331524 1_555
Na10 O59 2.464214 1_555
Na10 O2 2.509568 1_555
Na10 O38 2.669220 1_655
Na10 O57 2.685743 1_555
Na10 O30 2.925106 1_655
Na10 O23 2.962402 1_555
Na11 O57 2.462778 1_555
Na11 O36 2.508551 1_545
Na11 O38 2.532441 1_555
Na11 O58 2.625711 1_555
Na11 O0 2.672003 1_555
Na11 O21 2.821279 1_555
Na11 O31 2.860013 1_545
Na12 O44 2.530551 1_555
Na12 O37 2.596880 1_565
Na12 O36 2.617219 1_655
Na12 O42 2.677981 1_565
Na12 O43 2.737329 1_665
Na12 O38 2.815012 1_665
Na13 O45 2.530551 1_456
Na13 O40 2.596880 1_565
Na13 O41 2.617219 1_455
Na13 O47 2.677981 1_566
Na13 O46 2.737329 1_466
Na13 O39 2.815012 1_565
Na14 O56 2.530551 1_555
Na14 O49 2.596880 1_555
Na14 O48 2.617219 1_555
Na14 O54 2.677981 1_555
Na14 O55 2.737329 1_555
Na14 O50 2.815012 1_555
Na15 O57 2.530551 1_555
Na15 O52 2.596880 1_555
Na15 O53 2.617219 1_555
Na15 O59 2.677981 1_555
Na15 O58 2.737329 1_555
Na15 O51 2.815012 1_555
Na16 O68 2.530551 1_555
Na16 O61 2.596880 1_555
Na16 O60 2.617219 1_555
Na16 O66 2.677981 1_555
Na16 O67 2.737329 1_555
Na16 O62 2.815012 1_555
Na17 O69 2.530551 1_555
Na17 O64 2.596880 1_555
Na17 O65 2.617219 1_555
Na17 O71 2.677981 1_555
Na17 O70 2.737329 1_555
Na17 O63 2.815012 1_555
Ca0 O1 2.188375 1_555
Ca0 O2 2.221281 1_565
Ca0 O0 2.228710 1_665
Ca0 O37 2.271381 1_565
Ca0 O36 2.281631 1_655
Ca0 O38 2.336549 1_665
Ca1 O4 2.188375 1_455
Ca1 O3 2.221281 1_565
Ca1 O5 2.228710 1_465
Ca1 O40 2.271381 1_565
Ca1 O41 2.281631 1_455
Ca1 O39 2.336549 1_565
Ca2 O13 2.188375 1_555
Ca2 O14 2.221281 1_555
Ca2 O12 2.228710 1_555
Ca2 O49 2.271381 1_555
Ca2 O48 2.281631 1_555
Ca2 O50 2.336549 1_555
Ca3 O16 2.188375 1_555
Ca3 O15 2.221281 1_555
Ca3 O17 2.228710 1_555
Ca3 O52 2.271381 1_555
Ca3 O53 2.281631 1_555
Ca3 O51 2.336549 1_555
Ca4 O25 2.188375 1_554
Ca4 O26 2.221281 1_554
Ca4 O24 2.228710 1_554
Ca4 O61 2.271381 1_555
Ca4 O60 2.281631 1_555
Ca4 O62 2.336549 1_555
Ca5 O28 2.188375 1_555
Ca5 O27 2.221281 1_555
Ca5 O29 2.228710 1_555
Ca5 O64 2.271381 1_555
Ca5 O65 2.281631 1_555
Ca5 O63 2.336549 1_555
O0 P0 1.524599 1_545
O1 S0 1.455205 1_555
O2 P1 1.519767 1_655
O3 P2 1.519767 1_555
O4 S1 1.455205 1_655
O5 P3 1.524599 1_545
O6 P3 1.586658 1_555
O6 Sc0 2.060629 1_665
O7 P2 1.578787 1_555
O7 Sc0 2.042347 1_555
O8 S1 1.494621 1_555
O8 Sc0 2.326003 1_565
O9 S0 1.494621 1_555
O9 Sc1 2.326003 1_665
O10 P1 1.578787 1_555
O10 Sc1 2.042347 1_555
O11 P0 1.586658 1_555
O11 Sc1 2.060629 1_565
O12 P4 1.524599 1_555
O13 S2 1.455205 1_555
O14 P5 1.519767 1_555
O15 P6 1.519767 1_555
O16 S3 1.455205 1_555
O17 P7 1.524599 1_555
O18 P7 1.586658 1_555
O18 Sc2 2.060629 1_554
O19 P6 1.578787 1_555
O19 Sc2 2.042347 1_554
O20 S3 1.494621 1_555
O20 Sc2 2.326003 1_554
O21 S2 1.494621 1_555
O21 Sc3 2.326003 1_555
O22 P5 1.578787 1_555
O22 Sc3 2.042347 1_555
O23 P4 1.586658 1_555
O23 Sc3 2.060629 1_555
O24 P8 1.524599 1_555
O25 S4 1.455205 1_555
O26 P9 1.519767 1_555
O27 P10 1.519767 1_555
O28 S5 1.455205 1_555
O29 P11 1.524599 1_555
O30 P11 1.586658 1_555
O30 Sc4 2.060629 1_555
O31 P10 1.578787 1_555
O31 Sc4 2.042347 1_555
O32 S5 1.494621 1_555
O32 Sc4 2.326003 1_555
O33 S4 1.494621 1_555
O33 Sc5 2.326003 1_555
O34 P9 1.578787 1_555
O34 Sc5 2.042347 1_555
O35 P8 1.586658 1_555
O35 Sc5 2.060629 1_555
O36 P11 1.532972 1_555
O37 P10 1.538673 1_545
O38 S5 1.494175 1_555
O39 S4 1.494179 1_555
O40 P9 1.538664 1_545
O41 P8 1.532977 1_555
O42 P4 1.580657 1_555
O42 Sc0 2.102584 1_655
O43 S2 1.501937 1_555
O43 Sc0 2.298807 1_555
O44 P5 1.590536 1_555
O44 Sc0 2.205897 1_665
O45 P6 1.590540 1_555
O45 Sc1 2.205897 1_665
O46 S3 1.501927 1_555
O46 Sc1 2.298807 1_655
O47 P7 1.580662 1_555
O47 Sc1 2.102584 1_555
O48 P3 1.532972 1_545
O49 P2 1.538673 1_555
O50 S1 1.494175 1_655
O51 S0 1.494179 1_555
O52 P1 1.538664 1_655
O53 P0 1.532977 1_545
O54 P8 1.580670 1_555
O54 Sc2 2.102584 1_555
O55 S4 1.501922 1_655
O55 Sc2 2.298807 1_555
O56 P9 1.590535 1_545
O56 Sc2 2.205897 1_555
O57 P10 1.590526 1_545
O57 Sc3 2.205897 1_555
O58 S5 1.501940 1_555
O58 Sc3 2.298807 1_555
O59 P11 1.580660 1_655
O59 Sc3 2.102584 1_555
O60 P7 1.532984 1_555
O61 P6 1.538659 1_455
O62 S3 1.494172 1_565
O63 S2 1.494165 1_565
O64 P5 1.538677 1_555
O65 P4 1.532973 1_455
O66 P0 1.580657 1_555
O66 Sc4 2.102584 1_555
O67 S0 1.501937 1_555
O67 Sc4 2.298807 1_555
O68 P1 1.590536 1_555
O68 Sc4 2.205897 1_555
O69 P2 1.590540 1_555
O69 Sc5 2.205897 1_555
O70 S1 1.501927 1_555
O70 Sc5 2.298807 1_555
O71 P3 1.580662 1_555
O71 Sc5 2.102584 1_555
