# generated using pymatgen
data_SmH3(CO2)3
_symmetry_space_group_name_H-M   'P 1'
_cell_length_a   6.27869333
_cell_length_b   6.27869333
_cell_length_c   6.27869250
_cell_angle_alpha   115.44566092
_cell_angle_beta   115.44566092
_cell_angle_gamma   115.44565118
_symmetry_Int_Tables_number   1
_chemical_formula_structural   SmH3(CO2)3
_chemical_formula_sum   'Sm1 H3 C3 O6'
_cell_volume   132.73059876
_cell_formula_units_Z   1
loop_
 _symmetry_equiv_pos_site_id
 _symmetry_equiv_pos_as_xyz
  1  'x, y, z'
loop_
 _atom_site_type_symbol
 _atom_site_label
 _atom_site_symmetry_multiplicity
 _atom_site_fract_x
 _atom_site_fract_y
 _atom_site_fract_z
 _atom_site_occupancy
  Sm  Sm0  1  0.84100600  0.84100600  0.84100600  1
  H  H0  1  0.46638200  0.98250300  0.46638300  1
  H  H1  1  0.46638200  0.46638300  0.98250300  1
  H  H2  1  0.98250300  0.46638200  0.46638200  1
  C  C0  1  0.68798300  0.22766000  0.22766000  1
  C  C1  1  0.22766000  0.68798300  0.22766000  1
  C  C2  1  0.22766000  0.22766000  0.68798300  1
  O  O0  1  0.24940800  0.50325900  0.24940800  1
  O  O1  1  0.55612800  0.95449300  0.95449300  1
  O  O2  1  0.95449300  0.95449300  0.55612800  1
  O  O3  1  0.50325900  0.24940800  0.24940800  1
  O  O4  1  0.24940800  0.24940800  0.50325900  1
  O  O5  1  0.95449300  0.55612800  0.95449300  1
loop_
_geom_bond_atom_site_label_1
_geom_bond_atom_site_label_2
_geom_bond_distance
_geom_bond_site_symmetry_2
C0 H2 1.103953 1_555
C0 O1 1.265157 1_544
C0 O3 1.280096 1_555
C1 H0 1.103953 1_555
C1 O5 1.265157 1_454
C1 O0 1.280096 1_555
C2 H1 1.103953 1_555
C2 O2 1.265158 1_445
C2 O4 1.280096 1_555
O0 Sm0 2.542756 1_444
O0 Sm0 2.588033 1_555
O1 Sm0 2.443127 1_555
O2 Sm0 2.443127 1_555
O3 Sm0 2.542756 1_444
O3 Sm0 2.588033 1_555
O4 Sm0 2.542755 1_444
O4 Sm0 2.588034 1_555
O5 Sm0 2.443127 1_555
