# generated using pymatgen
data_MgFe6(OF)6
_symmetry_space_group_name_H-M   'P 1'
_cell_length_a   5.19185311
_cell_length_b   5.32137274
_cell_length_c   8.82175896
_cell_angle_alpha   92.23813648
_cell_angle_beta   90.10344826
_cell_angle_gamma   90.55204424
_symmetry_Int_Tables_number   1
_chemical_formula_structural   MgFe6(OF)6
_chemical_formula_sum   'Mg1 Fe6 O6 F6'
_cell_volume   243.52785297
_cell_formula_units_Z   1
loop_
 _symmetry_equiv_pos_site_id
 _symmetry_equiv_pos_as_xyz
  1  'x, y, z'
loop_
 _atom_site_type_symbol
 _atom_site_label
 _atom_site_symmetry_multiplicity
 _atom_site_fract_x
 _atom_site_fract_y
 _atom_site_fract_z
 _atom_site_occupancy
  Mg  Mg0  1  0.53234100  0.99336700  0.32763600  1
  Fe  Fe0  1  0.93312400  0.92392600  0.99397900  1
  Fe  Fe1  1  0.04511700  0.06549200  0.32653100  1
  Fe  Fe2  1  0.08003500  0.04134800  0.66773900  1
  Fe  Fe3  1  0.42886100  0.56286000  0.83520500  1
  Fe  Fe4  1  0.55718900  0.44302000  0.14938000  1
  Fe  Fe5  1  0.40853700  0.53876600  0.50120400  1
  O  O0  1  0.24375800  0.86319400  0.48746500  1
  O  O1  1  0.18943600  0.83783800  0.83233600  1
  O  O2  1  0.27024500  0.35178400  0.66539900  1
  O  O3  1  0.34308700  0.32148900  0.32930500  1
  O  O4  1  0.69819400  0.64723100  0.98200100  1
  O  O5  1  0.78484900  0.11321600  0.16511700  1
  F  F0  1  0.24382400  0.84459300  0.16018900  1
  F  F1  1  0.27993700  0.33616100  0.98206400  1
  F  F2  1  0.66052800  0.65555400  0.66072700  1
  F  F3  1  0.70203700  0.67143100  0.35131800  1
  F  F4  1  0.80644300  0.13187300  0.82433700  1
  F  F5  1  0.79245700  0.12908400  0.50806900  1
loop_
_geom_bond_atom_site_label_1
_geom_bond_atom_site_label_2
_geom_bond_distance
_geom_bond_site_symmetry_2
Mg0 O3 2.011344 1_565
Mg0 O5 2.059859 1_565
Mg0 O0 2.185547 1_555
Fe0 O4 1.902529 1_555
Fe0 O5 1.946000 1_566
Fe0 O1 1.995419 1_655
Fe1 O5 1.986452 1_455
Fe1 O3 2.050914 1_555
Fe1 O0 2.091305 1_545
Fe2 O2 1.917262 1_555
Fe2 O1 1.932745 1_545
Fe2 O0 2.013233 1_545
Fe3 O1 1.929973 1_555
Fe3 O4 1.941622 1_555
Fe3 O2 2.007499 1_555
Fe4 O4 2.002747 1_554
Fe4 O3 2.060566 1_555
Fe4 O5 2.134201 1_555
Fe5 O3 1.898827 1_555
Fe5 O2 1.925154 1_555
Fe5 O0 1.942030 1_555
F0 Fe1 2.119797 1_565
F0 Mg0 2.220461 1_555
F0 Fe0 2.232308 1_454
F1 Fe3 1.959409 1_555
F1 Fe4 2.117784 1_556
F2 Fe5 1.996915 1_555
F2 Fe3 2.028222 1_555
F3 Mg0 1.952204 1_555
F3 Fe5 2.151324 1_555
F3 Fe4 2.241624 1_555
F4 Fe0 2.009108 1_545
F4 Fe2 2.031374 1_655
F5 Fe1 2.091369 1_655
F5 Fe2 2.118604 1_655
F5 Mg0 2.182353 1_545
