# generated using pymatgen
data_MgMn6(O2F)4
_symmetry_space_group_name_H-M   'P 1'
_cell_length_a   4.98378420
_cell_length_b   5.02883900
_cell_length_c   9.02328500
_cell_angle_alpha   89.99992268
_cell_angle_beta   89.99986755
_cell_angle_gamma   90.03982316
_symmetry_Int_Tables_number   1
_chemical_formula_structural   MgMn6(O2F)4
_chemical_formula_sum   'Mg1 Mn6 O8 F4'
_cell_volume   226.14736433
_cell_formula_units_Z   1
loop_
 _symmetry_equiv_pos_site_id
 _symmetry_equiv_pos_as_xyz
  1  'x, y, z'
loop_
 _atom_site_type_symbol
 _atom_site_label
 _atom_site_symmetry_multiplicity
 _atom_site_fract_x
 _atom_site_fract_y
 _atom_site_fract_z
 _atom_site_occupancy
  Mg  Mg0  1  0.00000400  0.49999800  0.33117800  1
  Mn  Mn0  1  0.00000500  0.99999500  0.01166500  1
  Mn  Mn1  1  0.99998900  0.99999900  0.33110600  1
  Mn  Mn2  1  0.99999400  0.00001000  0.65034800  1
  Mn  Mn3  1  0.50000900  0.49999700  0.83129000  1
  Mn  Mn4  1  0.50000300  0.49999300  0.13910400  1
  Mn  Mn5  1  0.49999300  0.50000800  0.52370900  1
  O  O0  1  0.14887400  0.77517300  0.17782100  1
  O  O1  1  0.14865600  0.77595600  0.48465500  1
  O  O2  1  0.33304800  0.30204200  0.99295300  1
  O  O3  1  0.33264500  0.30265300  0.66988600  1
  O  O4  1  0.66695600  0.69795300  0.99295800  1
  O  O5  1  0.66736300  0.69735300  0.66988600  1
  O  O6  1  0.85112200  0.22483100  0.17781900  1
  O  O7  1  0.85134000  0.22405000  0.48465600  1
  F  F0  1  0.16187700  0.80897200  0.83045300  1
  F  F1  1  0.34311700  0.30600900  0.33145200  1
  F  F2  1  0.65688400  0.69398800  0.33145600  1
  F  F3  1  0.83812100  0.19102100  0.83045900  1
loop_
_geom_bond_atom_site_label_1
_geom_bond_atom_site_label_2
_geom_bond_distance
_geom_bond_site_symmetry_2
Mg0 O0 2.092564 1_555
Mg0 O6 2.092575 1_455
Mg0 O7 2.095494 1_455
Mg0 O1 2.095505 1_555
Mn0 O0 2.019329 1_555
Mn0 O6 2.019380 1_465
Mn0 O2 2.255478 1_564
Mn0 O4 2.255481 1_454
Mn1 O7 1.933692 1_565
Mn1 O1 1.933697 1_655
Mn1 O6 1.934704 1_565
Mn1 O0 1.934708 1_655
Mn2 O7 2.013624 1_555
Mn2 O1 2.013684 1_645
Mn2 O5 2.256605 1_545
Mn2 O3 2.256632 1_655
Mn3 O3 1.949501 1_555
Mn3 O5 1.949506 1_555
Mn3 O2 1.951950 1_555
Mn3 O4 1.951962 1_555
Mn4 O4 1.849652 1_554
Mn4 O2 1.849669 1_554
Mn4 O6 2.258829 1_555
Mn4 O0 2.258925 1_555
Mn5 O3 1.849103 1_555
Mn5 O5 1.849130 1_555
Mn5 O1 2.262571 1_555
Mn5 O7 2.262638 1_555
F0 Mn2 2.053292 1_465
F0 Mn0 2.061150 1_556
F0 Mn3 2.292982 1_555
F1 Mg0 1.969291 1_555
F1 Mn5 2.138104 1_555
F1 Mn4 2.138749 1_555
F1 Mn1 2.299749 1_445
F2 Mg0 1.969324 1_655
F2 Mn5 2.138053 1_555
F2 Mn4 2.138800 1_555
F2 Mn1 2.299668 1_555
F3 Mn2 2.053251 1_555
F3 Mn0 2.061138 1_646
F3 Mn3 2.292912 1_555
