# generated using pymatgen
data_Lu2MgNb2O8
_symmetry_space_group_name_H-M   'P 1'
_cell_length_a   5.33609812
_cell_length_b   6.06963300
_cell_length_c   5.15705025
_cell_angle_alpha   90.00000000
_cell_angle_beta   87.28944240
_cell_angle_gamma   90.00000000
_symmetry_Int_Tables_number   1
_chemical_formula_structural   Lu2MgNb2O8
_chemical_formula_sum   'Lu2 Mg1 Nb2 O8'
_cell_volume   166.84048045
_cell_formula_units_Z   1
loop_
 _symmetry_equiv_pos_site_id
 _symmetry_equiv_pos_as_xyz
  1  'x, y, z'
loop_
 _atom_site_type_symbol
 _atom_site_label
 _atom_site_symmetry_multiplicity
 _atom_site_fract_x
 _atom_site_fract_y
 _atom_site_fract_z
 _atom_site_occupancy
  Lu  Lu0  1  0.25000000  0.85327000  0.50000000  1
  Lu  Lu1  1  0.75000000  0.13749400  0.50000000  1
  Mg  Mg0  1  0.25000000  0.38228800  0.50000000  1
  Nb  Nb0  1  0.25000000  0.35979300  0.00000000  1
  Nb  Nb1  1  0.75000000  0.63997400  0.00000000  1
  O  O0  1  0.08634900  0.60095600  0.24515800  1
  O  O1  1  0.10617400  0.13833000  0.27880600  1
  O  O2  1  0.39382600  0.13833000  0.72119400  1
  O  O3  1  0.41365100  0.60095600  0.75484200  1
  O  O4  1  0.56603700  0.37011900  0.23550900  1
  O  O5  1  0.60312200  0.85299500  0.25672900  1
  O  O6  1  0.89687800  0.85299500  0.74327100  1
  O  O7  1  0.93396300  0.37011900  0.76449100  1
loop_
_geom_bond_atom_site_label_1
_geom_bond_atom_site_label_2
_geom_bond_distance
_geom_bond_site_symmetry_2
Lu0 O5 2.213798 1_555
Lu0 O6 2.213798 1_455
Lu0 O3 2.223440 1_555
Lu0 O0 2.223440 1_555
Lu0 O2 2.228599 1_565
Lu0 O1 2.228599 1_565
Lu1 O1 2.169883 1_655
Lu1 O2 2.169883 1_555
Lu1 O7 2.223588 1_555
Lu1 O4 2.223588 1_555
Lu1 O6 2.294133 1_545
Lu1 O5 2.294133 1_545
Mg0 O2 2.040981 1_555
Mg0 O1 2.040981 1_555
Mg0 O3 2.088034 1_555
Mg0 O0 2.088034 1_555
Mg0 O7 2.119513 1_455
Mg0 O4 2.119513 1_555
Nb0 O2 2.087781 1_554
Nb0 O1 2.087781 1_555
Nb0 O3 2.097431 1_554
Nb0 O0 2.097431 1_555
Nb0 O4 2.125252 1_555
Nb0 O7 2.125252 1_454
Nb1 O6 1.985133 1_554
Nb1 O5 1.985133 1_555
Nb1 O4 2.238020 1_555
Nb1 O7 2.238020 1_554
Nb1 O3 2.256195 1_554
Nb1 O0 2.256195 1_655
