# generated using pymatgen
data_MgCr2Fe3Ni(PO4)6
_symmetry_space_group_name_H-M   'P 1'
_cell_length_a   8.75511396
_cell_length_b   8.44350012
_cell_length_c   8.48382830
_cell_angle_alpha   61.74202979
_cell_angle_beta   60.31256289
_cell_angle_gamma   60.93058108
_symmetry_Int_Tables_number   1
_chemical_formula_structural   MgCr2Fe3Ni(PO4)6
_chemical_formula_sum   'Mg1 Cr2 Fe3 Ni1 P6 O24'
_cell_volume   453.26879941
_cell_formula_units_Z   1
loop_
 _symmetry_equiv_pos_site_id
 _symmetry_equiv_pos_as_xyz
  1  'x, y, z'
loop_
 _atom_site_type_symbol
 _atom_site_label
 _atom_site_symmetry_multiplicity
 _atom_site_fract_x
 _atom_site_fract_y
 _atom_site_fract_z
 _atom_site_occupancy
  Mg  Mg0  1  0.12527100  0.37707900  0.75882000  1
  Cr  Cr0  1  0.99492300  0.99395400  0.00398800  1
  Cr  Cr1  1  0.51429100  0.49453100  0.49239900  1
  Fe  Fe0  1  0.16754200  0.12951400  0.15708300  1
  Fe  Fe1  1  0.35303900  0.35875600  0.34877900  1
  Fe  Fe2  1  0.64087600  0.64757700  0.64126800  1
  Ni  Ni0  1  0.84655100  0.86360400  0.85729100  1
  P  P0  1  0.02857600  0.76470500  0.45131100  1
  P  P1  1  0.45486100  0.04660000  0.75006700  1
  P  P2  1  0.73815700  0.45904400  0.03598600  1
  P  P3  1  0.24726300  0.54351600  0.94673700  1
  P  P4  1  0.55327900  0.95029000  0.25240000  1
  P  P5  1  0.96610000  0.24921500  0.56578600  1
  O  O0  1  0.10613900  0.31863700  0.55734000  1
  O  O1  1  0.30600200  0.46835400  0.11784800  1
  O  O2  1  0.05696100  0.91893800  0.24489700  1
  O  O3  1  0.49231200  0.10582800  0.33500300  1
  O  O4  1  0.99257400  0.84182000  0.59796700  1
  O  O5  1  0.21594000  0.59173400  0.44939400  1
  O  O6  1  0.24556400  0.07212200  0.90662600  1
  O  O7  1  0.41415900  0.25874200  0.60391100  1
  O  O8  1  0.17849600  0.39371800  0.96274800  1
  O  O9  1  0.59108900  0.43232300  0.24237700  1
  O  O10  1  0.09289500  0.74042800  0.94921900  1
  O  O11  1  0.40953300  0.98964600  0.17258300  1
  O  O12  1  0.60129200  0.01729200  0.81234400  1
  O  O13  1  0.91013500  0.26382500  0.02119100  1
  O  O14  1  0.40724800  0.56097700  0.75045400  1
  O  O15  1  0.82432200  0.60233900  0.98384800  1
  O  O16  1  0.57072700  0.74877200  0.40193700  1
  O  O17  1  0.75024100  0.94479100  0.09641300  1
  O  O18  1  0.77475100  0.40138500  0.56950000  1
  O  O19  1  0.04507100  0.18891500  0.38840000  1
  O  O20  1  0.48682700  0.89326600  0.68187900  1
  O  O21  1  0.94690100  0.08462400  0.75830400  1
  O  O22  1  0.65364500  0.50428900  0.89438000  1
  O  O23  1  0.87457100  0.70072700  0.48952400  1
loop_
_geom_bond_atom_site_label_1
_geom_bond_atom_site_label_2
_geom_bond_distance
_geom_bond_site_symmetry_2
Mg0 O8 2.079049 1_555
Mg0 O0 2.087087 1_555
Mg0 O7 2.148893 1_555
Mg0 O6 2.219766 1_555
Mg0 O13 2.235773 1_456
Mg0 O5 2.373840 1_555
Cr0 O21 2.037561 1_564
Cr0 O17 2.065990 1_555
Cr0 O10 2.072870 1_654
Cr0 O13 2.080505 1_565
Cr0 O2 2.100701 1_655
Cr0 O6 2.242544 1_664
Cr1 O9 2.127509 1_555
Cr1 O16 2.129903 1_555
Cr1 O14 2.146122 1_555
Cr1 O7 2.172150 1_555
Cr1 O18 2.343938 1_555
Cr1 O5 2.491381 1_555
Fe0 O19 1.891448 1_555
Fe0 O11 1.896907 1_545
Fe0 O8 2.067030 1_554
Fe0 O2 2.087496 1_545
Fe0 O6 2.105222 1_554
Fe0 O13 2.558544 1_455
Fe1 O1 1.891158 1_555
Fe1 O3 1.904201 1_555
Fe1 O0 2.067269 1_555
Fe1 O5 2.078383 1_555
Fe1 O9 2.099506 1_555
Fe1 O7 2.159150 1_555
Fe2 O22 1.932293 1_555
Fe2 O20 1.933615 1_555
Fe2 O23 1.944499 1_555
Fe2 O18 2.046840 1_555
Fe2 O16 2.076658 1_555
Fe2 O14 2.124094 1_555
Ni0 O4 1.969048 1_555
Ni0 O15 2.006128 1_555
Ni0 O12 2.018646 1_565
Ni0 O21 2.082842 1_565
Ni0 O17 2.087372 1_556
Ni0 O10 2.249436 1_655
O0 P5 1.556762 1_455
O1 P3 1.524659 1_554
O2 P0 1.596348 1_555
O3 P4 1.523313 1_545
O4 P0 1.500184 1_655
O5 P0 1.578661 1_555
O6 P1 1.626299 1_555
O7 P1 1.608511 1_555
O8 P3 1.573846 1_555
O9 P2 1.565170 1_555
O10 P3 1.553306 1_555
O11 P4 1.541915 1_555
O12 P1 1.490912 1_555
O13 P2 1.611465 1_555
O14 P3 1.553854 1_555
O15 P2 1.509403 1_556
O16 P4 1.556721 1_555
O17 P4 1.564297 1_555
O18 P5 1.533882 1_555
O19 P5 1.534541 1_455
O20 P1 1.511914 1_565
O21 P5 1.559814 1_555
O22 P2 1.519184 1_556
O23 P0 1.524429 1_655
