# generated using pymatgen
data_CeSi3N5
_symmetry_space_group_name_H-M   'P 1'
_cell_length_a   4.79389554
_cell_length_b   7.83377862
_cell_length_c   11.25105392
_cell_angle_alpha   90.00000000
_cell_angle_beta   90.00000000
_cell_angle_gamma   90.00000000
_symmetry_Int_Tables_number   1
_chemical_formula_structural   CeSi3N5
_chemical_formula_sum   'Ce4 Si12 N20'
_cell_volume   422.52563861
_cell_formula_units_Z   4
loop_
 _symmetry_equiv_pos_site_id
 _symmetry_equiv_pos_as_xyz
  1  'x, y, z'
loop_
 _atom_site_type_symbol
 _atom_site_label
 _atom_site_symmetry_multiplicity
 _atom_site_fract_x
 _atom_site_fract_y
 _atom_site_fract_z
 _atom_site_occupancy
  Ce  Ce0  1  0.00074550  0.44103812  0.83024552  1
  Ce  Ce1  1  0.49925450  0.55896188  0.33024552  1
  Ce  Ce2  1  0.99925450  0.94103812  0.66975448  1
  Ce  Ce3  1  0.50074550  0.05896188  0.16975448  1
  Si  Si0  1  0.97795366  0.53272272  0.54118195  1
  Si  Si1  1  0.51335088  0.16202767  0.83942646  1
  Si  Si2  1  0.51724233  0.29327066  0.58318457  1
  Si  Si3  1  0.48275767  0.79327066  0.91681543  1
  Si  Si4  1  0.98664912  0.83797233  0.33942646  1
  Si  Si5  1  0.01724233  0.20672934  0.41681543  1
  Si  Si6  1  0.02204634  0.03272272  0.95881805  1
  Si  Si7  1  0.47795366  0.96727728  0.45881805  1
  Si  Si8  1  0.48664912  0.66202767  0.66057354  1
  Si  Si9  1  0.98275767  0.70672934  0.08318457  1
  Si  Si10  1  0.01335088  0.33797233  0.16057354  1
  Si  Si11  1  0.52204634  0.46727728  0.04118195  1
  N  N0  1  0.16424930  0.29374657  0.29451328  1
  N  N1  1  0.17028911  0.11013934  0.83207475  1
  N  N2  1  0.81680953  0.01821660  0.40719984  1
  N  N3  1  0.31680953  0.48178340  0.59280016  1
  N  N4  1  0.32971089  0.88986066  0.33207475  1
  N  N5  1  0.29829111  0.15031882  0.50961466  1
  N  N6  1  0.82971089  0.61013934  0.66792525  1
  N  N7  1  0.95471783  0.65833641  0.42109492  1
  N  N8  1  0.67028911  0.38986066  0.16792525  1
  N  N9  1  0.45471783  0.84166359  0.57890508  1
  N  N10  1  0.70170889  0.65031882  0.99038534  1
  N  N11  1  0.20170889  0.84968118  0.00961466  1
  N  N12  1  0.18319047  0.51821660  0.09280016  1
  N  N13  1  0.66424930  0.20625343  0.70548672  1
  N  N14  1  0.83575070  0.79374657  0.20548672  1
  N  N15  1  0.79829111  0.34968118  0.49038534  1
  N  N16  1  0.04528217  0.15833641  0.07890508  1
  N  N17  1  0.54528217  0.34166359  0.92109492  1
  N  N18  1  0.68319047  0.98178340  0.90719984  1
  N  N19  1  0.33575070  0.70625343  0.79451328  1
loop_
_geom_bond_atom_site_label_1
_geom_bond_atom_site_label_2
_geom_bond_distance
_geom_bond_site_symmetry_2
Ce0 N6 2.400496 1_455
Ce0 N17 2.533426 1_455
Ce0 N19 2.656572 1_555
Ce0 N1 2.716701 1_555
Ce0 N13 2.820516 1_455
Ce0 N10 2.826511 1_455
Ce0 N17 2.909516 1_555
Ce0 N3 3.087817 1_555
Ce0 N12 3.139541 1_556
Ce1 N8 2.400496 1_555
Ce1 N7 2.533426 1_555
Ce1 N0 2.656572 1_555
Ce1 N4 2.716701 1_555
Ce1 N14 2.820516 1_555
Ce1 N15 2.826511 1_555
Ce1 N7 2.909516 1_455
Ce1 N12 3.087817 1_555
Ce1 N3 3.139541 1_555
Ce2 N1 2.400496 1_665
Ce2 N9 2.533426 1_655
Ce2 N13 2.656572 1_565
Ce2 N6 2.716701 1_555
Ce2 N19 2.820516 1_655
Ce2 N5 2.826511 1_665
Ce2 N9 2.909516 1_555
Ce2 N18 3.087817 1_555
Ce2 N2 3.139541 1_565
Ce3 N4 2.400496 1_545
Ce3 N16 2.533426 1_555
Ce3 N14 2.656572 1_545
Ce3 N8 2.716701 1_555
Ce3 N0 2.820516 1_555
Ce3 N11 2.826511 1_545
Ce3 N16 2.909516 1_655
Ce3 N2 3.087817 1_555
Ce3 N18 3.139541 1_544
N0 Si5 1.689611 1_555
N0 Si10 1.707122 1_555
N1 Si1 1.696109 1_555
N1 Si6 1.704788 1_555
N2 Si5 1.765159 1_655
N2 Si7 1.770685 1_545
N2 Si4 1.799466 1_545
N3 Si2 1.765159 1_555
N3 Si0 1.770685 1_455
N3 Si8 1.799466 1_555
N4 Si4 1.696109 1_455
N4 Si7 1.704788 1_555
N5 Si2 1.743830 1_555
N5 Si5 1.760872 1_555
N5 Si7 1.767633 1_545
N6 Si8 1.696109 1_555
N6 Si0 1.704788 1_555
N7 Si0 1.675174 1_555
N7 Si4 1.687608 1_555
N8 Si10 1.696109 1_655
N8 Si11 1.704788 1_555
N9 Si7 1.675174 1_555
N9 Si8 1.687608 1_555
N10 Si3 1.743830 1_555
N10 Si9 1.760872 1_556
N10 Si11 1.767633 1_556
N11 Si9 1.743830 1_455
N11 Si3 1.760872 1_554
N11 Si6 1.767633 1_564
N12 Si9 1.765159 1_455
N12 Si11 1.770685 1_555
N12 Si10 1.799466 1_555
N13 Si2 1.689611 1_555
N13 Si1 1.707122 1_555
N14 Si9 1.689611 1_555
N14 Si4 1.707122 1_555
N15 Si5 1.743830 1_655
N15 Si2 1.760872 1_555
N15 Si0 1.767633 1_555
N16 Si6 1.675174 1_554
N16 Si10 1.687608 1_555
N17 Si11 1.675174 1_556
N17 Si1 1.687608 1_555
N18 Si3 1.765159 1_555
N18 Si6 1.770685 1_665
N18 Si1 1.799466 1_565
N19 Si3 1.689611 1_555
N19 Si8 1.707122 1_555
