# generated using pymatgen
data_Na6CaZr3Si4(SO12)2
_symmetry_space_group_name_H-M   'P 1'
_cell_length_a   9.28265971
_cell_length_b   9.26633855
_cell_length_c   23.10485190
_cell_angle_alpha   90.28718364
_cell_angle_beta   89.91958337
_cell_angle_gamma   120.03426818
_symmetry_Int_Tables_number   1
_chemical_formula_structural   Na6CaZr3Si4(SO12)2
_chemical_formula_sum   'Na18 Ca3 Zr9 Si12 S6 O72'
_cell_volume   1720.51528466
_cell_formula_units_Z   3
loop_
 _symmetry_equiv_pos_site_id
 _symmetry_equiv_pos_as_xyz
  1  'x, y, z'
loop_
 _atom_site_type_symbol
 _atom_site_label
 _atom_site_symmetry_multiplicity
 _atom_site_fract_x
 _atom_site_fract_y
 _atom_site_fract_z
 _atom_site_occupancy
  Na  Na0  1  0.99196412  0.34974480  0.75751766  1
  Na  Na1  1  0.39610168  0.02044857  0.74880861  1
  Na  Na2  1  0.33229386  0.33910983  0.58603692  1
  Na  Na3  1  0.02797397  0.70630033  0.57175413  1
  Na  Na4  1  0.65105121  0.96666570  0.59129152  1
  Na  Na5  1  0.32778330  0.98534172  0.08388590  1
  Na  Na6  1  0.65221917  0.67041954  0.08711757  1
  Na  Na7  1  0.02044809  0.34322554  0.08504245  1
  Na  Na8  1  0.32954435  0.29324747  0.92556301  1
  Na  Na9  1  0.96569975  0.28994076  0.41137971  1
  Na  Na10  1  0.31962612  0.02833801  0.41395225  1
  Na  Na11  1  0.71218117  0.68156171  0.41486269  1
  Na  Na12  1  0.00024514  0.99390895  0.49063390  1
  Na  Na13  1  0.00025342  0.99280303  0.99816679  1
  Na  Na14  1  0.65996699  0.31306019  0.83444421  1
  Na  Na15  1  0.66932335  0.33348776  0.32730257  1
  Na  Na16  1  0.33528628  0.66574348  0.16497879  1
  Na  Na17  1  0.37914860  0.67380226  0.67093046  1
  Ca  Ca0  1  0.00006195  0.99857005  0.35019997  1
  Ca  Ca1  1  0.65428450  0.33333998  0.68719579  1
  Ca  Ca2  1  0.66504441  0.33072891  0.17996638  1
  Zr  Zr0  1  0.00203660  0.01385678  0.85505333  1
  Zr  Zr1  1  0.99657755  0.00027506  0.64963938  1
  Zr  Zr2  1  0.00253570  0.00065829  0.14565497  1
  Zr  Zr3  1  0.67328259  0.32120510  0.98296960  1
  Zr  Zr4  1  0.65384601  0.33712299  0.47944231  1
  Zr  Zr5  1  0.32290816  0.67013291  0.01605618  1
  Zr  Zr6  1  0.34179309  0.67539100  0.51573886  1
  Zr  Zr7  1  0.33241271  0.66761278  0.31789819  1
  Zr  Zr8  1  0.33842012  0.67257918  0.81523712  1
  Si  Si0  1  0.29263557  0.30003297  0.75138887  1
  Si  Si1  1  0.70376102  0.99440970  0.75054282  1
  Si  Si2  1  0.36606330  0.03112221  0.58576137  1
  Si  Si3  1  0.66706883  0.63593554  0.58228466  1
  Si  Si4  1  0.95889638  0.62394463  0.08364389  1
  Si  Si5  1  0.66171712  0.02953842  0.08461629  1
  Si  Si6  1  0.37327328  0.33826222  0.08074997  1
  Si  Si7  1  0.03277025  0.37714066  0.91410002  1
  Si  Si8  1  0.33595981  0.96900352  0.91505728  1
  Si  Si9  1  0.62612428  0.96724768  0.41687205  1
  Si  Si10  1  0.33513970  0.37628881  0.41841431  1
  Si  Si11  1  0.03432301  0.65667408  0.41872424  1
  S  S0  1  0.29907370  0.99207597  0.25119939  1
  S  S1  1  0.69346897  0.70175432  0.25100106  1
  S  S2  1  0.00788468  0.30592881  0.25147839  1
  S  S3  1  0.00884711  0.71428606  0.75115781  1
  S  S4  1  0.96368883  0.33251862  0.58397653  1
  S  S5  1  0.62644863  0.66422006  0.91677389  1
  O  O0  1  0.21689647  -0.00362450  0.30534169  1
  O  O1  1  0.77965337  0.78397460  0.30524185  1
  O  O2  1  0.00315922  0.21946245  0.30542398  1
  O  O3  1  0.18243949  0.18397310  0.80679274  1
  O  O4  1  0.99346640  0.79892008  0.80204384  1
  O  O5  1  0.81742199  0.99079322  0.80395846  1
  O  O6  1  0.79080252  0.97816054  0.68903336  1
  O  O7  1  0.17615464  0.20129836  0.69290175  1
  O  O8  1  0.01917856  0.80937172  0.69692593  1
  O  O9  1  0.79059120  0.80591080  0.19978954  1
  O  O10  1  0.01563636  0.20913631  0.19997318  1
  O  O11  1  0.19532207  0.98570529  0.19984616  1
  O  O12  1  0.89287897  0.35637331  0.63692745  1
  O  O13  1  0.48120526  0.09386735  0.64252077  1
  O  O14  1  0.62576788  0.51258132  0.63530138  1
  O  O15  1  0.90330992  0.50061380  0.13730625  1
  O  O16  1  0.59210160  0.08838929  0.13702217  1
  O  O17  1  0.49877754  0.39828447  0.13414937  1
  O  O18  1  0.44932986  0.29264281  0.02261969  1
  O  O19  1  0.83094775  0.54013746  0.02805021  1
  O  O20  1  0.71046773  0.16071132  0.02917191  1
  O  O21  1  0.46296122  0.15694734  0.52950284  1
  O  O22  1  0.69896251  0.55153273  0.52296423  1
  O  O23  1  0.86051822  0.31372678  0.53202349  1
  O  O24  1  0.55120075  0.68555555  0.96987431  1
  O  O25  1  0.15582887  0.46609945  0.96939698  1
  O  O26  1  0.32591725  0.86187003  0.97230415  1
  O  O27  1  0.53527030  0.85632955  0.47518433  1
  O  O28  1  0.31754035  0.46304020  0.47814656  1
  O  O29  1  0.14142719  0.67377814  0.47753382  1
  O  O30  1  0.13439295  0.63498906  0.36284831  1
  O  O31  1  0.50009071  0.86906078  0.36194865  1
  O  O32  1  0.36286551  0.50125802  0.36341981  1
  O  O33  1  0.13056687  0.48494487  0.85563893  1
  O  O34  1  0.35295144  0.87223821  0.85712265  1
  O  O35  1  0.52068787  0.65141512  0.86560160  1
  O  O36  1  0.01379069  0.81958860  0.41541652  1
  O  O37  1  0.80795864  0.98564115  0.41436101  1
  O  O38  1  0.17609403  0.19122304  0.41477623  1
  O  O39  1  0.01717178  0.18962634  0.91221776  1
  O  O40  1  0.16609378  0.98501415  0.91194402  1
  O  O41  1  0.79670267  0.80939304  0.91112222  1
  O  O42  1  0.97629452  0.17625089  0.58594787  1
  O  O43  1  0.18290554  0.02301959  0.58945843  1
  O  O44  1  0.83855685  0.82211482  0.58691344  1
  O  O45  1  0.97341192  0.81062363  0.09384443  1
  O  O46  1  0.83776650  0.02490382  0.09542267  1
  O  O47  1  0.18811973  0.16330543  0.09302020  1
  O  O48  1  0.70330649  0.16898787  0.75324863  1
  O  O49  1  0.46654706  0.30320050  0.75434032  1
  O  O50  1  0.87147876  0.54114615  0.74771100  1
  O  O51  1  0.67377749  0.53447780  0.24867555  1
  O  O52  1  0.86046433  0.32517699  0.24918824  1
  O  O53  1  0.46599756  0.13950697  0.24926498  1
  O  O54  1  0.63018484  0.50656798  0.91812477  1
  O  O55  1  0.85005346  0.36011458  0.91954857  1
  O  O56  1  0.49717973  0.15961260  0.91840426  1
  O  O57  1  0.63535080  0.14814753  0.42216419  1
  O  O58  1  0.50936569  0.36773133  0.42004030  1
  O  O59  1  0.85468867  0.48173006  0.42205707  1
  O  O60  1  0.32796817  0.48665320  0.06950526  1
  O  O61  1  0.15482013  0.67400788  0.07107700  1
  O  O62  1  0.52027743  0.83585271  0.06961239  1
  O  O63  1  0.32556071  0.83728091  0.57597010  1
  O  O64  1  0.50423357  0.66458999  0.57775237  1
  O  O65  1  0.13661763  0.47676035  0.57824307  1
  O  O66  1  0.30684374  0.83359477  0.24910170  1
  O  O67  1  0.52697958  0.69316854  0.24928620  1
  O  O68  1  0.16566762  0.47307575  0.24985983  1
  O  O69  1  0.29560511  0.48023004  0.75324968  1
  O  O70  1  0.17063158  0.71270869  0.75198651  1
  O  O71  1  0.51201793  0.83316243  0.75349283  1
loop_
_geom_bond_atom_site_label_1
_geom_bond_atom_site_label_2
_geom_bond_distance
_geom_bond_site_symmetry_2
Na0 O48 2.345497 1_555
Na0 O69 2.450519 1_655
Na0 O50 2.537371 1_555
Na0 O33 2.594358 1_655
Na1 O49 2.364429 1_555
Na1 O71 2.460252 1_545
Na1 O48 2.471307 1_555
Na1 O70 2.558276 1_545
Na1 O13 2.567294 1_555
Na1 O34 2.791138 1_545
Na2 O43 2.538579 1_555
Na2 O64 2.620414 1_555
Na2 O14 2.628242 1_555
Na2 O65 2.698356 1_555
Na2 O28 2.781840 1_555
Na2 O7 2.827839 1_555
Na2 O21 2.837195 1_555
Na2 O42 2.864563 1_455
Na3 O63 2.399326 1_555
Na3 O29 2.498745 1_555
Na3 O44 2.499881 1_455
Na3 O43 2.571641 1_565
Na3 O65 2.777514 1_555
Na3 O22 2.874713 1_455
Na4 O64 2.442139 1_555
Na4 O6 2.581026 1_555
Na4 O42 2.652156 1_565
Na4 O63 2.657865 1_555
Na4 O13 2.667794 1_565
Na4 O44 2.676911 1_555
Na4 O27 2.877081 1_555
Na5 O16 2.467895 1_565
Na5 O61 2.518781 1_555
Na5 O47 2.565279 1_565
Na5 O62 2.773437 1_555
Na5 O26 2.811858 1_554
Na5 O45 2.857508 1_455
Na5 O18 2.864458 1_565
Na5 O11 2.947044 1_555
Na6 O62 2.429133 1_555
Na6 O17 2.448711 1_555
Na6 O45 2.592920 1_555
Na6 O60 2.643976 1_555
Na6 O19 2.838060 1_555
Na6 O46 2.850309 1_565
Na6 O9 2.892309 1_555
Na6 O24 2.894764 1_554
Na7 O60 2.499615 1_555
Na7 O15 2.516663 1_455
Na7 O46 2.575373 1_455
Na7 O61 2.690097 1_555
Na7 O47 2.799554 1_555
Na7 O20 2.814852 1_455
Na7 O10 2.928222 1_555
Na7 O25 2.933229 1_554
Na8 O56 2.430713 1_555
Na8 O54 2.490986 1_555
Na8 O40 2.492627 1_545
Na8 O18 2.505693 1_556
Na8 O39 2.576324 1_555
Na8 O25 2.959073 1_555
Na8 O3 3.003159 1_555
Na9 O37 2.443011 1_545
Na9 O59 2.471693 1_555
Na9 O38 2.539043 1_655
Na9 O2 2.597976 1_655
Na9 O57 2.675783 1_555
Na9 O30 2.991897 1_655
Na9 O23 2.995564 1_555
Na10 O38 2.463005 1_555
Na10 O36 2.511119 1_545
Na10 O57 2.569100 1_555
Na10 O0 2.647804 1_555
Na10 O58 2.732017 1_555
Na10 O21 2.951112 1_555
Na10 O31 2.979909 1_545
Na11 O36 2.426912 1_655
Na11 O37 2.494514 1_555
Na11 O58 2.556918 1_555
Na11 O1 2.670666 1_555
Na11 O22 2.754358 1_555
Na11 O59 2.768059 1_555
Na12 O36 2.412437 1_555
Na12 O38 2.473028 1_565
Na12 O37 2.483554 1_455
Na12 O44 2.714724 1_455
Na12 O43 2.776356 1_565
Na12 O42 2.844545 1_465
Na13 O40 2.538696 1_555
Na13 O39 2.653920 1_565
Na13 O41 2.695396 1_455
Na13 O45 2.722779 1_456
Na13 O47 2.749234 1_566
Na13 O46 2.801030 1_466
Na14 O56 2.436582 1_555
Na14 O48 2.444172 1_555
Na14 O55 2.530023 1_555
Na14 O49 2.549674 1_555
Na14 O54 2.736747 1_555
Na14 O50 2.866212 1_555
Na15 O52 2.556919 1_555
Na15 O53 2.573947 1_555
Na15 O51 2.593703 1_555
Na15 O59 2.693516 1_555
Na15 O57 2.710435 1_555
Na15 O58 2.711538 1_555
Na16 O67 2.564640 1_555
Na16 O66 2.577978 1_555
Na16 O68 2.593288 1_555
Na16 O60 2.734130 1_555
Na16 O62 2.757383 1_555
Na16 O61 2.767594 1_555
Na17 O71 2.344333 1_555
Na17 O69 2.464525 1_555
Na17 O64 2.465904 1_555
Na17 O70 2.839970 1_555
Na17 O63 2.854251 1_555
Na17 O65 2.974536 1_555
Ca0 O1 2.265349 1_455
Ca0 O38 2.267859 1_565
Ca0 O0 2.271762 1_565
Ca0 O37 2.274283 1_455
Ca0 O2 2.285386 1_565
Ca0 O36 2.296637 1_555
Ca1 O14 2.174235 1_555
Ca1 O13 2.232414 1_555
Ca1 O49 2.243053 1_555
Ca1 O48 2.361043 1_555
Ca1 O12 2.412854 1_555
Ca1 O50 2.412951 1_555
Ca2 O15 2.205794 1_555
Ca2 O17 2.207477 1_555
Ca2 O16 2.223323 1_555
Ca2 O53 2.420759 1_555
Ca2 O51 2.430730 1_555
Ca2 O52 2.440010 1_555
O0 S0 1.474994 1_545
O1 S1 1.474503 1_555
O2 S2 1.473801 1_555
O3 Si0 1.658460 1_555
O3 Zr0 1.975459 1_555
O4 S3 1.456058 1_655
O4 Zr0 2.300085 1_665
O5 Si1 1.636131 1_555
O5 Zr0 2.003170 1_665
O6 Si1 1.676791 1_555
O6 Zr1 2.030821 1_565
O7 Si0 1.683363 1_555
O7 Zr1 2.031106 1_455
O8 S3 1.510539 1_555
O8 Zr1 2.181394 1_465
O9 S1 1.510554 1_555
O9 Zr2 2.270101 1_665
O10 S2 1.509782 1_555
O10 Zr2 2.250058 1_555
O11 S0 1.511431 1_555
O11 Zr2 2.246266 1_565
O12 S4 1.455387 1_555
O13 Si2 1.604513 1_555
O14 Si3 1.589986 1_555
O15 Si4 1.591120 1_555
O16 Si5 1.589039 1_555
O17 Si6 1.592905 1_555
O18 Si6 1.664764 1_555
O18 Zr3 2.162715 1_554
O19 Si4 1.653662 1_555
O19 Zr3 2.086484 1_554
O20 Si5 1.669317 1_555
O20 Zr3 2.000314 1_554
O21 Si2 1.679331 1_555
O21 Zr4 2.077781 1_555
O22 Si3 1.672650 1_555
O22 Zr4 2.069331 1_555
O23 S4 1.490833 1_555
O23 Zr4 2.372548 1_555
O24 S5 1.471604 1_555
O24 Zr5 2.311240 1_556
O25 Si7 1.633293 1_555
O25 Zr5 2.047217 1_556
O26 Si8 1.632138 1_555
O26 Zr5 2.036561 1_556
O27 Si9 1.651011 1_555
O27 Zr6 1.977712 1_555
O28 Si10 1.642343 1_555
O28 Zr6 2.053522 1_555
O29 Si11 1.644315 1_555
O29 Zr6 2.053145 1_555
O30 Si11 1.658565 1_555
O30 Zr7 1.997583 1_555
O31 Si9 1.653460 1_555
O31 Zr7 2.004988 1_555
O32 Si10 1.654458 1_555
O32 Zr7 2.003908 1_555
O33 Si7 1.657949 1_555
O33 Zr8 2.066440 1_555
O34 Si8 1.658192 1_555
O34 Zr8 2.027376 1_555
O35 S5 1.503675 1_555
O35 Zr8 2.143634 1_555
O36 Si11 1.615656 1_555
O37 Si9 1.610367 1_555
O38 Si10 1.609979 1_555
O39 Si7 1.670155 1_555
O39 Zr0 2.041292 1_555
O40 Si8 1.657743 1_555
O40 Zr0 2.129548 1_565
O41 S5 1.482345 1_555
O41 Zr0 2.302941 1_665
O42 S4 1.510910 1_555
O42 Zr1 2.278640 1_555
O43 Si2 1.665970 1_555
O43 Zr1 2.144922 1_455
O44 Si3 1.664718 1_555
O44 Zr1 2.129637 1_565
O45 Si4 1.681872 1_555
O45 Zr2 2.027353 1_665
O46 Si5 1.675208 1_555
O46 Zr2 2.021987 1_655
O47 Si6 1.696064 1_555
O47 Zr2 2.032632 1_555
O48 Si1 1.620709 1_545
O49 Si0 1.601415 1_555
O50 S3 1.468818 1_655
O51 S1 1.467819 1_555
O52 S2 1.466937 1_655
O53 S0 1.466520 1_545
O54 S5 1.479006 1_555
O54 Zr3 2.463811 1_555
O55 Si7 1.627642 1_655
O55 Zr3 2.091906 1_555
O56 Si8 1.648701 1_545
O56 Zr3 2.161925 1_555
O57 Si9 1.639041 1_545
O57 Zr4 2.126903 1_555
O58 Si10 1.658877 1_555
O58 Zr4 2.037817 1_555
O59 Si11 1.646000 1_655
O59 Zr4 2.130586 1_555
O60 Si6 1.648595 1_555
O60 Zr5 2.125805 1_555
O61 Si4 1.662064 1_455
O61 Zr5 2.025331 1_555
O62 Si5 1.643572 1_565
O62 Zr5 2.101645 1_555
O63 Si2 1.654995 1_565
O63 Zr6 2.101068 1_555
O64 Si3 1.663947 1_555
O64 Zr6 2.120200 1_555
O65 S4 1.494733 1_455
O65 Zr6 2.368645 1_555
O66 S0 1.506476 1_555
O66 Zr7 2.310742 1_555
O67 S1 1.507786 1_555
O67 Zr7 2.323517 1_555
O68 S2 1.508332 1_555
O68 Zr7 2.302585 1_555
O69 Si0 1.656484 1_555
O69 Zr8 2.157065 1_555
O70 S3 1.509308 1_555
O70 Zr8 2.300313 1_555
O71 Si1 1.656400 1_555
O71 Zr8 2.112016 1_555
