# generated using pymatgen
data_Na7La2Ga2SiP5O24
_symmetry_space_group_name_H-M   'P 1'
_cell_length_a   9.25269628
_cell_length_b   9.23345833
_cell_length_c   22.71918710
_cell_angle_alpha   90.02626490
_cell_angle_beta   89.67178706
_cell_angle_gamma   119.74607327
_symmetry_Int_Tables_number   1
_chemical_formula_structural   Na7La2Ga2SiP5O24
_chemical_formula_sum   'Na21 La6 Ga6 Si3 P15 O72'
_cell_volume   1685.20571969
_cell_formula_units_Z   3
loop_
 _symmetry_equiv_pos_site_id
 _symmetry_equiv_pos_as_xyz
  1  'x, y, z'
loop_
 _atom_site_type_symbol
 _atom_site_label
 _atom_site_symmetry_multiplicity
 _atom_site_fract_x
 _atom_site_fract_y
 _atom_site_fract_z
 _atom_site_occupancy
  Na  Na0  1  0.37190477  0.37632480  0.25406631  1
  Na  Na1  1  0.00657242  0.62992311  0.25168410  1
  Na  Na2  1  0.63570112  0.65417687  0.75245358  1
  Na  Na3  1  0.00319355  0.36007603  0.75901394  1
  Na  Na4  1  0.35434824  0.98274467  0.75272108  1
  Na  Na5  1  0.30900350  0.33685652  0.57471558  1
  Na  Na6  1  0.03677690  0.68698903  0.57583072  1
  Na  Na7  1  0.64718080  0.96513921  0.58142970  1
  Na  Na8  1  0.30894310  0.97535849  0.08415441  1
  Na  Na9  1  0.67564927  0.69272591  0.08327527  1
  Na  Na10  1  0.02644269  0.34142840  0.08614424  1
  Na  Na11  1  0.96051237  0.66726689  0.92026356  1
  Na  Na12  1  0.70530602  0.03770391  0.91546564  1
  Na  Na13  1  0.96157497  0.29134219  0.41061875  1
  Na  Na14  1  0.32840198  0.03593331  0.41473007  1
  Na  Na15  1  0.99079691  0.98433520  0.49615121  1
  Na  Na16  1  0.01094956  0.00914449  0.00982643  1
  Na  Na17  1  0.65278056  0.32931615  0.83101694  1
  Na  Na18  1  0.66637981  0.33195747  0.33053655  1
  Na  Na19  1  0.34282300  0.68060565  0.16779917  1
  Na  Na20  1  0.34036926  0.67641942  0.66636133  1
  La  La0  1  0.01049765  0.01156690  0.85593934  1
  La  La1  1  0.00108378  0.00139494  0.65700419  1
  La  La2  1  0.66235102  0.32456468  0.67387310  1
  La  La3  1  0.66949955  0.32429688  0.18416784  1
  La  La4  1  0.65905862  0.33683986  0.98619653  1
  La  La5  1  0.66437908  0.34341665  0.47588291  1
  Ga  Ga0  1  0.98811274  0.99223500  0.34981727  1
  Ga  Ga1  1  0.99392647  0.99198226  0.15575448  1
  Ga  Ga2  1  0.32990021  0.66363377  0.01839987  1
  Ga  Ga3  1  0.34097495  0.67341704  0.50906208  1
  Ga  Ga4  1  0.34725492  0.67570637  0.31520762  1
  Ga  Ga5  1  0.33717843  0.66729783  0.81941399  1
  Si  Si0  1  0.67493776  0.99258372  0.75468270  1
  Si  Si1  1  0.34824516  0.00597346  0.57690967  1
  Si  Si2  1  0.98978759  0.65759794  0.08481130  1
  P  P0  1  0.27537985  0.99030260  0.25555728  1
  P  P1  1  0.70616755  0.72024447  0.25302835  1
  P  P2  1  0.01105884  0.28893053  0.25444126  1
  P  P3  1  0.31801729  0.32801853  0.74904005  1
  P  P4  1  0.00761262  0.68186647  0.75499820  1
  P  P5  1  0.99313005  0.34571562  0.57668716  1
  P  P6  1  0.65588727  0.64879031  0.58283083  1
  P  P7  1  0.66820221  0.01021642  0.07989516  1
  P  P8  1  0.34153695  0.33085331  0.08932161  1
  P  P9  1  0.60872864  0.66283120  0.91843424  1
  P  P10  1  0.05335547  0.39203869  0.91946986  1
  P  P11  1  0.33755245  0.94251678  0.91912758  1
  P  P12  1  0.63016347  0.94424422  0.41170032  1
  P  P13  1  0.31793450  0.37513825  0.40991606  1
  P  P14  1  0.06131035  0.67989197  0.40895236  1
  O  O0  1  0.18785983  0.01051152  0.31125100  1
  O  O1  1  0.82057704  0.80979730  0.30544832  1
  O  O2  1  0.99532202  0.18811917  0.31111862  1
  O  O3  1  0.22327744  0.19203358  0.79590826  1
  O  O4  1  0.98057500  0.77093038  0.80790185  1
  O  O5  1  0.80317956  0.02780296  0.80936008  1
  O  O6  1  0.75349273  0.96481144  0.69339888  1
  O  O7  1  0.23054865  0.26402150  0.68899967  1
  O  O8  1  0.03575609  0.78451574  0.69786665  1
  O  O9  1  0.78534493  0.81360160  0.19414255  1
  O  O10  1  0.01623242  0.19393589  0.19843684  1
  O  O11  1  0.17080785  0.97026175  0.19929973  1
  O  O12  1  0.92345421  0.37556290  0.63497346  1
  O  O13  1  0.45258863  0.07774455  0.63865281  1
  O  O14  1  0.63220039  0.56217078  0.64323410  1
  O  O15  1  0.90770434  0.52522608  0.13997096  1
  O  O16  1  0.61546660  0.09232697  0.12884062  1
  O  O17  1  0.45499519  0.37246925  0.14400167  1
  O  O18  1  0.41901691  0.28065696  0.03808445  1
  O  O19  1  0.86415709  0.58222699  0.02794913  1
  O  O20  1  0.70815659  0.11754440  0.02326667  1
  O  O21  1  0.44115976  0.14016820  0.52345592  1
  O  O22  1  0.69901216  0.55355818  0.53659211  1
  O  O23  1  0.87259724  0.31695011  0.52562578  1
  O  O24  1  0.51116864  0.65365332  0.97506232  1
  O  O25  1  0.14143241  0.48538943  0.97624989  1
  O  O26  1  0.34712297  0.85447171  0.97553456  1
  O  O27  1  0.55057396  0.85099187  0.47040889  1
  O  O28  1  0.31311917  0.46806908  0.46670938  1
  O  O29  1  0.16401063  0.69863640  0.46564352  1
  O  O30  1  0.15092111  0.66271273  0.35342366  1
  O  O31  1  0.51599973  0.85485698  0.35926600  1
  O  O32  1  0.33231340  0.47750124  0.35392716  1
  O  O33  1  0.14777114  0.48063030  0.86232013  1
  O  O34  1  0.33278361  0.84954658  0.86186456  1
  O  O35  1  0.52049428  0.66508366  0.86123987  1
  O  O36  1  0.03989040  0.83836312  0.40809964  1
  O  O37  1  0.81179845  0.97068439  0.40817190  1
  O  O38  1  0.15511025  0.19829750  0.41175216  1
  O  O39  1  0.02260912  0.21134623  0.92463814  1
  O  O40  1  0.17530716  0.95281110  0.92469473  1
  O  O41  1  0.78277504  0.82559621  0.92285444  1
  O  O42  1  0.01311424  0.18981841  0.57986857  1
  O  O43  1  0.15840936  0.97562544  0.57998595  1
  O  O44  1  0.80191156  0.82954332  0.58155626  1
  O  O45  1  0.00466089  0.84162604  0.09660881  1
  O  O46  1  0.82962237  0.00537339  0.09447625  1
  O  O47  1  0.16448897  0.17806384  0.09807905  1
  O  O48  1  0.64884153  0.15539179  0.75236181  1
  O  O49  1  0.49857010  0.36216653  0.74955644  1
  O  O50  1  0.85265620  0.50722582  0.75105894  1
  O  O51  1  0.68845164  0.54162159  0.25188621  1
  O  O52  1  0.86058013  0.32158320  0.25491340  1
  O  O53  1  0.44735389  0.15380723  0.25342248  1
  O  O54  1  0.64203088  0.51387024  0.91390941  1
  O  O55  1  0.87842300  0.37963303  0.91537263  1
  O  O56  1  0.49614918  0.11745449  0.91479593  1
  O  O57  1  0.64959296  0.12339528  0.41187090  1
  O  O58  1  0.46747979  0.34194761  0.40776474  1
  O  O59  1  0.89004545  0.51626416  0.40938361  1
  O  O60  1  0.32810997  0.48921015  0.07675574  1
  O  O61  1  0.17783185  0.68017019  0.07609514  1
  O  O62  1  0.51939610  0.82952717  0.07424205  1
  O  O63  1  0.34653166  0.82834422  0.56775938  1
  O  O64  1  0.48901107  0.64265056  0.56984839  1
  O  O65  1  0.16398847  0.50433562  0.56752829  1
  O  O66  1  0.29619867  0.83130049  0.25669199  1
  O  O67  1  0.52369598  0.69272604  0.25684643  1
  O  O68  1  0.17384206  0.46615043  0.25283125  1
  O  O69  1  0.31553598  0.49126475  0.76074226  1
  O  O70  1  0.16569161  0.66633909  0.76118907  1
  O  O71  1  0.49359807  0.82007144  0.76084167  1
loop_
_geom_bond_atom_site_label_1
_geom_bond_atom_site_label_2
_geom_bond_distance
_geom_bond_site_symmetry_2
Na0 O68 2.357131 1_555
Na0 O53 2.476317 1_555
Na0 O67 2.537876 1_555
Na0 O51 2.544196 1_555
Na0 O32 2.546042 1_555
Na0 O17 2.617305 1_555
Na1 O66 2.389668 1_555
Na1 O52 2.473566 1_455
Na1 O30 2.617585 1_555
Na1 O51 2.635758 1_455
Na1 O68 2.646822 1_555
Na1 O15 2.712894 1_455
Na2 O49 2.343095 1_555
Na2 O71 2.471211 1_555
Na2 O69 2.577970 1_555
Na2 O14 2.617571 1_555
Na2 O35 2.707591 1_555
Na2 O6 2.845953 1_555
Na2 O50 2.928126 1_555
Na3 O50 2.387447 1_455
Na3 O70 2.457946 1_555
Na3 O69 2.519609 1_555
Na3 O33 2.663288 1_555
Na3 O48 2.863763 1_455
Na3 O5 2.913900 1_455
Na3 O12 2.938600 1_455
Na4 O48 2.378136 1_565
Na4 O71 2.423551 1_555
Na4 O70 2.560361 1_555
Na4 O34 2.730330 1_555
Na4 O13 2.737819 1_565
Na4 O8 2.877315 1_555
Na4 O3 2.911721 1_565
Na5 O42 2.379165 1_555
Na5 O64 2.467838 1_555
Na5 O65 2.506025 1_555
Na5 O7 2.686320 1_555
Na5 O28 2.728803 1_555
Na5 O21 2.887071 1_555
Na5 O43 2.909895 1_545
Na6 O43 2.324429 1_555
Na6 O65 2.496480 1_555
Na6 O63 2.496732 1_555
Na6 O29 2.739557 1_555
Na6 O12 2.858161 1_455
Na6 O22 2.879207 1_455
Na6 O8 2.916150 1_555
Na7 O44 2.322933 1_555
Na7 O63 2.439921 1_555
Na7 O64 2.599427 1_555
Na7 O27 2.713005 1_555
Na7 O6 2.733206 1_555
Na7 O13 2.800469 1_565
Na7 O42 2.966087 1_665
Na8 O61 2.378053 1_555
Na8 O45 2.464317 1_555
Na8 O18 2.687167 1_565
Na8 O16 2.689499 1_565
Na8 O26 2.799874 1_554
Na8 O47 2.804773 1_565
Na8 O62 2.872672 1_555
Na8 O11 2.895070 1_555
Na9 O62 2.354508 1_555
Na9 O46 2.520017 1_565
Na9 O45 2.665778 1_655
Na9 O19 2.720812 1_555
Na9 O9 2.742789 1_555
Na9 O60 2.811161 1_555
Na9 O24 2.826268 1_554
Na9 O17 2.965912 1_555
Na10 O47 2.428289 1_555
Na10 O60 2.431549 1_555
Na10 O46 2.714735 1_455
Na10 O15 2.723142 1_455
Na10 O61 2.728837 1_555
Na10 O25 2.775195 1_554
Na10 O10 2.871404 1_555
Na10 O20 2.998576 1_455
Na11 O55 2.375243 1_555
Na11 O40 2.390358 1_655
Na11 O54 2.563910 1_555
Na11 O19 2.584379 1_556
Na11 O41 2.688826 1_555
Na11 O4 2.699583 1_555
Na12 O56 2.387928 1_555
Na12 O41 2.402578 1_545
Na12 O20 2.553879 1_556
Na12 O39 2.563066 1_655
Na12 O5 2.587768 1_555
Na12 O55 2.741397 1_555
Na13 O38 2.339364 1_655
Na13 O59 2.473089 1_555
Na13 O57 2.509087 1_555
Na13 O2 2.530081 1_555
Na13 O37 2.572735 1_545
Na13 O23 2.780060 1_555
Na14 O36 2.376721 1_545
Na14 O58 2.460653 1_555
Na14 O0 2.646651 1_555
Na14 O57 2.665473 1_555
Na14 O21 2.673470 1_555
Na14 O38 2.685096 1_555
Na14 O29 2.938289 1_545
Na15 O43 2.489402 1_655
Na15 O44 2.519347 1_555
Na15 O37 2.566080 1_555
Na15 O36 2.572834 1_655
Na15 O42 2.621535 1_665
Na15 O38 2.623120 1_665
Na16 O45 2.489051 1_545
Na16 O47 2.510394 1_555
Na16 O46 2.533739 1_455
Na16 O39 2.654103 1_554
Na16 O40 2.659773 1_544
Na16 O41 2.779936 1_444
Na17 O48 2.390325 1_555
Na17 O49 2.452210 1_555
Na17 O50 2.523550 1_555
Na17 O54 2.573614 1_555
Na17 O56 2.590090 1_555
Na17 O55 2.707434 1_555
Na18 O52 2.514971 1_555
Na18 O51 2.566922 1_555
Na18 O58 2.570066 1_555
Na18 O53 2.571441 1_555
Na18 O57 2.617317 1_555
Na18 O59 2.633009 1_555
Na19 O61 2.588751 1_555
Na19 O67 2.599793 1_555
Na19 O66 2.604604 1_555
Na19 O62 2.609898 1_555
Na19 O68 2.644694 1_555
Na19 O60 2.679782 1_555
Na20 O71 2.557957 1_555
Na20 O63 2.628958 1_555
Na20 O70 2.659584 1_555
Na20 O69 2.679802 1_555
Na20 O64 2.680867 1_555
Na20 O65 2.774072 1_555
La0 O5 2.265129 1_455
La0 O3 2.286651 1_555
La0 O4 2.365464 1_445
La0 O39 2.376043 1_555
La0 O40 2.430805 1_545
La0 O41 2.464716 1_445
La1 O6 2.292730 1_445
La1 O43 2.356173 1_545
La1 O8 2.370144 1_545
La1 O7 2.413233 1_555
La1 O42 2.432857 1_555
La1 O44 2.446263 1_445
La2 O13 2.286478 1_555
La2 O48 2.332740 1_555
La2 O12 2.384625 1_555
La2 O49 2.421835 1_555
La2 O14 2.446764 1_555
La2 O50 2.471018 1_555
La3 O15 2.286210 1_555
La3 O16 2.315117 1_555
La3 O52 2.405493 1_555
La3 O17 2.422175 1_555
La3 O53 2.435774 1_555
La3 O51 2.464855 1_555
La4 O19 2.320941 1_556
La4 O18 2.327880 1_556
La4 O54 2.378002 1_555
La4 O20 2.436077 1_556
La4 O56 2.449893 1_555
La4 O55 2.456068 1_555
La5 O21 2.255200 1_555
La5 O22 2.270586 1_555
La5 O23 2.353930 1_555
La5 O58 2.392094 1_555
La5 O59 2.418425 1_555
La5 O57 2.446365 1_555
Ga0 O1 1.918822 1_555
Ga0 O0 1.970817 1_665
Ga0 O2 1.982388 1_565
Ga0 O37 2.027808 1_555
Ga0 O36 2.164682 1_655
Ga0 O38 2.256717 1_665
Ga1 O45 1.968882 1_655
Ga1 O9 2.006457 1_555
Ga1 O11 2.010463 1_655
Ga1 O10 2.019624 1_665
Ga1 O47 2.108878 1_665
Ga1 O46 2.115561 1_565
Ga2 O26 1.949342 1_554
Ga2 O25 1.958674 1_554
Ga2 O61 1.978162 1_555
Ga2 O24 1.981253 1_554
Ga2 O60 2.080160 1_555
Ga2 O62 2.094932 1_555
Ga3 O63 1.937378 1_555
Ga3 O27 2.011738 1_555
Ga3 O28 2.025738 1_555
Ga3 O29 2.026183 1_555
Ga3 O64 2.066938 1_555
Ga3 O65 2.079302 1_555
Ga4 O31 1.905136 1_555
Ga4 O30 1.958080 1_555
Ga4 O32 1.972636 1_555
Ga4 O67 2.041764 1_555
Ga4 O66 2.176465 1_555
Ga4 O68 2.295540 1_555
Ga5 O71 1.951693 1_555
Ga5 O34 1.956920 1_555
Ga5 O35 1.957873 1_555
Ga5 O33 1.994211 1_555
Ga5 O69 2.033940 1_555
Ga5 O70 2.068261 1_555
O0 P0 1.558718 1_545
O1 P1 1.538711 1_555
O2 P2 1.552480 1_655
O3 P3 1.541793 1_555
O4 P4 1.543796 1_655
O5 Si0 1.640264 1_545
O6 Si0 1.644885 1_555
O7 P3 1.549906 1_555
O8 P4 1.550241 1_555
O9 P1 1.559727 1_555
O10 P2 1.559015 1_555
O11 P0 1.562155 1_555
O12 P5 1.552842 1_555
O13 Si1 1.648869 1_555
O14 P6 1.547441 1_555
O15 Si2 1.646370 1_555
O16 P7 1.552277 1_555
O17 P8 1.551519 1_555
O18 P8 1.550315 1_555
O19 Si2 1.648661 1_555
O20 P7 1.551180 1_555
O21 Si1 1.637562 1_555
O22 P6 1.542242 1_555
O23 P5 1.542954 1_555
O24 P9 1.545353 1_555
O25 P10 1.544399 1_555
O26 P11 1.544258 1_555
O27 P12 1.556709 1_555
O28 P13 1.561860 1_555
O29 P14 1.562831 1_555
O30 P14 1.556448 1_555
O31 P12 1.537698 1_555
O32 P13 1.550309 1_555
O33 P10 1.548226 1_555
O34 P11 1.547071 1_555
O35 P9 1.544164 1_555
O36 P14 1.571165 1_555
O37 P12 1.575380 1_555
O38 P13 1.579852 1_555
O39 P10 1.551495 1_555
O40 P11 1.555012 1_555
O41 P9 1.569141 1_555
O42 P5 1.541383 1_455
O43 Si1 1.636725 1_565
O44 P6 1.540709 1_555
O45 Si2 1.657128 1_455
O46 P7 1.553851 1_555
O47 P8 1.554565 1_555
O48 Si0 1.637483 1_545
O49 P3 1.538825 1_555
O50 P4 1.539830 1_655
O51 P1 1.574639 1_555
O52 P2 1.563967 1_655
O53 P0 1.558504 1_545
O54 P9 1.554791 1_555
O55 P10 1.568240 1_655
O56 P11 1.555181 1_545
O57 P12 1.572757 1_545
O58 P13 1.559145 1_555
O59 P14 1.554982 1_655
O60 P8 1.554336 1_555
O61 Si2 1.657168 1_455
O62 P7 1.555024 1_565
O63 Si1 1.645425 1_565
O64 P6 1.546821 1_555
O65 P5 1.544841 1_455
O66 P0 1.572873 1_555
O67 P1 1.579643 1_555
O68 P2 1.581549 1_555
O69 P3 1.541801 1_555
O70 P4 1.546018 1_555
O71 Si0 1.648494 1_555
