# generated using pymatgen
data_SmZn
_symmetry_space_group_name_H-M   'P 1'
_cell_length_a   3.62380683
_cell_length_b   3.62380683
_cell_length_c   3.62380683
_cell_angle_alpha   90.00000000
_cell_angle_beta   90.00000000
_cell_angle_gamma   90.00000000
_symmetry_Int_Tables_number   1
_chemical_formula_structural   SmZn
_chemical_formula_sum   'Sm1 Zn1'
_cell_volume   47.58774411
_cell_formula_units_Z   1
loop_
 _symmetry_equiv_pos_site_id
 _symmetry_equiv_pos_as_xyz
  1  'x, y, z'
loop_
 _atom_site_type_symbol
 _atom_site_label
 _atom_site_symmetry_multiplicity
 _atom_site_fract_x
 _atom_site_fract_y
 _atom_site_fract_z
 _atom_site_occupancy
  Sm  Sm0  1  0.00000000  0.00000000  0.00000000  1
  Zn  Zn0  1  0.50000000  0.50000000  0.50000000  1
loop_
_geom_bond_atom_site_label_1
_geom_bond_atom_site_label_2
_geom_bond_distance
_geom_bond_site_symmetry_2
Sm0 Zn0 3.138309 1_454
Sm0 Zn0 3.138309 1_554
Sm0 Zn0 3.138309 1_445
Sm0 Zn0 3.138309 1_455
Sm0 Zn0 3.138309 1_555
Sm0 Zn0 3.138309 1_444
Sm0 Zn0 3.138309 1_544
Sm0 Zn0 3.138309 1_545
