# generated using pymatgen
data_MgMo2(PO5)2
_symmetry_space_group_name_H-M   'P 1'
_cell_length_a   5.32955600
_cell_length_b   6.50475500
_cell_length_c   6.50475500
_cell_angle_alpha   90.00000000
_cell_angle_beta   90.00000000
_cell_angle_gamma   90.00000000
_symmetry_Int_Tables_number   1
_chemical_formula_structural   MgMo2(PO5)2
_chemical_formula_sum   'Mg1 Mo2 P2 O10'
_cell_volume   225.50330801
_cell_formula_units_Z   1
loop_
 _symmetry_equiv_pos_site_id
 _symmetry_equiv_pos_as_xyz
  1  'x, y, z'
loop_
 _atom_site_type_symbol
 _atom_site_label
 _atom_site_symmetry_multiplicity
 _atom_site_fract_x
 _atom_site_fract_y
 _atom_site_fract_z
 _atom_site_occupancy
  Mg  Mg0  1  0.00000000  0.75000000  0.25000000  1
  Mo  Mo0  1  0.72365300  0.75000000  0.75000000  1
  Mo  Mo1  1  0.27634700  0.25000000  0.25000000  1
  P  P0  1  0.50000000  0.75000000  0.25000000  1
  P  P1  1  0.50000000  0.25000000  0.75000000  1
  O  O0  1  0.68985600  0.79740400  0.42430000  1
  O  O1  1  0.65867000  0.05663700  0.79854200  1
  O  O2  1  0.65867000  0.44336300  0.70145800  1
  O  O3  1  0.68985600  0.70259600  0.07570000  1
  O  O4  1  0.93998300  0.25000000  0.25000000  1
  O  O5  1  0.06001700  0.75000000  0.75000000  1
  O  O6  1  0.34133000  0.29854200  0.94336300  1
  O  O7  1  0.31014400  0.57570000  0.29740400  1
  O  O8  1  0.31014400  0.92430000  0.20259600  1
  O  O9  1  0.34133000  0.20145800  0.55663700  1
loop_
_geom_bond_atom_site_label_1
_geom_bond_atom_site_label_2
_geom_bond_distance
_geom_bond_site_symmetry_2
Mg0 O3 2.027982 1_455
Mg0 O0 2.027982 1_455
Mg0 O7 2.027982 1_555
Mg0 O8 2.027982 1_555
Mo0 O5 1.792671 1_655
Mo0 O2 2.048919 1_555
Mo0 O1 2.048919 1_565
Mo0 O0 2.148484 1_555
Mo0 O3 2.148484 1_556
Mo1 O4 1.792671 1_455
Mo1 O6 2.048919 1_554
Mo1 O9 2.048919 1_555
Mo1 O8 2.148484 1_545
Mo1 O7 2.148484 1_555
O0 P0 1.550604 1_555
O1 P1 1.548166 1_555
O2 P1 1.548166 1_555
O3 P0 1.550604 1_555
O6 P1 1.548166 1_555
O7 P0 1.550604 1_555
O8 P0 1.550604 1_555
O9 P1 1.548166 1_555
