# generated using pymatgen
data_Li2CuPO4
_symmetry_space_group_name_H-M   'P 1'
_cell_length_a   6.20359400
_cell_length_b   5.13219500
_cell_length_c   10.85905510
_cell_angle_alpha   89.36063471
_cell_angle_beta   90.00000000
_cell_angle_gamma   90.00000000
_symmetry_Int_Tables_number   1
_chemical_formula_structural   Li2CuPO4
_chemical_formula_sum   'Li8 Cu4 P4 O16'
_cell_volume   345.70965814
_cell_formula_units_Z   4
loop_
 _symmetry_equiv_pos_site_id
 _symmetry_equiv_pos_as_xyz
  1  'x, y, z'
loop_
 _atom_site_type_symbol
 _atom_site_label
 _atom_site_symmetry_multiplicity
 _atom_site_fract_x
 _atom_site_fract_y
 _atom_site_fract_z
 _atom_site_occupancy
  Li  Li0  1  0.25287300  0.20366100  0.33856100  1
  Li  Li1  1  0.74712700  0.20366100  0.33856100  1
  Li  Li2  1  0.00000000  0.80441000  0.42737100  1
  Li  Li3  1  0.75130500  0.80233700  0.65813800  1
  Li  Li4  1  0.00000000  0.69556900  0.92333600  1
  Li  Li5  1  0.74393700  0.30320700  0.83763300  1
  Li  Li6  1  0.25606300  0.30320700  0.83763300  1
  Li  Li7  1  0.24869500  0.80233700  0.65813800  1
  Cu  Cu0  1  0.50000000  0.22520100  0.11945500  1
  Cu  Cu1  1  0.69658500  0.74917700  0.16829200  1
  Cu  Cu2  1  0.30341500  0.74917700  0.16829200  1
  Cu  Cu3  1  0.50000000  0.24822200  0.60703000  1
  P  P0  1  0.50000000  0.79636800  0.89368000  1
  P  P1  1  0.00000000  0.31072300  0.58500000  1
  P  P2  1  0.50000000  0.69133000  0.41449300  1
  P  P3  1  0.00000000  0.18996200  0.08340200  1
  O  O0  1  0.19907400  0.28405300  0.15971800  1
  O  O1  1  0.80092600  0.28405300  0.15971800  1
  O  O2  1  0.00000000  0.88592200  0.07833700  1
  O  O3  1  0.19973800  0.20247000  0.65795000  1
  O  O4  1  0.00000000  0.30631800  0.95123200  1
  O  O5  1  0.29124100  0.80605300  0.35130200  1
  O  O6  1  0.70792800  0.69739900  0.82831900  1
  O  O7  1  0.29207200  0.69739900  0.82831900  1
  O  O8  1  0.50000000  0.09830700  0.89851300  1
  O  O9  1  0.80026200  0.20247000  0.65795000  1
  O  O10  1  0.00000000  0.61334600  0.58559000  1
  O  O11  1  0.50000000  0.77004500  0.55137100  1
  O  O12  1  0.00000000  0.20684000  0.45163300  1
  O  O13  1  0.50000000  0.38957200  0.40411600  1
  O  O14  1  0.70875900  0.80605300  0.35130200  1
  O  O15  1  0.50000000  0.67115000  0.02561500  1
loop_
_geom_bond_atom_site_label_1
_geom_bond_atom_site_label_2
_geom_bond_distance
_geom_bond_site_symmetry_2
Li0 O13 1.944890 1_555
Li0 O12 1.992292 1_555
Li0 O0 2.008819 1_555
Li0 O5 2.057559 1_545
Li1 O13 1.944890 1_555
Li1 O12 1.992292 1_655
Li1 O1 2.008819 1_555
Li1 O14 2.057559 1_545
Li2 O10 1.968713 1_555
Li2 O14 1.986597 1_455
Li2 O5 1.986597 1_555
Li2 O12 2.085000 1_565
Li3 O6 1.937878 1_555
Li3 O11 1.951000 1_555
Li3 O10 1.989650 1_655
Li3 O9 2.075876 1_565
Li4 O2 1.955538 1_556
Li4 O4 2.017204 1_555
Li4 O6 2.085052 1_455
Li4 O7 2.085052 1_555
Li5 O8 1.953818 1_555
Li5 O4 2.011411 1_655
Li5 O6 2.036757 1_555
Li5 O9 2.054028 1_555
Li6 O8 1.953818 1_555
Li6 O4 2.011411 1_555
Li6 O7 2.036757 1_555
Li6 O3 2.054028 1_555
Li7 O7 1.937878 1_555
Li7 O11 1.951000 1_555
Li7 O10 1.989650 1_555
Li7 O3 2.075876 1_565
Cu0 O0 1.941742 1_555
Cu0 O1 1.941742 1_555
Cu0 O8 2.493041 1_554
Cu0 O15 2.494890 1_555
Cu1 O14 2.013276 1_555
Cu1 O15 2.015419 1_555
Cu1 O2 2.230321 1_655
Cu1 O1 2.476064 1_555
Cu2 O5 2.013276 1_555
Cu2 O15 2.015419 1_555
Cu2 O2 2.230321 1_555
Cu2 O0 2.476064 1_555
Cu3 O3 1.956438 1_555
Cu3 O9 1.956438 1_555
Cu3 O13 2.312097 1_555
Cu3 O11 2.533970 1_545
O0 P3 1.566542 1_555
O1 P3 1.566542 1_655
O2 P3 1.561975 1_565
O3 P1 1.568988 1_555
O4 P3 1.548351 1_556
O5 P2 1.576604 1_555
O6 P0 1.560012 1_555
O7 P0 1.560012 1_555
O8 P0 1.551083 1_545
O9 P1 1.568988 1_655
O10 P1 1.553205 1_555
O11 P2 1.544631 1_555
O12 P1 1.548831 1_555
O13 P2 1.554029 1_555
O14 P2 1.576604 1_555
O15 P0 1.563663 1_554
