# generated using pymatgen
data_K(CuS)2
_symmetry_space_group_name_H-M   'P 1'
_cell_length_a   3.82949400
_cell_length_b   3.82949400
_cell_length_c   7.17719514
_cell_angle_alpha   105.47287082
_cell_angle_beta   105.47287082
_cell_angle_gamma   90.00000000
_symmetry_Int_Tables_number   1
_chemical_formula_structural   K(CuS)2
_chemical_formula_sum   'K1 Cu2 S2'
_cell_volume   97.47511687
_cell_formula_units_Z   1
loop_
 _symmetry_equiv_pos_site_id
 _symmetry_equiv_pos_as_xyz
  1  'x, y, z'
loop_
 _atom_site_type_symbol
 _atom_site_label
 _atom_site_symmetry_multiplicity
 _atom_site_fract_x
 _atom_site_fract_y
 _atom_site_fract_z
 _atom_site_occupancy
  K  K0  1  0.00000000  0.00000000  0.00000000  1
  Cu  Cu0  1  0.25000000  0.75000000  0.50000000  1
  Cu  Cu1  1  0.75000000  0.25000000  0.50000000  1
  S  S0  1  0.64743200  0.64743200  0.29486400  1
  S  S1  1  0.35256800  0.35256800  0.70513600  1
loop_
_geom_bond_atom_site_label_1
_geom_bond_atom_site_label_2
_geom_bond_distance
_geom_bond_site_symmetry_2
K0 S0 3.342708 1_445
K0 S0 3.342708 1_455
K0 S0 3.342708 1_545
K0 S0 3.342708 1_555
K0 S1 3.342708 1_554
K0 S1 3.342708 1_444
K0 S1 3.342708 1_544
K0 S1 3.342708 1_454
Cu0 S1 2.350610 1_555
Cu0 S1 2.350610 1_565
Cu0 S0 2.350610 1_455
Cu0 S0 2.350610 1_555
Cu1 S1 2.350610 1_555
Cu1 S1 2.350610 1_655
Cu1 S0 2.350610 1_545
Cu1 S0 2.350610 1_555
