# generated using pymatgen
data_Ce2InPt2
_symmetry_space_group_name_H-M   'P 1'
_cell_length_a   7.83357907
_cell_length_b   7.83357907
_cell_length_c   3.80829664
_cell_angle_alpha   90.00000000
_cell_angle_beta   90.00000000
_cell_angle_gamma   89.99909261
_symmetry_Int_Tables_number   1
_chemical_formula_structural   Ce2InPt2
_chemical_formula_sum   'Ce4 In2 Pt4'
_cell_volume   233.69597495
_cell_formula_units_Z   2
loop_
 _symmetry_equiv_pos_site_id
 _symmetry_equiv_pos_as_xyz
  1  'x, y, z'
loop_
 _atom_site_type_symbol
 _atom_site_label
 _atom_site_symmetry_multiplicity
 _atom_site_fract_x
 _atom_site_fract_y
 _atom_site_fract_z
 _atom_site_occupancy
  Ce  Ce0  1  0.67178502  0.82821498  0.50000000  1
  Ce  Ce1  1  0.82821973  0.32821973  0.50000000  1
  Ce  Ce2  1  0.32821498  0.17178502  0.50000000  1
  Ce  Ce3  1  0.17178027  0.67178027  0.50000000  1
  In  In0  1  0.50000000  0.50000000  0.00000000  1
  In  In1  1  -0.00000000  -0.00000000  0.00000000  1
  Pt  Pt0  1  0.63195736  0.13195736  -0.00000000  1
  Pt  Pt1  1  0.86787793  0.63212207  0.00000000  1
  Pt  Pt2  1  0.13212207  0.36787793  0.00000000  1
  Pt  Pt3  1  0.36804264  0.86804264  -0.00000000  1
loop_
_geom_bond_atom_site_label_1
_geom_bond_atom_site_label_2
_geom_bond_distance
_geom_bond_site_symmetry_2
Ce0 Pt1 2.888766 1_555
Ce0 Pt1 2.888766 1_556
Ce0 Pt0 3.063428 1_566
Ce0 Pt0 3.063428 1_565
Ce0 Pt3 3.063428 1_555
Ce0 Pt3 3.063428 1_556
Ce0 In1 3.470925 1_665
Ce0 In0 3.470925 1_555
Ce0 In0 3.470925 1_556
Ce0 In1 3.470925 1_666
Ce1 Pt0 2.890204 1_556
Ce1 Pt0 2.890204 1_555
Ce1 Pt1 3.064275 1_555
Ce1 Pt1 3.064275 1_556
Ce1 Pt2 3.064275 1_655
Ce1 Pt2 3.064275 1_656
Ce1 In1 3.470907 1_656
Ce1 In1 3.470907 1_655
Ce1 In0 3.470907 1_555
Ce1 In0 3.470907 1_556
Ce2 Pt2 2.888766 1_556
Ce2 Pt2 2.888766 1_555
Ce2 Pt3 3.063428 1_545
Ce2 Pt3 3.063428 1_546
Ce2 Pt0 3.063428 1_555
Ce2 Pt0 3.063428 1_556
Ce2 In1 3.470925 1_555
Ce2 In1 3.470925 1_556
Ce2 In0 3.470925 1_555
Ce2 In0 3.470925 1_556
Ce3 Pt3 2.890204 1_555
Ce3 Pt3 2.890204 1_556
Ce3 Pt2 3.064275 1_556
Ce3 Pt2 3.064275 1_555
Ce3 Pt1 3.064275 1_455
Ce3 Pt1 3.064275 1_456
Ce3 In0 3.470907 1_555
Ce3 In0 3.470907 1_556
Ce3 In1 3.470907 1_566
Ce3 In1 3.470907 1_565
In0 Pt2 3.062037 1_555
In0 Pt1 3.062037 1_555
In0 Pt3 3.062785 1_555
In0 Pt0 3.062785 1_555
In1 Pt2 3.062037 1_555
In1 Pt1 3.062037 1_445
In1 Pt0 3.062785 1_455
In1 Pt3 3.062785 1_545
Pt0 Pt3 2.923764 1_545
Pt1 Pt2 2.927367 1_655
