# generated using pymatgen
data_MgCu6OF11
_symmetry_space_group_name_H-M   'P 1'
_cell_length_a   5.61861406
_cell_length_b   5.02312270
_cell_length_c   8.15509824
_cell_angle_alpha   91.05862771
_cell_angle_beta   93.52154009
_cell_angle_gamma   90.56189499
_symmetry_Int_Tables_number   1
_chemical_formula_structural   MgCu6OF11
_chemical_formula_sum   'Mg1 Cu6 O1 F11'
_cell_volume   229.67362526
_cell_formula_units_Z   1
loop_
 _symmetry_equiv_pos_site_id
 _symmetry_equiv_pos_as_xyz
  1  'x, y, z'
loop_
 _atom_site_type_symbol
 _atom_site_label
 _atom_site_symmetry_multiplicity
 _atom_site_fract_x
 _atom_site_fract_y
 _atom_site_fract_z
 _atom_site_occupancy
  Mg  Mg0  1  0.14421800  0.47326500  0.18391800  1
  Cu  Cu0  1  0.00670500  0.99958800  0.98167600  1
  Cu  Cu1  1  0.54147800  0.53873500  0.00552700  1
  Cu  Cu2  1  0.34486000  0.95940500  0.32917000  1
  Cu  Cu3  1  0.71267400  0.57284500  0.39104400  1
  Cu  Cu4  1  0.19977600  0.48770600  0.66529600  1
  Cu  Cu5  1  0.68340900  0.02163800  0.66660400  1
  O  O0  1  0.48275100  0.65182900  0.22783700  1
  F  F0  1  0.29710500  0.16062600  0.08382800  1
  F  F1  1  0.99212200  0.78708300  0.26457400  1
  F  F2  1  0.84288200  0.31954800  0.07361700  1
  F  F3  1  0.16968500  0.28293700  0.39165200  1
  F  F4  1  0.64395400  0.18790500  0.45164400  1
  F  F5  1  0.39710300  0.79029200  0.58479100  1
  F  F6  1  0.90815000  0.65697600  0.58645000  1
  F  F7  1  0.48813800  0.35932600  0.78272100  1
  F  F8  1  0.18304600  0.66475300  0.95945900  1
  F  F9  1  0.00276200  0.18787900  0.73536200  1
  F  F10  1  0.70917900  0.85599600  0.88482900  1
loop_
_geom_bond_atom_site_label_1
_geom_bond_atom_site_label_2
_geom_bond_distance
_geom_bond_site_symmetry_2
Mg0 O0 2.102786 1_555
Cu0 F10 1.931750 1_455
Cu0 F0 1.947518 1_566
Cu0 F8 1.971502 1_555
Cu0 F2 2.015386 1_466
Cu0 F9 2.234978 1_565
Cu0 F1 2.565380 1_456
Cu1 O0 1.938435 1_555
Cu1 F7 2.017616 1_554
Cu1 F2 2.081354 1_555
Cu1 F8 2.130361 1_554
Cu1 F10 2.130451 1_554
Cu1 F0 2.449826 1_555
Cu2 O0 1.930053 1_555
Cu2 F3 1.982885 1_565
Cu2 F1 2.185389 1_455
Cu2 F4 2.202875 1_565
Cu2 F0 2.260724 1_565
Cu2 F5 2.269040 1_555
Cu3 O0 1.848269 1_555
Cu3 F6 1.917103 1_555
Cu3 F4 2.043584 1_555
Cu3 F1 2.212210 1_555
Cu4 F6 1.933723 1_455
Cu4 F7 1.952081 1_555
Cu4 F9 1.974047 1_555
Cu4 F5 2.015854 1_555
Cu4 F3 2.435569 1_555
Cu4 F8 2.550511 1_555
Cu5 F4 1.956971 1_555
Cu5 F10 1.976314 1_545
Cu5 F9 2.015198 1_655
Cu5 F5 2.046007 1_545
Cu5 F7 2.254437 1_555
Cu5 F6 2.340848 1_545
F0 Mg0 1.983839 1_555
F1 Mg0 1.924828 1_655
F2 Mg0 2.008354 1_655
F3 Mg0 1.958873 1_555
F8 Mg0 2.105578 1_556
