# generated using pymatgen
data_Fe2W
_symmetry_space_group_name_H-M   'P 1'
_cell_length_a   4.65736357
_cell_length_b   4.65746509
_cell_length_c   7.91965196
_cell_angle_alpha   89.99941702
_cell_angle_beta   90.00065742
_cell_angle_gamma   119.99201383
_symmetry_Int_Tables_number   1
_chemical_formula_structural   Fe2W
_chemical_formula_sum   'Fe8 W4'
_cell_volume   148.78577871
_cell_formula_units_Z   4
loop_
 _symmetry_equiv_pos_site_id
 _symmetry_equiv_pos_as_xyz
  1  'x, y, z'
loop_
 _atom_site_type_symbol
 _atom_site_label
 _atom_site_symmetry_multiplicity
 _atom_site_fract_x
 _atom_site_fract_y
 _atom_site_fract_z
 _atom_site_occupancy
  Fe  Fe0  1  -0.00000955  -0.00000193  -0.00001626  1
  Fe  Fe1  1  -0.00000352  -0.00000683  0.50001323  1
  Fe  Fe2  1  0.17034225  0.82965752  0.25003337  1
  Fe  Fe3  1  0.34072050  0.17035711  0.74996470  1
  Fe  Fe4  1  0.82963952  0.65927256  0.74996529  1
  Fe  Fe5  1  0.17035480  0.34069676  0.25003284  1
  Fe  Fe6  1  0.65930120  0.82964045  0.25003322  1
  Fe  Fe7  1  0.82964931  0.17035939  0.74996519  1
  W  W0  1  0.33332656  0.66669884  0.93020095  1
  W  W1  1  0.66668218  0.33333020  0.43026965  1
  W  W2  1  0.66666795  0.33332326  0.06979061  1
  W  W3  1  0.33332879  0.66667266  0.56974720  1
loop_
_geom_bond_atom_site_label_1
_geom_bond_atom_site_label_2
_geom_bond_distance
_geom_bond_site_symmetry_2
Fe0 Fe7 2.410156 1_454
Fe0 Fe3 2.410331 1_554
Fe0 Fe4 2.410331 1_444
Fe0 Fe2 2.410335 1_545
Fe0 Fe6 2.410435 1_445
Fe0 Fe5 2.410469 1_555
Fe0 W0 2.744942 1_544
Fe0 W2 2.745029 1_455
Fe0 W0 2.745333 1_444
Fe0 W2 2.745425 1_555
Fe0 W2 2.745473 1_445
Fe0 W0 2.745538 1_554
Fe1 Fe7 2.409776 1_455
Fe1 Fe3 2.409861 1_555
Fe1 Fe4 2.409876 1_445
Fe1 Fe2 2.409884 1_545
Fe1 Fe6 2.409980 1_445
Fe1 Fe5 2.410021 1_555
Fe1 W3 2.744920 1_545
Fe1 W1 2.744929 1_455
Fe1 W3 2.745278 1_445
Fe1 W1 2.745331 1_445
Fe1 W1 2.745365 1_555
Fe1 W3 2.745381 1_555
Fe2 Fe6 2.277299 1_555
Fe2 Fe5 2.277347 1_555
Fe2 Fe6 2.380064 1_455
Fe2 Fe5 2.380118 1_565
Fe2 W1 2.731744 1_455
Fe2 W2 2.731780 1_565
Fe2 W1 2.731792 1_565
Fe2 W2 2.731810 1_455
Fe2 W3 2.852994 1_555
Fe2 W0 2.853804 1_554
Fe3 Fe7 2.277114 1_555
Fe3 Fe4 2.277365 1_555
Fe3 Fe7 2.380250 1_455
Fe3 Fe4 2.380612 1_445
Fe3 W0 2.731391 1_545
Fe3 W3 2.731446 1_545
Fe3 W3 2.731504 1_555
Fe3 W0 2.731715 1_555
Fe3 W1 2.852934 1_555
Fe3 W2 2.853810 1_556
Fe4 Fe7 2.277119 1_555
Fe4 Fe7 2.380346 1_565
Fe4 W0 2.731394 1_655
Fe4 W3 2.731409 1_655
Fe4 W3 2.731460 1_555
Fe4 W0 2.731623 1_555
Fe4 W1 2.852913 1_555
Fe4 W2 2.853825 1_556
Fe5 Fe6 2.277495 1_555
Fe5 Fe6 2.380482 1_445
Fe5 W1 2.731485 1_455
Fe5 W2 2.731523 1_455
Fe5 W1 2.731535 1_555
Fe5 W2 2.731544 1_555
Fe5 W3 2.853107 1_555
Fe5 W0 2.853969 1_554
Fe6 W1 2.731539 1_555
Fe6 W1 2.731566 1_565
Fe6 W2 2.731567 1_565
Fe6 W2 2.731589 1_555
Fe6 W3 2.853087 1_555
Fe6 W0 2.853905 1_554
Fe7 W3 2.731681 1_655
Fe7 W3 2.731707 1_545
Fe7 W0 2.731735 1_545
Fe7 W0 2.731797 1_655
Fe7 W1 2.852803 1_555
Fe7 W2 2.853759 1_556
W0 W3 2.854668 1_555
W0 W2 2.907417 1_556
W0 W2 2.907417 1_566
W0 W2 2.907492 1_456
W1 W2 2.854869 1_555
W1 W3 2.907026 1_555
W1 W3 2.907095 1_655
W1 W3 2.907192 1_545
