# generated using pymatgen
data_KMgMoO3
_symmetry_space_group_name_H-M   'P 1'
_cell_length_a   4.45474900
_cell_length_b   4.46266752
_cell_length_c   4.46266752
_cell_angle_alpha   97.69291993
_cell_angle_beta   97.65075059
_cell_angle_gamma   82.34924941
_symmetry_Int_Tables_number   1
_chemical_formula_structural   KMgMoO3
_chemical_formula_sum   'K1 Mg1 Mo1 O3'
_cell_volume   86.53434120
_cell_formula_units_Z   1
loop_
 _symmetry_equiv_pos_site_id
 _symmetry_equiv_pos_as_xyz
  1  'x, y, z'
loop_
 _atom_site_type_symbol
 _atom_site_label
 _atom_site_symmetry_multiplicity
 _atom_site_fract_x
 _atom_site_fract_y
 _atom_site_fract_z
 _atom_site_occupancy
  K  K0  1  0.59571247  0.59265073  0.40734927  1
  Mg  Mg0  1  0.27020462  0.26540284  0.73459716  1
  Mo  Mo0  1  0.96236871  0.95987848  0.04012152  1
  O  O0  1  0.47451071  0.98712176  0.01287824  1
  O  O1  1  0.99026824  0.47277474  0.01116155  1
  O  O2  1  0.99026824  0.98883845  0.52722526  1
loop_
_geom_bond_atom_site_label_1
_geom_bond_atom_site_label_2
_geom_bond_distance
_geom_bond_site_symmetry_2
K0 O0 2.610173 1_555
K0 O1 2.612545 1_555
K0 O2 2.612545 1_555
K0 Mg0 2.840233 1_555
K0 O2 3.083979 1_545
K0 O1 3.083979 1_556
K0 O1 3.089949 1_455
K0 O2 3.089949 1_455
K0 O0 3.091052 1_556
K0 O0 3.091052 1_545
Mg0 O0 1.929727 1_546
Mg0 O2 1.931728 1_445
Mg0 O1 1.931728 1_456
Mo0 O1 2.148163 1_555
Mo0 O2 2.148163 1_555
Mo0 O0 2.148483 1_555
Mo0 O0 2.320843 1_655
Mo0 O2 2.330315 1_554
Mo0 O1 2.330315 1_565
