# generated using pymatgen
data_La2MgTi3(AgO5)2
_symmetry_space_group_name_H-M   'P 1'
_cell_length_a   3.86212803
_cell_length_b   3.86212768
_cell_length_c   16.48458731
_cell_angle_alpha   96.72727597
_cell_angle_beta   96.72727416
_cell_angle_gamma   90.00000531
_symmetry_Int_Tables_number   1
_chemical_formula_structural   La2MgTi3(AgO5)2
_chemical_formula_sum   'La2 Mg1 Ti3 Ag2 O10'
_cell_volume   242.48697254
_cell_formula_units_Z   1
loop_
 _symmetry_equiv_pos_site_id
 _symmetry_equiv_pos_as_xyz
  1  'x, y, z'
loop_
 _atom_site_type_symbol
 _atom_site_label
 _atom_site_symmetry_multiplicity
 _atom_site_fract_x
 _atom_site_fract_y
 _atom_site_fract_z
 _atom_site_occupancy
  La  La0  1  0.43270970  0.43270970  0.86541841  1
  La  La1  1  0.56729030  0.56729030  0.13458159  1
  Mg  Mg0  1  0.75000000  0.25000000  0.50000000  1
  Ti  Ti0  1  0.86759471  0.86759471  0.73519042  1
  Ti  Ti1  1  0.13240529  0.13240529  0.26480958  1
  Ti  Ti2  1  0.00000000  0.00000000  0.00000000  1
  Ag  Ag0  1  0.30910486  0.30910486  0.61820972  1
  Ag  Ag1  1  0.69089514  0.69089514  0.38179028  1
  O  O0  1  0.81256365  0.81256365  0.62512731  1
  O  O1  1  0.18743635  0.18743635  0.37487269  1
  O  O2  1  0.88135615  0.38135615  0.76271230  1
  O  O3  1  0.38136779  0.88136779  0.76273558  1
  O  O4  1  0.11863221  0.61863221  0.23726442  1
  O  O5  1  0.61864385  0.11864385  0.23728770  1
  O  O6  1  0.93988752  0.93988752  0.87977603  1
  O  O7  1  0.50001973  0.00001973  0.00003946  1
  O  O8  1  0.99998027  0.49998027  0.99996054  1
  O  O9  1  0.06011248  0.06011248  0.12022397  1
loop_
_geom_bond_atom_site_label_1
_geom_bond_atom_site_label_2
_geom_bond_distance
_geom_bond_site_symmetry_2
La0 O3 2.552556 1_555
La0 O3 2.552559 1_545
La0 O2 2.552804 1_555
La0 O2 2.552807 1_455
La0 O6 2.740888 1_555
La0 O6 2.740893 1_455
La0 O6 2.740893 1_545
La0 O6 2.740898 1_445
La0 O8 2.917697 1_555
La0 O8 2.917699 1_455
La0 O7 2.918658 1_566
La0 O7 2.918661 1_556
La1 O4 2.552556 1_555
La1 O4 2.552560 1_655
La1 O5 2.552804 1_555
La1 O5 2.552807 1_565
La1 O9 2.740888 1_555
La1 O9 2.740893 1_655
La1 O9 2.740893 1_565
La1 O9 2.740898 1_665
La1 O7 2.917697 1_555
La1 O7 2.917699 1_565
La1 O8 2.918659 1_454
La1 O8 2.918661 1_554
Mg0 O0 2.804791 1_545
Mg0 O1 2.804791 1_655
Mg0 O0 2.804791 1_555
Mg0 O1 2.804792 1_555
Ag0 Mg0 2.724332 1_555
Ag0 Mg0 2.724332 1_455
Ag0 O0 2.733251 1_555
Ag0 O0 2.733251 1_445
Ag0 O0 2.733251 1_455
Ag0 O0 2.733251 1_545
Ag1 Mg0 2.724332 1_555
Ag1 Mg0 2.724332 1_565
Ag1 O1 2.733251 1_555
Ag1 O1 2.733251 1_665
Ag1 O1 2.733251 1_655
Ag1 O1 2.733251 1_565
O0 Ti0 1.789274 1_555
O1 Ti1 1.789274 1_555
O2 Ti0 1.982217 1_555
O2 Ti0 1.982220 1_545
O3 Ti0 1.982302 1_555
O3 Ti0 1.982306 1_455
O4 Ti1 1.982302 1_555
O4 Ti1 1.982306 1_565
O5 Ti1 1.982217 1_555
O5 Ti1 1.982221 1_655
O6 Ti2 1.954457 1_666
O6 Ti0 2.350500 1_555
O7 Ti2 1.931064 1_655
O7 Ti2 1.931064 1_555
O8 Ti2 1.931064 1_656
O8 Ti2 1.931064 1_666
O9 Ti2 1.954457 1_555
O9 Ti1 2.350500 1_555
