# generated using pymatgen
data_DyMnO3
_symmetry_space_group_name_H-M   'P 1'
_cell_length_a   5.33032200
_cell_length_b   5.86787900
_cell_length_c   7.49917400
_cell_angle_alpha   90.00000000
_cell_angle_beta   90.00000000
_cell_angle_gamma   90.00000000
_symmetry_Int_Tables_number   1
_chemical_formula_structural   DyMnO3
_chemical_formula_sum   'Dy4 Mn4 O12'
_cell_volume   234.55679859
_cell_formula_units_Z   4
loop_
 _symmetry_equiv_pos_site_id
 _symmetry_equiv_pos_as_xyz
  1  'x, y, z'
loop_
 _atom_site_type_symbol
 _atom_site_label
 _atom_site_symmetry_multiplicity
 _atom_site_fract_x
 _atom_site_fract_y
 _atom_site_fract_z
 _atom_site_occupancy
  Dy  Dy0  1  0.01916400  0.91785300  0.75000000  1
  Dy  Dy1  1  0.51916400  0.58214700  0.25000000  1
  Dy  Dy2  1  0.48083600  0.41785300  0.75000000  1
  Dy  Dy3  1  0.98083600  0.08214700  0.25000000  1
  Mn  Mn0  1  0.50000000  0.00000000  0.50000000  1
  Mn  Mn1  1  0.00000000  0.50000000  0.50000000  1
  Mn  Mn2  1  0.00000000  0.50000000  0.00000000  1
  Mn  Mn3  1  0.50000000  0.00000000  0.00000000  1
  O  O0  1  0.70120200  0.32521300  0.44320200  1
  O  O1  1  0.20120200  0.17478700  0.55679800  1
  O  O2  1  0.79879800  0.82521300  0.05679800  1
  O  O3  1  0.29879800  0.67478700  0.94320200  1
  O  O4  1  0.29879800  0.67478700  0.55679800  1
  O  O5  1  0.79879800  0.82521300  0.44320200  1
  O  O6  1  0.20120200  0.17478700  0.94320200  1
  O  O7  1  0.70120200  0.32521300  0.05679800  1
  O  O8  1  0.11900000  0.45811400  0.25000000  1
  O  O9  1  0.61900000  0.04188600  0.75000000  1
  O  O10  1  0.38100000  0.95811400  0.25000000  1
  O  O11  1  0.88100000  0.54188600  0.75000000  1
loop_
_geom_bond_atom_site_label_1
_geom_bond_atom_site_label_2
_geom_bond_distance
_geom_bond_site_symmetry_2
Dy0 O9 2.253755 1_465
Dy0 O1 2.305154 1_565
Dy0 O6 2.305154 1_565
Dy0 O11 2.325806 1_455
Dy0 O3 2.520946 1_555
Dy0 O4 2.520946 1_555
Dy0 O2 2.639811 1_456
Dy0 O5 2.639811 1_455
Dy1 O8 2.253755 1_555
Dy1 O0 2.305154 1_555
Dy1 O7 2.305154 1_555
Dy1 O10 2.325806 1_555
Dy1 O5 2.520946 1_555
Dy1 O2 2.520946 1_555
Dy1 O3 2.639811 1_554
Dy1 O4 2.639811 1_555
Dy2 O11 2.253755 1_555
Dy2 O3 2.305154 1_555
Dy2 O4 2.305154 1_555
Dy2 O9 2.325806 1_555
Dy2 O6 2.520946 1_555
Dy2 O1 2.520946 1_555
Dy2 O7 2.639811 1_556
Dy2 O0 2.639811 1_555
Dy3 O10 2.253755 1_645
Dy3 O2 2.305154 1_545
Dy3 O5 2.305154 1_545
Dy3 O8 2.325806 1_655
Dy3 O0 2.520946 1_555
Dy3 O7 2.520946 1_555
Dy3 O1 2.639811 1_655
Dy3 O6 2.639811 1_654
Mn0 O1 1.941648 1_555
Mn0 O5 1.941648 1_545
Mn0 O10 1.994394 1_545
Mn0 O9 1.994394 1_555
Mn0 O4 2.230082 1_545
Mn0 O0 2.230082 1_555
Mn1 O0 1.941648 1_455
Mn1 O4 1.941648 1_555
Mn1 O11 1.994394 1_455
Mn1 O8 1.994394 1_555
Mn1 O1 2.230082 1_555
Mn1 O5 2.230082 1_455
Mn2 O3 1.941648 1_554
Mn2 O7 1.941648 1_455
Mn2 O11 1.994394 1_454
Mn2 O8 1.994394 1_555
Mn2 O2 2.230082 1_455
Mn2 O6 2.230082 1_554
Mn3 O6 1.941648 1_554
Mn3 O2 1.941648 1_545
Mn3 O9 1.994394 1_554
Mn3 O10 1.994394 1_545
Mn3 O3 2.230082 1_544
Mn3 O7 2.230082 1_555
