# generated using pymatgen
data_Lu2MgCr2O8
_symmetry_space_group_name_H-M   'P 1'
_cell_length_a   5.85752776
_cell_length_b   6.19585291
_cell_length_c   6.20188987
_cell_angle_alpha   111.40701333
_cell_angle_beta   103.84130751
_cell_angle_gamma   115.95561847
_symmetry_Int_Tables_number   1
_chemical_formula_structural   Lu2MgCr2O8
_chemical_formula_sum   'Lu2 Mg1 Cr2 O8'
_cell_volume   165.63846711
_cell_formula_units_Z   1
loop_
 _symmetry_equiv_pos_site_id
 _symmetry_equiv_pos_as_xyz
  1  'x, y, z'
loop_
 _atom_site_type_symbol
 _atom_site_label
 _atom_site_symmetry_multiplicity
 _atom_site_fract_x
 _atom_site_fract_y
 _atom_site_fract_z
 _atom_site_occupancy
  Lu  Lu0  1  0.36469100  0.63362900  0.69708900  1
  Lu  Lu1  1  0.63415800  0.33464200  0.26929600  1
  Mg  Mg0  1  0.50823300  0.76329400  0.25782000  1
  Cr  Cr0  1  0.91243000  0.15926600  0.79271000  1
  Cr  Cr1  1  0.08879900  0.87705400  0.24421500  1
  O  O0  1  0.33763600  0.25249700  0.45189800  1
  O  O1  1  0.87104300  0.25342900  0.54191300  1
  O  O2  1  0.27506000  0.33141400  0.01151600  1
  O  O3  1  0.29041300  0.84976100  0.05337100  1
  O  O4  1  0.12404100  0.67012100  0.38442200  1
  O  O5  1  0.70917200  0.76487100  0.56121200  1
  O  O6  1  0.66260500  0.11527100  0.91643600  1
  O  O7  1  0.72692600  0.73433400  0.05247700  1
loop_
_geom_bond_atom_site_label_1
_geom_bond_atom_site_label_2
_geom_bond_distance
_geom_bond_site_symmetry_2
Lu0 O0 2.202200 1_555
Lu0 O4 2.255998 1_555
Lu0 O6 2.267920 1_565
Lu0 O5 2.306606 1_555
Lu0 O7 2.312775 1_556
Lu0 O3 2.382223 1_556
Lu0 O1 2.426434 1_455
Lu1 O6 2.205829 1_554
Lu1 O0 2.268566 1_555
Lu1 O1 2.268664 1_555
Lu1 O2 2.304683 1_555
Lu1 O3 2.313232 1_545
Lu1 O5 2.376468 1_555
Lu1 O4 2.404092 1_655
Mg0 O5 1.960291 1_555
Mg0 O3 1.960307 1_555
Mg0 O7 2.027301 1_555
Mg0 O2 2.043986 1_555
Mg0 O1 2.344401 1_565
Mg0 O4 2.460333 1_555
Cr0 O2 1.752735 1_656
Cr0 O6 1.773500 1_555
Cr0 O1 1.850482 1_555
Cr0 O5 1.877354 1_545
Cr1 O7 1.753479 1_455
Cr1 O0 1.772371 1_565
Cr1 O4 1.844507 1_555
Cr1 O3 1.876606 1_555
