# generated using pymatgen
data_Na8MgSi4Sn3(PO12)2
_symmetry_space_group_name_H-M   'P 1'
_cell_length_a   9.10954169
_cell_length_b   9.11881940
_cell_length_c   22.24590337
_cell_angle_alpha   89.90489968
_cell_angle_beta   90.07367153
_cell_angle_gamma   120.01873584
_symmetry_Int_Tables_number   1
_chemical_formula_structural   Na8MgSi4Sn3(PO12)2
_chemical_formula_sum   'Na24 Mg3 Si12 Sn9 P6 O72'
_cell_volume   1600.04846837
_cell_formula_units_Z   3
loop_
 _symmetry_equiv_pos_site_id
 _symmetry_equiv_pos_as_xyz
  1  'x, y, z'
loop_
 _atom_site_type_symbol
 _atom_site_label
 _atom_site_symmetry_multiplicity
 _atom_site_fract_x
 _atom_site_fract_y
 _atom_site_fract_z
 _atom_site_occupancy
  Na  Na0  1  0.63751034  0.01305350  0.24111287  1
  Na  Na1  1  0.37652621  0.36336431  0.24291690  1
  Na  Na2  1  0.98713423  0.62352262  0.24297559  1
  Na  Na3  1  0.63724726  0.62390981  0.74612770  1
  Na  Na4  1  0.98241580  0.36623567  0.75063060  1
  Na  Na5  1  0.38031909  0.00811962  0.74466969  1
  Na  Na6  1  0.31251673  0.33537230  0.58569988  1
  Na  Na7  1  0.02918628  0.69957819  0.58503779  1
  Na  Na8  1  0.66218824  0.96952196  0.59080526  1
  Na  Na9  1  0.30738227  0.97177281  0.08225870  1
  Na  Na10  1  0.66410486  0.69262392  0.08223939  1
  Na  Na11  1  0.02823595  0.33547431  0.08223949  1
  Na  Na12  1  0.96501390  0.66535776  0.91772461  1
  Na  Na13  1  0.70004791  0.03565443  0.91766696  1
  Na  Na14  1  0.33496990  0.30099517  0.91971444  1
  Na  Na15  1  0.97175387  0.29434957  0.41330892  1
  Na  Na16  1  0.31718035  0.03412033  0.41649666  1
  Na  Na17  1  0.71067283  0.67332372  0.41380471  1
  Na  Na18  1  0.00579878  0.99713105  0.49593717  1
  Na  Na19  1  0.99974531  0.00008934  0.00039535  1
  Na  Na20  1  0.67178247  0.33347404  0.82964317  1
  Na  Na21  1  0.66708639  0.33726152  0.32985736  1
  Na  Na22  1  0.33333401  0.66620721  0.16113884  1
  Na  Na23  1  0.33867912  0.67458323  0.66840432  1
  Mg  Mg0  1  0.00309779  0.99995037  0.35306985  1
  Mg  Mg1  1  0.66433298  0.33209251  0.68531175  1
  Mg  Mg2  1  0.66673841  0.33286981  0.17959653  1
  Si  Si0  1  0.00096846  0.70211434  0.75052950  1
  Si  Si1  1  0.70461129  0.00074484  0.75026952  1
  Si  Si2  1  0.37335674  0.03965466  0.58476619  1
  Si  Si3  1  0.66608332  0.62899574  0.58477802  1
  Si  Si4  1  0.96105163  0.62657452  0.08610369  1
  Si  Si5  1  0.66549269  0.03870828  0.08590718  1
  Si  Si6  1  0.37350620  0.33463151  0.08613203  1
  Si  Si7  1  0.62582010  0.66456628  0.91651713  1
  Si  Si8  1  0.03954382  0.37293749  0.91609873  1
  Si  Si9  1  0.33502322  0.96354042  0.91645283  1
  Si  Si10  1  0.33347871  0.37060985  0.41681373  1
  Si  Si11  1  0.03514604  0.66411903  0.41704151  1
  Sn  Sn0  1  0.99597165  0.99681601  0.85266861  1
  Sn  Sn1  1  0.99907717  0.99341368  0.64882718  1
  Sn  Sn2  1  0.00022941  0.99940522  0.14848779  1
  Sn  Sn3  1  0.66736835  0.33383333  0.98323888  1
  Sn  Sn4  1  0.66470841  0.33791597  0.48331510  1
  Sn  Sn5  1  0.33233959  0.66683247  0.01825902  1
  Sn  Sn6  1  0.33241562  0.66750386  0.51821198  1
  Sn  Sn7  1  0.33091940  0.66323056  0.31683303  1
  Sn  Sn8  1  0.33524189  0.67052803  0.81534467  1
  P  P0  1  0.29455843  0.99838042  0.25337447  1
  P  P1  1  0.70515602  0.70871219  0.25358811  1
  P  P2  1  0.00093689  0.29338213  0.25296666  1
  P  P3  1  0.29140357  0.29327227  0.75001537  1
  P  P4  1  0.95856033  0.33260616  0.58447479  1
  P  P5  1  0.62771186  0.96279003  0.41640295  1
  O  O0  1  0.20691567  0.01834183  0.30841158  1
  O  O1  1  0.81268952  0.79705129  0.30853754  1
  O  O2  1  0.98107831  0.18598626  0.30820849  1
  O  O3  1  0.20743789  0.18116807  0.80658903  1
  O  O4  1  0.97008054  0.79129396  0.80981916  1
  O  O5  1  0.82647426  0.03682763  0.80948008  1
  O  O6  1  0.78932145  0.96373043  0.69001392  1
  O  O7  1  0.17623740  0.21386093  0.69296844  1
  O  O8  1  0.04826628  0.82725693  0.69064647  1
  O  O9  1  0.78320874  0.81928335  0.19504884  1
  O  O10  1  0.03406703  0.21481503  0.19498148  1
  O  O11  1  0.18185713  0.96244743  0.19519610  1
  O  O12  1  0.87757345  0.36282702  0.63879500  1
  O  O13  1  0.49275506  0.11977631  0.64220827  1
  O  O14  1  0.62862277  0.50936748  0.64225640  1
  O  O15  1  0.88247071  0.51214459  0.14533672  1
  O  O16  1  0.62943500  0.11729480  0.14494476  1
  O  O17  1  0.48802678  0.37025391  0.14532129  1
  O  O18  1  0.44956345  0.29264048  0.02491250  1
  O  O19  1  0.84318464  0.55115445  0.02475279  1
  O  O20  1  0.70808899  0.15736029  0.02472964  1
  O  O21  1  0.45195830  0.15279141  0.52205651  1
  O  O22  1  0.71006643  0.55548809  0.52299970  1
  O  O23  1  0.85009448  0.29718699  0.52553689  1
  O  O24  1  0.54521296  0.70561453  0.97537039  1
  O  O25  1  0.15955774  0.45279610  0.97551470  1
  O  O26  1  0.29117392  0.84088791  0.97540617  1
  O  O27  1  0.54675906  0.84951839  0.47285259  1
  O  O28  1  0.30084786  0.45872117  0.47608255  1
  O  O29  1  0.15851245  0.70289587  0.47594541  1
  O  O30  1  0.11788604  0.62316950  0.35715468  1
  O  O31  1  0.50962113  0.88436059  0.36008775  1
  O  O32  1  0.38220498  0.49866405  0.35768903  1
  O  O33  1  0.12047145  0.49225851  0.85623217  1
  O  O34  1  0.37645690  0.88497745  0.85677858  1
  O  O35  1  0.50568300  0.62339421  0.85662028  1
  O  O36  1  0.01008626  0.82662462  0.41221172  1
  O  O37  1  0.80254629  0.98102471  0.40989896  1
  O  O38  1  0.16515626  0.18673565  0.41210566  1
  O  O39  1  0.02392927  0.18499653  0.91205365  1
  O  O40  1  0.16570759  0.98422565  0.91159232  1
  O  O41  1  0.81457844  0.83610266  0.91333775  1
  O  O42  1  0.98237767  0.17401311  0.58816125  1
  O  O43  1  0.18423279  0.02760588  0.58671558  1
  O  O44  1  0.83583573  0.82246212  0.58608562  1
  O  O45  1  0.98129410  0.81806285  0.08983105  1
  O  O46  1  0.83675987  0.01829346  0.08975701  1
  O  O47  1  0.18189597  0.16295581  0.08990741  1
  O  O48  1  0.68194247  0.16481130  0.74654765  1
  O  O49  1  0.46591568  0.31052890  0.74529444  1
  O  O50  1  0.83249104  0.51850692  0.74574822  1
  O  O51  1  0.68273627  0.52997504  0.24838492  1
  O  O52  1  0.84465995  0.31583197  0.24764446  1
  O  O53  1  0.47283026  0.15534251  0.24769014  1
  O  O54  1  0.64427777  0.49507586  0.92119231  1
  O  O55  1  0.85168161  0.35552884  0.92089008  1
  O  O56  1  0.50533704  0.15064003  0.92157040  1
  O  O57  1  0.64169444  0.13971016  0.42202310  1
  O  O58  1  0.50743008  0.35549681  0.41982194  1
  O  O59  1  0.85218143  0.48285779  0.42141181  1
  O  O60  1  0.35079857  0.50252218  0.07899637  1
  O  O61  1  0.15149327  0.64886815  0.07905556  1
  O  O62  1  0.49714943  0.84837600  0.07880812  1
  O  O63  1  0.34609685  0.84531020  0.57844883  1
  O  O64  1  0.49522382  0.65020952  0.57787009  1
  O  O65  1  0.13922478  0.49337449  0.57824384  1
  O  O66  1  0.31124316  0.83189749  0.25515500  1
  O  O67  1  0.52379678  0.69661392  0.25439069  1
  O  O68  1  0.16924557  0.47521147  0.25347545  1
  O  O69  1  0.30233584  0.46931716  0.75373512  1
  O  O70  1  0.17554322  0.68778846  0.75324027  1
  O  O71  1  0.52072660  0.81966624  0.75301420  1
loop_
_geom_bond_atom_site_label_1
_geom_bond_atom_site_label_2
_geom_bond_distance
_geom_bond_site_symmetry_2
Na0 O16 2.355543 1_555
Na0 O53 2.429852 1_555
Na0 O52 2.447988 1_555
Na0 O67 2.548313 1_545
Na0 O66 2.597733 1_545
Na0 O9 2.879204 1_545
Na0 O31 2.892945 1_545
Na1 O17 2.385516 1_555
Na1 O51 2.421438 1_555
Na1 O53 2.458324 1_555
Na1 O68 2.567036 1_555
Na1 O67 2.649923 1_555
Na1 O32 2.826661 1_555
Na1 O10 2.910713 1_555
Na2 O15 2.385692 1_555
Na2 O52 2.433807 1_555
Na2 O51 2.462729 1_555
Na2 O66 2.605271 1_655
Na2 O68 2.622699 1_655
Na2 O30 2.804714 1_655
Na2 O11 2.887326 1_655
Na3 O50 2.407852 1_555
Na3 O49 2.477903 1_555
Na3 O71 2.496752 1_555
Na3 O14 2.522292 1_555
Na3 O69 2.649732 1_555
Na3 O35 2.734977 1_555
Na3 O6 2.962447 1_555
Na3 O4 2.982571 1_555
Na4 O50 2.387815 1_555
Na4 O48 2.417352 1_555
Na4 O70 2.556363 1_655
Na4 O69 2.576890 1_655
Na4 O33 2.641267 1_655
Na4 O12 2.658407 1_555
Na4 O5 2.911528 1_555
Na5 O48 2.380050 1_555
Na5 O49 2.461967 1_555
Na5 O13 2.497204 1_555
Na5 O70 2.568197 1_545
Na5 O71 2.611734 1_545
Na5 O34 2.726430 1_545
Na5 O8 2.884393 1_545
Na6 O43 2.441465 1_555
Na6 O64 2.502170 1_555
Na6 O42 2.604823 1_455
Na6 O65 2.621008 1_555
Na6 O7 2.661914 1_555
Na6 O28 2.707912 1_555
Na6 O14 2.796108 1_555
Na6 O21 2.918649 1_555
Na7 O63 2.506704 1_555
Na7 O44 2.516640 1_455
Na7 O65 2.539794 1_555
Na7 O8 2.590522 1_555
Na7 O43 2.591666 1_565
Na7 O29 2.692569 1_555
Na7 O22 2.873295 1_455
Na7 O12 2.918186 1_455
Na8 O6 2.503811 1_555
Na8 O63 2.526937 1_555
Na8 O44 2.536722 1_555
Na8 O64 2.538684 1_555
Na8 O42 2.558566 1_565
Na8 O13 2.773600 1_565
Na8 O27 2.835393 1_555
Na8 O23 2.973287 1_565
Na9 O62 2.491451 1_555
Na9 O47 2.523983 1_565
Na9 O61 2.551170 1_555
Na9 O45 2.579045 1_455
Na9 O26 2.632252 1_554
Na9 O11 2.745229 1_555
Na9 O18 2.840094 1_565
Na9 O16 2.900486 1_565
Na10 O60 2.491089 1_555
Na10 O45 2.525518 1_555
Na10 O62 2.548872 1_555
Na10 O46 2.578462 1_565
Na10 O24 2.638155 1_554
Na10 O9 2.749142 1_555
Na10 O19 2.842075 1_555
Na10 O17 2.908230 1_555
Na11 O61 2.494314 1_555
Na11 O46 2.527298 1_455
Na11 O60 2.545861 1_555
Na11 O47 2.581690 1_555
Na11 O25 2.632629 1_554
Na11 O10 2.748216 1_555
Na11 O20 2.835126 1_455
Na11 O15 2.912312 1_455
Na12 O55 2.476699 1_555
Na12 O54 2.532689 1_555
Na12 O41 2.538857 1_555
Na12 O40 2.548748 1_655
Na12 O19 2.612893 1_556
Na12 O4 2.649756 1_555
Na12 O26 2.876627 1_655
Na12 O33 2.935483 1_655
Na13 O56 2.472778 1_555
Na13 O41 2.511859 1_545
Na13 O55 2.527919 1_555
Na13 O39 2.560322 1_655
Na13 O20 2.614682 1_556
Na13 O5 2.667112 1_555
Na13 O34 2.890554 1_545
Na13 O24 2.905042 1_545
Na14 O54 2.466350 1_555
Na14 O39 2.485321 1_555
Na14 O40 2.509686 1_545
Na14 O56 2.533537 1_555
Na14 O18 2.577766 1_556
Na14 O3 2.758306 1_555
Na14 O25 2.869559 1_555
Na14 O35 2.906697 1_555
Na15 O38 2.407846 1_655
Na15 O59 2.459433 1_555
Na15 O37 2.477680 1_545
Na15 O2 2.557793 1_555
Na15 O57 2.612393 1_555
Na15 O23 2.738249 1_555
Na15 O30 2.884674 1_655
Na15 O28 2.946907 1_655
Na16 O38 2.406602 1_555
Na16 O36 2.473634 1_545
Na16 O58 2.552626 1_555
Na16 O0 2.580960 1_555
Na16 O57 2.613934 1_555
Na16 O21 2.620016 1_555
Na16 O29 2.929909 1_545
Na16 O31 2.986559 1_545
Na17 O36 2.362174 1_655
Na17 O37 2.496126 1_555
Na17 O58 2.544761 1_555
Na17 O1 2.562844 1_555
Na17 O59 2.635442 1_555
Na17 O22 2.653448 1_555
Na17 O32 2.876960 1_555
Na17 O27 2.991485 1_555
Na18 O36 2.441030 1_555
Na18 O38 2.461607 1_565
Na18 O43 2.517727 1_565
Na18 O44 2.546723 1_455
Na18 O37 2.613977 1_455
Na18 O42 2.685643 1_465
Na19 O41 2.511871 1_544
Na19 O39 2.524321 1_654
Na19 O40 2.537056 1_644
Na19 O46 2.537541 1_555
Na19 O45 2.540192 1_545
Na19 O47 2.541606 1_655
Na20 O48 2.437911 1_555
Na20 O50 2.449149 1_555
Na20 O55 2.551374 1_555
Na20 O49 2.584821 1_555
Na20 O56 2.593837 1_555
Na20 O54 2.600528 1_555
Na21 O51 2.476452 1_555
Na21 O53 2.507796 1_555
Na21 O52 2.514918 1_555
Na21 O58 2.529597 1_555
Na21 O59 2.552291 1_555
Na21 O57 2.659789 1_555
Na22 O61 2.415451 1_555
Na22 O60 2.416559 1_555
Na22 O62 2.420216 1_555
Na22 O68 2.622641 1_555
Na22 O67 2.627155 1_555
Na22 O66 2.648278 1_555
Na23 O71 2.418314 1_555
Na23 O70 2.443709 1_555
Na23 O63 2.513483 1_555
Na23 O64 2.542692 1_555
Na23 O69 2.566390 1_555
Na23 O65 2.655591 1_555
Mg0 O0 2.038386 1_565
Mg0 O1 2.050334 1_455
Mg0 O2 2.061167 1_465
Mg0 O38 2.071665 1_565
Mg0 O36 2.080059 1_555
Mg0 O37 2.157649 1_455
Mg1 O13 2.021212 1_555
Mg1 O14 2.038782 1_555
Mg1 O12 2.093382 1_555
Mg1 O50 2.107269 1_555
Mg1 O48 2.108482 1_555
Mg1 O49 2.176222 1_555
Mg2 O17 1.974627 1_555
Mg2 O15 1.975005 1_555
Mg2 O16 1.977372 1_555
Mg2 O53 2.274439 1_555
Mg2 O52 2.277608 1_555
Mg2 O51 2.310830 1_555
O0 P0 1.522579 1_545
O1 P1 1.520983 1_555
O2 P2 1.523588 1_655
O3 P3 1.558787 1_555
O3 Sn0 2.084907 1_445
O4 Si0 1.647296 1_655
O4 Sn0 2.009892 1_555
O5 Si1 1.645546 1_555
O5 Sn0 1.999741 1_545
O6 Si1 1.664617 1_565
O6 Sn1 2.012464 1_555
O7 P3 1.573220 1_555
O7 Sn1 2.089542 1_445
O8 Si0 1.663422 1_555
O8 Sn1 2.008857 1_455
O9 P1 1.580748 1_555
O9 Sn2 2.104676 1_655
O10 P2 1.577564 1_555
O10 Sn2 2.103162 1_545
O11 P0 1.580450 1_555
O11 Sn2 2.117332 1_555
O12 P4 1.512376 1_555
O13 Si2 1.598163 1_555
O14 Si3 1.601698 1_555
O15 Si4 1.608740 1_555
O16 Si5 1.608122 1_555
O17 Si6 1.608233 1_555
O18 Si6 1.658610 1_555
O18 Sn3 2.048189 1_554
O19 Si4 1.658022 1_555
O19 Sn3 2.042488 1_554
O20 Si5 1.658252 1_555
O20 Sn3 2.042205 1_554
O21 Si2 1.667882 1_555
O21 Sn4 2.018542 1_555
O22 Si3 1.664864 1_555
O22 Sn4 2.017671 1_555
O23 P4 1.574301 1_555
O23 Sn4 2.120016 1_555
O24 Si7 1.634786 1_555
O24 Sn5 2.028114 1_556
O25 Si8 1.635692 1_555
O25 Sn5 2.029651 1_556
O26 Si9 1.637040 1_555
O26 Sn5 2.039151 1_556
O27 P5 1.556796 1_555
O27 Sn6 2.083845 1_555
O28 Si10 1.647978 1_555
O28 Sn6 2.010755 1_555
O29 Si11 1.644750 1_555
O29 Sn6 2.001145 1_555
O30 Si11 1.663800 1_555
O30 Sn7 1.999542 1_555
O31 P5 1.570957 1_555
O31 Sn7 2.088058 1_555
O32 Si10 1.663827 1_555
O32 Sn7 1.998036 1_555
O33 Si8 1.641995 1_555
O33 Sn8 2.028571 1_555
O34 Si9 1.641027 1_555
O34 Sn8 2.021166 1_555
O35 Si7 1.643442 1_555
O35 Sn8 2.025160 1_555
O36 Si11 1.611660 1_555
O37 P5 1.523381 1_555
O38 Si10 1.612828 1_555
O39 Si8 1.649851 1_555
O39 Sn0 2.079443 1_445
O40 Si9 1.648281 1_555
O40 Sn0 2.072221 1_455
O41 Si7 1.648394 1_555
O41 Sn0 2.067822 1_555
O42 P4 1.568040 1_555
O42 Sn1 2.190746 1_545
O43 Si2 1.671193 1_555
O43 Sn1 2.080783 1_445
O44 Si3 1.665796 1_555
O44 Sn1 2.066873 1_555
O45 Si4 1.663785 1_555
O45 Sn2 2.046489 1_655
O46 Si5 1.663224 1_555
O46 Sn2 2.050623 1_645
O47 Si6 1.664441 1_555
O47 Sn2 2.047142 1_545
O48 Si1 1.611353 1_555
O49 P3 1.520885 1_555
O50 Si0 1.612175 1_655
O51 P1 1.542431 1_555
O52 P2 1.540676 1_655
O53 P0 1.541470 1_545
O54 Si7 1.639286 1_555
O54 Sn3 2.100785 1_555
O55 Si8 1.641290 1_655
O55 Sn3 2.110620 1_555
O56 Si9 1.637862 1_545
O56 Sn3 2.094415 1_555
O57 P5 1.558724 1_545
O57 Sn4 2.190455 1_555
O58 Si10 1.659121 1_555
O58 Sn4 2.073003 1_555
O59 Si11 1.662190 1_655
O59 Sn4 2.073975 1_555
O60 Si6 1.651611 1_555
O60 Sn5 2.084139 1_555
O61 Si4 1.650237 1_455
O61 Sn5 2.074851 1_555
O62 Si5 1.651108 1_565
O62 Sn5 2.079493 1_555
O63 Si2 1.668079 1_565
O63 Sn6 2.060261 1_555
O64 Si3 1.668569 1_555
O64 Sn6 2.052820 1_555
O65 P4 1.569331 1_455
O65 Sn6 2.145905 1_555
O66 P0 1.600012 1_555
O66 Sn7 2.132725 1_555
O67 P1 1.599883 1_555
O67 Sn7 2.139876 1_555
O68 P2 1.598897 1_555
O68 Sn7 2.138065 1_555
O69 P3 1.560218 1_555
O69 Sn8 2.189014 1_555
O70 Si0 1.660523 1_555
O70 Sn8 2.067150 1_555
O71 Si1 1.663921 1_565
O71 Sn8 2.080321 1_555
