# generated using pymatgen
data_ThGa4Co
_symmetry_space_group_name_H-M   'P 1'
_cell_length_a   4.13686279
_cell_length_b   6.55794177
_cell_length_c   8.07233737
_cell_angle_alpha   90.00000000
_cell_angle_beta   104.84688584
_cell_angle_gamma   90.00000000
_symmetry_Int_Tables_number   1
_chemical_formula_structural   ThGa4Co
_chemical_formula_sum   'Th2 Ga8 Co2'
_cell_volume   211.68548112
_cell_formula_units_Z   2
loop_
 _symmetry_equiv_pos_site_id
 _symmetry_equiv_pos_as_xyz
  1  'x, y, z'
loop_
 _atom_site_type_symbol
 _atom_site_label
 _atom_site_symmetry_multiplicity
 _atom_site_fract_x
 _atom_site_fract_y
 _atom_site_fract_z
 _atom_site_occupancy
  Th  Th0  1  0.38431212  0.75000000  0.76862525  1
  Th  Th1  1  0.61568788  0.25000000  0.23137475  1
  Ga  Ga0  1  -0.00000000  0.00000000  -0.00000000  1
  Ga  Ga1  1  -0.00000000  0.50000000  -0.00000000  1
  Ga  Ga2  1  0.80873792  0.05642444  0.61747584  1
  Ga  Ga3  1  0.19126208  0.94357556  0.38252416  1
  Ga  Ga4  1  0.19126208  0.55642444  0.38252416  1
  Ga  Ga5  1  0.80873792  0.44357556  0.61747584  1
  Ga  Ga6  1  0.42192145  0.25000000  0.84384091  1
  Ga  Ga7  1  0.57807855  0.75000000  0.15615909  1
  Co  Co0  1  0.72651397  0.75000000  0.45302594  1
  Co  Co1  1  0.27348603  0.25000000  0.54697406  1
loop_
_geom_bond_atom_site_label_1
_geom_bond_atom_site_label_2
_geom_bond_distance
_geom_bond_site_symmetry_2
Ga0 Ga6 2.907062 1_454
Ga0 Ga7 2.907062 1_545
Ga0 Ga7 2.907067 1_445
Ga0 Ga6 2.907067 1_554
Ga0 Ga3 3.007622 1_545
Ga0 Ga2 3.007622 1_454
Ga0 Th0 3.197765 1_544
Ga0 Th1 3.197765 1_455
Ga0 Th1 3.197769 1_555
Ga0 Th0 3.197769 1_444
Ga1 Ga6 2.907062 1_454
Ga1 Ga7 2.907062 1_555
Ga1 Ga7 2.907067 1_455
Ga1 Ga6 2.907067 1_554
Ga1 Ga5 3.007622 1_454
Ga1 Ga4 3.007622 1_555
Ga1 Th0 3.197765 1_554
Ga1 Th1 3.197765 1_455
Ga1 Th1 3.197769 1_555
Ga1 Th0 3.197769 1_454
Ga2 Ga5 2.538915 1_555
Ga2 Ga3 2.861300 1_645
Ga2 Ga3 2.861301 1_545
Ga2 Ga6 3.001614 1_555
Ga2 Ga6 3.001621 1_655
Ga2 Th0 3.115689 1_645
Ga2 Th0 3.115691 1_545
Ga2 Th1 3.269217 1_555
Ga3 Ga4 2.538915 1_555
Ga3 Ga7 3.001614 1_555
Ga3 Ga7 3.001621 1_455
Ga3 Th1 3.115689 1_465
Ga3 Th1 3.115691 1_565
Ga3 Th0 3.269217 1_555
Ga4 Ga5 2.861300 1_455
Ga4 Ga5 2.861301 1_555
Ga4 Ga7 3.001614 1_555
Ga4 Ga7 3.001621 1_455
Ga4 Th1 3.115689 1_455
Ga4 Th1 3.115691 1_555
Ga4 Th0 3.269217 1_555
Ga5 Ga6 3.001614 1_555
Ga5 Ga6 3.001621 1_655
Ga5 Th0 3.115689 1_655
Ga5 Th0 3.115691 1_555
Ga5 Th1 3.269217 1_555
Ga6 Th1 3.023862 1_556
Ga6 Th0 3.331080 1_555
Ga6 Th0 3.331080 1_545
Ga7 Th0 3.023862 1_554
Ga7 Th1 3.331080 1_555
Ga7 Th1 3.331080 1_565
Co0 Ga7 2.316403 1_555
Co0 Ga2 2.384258 1_565
Co0 Ga5 2.384258 1_555
Co0 Ga4 2.488481 1_655
Co0 Ga3 2.488481 1_655
Co0 Ga4 2.488488 1_555
Co0 Ga3 2.488488 1_555
Co0 Th0 3.215996 1_655
Co0 Th0 3.216004 1_555
Co1 Ga6 2.316403 1_555
Co1 Ga3 2.384258 1_545
Co1 Ga4 2.384258 1_555
Co1 Ga2 2.488481 1_455
Co1 Ga5 2.488481 1_455
Co1 Ga2 2.488488 1_555
Co1 Ga5 2.488488 1_555
Co1 Th1 3.215996 1_455
Co1 Th1 3.216004 1_555
