# generated using pymatgen
data_Ba4Ge20Au3
_symmetry_space_group_name_H-M   'P 1'
_cell_length_a   11.00371100
_cell_length_b   11.00371100
_cell_length_c   11.00371100
_cell_angle_alpha   90.00000000
_cell_angle_beta   90.00000000
_cell_angle_gamma   90.00000000
_symmetry_Int_Tables_number   1
_chemical_formula_structural   Ba4Ge20Au3
_chemical_formula_sum   'Ba8 Ge40 Au6'
_cell_volume   1332.34754751
_cell_formula_units_Z   2
loop_
 _symmetry_equiv_pos_site_id
 _symmetry_equiv_pos_as_xyz
  1  'x, y, z'
loop_
 _atom_site_type_symbol
 _atom_site_label
 _atom_site_symmetry_multiplicity
 _atom_site_fract_x
 _atom_site_fract_y
 _atom_site_fract_z
 _atom_site_occupancy
  Ba  Ba0  1  0.00000000  0.00000000  0.00000000  1
  Ba  Ba1  1  0.50000000  0.50000000  0.50000000  1
  Ba  Ba2  1  0.25000000  0.50000000  0.00000000  1
  Ba  Ba3  1  0.75000000  0.50000000  0.00000000  1
  Ba  Ba4  1  0.50000000  0.00000000  0.25000000  1
  Ba  Ba5  1  0.50000000  0.00000000  0.75000000  1
  Ba  Ba6  1  0.00000000  0.75000000  0.50000000  1
  Ba  Ba7  1  0.00000000  0.25000000  0.50000000  1
  Ge  Ge0  1  0.18305000  0.18305000  0.18305000  1
  Ge  Ge1  1  0.68305000  0.31695000  0.68305000  1
  Ge  Ge2  1  0.68305000  0.68305000  0.31695000  1
  Ge  Ge3  1  0.31695000  0.68305000  0.68305000  1
  Ge  Ge4  1  0.81695000  0.81695000  0.18305000  1
  Ge  Ge5  1  0.18305000  0.81695000  0.81695000  1
  Ge  Ge6  1  0.81695000  0.18305000  0.81695000  1
  Ge  Ge7  1  0.31695000  0.31695000  0.31695000  1
  Ge  Ge8  1  0.81695000  0.81695000  0.81695000  1
  Ge  Ge9  1  0.31695000  0.68305000  0.31695000  1
  Ge  Ge10  1  0.31695000  0.31695000  0.68305000  1
  Ge  Ge11  1  0.68305000  0.31695000  0.31695000  1
  Ge  Ge12  1  0.18305000  0.18305000  0.81695000  1
  Ge  Ge13  1  0.81695000  0.18305000  0.18305000  1
  Ge  Ge14  1  0.18305000  0.81695000  0.18305000  1
  Ge  Ge15  1  0.68305000  0.68305000  0.68305000  1
  Ge  Ge16  1  0.00000000  0.30862300  0.11670400  1
  Ge  Ge17  1  0.50000000  0.38329600  0.80862300  1
  Ge  Ge18  1  0.50000000  0.61670400  0.19137700  1
  Ge  Ge19  1  0.61670400  0.80862300  0.50000000  1
  Ge  Ge20  1  0.38329600  0.80862300  0.50000000  1
  Ge  Ge21  1  0.19137700  0.50000000  0.61670400  1
  Ge  Ge22  1  0.80862300  0.50000000  0.61670400  1
  Ge  Ge23  1  0.11670400  0.00000000  0.30862300  1
  Ge  Ge24  1  0.30862300  0.11670400  0.00000000  1
  Ge  Ge25  1  0.69137700  0.88329600  0.00000000  1
  Ge  Ge26  1  0.11670400  0.00000000  0.69137700  1
  Ge  Ge27  1  0.69137700  0.11670400  0.00000000  1
  Ge  Ge28  1  0.88329600  0.00000000  0.30862300  1
  Ge  Ge29  1  0.88329600  0.00000000  0.69137700  1
  Ge  Ge30  1  0.30862300  0.88329600  0.00000000  1
  Ge  Ge31  1  0.00000000  0.69137700  0.88329600  1
  Ge  Ge32  1  0.00000000  0.30862300  0.88329600  1
  Ge  Ge33  1  0.00000000  0.69137700  0.11670400  1
  Ge  Ge34  1  0.80862300  0.50000000  0.38329600  1
  Ge  Ge35  1  0.19137700  0.50000000  0.38329600  1
  Ge  Ge36  1  0.61670400  0.19137700  0.50000000  1
  Ge  Ge37  1  0.38329600  0.19137700  0.50000000  1
  Ge  Ge38  1  0.50000000  0.61670400  0.80862300  1
  Ge  Ge39  1  0.50000000  0.38329600  0.19137700  1
  Au  Au0  1  0.25000000  0.00000000  0.50000000  1
  Au  Au1  1  0.75000000  0.00000000  0.50000000  1
  Au  Au2  1  0.00000000  0.50000000  0.25000000  1
  Au  Au3  1  0.00000000  0.50000000  0.75000000  1
  Au  Au4  1  0.50000000  0.75000000  0.00000000  1
  Au  Au5  1  0.50000000  0.25000000  0.00000000  1
loop_
_geom_bond_atom_site_label_1
_geom_bond_atom_site_label_2
_geom_bond_distance
_geom_bond_site_symmetry_2
Ba0 Ge0 3.488747 1_555
Ba0 Ge13 3.488747 1_455
Ba0 Ge12 3.488747 1_554
Ba0 Ge14 3.488747 1_545
Ba0 Ge4 3.488747 1_445
Ba0 Ge6 3.488747 1_454
Ba0 Ge5 3.488747 1_544
Ba0 Ge8 3.488747 1_444
Ba0 Ge33 3.630691 1_545
Ba0 Ge27 3.630691 1_455
Ba0 Ge24 3.630691 1_555
Ba0 Ge16 3.630691 1_555
Ba0 Ge28 3.630691 1_455
Ba0 Ge30 3.630691 1_545
Ba0 Ge32 3.630691 1_554
Ba0 Ge23 3.630691 1_555
Ba0 Ge25 3.630691 1_445
Ba0 Ge26 3.630691 1_554
Ba0 Ge29 3.630691 1_454
Ba0 Ge31 3.630691 1_544
Ba1 Ge7 3.488747 1_555
Ba1 Ge10 3.488747 1_555
Ba1 Ge9 3.488747 1_555
Ba1 Ge11 3.488747 1_555
Ba1 Ge1 3.488747 1_555
Ba1 Ge2 3.488747 1_555
Ba1 Ge3 3.488747 1_555
Ba1 Ge15 3.488747 1_555
Ba1 Ge34 3.630691 1_555
Ba1 Ge35 3.630691 1_555
Ba1 Ge17 3.630691 1_555
Ba1 Ge20 3.630691 1_555
Ba1 Ge37 3.630691 1_555
Ba1 Ge39 3.630691 1_555
Ba1 Ge18 3.630691 1_555
Ba1 Ge38 3.630691 1_555
Ba1 Ge21 3.630691 1_555
Ba1 Ge36 3.630691 1_555
Ba1 Ge22 3.630691 1_555
Ba1 Ge19 3.630691 1_555
Ba2 Ge33 3.694773 1_555
Ba2 Ge18 3.694773 1_555
Ba2 Ge39 3.694773 1_555
Ba2 Ge16 3.694773 1_555
Ba2 Ge17 3.694773 1_554
Ba2 Ge38 3.694773 1_554
Ba2 Ge32 3.694773 1_554
Ba2 Ge31 3.694773 1_554
Ba3 Ge16 3.694773 1_655
Ba3 Ge18 3.694773 1_555
Ba3 Ge39 3.694773 1_555
Ba3 Ge33 3.694773 1_655
Ba3 Ge17 3.694773 1_554
Ba3 Ge31 3.694773 1_654
Ba3 Ge38 3.694773 1_554
Ba3 Ge32 3.694773 1_654
Ba4 Ge27 3.694773 1_555
Ba4 Ge36 3.694773 1_555
Ba4 Ge24 3.694773 1_555
Ba4 Ge37 3.694773 1_555
Ba4 Ge20 3.694773 1_545
Ba4 Ge30 3.694773 1_545
Ba4 Ge25 3.694773 1_545
Ba4 Ge19 3.694773 1_545
Ba5 Ge36 3.694773 1_555
Ba5 Ge27 3.694773 1_556
Ba5 Ge24 3.694773 1_556
Ba5 Ge37 3.694773 1_555
Ba5 Ge20 3.694773 1_545
Ba5 Ge30 3.694773 1_546
Ba5 Ge25 3.694773 1_546
Ba5 Ge19 3.694773 1_545
Ba6 Ge34 3.694773 1_455
Ba6 Ge21 3.694773 1_555
Ba6 Ge23 3.694773 1_565
Ba6 Ge35 3.694773 1_555
Ba6 Ge26 3.694773 1_565
Ba6 Ge28 3.694773 1_465
Ba6 Ge22 3.694773 1_455
Ba6 Ge29 3.694773 1_465
Ba7 Ge23 3.694773 1_555
Ba7 Ge26 3.694773 1_555
Ba7 Ge34 3.694773 1_455
Ba7 Ge21 3.694773 1_555
Ba7 Ge35 3.694773 1_555
Ba7 Ge29 3.694773 1_455
Ba7 Ge22 3.694773 1_455
Ba7 Ge28 3.694773 1_455
Ge0 Ge16 2.549388 1_555
Ge0 Ge23 2.549388 1_555
Ge0 Ge24 2.549388 1_555
Ge0 Ge7 2.551998 1_555
Ge1 Ge22 2.549388 1_555
Ge1 Ge17 2.549388 1_555
Ge1 Ge36 2.549388 1_555
Ge1 Ge6 2.551998 1_555
Ge2 Ge34 2.549388 1_555
Ge2 Ge4 2.551998 1_555
Ge3 Ge38 2.549388 1_555
Ge3 Ge5 2.551998 1_555
Ge10 Ge17 2.549388 1_555
Ge10 Ge21 2.549388 1_555
Ge10 Ge37 2.549388 1_555
Ge10 Ge12 2.551998 1_555
Ge11 Ge34 2.549388 1_555
Ge11 Ge36 2.549388 1_555
Ge11 Ge39 2.549388 1_555
Ge11 Ge13 2.551998 1_555
Ge12 Ge26 2.549388 1_555
Ge12 Ge32 2.549388 1_555
Ge12 Ge24 2.549388 1_556
Ge13 Ge27 2.549388 1_555
Ge13 Ge28 2.549388 1_555
Ge13 Ge16 2.549388 1_655
Ge14 Ge33 2.549388 1_555
Ge14 Ge30 2.549388 1_555
Ge14 Ge23 2.549388 1_565
Ge14 Ge9 2.551998 1_555
Ge15 Ge22 2.549388 1_555
Ge15 Ge38 2.549388 1_555
Ge15 Ge19 2.549388 1_555
Ge15 Ge8 2.551998 1_555
Ge18 Ge9 2.549388 1_555
Ge18 Ge2 2.549388 1_555
Ge19 Ge2 2.549388 1_555
Ge20 Ge9 2.549388 1_555
Ge20 Ge3 2.549388 1_555
Ge21 Ge3 2.549388 1_555
Ge25 Ge4 2.549388 1_555
Ge25 Ge8 2.549388 1_554
Ge26 Ge5 2.549388 1_545
Ge27 Ge6 2.549388 1_554
Ge28 Ge4 2.549388 1_545
Ge29 Ge6 2.549388 1_555
Ge29 Ge8 2.549388 1_545
Ge30 Ge5 2.549388 1_554
Ge31 Ge5 2.549388 1_555
Ge31 Ge8 2.549388 1_455
Ge32 Ge6 2.549388 1_455
Ge33 Ge4 2.549388 1_455
Ge35 Ge7 2.549388 1_555
Ge35 Ge9 2.549388 1_555
Ge37 Ge7 2.549388 1_555
Ge39 Ge7 2.549388 1_555
Au0 Ge37 2.566319 1_555
Au0 Ge20 2.566319 1_545
Au0 Ge23 2.566319 1_555
Au0 Ge26 2.566319 1_555
Au0 Ba7 3.890399 1_555
Au0 Ba6 3.890399 1_545
Au0 Ba4 3.890399 1_555
Au0 Ba5 3.890399 1_555
Au1 Ge36 2.566319 1_555
Au1 Ge28 2.566319 1_555
Au1 Ge19 2.566319 1_545
Au1 Ge29 2.566319 1_555
Au1 Ba7 3.890399 1_655
Au1 Ba4 3.890399 1_555
Au1 Ba6 3.890399 1_645
Au1 Ba5 3.890399 1_555
Au2 Ge35 2.566319 1_555
Au2 Ge33 2.566319 1_555
Au2 Ge34 2.566319 1_455
Au2 Ge16 2.566319 1_555
Au2 Ba7 3.890399 1_555
Au2 Ba6 3.890399 1_555
Au2 Ba3 3.890399 1_455
Au2 Ba2 3.890399 1_555
Au3 Ge21 2.566319 1_555
Au3 Ge22 2.566319 1_455
Au3 Ge31 2.566319 1_555
Au3 Ge32 2.566319 1_555
Au3 Ba7 3.890399 1_555
Au3 Ba2 3.890399 1_556
Au3 Ba6 3.890399 1_555
Au3 Ba3 3.890399 1_456
Au4 Ge18 2.566319 1_555
Au4 Ge30 2.566319 1_555
Au4 Ge25 2.566319 1_555
Au4 Ge38 2.566319 1_554
Au4 Ba5 3.890399 1_564
Au4 Ba3 3.890399 1_555
Au4 Ba4 3.890399 1_565
Au4 Ba2 3.890399 1_555
Au5 Ge39 2.566319 1_555
Au5 Ge17 2.566319 1_554
Au5 Ge24 2.566319 1_555
Au5 Ge27 2.566319 1_555
Au5 Ba4 3.890399 1_555
Au5 Ba5 3.890399 1_554
Au5 Ba3 3.890399 1_555
Au5 Ba2 3.890399 1_555
