# generated using pymatgen
data_U3Si2C3
_symmetry_space_group_name_H-M   'P 1'
_cell_length_a   9.83738298
_cell_length_b   9.83738298
_cell_length_c   9.83738298
_cell_angle_alpha   158.42877729
_cell_angle_beta   158.42877729
_cell_angle_gamma   30.69211493
_symmetry_Int_Tables_number   1
_chemical_formula_structural   U3Si2C3
_chemical_formula_sum   'U3 Si2 C3'
_cell_volume   128.59955696
_cell_formula_units_Z   1
loop_
 _symmetry_equiv_pos_site_id
 _symmetry_equiv_pos_as_xyz
  1  'x, y, z'
loop_
 _atom_site_type_symbol
 _atom_site_label
 _atom_site_symmetry_multiplicity
 _atom_site_fract_x
 _atom_site_fract_y
 _atom_site_fract_z
 _atom_site_occupancy
  U  U0  1  0.68373800  0.68373800  0.00000000  1
  U  U1  1  0.31626200  0.31626200  0.00000000  1
  U  U2  1  0.50000000  0.50000000  0.00000000  1
  Si  Si0  1  0.09642400  0.09642400  0.00000000  1
  Si  Si1  1  0.90357600  0.90357600  0.00000000  1
  C  C0  1  0.25000000  0.75000000  0.50000000  1
  C  C1  1  0.75000000  0.25000000  0.50000000  1
  C  C2  1  0.00000000  0.00000000  0.00000000  1
loop_
_geom_bond_atom_site_label_1
_geom_bond_atom_site_label_2
_geom_bond_distance
_geom_bond_site_symmetry_2
C0 U1 2.229246 1_555
C0 U1 2.229246 1_566
C0 U0 2.229246 1_455
C0 U0 2.229246 1_556
C1 U1 2.229246 1_555
C1 U0 2.229246 1_556
C1 U1 2.229246 1_656
C1 U0 2.229246 1_545
C2 Si1 1.829478 1_445
C2 Si0 1.829478 1_555
C2 U2 2.603447 1_444
C2 U2 2.603447 1_556
C2 U2 2.603447 1_545
C2 U2 2.603447 1_455
