# generated using pymatgen
data_CuTeO3
_symmetry_space_group_name_H-M   'P 1'
_cell_length_a   5.82166500
_cell_length_b   6.06974100
_cell_length_c   7.20050400
_cell_angle_alpha   90.00000000
_cell_angle_beta   90.00000000
_cell_angle_gamma   90.00000000
_symmetry_Int_Tables_number   1
_chemical_formula_structural   CuTeO3
_chemical_formula_sum   'Cu4 Te4 O12'
_cell_volume   254.43700026
_cell_formula_units_Z   4
loop_
 _symmetry_equiv_pos_site_id
 _symmetry_equiv_pos_as_xyz
  1  'x, y, z'
loop_
 _atom_site_type_symbol
 _atom_site_label
 _atom_site_symmetry_multiplicity
 _atom_site_fract_x
 _atom_site_fract_y
 _atom_site_fract_z
 _atom_site_occupancy
  Cu  Cu0  1  0.00000000  0.50000000  0.00000000  1
  Cu  Cu1  1  0.50000000  0.00000000  0.00000000  1
  Cu  Cu2  1  0.50000000  0.00000000  0.50000000  1
  Cu  Cu3  1  0.00000000  0.50000000  0.50000000  1
  Te  Te0  1  0.99307400  0.99241100  0.25000000  1
  Te  Te1  1  0.49307400  0.50758900  0.75000000  1
  Te  Te2  1  0.50692600  0.49241100  0.25000000  1
  Te  Te3  1  0.00692600  0.00758900  0.75000000  1
  O  O0  1  0.41197300  0.69963200  0.44290200  1
  O  O1  1  0.91197300  0.80036800  0.55709800  1
  O  O2  1  0.08802700  0.19963200  0.05709800  1
  O  O3  1  0.58802700  0.30036800  0.94290200  1
  O  O4  1  0.58802700  0.30036800  0.55709800  1
  O  O5  1  0.08802700  0.19963200  0.44290200  1
  O  O6  1  0.91197300  0.80036800  0.94290200  1
  O  O7  1  0.41197300  0.69963200  0.05709800  1
  O  O8  1  0.66241800  0.05078800  0.25000000  1
  O  O9  1  0.16241800  0.44921200  0.75000000  1
  O  O10  1  0.83758200  0.55078800  0.25000000  1
  O  O11  1  0.33758200  0.94921200  0.75000000  1
loop_
_geom_bond_atom_site_label_1
_geom_bond_atom_site_label_2
_geom_bond_distance
_geom_bond_site_symmetry_2
Cu0 O6 1.937924 1_454
Cu0 O2 1.937924 1_555
Cu0 O9 2.056584 1_554
Cu0 O10 2.056584 1_455
Cu1 O3 1.937924 1_554
Cu1 O7 1.937924 1_545
Cu1 O8 2.056584 1_555
Cu1 O11 2.056584 1_544
Cu2 O4 1.937924 1_555
Cu2 O0 1.937924 1_545
Cu2 O8 2.056584 1_555
Cu2 O11 2.056584 1_545
Cu3 O5 1.937924 1_555
Cu3 O1 1.937924 1_455
Cu3 O9 2.056584 1_555
Cu3 O10 2.056584 1_455
O0 Te2 1.953682 1_555
O1 Te3 1.953682 1_665
O2 Te0 1.953682 1_445
O3 Te1 1.953682 1_555
O4 Te1 1.953682 1_555
O5 Te0 1.953682 1_445
O6 Te3 1.953682 1_665
O7 Te2 1.953682 1_555
O8 Te0 1.957308 1_545
O9 Te1 1.957308 1_555
O10 Te2 1.957308 1_555
O11 Te3 1.957308 1_565
