# generated using pymatgen
data_Na2Y2Si(SO6)2
_symmetry_space_group_name_H-M   'P 1'
_cell_length_a   9.30703023
_cell_length_b   9.30702988
_cell_length_c   23.89514785
_cell_angle_alpha   90.31663485
_cell_angle_beta   89.68336509
_cell_angle_gamma   119.82314037
_symmetry_Int_Tables_number   1
_chemical_formula_structural   Na2Y2Si(SO6)2
_chemical_formula_sum   'Na12 Y12 Si6 S12 O72'
_cell_volume   1795.66349204
_cell_formula_units_Z   6
loop_
 _symmetry_equiv_pos_site_id
 _symmetry_equiv_pos_as_xyz
  1  'x, y, z'
loop_
 _atom_site_type_symbol
 _atom_site_label
 _atom_site_symmetry_multiplicity
 _atom_site_fract_x
 _atom_site_fract_y
 _atom_site_fract_z
 _atom_site_occupancy
  Na  Na0  1  0.00162763  0.62472439  0.25213915  1
  Na  Na1  1  0.37527561  0.99837237  0.75213915  1
  Na  Na2  1  0.65380544  0.97229512  0.59595775  1
  Na  Na3  1  0.02770488  0.34619456  0.09595775  1
  Na  Na4  1  0.98975640  0.68067399  0.92802999  1
  Na  Na5  1  0.31932601  0.01024360  0.42802999  1
  Na  Na6  1  0.02224414  0.97725718  0.50196339  1
  Na  Na7  1  0.02274282  0.97775586  0.00196339  1
  Na  Na8  1  0.65289666  0.28792060  0.83569155  1
  Na  Na9  1  0.71207940  0.34710334  0.33569155  1
  Na  Na10  1  0.31965405  0.65251305  0.16708314  1
  Na  Na11  1  0.34748695  0.68034595  0.66708314  1
  Y  Y0  1  0.99240549  0.00818813  0.35029078  1
  Y  Y1  1  0.99181187  0.00759451  0.85029078  1
  Y  Y2  1  0.00409305  0.99856329  0.64946895  1
  Y  Y3  1  0.00143671  0.99590695  0.14946895  1
  Y  Y4  1  0.66602849  0.32546201  0.68404234  1
  Y  Y5  1  0.67453799  0.33397151  0.18404234  1
  Y  Y6  1  0.65700999  0.32757755  0.98266067  1
  Y  Y7  1  0.67242245  0.34299001  0.48266067  1
  Y  Y8  1  0.33115124  0.68396110  0.01698952  1
  Y  Y9  1  0.31603890  0.66884876  0.51698952  1
  Y  Y10  1  0.31542785  0.64673786  0.31621224  1
  Y  Y11  1  0.35326214  0.68457214  0.81621224  1
  Si  Si0  1  0.00039444  0.30231099  0.24535966  1
  Si  Si1  1  0.69768901  0.99960556  0.74535966  1
  Si  Si2  1  0.36636915  0.03379689  0.58098327  1
  Si  Si3  1  0.96620311  0.63363085  0.08098327  1
  Si  Si4  1  0.32870053  0.97267004  0.91259811  1
  Si  Si5  1  0.02732996  0.67129947  0.41259811  1
  S  S0  1  0.29774121  -0.00012915  0.25243469  1
  S  S1  1  0.70268892  0.70393224  0.24996983  1
  S  S2  1  0.29606776  0.29731108  0.74996983  1
  S  S3  1  0.00012915  0.70225879  0.75243469  1
  S  S4  1  0.96386163  0.33059267  0.58311359  1
  S  S5  1  0.66612595  0.63443278  0.58411890  1
  S  S6  1  0.66940733  0.03613837  0.08311359  1
  S  S7  1  0.36556722  0.33387405  0.08411890  1
  S  S8  1  0.63343281  0.66470597  0.91752327  1
  S  S9  1  0.03977295  0.37468285  0.91786354  1
  S  S10  1  0.62531715  0.96022705  0.41786354  1
  S  S11  1  0.33529403  0.36656719  0.41752327  1
  O  O0  1  0.21965497  0.01667790  0.30438337  1
  O  O1  1  0.80880234  0.78252712  0.29968957  1
  O  O2  1  0.99183218  0.19179273  0.29923352  1
  O  O3  1  0.21747288  0.19119766  0.79968957  1
  O  O4  1  0.98332210  0.78034503  0.80438337  1
  O  O5  1  0.80820727  0.00816782  0.79923352  1
  O  O6  1  0.78421292  0.99135291  0.68623472  1
  O  O7  1  0.19828085  0.21514645  0.69925763  1
  O  O8  1  0.02803423  0.81342537  0.70386712  1
  O  O9  1  0.78485355  0.80171915  0.19925763  1
  O  O10  1  0.00864709  0.21578708  0.18623472  1
  O  O11  1  0.18657463  0.97196577  0.20386712  1
  O  O12  1  0.88827763  0.35774797  0.63397528  1
  O  O13  1  0.48282548  0.12966045  0.63615166  1
  O  O14  1  0.65685773  0.54070247  0.63498159  1
  O  O15  1  0.87033955  0.51717452  0.13615166  1
  O  O16  1  0.64225203  0.11172237  0.13397528  1
  O  O17  1  0.45929753  0.34314227  0.13498159  1
  O  O18  1  0.44631512  0.31337645  0.03363851  1
  O  O19  1  0.86318720  0.54162463  0.02361149  1
  O  O20  1  0.68417000  0.13686081  0.03343880  1
  O  O21  1  0.45837537  0.13681280  0.52361149  1
  O  O22  1  0.68662355  0.55368488  0.53363851  1
  O  O23  1  0.86313919  0.31583000  0.53343880  1
  O  O24  1  0.54866007  0.67663886  0.96806280  1
  O  O25  1  0.13505166  0.44958960  0.97010995  1
  O  O26  1  0.30353628  0.84679941  0.96506689  1
  O  O27  1  0.55041040  0.86494834  0.47010995  1
  O  O28  1  0.32336114  0.45133993  0.46806280  1
  O  O29  1  0.15320059  0.69646372  0.46506689  1
  O  O30  1  0.11338796  0.65281892  0.35429692  1
  O  O31  1  0.52244798  0.87013056  0.36887756  1
  O  O32  1  0.35464082  0.46512779  0.36687817  1
  O  O33  1  0.12986944  0.47755202  0.86887756  1
  O  O34  1  0.34718108  0.88661204  0.85429692  1
  O  O35  1  0.53487221  0.64535918  0.86687817  1
  O  O36  1  0.02656559  0.84858213  0.41200541  1
  O  O37  1  0.79518342  0.98743879  0.41329818  1
  O  O38  1  0.18406669  0.19904898  0.41375402  1
  O  O39  1  0.01256121  0.20481658  0.91329818  1
  O  O40  1  0.15141787  0.97343441  0.91200541  1
  O  O41  1  0.80095102  0.81593331  0.91375402  1
  O  O42  1  0.96630719  0.17208280  0.58694036  1
  O  O43  1  0.17907292  0.00773642  0.58578425  1
  O  O44  1  0.81245868  0.80636110  0.58643669  1
  O  O45  1  0.99226358  0.82092708  0.08578425  1
  O  O46  1  0.82791720  0.03369281  0.08694036  1
  O  O47  1  0.19363890  0.18754132  0.08643669  1
  O  O48  1  0.66820705  0.16242616  0.74803785  1
  O  O49  1  0.46399382  0.31324984  0.74510898  1
  O  O50  1  0.85079024  0.53939975  0.74492736  1
  O  O51  1  0.68675016  0.53600618  0.24510898  1
  O  O52  1  0.83757384  0.33179295  0.24803785  1
  O  O53  1  0.46060025  0.14920976  0.24492736  1
  O  O54  1  0.66112946  0.52007427  0.92013476  1
  O  O55  1  0.87616845  0.36940387  0.92051367  1
  O  O56  1  0.49346925  0.15564860  0.91896970  1
  O  O57  1  0.63059613  0.12383155  0.42051367  1
  O  O58  1  0.47992573  0.33887054  0.42013476  1
  O  O59  1  0.84435140  0.50653075  0.41896970  1
  O  O60  1  0.34974177  0.48490609  0.08014302  1
  O  O61  1  0.14650475  0.63493638  0.08063678  1
  O  O62  1  0.52901119  0.86527333  0.07824301  1
  O  O63  1  0.36506362  0.85349525  0.58063678  1
  O  O64  1  0.51509391  0.65025823  0.58014302  1
  O  O65  1  0.13472667  0.47098881  0.57824301  1
  O  O66  1  0.31658892  0.84942433  0.25521280  1
  O  O67  1  0.53847511  0.68901054  0.25577050  1
  O  O68  1  0.16487580  0.49280041  0.24783282  1
  O  O69  1  0.31098946  0.46152489  0.75577050  1
  O  O70  1  0.15057567  0.68341108  0.75521280  1
  O  O71  1  0.50719959  0.83512420  0.74783282  1
loop_
_geom_bond_atom_site_label_1
_geom_bond_atom_site_label_2
_geom_bond_distance
_geom_bond_site_symmetry_2
Na0 O52 2.373183 1_455
Na0 O68 2.383057 1_555
Na0 O30 2.619090 1_555
Na0 O66 2.622003 1_555
Na0 O51 2.625898 1_455
Na1 O48 2.373183 1_565
Na1 O71 2.383057 1_555
Na1 O34 2.619090 1_555
Na1 O70 2.622003 1_555
Na1 O49 2.625898 1_565
Na2 O63 2.372608 1_555
Na2 O6 2.443064 1_555
Na2 O42 2.565429 1_565
Na2 O44 2.622534 1_555
Na2 O64 2.633804 1_555
Na2 O13 2.808118 1_565
Na3 O61 2.372608 1_555
Na3 O10 2.443064 1_555
Na3 O46 2.565429 1_455
Na3 O47 2.622534 1_555
Na3 O60 2.633804 1_555
Na3 O15 2.808118 1_455
Na4 O40 2.400430 1_655
Na4 O55 2.548057 1_555
Na4 O19 2.601040 1_556
Na4 O41 2.645854 1_555
Na4 O54 2.660924 1_555
Na4 O26 2.687860 1_655
Na5 O36 2.400430 1_545
Na5 O57 2.548057 1_555
Na5 O21 2.601040 1_555
Na5 O38 2.645854 1_555
Na5 O58 2.660924 1_555
Na5 O29 2.687860 1_545
Na6 O43 2.415944 1_565
Na6 O36 2.464737 1_555
Na6 O44 2.705436 1_455
Na6 O38 2.809408 1_565
Na6 O42 2.927207 1_465
Na6 O37 3.035538 1_455
Na7 O45 2.415944 1_455
Na7 O40 2.464737 1_554
Na7 O47 2.705436 1_565
Na7 O41 2.809408 1_454
Na7 O46 2.927207 1_465
Na7 O39 3.035538 1_564
Na8 O56 2.419630 1_555
Na8 O48 2.430351 1_555
Na8 O55 2.731917 1_555
Na8 O49 2.879498 1_555
Na8 O54 2.921409 1_555
Na8 O50 3.049315 1_555
Na9 O59 2.419630 1_555
Na9 O52 2.430352 1_555
Na9 O57 2.731917 1_555
Na9 O51 2.879498 1_555
Na9 O58 2.921409 1_555
Na9 O53 3.049315 1_555
Na10 O68 2.424641 1_555
Na10 O61 2.580981 1_555
Na10 O60 2.686968 1_555
Na10 O66 2.793354 1_555
Na10 O67 2.847047 1_555
Na10 O62 2.896069 1_555
Na11 O71 2.424641 1_555
Na11 O63 2.580981 1_555
Na11 O64 2.686968 1_555
Na11 O70 2.793354 1_555
Na11 O69 2.847047 1_555
Na11 O65 2.896069 1_555
O0 S0 1.481374 1_555
O0 Y0 2.343494 1_455
O1 S1 1.485506 1_555
O1 Y0 2.284306 1_565
O2 Si0 1.628968 1_655
O2 Y0 2.107298 1_555
O3 S2 1.485506 1_555
O3 Y1 2.284306 1_455
O4 S3 1.481374 1_655
O4 Y1 2.343494 1_565
O5 Si1 1.628968 1_545
O5 Y1 2.107298 1_555
O6 Si1 1.642597 1_555
O6 Y2 2.192800 1_655
O7 S2 1.480263 1_555
O7 Y2 2.262451 1_545
O8 S3 1.492451 1_555
O8 Y2 2.262328 1_555
O9 S1 1.480263 1_555
O9 Y3 2.262451 1_655
O10 Si0 1.642597 1_555
O10 Y3 2.192800 1_545
O11 S0 1.492451 1_565
O11 Y3 2.262328 1_555
O12 S4 1.483172 1_555
O12 Y4 2.271250 1_555
O13 Si2 1.658170 1_555
O13 Y4 2.108472 1_555
O14 S5 1.476915 1_555
O14 Y4 2.364687 1_555
O15 Si3 1.658170 1_555
O15 Y5 2.108472 1_555
O16 S6 1.483172 1_555
O16 Y5 2.271249 1_555
O17 S7 1.476915 1_555
O17 Y5 2.364687 1_555
O18 S7 1.478589 1_555
O18 Y6 2.250373 1_554
O19 Si3 1.648282 1_555
O19 Y6 2.192090 1_554
O20 S6 1.479517 1_555
O20 Y6 2.271617 1_554
O21 Si2 1.648282 1_555
O21 Y7 2.192090 1_555
O22 S5 1.478589 1_555
O22 Y7 2.250373 1_555
O23 S4 1.479517 1_555
O23 Y7 2.271617 1_555
O24 S8 1.472544 1_555
O24 Y8 2.362135 1_556
O25 S9 1.489523 1_555
O25 Y8 2.319420 1_556
O26 Si4 1.655052 1_555
O26 Y8 2.077015 1_556
O27 S10 1.489523 1_555
O27 Y9 2.319420 1_555
O28 S11 1.472544 1_555
O28 Y9 2.362135 1_555
O29 Si5 1.655052 1_555
O29 Y9 2.077015 1_555
O30 Si5 1.653454 1_555
O30 Y10 2.110360 1_555
O31 S10 1.480849 1_555
O31 Y10 2.373216 1_555
O32 S11 1.477824 1_555
O32 Y10 2.257638 1_555
O33 S9 1.480849 1_555
O33 Y11 2.373216 1_555
O34 Si4 1.653454 1_555
O34 Y11 2.110360 1_555
O35 S8 1.477824 1_555
O35 Y11 2.257638 1_555
O36 Si5 1.653664 1_555
O36 Y0 2.231923 1_465
O37 S10 1.474990 1_555
O37 Y0 2.300735 1_565
O38 S11 1.495689 1_555
O38 Y0 2.342102 1_455
O39 S9 1.474990 1_555
O39 Y1 2.300735 1_455
O40 Si4 1.653664 1_555
O40 Y1 2.231923 1_465
O41 S8 1.495689 1_555
O41 Y1 2.342102 1_565
O42 S4 1.490024 1_555
O42 Y2 2.358292 1_645
O43 Si2 1.639572 1_555
O43 Y2 2.193384 1_545
O44 S5 1.500201 1_555
O44 Y2 2.340088 1_655
O45 Si3 1.639572 1_555
O45 Y3 2.193384 1_655
O46 S6 1.490024 1_555
O46 Y3 2.358292 1_645
O47 S7 1.500201 1_555
O47 Y3 2.340088 1_545
O48 Si1 1.669749 1_545
O48 Y4 2.167450 1_555
O49 S2 1.498570 1_555
O49 Y4 2.331693 1_555
O50 S3 1.471652 1_655
O50 Y4 2.372383 1_555
O51 S1 1.498570 1_555
O51 Y5 2.331693 1_555
O52 Si0 1.669749 1_655
O52 Y5 2.167450 1_555
O53 S0 1.471652 1_555
O53 Y5 2.372383 1_555
O54 S8 1.492829 1_555
O54 Y6 2.324665 1_555
O55 S9 1.499837 1_655
O55 Y6 2.387546 1_555
O56 Si4 1.636196 1_545
O56 Y6 2.183932 1_555
O57 S10 1.499837 1_545
O57 Y7 2.387546 1_555
O58 S11 1.492830 1_555
O58 Y7 2.324665 1_555
O59 Si5 1.636196 1_655
O59 Y7 2.183932 1_555
O60 S7 1.488005 1_555
O60 Y8 2.468195 1_555
O61 Si3 1.672038 1_455
O61 Y8 2.161793 1_555
O62 S6 1.477377 1_565
O62 Y8 2.300569 1_555
O63 Si2 1.672038 1_565
O63 Y9 2.161793 1_555
O64 S5 1.488005 1_555
O64 Y9 2.468195 1_555
O65 S4 1.477377 1_455
O65 Y9 2.300569 1_555
O66 S0 1.497073 1_565
O66 Y10 2.386036 1_555
O67 S1 1.470064 1_555
O67 Y10 2.389741 1_555
O68 Si0 1.670464 1_555
O68 Y10 2.165272 1_555
O69 S2 1.470063 1_555
O69 Y11 2.389741 1_555
O70 S3 1.497073 1_555
O70 Y11 2.386036 1_555
O71 Si1 1.670464 1_555
O71 Y11 2.165272 1_555
