# generated using pymatgen
data_MgNi2(WO4)2
_symmetry_space_group_name_H-M   'P 1'
_cell_length_a   4.85885715
_cell_length_b   5.14252406
_cell_length_c   5.92092400
_cell_angle_alpha   89.99995880
_cell_angle_beta   89.99994767
_cell_angle_gamma   91.71055473
_symmetry_Int_Tables_number   1
_chemical_formula_structural   MgNi2(WO4)2
_chemical_formula_sum   'Mg1 Ni2 W2 O8'
_cell_volume   147.87895599
_cell_formula_units_Z   1
loop_
 _symmetry_equiv_pos_site_id
 _symmetry_equiv_pos_as_xyz
  1  'x, y, z'
loop_
 _atom_site_type_symbol
 _atom_site_label
 _atom_site_symmetry_multiplicity
 _atom_site_fract_x
 _atom_site_fract_y
 _atom_site_fract_z
 _atom_site_occupancy
  Mg  Mg0  1  0.00000000  0.75000000  0.38600300  1
  Ni  Ni0  1  0.50000000  0.25000000  0.64014600  1
  Ni  Ni1  1  0.50000000  0.75000000  0.35348400  1
  W  W0  1  0.00000000  0.24999900  0.14980200  1
  W  W1  1  0.99999900  0.74999900  0.85062900  1
  O  O0  1  0.74988900  0.07644800  0.36370200  1
  O  O1  1  0.25011100  0.42355200  0.36370200  1
  O  O2  1  0.25617900  0.90298500  0.61947800  1
  O  O3  1  0.74382100  0.59701500  0.61947800  1
  O  O4  1  0.78540000  0.06684800  0.88786000  1
  O  O5  1  0.21460000  0.43315200  0.88785900  1
  O  O6  1  0.78087500  0.58008900  0.12642800  1
  O  O7  1  0.21912500  0.91991100  0.12642800  1
loop_
_geom_bond_atom_site_label_1
_geom_bond_atom_site_label_2
_geom_bond_distance
_geom_bond_site_symmetry_2
Mg0 O3 2.005204 1_455
Mg0 O2 2.005206 1_555
Mg0 O7 2.050280 1_555
Mg0 O6 2.050282 1_455
Mg0 O0 2.105785 1_465
Mg0 O1 2.105785 1_555
Ni0 O3 2.115848 1_555
Ni0 O2 2.115848 1_545
Ni0 O0 2.239328 1_555
Ni0 O1 2.239328 1_555
Ni0 O5 2.244826 1_555
Ni0 O4 2.244831 1_555
Ni1 O1 2.043147 1_555
Ni1 O0 2.043147 1_565
Ni1 O6 2.122385 1_555
Ni1 O7 2.122386 1_555
Ni1 O2 2.135060 1_555
Ni1 O3 2.135061 1_555
O0 W0 1.952591 1_655
O1 W0 1.952597 1_555
O2 W1 1.995747 1_455
O3 W1 1.995740 1_555
O4 W1 1.972870 1_545
O4 W0 2.078732 1_656
O5 W1 1.972866 1_455
O5 W0 2.078739 1_556
O6 W0 2.035221 1_655
O6 W1 2.123236 1_554
O7 W0 2.035212 1_565
O7 W1 2.123248 1_454
