# generated using pymatgen
data_SrMgNiO3
_symmetry_space_group_name_H-M   'P 1'
_cell_length_a   5.98134113
_cell_length_b   5.97726150
_cell_length_c   3.33711300
_cell_angle_alpha   73.60154350
_cell_angle_beta   73.59632299
_cell_angle_gamma   40.92373932
_symmetry_Int_Tables_number   1
_chemical_formula_structural   SrMgNiO3
_chemical_formula_sum   'Sr1 Mg1 Ni1 O3'
_cell_volume   74.51988083
_cell_formula_units_Z   1
loop_
 _symmetry_equiv_pos_site_id
 _symmetry_equiv_pos_as_xyz
  1  'x, y, z'
loop_
 _atom_site_type_symbol
 _atom_site_label
 _atom_site_symmetry_multiplicity
 _atom_site_fract_x
 _atom_site_fract_y
 _atom_site_fract_z
 _atom_site_occupancy
  Sr  Sr0  1  0.87190801  0.17968142  0.63143371  1
  Mg  Mg0  1  0.18130042  0.48897092  0.32693791  1
  Ni  Ni0  1  0.55750590  0.86507137  0.95110433  1
  O  O0  1  0.67760640  0.98529184  0.33439256  1
  O  O1  1  0.37093675  0.67883684  0.10893965  1
  O  O2  1  0.07099752  0.37865761  0.94116085  1
loop_
_geom_bond_atom_site_label_1
_geom_bond_atom_site_label_2
_geom_bond_distance
_geom_bond_site_symmetry_2
Mg0 O1 2.028996 1_555
Mg0 O2 2.035638 1_554
Mg0 O2 2.049860 1_555
Mg0 O0 2.090612 1_545
Mg0 O0 2.090741 1_455
Ni0 O1 1.994006 1_556
Ni0 O0 2.092358 1_555
Ni0 O2 2.095251 1_655
Ni0 O2 2.095357 1_565
Ni0 O0 2.118127 1_556
O0 Sr0 2.650459 1_565
O0 Sr0 2.676849 1_564
O1 Sr0 2.626262 1_554
O1 Sr0 2.626840 1_464
O1 Sr0 2.723263 1_465
O1 Sr0 2.724758 1_555
O2 Sr0 2.680075 1_456
O2 Sr0 2.725876 1_455
