# generated using pymatgen
data_U2Cr30P19
_symmetry_space_group_name_H-M   'P 1'
_cell_length_a   14.56591575
_cell_length_b   14.56591575
_cell_length_c   3.44059300
_cell_angle_alpha   90.00000000
_cell_angle_beta   90.00000000
_cell_angle_gamma   119.99999888
_symmetry_Int_Tables_number   1
_chemical_formula_structural   U2Cr30P19
_chemical_formula_sum   'U2 Cr30 P19'
_cell_volume   632.17821443
_cell_formula_units_Z   1
loop_
 _symmetry_equiv_pos_site_id
 _symmetry_equiv_pos_as_xyz
  1  'x, y, z'
loop_
 _atom_site_type_symbol
 _atom_site_label
 _atom_site_symmetry_multiplicity
 _atom_site_fract_x
 _atom_site_fract_y
 _atom_site_fract_z
 _atom_site_occupancy
  U  U0  1  0.00000000  0.00000000  0.50000000  1
  U  U1  1  0.33333300  0.66666700  0.00000000  1
  Cr  Cr0  1  0.15646500  0.98140100  0.00000000  1
  Cr  Cr1  1  0.05819800  0.52376700  0.00000000  1
  Cr  Cr2  1  0.46556900  0.94180200  0.00000000  1
  Cr  Cr3  1  0.47623300  0.53443100  0.00000000  1
  Cr  Cr4  1  0.27602700  0.14652700  0.50000000  1
  Cr  Cr5  1  0.82493600  0.84353500  0.00000000  1
  Cr  Cr6  1  0.85347300  0.12950000  0.50000000  1
  Cr  Cr7  1  0.84740200  0.44382400  0.00000000  1
  Cr  Cr8  1  0.59642200  0.15259800  0.00000000  1
  Cr  Cr9  1  0.55617600  0.40357800  0.00000000  1
  Cr  Cr10  1  0.52402700  0.24820900  0.50000000  1
  Cr  Cr11  1  0.72418200  0.47597300  0.50000000  1
  Cr  Cr12  1  0.75179100  0.27581800  0.50000000  1
  Cr  Cr13  1  0.50934400  0.82263200  0.50000000  1
  Cr  Cr14  1  0.17736800  0.68671200  0.50000000  1
  Cr  Cr15  1  0.31328800  0.49065600  0.50000000  1
  Cr  Cr16  1  0.73091700  0.91780800  0.50000000  1
  Cr  Cr17  1  0.08219200  0.81310900  0.50000000  1
  Cr  Cr18  1  0.18689100  0.26908300  0.50000000  1
  Cr  Cr19  1  0.60230300  0.74564800  0.00000000  1
  Cr  Cr20  1  0.25435200  0.85665500  0.00000000  1
  Cr  Cr21  1  0.14334500  0.39769700  0.00000000  1
  Cr  Cr22  1  0.69025800  0.61929600  0.00000000  1
  Cr  Cr23  1  0.38070400  0.07096200  0.00000000  1
  Cr  Cr24  1  0.92903800  0.30974200  0.00000000  1
  Cr  Cr25  1  0.64479100  0.04499000  0.50000000  1
  Cr  Cr26  1  0.95501000  0.59980100  0.50000000  1
  Cr  Cr27  1  0.40019900  0.35520900  0.50000000  1
  Cr  Cr28  1  0.87050000  0.72397300  0.50000000  1
  Cr  Cr29  1  0.01859900  0.17506400  0.00000000  1
  P  P0  1  0.66666700  0.33333300  0.00000000  1
  P  P1  1  0.93790200  0.42320400  0.50000000  1
  P  P2  1  0.39875600  0.24042400  0.00000000  1
  P  P3  1  0.75957600  0.15833200  0.00000000  1
  P  P4  1  0.84166800  0.60124400  0.00000000  1
  P  P5  1  0.17056900  0.52191700  0.50000000  1
  P  P6  1  0.47808300  0.64865200  0.50000000  1
  P  P7  1  0.35134800  0.82943100  0.50000000  1
  P  P8  1  0.16248000  0.14552300  0.00000000  1
  P  P9  1  0.85447700  0.01695600  0.00000000  1
  P  P10  1  0.98304400  0.83752000  0.00000000  1
  P  P11  1  0.02840200  0.28406400  0.50000000  1
  P  P12  1  0.71593600  0.74433800  0.50000000  1
  P  P13  1  0.25566200  0.97159800  0.50000000  1
  P  P14  1  0.30040800  0.38024800  0.00000000  1
  P  P15  1  0.61975200  0.92016000  0.00000000  1
  P  P16  1  0.07984000  0.69959200  0.00000000  1
  P  P17  1  0.57679600  0.51469800  0.50000000  1
  P  P18  1  0.48530200  0.06209800  0.50000000  1
loop_
_geom_bond_atom_site_label_1
_geom_bond_atom_site_label_2
_geom_bond_distance
_geom_bond_site_symmetry_2
Cr0 P13 2.296486 1_555
Cr0 P13 2.296486 1_554
Cr0 P10 2.340748 1_455
Cr0 P8 2.348007 1_565
Cr0 U0 2.973942 1_565
Cr0 U0 2.973942 1_564
Cr1 P1 2.368264 1_454
Cr1 P1 2.368264 1_455
Cr1 P5 2.383972 1_554
Cr1 P5 2.383972 1_555
Cr1 P16 2.418890 1_555
Cr2 P18 2.368264 1_564
Cr2 P18 2.368264 1_565
Cr2 P7 2.383972 1_555
Cr2 P7 2.383972 1_554
Cr2 P15 2.418890 1_555
Cr3 P17 2.368264 1_555
Cr3 P17 2.368264 1_554
Cr3 P6 2.383972 1_555
Cr3 P6 2.383972 1_554
Cr3 P14 2.418890 1_555
Cr4 P2 2.362364 1_556
Cr4 P2 2.362364 1_555
Cr4 P8 2.381362 1_555
Cr4 P8 2.381362 1_556
Cr4 P13 2.413395 1_545
Cr5 P12 2.296486 1_554
Cr5 P12 2.296486 1_555
Cr5 P9 2.340742 1_565
Cr5 P10 2.348021 1_555
Cr5 U0 2.973942 1_664
Cr5 U0 2.973942 1_665
Cr6 P3 2.362364 1_556
Cr6 P3 2.362364 1_555
Cr6 P9 2.381372 1_556
Cr6 P9 2.381372 1_555
Cr6 P11 2.413395 1_655
Cr7 P1 2.276674 1_555
Cr7 P1 2.276674 1_554
Cr7 P0 2.298639 1_555
Cr7 P4 2.335847 1_555
Cr8 P18 2.276674 1_555
Cr8 P18 2.276674 1_554
Cr8 P0 2.298637 1_555
Cr8 P3 2.335847 1_555
Cr9 P17 2.276674 1_554
Cr9 P17 2.276674 1_555
Cr9 P0 2.298650 1_555
Cr9 P2 2.335847 1_555
Cr10 P2 2.468775 1_555
Cr10 P2 2.468775 1_556
Cr10 P18 2.477481 1_555
Cr10 P0 2.497483 1_555
Cr10 P0 2.497483 1_556
Cr11 P4 2.468775 1_555
Cr11 P4 2.468775 1_556
Cr11 P17 2.477481 1_555
Cr11 P0 2.497484 1_555
Cr11 P0 2.497484 1_556
Cr12 P3 2.468775 1_555
Cr12 P3 2.468775 1_556
Cr12 P1 2.477481 1_555
Cr12 P0 2.497474 1_555
Cr12 P0 2.497474 1_556
Cr13 P15 2.297649 1_556
Cr13 P15 2.297649 1_555
Cr13 P6 2.339973 1_555
Cr13 P7 2.352437 1_555
Cr13 U1 2.978080 1_556
Cr13 U1 2.978080 1_555
Cr14 P16 2.297649 1_555
Cr14 P16 2.297649 1_556
Cr14 P7 2.339973 1_555
Cr14 P5 2.352437 1_555
Cr14 U1 2.978073 1_556
Cr14 U1 2.978073 1_555
Cr15 P14 2.297649 1_556
Cr15 P14 2.297649 1_555
Cr15 P5 2.339973 1_555
Cr15 P6 2.352437 1_555
Cr15 U1 2.978085 1_556
Cr15 U1 2.978085 1_555
Cr16 P15 2.374435 1_556
Cr16 P15 2.374435 1_555
Cr16 P9 2.384333 1_565
Cr16 P9 2.384333 1_566
Cr16 P12 2.425018 1_555
Cr17 P16 2.374435 1_556
Cr17 P16 2.374435 1_555
Cr17 P10 2.384327 1_455
Cr17 P10 2.384327 1_456
Cr17 P13 2.425018 1_555
Cr18 P14 2.374435 1_556
Cr18 P14 2.374435 1_555
Cr18 P8 2.384337 1_555
Cr18 P8 2.384337 1_556
Cr18 P11 2.425018 1_555
Cr19 P6 2.381810 1_555
Cr19 P6 2.381810 1_554
Cr19 P12 2.393940 1_555
Cr19 P12 2.393940 1_554
Cr19 P15 2.424857 1_555
Cr20 P7 2.381810 1_554
Cr20 P7 2.381810 1_555
Cr20 P13 2.393940 1_555
Cr20 P13 2.393940 1_554
Cr20 P16 2.424857 1_555
Cr21 P5 2.381810 1_554
Cr21 P5 2.381810 1_555
Cr21 P11 2.393940 1_555
Cr21 P11 2.393940 1_554
Cr21 P14 2.424857 1_555
Cr22 P17 2.343940 1_554
Cr22 P17 2.343940 1_555
Cr22 P4 2.347966 1_555
Cr22 P12 2.394871 1_555
Cr22 P12 2.394871 1_554
Cr23 P18 2.343940 1_554
Cr23 P18 2.343940 1_555
Cr23 P2 2.347966 1_555
Cr23 P13 2.394871 1_545
Cr23 P13 2.394871 1_544
Cr24 P1 2.343940 1_554
Cr24 P1 2.343940 1_555
Cr24 P3 2.347966 1_555
Cr24 P11 2.394871 1_655
Cr24 P11 2.394871 1_654
Cr25 P3 2.391680 1_555
Cr25 P3 2.391680 1_556
Cr25 P15 2.394863 1_546
Cr25 P15 2.394863 1_545
Cr25 P18 2.457195 1_555
Cr26 P4 2.391680 1_555
Cr26 P4 2.391680 1_556
Cr26 P16 2.394863 1_656
Cr26 P16 2.394863 1_655
Cr26 P1 2.457195 1_555
Cr27 P2 2.391680 1_556
Cr27 P2 2.391680 1_555
Cr27 P14 2.394863 1_556
Cr27 P14 2.394863 1_555
Cr27 P17 2.457195 1_555
Cr28 P4 2.362364 1_556
Cr28 P4 2.362364 1_555
Cr28 P10 2.381367 1_555
Cr28 P10 2.381367 1_556
Cr28 P12 2.413395 1_555
Cr29 P11 2.296486 1_555
Cr29 P11 2.296486 1_554
Cr29 P8 2.340757 1_555
Cr29 P9 2.348013 1_455
Cr29 U0 2.973942 1_555
Cr29 U0 2.973942 1_554
P5 U1 2.833181 1_556
P5 U1 2.833181 1_555
P6 U1 2.833188 1_556
P6 U1 2.833188 1_555
P7 U1 2.833177 1_556
P7 U1 2.833177 1_555
P8 U0 2.834960 1_555
P8 U0 2.834960 1_554
P9 U0 2.834953 1_655
P9 U0 2.834953 1_654
P10 U0 2.834965 1_664
P10 U0 2.834965 1_665
