# generated using pymatgen
data_Na3Nb2Ga2SiP5O24
_symmetry_space_group_name_H-M   'P 1'
_cell_length_a   8.74907574
_cell_length_b   8.71022224
_cell_length_c   22.44445906
_cell_angle_alpha   90.10834021
_cell_angle_beta   89.84838439
_cell_angle_gamma   119.86059548
_symmetry_Int_Tables_number   1
_chemical_formula_structural   Na3Nb2Ga2SiP5O24
_chemical_formula_sum   'Na9 Nb6 Ga6 Si3 P15 O72'
_cell_volume   1483.33049994
_cell_formula_units_Z   3
loop_
 _symmetry_equiv_pos_site_id
 _symmetry_equiv_pos_as_xyz
  1  'x, y, z'
loop_
 _atom_site_type_symbol
 _atom_site_label
 _atom_site_symmetry_multiplicity
 _atom_site_fract_x
 _atom_site_fract_y
 _atom_site_fract_z
 _atom_site_occupancy
  Na  Na0  1  0.36057080  0.99209529  0.75273661  1
  Na  Na1  1  0.67261918  0.97185748  0.58720153  1
  Na  Na2  1  0.67510618  0.70147621  0.08406083  1
  Na  Na3  1  0.01585670  0.00096884  0.50610915  1
  Na  Na4  1  0.01293518  0.00822074  0.00591609  1
  Na  Na5  1  0.67693229  0.34442970  0.84093322  1
  Na  Na6  1  0.66498519  0.33186085  0.33993714  1
  Na  Na7  1  0.32263776  0.66607097  0.17473302  1
  Na  Na8  1  0.32513676  0.64734822  0.67332929  1
  Nb  Nb0  1  0.00050952  0.00007746  0.35592426  1
  Nb  Nb1  1  0.99448960  -0.00052975  0.85647004  1
  Nb  Nb2  1  0.66837192  0.33245506  0.68840277  1
  Nb  Nb3  1  0.67170248  0.33460009  0.18996964  1
  Nb  Nb4  1  0.32666379  0.66659921  0.02190172  1
  Nb  Nb5  1  0.32953530  0.66715037  0.52126276  1
  Ga  Ga0  1  0.00429602  0.99928553  0.64836203  1
  Ga  Ga1  1  0.00802441  0.00157129  0.14832892  1
  Ga  Ga2  1  0.66873406  0.33750096  0.98167353  1
  Ga  Ga3  1  0.65872772  0.32986027  0.48038561  1
  Ga  Ga4  1  0.33292044  0.66677476  0.31458223  1
  Ga  Ga5  1  0.33970493  0.66574343  0.81470825  1
  Si  Si0  1  0.70781039  0.98881160  0.74678129  1
  Si  Si1  1  0.36791503  0.05164011  0.58175863  1
  Si  Si2  1  0.95201001  0.62679740  0.08220308  1
  P  P0  1  0.28481986  0.99061328  0.24926122  1
  P  P1  1  0.70498854  0.71595271  0.24855227  1
  P  P2  1  0.00957730  0.29098141  0.24865255  1
  P  P3  1  0.28230904  0.29295274  0.74946243  1
  P  P4  1  0.00371437  0.71237209  0.75029553  1
  P  P5  1  0.95228890  0.33015149  0.58087919  1
  P  P6  1  0.67321557  0.62220936  0.58023910  1
  P  P7  1  0.67451004  0.05207412  0.08159006  1
  P  P8  1  0.37511270  0.32304575  0.08198169  1
  P  P9  1  0.61714088  0.65574496  0.91633926  1
  P  P10  1  0.04211543  0.38484243  0.91424397  1
  P  P11  1  0.34338146  0.96397119  0.91452031  1
  P  P12  1  0.61750589  0.95962161  0.41483727  1
  P  P13  1  0.34301838  0.38430537  0.41390509  1
  P  P14  1  0.03819662  0.65495365  0.41447848  1
  O  O0  1  0.19580586  0.02102194  0.30549511  1
  O  O1  1  0.82679493  0.80576416  0.30376445  1
  O  O2  1  0.97925846  0.17406172  0.30532730  1
  O  O3  1  0.20264826  0.16972484  0.80524784  1
  O  O4  1  0.97609473  0.80181114  0.80660084  1
  O  O5  1  0.83527881  0.02395434  0.80583872  1
  O  O6  1  0.79411577  0.96710622  0.68647782  1
  O  O7  1  0.17572089  0.20850990  0.69364095  1
  O  O8  1  0.04223280  0.83045201  0.69567948  1
  O  O9  1  0.78690609  0.81943256  0.19123376  1
  O  O10  1  0.03055120  0.20344513  0.19310993  1
  O  O11  1  0.17536169  0.96543643  0.19387772  1
  O  O12  1  0.86863265  0.36395074  0.63825120  1
  O  O13  1  0.49661343  0.13219335  0.64226707  1
  O  O14  1  0.64306473  0.50793449  0.63735271  1
  O  O15  1  0.86053980  0.49905476  0.14168480  1
  O  O16  1  0.63709539  0.13190511  0.13851360  1
  O  O17  1  0.49665842  0.36160662  0.13783585  1
  O  O18  1  0.45547572  0.29506423  0.02594603  1
  O  O19  1  0.82564701  0.54046567  0.02579925  1
  O  O20  1  0.69637015  0.15917845  0.02617216  1
  O  O21  1  0.46480595  0.16408280  0.52418010  1
  O  O22  1  0.70019316  0.53887219  0.52523538  1
  O  O23  1  0.83777877  0.30113033  0.52677451  1
  O  O24  1  0.53863632  0.68909089  0.97433791  1
  O  O25  1  0.15961245  0.47202740  0.97121221  1
  O  O26  1  0.31376449  0.84039910  0.96995619  1
  O  O27  1  0.53622513  0.84572273  0.47294564  1
  O  O28  1  0.31019137  0.46864038  0.47085342  1
  O  O29  1  0.15823932  0.68948718  0.47115931  1
  O  O30  1  0.12613296  0.63283575  0.35958422  1
  O  O31  1  0.50535711  0.86950134  0.36077316  1
  O  O32  1  0.36245460  0.49260463  0.35879494  1
  O  O33  1  0.13079975  0.49519374  0.85951926  1
  O  O34  1  0.36395273  0.88007435  0.85733823  1
  O  O35  1  0.50890108  0.63796256  0.86137568  1
  O  O36  1  0.02567246  0.82949968  0.41001575  1
  O  O37  1  0.80351906  0.97131952  0.40924891  1
  O  O38  1  0.17031362  0.19627396  0.40933425  1
  O  O39  1  0.03250928  0.19912257  0.91084440  1
  O  O40  1  0.17062941  0.97591402  0.91182140  1
  O  O41  1  0.80501976  0.82854667  0.91101201  1
  O  O42  1  0.96964566  0.16563587  0.58858078  1
  O  O43  1  0.17339045  0.02051717  0.59016660  1
  O  O44  1  0.82625878  0.81173458  0.58683995  1
  O  O45  1  0.97198303  0.81999609  0.09079922  1
  O  O46  1  0.83151616  0.02273902  0.08968288  1
  O  O47  1  0.18927131  0.16981909  0.09051418  1
  O  O48  1  0.69073368  0.17229356  0.74405905  1
  O  O49  1  0.46946707  0.30706490  0.74392293  1
  O  O50  1  0.83171260  0.53103222  0.74514328  1
  O  O51  1  0.69011833  0.52752827  0.24480653  1
  O  O52  1  0.83419561  0.30124319  0.24488395  1
  O  O53  1  0.46954148  0.16306261  0.24446576  1
  O  O54  1  0.63970671  0.49358667  0.92097178  1
  O  O55  1  0.85747367  0.35697947  0.92186809  1
  O  O56  1  0.50497176  0.14528188  0.92321602  1
  O  O57  1  0.64640209  0.14615112  0.42140260  1
  O  O58  1  0.50327922  0.36074155  0.42010144  1
  O  O59  1  0.85546406  0.49662454  0.42325983  1
  O  O60  1  0.36895263  0.50192477  0.07630326  1
  O  O61  1  0.14767088  0.64158964  0.07735179  1
  O  O62  1  0.50643741  0.86010590  0.07600524  1
  O  O63  1  0.36233262  0.85559249  0.57592531  1
  O  O64  1  0.50083602  0.63852836  0.57559932  1
  O  O65  1  0.13831547  0.49863526  0.57673089  1
  O  O66  1  0.30786600  0.82934772  0.25717766  1
  O  O67  1  0.52159313  0.69240077  0.25664539  1
  O  O68  1  0.16739438  0.47616736  0.25589529  1
  O  O69  1  0.30431945  0.47579196  0.75763572  1
  O  O70  1  0.16452950  0.68918656  0.75820861  1
  O  O71  1  0.50758860  0.82852959  0.75515912  1
loop_
_geom_bond_atom_site_label_1
_geom_bond_atom_site_label_2
_geom_bond_distance
_geom_bond_site_symmetry_2
Na0 O70 2.326360 1_555
Na0 O71 2.347908 1_555
Na0 O49 2.423153 1_565
Na0 O48 2.515753 1_565
Na0 O34 2.550004 1_555
Na0 O8 2.736176 1_555
Na0 O13 2.757329 1_565
Na0 O3 2.793759 1_565
Na1 O42 2.288138 1_565
Na1 O44 2.370426 1_555
Na1 O63 2.392570 1_555
Na1 O6 2.480569 1_555
Na1 O64 2.531842 1_555
Na1 O27 2.811991 1_555
Na1 O13 2.823828 1_565
Na1 O23 2.833830 1_565
Na2 O45 2.272989 1_555
Na2 O60 2.364609 1_555
Na2 O46 2.430088 1_565
Na2 O62 2.480361 1_555
Na2 O9 2.607850 1_555
Na2 O19 2.689761 1_555
Na2 O24 2.718140 1_554
Na2 O17 2.838846 1_555
Na3 O43 2.294960 1_555
Na3 O44 2.454463 1_445
Na3 O42 2.492067 1_455
Na3 O36 2.646547 1_545
Na3 O38 2.673424 1_555
Na3 O37 2.790275 1_445
Na4 O47 2.410326 1_555
Na4 O45 2.422632 1_445
Na4 O46 2.500661 1_455
Na4 O40 2.609937 1_544
Na4 O39 2.659960 1_554
Na4 O41 2.732856 1_444
Na5 O54 2.330349 1_555
Na5 O55 2.376827 1_555
Na5 O56 2.466120 1_555
Na5 O50 2.627535 1_555
Na5 O48 2.675202 1_555
Na5 O49 2.751622 1_555
Na6 O58 2.375157 1_555
Na6 O57 2.394562 1_555
Na6 O59 2.441112 1_555
Na6 O51 2.673948 1_555
Na6 O53 2.679781 1_555
Na6 O52 2.681149 1_555
Na7 O66 2.373852 1_555
Na7 O68 2.379151 1_555
Na7 O67 2.465841 1_555
Na7 O61 2.618561 1_555
Na7 O62 2.764319 1_555
Na7 O60 2.765716 1_555
Na8 O69 2.363135 1_555
Na8 O71 2.430607 1_555
Na8 O70 2.495938 1_555
Na8 O65 2.636283 1_555
Na8 O64 2.698044 1_555
Na8 O63 2.756590 1_555
Nb0 O2 1.977111 1_455
Nb0 O0 1.978396 1_555
Nb0 O1 1.996365 1_445
Nb0 O37 2.006465 1_445
Nb0 O38 2.009497 1_555
Nb0 O36 2.015902 1_545
Nb1 O5 1.892690 1_555
Nb1 O4 1.990114 1_545
Nb1 O41 2.000401 1_545
Nb1 O39 2.010549 1_655
Nb1 O3 2.035588 1_655
Nb1 O40 2.070341 1_645
Nb2 O13 1.940184 1_555
Nb2 O48 1.955639 1_555
Nb2 O12 1.980967 1_555
Nb2 O14 2.010728 1_555
Nb2 O50 2.048342 1_555
Nb2 O49 2.058268 1_555
Nb3 O15 1.896238 1_555
Nb3 O16 2.001090 1_555
Nb3 O52 2.011617 1_555
Nb3 O51 2.021956 1_555
Nb3 O17 2.034496 1_555
Nb3 O53 2.054451 1_555
Nb4 O61 1.923483 1_555
Nb4 O25 1.958999 1_554
Nb4 O26 1.959906 1_554
Nb4 O62 2.037606 1_555
Nb4 O60 2.054896 1_555
Nb4 O24 2.060572 1_554
Nb5 O63 1.951129 1_555
Nb5 O29 1.961785 1_555
Nb5 O28 2.000155 1_555
Nb5 O65 2.013426 1_555
Nb5 O27 2.015089 1_555
Nb5 O64 2.044143 1_555
Ga0 O43 1.909764 1_565
Ga0 O6 1.916050 1_455
Ga0 O7 1.970450 1_565
Ga0 O8 1.973437 1_555
Ga0 O42 2.106795 1_465
Ga0 O44 2.114392 1_455
Ga1 O11 1.937943 1_545
Ga1 O45 1.940579 1_445
Ga1 O10 1.946834 1_555
Ga1 O47 2.007051 1_555
Ga1 O9 2.031383 1_445
Ga1 O46 2.108696 1_455
Ga2 O19 1.890690 1_556
Ga2 O20 1.962039 1_556
Ga2 O18 1.977395 1_556
Ga2 O54 2.030193 1_555
Ga2 O56 2.047045 1_555
Ga2 O55 2.065790 1_555
Ga3 O21 1.867289 1_555
Ga3 O22 1.948488 1_555
Ga3 O23 2.000166 1_555
Ga3 O58 2.031789 1_555
Ga3 O57 2.036068 1_555
Ga3 O59 2.054814 1_555
Ga4 O32 1.936585 1_555
Ga4 O31 1.953843 1_555
Ga4 O30 1.959507 1_555
Ga4 O66 2.007670 1_555
Ga4 O67 2.021991 1_555
Ga4 O68 2.048482 1_555
Ga5 O35 1.926869 1_555
Ga5 O33 1.962437 1_555
Ga5 O71 1.969053 1_555
Ga5 O69 1.989514 1_555
Ga5 O34 2.011375 1_555
Ga5 O70 2.078850 1_555
O0 P0 1.571179 1_545
O1 P1 1.567312 1_555
O2 P2 1.568336 1_655
O3 P3 1.568772 1_555
O4 P4 1.563473 1_655
O5 Si0 1.661558 1_545
O6 Si0 1.604241 1_555
O7 P3 1.516586 1_555
O8 P4 1.526918 1_555
O9 P1 1.528837 1_555
O10 P2 1.517764 1_555
O11 P0 1.518724 1_555
O12 P5 1.577544 1_555
O13 Si1 1.679975 1_555
O14 P6 1.563691 1_555
O15 Si2 1.665553 1_555
O16 P7 1.563346 1_555
O17 P8 1.570035 1_555
O18 P8 1.516687 1_555
O19 Si2 1.601975 1_555
O20 P7 1.509783 1_555
O21 Si1 1.587503 1_555
O22 P6 1.507434 1_555
O23 P5 1.515044 1_555
O24 P9 1.563059 1_555
O25 P10 1.579318 1_555
O26 P11 1.580945 1_555
O27 P12 1.577455 1_555
O28 P13 1.568570 1_555
O29 P14 1.582084 1_555
O30 P14 1.512849 1_555
O31 P12 1.512316 1_555
O32 P13 1.514029 1_555
O33 P10 1.513711 1_555
O34 P11 1.529631 1_555
O35 P9 1.517245 1_555
O36 P14 1.581132 1_555
O37 P12 1.583834 1_555
O38 P13 1.584911 1_555
O39 P10 1.579208 1_555
O40 P11 1.567148 1_555
O41 P9 1.586723 1_555
O42 P5 1.524499 1_555
O43 Si1 1.595203 1_555
O44 P6 1.529391 1_555
O45 Si2 1.614223 1_555
O46 P7 1.528471 1_555
O47 P8 1.516590 1_555
O48 Si0 1.678804 1_545
O49 P3 1.584422 1_555
O50 P4 1.551173 1_655
O51 P1 1.582563 1_555
O52 P2 1.583319 1_655
O53 P0 1.569104 1_545
O54 P9 1.524174 1_555
O55 P10 1.518596 1_655
O56 P11 1.519173 1_545
O57 P12 1.521708 1_545
O58 P13 1.521564 1_555
O59 P14 1.516756 1_655
O60 P8 1.590960 1_555
O61 Si2 1.654790 1_455
O62 P7 1.589238 1_565
O63 Si1 1.688676 1_565
O64 P6 1.587437 1_555
O65 P5 1.559667 1_455
O66 P0 1.525928 1_555
O67 P1 1.523304 1_555
O68 P2 1.522212 1_555
O69 P3 1.516809 1_555
O70 P4 1.528507 1_555
O71 Si0 1.617723 1_555
