# generated using pymatgen
data_Nb2Cr4Si5
_symmetry_space_group_name_H-M   'P 1'
_cell_length_a   9.06246843
_cell_length_b   9.06235625
_cell_length_c   9.06208896
_cell_angle_alpha   148.90152704
_cell_angle_beta   131.09323208
_cell_angle_gamma   59.09809246
_symmetry_Int_Tables_number   1
_chemical_formula_structural   Nb2Cr4Si5
_chemical_formula_sum   'Nb4 Cr8 Si10'
_cell_volume   287.37916780
_cell_formula_units_Z   2
loop_
 _symmetry_equiv_pos_site_id
 _symmetry_equiv_pos_as_xyz
  1  'x, y, z'
loop_
 _atom_site_type_symbol
 _atom_site_label
 _atom_site_symmetry_multiplicity
 _atom_site_fract_x
 _atom_site_fract_y
 _atom_site_fract_z
 _atom_site_occupancy
  Nb  Nb0  1  0.98007165  0.35899506  0.62101949  1
  Nb  Nb1  1  0.01991210  0.64100348  0.37896869  1
  Nb  Nb2  1  0.26201068  0.14098533  0.12106983  1
  Nb  Nb3  1  0.73799811  0.85901102  0.87894363  1
  Cr  Cr0  1  0.30875288  0.05877054  0.75000460  1
  Cr  Cr1  1  0.69125839  0.44124361  0.75001593  1
  Cr  Cr2  1  0.80281734  0.06070499  0.74211376  1
  Cr  Cr3  1  0.19717780  0.93929356  0.25787420  1
  Cr  Cr4  1  0.68145263  0.43925989  0.24210573  1
  Cr  Cr5  1  0.31855476  0.56074314  0.75790053  1
  Cr  Cr6  1  0.69124658  0.94122897  0.24999600  1
  Cr  Cr7  1  0.30874107  0.55875236  0.24998255  1
  Si  Si0  1  0.00000035  0.75001057  0.75001925  1
  Si  Si1  1  -0.00000247  0.24998597  0.24997773  1
  Si  Si2  1  0.35609204  0.43482252  0.92124409  1
  Si  Si3  1  0.64391745  0.56518801  0.07876511  1
  Si  Si4  1  0.00649334  0.21259144  0.79389162  1
  Si  Si5  1  0.99349365  0.78740657  0.20609854  1
  Si  Si6  1  0.58127749  0.28739746  0.29387620  1
  Si  Si7  1  0.41873185  0.71260041  0.70613783  1
  Si  Si8  1  0.51356581  0.93479928  0.57870754  1
  Si  Si9  1  0.48643751  0.06520384  0.42128715  1
loop_
_geom_bond_atom_site_label_1
_geom_bond_atom_site_label_2
_geom_bond_distance
_geom_bond_site_symmetry_2
Nb0 Si2 2.549969 1_655
Nb0 Si4 2.648003 1_655
Nb0 Si1 2.690862 1_655
Nb0 Si0 2.690989 1_655
Nb0 Si6 2.702039 1_555
Nb0 Si5 2.753784 1_545
Nb0 Si5 2.753947 1_556
Nb1 Si3 2.549792 1_455
Nb1 Si5 2.647997 1_455
Nb1 Si0 2.690864 1_555
Nb1 Si1 2.691007 1_555
Nb1 Si7 2.702213 1_555
Nb1 Si4 2.753778 1_565
Nb1 Si4 2.753948 1_554
Nb2 Si9 2.549703 1_555
Nb2 Si6 2.648174 1_555
Nb2 Si1 2.690651 1_555
Nb2 Si0 2.690893 1_544
Nb2 Si4 2.701869 1_554
Nb2 Si7 2.753988 1_555
Nb2 Si7 2.754088 1_544
Nb3 Si8 2.549880 1_555
Nb3 Si7 2.648164 1_555
Nb3 Si0 2.690659 1_655
Nb3 Si1 2.690890 1_666
Nb3 Si5 2.701700 1_556
Nb3 Si6 2.753980 1_555
Nb3 Si6 2.754087 1_566
Cr0 Si2 2.403310 1_555
Cr0 Si8 2.403346 1_545
Cr0 Cr7 2.429208 1_556
Cr0 Cr7 2.429346 1_545
Cr0 Si4 2.483000 1_555
Cr0 Si7 2.483239 1_545
Cr0 Si6 2.539699 1_556
Cr0 Si5 2.539887 1_445
Cr1 Si9 2.403239 1_555
Cr1 Si3 2.403247 1_556
Cr1 Cr6 2.429222 1_556
Cr1 Cr6 2.429332 1_545
Cr1 Si5 2.482939 1_556
Cr1 Si6 2.483033 1_555
Cr1 Si7 2.539777 1_555
Cr1 Si4 2.539800 1_655
Cr2 Si8 2.332784 1_545
Cr2 Si9 2.408294 1_555
Cr2 Si4 2.426274 1_655
Cr2 Si1 2.476740 1_656
Cr2 Si0 2.476953 1_645
Cr2 Si3 2.721772 1_545
Cr2 Si3 2.721993 1_556
Cr3 Si9 2.332845 1_565
Cr3 Si8 2.408331 1_555
Cr3 Si5 2.426362 1_455
Cr3 Si0 2.476670 1_554
Cr3 Si1 2.476892 1_565
Cr3 Si2 2.721852 1_565
Cr3 Si2 2.721991 1_554
Cr4 Si3 2.332668 1_555
Cr4 Si2 2.408597 1_554
Cr4 Si6 2.426353 1_555
Cr4 Si1 2.476625 1_655
Cr4 Si0 2.476831 1_655
Cr4 Si8 2.721955 1_544
Cr4 Si8 2.722137 1_555
Cr5 Si2 2.332618 1_555
Cr5 Si3 2.408589 1_556
Cr5 Si7 2.426259 1_555
Cr5 Si0 2.476675 1_555
Cr5 Si1 2.476895 1_555
Cr5 Si9 2.721914 1_566
Cr5 Si9 2.722128 1_555
Cr6 Si3 2.403224 1_555
Cr6 Si9 2.403257 1_565
Cr6 Si5 2.482932 1_555
Cr6 Si6 2.483158 1_565
Cr6 Si7 2.539610 1_554
Cr6 Si4 2.539814 1_665
Cr7 Si2 2.403313 1_554
Cr7 Si8 2.403328 1_555
Cr7 Si4 2.482995 1_554
Cr7 Si7 2.483115 1_555
Cr7 Si6 2.539849 1_555
Cr7 Si5 2.539884 1_455
Si0 Si1 2.429123 1_566
Si0 Si1 2.429431 1_555
Si2 Si3 2.370576 1_556
Si2 Si8 2.701264 1_556
Si2 Si8 2.701475 1_545
Si3 Si9 2.701320 1_554
Si3 Si9 2.701462 1_565
Si8 Si9 2.370607 1_565
