# generated using pymatgen
data_MgMnSbO4
_symmetry_space_group_name_H-M   'P 1'
_cell_length_a   5.77943597
_cell_length_b   5.77943721
_cell_length_c   5.77943658
_cell_angle_alpha   135.62701946
_cell_angle_beta   137.96839693
_cell_angle_gamma   62.76905987
_symmetry_Int_Tables_number   1
_chemical_formula_structural   MgMnSbO4
_chemical_formula_sum   'Mg1 Mn1 Sb1 O4'
_cell_volume   89.27221383
_cell_formula_units_Z   1
loop_
 _symmetry_equiv_pos_site_id
 _symmetry_equiv_pos_as_xyz
  1  'x, y, z'
loop_
 _atom_site_type_symbol
 _atom_site_label
 _atom_site_symmetry_multiplicity
 _atom_site_fract_x
 _atom_site_fract_y
 _atom_site_fract_z
 _atom_site_occupancy
  Mg  Mg0  1  0.51429210  0.51429210  1.00000000  1
  Mn  Mn0  1  0.96975731  0.96975731  0.00000000  1
  Sb  Sb0  1  0.75285310  0.25285310  0.50000000  1
  O  O0  1  0.53646590  0.03646590  0.50000000  1
  O  O1  1  0.28917533  0.28917533  1.00000000  1
  O  O2  1  0.98071317  0.48071317  0.50000000  1
  O  O3  1  0.74245709  0.74245709  0.00000000  1
loop_
_geom_bond_atom_site_label_1
_geom_bond_atom_site_label_2
_geom_bond_distance
_geom_bond_site_symmetry_2
Mg0 O2 2.098971 1_455
Mg0 O2 2.098971 1_556
Mg0 O0 2.193386 1_555
Mg0 O0 2.193386 1_566
Mg0 O1 2.221387 1_555
Mg0 O3 2.251466 1_556
Mn0 O0 2.174672 1_665
Mn0 O0 2.174672 1_564
Mn0 O2 2.185121 1_554
Mn0 O2 2.185121 1_565
Mn0 O3 2.242933 1_555
O0 Sb0 2.135246 1_555
O1 Sb0 2.103414 1_455
O1 Sb0 2.103414 1_556
O2 Sb0 2.248457 1_555
O3 Sb0 2.184855 1_554
O3 Sb0 2.184855 1_565
