# generated using pymatgen
data_Sr2NiWO6
_symmetry_space_group_name_H-M   'P 1'
_cell_length_a   5.63022902
_cell_length_b   5.67620982
_cell_length_c   9.77837690
_cell_angle_alpha   89.46068933
_cell_angle_beta   73.27293434
_cell_angle_gamma   60.27566187
_symmetry_Int_Tables_number   1
_chemical_formula_structural   Sr2NiWO6
_chemical_formula_sum   'Sr4 Ni2 W2 O12'
_cell_volume   256.53955651
_cell_formula_units_Z   2
loop_
 _symmetry_equiv_pos_site_id
 _symmetry_equiv_pos_as_xyz
  1  'x, y, z'
loop_
 _atom_site_type_symbol
 _atom_site_label
 _atom_site_symmetry_multiplicity
 _atom_site_fract_x
 _atom_site_fract_y
 _atom_site_fract_z
 _atom_site_occupancy
  Sr  Sr0  1  0.24987600  0.37508600  0.12507700  1
  Sr  Sr1  1  0.25002300  0.87497900  0.62496700  1
  Sr  Sr2  1  0.75010500  0.62493700  0.87488600  1
  Sr  Sr3  1  0.74992600  0.12508900  0.37504900  1
  Ni  Ni0  1  0.50010800  0.74996100  0.24984200  1
  Ni  Ni1  1  0.50011000  0.24968800  0.75019200  1
  W  W0  1  0.99997600  0.50001200  0.50005200  1
  W  W1  1  0.00000500  0.99996100  0.99997200  1
  O  O0  1  0.75876200  0.36209000  0.12055400  1
  O  O1  1  0.75878400  0.86205000  0.62057500  1
  O  O2  1  0.24118900  0.63797100  0.87945000  1
  O  O3  1  0.24122200  0.13796300  0.37936900  1
  O  O4  1  0.28325100  0.59976300  0.40013500  1
  O  O5  1  0.28308700  0.09971600  0.90018400  1
  O  O6  1  0.71683800  0.40027400  0.59989600  1
  O  O7  1  0.71671700  0.90034000  0.09981000  1
  O  O8  1  0.80054800  0.64151800  0.35832700  1
  O  O9  1  0.80050300  0.14143300  0.85841400  1
  O  O10  1  0.19953500  0.35859300  0.64162000  1
  O  O11  1  0.19943400  0.85857700  0.14163100  1
loop_
_geom_bond_atom_site_label_1
_geom_bond_atom_site_label_2
_geom_bond_distance
_geom_bond_site_symmetry_2
Ni0 O7 2.084959 1_555
Ni0 O11 2.085512 1_555
Ni0 O4 2.086422 1_555
Ni0 O8 2.086532 1_555
Ni0 O0 2.092705 1_555
Ni0 O3 2.094203 1_565
Ni1 O5 2.084517 1_555
Ni1 O9 2.084537 1_555
Ni1 O10 2.087485 1_555
Ni1 O6 2.087538 1_555
Ni1 O1 2.093096 1_545
Ni1 O2 2.094251 1_555
O0 W1 1.953310 1_644
O0 Sr0 2.815283 1_655
O0 Sr2 2.815476 1_554
O0 Sr0 2.816732 1_555
O0 Sr3 2.817299 1_555
O1 W0 1.952703 1_555
O1 Sr3 2.814852 1_565
O1 Sr1 2.815409 1_655
O1 Sr2 2.816030 1_555
O1 Sr1 2.816565 1_555
O2 W1 1.952504 1_555
O2 Sr0 2.815245 1_556
O2 Sr2 2.815345 1_455
O2 Sr2 2.816687 1_555
O2 Sr1 2.817215 1_555
O3 W0 1.953394 1_455
O3 Sr1 2.815292 1_545
O3 Sr3 2.815360 1_455
O3 Sr0 2.815895 1_555
O3 Sr3 2.816589 1_555
O4 W0 1.951155 1_455
O4 Sr3 2.616204 1_555
O4 Sr1 2.616652 1_555
O4 Sr0 3.080411 1_555
O4 Sr3 3.082094 1_465
O5 W1 1.949952 1_545
O5 Sr2 2.617039 1_545
O5 Sr0 2.617687 1_556
O5 Sr1 3.081051 1_545
O5 Sr2 3.081535 1_455
O6 W0 1.950287 1_555
O6 Sr1 2.616693 1_555
O6 Sr3 2.617041 1_555
O6 Sr2 3.079466 1_555
O6 Sr1 3.081550 1_645
O7 W1 1.950503 1_654
O7 Sr0 2.616530 1_565
O7 Sr2 2.617579 1_554
O7 Sr3 3.081696 1_565
O7 Sr0 3.082034 1_655
O8 W0 1.951116 1_555
O8 Sr0 2.615103 1_655
O8 Sr3 2.616869 1_565
O8 Sr3 3.081151 1_555
O8 Sr1 3.082437 1_555
O9 W1 1.949909 1_645
O9 Sr1 2.616735 1_645
O9 Sr2 2.616933 1_555
O9 Sr2 3.080796 1_545
O9 Sr0 3.082813 1_556
O10 W0 1.950143 1_455
O10 Sr2 2.615390 1_455
O10 Sr1 2.617409 1_545
O10 Sr1 3.080482 1_555
O10 Sr3 3.081630 1_555
O11 W1 1.950474 1_554
O11 Sr3 2.616571 1_465
O11 Sr0 2.616785 1_555
O11 Sr0 3.081019 1_565
O11 Sr2 3.083402 1_554
