# generated using pymatgen
data_CsHgCl3
_symmetry_space_group_name_H-M   'P 1'
_cell_length_a   13.38732080
_cell_length_b   13.38700318
_cell_length_c   9.46966602
_cell_angle_alpha   90.00155691
_cell_angle_beta   89.99357249
_cell_angle_gamma   120.00013670
_symmetry_Int_Tables_number   1
_chemical_formula_structural   CsHgCl3
_chemical_formula_sum   'Cs9 Hg9 Cl27'
_cell_volume   1469.74411496
_cell_formula_units_Z   9
loop_
 _symmetry_equiv_pos_site_id
 _symmetry_equiv_pos_as_xyz
  1  'x, y, z'
loop_
 _atom_site_type_symbol
 _atom_site_label
 _atom_site_symmetry_multiplicity
 _atom_site_fract_x
 _atom_site_fract_y
 _atom_site_fract_z
 _atom_site_occupancy
  Cs  Cs0  1  0.54856791  0.44714731  0.13543254  1
  Cs  Cs1  1  0.89861002  0.45143062  0.46867909  1
  Cs  Cs2  1  0.55280773  0.10134637  0.80208938  1
  Cs  Cs3  1  0.23248142  0.44585242  0.82872861  1
  Cs  Cs4  1  0.21335574  0.76748489  0.16185986  1
  Cs  Cs5  1  0.55404842  0.78664972  0.49536477  1
  Cs  Cs6  1  0.22793701  0.11066060  0.47632144  1
  Cs  Cs7  1  0.88279218  0.77199528  0.80961983  1
  Cs  Cs8  1  0.88929069  0.11718851  0.14290726  1
  Hg  Hg0  1  0.22429650  0.11187571  0.97828276  1
  Hg  Hg1  1  0.88747555  0.77560365  0.31167149  1
  Hg  Hg2  1  0.88814904  0.11248148  0.64493763  1
  Hg  Hg3  1  0.55368383  0.44104955  0.64839899  1
  Hg  Hg4  1  0.88736906  0.44630335  0.98156113  1
  Hg  Hg5  1  0.55889010  0.11260529  0.31491591  1
  Hg  Hg6  1  0.22063188  0.44208718  0.31105650  1
  Hg  Hg7  1  0.22143744  0.77933853  0.64446375  1
  Hg  Hg8  1  0.55793199  0.77855150  0.97784486  1
  Cl  Cl0  1  0.22772784  0.28334965  0.13961567  1
  Cl  Cl1  1  0.05561357  0.77236129  0.47303903  1
  Cl  Cl2  1  0.71677951  0.94425752  0.80633356  1
  Cl  Cl3  1  0.04854296  0.44613273  0.16196909  1
  Cl  Cl4  1  0.39765039  0.95150401  0.49544760  1
  Cl  Cl5  1  0.55364773  0.60233539  0.82868519  1
  Cl  Cl6  1  0.39575023  0.25549387  0.79832191  1
  Cl  Cl7  1  0.85970236  0.60427476  0.13162804  1
  Cl  Cl8  1  0.74459395  0.14026460  0.46471919  1
  Cl  Cl9  1  0.07076110  0.08866081  0.82520571  1
  Cl  Cl10  1  0.01777898  0.92922390  0.15875306  1
  Cl  Cl11  1  0.91148290  0.98232049  0.49178449  1
  Cl  Cl12  1  0.34633623  0.08065765  0.13686017  1
  Cl  Cl13  1  0.73425889  0.65373039  0.47026151  1
  Cl  Cl14  1  0.91938112  0.26578461  0.80335895  1
  Cl  Cl15  1  0.42024615  0.44958289  0.48622681  1
  Cl  Cl16  1  0.02937671  0.57970146  0.81936051  1
  Cl  Cl17  1  0.55039391  0.97062541  0.15264542  1
  Cl  Cl18  1  0.39211497  0.76715690  0.86130982  1
  Cl  Cl19  1  0.23276737  0.62496182  0.52761890  1
  Cl  Cl20  1  0.37506260  0.60770649  0.19423128  1
  Cl  Cl21  1  0.69210484  0.79142045  0.15593149  1
  Cl  Cl22  1  0.20861965  0.90073203  0.82253419  1
  Cl  Cl23  1  0.09938236  0.30795665  0.48920016  1
  Cl  Cl24  1  0.55773591  0.27586464  0.41882796  1
  Cl  Cl25  1  0.72423637  0.28188066  0.08544208  1
  Cl  Cl26  1  0.71819690  0.44240898  0.75209941  1
loop_
_geom_bond_atom_site_label_1
_geom_bond_atom_site_label_2
_geom_bond_distance
_geom_bond_site_symmetry_2
Cl0 Hg6 2.713317 1_555
Cl0 Hg0 2.738610 1_554
Cl0 Cs3 3.642184 1_554
Cl0 Cs0 3.720218 1_555
Cl0 Cs8 3.924088 1_455
Cl0 Cs6 3.939255 1_555
Cl1 Hg7 2.713947 1_555
Cl1 Hg1 2.738991 1_455
Cl1 Cs4 3.644666 1_555
Cl1 Cs1 3.721218 1_455
Cl1 Cs6 3.922417 1_565
Cl1 Cs7 3.936849 1_455
Cl2 Hg8 2.713490 1_555
Cl2 Hg2 2.739267 1_565
Cl2 Cs5 3.643343 1_555
Cl2 Cs2 3.722765 1_565
Cl2 Cs7 3.922182 1_555
Cl2 Cs8 3.937795 1_566
Cl3 Hg6 2.725652 1_555
Cl3 Hg4 2.753183 1_454
Cl3 Cs1 3.551155 1_455
Cl3 Cs4 3.725999 1_555
Cl3 Cs8 3.818519 1_455
Cl3 Cs3 4.003677 1_554
Cl4 Hg7 2.725925 1_555
Cl4 Hg5 2.752691 1_565
Cl4 Cs2 3.550315 1_565
Cl4 Cs5 3.724909 1_555
Cl4 Cs6 3.817767 1_565
Cl4 Cs4 4.007276 1_555
Cl5 Hg8 2.725411 1_555
Cl5 Hg3 2.752709 1_555
Cl5 Cs0 3.552109 1_556
Cl5 Cs3 3.723925 1_555
Cl5 Cs7 3.820871 1_555
Cl5 Cs5 4.004800 1_555
Cl6 Hg3 2.720995 1_555
Cl6 Hg0 2.730452 1_555
Cl6 Cs2 3.608228 1_555
Cl6 Cs6 3.708039 1_555
Cl6 Cs0 3.963719 1_556
Cl6 Cs3 4.113895 1_555
Cl7 Hg4 2.722477 1_554
Cl7 Hg1 2.729975 1_555
Cl7 Cs0 3.607449 1_555
Cl7 Cs7 3.706915 1_554
Cl7 Cs1 3.963807 1_555
Cl7 Cs4 4.114225 1_655
Cl8 Hg5 2.722186 1_555
Cl8 Hg2 2.731262 1_555
Cl8 Cs1 3.607750 1_555
Cl8 Cs8 3.705643 1_555
Cl8 Cs2 3.966199 1_555
Cl8 Cs5 4.113986 1_545
Cl9 Hg0 2.405106 1_555
Cl9 Cs7 3.695587 1_445
Cl9 Cs6 3.848148 1_555
Cl9 Cs8 4.003146 1_456
Cl9 Cs3 4.147380 1_555
Cl10 Hg1 2.404445 1_455
Cl10 Cs8 3.693424 1_465
Cl10 Cs7 3.850197 1_454
Cl10 Cs6 4.003322 1_565
Cl10 Cs4 4.148887 1_555
Cl11 Hg2 2.404420 1_565
Cl11 Cs6 3.693532 1_665
Cl11 Cs8 3.847042 1_565
Cl11 Cs7 4.006603 1_555
Cl11 Cs5 4.150345 1_555
Cl12 Hg0 2.404643 1_554
Cl12 Cs4 3.652158 1_545
Cl12 Cs6 3.693600 1_555
Cl12 Cs2 4.123039 1_554
Cl13 Hg1 2.403626 1_555
Cl13 Cs5 3.651819 1_555
Cl13 Cs7 3.693348 1_555
Cl13 Cs0 4.124045 1_555
Cl14 Hg2 2.403977 1_555
Cl14 Cs3 3.651565 1_655
Cl14 Cs8 3.695537 1_556
Cl14 Cs1 4.121888 1_555
Cl15 Hg3 2.401520 1_555
Cl15 Cs0 3.747261 1_555
Cl15 Cs5 3.936285 1_555
Cl15 Cs6 3.942296 1_555
Cl15 Cs3 4.088173 1_555
Cl16 Hg4 2.401461 1_455
Cl16 Cs1 3.746484 1_455
Cl16 Cs3 3.934946 1_555
Cl16 Cs7 3.941803 1_455
Cl16 Cs4 4.088381 1_556
Cl17 Hg5 2.402191 1_565
Cl17 Cs2 3.745293 1_564
Cl17 Cs4 3.935875 1_555
Cl17 Cs8 3.942082 1_565
Cl17 Cs5 4.089256 1_555
Cl18 Hg8 2.414690 1_555
Cl18 Cs4 3.719717 1_556
Cl18 Cs3 3.737824 1_555
Cl18 Cs2 3.915711 1_565
Cl18 Cs5 4.026064 1_555
Cl19 Hg7 2.414874 1_555
Cl19 Cs3 3.724363 1_555
Cl19 Cs5 3.737343 1_555
Cl19 Cs1 3.915148 1_455
Cl19 Cs4 4.025028 1_555
Cl20 Hg6 2.414471 1_555
Cl20 Cs5 3.724640 1_555
Cl20 Cs4 3.739813 1_555
Cl20 Cs0 3.913756 1_555
Cl20 Cs3 4.022842 1_554
Cl21 Hg8 2.406512 1_554
Cl21 Cs5 3.692213 1_555
Cl21 Cs8 3.806594 1_565
Cl21 Cs0 4.014338 1_555
Cl22 Hg7 2.406766 1_555
Cl22 Cs4 3.691158 1_556
Cl22 Cs7 3.807153 1_455
Cl22 Cs2 4.013297 1_565
Cl23 Hg6 2.406187 1_555
Cl23 Cs3 3.692155 1_555
Cl23 Cs6 3.807643 1_555
Cl23 Cs1 4.014184 1_455
Cl24 Hg5 2.403916 1_555
Cl24 Cs0 3.571639 1_555
Cl24 Cs6 3.862112 1_555
Cl24 Cs1 3.980746 1_555
Cl25 Hg4 2.403056 1_554
Cl25 Cs2 3.572426 1_554
Cl25 Cs8 3.861539 1_555
Cl25 Cs0 3.981495 1_555
Cl26 Hg3 2.403246 1_555
Cl26 Cs1 3.571858 1_555
Cl26 Cs7 3.859696 1_555
Cl26 Cs2 3.982915 1_555
