# generated using pymatgen
data_Na9Mg11Ta(SO4)18
_symmetry_space_group_name_H-M   'P 1'
_cell_length_a   8.72765230
_cell_length_b   8.73447286
_cell_length_c   22.58208519
_cell_angle_alpha   90.15259739
_cell_angle_beta   89.88956596
_cell_angle_gamma   120.31293020
_symmetry_Int_Tables_number   1
_chemical_formula_structural   Na9Mg11Ta(SO4)18
_chemical_formula_sum   'Na9 Mg11 Ta1 S18 O72'
_cell_volume   1486.10350178
_cell_formula_units_Z   1
loop_
 _symmetry_equiv_pos_site_id
 _symmetry_equiv_pos_as_xyz
  1  'x, y, z'
loop_
 _atom_site_type_symbol
 _atom_site_label
 _atom_site_symmetry_multiplicity
 _atom_site_fract_x
 _atom_site_fract_y
 _atom_site_fract_z
 _atom_site_occupancy
  Na  Na0  1  0.36226356  0.36263863  0.25347757  1
  Na  Na1  1  0.30421315  0.97162292  0.08797175  1
  Na  Na2  1  0.97115095  0.30461280  0.41923280  1
  Na  Na3  1  0.00023442  0.98678057  0.50177249  1
  Na  Na4  1  0.98793259  0.00023421  0.00285795  1
  Na  Na5  1  0.66697618  0.33365297  0.83150542  1
  Na  Na6  1  0.66785433  0.33432797  0.33648592  1
  Na  Na7  1  0.33415086  0.66728233  0.17031242  1
  Na  Na8  1  0.33448377  0.66781035  0.65226025  1
  Mg  Mg0  1  0.99670944  0.98920059  0.35170560  1
  Mg  Mg1  1  0.99965857  0.99966978  0.85102348  1
  Mg  Mg2  1  0.00013800  0.00030262  0.64322837  1
  Mg  Mg3  1  0.99006661  0.99752901  0.15137597  1
  Mg  Mg4  1  0.66661780  0.33424559  0.67711041  1
  Mg  Mg5  1  0.67706693  0.33605733  0.18491174  1
  Mg  Mg6  1  0.66980173  0.33559412  0.98353085  1
  Mg  Mg7  1  0.65978143  0.33412049  0.48478596  1
  Mg  Mg8  1  0.33398545  0.65997490  0.02022558  1
  Mg  Mg9  1  0.33680075  0.67082857  0.51776555  1
  Mg  Mg10  1  0.33545859  0.67602037  0.31829287  1
  Ta  Ta0  1  0.33309977  0.66633492  0.81245681  1
  S  S0  1  0.29379362  0.99824094  0.24812040  1
  S  S1  1  0.70437883  0.70500136  0.24970477  1
  S  S2  1  0.99943270  0.29421324  0.25107145  1
  S  S3  1  0.29299344  0.28661085  0.75129984  1
  S  S4  1  0.99397792  0.70688195  0.75137321  1
  S  S5  1  0.71387284  0.00698468  0.75128923  1
  S  S6  1  0.96273760  0.33434624  0.58275092  1
  S  S7  1  0.37222874  0.03776331  0.58396034  1
  S  S8  1  0.66504877  0.62727276  0.58383499  1
  S  S9  1  0.96029863  0.62809875  0.08240052  1
  S  S10  1  0.66893580  0.04154999  0.08212758  1
  S  S11  1  0.37304527  0.33358052  0.08383768  1
  S  S12  1  0.62604872  0.66759736  0.91753645  1
  S  S13  1  0.04082667  0.37296650  0.91760880  1
  S  S14  1  0.33228300  0.95939598  0.91819883  1
  S  S15  1  0.62784411  0.96186547  0.41685971  1
  S  S16  1  0.33509464  0.37303216  0.41517701  1
  S  S17  1  0.04015236  0.66713877  0.41722338  1
  O  O0  1  0.20743429  0.02862576  0.29939514  1
  O  O1  1  0.81124929  0.78732338  0.30258571  1
  O  O2  1  0.97635519  0.19055937  0.30546271  1
  O  O3  1  0.21129008  0.18655233  0.80517600  1
  O  O4  1  0.97517347  0.78812449  0.80532182  1
  O  O5  1  0.81383558  0.02562920  0.80517558  1
  O  O6  1  0.78235394  0.96598299  0.69848885  1
  O  O7  1  0.18313933  0.21696045  0.69855378  1
  O  O8  1  0.03516097  0.81651908  0.69869226  1
  O  O9  1  0.78424996  0.80900669  0.19573918  1
  O  O10  1  0.03012196  0.21076677  0.19850753  1
  O  O11  1  0.19212250  0.97449004  0.19236998  1
  O  O12  1  0.87927341  0.35848643  0.63633269  1
  O  O13  1  0.47658945  0.11751397  0.63861777  1
  O  O14  1  0.63996814  0.52330433  0.63847153  1
  O  O15  1  0.87855261  0.52136652  0.13536790  1
  O  O16  1  0.63674419  0.12270425  0.13470280  1
  O  O17  1  0.47679396  0.35685282  0.13827330  1
  O  O18  1  0.45662236  0.30351882  0.03111287  1
  O  O19  1  0.85576261  0.54774055  0.02840305  1
  O  O20  1  0.69356484  0.14670255  0.02805922  1
  O  O21  1  0.45629802  0.14610207  0.53119250  1
  O  O22  1  0.69028510  0.54374284  0.53108672  1
  O  O23  1  0.85794816  0.31007216  0.52834931  1
  O  O24  1  0.54126043  0.69187547  0.96945198  1
  O  O25  1  0.15026185  0.45876182  0.96938701  1
  O  O26  1  0.30876953  0.85346246  0.97126854  1
  O  O27  1  0.54546096  0.85474260  0.46964064  1
  O  O28  1  0.30468278  0.45912443  0.46649355  1
  O  O29  1  0.14763584  0.69122612  0.47012642  1
  O  O30  1  0.11923807  0.63518069  0.36358606  1
  O  O31  1  0.52362284  0.88224362  0.36280605  1
  O  O32  1  0.35891068  0.47461657  0.35947954  1
  O  O33  1  0.13677212  0.48914072  0.86283405  1
  O  O34  1  0.35262672  0.86119592  0.86422492  1
  O  O35  1  0.50973566  0.64692622  0.86284653  1
  O  O36  1  0.02071055  0.82477717  0.41055349  1
  O  O37  1  0.81062490  0.98648706  0.41120349  1
  O  O38  1  0.16993462  0.19439718  0.40983082  1
  O  O39  1  0.02528390  0.19946015  0.90862861  1
  O  O40  1  0.17366363  0.97331824  0.90880158  1
  O  O41  1  0.80026849  0.82646977  0.90862498  1
  O  O42  1  0.97883736  0.17353444  0.58904718  1
  O  O43  1  0.19386328  0.01990985  0.58958640  1
  O  O44  1  0.82636734  0.80605245  0.58948371  1
  O  O45  1  0.98534007  0.81063914  0.08785321  1
  O  O46  1  0.82558724  0.02055423  0.08869242  1
  O  O47  1  0.19365095  0.16937165  0.08862761  1
  O  O48  1  0.68135474  0.15510287  0.74551115  1
  O  O49  1  0.47438123  0.31993257  0.74545433  1
  O  O50  1  0.84519352  0.52505636  0.74541546  1
  O  O51  1  0.67990598  0.52243633  0.24416632  1
  O  O52  1  0.84158954  0.31286141  0.24400774  1
  O  O53  1  0.47221005  0.16350294  0.24302712  1
  O  O54  1  0.63491898  0.50407463  0.91883078  1
  O  O55  1  0.86791050  0.36329927  0.91885175  1
  O  O56  1  0.49620658  0.13309460  0.91903531  1
  O  O57  1  0.65272434  0.14449991  0.42237389  1
  O  O58  1  0.49223419  0.35324708  0.42204394  1
  O  O59  1  0.86085725  0.50289842  0.42283771  1
  O  O60  1  0.35376442  0.49110429  0.07714131  1
  O  O61  1  0.14336443  0.65291981  0.07703110  1
  O  O62  1  0.50347327  0.86279036  0.07640250  1
  O  O63  1  0.35277578  0.85937997  0.57821706  1
  O  O64  1  0.50543579  0.64541792  0.57794162  1
  O  O65  1  0.14183425  0.49427622  0.57766208  1
  O  O66  1  0.31323613  0.84114642  0.25500680  1
  O  O67  1  0.52181784  0.68039631  0.25509593  1
  O  O68  1  0.16390393  0.47327904  0.25575180  1
  O  O69  1  0.31231172  0.47510138  0.76085332  1
  O  O70  1  0.16319752  0.68806446  0.76116010  1
  O  O71  1  0.52466028  0.83731976  0.76099909  1
loop_
_geom_bond_atom_site_label_1
_geom_bond_atom_site_label_2
_geom_bond_distance
_geom_bond_site_symmetry_2
Na0 O68 2.371045 1_555
Na0 O53 2.384016 1_555
Na0 O67 2.396213 1_555
Na0 O51 2.402331 1_555
Na0 O32 2.589139 1_555
Na0 O0 2.728322 1_555
Na0 O17 2.794649 1_555
Na0 O10 2.797705 1_555
Na1 O47 2.365779 1_565
Na1 O62 2.379486 1_555
Na1 O45 2.402528 1_455
Na1 O61 2.415306 1_555
Na1 O11 2.555611 1_555
Na1 O16 2.723283 1_565
Na1 O18 2.818255 1_565
Na1 O26 2.835248 1_554
Na2 O59 2.369521 1_555
Na2 O38 2.380163 1_655
Na2 O57 2.400164 1_555
Na2 O37 2.405256 1_545
Na2 O23 2.662261 1_555
Na2 O28 2.733615 1_655
Na2 O2 2.761644 1_555
Na2 O30 2.798627 1_655
Na3 O44 2.510927 1_455
Na3 O43 2.527487 1_565
Na3 O36 2.552601 1_555
Na3 O42 2.620851 1_465
Na3 O37 2.632537 1_455
Na3 O38 2.662680 1_565
Na4 O46 2.457155 1_555
Na4 O45 2.530971 1_545
Na4 O47 2.545226 1_655
Na4 O41 2.646002 1_544
Na4 O39 2.665839 1_654
Na4 O40 2.750088 1_644
Na5 O50 2.524776 1_555
Na5 O48 2.529722 1_555
Na5 O49 2.534537 1_555
Na5 O56 2.562925 1_555
Na5 O55 2.566182 1_555
Na5 O54 2.566208 1_555
Na6 O59 2.510298 1_555
Na6 O57 2.514650 1_555
Na6 O58 2.520342 1_555
Na6 O51 2.626750 1_555
Na6 O52 2.639740 1_555
Na6 O53 2.649790 1_555
Na7 O67 2.486563 1_555
Na7 O66 2.502089 1_555
Na7 O68 2.503300 1_555
Na7 O61 2.650829 1_555
Na7 O62 2.656514 1_555
Na7 O60 2.659202 1_555
Na8 O64 2.316054 1_555
Na8 O63 2.316302 1_555
Na8 O65 2.320995 1_555
Na8 O71 2.914177 1_555
Na8 O70 2.926461 1_555
Na8 O69 2.928409 1_555
Mg0 O1 2.018658 1_555
Mg0 O36 2.046295 1_655
Mg0 O0 2.061772 1_665
Mg0 O37 2.096742 1_555
Mg0 O38 2.116772 1_665
Mg0 O2 2.131002 1_565
Mg1 O3 2.026362 1_665
Mg1 O4 2.029041 1_555
Mg1 O5 2.032855 1_565
Mg1 O41 2.086429 1_555
Mg1 O39 2.093448 1_665
Mg1 O40 2.103271 1_655
Mg2 O44 2.012566 1_445
Mg2 O43 2.014026 1_555
Mg2 O42 2.028717 1_455
Mg2 O7 2.153390 1_555
Mg2 O6 2.162782 1_445
Mg2 O8 2.178645 1_545
Mg3 O9 1.989422 1_555
Mg3 O10 2.014348 1_665
Mg3 O11 2.091128 1_655
Mg3 O46 2.098964 1_565
Mg3 O45 2.154967 1_555
Mg3 O47 2.174237 1_665
Mg4 O13 1.979226 1_555
Mg4 O12 1.983742 1_555
Mg4 O14 1.984562 1_555
Mg4 O50 2.226985 1_555
Mg4 O49 2.234232 1_555
Mg4 O48 2.251125 1_555
Mg5 O15 2.023053 1_555
Mg5 O52 2.046035 1_555
Mg5 O16 2.051928 1_555
Mg5 O51 2.095004 1_555
Mg5 O53 2.114679 1_555
Mg5 O17 2.127442 1_555
Mg6 O19 2.013708 1_556
Mg6 O20 2.032546 1_556
Mg6 O18 2.040203 1_556
Mg6 O55 2.179723 1_555
Mg6 O56 2.198818 1_555
Mg6 O54 2.204173 1_555
Mg7 O21 2.001760 1_555
Mg7 O22 2.003812 1_555
Mg7 O23 2.092257 1_555
Mg7 O58 2.104640 1_555
Mg7 O59 2.144751 1_555
Mg7 O57 2.149007 1_555
Mg8 O60 2.031089 1_555
Mg8 O25 2.032128 1_554
Mg8 O24 2.037087 1_554
Mg8 O62 2.070191 1_555
Mg8 O61 2.075056 1_555
Mg8 O26 2.124418 1_554
Mg9 O27 2.031408 1_555
Mg9 O29 2.054152 1_555
Mg9 O28 2.074854 1_555
Mg9 O63 2.086201 1_555
Mg9 O64 2.097879 1_555
Mg9 O65 2.111023 1_555
Mg10 O31 1.990620 1_555
Mg10 O30 2.012343 1_555
Mg10 O32 2.091529 1_555
Mg10 O66 2.110605 1_555
Mg10 O67 2.147592 1_555
Mg10 O68 2.165794 1_555
O0 S0 1.475178 1_545
O1 S1 1.461417 1_555
O2 S2 1.479793 1_555
O3 S3 1.457985 1_555
O4 S4 1.458374 1_555
O5 S5 1.458785 1_555
O6 S5 1.455405 1_565
O7 S3 1.455972 1_555
O8 S4 1.455492 1_455
O9 S1 1.469587 1_555
O10 S2 1.484314 1_455
O11 S0 1.494156 1_555
O12 S6 1.479680 1_555
O13 S7 1.482420 1_555
O14 S8 1.482945 1_555
O15 S9 1.462889 1_555
O16 S10 1.478593 1_555
O17 S11 1.479691 1_555
O18 S11 1.485582 1_555
O19 S9 1.471470 1_555
O20 S10 1.478585 1_555
O21 S7 1.468162 1_555
O22 S8 1.468421 1_555
O23 S6 1.482500 1_555
O24 S12 1.456275 1_555
O25 S13 1.455374 1_555
O26 S14 1.465520 1_555
O27 S15 1.461713 1_555
O28 S16 1.474604 1_555
O29 S17 1.468068 1_555
O30 S17 1.486914 1_555
O31 S15 1.470445 1_555
O32 S16 1.493727 1_555
O33 S13 1.551069 1_555
O33 Ta0 1.987570 1_555
O34 S14 1.549234 1_555
O34 Ta0 1.997468 1_555
O35 S12 1.551449 1_555
O35 Ta0 1.992925 1_555
O36 S17 1.477952 1_555
O37 S15 1.503473 1_555
O38 S16 1.502066 1_555
O39 S13 1.465324 1_555
O40 S14 1.465441 1_555
O41 S12 1.465782 1_555
O42 S6 1.487699 1_555
O43 S7 1.489331 1_555
O44 S8 1.489056 1_555
O45 S9 1.500775 1_555
O46 S10 1.476097 1_555
O47 S11 1.501189 1_555
O48 S5 1.463899 1_555
O49 S3 1.463762 1_555
O50 S4 1.464346 1_555
O51 S1 1.503088 1_555
O52 S2 1.475550 1_555
O53 S0 1.500945 1_545
O54 S12 1.469249 1_555
O55 S13 1.468562 1_655
O56 S14 1.468962 1_545
O57 S15 1.502248 1_545
O58 S16 1.474794 1_555
O59 S17 1.502289 1_655
O60 S11 1.476202 1_555
O61 S9 1.504724 1_455
O62 S10 1.504523 1_565
O63 S7 1.485010 1_565
O64 S8 1.485632 1_555
O65 S6 1.484539 1_455
O66 S0 1.473774 1_555
O67 S1 1.501145 1_555
O68 S2 1.500438 1_455
O69 S3 1.582256 1_555
O69 Ta0 1.966061 1_555
O70 S4 1.582261 1_455
O70 Ta0 1.966878 1_555
O71 S5 1.581534 1_565
O71 Ta0 1.963970 1_555
