# generated using pymatgen
data_Na4MgMn4O8
_symmetry_space_group_name_H-M   'P 1'
_cell_length_a   5.96109779
_cell_length_b   7.48539759
_cell_length_c   6.07888550
_cell_angle_alpha   66.75127099
_cell_angle_beta   92.48983204
_cell_angle_gamma   112.11336531
_symmetry_Int_Tables_number   1
_chemical_formula_structural   Na4MgMn4O8
_chemical_formula_sum   'Na4 Mg1 Mn4 O8'
_cell_volume   229.12094003
_cell_formula_units_Z   1
loop_
 _symmetry_equiv_pos_site_id
 _symmetry_equiv_pos_as_xyz
  1  'x, y, z'
loop_
 _atom_site_type_symbol
 _atom_site_label
 _atom_site_symmetry_multiplicity
 _atom_site_fract_x
 _atom_site_fract_y
 _atom_site_fract_z
 _atom_site_occupancy
  Na  Na0  1  0.50030276  0.44975417  0.97356733  1
  Na  Na1  1  0.94761036  0.93573141  0.54119548  1
  Na  Na2  1  0.49208775  0.98004843  0.51874711  1
  Na  Na3  1  0.40876752  0.31458333  0.57007010  1
  Mg  Mg0  1  0.66507963  0.69636441  0.25793780  1
  Mn  Mn0  1  0.00932967  0.09029641  0.96859842  1
  Mn  Mn1  1  0.45794595  0.96357871  0.03368927  1
  Mn  Mn2  1  0.06063924  0.59227940  0.94260123  1
  Mn  Mn3  1  0.01628713  0.51577445  0.47206558  1
  O  O0  1  0.28267272  0.06171943  0.18724391  1
  O  O1  1  0.79962091  0.50010525  0.22666866  1
  O  O2  1  0.29261285  0.56688006  0.25740348  1
  O  O3  1  0.71473451  0.97918647  0.24371389  1
  O  O4  1  0.22231861  0.94696864  0.80515651  1
  O  O5  1  0.78994059  0.57487344  0.61737971  1
  O  O6  1  0.15779139  0.42573363  0.76783427  1
  O  O7  1  0.68225842  0.90612236  0.86612725  1
loop_
_geom_bond_atom_site_label_1
_geom_bond_atom_site_label_2
_geom_bond_distance
_geom_bond_site_symmetry_2
Na0 O1 2.325045 1_556
Na0 O6 2.333322 1_555
Na0 O5 2.460249 1_555
Na0 O0 2.477470 1_556
Na0 O2 2.734138 1_556
Na0 O7 2.963668 1_555
Na1 O3 2.227225 1_555
Na1 O4 2.244536 1_655
Na1 O5 2.352235 1_555
Na1 O7 2.472771 1_555
Na1 O0 2.619466 1_665
Na2 O3 2.182783 1_555
Na2 O4 2.298205 1_555
Na2 O0 2.318717 1_565
Na2 O7 2.322141 1_555
Na3 O4 2.362322 1_545
Na3 O2 2.386419 1_555
Na3 O5 2.468663 1_555
Na3 O6 2.501764 1_555
Na3 O1 2.722627 1_555
Mg0 O1 1.989548 1_555
Mg0 O3 1.990694 1_555
Mg0 O2 2.061763 1_555
Mg0 O5 2.225960 1_555
Mg0 O7 2.257536 1_554
Mn0 O0 2.077774 1_556
Mn0 O6 2.139834 1_555
Mn0 O3 2.151751 1_446
Mn0 O7 2.153765 1_445
Mn0 O4 2.393079 1_545
Mn1 O0 1.925250 1_565
Mn1 O4 1.937431 1_554
Mn1 O3 1.949393 1_555
Mn1 O7 1.976768 1_554
Mn1 O2 2.522592 1_555
Mn2 O1 2.088910 1_456
Mn2 O6 2.158895 1_555
Mn2 O4 2.251263 1_555
Mn2 O2 2.300255 1_556
Mn2 O5 2.509428 1_455
Mn3 O5 1.912585 1_455
Mn3 O6 1.933393 1_555
Mn3 O1 1.940069 1_455
Mn3 O2 1.969940 1_555
