# generated using pymatgen
data_MgMn6O11F
_symmetry_space_group_name_H-M   'P 1'
_cell_length_a   6.96662476
_cell_length_b   5.68304012
_cell_length_c   5.81984059
_cell_angle_alpha   83.13555180
_cell_angle_beta   71.52262180
_cell_angle_gamma   74.22185785
_symmetry_Int_Tables_number   1
_chemical_formula_structural   MgMn6O11F
_chemical_formula_sum   'Mg1 Mn6 O11 F1'
_cell_volume   210.16407224
_cell_formula_units_Z   1
loop_
 _symmetry_equiv_pos_site_id
 _symmetry_equiv_pos_as_xyz
  1  'x, y, z'
loop_
 _atom_site_type_symbol
 _atom_site_label
 _atom_site_symmetry_multiplicity
 _atom_site_fract_x
 _atom_site_fract_y
 _atom_site_fract_z
 _atom_site_occupancy
  Mg  Mg0  1  0.15206692  0.34199086  0.84363366  1
  Mn  Mn0  1  0.82000205  0.68110589  0.65838823  1
  Mn  Mn1  1  0.66458385  0.30075291  0.38076339  1
  Mn  Mn2  1  0.32990444  0.74209035  0.60433512  1
  Mn  Mn3  1  0.15697916  0.33584034  0.35030435  1
  Mn  Mn4  1  0.51258462  0.98713211  0.00542219  1
  Mn  Mn5  1  0.00051775  0.93230305  0.06365011  1
  O  O0  1  0.67958291  0.01789951  0.67474530  1
  O  O1  1  0.28387392  0.96483349  0.86621013  1
  O  O2  1  0.62878179  0.60989354  0.51581826  1
  O  O3  1  0.97059217  0.25477220  0.19667774  1
  O  O4  1  0.70388038  0.06961326  0.13951673  1
  O  O5  1  0.04373205  0.71787515  0.80444420  1
  O  O6  1  0.35447018  0.40924660  0.49790823  1
  O  O7  1  0.31394850  -0.00029744  0.32733034  1
  O  O8  1  0.64379876  0.66579202  0.98066044  1
  O  O9  1  0.96582300  0.33223570  0.65180468  1
  O  O10  1  0.02369513  0.67621676  0.33910572  1
  F  F0  1  0.35303640  0.36070370  0.01177917  1
loop_
_geom_bond_atom_site_label_1
_geom_bond_atom_site_label_2
_geom_bond_distance
_geom_bond_site_symmetry_2
Mg0 O9 1.976113 1_455
Mg0 O5 2.073816 1_555
Mg0 O1 2.096049 1_545
Mg0 O6 2.119835 1_555
Mg0 O3 2.125203 1_456
Mn0 O8 1.895237 1_555
Mn0 O0 1.896246 1_565
Mn0 O2 1.923795 1_555
Mn0 O10 1.945970 1_655
Mn0 O9 1.965326 1_555
Mn0 O5 2.062751 1_655
Mn1 O2 1.932376 1_555
Mn1 O4 1.942511 1_555
Mn1 O6 1.988702 1_555
Mn1 O3 2.019183 1_555
Mn1 O0 2.210586 1_555
Mn2 O2 1.930578 1_555
Mn2 O1 1.989635 1_555
Mn2 O5 1.997270 1_555
Mn2 O6 2.006931 1_555
Mn2 O7 2.053183 1_565
Mn3 O9 1.837899 1_455
Mn3 O10 1.907791 1_555
Mn3 O7 1.922300 1_555
Mn3 O3 1.964025 1_455
Mn3 O6 1.987932 1_555
Mn4 O8 1.806354 1_554
Mn4 O4 1.921254 1_565
Mn4 O0 1.923213 1_564
Mn4 O7 1.940317 1_565
Mn4 O1 2.040543 1_554
Mn5 O4 1.923945 1_465
Mn5 O5 1.950220 1_554
Mn5 O1 1.990290 1_554
Mn5 O3 2.007576 1_465
Mn5 O10 2.047594 1_555
F0 Mg0 1.975713 1_554
F0 Mn3 2.024794 1_555
F0 Mn4 2.110322 1_545
