# generated using pymatgen
data_Na6Y5Ta3Si6(SO8)6
_symmetry_space_group_name_H-M   'P 1'
_cell_length_a   18.32836999
_cell_length_b   9.15914054
_cell_length_c   23.42619146
_cell_angle_alpha   90.40433981
_cell_angle_beta   89.88336576
_cell_angle_gamma   120.00941824
_symmetry_Int_Tables_number   1
_chemical_formula_structural   Na6Y5Ta3Si6(SO8)6
_chemical_formula_sum   'Na18 Y15 Ta9 Si18 S18 O144'
_cell_volume   3405.32213321
_cell_formula_units_Z   3
loop_
 _symmetry_equiv_pos_site_id
 _symmetry_equiv_pos_as_xyz
  1  'x, y, z'
loop_
 _atom_site_type_symbol
 _atom_site_label
 _atom_site_symmetry_multiplicity
 _atom_site_fract_x
 _atom_site_fract_y
 _atom_site_fract_z
 _atom_site_occupancy
  Na  Na0  1  0.48934384  0.69221205  0.90654418  1
  Na  Na1  1  0.15828233  0.32895075  0.90711745  1
  Na  Na2  1  0.49185236  0.29764315  0.41164439  1
  Na  Na3  1  0.97819924  0.29047082  0.40240716  1
  Na  Na4  1  0.16076733  0.01744253  0.40726968  1
  Na  Na5  1  0.66166953  0.02817976  0.41783967  1
  Na  Na6  1  0.97231024  0.95072120  0.48956718  1
  Na  Na7  1  0.49034718  0.98062216  0.49059484  1
  Na  Na8  1  0.98868243  0.00318690  0.00046812  1
  Na  Na9  1  0.50042665  0.99021836  0.98675862  1
  Na  Na10  1  0.33129398  0.32494119  0.81740679  1
  Na  Na11  1  0.83109894  0.35242648  0.83222059  1
  Na  Na12  1  0.34000485  0.32278417  0.33009730  1
  Na  Na13  1  0.84315562  0.34084501  0.33503425  1
  Na  Na14  1  0.14364803  0.65509789  0.16426085  1
  Na  Na15  1  0.66625190  0.63405440  0.16903405  1
  Na  Na16  1  0.17005480  0.67157139  0.67827217  1
  Na  Na17  1  0.66025820  0.65286693  0.66611267  1
  Y  Y0  1  0.99516431  0.98973429  0.34911526  1
  Y  Y1  1  0.49248635  0.99583109  0.35081543  1
  Y  Y2  1  0.99847528  0.99554748  0.85201987  1
  Y  Y3  1  0.50023381  0.00270562  0.84973239  1
  Y  Y4  1  0.33482457  0.33283099  0.68893089  1
  Y  Y5  1  0.83393673  0.33991452  0.68723329  1
  Y  Y6  1  0.33616681  0.32875708  0.18941158  1
  Y  Y7  1  0.84086607  0.34327685  0.18415753  1
  Y  Y8  1  0.33101594  0.33896362  0.97862745  1
  Y  Y9  1  0.33808139  0.33768867  0.47825031  1
  Y  Y10  1  0.83420137  0.34099641  0.47628404  1
  Y  Y11  1  0.16313602  0.66193336  0.01882377  1
  Y  Y12  1  0.66854453  0.66982065  0.02349844  1
  Y  Y13  1  0.16918057  0.67308600  0.52142473  1
  Y  Y14  1  0.66710835  0.66630774  0.51725892  1
  Ta  Ta0  1  0.00490873  0.99677113  0.65613266  1
  Ta  Ta1  1  0.50055565  0.00443226  0.66060337  1
  Ta  Ta2  1  0.00429752  0.99773296  0.15331046  1
  Ta  Ta3  1  0.50999533  0.02569076  0.14929784  1
  Ta  Ta4  1  0.83504278  0.34029878  0.98070130  1
  Ta  Ta5  1  0.16126071  0.67464681  0.30918886  1
  Ta  Ta6  1  0.66599963  0.65536752  0.31803638  1
  Ta  Ta7  1  0.16315971  0.64908477  0.81078544  1
  Ta  Ta8  1  0.66695626  0.67890982  0.81030156  1
  Si  Si0  1  0.14762769  0.99706746  0.25430536  1
  Si  Si1  1  0.00409715  0.29907860  0.25428796  1
  Si  Si2  1  0.51192426  0.31711718  0.25290127  1
  Si  Si3  1  0.14610369  0.29691852  0.75527565  1
  Si  Si4  1  0.64847720  0.30569870  0.75454630  1
  Si  Si5  1  0.00459717  0.70096036  0.75411412  1
  Si  Si6  1  0.50522304  0.71040430  0.75445586  1
  Si  Si7  1  0.34594230  0.98593129  0.75454084  1
  Si  Si8  1  0.97961002  0.64275480  0.08335202  1
  Si  Si9  1  0.68871599  0.32849573  0.08456206  1
  Si  Si10  1  0.31129367  0.66731596  0.91713689  1
  Si  Si11  1  0.01559077  0.37605383  0.91651281  1
  Si  Si12  1  0.67314287  0.96735752  0.91937176  1
  Si  Si13  1  0.30782484  0.95542136  0.41483725  1
  Si  Si14  1  0.81268813  0.95811571  0.41502986  1
  Si  Si15  1  0.66758309  0.37058630  0.41599570  1
  Si  Si16  1  0.02168230  0.66544084  0.41649351  1
  Si  Si17  1  0.52020685  0.66170600  0.41545211  1
  S  S0  1  0.64222647  0.98553874  0.24775092  1
  S  S1  1  0.34985506  0.71630101  0.24439792  1
  S  S2  1  0.84721048  0.71270244  0.24571397  1
  S  S3  1  0.84975063  0.98364931  0.74816223  1
  S  S4  1  0.48390109  0.31451710  0.58493939  1
  S  S5  1  0.98310025  0.31253789  0.58536526  1
  S  S6  1  0.17420895  0.03437634  0.58513571  1
  S  S7  1  0.67439919  0.03219769  0.58594777  1
  S  S8  1  0.34235781  0.64917663  0.58685559  1
  S  S9  1  0.84080533  0.65172922  0.58767999  1
  S  S10  1  0.48125502  0.64567623  0.08558443  1
  S  S11  1  0.34270890  0.03545330  0.08670039  1
  S  S12  1  0.84322215  0.05400483  0.08136761  1
  S  S13  1  0.17785062  0.31777896  0.08667153  1
  S  S14  1  0.80834770  0.64987609  0.91672216  1
  S  S15  1  0.52532616  0.39420082  0.91349107  1
  S  S16  1  0.16866867  0.95968450  0.91449610  1
  S  S17  1  0.16863127  0.38202825  0.41375967  1
  O  O0  1  0.11030891  0.01323292  0.31372675  1
  O  O1  1  0.60378493  0.00253485  0.30024651  1
  O  O2  1  0.39664527  0.77879246  0.29784005  1
  O  O3  1  0.89478140  0.78426843  0.29846892  1
  O  O4  1  0.49864658  0.21451652  0.31014802  1
  O  O5  1  0.99655771  0.20550638  0.31332931  1
  O  O6  1  0.10725024  0.19853628  0.81338501  1
  O  O7  1  0.60994240  0.20125460  0.81058511  1
  O  O8  1  0.49340251  0.77544540  0.81462847  1
  O  O9  1  0.98286969  0.78139942  0.80693418  1
  O  O10  1  0.40196439  0.02499975  0.81002341  1
  O  O11  1  0.89738420  0.01402592  0.80057517  1
  O  O12  1  0.40336097  0.96766726  0.69807614  1
  O  O13  1  0.89462786  0.95943885  0.69803066  1
  O  O14  1  0.07820677  0.18121844  0.70036953  1
  O  O15  1  0.58098504  0.20240809  0.69831778  1
  O  O16  1  0.01147131  0.83077599  0.69629663  1
  O  O17  1  0.51775903  0.84688755  0.70176012  1
  O  O18  1  0.40009240  0.82944721  0.19593872  1
  O  O19  1  0.89692198  0.81915452  0.19531269  1
  O  O20  1  0.00764014  0.17775605  0.19890066  1
  O  O21  1  0.51819253  0.19749183  0.19678461  1
  O  O22  1  0.07980080  0.97004853  0.19913917  1
  O  O23  1  0.58419424  0.97197587  0.19755383  1
  O  O24  1  0.43483655  0.32847045  0.63170662  1
  O  O25  1  0.93708072  0.33257075  0.63316017  1
  O  O26  1  0.22847095  0.13042381  0.63229470  1
  O  O27  1  0.73043054  0.13012113  0.63335390  1
  O  O28  1  0.33504720  0.54367189  0.63553569  1
  O  O29  1  0.83520630  0.54704885  0.63621029  1
  O  O30  1  0.43484308  0.53270131  0.13238545  1
  O  O31  1  0.93968409  0.53381223  0.13932768  1
  O  O32  1  0.33460333  0.12472725  0.13612945  1
  O  O33  1  0.82911243  0.12222787  0.13385900  1
  O  O34  1  0.23283608  0.33165906  0.13367860  1
  O  O35  1  0.73690442  0.34033687  0.14167564  1
  O  O36  1  0.21125170  0.29235534  0.03169592  1
  O  O37  1  0.73892275  0.30676640  0.02780863  1
  O  O38  1  0.43620391  0.57441617  0.03031370  1
  O  O39  1  0.91673773  0.53155847  0.02712829  1
  O  O40  1  0.35729363  0.13378967  0.03391881  1
  O  O41  1  0.85092765  0.15984617  0.03049441  1
  O  O42  1  0.20571115  0.12005525  0.53004897  1
  O  O43  1  0.71017889  0.11834427  0.53082013  1
  O  O44  1  0.34867909  0.56981880  0.53267417  1
  O  O45  1  0.85258882  0.58252255  0.53363051  1
  O  O46  1  0.44051722  0.30019345  0.52932435  1
  O  O47  1  0.93873782  0.29375270  0.53070155  1
  O  O48  1  0.26745575  0.67425117  0.97533854  1
  O  O49  1  0.76750914  0.66336270  0.96839490  1
  O  O50  1  0.07749938  0.45634237  0.97023915  1
  O  O51  1  0.57175818  0.47241018  0.96569405  1
  O  O52  1  0.16293692  0.87049830  0.96733327  1
  O  O53  1  0.65854269  0.84091446  0.97051165  1
  O  O54  1  0.26679252  0.85323533  0.47252243  1
  O  O55  1  0.76937576  0.85209686  0.47149865  1
  O  O56  1  0.16031861  0.45962108  0.46677351  1
  O  O57  1  0.64983361  0.45239859  0.47095359  1
  O  O58  1  0.07705545  0.67845749  0.47110443  1
  O  O59  1  0.57183987  0.68509473  0.47302787  1
  O  O60  1  0.07446803  0.65347698  0.35689933  1
  O  O61  1  0.57585626  0.64620298  0.35850682  1
  O  O62  1  0.25084833  0.84150257  0.35724281  1
  O  O63  1  0.75601860  0.84884521  0.35600481  1
  O  O64  1  0.17501445  0.48258685  0.36275890  1
  O  O65  1  0.67434317  0.49085781  0.35821516  1
  O  O66  1  0.06704768  0.49480145  0.85924555  1
  O  O67  1  0.57393867  0.50008583  0.86216257  1
  O  O68  1  0.17245841  0.87082724  0.86305714  1
  O  O69  1  0.68464221  0.86133976  0.86028290  1
  O  O70  1  0.24613282  0.64418183  0.86192219  1
  O  O71  1  0.75906297  0.63539416  0.86426633  1
  O  O72  1  0.01394945  0.83317671  0.41428072  1
  O  O73  1  0.51337826  0.82743321  0.40616880  1
  O  O74  1  0.40551242  0.00493963  0.41128682  1
  O  O75  1  0.91009047  0.00221358  0.41288512  1
  O  O76  1  0.09310034  0.21048337  0.41094431  1
  O  O77  1  0.58775897  0.18159684  0.40905990  1
  O  O78  1  -0.00002835  0.18487697  0.91085915  1
  O  O79  1  0.51015611  0.22305164  0.90988338  1
  O  O80  1  0.09582289  0.98995326  0.91360292  1
  O  O81  1  0.59092209  0.98668616  0.91410079  1
  O  O82  1  0.40785472  0.81918487  0.91491351  1
  O  O83  1  0.89429044  0.79555666  0.91426522  1
  O  O84  1  0.48932350  0.15675531  0.59159853  1
  O  O85  1  0.98705611  0.15294449  0.59474391  1
  O  O86  1  0.08752331  0.01965083  0.59423822  1
  O  O87  1  0.59000220  0.02082753  0.59361859  1
  O  O88  1  0.42096385  0.81922014  0.59227681  1
  O  O89  1  0.91823894  0.82470478  0.59500341  1
  O  O90  1  0.48607543  0.81256819  0.09438791  1
  O  O91  1  0.97992816  0.82824421  0.09371714  1
  O  O92  1  0.42190321  0.02185511  0.09573397  1
  O  O93  1  0.92281425  0.04695665  0.08512111  1
  O  O94  1  0.09217220  0.15943393  0.09481639  1
  O  O95  1  0.59119133  0.14672951  0.09436958  1
  O  O96  1  0.32651649  0.13328443  0.73903101  1
  O  O97  1  0.83249636  0.11968111  0.73732415  1
  O  O98  1  0.23836673  0.33112205  0.74221523  1
  O  O99  1  0.74119458  0.33704589  0.74111833  1
  O  O100  1  0.43443466  0.52198434  0.74009966  1
  O  O101  1  0.93190822  0.51148932  0.74075611  1
  O  O102  1  0.33473219  0.54433822  0.23509797  1
  O  O103  1  0.83138290  0.54068282  0.24056980  1
  O  O104  1  0.43537843  0.35133780  0.24161887  1
  O  O105  1  0.92604816  0.33124923  0.24752378  1
  O  O106  1  0.23927402  0.15376033  0.24296153  1
  O  O107  1  0.72555338  0.13289110  0.24049092  1
  O  O108  1  0.31195674  0.48306407  0.91717497  1
  O  O109  1  0.81322706  0.48931441  0.91990849  1
  O  O110  1  0.44434974  0.39790782  0.91358628  1
  O  O111  1  0.92477361  0.37143198  0.92720639  1
  O  O112  1  0.24721405  0.13099662  0.91643690  1
  O  O113  1  0.76080501  0.15119859  0.92902834  1
  O  O114  1  0.30321346  0.13189186  0.41569940  1
  O  O115  1  0.81063851  0.13570575  0.41508351  1
  O  O116  1  0.24468219  0.36293909  0.41641208  1
  O  O117  1  0.75335027  0.36188025  0.41620387  1
  O  O118  1  0.43150652  0.48050991  0.41521031  1
  O  O119  1  0.93370685  0.48721513  0.41529699  1
  O  O120  1  0.16458250  0.46302051  0.08583748  1
  O  O121  1  0.66453146  0.47403630  0.07774137  1
  O  O122  1  0.07674150  0.69101878  0.07707447  1
  O  O123  1  0.56766609  0.67222855  0.08434652  1
  O  O124  1  0.27078317  0.86437953  0.08416242  1
  O  O125  1  0.77186587  0.88042357  0.07450984  1
  O  O126  1  0.15950238  0.86034763  0.58552327  1
  O  O127  1  0.66240321  0.85952363  0.58703992  1
  O  O128  1  0.26772644  0.67247760  0.58612470  1
  O  O129  1  0.76633175  0.67357405  0.58754501  1
  O  O130  1  0.07062717  0.45665570  0.58457629  1
  O  O131  1  0.57005930  0.46292551  0.58629602  1
  O  O132  1  0.15194293  0.81879683  0.25455027  1
  O  O133  1  0.64478188  0.82652561  0.24641978  1
  O  O134  1  0.26781978  0.71218023  0.24731432  1
  O  O135  1  0.76714835  0.71656014  0.24668768  1
  O  O136  1  0.09671571  0.48213892  0.25665824  1
  O  O137  1  0.60248368  0.49787914  0.25349739  1
  O  O138  1  0.14353558  0.47471789  0.75617471  1
  O  O139  1  0.65491252  0.49445488  0.76151806  1
  O  O140  1  0.09610806  0.71179649  0.75933969  1
  O  O141  1  0.59883625  0.71225783  0.75829847  1
  O  O142  1  0.25726067  0.80404422  0.75938142  1
  O  O143  1  0.76722575  0.81959491  0.75274414  1
loop_
_geom_bond_atom_site_label_1
_geom_bond_atom_site_label_2
_geom_bond_distance
_geom_bond_site_symmetry_2
Na0 O8 2.277919 1_555
Na0 O82 2.314021 1_555
Na0 O81 2.396615 1_555
Na0 O110 2.399072 1_555
Na0 O108 2.841759 1_555
Na1 O6 2.444778 1_555
Na1 O108 2.449966 1_555
Na1 O78 2.517690 1_555
Na1 O80 2.724821 1_545
Na1 O50 2.726723 1_555
Na1 O70 2.726850 1_555
Na2 O74 2.334018 1_555
Na2 O118 2.426168 1_555
Na2 O77 2.467961 1_555
Na2 O4 2.513285 1_555
Na2 O57 2.864759 1_555
Na2 O46 2.914831 1_555
Na3 O75 2.302240 1_555
Na3 O5 2.304237 1_555
Na3 O119 2.337656 1_555
Na3 O76 2.561020 1_655
Na3 O115 2.678977 1_555
Na4 O114 2.283801 1_555
Na4 O72 2.361307 1_545
Na4 O0 2.372805 1_555
Na4 O116 2.747459 1_555
Na5 O115 2.395700 1_555
Na5 O77 2.400247 1_555
Na5 O73 2.416558 1_545
Na5 O117 2.651561 1_555
Na5 O43 2.778812 1_555
Na5 O1 2.919408 1_555
Na6 O75 2.303940 1_565
Na6 O72 2.375220 1_655
Na6 O89 2.702069 1_555
Na7 O74 2.506595 1_565
Na7 O73 2.570663 1_555
Na7 O77 2.640579 1_565
Na7 O88 2.762876 1_555
Na7 O84 2.859661 1_565
Na7 O87 2.937537 1_565
Na8 O93 2.452348 1_555
Na8 O78 2.630943 1_654
Na8 O91 2.675052 1_545
Na8 O83 2.712308 1_544
Na8 O94 2.790717 1_655
Na8 O80 2.868813 1_644
Na9 O82 2.341193 1_555
Na9 O81 2.385508 1_555
Na9 O79 2.737755 1_565
Na9 O90 2.949743 1_556
Na9 O95 2.959403 1_566
Na9 O92 3.010683 1_566
Na10 O98 2.473236 1_555
Na10 O96 2.502321 1_555
Na10 O100 2.594227 1_555
Na10 O108 2.854443 1_555
Na10 O112 2.866635 1_555
Na10 O110 2.903349 1_555
Na11 O109 2.504132 1_555
Na11 O99 2.658513 1_555
Na11 O101 2.731800 1_555
Na11 O111 2.764148 1_555
Na11 O113 2.805667 1_555
Na12 O114 2.529358 1_555
Na12 O118 2.534678 1_555
Na12 O104 2.637384 1_555
Na12 O106 2.661525 1_555
Na12 O116 2.809646 1_555
Na13 O119 2.416318 1_555
Na13 O115 2.515370 1_555
Na13 O105 2.576227 1_555
Na13 O117 2.580963 1_555
Na13 O103 2.957701 1_555
Na13 O107 3.005390 1_555
Na14 O122 2.491356 1_555
Na14 O132 2.544304 1_555
Na14 O136 2.571453 1_555
Na14 O120 2.691490 1_555
Na14 O134 2.837574 1_555
Na14 O124 2.861818 1_555
Na15 O137 2.324646 1_555
Na15 O135 2.428274 1_555
Na15 O121 2.575393 1_555
Na15 O133 2.682330 1_555
Na15 O123 2.824787 1_555
Na16 O142 2.382674 1_555
Na16 O138 2.446178 1_555
Na16 O140 2.461373 1_555
Na16 O128 2.798971 1_555
Na16 O126 2.852550 1_555
Na16 O130 2.894920 1_555
Na17 O131 2.519040 1_555
Na17 O141 2.610179 1_555
Na17 O129 2.612437 1_555
Na17 O127 2.643912 1_555
Na17 O139 2.648131 1_555
Na17 O143 2.696674 1_555
O0 Si0 1.588079 1_545
O0 Y0 2.174508 1_445
O1 S0 1.461668 1_545
O1 Y1 2.331162 1_545
O2 S1 1.460716 1_555
O2 Y1 2.249134 1_555
O3 S2 1.462347 1_555
O3 Y0 2.201869 1_555
O4 Si2 1.590126 1_555
O4 Y1 2.175436 1_545
O5 Si1 1.601283 1_655
O5 Y0 2.140553 1_545
O6 Si3 1.594889 1_555
O6 Y2 2.135230 1_445
O7 Si4 1.573356 1_555
O7 Y3 2.132990 1_555
O8 Si6 1.582669 1_555
O8 Y3 2.177196 1_565
O9 Si5 1.584642 1_655
O9 Y2 2.110757 1_555
O10 Si7 1.582097 1_545
O10 Y3 2.128013 1_555
O11 S3 1.450438 1_545
O11 Y2 2.289035 1_545
O12 Si7 1.747138 1_555
O12 Ta1 1.858824 1_565
O13 S3 1.509885 1_555
O13 Ta0 2.114506 1_655
O14 Si3 1.730374 1_555
O14 Ta0 1.855661 1_545
O15 Si4 1.725900 1_555
O15 Ta1 1.884297 1_555
O16 Si5 1.770960 1_555
O16 Ta0 1.847931 1_555
O17 Si6 1.694898 1_555
O17 Ta1 1.893980 1_565
O18 S1 1.506106 1_555
O18 Ta3 2.208895 1_565
O19 S2 1.515960 1_555
O19 Ta2 2.076416 1_655
O20 Si1 1.724539 1_555
O20 Ta2 1.933257 1_545
O21 Si2 1.745515 1_555
O21 Ta3 1.864306 1_555
O22 Si0 1.723688 1_555
O22 Ta2 1.868911 1_555
O23 S0 1.549329 1_555
O23 Ta3 2.013155 1_565
O24 S4 1.460921 1_555
O24 Y4 2.285001 1_555
O25 S5 1.465189 1_555
O25 Y5 2.302001 1_555
O26 S6 1.448820 1_555
O26 Y4 2.314724 1_555
O27 S7 1.470248 1_555
O27 Y5 2.283315 1_555
O28 S8 1.462072 1_555
O28 Y4 2.306524 1_555
O29 S9 1.462457 1_555
O29 Y5 2.239692 1_555
O30 S10 1.458801 1_555
O30 Y6 2.278360 1_555
O31 Si8 1.592109 1_555
O31 Y7 2.070082 1_555
O32 S11 1.462504 1_555
O32 Y6 2.228151 1_555
O33 S12 1.455655 1_555
O33 Y7 2.250549 1_555
O34 S13 1.455620 1_555
O34 Y6 2.313662 1_555
O35 Si9 1.577624 1_555
O35 Y7 2.139597 1_555
O36 S13 1.490891 1_555
O36 Y8 2.367531 1_554
O37 Si9 1.681810 1_555
O37 Ta4 1.967600 1_554
O38 S10 1.495862 1_555
O38 Y8 2.376436 1_554
O39 Si8 1.706819 1_555
O39 Ta4 1.962044 1_554
O40 S11 1.478201 1_555
O40 Y8 2.526533 1_554
O41 S12 1.502894 1_555
O41 Ta4 2.164959 1_554
O42 S6 1.473957 1_555
O42 Y9 2.552769 1_555
O43 S7 1.487873 1_555
O43 Y10 2.519146 1_555
O44 S8 1.491101 1_555
O44 Y9 2.394415 1_555
O45 S9 1.475172 1_555
O45 Y10 2.454830 1_555
O46 S4 1.498117 1_555
O46 Y9 2.394644 1_555
O47 S5 1.480457 1_555
O47 Y10 2.516022 1_555
O48 Si10 1.598111 1_555
O48 Y11 2.117585 1_556
O49 S14 1.458596 1_555
O49 Y12 2.248695 1_556
O50 Si11 1.603266 1_555
O50 Y11 2.079761 1_556
O51 S15 1.454298 1_555
O51 Y12 2.239785 1_556
O52 S16 1.462292 1_555
O52 Y11 2.267964 1_556
O53 Si12 1.598857 1_555
O53 Y12 2.084665 1_556
O54 Si13 1.605407 1_555
O54 Y13 2.073934 1_555
O55 Si14 1.601817 1_555
O55 Y14 2.094099 1_555
O56 S17 1.471636 1_555
O56 Y13 2.266267 1_555
O57 Si15 1.597932 1_555
O57 Y14 2.113387 1_555
O58 Si16 1.600941 1_555
O58 Y13 2.082086 1_555
O59 Si17 1.599691 1_555
O59 Y14 2.112485 1_555
O60 Si16 1.730723 1_555
O60 Ta5 1.872064 1_555
O61 Si17 1.725320 1_555
O61 Ta6 1.868584 1_555
O62 Si13 1.701633 1_555
O62 Ta5 1.942190 1_555
O63 Si14 1.714326 1_555
O63 Ta6 1.926844 1_555
O64 S17 1.482092 1_555
O64 Ta5 2.282298 1_555
O65 Si15 1.716056 1_555
O65 Ta6 1.852228 1_555
O66 Si11 1.691615 1_555
O66 Ta7 1.978200 1_555
O67 S15 1.525778 1_555
O67 Ta8 2.071639 1_555
O68 S16 1.470245 1_555
O68 Ta7 2.296272 1_555
O69 Si12 1.757261 1_555
O69 Ta8 1.923559 1_555
O70 Si10 1.701055 1_555
O70 Ta7 1.956088 1_555
O71 S14 1.491971 1_555
O71 Ta8 2.301254 1_555
O72 Si16 1.613072 1_555
O72 Y0 2.243219 1_455
O73 Si17 1.600574 1_555
O73 Y1 2.197284 1_555
O74 Si13 1.614308 1_545
O74 Y1 2.162648 1_545
O75 Si14 1.622146 1_545
O75 Y0 2.200555 1_545
O76 S17 1.487501 1_555
O76 Y0 2.397265 1_445
O77 Si15 1.620793 1_555
O77 Y1 2.193369 1_545
O78 Si11 1.631263 1_555
O78 Y2 2.196956 1_445
O79 S15 1.450518 1_555
O79 Y3 2.384426 1_555
O80 S16 1.493439 1_555
O80 Y2 2.317392 1_455
O81 Si12 1.607943 1_555
O81 Y3 2.305513 1_565
O82 Si10 1.614913 1_555
O82 Y3 2.280925 1_565
O83 S14 1.470797 1_555
O83 Y2 2.378123 1_555
O84 S4 1.506327 1_555
O84 Ta1 2.218658 1_555
O85 S5 1.516844 1_555
O85 Ta0 2.172653 1_645
O86 S6 1.540339 1_555
O86 Ta0 2.029038 1_545
O87 S7 1.507947 1_555
O87 Ta1 2.217926 1_555
O88 S8 1.506958 1_555
O88 Ta1 2.250248 1_565
O89 S9 1.517135 1_555
O89 Ta0 2.128619 1_655
O90 S10 1.499150 1_555
O90 Ta3 2.183588 1_565
O91 Si8 1.711610 1_555
O91 Ta2 1.958744 1_655
O92 S11 1.532844 1_555
O92 Ta3 2.033107 1_555
O93 S12 1.494918 1_555
O93 Ta2 2.383024 1_645
O94 S13 1.526543 1_555
O94 Ta2 2.073363 1_545
O95 Si9 1.745430 1_555
O95 Ta3 1.860517 1_555
O96 Si7 1.602619 1_545
O96 Y4 2.119484 1_555
O97 S3 1.454560 1_545
O97 Y5 2.329497 1_555
O98 Si3 1.587663 1_555
O98 Y4 2.155807 1_555
O99 Si4 1.606318 1_555
O99 Y5 2.104891 1_555
O100 Si6 1.590153 1_555
O100 Y4 2.141779 1_555
O101 Si5 1.601816 1_655
O101 Y5 2.103509 1_555
O102 S1 1.470962 1_555
O102 Y6 2.250986 1_555
O103 S2 1.456473 1_555
O103 Y7 2.307692 1_555
O104 Si2 1.605905 1_555
O104 Y6 2.115273 1_555
O105 Si1 1.606705 1_655
O105 Y7 2.199307 1_555
O106 Si0 1.594994 1_545
O106 Y6 2.113901 1_555
O107 S0 1.457146 1_545
O107 Y7 2.423288 1_555
O108 Si10 1.693706 1_555
O108 Y8 2.103921 1_555
O109 S14 1.519666 1_555
O109 Ta4 2.150938 1_555
O110 S15 1.501432 1_555
O110 Y8 2.409325 1_555
O111 Si11 1.662281 1_655
O111 Ta4 1.970813 1_555
O112 S16 1.508739 1_545
O112 Y8 2.270101 1_555
O113 Si12 1.660682 1_545
O113 Ta4 1.984011 1_555
O114 Si13 1.660186 1_545
O114 Y9 2.206450 1_555
O115 Si14 1.645674 1_545
O115 Y10 2.220287 1_555
O116 S17 1.490517 1_555
O116 Y9 2.343783 1_555
O117 Si15 1.613351 1_555
O117 Y10 2.123501 1_555
O118 Si17 1.642675 1_555
O118 Y9 2.144890 1_555
O119 Si16 1.622381 1_655
O119 Y10 2.175801 1_555
O120 S13 1.467367 1_555
O120 Y11 2.423485 1_555
O121 Si9 1.610378 1_555
O121 Y12 2.176137 1_555
O122 Si8 1.612149 1_455
O122 Y11 2.201927 1_555
O123 S10 1.477485 1_555
O123 Y12 2.341057 1_555
O124 S11 1.459232 1_565
O124 Y11 2.446741 1_555
O125 S12 1.476916 1_565
O125 Y12 2.248949 1_555
O126 S6 1.477786 1_565
O126 Y13 2.344115 1_555
O127 S7 1.484252 1_565
O127 Y14 2.433670 1_555
O128 S8 1.486294 1_555
O128 Y13 2.362400 1_555
O129 S9 1.475269 1_555
O129 Y14 2.431543 1_555
O130 S5 1.482673 1_455
O130 Y13 2.414497 1_555
O131 S4 1.481499 1_555
O131 Y14 2.442536 1_555
O132 Si0 1.673814 1_555
O132 Ta5 1.913361 1_555
O133 S0 1.480514 1_555
O133 Ta6 2.464362 1_555
O134 S1 1.486498 1_555
O134 Ta5 2.314630 1_555
O135 S2 1.485521 1_555
O135 Ta6 2.346480 1_555
O136 Si1 1.687606 1_555
O136 Ta5 1.977772 1_555
O137 Si2 1.657472 1_555
O137 Ta6 2.004606 1_555
O138 Si3 1.652520 1_555
O138 Ta7 1.927447 1_555
O139 Si4 1.679764 1_555
O139 Ta8 1.951851 1_555
O140 Si5 1.634668 1_555
O140 Ta7 2.003640 1_555
O141 Si6 1.709899 1_555
O141 Ta8 1.878594 1_555
O142 Si7 1.650282 1_555
O142 Ta7 2.001558 1_555
O143 S3 1.511733 1_555
O143 Ta8 2.121681 1_555
