# generated using pymatgen
data_Na4ZnSiGe(PO6)2
_symmetry_space_group_name_H-M   'P 1'
_cell_length_a   8.95628466
_cell_length_b   8.94091026
_cell_length_c   21.67169983
_cell_angle_alpha   90.27688362
_cell_angle_beta   90.00000000
_cell_angle_gamma   120.05689878
_symmetry_Int_Tables_number   1
_chemical_formula_structural   Na4ZnSiGe(PO6)2
_chemical_formula_sum   'Na24 Zn6 Si6 Ge6 P12 O72'
_cell_volume   1502.02504899
_cell_formula_units_Z   6
loop_
 _symmetry_equiv_pos_site_id
 _symmetry_equiv_pos_as_xyz
  1  'x, y, z'
loop_
 _atom_site_type_symbol
 _atom_site_label
 _atom_site_symmetry_multiplicity
 _atom_site_fract_x
 _atom_site_fract_y
 _atom_site_fract_z
 _atom_site_occupancy
  Na  Na0  1  0.63586013  0.01131903  0.24852944  1
  Na  Na1  1  0.37194542  0.35766179  0.24967992  1
  Na  Na2  1  0.98998150  0.62679052  0.24475285  1
  Na  Na3  1  0.63680902  0.62679052  0.74475285  1
  Na  Na4  1  0.98571637  0.35766179  0.74967992  1
  Na  Na5  1  0.37545890  0.01131903  0.74852944  1
  Na  Na6  1  0.30765475  0.34711315  0.58289625  1
  Na  Na7  1  0.03644148  0.69378578  0.58046281  1
  Na  Na8  1  0.65454112  0.95531689  0.57997589  1
  Na  Na9  1  0.30077677  0.95531689  0.07997589  1
  Na  Na10  1  0.65734530  0.69378578  0.08046281  1
  Na  Na11  1  0.03945940  0.34711315  0.08289625  1
  Na  Na12  1  0.97542755  0.68173891  0.91688699  1
  Na  Na13  1  0.70626777  0.03111710  0.91181507  1
  Na  Na14  1  0.32168217  0.29260256  0.91446740  1
  Na  Na15  1  0.97091939  0.29260256  0.41446740  1
  Na  Na16  1  0.32484834  0.03111710  0.41181507  1
  Na  Na17  1  0.70631036  0.68173891  0.41688699  1
  Na  Na18  1  0.99540780  0.99936231  0.49579719  1
  Na  Na19  1  0.00395451  0.99936231  0.99579719  1
  Na  Na20  1  0.66699181  0.32936922  0.82930556  1
  Na  Na21  1  0.66237840  0.32936922  0.32930556  1
  Na  Na22  1  0.32815482  0.66645071  0.16267985  1
  Na  Na23  1  0.33829489  0.66645071  0.66267985  1
  Zn  Zn0  1  0.00106068  0.00130260  0.34902480  1
  Zn  Zn1  1  0.00024193  0.00130260  0.84902480  1
  Zn  Zn2  1  0.66655381  0.33017089  0.68244613  1
  Zn  Zn3  1  0.66361808  0.33017089  0.18244613  1
  Zn  Zn4  1  0.32703108  0.67108523  0.01584933  1
  Zn  Zn5  1  0.34405315  0.67108523  0.51584933  1
  Si  Si0  1  0.29243676  0.99633937  0.25271247  1
  Si  Si1  1  0.70390260  0.99633937  0.75271247  1
  Si  Si2  1  0.67045325  0.62534099  0.58599869  1
  Si  Si3  1  0.95488874  0.62534099  0.08599869  1
  Si  Si4  1  0.33770288  0.96658751  0.91951649  1
  Si  Si5  1  0.62888364  0.96658751  0.41951649  1
  Ge  Ge0  1  0.98887497  0.99062900  0.64932509  1
  Ge  Ge1  1  0.00175404  0.99062900  0.14932509  1
  Ge  Ge2  1  0.66429978  0.33228317  0.98313597  1
  Ge  Ge3  1  0.66798439  0.33228317  0.48313597  1
  Ge  Ge4  1  0.33586894  0.67882003  0.31630716  1
  Ge  Ge5  1  0.34295009  0.67882003  0.81630716  1
  P  P0  1  0.70341285  0.71002204  0.25179611  1
  P  P1  1  0.00705610  0.29412288  0.25124243  1
  P  P2  1  0.28706679  0.29412288  0.75124243  1
  P  P3  1  0.00660919  0.71002204  0.75179611  1
  P  P4  1  0.95813685  0.32805841  0.58480991  1
  P  P5  1  0.36849627  0.04306329  0.58502701  1
  P  P6  1  0.67456802  0.04306329  0.08502701  1
  P  P7  1  0.36992256  0.32805841  0.08480991  1
  P  P8  1  0.62039729  0.65938091  0.91864541  1
  P  P9  1  0.04150346  0.38008970  0.91754875  1
  P  P10  1  0.33858523  0.38008970  0.41754875  1
  P  P11  1  0.03898261  0.65938091  0.41864541  1
  O  O0  1  0.21375756  0.03233262  0.31282995  1
  O  O1  1  0.81063576  0.78789361  0.30903288  1
  O  O2  1  0.97490969  0.18682185  0.30856305  1
  O  O3  1  0.21191217  0.18682185  0.80856305  1
  O  O4  1  0.97725784  0.78789361  0.80903288  1
  O  O5  1  0.81857506  0.03233262  0.81282995  1
  O  O6  1  0.79353222  0.95528476  0.69034274  1
  O  O7  1  0.16652866  0.20585706  0.69192214  1
  O  O8  1  0.04409098  0.83085453  0.69267298  1
  O  O9  1  0.78676355  0.83085453  0.19267298  1
  O  O10  1  0.03932840  0.20585706  0.19192214  1
  O  O11  1  0.16175254  0.95528476  0.19034274  1
  O  O12  1  0.88196742  0.35800763  0.64251998  1
  O  O13  1  0.47819872  0.11657174  0.64204645  1
  O  O14  1  0.63872154  0.51202527  0.64586074  1
  O  O15  1  0.87330474  0.51202527  0.14586074  1
  O  O16  1  0.63837401  0.11657174  0.14204645  1
  O  O17  1  0.47604121  0.35800763  0.14251998  1
  O  O18  1  0.45406083  0.29022482  0.02603880  1
  O  O19  1  0.82338699  0.53339273  0.02309653  1
  O  O20  1  0.70853845  0.16306778  0.02612078  1
  O  O21  1  0.45453034  0.16306778  0.52612078  1
  O  O22  1  0.71000675  0.53339273  0.52309653  1
  O  O23  1  0.83616499  0.29022482  0.52603880  1
  O  O24  1  0.54036927  0.68638749  0.97578004  1
  O  O25  1  0.14920844  0.45458493  0.97505928  1
  O  O26  1  0.30010677  0.85268400  0.97955932  1
  O  O27  1  0.55257623  0.85268400  0.47955932  1
  O  O28  1  0.30537549  0.45458493  0.47505928  1
  O  O29  1  0.14601722  0.68638749  0.47578004  1
  O  O30  1  0.12314148  0.62396665  0.35906385  1
  O  O31  1  0.49674210  0.87724407  0.35743334  1
  O  O32  1  0.37149180  0.50071477  0.35851848  1
  O  O33  1  0.12922197  0.50071477  0.85851848  1
  O  O34  1  0.38050097  0.87724407  0.85743334  1
  O  O35  1  0.50082417  0.62396665  0.85906385  1
  O  O36  1  0.01381933  0.81553661  0.41246164  1
  O  O37  1  0.82064243  0.99504956  0.41151992  1
  O  O38  1  0.18409900  0.19752410  0.41170660  1
  O  O39  1  0.01342511  0.19752410  0.91170660  1
  O  O40  1  0.17440713  0.99504956  0.91151992  1
  O  O41  1  0.80171728  0.81553661  0.91246164  1
  O  O42  1  0.97184327  0.15759868  0.58778355  1
  O  O43  1  0.18820703  0.03733499  0.58904723  1
  O  O44  1  0.85674187  0.82043221  0.58853139  1
  O  O45  1  0.96369034  0.82043221  0.08853139  1
  O  O46  1  0.84912796  0.03733499  0.08904723  1
  O  O47  1  0.18575540  0.15759868  0.08778355  1
  O  O48  1  0.67431282  0.15954104  0.74535185  1
  O  O49  1  0.46851460  0.32147072  0.74524008  1
  O  O50  1  0.85077657  0.52884661  0.74497477  1
  O  O51  1  0.67807105  0.52884661  0.24497477  1
  O  O52  1  0.85295712  0.32147072  0.24524008  1
  O  O53  1  0.48522921  0.15954104  0.24535185  1
  O  O54  1  0.63174309  0.48774463  0.92040207  1
  O  O55  1  0.85971768  0.37076917  0.92038591  1
  O  O56  1  0.52439340  0.16105644  0.92464342  1
  O  O57  1  0.63666404  0.16105644  0.42464342  1
  O  O58  1  0.51105249  0.37076917  0.42038591  1
  O  O59  1  0.85600254  0.48774463  0.42040207  1
  O  O60  1  0.34800668  0.48541991  0.07706445  1
  O  O61  1  0.14696108  0.65285560  0.08079472  1
  O  O62  1  0.52306911  0.85910700  0.07769324  1
  O  O63  1  0.33603689  0.85910700  0.57769324  1
  O  O64  1  0.50589351  0.65285560  0.58079472  1
  O  O65  1  0.13741223  0.48541991  0.57706445  1
  O  O66  1  0.29916421  0.80950136  0.25580805  1
  O  O67  1  0.51942319  0.69658813  0.25470634  1
  O  O68  1  0.18076627  0.47578295  0.25478844  1
  O  O69  1  0.29501568  0.47578295  0.75478844  1
  O  O70  1  0.17716395  0.69658813  0.75470634  1
  O  O71  1  0.51033615  0.80950136  0.75580805  1
loop_
_geom_bond_atom_site_label_1
_geom_bond_atom_site_label_2
_geom_bond_distance
_geom_bond_site_symmetry_2
Na0 O53 2.317948 1_555
Na0 O52 2.465003 1_555
Na0 O67 2.467384 1_545
Na0 O16 2.492225 1_555
Na0 O66 2.631808 1_545
Na0 O31 2.662866 1_545
Na0 O9 2.839190 1_545
Na0 O2 2.929702 1_555
Na1 O51 2.380772 1_555
Na1 O68 2.422757 1_555
Na1 O53 2.444326 1_555
Na1 O17 2.501929 1_555
Na1 O67 2.631849 1_555
Na1 O32 2.678714 1_555
Na1 O10 2.866492 1_555
Na1 O0 2.872517 1_555
Na2 O52 2.366980 1_555
Na2 O15 2.375429 1_555
Na2 O66 2.420519 1_655
Na2 O51 2.473934 1_555
Na2 O68 2.665287 1_655
Na2 O30 2.755146 1_655
Na2 O11 2.809030 1_655
Na2 O1 2.982242 1_555
Na3 O49 2.366980 1_555
Na3 O14 2.375431 1_555
Na3 O71 2.420526 1_555
Na3 O50 2.473943 1_555
Na3 O69 2.665295 1_555
Na3 O35 2.755150 1_555
Na3 O6 2.809030 1_555
Na3 O4 2.982242 1_555
Na4 O50 2.380764 1_555
Na4 O69 2.422749 1_655
Na4 O48 2.444319 1_555
Na4 O12 2.501926 1_555
Na4 O70 2.631849 1_655
Na4 O33 2.678712 1_655
Na4 O7 2.866492 1_655
Na4 O5 2.872517 1_555
Na5 O48 2.317956 1_555
Na5 O49 2.465001 1_555
Na5 O70 2.467385 1_545
Na5 O13 2.492227 1_555
Na5 O71 2.631801 1_545
Na5 O34 2.662864 1_545
Na5 O8 2.839190 1_545
Na5 O3 2.929702 1_555
Na6 O65 2.400039 1_555
Na6 O64 2.401341 1_555
Na6 O43 2.422585 1_555
Na6 O28 2.535095 1_555
Na6 O42 2.612446 1_455
Na6 O7 2.684240 1_555
Na6 O21 2.846214 1_555
Na6 O14 2.903288 1_555
Na7 O63 2.327271 1_555
Na7 O44 2.393053 1_455
Na7 O65 2.445450 1_555
Na7 O29 2.485532 1_555
Na7 O43 2.670080 1_565
Na7 O8 2.703195 1_555
Na7 O22 2.816505 1_455
Na7 O12 2.934987 1_455
Na8 O64 2.340911 1_555
Na8 O27 2.356506 1_555
Na8 O42 2.494833 1_565
Na8 O63 2.534038 1_555
Na8 O44 2.637864 1_555
Na8 O6 2.696458 1_555
Na8 O23 2.851896 1_565
Na8 O13 2.940213 1_565
Na9 O61 2.340911 1_555
Na9 O26 2.356502 1_554
Na9 O47 2.494840 1_565
Na9 O62 2.534020 1_555
Na9 O45 2.637872 1_455
Na9 O11 2.696462 1_555
Na9 O18 2.851896 1_565
Na9 O16 2.940213 1_565
Na10 O62 2.327286 1_555
Na10 O45 2.393045 1_555
Na10 O60 2.445464 1_555
Na10 O24 2.485540 1_554
Na10 O46 2.670079 1_565
Na10 O9 2.703193 1_555
Na10 O19 2.816505 1_555
Na10 O17 2.934987 1_555
Na11 O60 2.400023 1_555
Na11 O61 2.401344 1_555
Na11 O46 2.422586 1_455
Na11 O25 2.535092 1_554
Na11 O47 2.612438 1_555
Na11 O10 2.684238 1_555
Na11 O20 2.846214 1_455
Na11 O15 2.903288 1_455
Na12 O41 2.392958 1_555
Na12 O55 2.434299 1_555
Na12 O40 2.457439 1_655
Na12 O4 2.523947 1_555
Na12 O19 2.670539 1_556
Na12 O54 2.672504 1_555
Na12 O26 2.857373 1_655
Na12 O33 2.886250 1_655
Na13 O5 2.367049 1_555
Na13 O39 2.383605 1_655
Na13 O56 2.443964 1_555
Na13 O41 2.469222 1_545
Na13 O55 2.638036 1_555
Na13 O20 2.734315 1_556
Na13 O34 2.785292 1_545
Na14 O40 2.303216 1_545
Na14 O54 2.432432 1_555
Na14 O39 2.448872 1_555
Na14 O3 2.485206 1_555
Na14 O56 2.621000 1_555
Na14 O18 2.697839 1_556
Na14 O35 2.840104 1_555
Na14 O25 2.903551 1_555
Na15 O37 2.303216 1_545
Na15 O59 2.432418 1_555
Na15 O38 2.448880 1_655
Na15 O2 2.485208 1_555
Na15 O57 2.620983 1_555
Na15 O23 2.697831 1_555
Na15 O30 2.840104 1_655
Na15 O28 2.903551 1_655
Na16 O0 2.367045 1_555
Na16 O38 2.383598 1_555
Na16 O57 2.443980 1_555
Na16 O36 2.469215 1_545
Na16 O58 2.638037 1_555
Na16 O21 2.734319 1_555
Na16 O31 2.785292 1_545
Na17 O36 2.392966 1_655
Na17 O58 2.434296 1_555
Na17 O37 2.457437 1_555
Na17 O1 2.523948 1_555
Na17 O22 2.670544 1_555
Na17 O59 2.672519 1_555
Na17 O27 2.857373 1_555
Na17 O32 2.886250 1_555
Na18 O37 2.392948 1_555
Na18 O44 2.486260 1_555
Na18 O36 2.496604 1_655
Na18 O42 2.508391 1_565
Na18 O38 2.519531 1_665
Na18 O43 2.566530 1_665
Na19 O40 2.392948 1_555
Na19 O45 2.486260 1_456
Na19 O41 2.496604 1_455
Na19 O47 2.508391 1_566
Na19 O39 2.519531 1_565
Na19 O46 2.566530 1_466
Na20 O48 2.386046 1_555
Na20 O56 2.503888 1_555
Na20 O50 2.514191 1_555
Na20 O49 2.521315 1_555
Na20 O55 2.522999 1_555
Na20 O54 2.534382 1_555
Na21 O53 2.386046 1_555
Na21 O57 2.503888 1_555
Na21 O51 2.514191 1_555
Na21 O52 2.521315 1_555
Na21 O58 2.522999 1_555
Na21 O59 2.534382 1_555
Na22 O61 2.365970 1_555
Na22 O66 2.466637 1_555
Na22 O60 2.520573 1_555
Na22 O68 2.532187 1_555
Na22 O62 2.534816 1_555
Na22 O67 2.552860 1_555
Na23 O64 2.365970 1_555
Na23 O71 2.466637 1_555
Na23 O65 2.520573 1_555
Na23 O69 2.532187 1_555
Na23 O63 2.534816 1_555
Na23 O70 2.552860 1_555
Ge0 O6 1.843867 1_555
Ge0 O44 1.904891 1_555
Ge0 O8 1.971904 1_655
Ge0 O7 2.000662 1_665
Ge0 O42 2.068343 1_565
Ge0 O43 2.080034 1_665
Ge1 O11 1.843867 1_555
Ge1 O45 1.904891 1_455
Ge1 O9 1.971904 1_455
Ge1 O10 2.000662 1_565
Ge1 O47 2.068343 1_565
Ge1 O46 2.080034 1_465
Ge2 O19 1.852524 1_556
Ge2 O56 1.892186 1_555
Ge2 O18 1.961001 1_556
Ge2 O20 1.981884 1_556
Ge2 O54 2.071151 1_555
Ge2 O55 2.105287 1_555
Ge3 O22 1.852524 1_555
Ge3 O57 1.892186 1_555
Ge3 O23 1.961001 1_555
Ge3 O21 1.981884 1_555
Ge3 O59 2.071151 1_555
Ge3 O58 2.105287 1_555
Ge4 O31 1.855240 1_555
Ge4 O66 1.895218 1_555
Ge4 O30 1.948713 1_555
Ge4 O32 1.999365 1_555
Ge4 O67 2.061674 1_555
Ge4 O68 2.110246 1_555
Ge5 O34 1.855240 1_555
Ge5 O71 1.895218 1_555
Ge5 O35 1.948713 1_555
Ge5 O33 1.999365 1_555
Ge5 O70 2.061674 1_555
Ge5 O69 2.110246 1_555
O0 Si0 1.587656 1_545
O0 Zn0 1.947786 1_555
O1 P0 1.505819 1_555
O1 Zn0 2.006197 1_665
O2 P1 1.510384 1_655
O2 Zn0 1.994570 1_655
O3 P2 1.510384 1_555
O3 Zn1 1.994570 1_555
O4 P3 1.505819 1_655
O4 Zn1 2.006197 1_665
O5 Si1 1.587656 1_545
O5 Zn1 1.947786 1_655
O6 Si1 1.701909 1_555
O7 P2 1.605531 1_555
O8 P3 1.603641 1_555
O9 P0 1.603641 1_555
O10 P1 1.605531 1_555
O11 Si0 1.701909 1_555
O12 P4 1.510309 1_555
O12 Zn2 2.013438 1_555
O13 P5 1.506512 1_555
O13 Zn2 2.004047 1_555
O14 Si2 1.585726 1_555
O14 Zn2 1.937248 1_555
O15 Si3 1.585726 1_555
O15 Zn3 1.937248 1_555
O16 P6 1.506512 1_555
O16 Zn3 2.004047 1_555
O17 P7 1.510309 1_555
O17 Zn3 2.013438 1_555
O18 P7 1.598656 1_555
O19 Si3 1.714803 1_555
O20 P6 1.599914 1_555
O21 P5 1.599914 1_555
O22 Si2 1.714803 1_555
O23 P4 1.598656 1_555
O24 P8 1.508532 1_555
O24 Zn4 2.040321 1_556
O25 P9 1.508613 1_555
O25 Zn4 1.990018 1_556
O26 Si4 1.585252 1_555
O26 Zn4 1.928080 1_556
O27 Si5 1.585252 1_555
O27 Zn5 1.928080 1_555
O28 P10 1.508613 1_555
O28 Zn5 1.990018 1_555
O29 P11 1.508532 1_555
O29 Zn5 2.040321 1_555
O30 P11 1.603373 1_555
O31 Si5 1.700468 1_555
O32 P10 1.606712 1_555
O33 P9 1.606712 1_555
O34 Si4 1.700468 1_555
O35 P8 1.603373 1_555
O36 P11 1.528089 1_555
O36 Zn0 2.207696 1_565
O37 Si5 1.614632 1_555
O37 Zn0 2.087763 1_665
O38 P10 1.526591 1_555
O38 Zn0 2.169477 1_555
O39 P9 1.526595 1_555
O39 Zn1 2.169477 1_555
O40 Si4 1.614624 1_555
O40 Zn1 2.087763 1_565
O41 P8 1.528095 1_555
O41 Zn1 2.207696 1_665
O42 P4 1.590711 1_555
O43 P5 1.592087 1_555
O44 Si2 1.706783 1_555
O45 Si3 1.706787 1_555
O46 P6 1.592078 1_555
O47 P7 1.590716 1_555
O48 Si1 1.616934 1_545
O48 Zn2 2.077753 1_555
O49 P2 1.523127 1_555
O49 Zn2 2.206078 1_555
O50 P3 1.525366 1_655
O50 Zn2 2.180562 1_555
O51 P0 1.525369 1_555
O51 Zn3 2.180562 1_555
O52 P1 1.523119 1_655
O52 Zn3 2.206078 1_555
O53 Si0 1.616940 1_545
O53 Zn3 2.077753 1_555
O54 P8 1.588552 1_555
O55 P9 1.589231 1_655
O56 Si4 1.707973 1_545
O57 Si5 1.707965 1_545
O58 P10 1.589249 1_555
O59 P11 1.588542 1_655
O60 P7 1.524844 1_555
O60 Zn4 2.210111 1_555
O61 Si3 1.615197 1_455
O61 Zn4 2.085054 1_555
O62 P6 1.527565 1_565
O62 Zn4 2.174082 1_555
O63 P5 1.527559 1_565
O63 Zn5 2.174082 1_555
O64 Si2 1.615215 1_555
O64 Zn5 2.085054 1_555
O65 P4 1.524833 1_455
O65 Zn5 2.210111 1_555
O66 Si0 1.703120 1_555
O67 P0 1.592377 1_555
O68 P1 1.591217 1_555
O69 P2 1.591221 1_555
O70 P3 1.592368 1_555
O71 Si1 1.703124 1_555
