# generated using pymatgen
data_Ti2FeO5
_symmetry_space_group_name_H-M   'P 1'
_cell_length_a   3.76044486
_cell_length_b   5.20910054
_cell_length_c   10.06962576
_cell_angle_alpha   90.00000246
_cell_angle_beta   89.99999918
_cell_angle_gamma   111.16702862
_symmetry_Int_Tables_number   1
_chemical_formula_structural   Ti2FeO5
_chemical_formula_sum   'Ti4 Fe2 O10'
_cell_volume   183.94116001
_cell_formula_units_Z   2
loop_
 _symmetry_equiv_pos_site_id
 _symmetry_equiv_pos_as_xyz
  1  'x, y, z'
loop_
 _atom_site_type_symbol
 _atom_site_label
 _atom_site_symmetry_multiplicity
 _atom_site_fract_x
 _atom_site_fract_y
 _atom_site_fract_z
 _atom_site_occupancy
  Ti  Ti0  1  0.13561547  0.27121994  0.06668308  1
  Ti  Ti1  1  0.86438541  0.72878132  0.93331756  1
  Ti  Ti2  1  0.86438537  0.72878133  0.56668243  1
  Ti  Ti3  1  0.13561546  0.27121997  0.43331695  1
  Fe  Fe0  1  0.80791658  0.61453803  0.25000003  1
  Fe  Fe1  1  0.19208782  0.38548616  0.74999996  1
  O  O0  1  0.31391504  0.62797161  0.55949630  1
  O  O1  1  0.68607728  0.37202137  0.44049974  1
  O  O2  1  0.68607729  0.37202137  0.05950024  1
  O  O3  1  0.31391505  0.62797162  0.94050371  1
  O  O4  1  0.04667579  0.09335195  0.61355314  1
  O  O5  1  0.95332701  0.90664371  0.38644242  1
  O  O6  1  0.78970641  0.58019251  0.74999998  1
  O  O7  1  0.21028920  0.41980550  0.25000003  1
  O  O8  1  0.95332702  0.90664372  0.11355761  1
  O  O9  1  0.04667581  0.09335189  0.88644681  1
loop_
_geom_bond_atom_site_label_1
_geom_bond_atom_site_label_2
_geom_bond_distance
_geom_bond_site_symmetry_2
Fe0 O5 1.975117 1_555
Fe0 O8 1.975117 1_555
Fe0 O7 2.104015 1_655
Fe0 O7 2.105519 1_555
Fe0 O1 2.251124 1_555
Fe0 O2 2.251124 1_555
Fe1 O4 1.975247 1_555
Fe1 O9 1.975248 1_555
Fe1 O6 2.103944 1_455
Fe1 O6 2.105476 1_555
Fe1 O0 2.251078 1_555
Fe1 O3 2.251079 1_555
O0 Ti2 1.944126 1_455
O0 Ti2 1.944461 1_555
O0 Ti3 2.148854 1_555
O1 Ti3 1.944130 1_655
O1 Ti3 1.944434 1_555
O1 Ti2 2.148907 1_555
O2 Ti0 1.944130 1_655
O2 Ti0 1.944434 1_555
O2 Ti1 2.148906 1_554
O3 Ti1 1.944126 1_455
O3 Ti1 1.944461 1_555
O3 Ti0 2.148854 1_556
O4 Ti2 1.832770 1_445
O4 Ti3 2.010083 1_555
O5 Ti3 1.832806 1_665
O5 Ti2 2.010106 1_555
O6 Ti2 1.982039 1_555
O6 Ti1 1.982039 1_555
O7 Ti3 1.982027 1_555
O7 Ti0 1.982027 1_555
O8 Ti0 1.832806 1_665
O8 Ti1 2.010106 1_554
O9 Ti1 1.832770 1_445
O9 Ti0 2.010084 1_556
