# generated using pymatgen
data_Na10Mg4Ga4Si3(S3O16)3
_symmetry_space_group_name_H-M   'P 1'
_cell_length_a   17.63999022
_cell_length_b   8.87412652
_cell_length_c   22.22413737
_cell_angle_alpha   89.88120445
_cell_angle_beta   88.02964505
_cell_angle_gamma   120.30004483
_symmetry_Int_Tables_number   1
_chemical_formula_structural   Na10Mg4Ga4Si3(S3O16)3
_chemical_formula_sum   'Na30 Mg12 Ga12 Si9 S27 O144'
_cell_volume   3001.17697094
_cell_formula_units_Z   3
loop_
 _symmetry_equiv_pos_site_id
 _symmetry_equiv_pos_as_xyz
  1  'x, y, z'
loop_
 _atom_site_type_symbol
 _atom_site_label
 _atom_site_symmetry_multiplicity
 _atom_site_fract_x
 _atom_site_fract_y
 _atom_site_fract_z
 _atom_site_occupancy
  Na  Na0  1  0.18845435  0.37209930  0.24539370  1
  Na  Na1  1  0.68859343  0.37462535  0.24546413  1
  Na  Na2  1  0.99225910  0.63892995  0.25441575  1
  Na  Na3  1  0.49460613  0.63442588  0.25916933  1
  Na  Na4  1  0.32310136  0.65138712  0.74619396  1
  Na  Na5  1  0.82023041  0.64518801  0.74621228  1
  Na  Na6  1  0.99448943  0.35197796  0.75234350  1
  Na  Na7  1  0.18820259  0.00220335  0.74215534  1
  Na  Na8  1  0.68817216  0.00440172  0.74305218  1
  Na  Na9  1  0.52045579  0.70482174  0.57568044  1
  Na  Na10  1  0.32690808  0.97120555  0.58884707  1
  Na  Na11  1  0.82674316  0.96678931  0.58740250  1
  Na  Na12  1  0.15288918  0.97917505  0.08100524  1
  Na  Na13  1  0.65263800  0.97893116  0.08083381  1
  Na  Na14  1  0.32914254  0.68818067  0.09093256  1
  Na  Na15  1  0.82878652  0.68799712  0.09125559  1
  Na  Na16  1  0.66131713  0.01615754  0.42408148  1
  Na  Na17  1  0.35545643  0.66923448  0.41106386  1
  Na  Na18  1  0.01354545  0.00286060  0.50019774  1
  Na  Na19  1  0.50851002  0.01031899  0.49890506  1
  Na  Na20  1  0.00683115  0.02297355  0.99922069  1
  Na  Na21  1  0.50729602  0.02446011  0.99889250  1
  Na  Na22  1  0.34361518  0.32065889  0.83265270  1
  Na  Na23  1  0.83306088  0.31984353  0.83524848  1
  Na  Na24  1  0.33639110  0.33045461  0.33474655  1
  Na  Na25  1  0.83792754  0.34748069  0.33292368  1
  Na  Na26  1  0.17052746  0.65555677  0.16592748  1
  Na  Na27  1  0.67088504  0.65622830  0.16695477  1
  Na  Na28  1  0.16524122  0.67925758  0.66054270  1
  Na  Na29  1  0.66325450  0.66156664  0.66384183  1
  Mg  Mg0  1  0.99612059  0.98976201  0.35187472  1
  Mg  Mg1  1  0.49736957  0.99124753  0.35166655  1
  Mg  Mg2  1  0.99679789  0.00327284  0.85268415  1
  Mg  Mg3  1  0.49660340  0.00371883  0.85260035  1
  Mg  Mg4  1  0.33185802  0.31644737  0.68389801  1
  Mg  Mg5  1  0.83061676  0.32190243  0.68240966  1
  Mg  Mg6  1  0.33119161  0.33902759  0.18452965  1
  Mg  Mg7  1  0.83071752  0.34021530  0.18406899  1
  Mg  Mg8  1  0.16301648  0.65033677  0.01798365  1
  Mg  Mg9  1  0.66275811  0.64986723  0.01782329  1
  Mg  Mg10  1  0.16151593  0.67166937  0.51911394  1
  Mg  Mg11  1  0.66548705  0.67032921  0.51673214  1
  Ga  Ga0  1  0.00136740  0.99858706  0.64746969  1
  Ga  Ga1  1  0.50341966  0.01143884  0.65104967  1
  Ga  Ga2  1  0.99683110  0.01230831  0.15279400  1
  Ga  Ga3  1  0.49770658  0.01124261  0.15211690  1
  Ga  Ga4  1  0.32746997  0.32815380  0.98480906  1
  Ga  Ga5  1  0.82665703  0.32751416  0.98491704  1
  Ga  Ga6  1  0.33195159  0.32694577  0.48249247  1
  Ga  Ga7  1  0.83022777  0.33323391  0.48713497  1
  Ga  Ga8  1  0.17560457  0.67802386  0.31743260  1
  Ga  Ga9  1  0.67245408  0.67349704  0.32090373  1
  Ga  Ga10  1  0.17714304  0.68058716  0.82140288  1
  Ga  Ga11  1  0.66974697  0.67204461  0.81893985  1
  Si  Si0  1  0.35314053  0.70990251  0.25108897  1
  Si  Si1  1  0.85292131  0.71189266  0.25163956  1
  Si  Si2  1  0.35651849  0.00515219  0.75238477  1
  Si  Si3  1  0.85512597  0.00015023  0.75105841  1
  Si  Si4  1  0.18367938  0.04109748  0.58501682  1
  Si  Si5  1  0.68324163  0.03882677  0.58618300  1
  Si  Si6  1  0.18206321  0.32864219  0.08683988  1
  Si  Si7  1  0.68166953  0.32900332  0.08649840  1
  Si  Si8  1  0.51843953  0.65915092  0.41864525  1
  S  S0  1  0.14692865  0.99624815  0.25103644  1
  S  S1  1  0.64797840  0.99858114  0.24948324  1
  S  S2  1  0.99885328  0.29347839  0.25200571  1
  S  S3  1  0.49869003  0.29073823  0.25072433  1
  S  S4  1  0.14573405  0.29470118  0.75154517  1
  S  S5  1  0.64506363  0.29668098  0.75174932  1
  S  S6  1  0.00079290  0.70838894  0.75181026  1
  S  S7  1  0.50137594  0.70619836  0.75178122  1
  S  S8  1  0.48113213  0.33243475  0.58267230  1
  S  S9  1  0.97966454  0.33470013  0.58293820  1
  S  S10  1  0.33194173  0.62341786  0.58363037  1
  S  S11  1  0.83416054  0.62496297  0.58308927  1
  S  S12  1  0.47933008  0.62228238  0.08156645  1
  S  S13  1  0.97930181  0.62208943  0.08142849  1
  S  S14  1  0.33555648  0.04812867  0.08146710  1
  S  S15  1  0.83571245  0.04884980  0.08139835  1
  S  S16  1  0.31535513  0.66148163  0.91794880  1
  S  S17  1  0.81441413  0.66168991  0.91704132  1
  S  S18  1  0.01859087  0.37809460  0.91689344  1
  S  S19  1  0.51838635  0.37777673  0.91763290  1
  S  S20  1  0.16787224  0.96373284  0.91789266  1
  S  S21  1  0.66786793  0.96232565  0.91745064  1
  S  S22  1  0.31163856  0.96167266  0.41688128  1
  S  S23  1  0.81736914  0.96822356  0.41833344  1
  S  S24  1  0.16313497  0.37271332  0.41644547  1
  S  S25  1  0.67041285  0.37640570  0.41684420  1
  S  S26  1  0.01867614  0.66023954  0.41701867  1
  O  O0  1  0.10608631  0.03235696  0.30328114  1
  O  O1  1  0.60732165  0.02967588  0.30359493  1
  O  O2  1  0.41074830  0.79554301  0.30839061  1
  O  O3  1  0.91917248  0.80157656  0.30405147  1
  O  O4  1  0.48946304  0.18741880  0.30446689  1
  O  O5  1  0.98887471  0.18888291  0.30535420  1
  O  O6  1  0.10799063  0.17965838  0.80500103  1
  O  O7  1  0.60639745  0.18135794  0.80475577  1
  O  O8  1  0.48904068  0.79054318  0.80468484  1
  O  O9  1  0.98759363  0.78817389  0.80567807  1
  O  O10  1  0.41106889  0.01478810  0.80824228  1
  O  O11  1  0.91833735  0.03519136  0.80495199  1
  O  O12  1  0.39676622  0.95893198  0.68918159  1
  O  O13  1  0.89657184  0.95550650  0.68833319  1
  O  O14  1  0.09143551  0.21861465  0.69817719  1
  O  O15  1  0.59485486  0.22094958  0.69682612  1
  O  O16  1  0.02090796  0.82119230  0.69703310  1
  O  O17  1  0.52139270  0.81792290  0.69570042  1
  O  O18  1  0.39788646  0.82680283  0.18705175  1
  O  O19  1  0.89566022  0.82691755  0.18609758  1
  O  O20  1  0.02135326  0.22378208  0.19651064  1
  O  O21  1  0.51797078  0.21725195  0.19510913  1
  O  O22  1  0.09423678  0.96503542  0.19587124  1
  O  O23  1  0.59386071  0.97216395  0.19545076  1
  O  O24  1  0.44142835  0.36660982  0.63635323  1
  O  O25  1  0.94203143  0.36122371  0.63957924  1
  O  O26  1  0.23985061  0.11768086  0.64464564  1
  O  O27  1  0.74188897  0.12345530  0.64342585  1
  O  O28  1  0.32430496  0.52534887  0.63929216  1
  O  O29  1  0.82524247  0.52747608  0.63927051  1
  O  O30  1  0.44167347  0.52002573  0.13767067  1
  O  O31  1  0.94191566  0.52041979  0.13775195  1
  O  O32  1  0.32325173  0.12932010  0.13517795  1
  O  O33  1  0.82363681  0.13024599  0.13512264  1
  O  O34  1  0.24036144  0.36030921  0.14465860  1
  O  O35  1  0.74023929  0.36085952  0.14410616  1
  O  O36  1  0.22610947  0.27892645  0.02750132  1
  O  O37  1  0.72565617  0.27881941  0.02712334  1
  O  O38  1  0.42374843  0.53558417  0.02904702  1
  O  O39  1  0.92373259  0.53459332  0.02898347  1
  O  O40  1  0.35168354  0.15559688  0.02550340  1
  O  O41  1  0.85194975  0.15643572  0.02532177  1
  O  O42  1  0.23381778  0.16881334  0.52481495  1
  O  O43  1  0.72765934  0.15565733  0.52271590  1
  O  O44  1  0.34906476  0.54548450  0.52903342  1
  O  O45  1  0.85004458  0.54374702  0.52888121  1
  O  O46  1  0.42744906  0.30345610  0.52913243  1
  O  O47  1  0.92262515  0.30906955  0.53093155  1
  O  O48  1  0.27012058  0.68234782  0.97100302  1
  O  O49  1  0.76995295  0.68165272  0.97068634  1
  O  O50  1  0.07110381  0.46645320  0.96816706  1
  O  O51  1  0.56961056  0.46267290  0.96989633  1
  O  O52  1  0.15696803  0.85687352  0.97172052  1
  O  O53  1  0.65720144  0.85660568  0.97152255  1
  O  O54  1  0.27057392  0.84894542  0.47088352  1
  O  O55  1  0.77629299  0.86516187  0.47415125  1
  O  O56  1  0.15330684  0.46076105  0.46905062  1
  O  O57  1  0.66049752  0.46237188  0.46978600  1
  O  O58  1  0.07164900  0.67706920  0.46803516  1
  O  O59  1  0.57706941  0.69313751  0.47597883  1
  O  O60  1  0.05936360  0.63559051  0.35881194  1
  O  O61  1  0.56666093  0.63557874  0.35575953  1
  O  O62  1  0.25767712  0.87911559  0.36282515  1
  O  O63  1  0.76027672  0.88571234  0.36582101  1
  O  O64  1  0.17819538  0.48206595  0.35910994  1
  O  O65  1  0.68417435  0.47854348  0.35963910  1
  O  O66  1  0.06151665  0.48628319  0.85891274  1
  O  O67  1  0.56126547  0.48833155  0.86087579  1
  O  O68  1  0.17909551  0.88012608  0.86118794  1
  O  O69  1  0.68005207  0.87972946  0.86099286  1
  O  O70  1  0.26254508  0.63430943  0.86210979  1
  O  O71  1  0.76218723  0.63634745  0.86145263  1
  O  O72  1  0.01021166  0.81625440  0.41189894  1
  O  O73  1  0.50790044  0.83288712  0.41275097  1
  O  O74  1  0.39987864  0.98257483  0.40955149  1
  O  O75  1  0.90513448  0.99139108  0.41030548  1
  O  O76  1  0.08600524  0.19758604  0.41083911  1
  O  O77  1  0.59265154  0.19860392  0.41223717  1
  O  O78  1  0.01004303  0.20489937  0.91195365  1
  O  O79  1  0.50990727  0.20481958  0.91203493  1
  O  O80  1  0.09026643  0.98379920  0.91260605  1
  O  O81  1  0.59061178  0.98329683  0.91207618  1
  O  O82  1  0.40340609  0.81590674  0.91170134  1
  O  O83  1  0.90266521  0.81702964  0.91074318  1
  O  O84  1  0.48458350  0.16784227  0.58922022  1
  O  O85  1  0.98157788  0.16830860  0.58657960  1
  O  O86  1  0.08517060  0.02488042  0.59097501  1
  O  O87  1  0.58253700  0.01376245  0.59234520  1
  O  O88  1  0.41165700  0.80375954  0.58469005  1
  O  O89  1  0.91167947  0.80570592  0.58380957  1
  O  O90  1  0.48490248  0.79624911  0.08439426  1
  O  O91  1  0.98489734  0.79584223  0.08419048  1
  O  O92  1  0.41138372  0.01866599  0.08414167  1
  O  O93  1  0.91188364  0.02024656  0.08400342  1
  O  O94  1  0.08401988  0.14276634  0.09374002  1
  O  O95  1  0.58399885  0.14310947  0.09271924  1
  O  O96  1  0.33818516  0.16500536  0.74707742  1
  O  O97  1  0.84129885  0.16811030  0.74540141  1
  O  O98  1  0.23708067  0.33170740  0.74269599  1
  O  O99  1  0.73664237  0.32907435  0.74389674  1
  O  O100  1  0.42065251  0.53547640  0.74482853  1
  O  O101  1  0.92011584  0.53429730  0.74517598  1
  O  O102  1  0.34231278  0.51528199  0.24612288  1
  O  O103  1  0.84102705  0.51618578  0.24544501  1
  O  O104  1  0.42044999  0.30816361  0.24436559  1
  O  O105  1  0.92065729  0.30996959  0.24448240  1
  O  O106  1  0.23681775  0.14468526  0.24291919  1
  O  O107  1  0.73702373  0.15085173  0.24226404  1
  O  O108  1  0.32273283  0.50093314  0.92228006  1
  O  O109  1  0.82259595  0.50133088  0.92148676  1
  O  O110  1  0.42861922  0.35965795  0.92259764  1
  O  O111  1  0.92911722  0.36045918  0.92158572  1
  O  O112  1  0.25036387  0.13800032  0.91908516  1
  O  O113  1  0.75060763  0.13742726  0.91886549  1
  O  O114  1  0.31864264  0.13402944  0.42098390  1
  O  O115  1  0.82306694  0.14383852  0.42165892  1
  O  O116  1  0.24548953  0.36391740  0.41796985  1
  O  O117  1  0.75041228  0.35519917  0.41944199  1
  O  O118  1  0.41652016  0.48378179  0.42443399  1
  O  O119  1  0.92859434  0.49796279  0.42306579  1
  O  O120  1  0.17632104  0.50330982  0.07737396  1
  O  O121  1  0.67631783  0.50411759  0.07741169  1
  O  O122  1  0.07027249  0.65667578  0.07356322  1
  O  O123  1  0.57035438  0.65749267  0.07361016  1
  O  O124  1  0.25398434  0.87290005  0.07637008  1
  O  O125  1  0.75433963  0.87376143  0.07624447  1
  O  O126  1  0.17577483  0.85062393  0.57686768  1
  O  O127  1  0.67307575  0.84503416  0.58039116  1
  O  O128  1  0.25354428  0.64153908  0.57850752  1
  O  O129  1  0.75455546  0.63948433  0.57767481  1
  O  O130  1  0.06876936  0.48266033  0.57428865  1
  O  O131  1  0.57091437  0.48195151  0.57513922  1
  O  O132  1  0.14871510  0.82952565  0.25887740  1
  O  O133  1  0.65194599  0.83568950  0.25476039  1
  O  O134  1  0.25179034  0.68296477  0.25565132  1
  O  O135  1  0.75189816  0.68569637  0.25946680  1
  O  O136  1  0.07746249  0.47553600  0.25526257  1
  O  O137  1  0.57806739  0.47016814  0.25241811  1
  O  O138  1  0.15002640  0.46792285  0.75932237  1
  O  O139  1  0.65310760  0.47211528  0.75864644  1
  O  O140  1  0.07772222  0.68065658  0.75626301  1
  O  O141  1  0.58062039  0.68585174  0.75672030  1
  O  O142  1  0.25339799  0.81657125  0.75724371  1
  O  O143  1  0.75437339  0.81757672  0.75826336  1
loop_
_geom_bond_atom_site_label_1
_geom_bond_atom_site_label_2
_geom_bond_distance
_geom_bond_site_symmetry_2
Na0 O102 2.346104 1_555
Na0 O34 2.412059 1_555
Na0 O134 2.412575 1_555
Na0 O136 2.551230 1_555
Na0 O106 2.556974 1_555
Na0 O64 2.743901 1_555
Na0 O20 2.812936 1_555
Na0 O0 2.879417 1_555
Na1 O103 2.323760 1_555
Na1 O135 2.425086 1_555
Na1 O35 2.427221 1_555
Na1 O137 2.488341 1_555
Na1 O107 2.527161 1_555
Na1 O65 2.713621 1_555
Na1 O21 2.873714 1_555
Na1 O1 2.919380 1_555
Na2 O103 2.334167 1_555
Na2 O132 2.407648 1_655
Na2 O105 2.543084 1_555
Na2 O136 2.561763 1_655
Na2 O3 2.597836 1_555
Na2 O60 2.647447 1_655
Na2 O31 2.800761 1_555
Na2 O22 2.806067 1_655
Na3 O102 2.368060 1_555
Na3 O133 2.425153 1_555
Na3 O61 2.529485 1_555
Na3 O104 2.532586 1_555
Na3 O137 2.542824 1_555
Na3 O2 2.731011 1_555
Na3 O30 2.902036 1_555
Na3 O23 2.927530 1_555
Na4 O142 2.349538 1_555
Na4 O100 2.408881 1_555
Na4 O98 2.453933 1_555
Na4 O28 2.631993 1_555
Na4 O138 2.641590 1_555
Na4 O12 2.652612 1_555
Na4 O70 2.728788 1_555
Na4 O8 2.898943 1_555
Na5 O143 2.352700 1_555
Na5 O101 2.412543 1_555
Na5 O99 2.424493 1_555
Na5 O139 2.549437 1_555
Na5 O29 2.614703 1_555
Na5 O13 2.678751 1_555
Na5 O71 2.711384 1_555
Na5 O9 2.927087 1_555
Na6 O97 2.359876 1_555
Na6 O138 2.406617 1_655
Na6 O140 2.521757 1_655
Na6 O101 2.553317 1_555
Na6 O11 2.672485 1_555
Na6 O66 2.685171 1_655
Na6 O25 2.716381 1_555
Na6 O14 2.771441 1_655
Na7 O96 2.294019 1_555
Na7 O26 2.342928 1_555
Na7 O142 2.466699 1_545
Na7 O140 2.526157 1_545
Na7 O98 2.598183 1_555
Na7 O16 2.778777 1_545
Na7 O68 2.825034 1_545
Na7 O6 2.924765 1_555
Na8 O97 2.336624 1_555
Na8 O27 2.398376 1_555
Na8 O143 2.491008 1_545
Na8 O141 2.495572 1_545
Na8 O99 2.558944 1_555
Na8 O17 2.794412 1_545
Na8 O69 2.813737 1_545
Na8 O7 2.930168 1_555
Na9 O127 2.333866 1_555
Na9 O87 2.419766 1_565
Na9 O59 2.423024 1_555
Na9 O88 2.483732 1_555
Na9 O131 2.545529 1_555
Na9 O17 2.849515 1_555
Na9 O44 2.850014 1_555
Na9 O24 2.898556 1_555
Na10 O126 2.344097 1_555
Na10 O84 2.425981 1_565
Na10 O128 2.547372 1_555
Na10 O88 2.585363 1_555
Na10 O12 2.612666 1_555
Na10 O26 2.734171 1_565
Na10 O54 2.853180 1_555
Na10 O46 2.854000 1_565
Na11 O127 2.369376 1_555
Na11 O85 2.392928 1_565
Na11 O129 2.528649 1_555
Na11 O89 2.539290 1_555
Na11 O13 2.621507 1_555
Na11 O55 2.700695 1_555
Na11 O27 2.775324 1_565
Na11 O47 2.883764 1_565
Na12 O94 2.328339 1_565
Na12 O124 2.401065 1_555
Na12 O122 2.480255 1_555
Na12 O91 2.560025 1_455
Na12 O36 2.563663 1_565
Na12 O52 2.675757 1_554
Na12 O22 2.699820 1_555
Na12 O32 2.910501 1_565
Na13 O95 2.327681 1_565
Na13 O125 2.403588 1_555
Na13 O123 2.471708 1_555
Na13 O90 2.555852 1_555
Na13 O37 2.566786 1_565
Na13 O53 2.678107 1_554
Na13 O23 2.705937 1_555
Na13 O33 2.920178 1_565
Na14 O120 2.375857 1_555
Na14 O90 2.408996 1_555
Na14 O18 2.496149 1_555
Na14 O92 2.533465 1_565
Na14 O124 2.601878 1_555
Na14 O34 2.757356 1_555
Na14 O48 2.885770 1_554
Na14 O38 2.939497 1_555
Na15 O121 2.370972 1_555
Na15 O91 2.415419 1_555
Na15 O19 2.463417 1_555
Na15 O93 2.547271 1_565
Na15 O125 2.601109 1_555
Na15 O35 2.744311 1_555
Na15 O49 2.897088 1_554
Na15 O39 2.953423 1_555
Na16 O73 2.374801 1_545
Na16 O115 2.480893 1_555
Na16 O77 2.481287 1_555
Na16 O43 2.536335 1_555
Na16 O117 2.597904 1_555
Na16 O59 2.706587 1_545
Na16 O63 2.820212 1_545
Na16 O1 2.895010 1_555
Na17 O73 2.325572 1_555
Na17 O118 2.401200 1_555
Na17 O116 2.408699 1_555
Na17 O74 2.479149 1_555
Na17 O2 2.479435 1_555
Na17 O44 2.816945 1_555
Na17 O54 2.972230 1_555
Na17 O64 2.980758 1_555
Na18 O86 2.373270 1_555
Na18 O76 2.479147 1_555
Na18 O89 2.515438 1_445
Na18 O72 2.553371 1_545
Na18 O85 2.632829 1_455
Na18 O75 2.779529 1_445
Na19 O77 2.447928 1_555
Na19 O73 2.478355 1_545
Na19 O87 2.482939 1_555
Na19 O88 2.552474 1_545
Na19 O84 2.590306 1_555
Na19 O74 2.731980 1_545
Na20 O93 2.469410 1_456
Na20 O94 2.478305 1_556
Na20 O78 2.501634 1_555
Na20 O80 2.513297 1_545
Na20 O91 2.631605 1_446
Na20 O83 2.730872 1_445
Na21 O95 2.460295 1_556
Na21 O92 2.479114 1_556
Na21 O79 2.489317 1_555
Na21 O81 2.523039 1_545
Na21 O90 2.644491 1_546
Na21 O82 2.715736 1_545
Na22 O96 2.328955 1_555
Na22 O110 2.459537 1_555
Na22 O112 2.470304 1_555
Na22 O100 2.545289 1_555
Na22 O108 2.687006 1_555
Na22 O98 2.825166 1_555
Na23 O113 2.369632 1_555
Na23 O97 2.451514 1_555
Na23 O111 2.508561 1_555
Na23 O109 2.567029 1_555
Na23 O101 2.609785 1_555
Na23 O99 2.720039 1_555
Na24 O118 2.467092 1_555
Na24 O114 2.490743 1_555
Na24 O116 2.521728 1_555
Na24 O104 2.522947 1_555
Na24 O102 2.525855 1_555
Na24 O106 2.703014 1_555
Na25 O103 2.433521 1_555
Na25 O117 2.447075 1_555
Na25 O105 2.529720 1_555
Na25 O119 2.535916 1_555
Na25 O115 2.587506 1_555
Na25 O107 2.720235 1_555
Na26 O120 2.417737 1_555
Na26 O134 2.436585 1_555
Na26 O136 2.511038 1_555
Na26 O124 2.601190 1_555
Na26 O132 2.712314 1_555
Na26 O122 2.758367 1_555
Na27 O121 2.433107 1_555
Na27 O137 2.461660 1_555
Na27 O135 2.482931 1_555
Na27 O125 2.621067 1_555
Na27 O133 2.638327 1_555
Na27 O123 2.778750 1_555
Na28 O126 2.341933 1_555
Na28 O128 2.489101 1_555
Na28 O140 2.588938 1_555
Na28 O142 2.617312 1_555
Na28 O130 2.618525 1_555
Na28 O138 2.800540 1_555
Na29 O127 2.408557 1_555
Na29 O129 2.531280 1_555
Na29 O141 2.558095 1_555
Na29 O131 2.587284 1_555
Na29 O143 2.627209 1_555
Na29 O139 2.636948 1_555
Mg0 O3 1.892127 1_555
Mg0 O75 2.035357 1_555
Mg0 O0 2.046059 1_665
Mg0 O5 2.106426 1_565
Mg0 O72 2.147683 1_655
Mg0 O76 2.198809 1_665
Mg1 O2 1.925148 1_555
Mg1 O73 2.031058 1_555
Mg1 O1 2.051371 1_565
Mg1 O74 2.081409 1_555
Mg1 O4 2.097101 1_565
Mg1 O77 2.251244 1_565
Mg2 O11 1.901686 1_555
Mg2 O6 2.042672 1_655
Mg2 O83 2.056287 1_545
Mg2 O9 2.113877 1_545
Mg2 O78 2.144805 1_655
Mg2 O80 2.226961 1_645
Mg3 O10 1.873363 1_555
Mg3 O7 2.034054 1_555
Mg3 O82 2.069622 1_545
Mg3 O8 2.119892 1_545
Mg3 O79 2.143144 1_555
Mg3 O81 2.232256 1_545
Mg4 O26 1.929105 1_555
Mg4 O96 1.986049 1_555
Mg4 O24 2.009942 1_555
Mg4 O98 2.144762 1_555
Mg4 O28 2.165137 1_555
Mg4 O100 2.269300 1_555
Mg5 O27 1.902607 1_555
Mg5 O25 2.017029 1_555
Mg5 O97 2.031660 1_555
Mg5 O29 2.104681 1_555
Mg5 O99 2.137852 1_555
Mg5 O101 2.269486 1_555
Mg6 O34 1.946867 1_555
Mg6 O102 2.019009 1_555
Mg6 O30 2.038977 1_555
Mg6 O106 2.091585 1_555
Mg6 O32 2.107562 1_555
Mg6 O104 2.213620 1_555
Mg7 O35 1.939464 1_555
Mg7 O103 2.017802 1_555
Mg7 O31 2.038042 1_555
Mg7 O107 2.066320 1_555
Mg7 O33 2.110370 1_555
Mg7 O105 2.228561 1_555
Mg8 O120 1.955171 1_555
Mg8 O50 1.994624 1_554
Mg8 O48 2.015422 1_554
Mg8 O122 2.039510 1_555
Mg8 O52 2.150540 1_554
Mg8 O124 2.261712 1_555
Mg9 O121 1.952108 1_555
Mg9 O51 1.991817 1_554
Mg9 O49 2.019135 1_554
Mg9 O123 2.042377 1_555
Mg9 O53 2.148219 1_554
Mg9 O125 2.271407 1_555
Mg10 O126 1.964753 1_555
Mg10 O58 2.001032 1_555
Mg10 O130 2.019428 1_555
Mg10 O54 2.030293 1_555
Mg10 O56 2.123229 1_555
Mg10 O128 2.243447 1_555
Mg11 O59 1.925829 1_555
Mg11 O55 2.039934 1_555
Mg11 O127 2.058102 1_555
Mg11 O131 2.071373 1_555
Mg11 O57 2.086228 1_555
Mg11 O129 2.226349 1_555
Ga0 O86 1.827368 1_565
Ga0 O13 1.886317 1_455
Ga0 O16 2.092072 1_555
Ga0 O14 2.146778 1_565
Ga0 O85 2.185426 1_465
Ga0 O89 2.205867 1_455
Ga1 O12 1.865202 1_545
Ga1 O87 1.869753 1_555
Ga1 O15 2.046447 1_555
Ga1 O84 2.100903 1_555
Ga1 O17 2.144352 1_545
Ga1 O88 2.314500 1_545
Ga2 O19 1.838714 1_545
Ga2 O94 1.867195 1_655
Ga2 O20 1.967277 1_655
Ga2 O93 2.202555 1_555
Ga2 O22 2.209894 1_645
Ga2 O91 2.384344 1_545
Ga3 O18 1.837070 1_545
Ga3 O95 1.867358 1_555
Ga3 O21 1.937564 1_555
Ga3 O23 2.151551 1_545
Ga3 O92 2.205502 1_555
Ga3 O90 2.357273 1_545
Ga4 O36 1.838874 1_556
Ga4 O40 2.006496 1_556
Ga4 O38 2.051131 1_556
Ga4 O108 2.101775 1_555
Ga4 O110 2.121029 1_555
Ga4 O112 2.159137 1_555
Ga5 O37 1.829589 1_556
Ga5 O41 2.003902 1_556
Ga5 O39 2.053261 1_556
Ga5 O109 2.116834 1_555
Ga5 O111 2.150195 1_555
Ga5 O113 2.159220 1_555
Ga6 O42 1.811602 1_555
Ga6 O118 1.895391 1_555
Ga6 O44 2.088315 1_555
Ga6 O46 2.104554 1_555
Ga6 O114 2.116784 1_555
Ga6 O116 2.267920 1_555
Ga7 O43 1.844343 1_555
Ga7 O45 1.960453 1_555
Ga7 O47 2.027514 1_555
Ga7 O119 2.106467 1_555
Ga7 O117 2.169087 1_555
Ga7 O115 2.183297 1_555
Ga8 O134 1.872609 1_555
Ga8 O62 1.949140 1_555
Ga8 O64 1.990077 1_555
Ga8 O60 2.069246 1_555
Ga8 O132 2.098734 1_555
Ga8 O136 2.273937 1_555
Ga9 O61 1.860598 1_555
Ga9 O135 1.885369 1_555
Ga9 O63 2.028120 1_555
Ga9 O65 2.035645 1_555
Ga9 O133 2.217328 1_555
Ga9 O137 2.344929 1_555
Ga10 O142 1.876645 1_555
Ga10 O68 1.966093 1_555
Ga10 O70 1.993255 1_555
Ga10 O66 2.038768 1_555
Ga10 O138 2.199814 1_555
Ga10 O140 2.312401 1_555
Ga11 O143 1.903616 1_555
Ga11 O67 1.977734 1_555
Ga11 O69 1.995996 1_555
Ga11 O71 2.068322 1_555
Ga11 O139 2.130933 1_555
Ga11 O141 2.177623 1_555
O0 S0 1.465212 1_545
O1 S1 1.475963 1_545
O2 Si0 1.595525 1_555
O3 Si1 1.585843 1_555
O4 S3 1.457805 1_555
O5 S2 1.454117 1_555
O6 S4 1.466836 1_555
O7 S5 1.461400 1_555
O8 S7 1.462989 1_555
O9 S6 1.462670 1_655
O10 Si2 1.572852 1_555
O11 Si3 1.586856 1_555
O12 Si2 1.694977 1_565
O13 Si3 1.690922 1_565
O14 S4 1.486243 1_555
O15 S5 1.484294 1_555
O16 S6 1.488892 1_555
O17 S7 1.507452 1_555
O18 Si0 1.677797 1_555
O19 Si1 1.695237 1_555
O20 S2 1.509428 1_455
O21 S3 1.505617 1_555
O22 S0 1.504566 1_555
O23 S1 1.504142 1_555
O24 S8 1.471105 1_555
O25 S9 1.477193 1_555
O26 Si4 1.616898 1_555
O27 Si5 1.600995 1_555
O28 S10 1.473622 1_555
O29 S11 1.475399 1_555
O30 S12 1.466113 1_555
O31 S13 1.467634 1_555
O32 S14 1.461047 1_555
O33 S15 1.460837 1_555
O34 Si6 1.608864 1_555
O35 Si7 1.607552 1_555
O36 Si6 1.677879 1_555
O37 Si7 1.679979 1_555
O38 S12 1.495605 1_555
O39 S13 1.495513 1_555
O40 S14 1.494770 1_555
O41 S15 1.497091 1_555
O42 Si4 1.660630 1_555
O43 Si5 1.666303 1_555
O44 S10 1.493607 1_555
O45 S11 1.494481 1_555
O46 S8 1.487183 1_555
O47 S9 1.500045 1_555
O48 S16 1.465105 1_555
O49 S17 1.464463 1_555
O50 S18 1.454223 1_555
O51 S19 1.456727 1_555
O52 S20 1.470625 1_555
O53 S21 1.470140 1_555
O54 S22 1.473039 1_555
O55 S23 1.471435 1_555
O56 S24 1.460788 1_555
O57 S25 1.456412 1_555
O58 S26 1.453862 1_555
O59 Si8 1.600505 1_555
O60 S26 1.527125 1_555
O61 Si8 1.679156 1_555
O62 S22 1.504877 1_555
O63 S23 1.500888 1_555
O64 S24 1.532121 1_555
O65 S25 1.499577 1_555
O66 S18 1.532887 1_555
O67 S19 1.518609 1_555
O68 S20 1.520770 1_555
O69 S21 1.517236 1_555
O70 S16 1.523172 1_555
O71 S17 1.515232 1_555
O72 S26 1.470095 1_555
O73 Si8 1.648878 1_555
O74 S22 1.474755 1_555
O75 S23 1.459671 1_555
O76 S24 1.469949 1_555
O77 S25 1.485944 1_555
O78 S18 1.471399 1_555
O79 S19 1.471060 1_555
O80 S20 1.475309 1_555
O81 S21 1.474155 1_555
O82 S16 1.465033 1_555
O83 S17 1.470418 1_555
O84 S8 1.499245 1_555
O85 S9 1.495980 1_555
O86 Si4 1.670204 1_555
O87 Si5 1.675820 1_555
O88 S10 1.506894 1_555
O89 S11 1.493725 1_555
O90 S12 1.498212 1_555
O91 S13 1.496067 1_555
O92 S14 1.489743 1_555
O93 S15 1.490851 1_555
O94 Si6 1.684503 1_555
O95 Si7 1.680359 1_555
O96 Si2 1.611102 1_555
O97 Si3 1.632500 1_555
O98 S4 1.478839 1_555
O99 S5 1.494852 1_555
O100 S7 1.478526 1_555
O101 S6 1.493538 1_655
O102 Si0 1.643432 1_555
O103 Si1 1.647569 1_555
O104 S3 1.475595 1_555
O105 S2 1.473602 1_555
O106 S0 1.467547 1_545
O107 S1 1.469348 1_545
O108 S16 1.497812 1_555
O109 S17 1.504425 1_555
O110 S19 1.508798 1_555
O111 S18 1.505263 1_655
O112 S20 1.497275 1_545
O113 S21 1.503539 1_545
O114 S22 1.474335 1_545
O115 S23 1.512349 1_545
O116 S24 1.495149 1_555
O117 S25 1.517807 1_555
O118 Si8 1.682487 1_555
O119 S26 1.514056 1_655
O120 Si6 1.617290 1_555
O121 Si7 1.616356 1_555
O122 S13 1.477630 1_455
O123 S12 1.476842 1_555
O124 S14 1.501838 1_565
O125 S15 1.499752 1_565
O126 Si4 1.635388 1_565
O127 Si5 1.642422 1_565
O128 S10 1.478672 1_555
O129 S11 1.482264 1_555
O130 S9 1.458500 1_455
O131 S8 1.468752 1_555
O132 S0 1.505551 1_555
O133 S1 1.486651 1_555
O134 Si0 1.679256 1_555
O135 Si1 1.679431 1_555
O136 S2 1.511638 1_455
O137 S3 1.500510 1_555
O138 S4 1.511000 1_555
O139 S5 1.498971 1_555
O140 S6 1.502671 1_555
O141 S7 1.504609 1_555
O142 Si2 1.742175 1_565
O143 Si3 1.697969 1_565
