# generated using pymatgen
data_Na3Nb2Zn2P5SO24
_symmetry_space_group_name_H-M   'P 1'
_cell_length_a   8.84423917
_cell_length_b   8.81619771
_cell_length_c   22.48826010
_cell_angle_alpha   90.09983542
_cell_angle_beta   89.88657073
_cell_angle_gamma   119.86985753
_symmetry_Int_Tables_number   1
_chemical_formula_structural   Na3Nb2Zn2P5SO24
_chemical_formula_sum   'Na9 Nb6 Zn6 P15 S3 O72'
_cell_volume   1520.53111869
_cell_formula_units_Z   3
loop_
 _symmetry_equiv_pos_site_id
 _symmetry_equiv_pos_as_xyz
  1  'x, y, z'
loop_
 _atom_site_type_symbol
 _atom_site_label
 _atom_site_symmetry_multiplicity
 _atom_site_fract_x
 _atom_site_fract_y
 _atom_site_fract_z
 _atom_site_occupancy
  Na  Na0  1  0.01136832  0.36918766  0.75354415  1
  Na  Na1  1  0.68001871  0.97950226  0.58671324  1
  Na  Na2  1  0.68078823  0.70372541  0.08686968  1
  Na  Na3  1  0.01423954  0.00441014  0.50790566  1
  Na  Na4  1  0.01055827  0.01190201  0.00724319  1
  Na  Na5  1  0.66196382  0.33972367  0.84278679  1
  Na  Na6  1  0.65719454  0.32611509  0.34158494  1
  Na  Na7  1  0.32865839  0.67458792  0.17631507  1
  Na  Na8  1  0.33407861  0.67057050  0.67557222  1
  Nb  Nb0  1  0.00015185  0.99815629  0.35429427  1
  Nb  Nb1  1  0.99398872  0.99744423  0.85360011  1
  Nb  Nb2  1  0.66217430  0.33456269  0.68701892  1
  Nb  Nb3  1  0.66139748  0.33121089  0.18714932  1
  Nb  Nb4  1  0.33097144  0.66101416  0.02082499  1
  Nb  Nb5  1  0.33587631  0.65986519  0.52077563  1
  Zn  Zn0  1  0.00667688  0.99904820  0.64958105  1
  Zn  Zn1  1  0.00618121  0.99894310  0.14920409  1
  Zn  Zn2  1  0.67426809  0.33865850  0.98286667  1
  Zn  Zn3  1  0.65785867  0.32630791  0.48254538  1
  Zn  Zn4  1  0.35172207  0.67742301  0.31505194  1
  Zn  Zn5  1  0.33920857  0.66559022  0.81579378  1
  P  P0  1  0.28850691  0.99373524  0.24847092  1
  P  P1  1  0.70715537  0.71015724  0.24647984  1
  P  P2  1  0.28863219  0.28978340  0.74875847  1
  P  P3  1  0.00302752  0.71066992  0.74811975  1
  P  P4  1  0.70247629  0.99393447  0.74672865  1
  P  P5  1  0.95645953  0.33343940  0.58175988  1
  P  P6  1  0.36959781  0.04181114  0.58104950  1
  P  P7  1  0.67301205  0.62479392  0.57989974  1
  P  P8  1  0.95741247  0.62443282  0.08221188  1
  P  P9  1  0.66963076  0.04564196  0.08056078  1
  P  P10  1  0.37111092  0.32423080  0.08068490  1
  P  P11  1  0.62254756  0.66094218  0.91521368  1
  P  P12  1  0.03778008  0.37578761  0.91295479  1
  P  P13  1  0.62485675  0.96292310  0.41535923  1
  P  P14  1  0.33736249  0.37678905  0.41257166  1
  S  S0  1  0.00072641  0.29242960  0.24909232  1
  S  S1  1  0.33360452  0.95819807  0.91524403  1
  S  S2  1  0.04334041  0.66350657  0.41476246  1
  O  O0  1  0.19814791  0.02639233  0.30520814  1
  O  O1  1  0.83005701  0.80717729  0.30218791  1
  O  O2  1  0.97362213  0.17912930  0.30372353  1
  O  O3  1  0.19907127  0.17029485  0.80541162  1
  O  O4  1  0.97380726  0.80039617  0.80518151  1
  O  O5  1  0.83075617  0.02820486  0.80217806  1
  O  O6  1  0.78385462  0.97569182  0.69005937  1
  O  O7  1  0.17565176  0.20910651  0.69489129  1
  O  O8  1  0.02438363  0.81480265  0.69323217  1
  O  O9  1  0.78737629  0.81139503  0.18998051  1
  O  O10  1  0.02137265  0.21145079  0.19586129  1
  O  O11  1  0.18559315  0.97742311  0.19364796  1
  O  O12  1  0.87090326  0.36359706  0.64023389  1
  O  O13  1  0.49645803  0.13268413  0.63735345  1
  O  O14  1  0.64071573  0.50643669  0.63724445  1
  O  O15  1  0.86708849  0.50357871  0.13870956  1
  O  O16  1  0.63911615  0.13430749  0.13783072  1
  O  O17  1  0.49631269  0.36404337  0.13749195  1
  O  O18  1  0.45734223  0.30567468  0.02618332  1
  O  O19  1  0.84499975  0.54486330  0.02825307  1
  O  O20  1  0.69122364  0.15064426  0.02591595  1
  O  O21  1  0.45441113  0.14593419  0.52633238  1
  O  O22  1  0.69410022  0.54076996  0.52535698  1
  O  O23  1  0.84220373  0.30493914  0.52877608  1
  O  O24  1  0.53658142  0.69350191  0.97340927  1
  O  O25  1  0.16315989  0.47396285  0.96871912  1
  O  O26  1  0.30752555  0.84559695  0.96980287  1
  O  O27  1  0.53572482  0.84216986  0.47297398  1
  O  O28  1  0.30651053  0.46753819  0.47050531  1
  O  O29  1  0.15538946  0.69382995  0.46938778  1
  O  O30  1  0.12462705  0.64517696  0.36156122  1
  O  O31  1  0.51578079  0.87852510  0.36157041  1
  O  O32  1  0.35032548  0.48220871  0.35890236  1
  O  O33  1  0.11928604  0.47726388  0.85667367  1
  O  O34  1  0.35194877  0.87624887  0.86189928  1
  O  O35  1  0.51665879  0.64526280  0.86137994  1
  O  O36  1  0.03224713  0.83253363  0.41166411  1
  O  O37  1  0.80793641  0.96775910  0.40927526  1
  O  O38  1  0.16154797  0.19166124  0.40911706  1
  O  O39  1  0.03287958  0.19253573  0.91031453  1
  O  O40  1  0.16641092  0.96751977  0.91283016  1
  O  O41  1  0.80773722  0.83709667  0.90999595  1
  O  O42  1  0.98201998  0.17679088  0.58989086  1
  O  O43  1  0.18840277  0.01120009  0.58996877  1
  O  O44  1  0.81713296  0.81204118  0.58836565  1
  O  O45  1  0.98300905  0.80669536  0.09034395  1
  O  O46  1  0.81783856  0.00783095  0.08960339  1
  O  O47  1  0.18814422  0.17847964  0.09066691  1
  O  O48  1  0.70238125  0.17489617  0.74461954  1
  O  O49  1  0.47169879  0.30034243  0.74337998  1
  O  O50  1  0.82862456  0.52391173  0.74429199  1
  O  O51  1  0.70097852  0.52619751  0.24351324  1
  O  O52  1  0.83304028  0.30015342  0.24631704  1
  O  O53  1  0.47444498  0.16904327  0.24368620  1
  O  O54  1  0.65071305  0.50730764  0.92295234  1
  O  O55  1  0.85581657  0.34447956  0.92219737  1
  O  O56  1  0.48158291  0.13304026  0.92263542  1
  O  O57  1  0.66076661  0.14747548  0.42363428  1
  O  O58  1  0.49088498  0.34978962  0.42141444  1
  O  O59  1  0.86788009  0.51758751  0.42257663  1
  O  O60  1  0.36867071  0.50607879  0.07691661  1
  O  O61  1  0.14067858  0.63538342  0.07630545  1
  O  O62  1  0.49511022  0.85798967  0.07603050  1
  O  O63  1  0.36774880  0.85933299  0.57744123  1
  O  O64  1  0.49591308  0.63547207  0.57659576  1
  O  O65  1  0.13965991  0.50625859  0.57567755  1
  O  O66  1  0.31379721  0.83842379  0.25746334  1
  O  O67  1  0.52375609  0.67728212  0.25445475  1
  O  O68  1  0.14731302  0.46771792  0.25724375  1
  O  O69  1  0.31480565  0.47240703  0.75667863  1
  O  O70  1  0.15185357  0.67352420  0.75653582  1
  O  O71  1  0.52123625  0.84434735  0.75687365  1
loop_
_geom_bond_atom_site_label_1
_geom_bond_atom_site_label_2
_geom_bond_distance
_geom_bond_site_symmetry_2
Na0 O70 2.329463 1_555
Na0 O69 2.367100 1_555
Na0 O48 2.404315 1_455
Na0 O33 2.508540 1_555
Na0 O50 2.591236 1_455
Na0 O7 2.805544 1_555
Na0 O12 2.826647 1_455
Na0 O5 2.829541 1_455
Na1 O44 2.331372 1_555
Na1 O42 2.353164 1_565
Na1 O63 2.424965 1_555
Na1 O6 2.507044 1_555
Na1 O64 2.642395 1_555
Na1 O23 2.809495 1_565
Na1 O13 2.815569 1_565
Na1 O27 2.846041 1_555
Na2 O46 2.328911 1_565
Na2 O45 2.357611 1_555
Na2 O60 2.432363 1_555
Na2 O9 2.505223 1_555
Na2 O62 2.614038 1_555
Na2 O19 2.796512 1_555
Na2 O24 2.835955 1_554
Na2 O17 2.839706 1_555
Na3 O43 2.387671 1_555
Na3 O42 2.491902 1_455
Na3 O44 2.498505 1_445
Na3 O38 2.686467 1_555
Na3 O36 2.689478 1_545
Na3 O37 2.789170 1_445
Na4 O47 2.418204 1_555
Na4 O46 2.502735 1_455
Na4 O45 2.528964 1_445
Na4 O39 2.650212 1_554
Na4 O40 2.661529 1_544
Na4 O41 2.761448 1_444
Na5 O54 2.362042 1_555
Na5 O55 2.463851 1_555
Na5 O56 2.488833 1_555
Na5 O50 2.707605 1_555
Na5 O49 2.716586 1_555
Na5 O48 2.759723 1_555
Na6 O58 2.392473 1_555
Na6 O57 2.438414 1_555
Na6 O59 2.551205 1_555
Na6 O53 2.674131 1_555
Na6 O52 2.720419 1_555
Na6 O51 2.730455 1_555
Na7 O66 2.369126 1_555
Na7 O67 2.456982 1_555
Na7 O68 2.509429 1_555
Na7 O61 2.716876 1_555
Na7 O62 2.737927 1_555
Na7 O60 2.799603 1_555
Na8 O71 2.430252 1_555
Na8 O70 2.437857 1_555
Na8 O69 2.474116 1_555
Na8 O63 2.691590 1_555
Na8 O64 2.743125 1_555
Na8 O65 2.761261 1_555
Nb0 O0 1.976366 1_565
Nb0 O1 1.987012 1_455
Nb0 O37 2.007390 1_455
Nb0 O38 2.010458 1_565
Nb0 O2 2.067426 1_465
Nb0 O36 2.073160 1_555
Nb1 O5 1.972977 1_565
Nb1 O4 1.980074 1_555
Nb1 O41 1.999701 1_555
Nb1 O3 2.007804 1_665
Nb1 O39 2.026839 1_665
Nb1 O40 2.139911 1_655
Nb2 O14 1.969314 1_555
Nb2 O13 1.991107 1_555
Nb2 O49 2.005502 1_555
Nb2 O12 2.025570 1_555
Nb2 O50 2.040816 1_555
Nb2 O48 2.071860 1_555
Nb3 O17 1.972589 1_555
Nb3 O16 1.983889 1_555
Nb3 O53 2.009434 1_555
Nb3 O15 2.012373 1_555
Nb3 O51 2.019660 1_555
Nb3 O52 2.138498 1_555
Nb4 O25 1.964062 1_554
Nb4 O24 2.000108 1_554
Nb4 O60 2.007340 1_555
Nb4 O61 2.013468 1_555
Nb4 O62 2.037874 1_555
Nb4 O26 2.085965 1_554
Nb5 O28 1.943281 1_555
Nb5 O64 1.984075 1_555
Nb5 O65 2.006574 1_555
Nb5 O27 2.007920 1_555
Nb5 O63 2.072600 1_555
Nb5 O29 2.111355 1_555
O0 P0 1.604177 1_545
O1 P1 1.599424 1_555
O2 S0 1.526168 1_655
O3 P2 1.590547 1_555
O4 P3 1.593099 1_655
O5 P4 1.611281 1_545
O6 P4 1.509606 1_555
O6 Zn0 2.084229 1_655
O7 P2 1.505212 1_555
O7 Zn0 1.985947 1_545
O8 P3 1.494111 1_555
O8 Zn0 1.971338 1_555
O9 P1 1.511283 1_555
O9 Zn1 2.032437 1_655
O10 S0 1.449835 1_555
O10 Zn1 2.090927 1_545
O11 P0 1.497516 1_555
O11 Zn1 1.964572 1_555
O12 P5 1.602391 1_555
O13 P6 1.615749 1_555
O14 P7 1.593667 1_555
O15 P8 1.593910 1_555
O16 P9 1.596188 1_555
O17 P10 1.611904 1_555
O18 P10 1.493479 1_555
O18 Zn2 2.037685 1_554
O19 P8 1.503364 1_555
O19 Zn2 1.972841 1_554
O20 P9 1.493482 1_555
O20 Zn2 1.990228 1_554
O21 P6 1.494610 1_555
O21 Zn3 1.970885 1_555
O22 P7 1.490487 1_555
O22 Zn3 1.998941 1_555
O23 P5 1.501592 1_555
O23 Zn3 2.021849 1_555
O24 P11 1.607901 1_555
O25 P12 1.611560 1_555
O26 S1 1.522860 1_555
O27 P13 1.611936 1_555
O28 P14 1.619975 1_555
O29 S2 1.517351 1_555
O30 S2 1.444291 1_555
O30 Zn4 2.152379 1_555
O31 P13 1.494643 1_555
O31 Zn4 1.944280 1_555
O32 P14 1.493598 1_555
O32 Zn4 1.979718 1_555
O33 P12 1.509928 1_555
O33 Zn5 2.041218 1_555
O34 S1 1.449268 1_555
O34 Zn5 2.079002 1_555
O35 P11 1.495570 1_555
O35 Zn5 1.957874 1_555
O36 S2 1.543088 1_555
O37 P13 1.603972 1_555
O38 P14 1.599963 1_555
O39 P12 1.595446 1_555
O40 S1 1.522377 1_555
O41 P11 1.604517 1_555
O42 P5 1.517840 1_555
O42 Zn0 2.157267 1_645
O43 P6 1.499770 1_555
O43 Zn0 2.052380 1_545
O44 P7 1.513303 1_555
O44 Zn0 2.161434 1_655
O45 P8 1.517731 1_555
O45 Zn1 2.077022 1_655
O46 P9 1.518931 1_555
O46 Zn1 2.171754 1_645
O47 P10 1.499509 1_555
O47 Zn1 2.071182 1_545
O48 P4 1.596600 1_545
O49 P2 1.579198 1_555
O50 P3 1.602474 1_655
O51 P1 1.596602 1_555
O52 S0 1.519526 1_655
O53 P0 1.604019 1_545
O54 P11 1.504660 1_555
O54 Zn2 2.094309 1_555
O55 P12 1.505240 1_655
O55 Zn2 2.086075 1_555
O56 S1 1.451570 1_545
O56 Zn2 2.224509 1_555
O57 P13 1.505742 1_545
O57 Zn3 2.067484 1_555
O58 P14 1.504313 1_555
O58 Zn3 2.104064 1_555
O59 S2 1.450929 1_655
O59 Zn3 2.233988 1_555
O60 P10 1.616437 1_555
O61 P8 1.580330 1_455
O62 P9 1.608197 1_565
O63 P6 1.602597 1_565
O64 P7 1.617113 1_555
O65 P5 1.583121 1_455
O66 P0 1.507313 1_555
O66 Zn4 2.070456 1_555
O67 P1 1.509272 1_555
O67 Zn4 2.041000 1_555
O68 S0 1.451519 1_555
O68 Zn4 2.246803 1_555
O69 P2 1.518383 1_555
O69 Zn5 2.083669 1_555
O70 P3 1.518600 1_555
O70 Zn5 2.156605 1_555
O71 P4 1.501544 1_555
O71 Zn5 2.074308 1_555
