# generated using pymatgen
data_MgMn2(SbO3)4
_symmetry_space_group_name_H-M   'P 1'
_cell_length_a   4.90593718
_cell_length_b   4.91714455
_cell_length_c   10.24533107
_cell_angle_alpha   89.99152720
_cell_angle_beta   89.99169820
_cell_angle_gamma   87.62500884
_symmetry_Int_Tables_number   1
_chemical_formula_structural   MgMn2(SbO3)4
_chemical_formula_sum   'Mg1 Mn2 Sb4 O12'
_cell_volume   246.93788976
_cell_formula_units_Z   1
loop_
 _symmetry_equiv_pos_site_id
 _symmetry_equiv_pos_as_xyz
  1  'x, y, z'
loop_
 _atom_site_type_symbol
 _atom_site_label
 _atom_site_symmetry_multiplicity
 _atom_site_fract_x
 _atom_site_fract_y
 _atom_site_fract_z
 _atom_site_occupancy
  Mg  Mg0  1  0.00008900  0.50014700  0.75938300  1
  Mn  Mn0  1  0.99990900  0.99993500  0.31810600  1
  Mn  Mn1  1  0.50016900  0.50022500  0.88266700  1
  Sb  Sb0  1  0.00013300  0.00008600  0.01314300  1
  Sb  Sb1  1  0.99997700  0.00000100  0.62047000  1
  Sb  Sb2  1  0.50004000  0.50001700  0.17488300  1
  Sb  Sb3  1  0.49991500  0.49992300  0.48584800  1
  O  O0  1  0.17127300  0.77586600  0.86849700  1
  O  O1  1  0.19722600  0.79562600  0.16102600  1
  O  O2  1  0.22126200  0.81731800  0.47896800  1
  O  O3  1  0.30453600  0.28620600  0.02981400  1
  O  O4  1  0.31324300  0.32497800  0.32895000  1
  O  O5  1  0.28205400  0.34123800  0.63381300  1
  O  O6  1  0.69572400  0.71395600  0.02986100  1
  O  O7  1  0.68677400  0.67490600  0.32898400  1
  O  O8  1  0.71718400  0.65829000  0.63403500  1
  O  O9  1  0.80293300  0.20448500  0.16101500  1
  O  O10  1  0.82904200  0.22431000  0.86847600  1
  O  O11  1  0.77851800  0.18248600  0.47900300  1
loop_
_geom_bond_atom_site_label_1
_geom_bond_atom_site_label_2
_geom_bond_distance
_geom_bond_site_symmetry_2
Mg0 O10 1.971458 1_455
Mg0 O0 1.971841 1_555
Mg0 O5 2.022220 1_555
Mg0 O8 2.022625 1_455
Mn0 O9 2.110739 1_565
Mn0 O1 2.110857 1_655
Mn0 O2 2.149661 1_655
Mn0 O11 2.149860 1_565
Mn0 O7 2.264965 1_555
Mn0 O4 2.265735 1_665
Mn1 O0 2.068907 1_555
Mn1 O10 2.069671 1_555
Mn1 O6 2.093697 1_556
Mn1 O3 2.093848 1_556
O0 Sb0 2.009989 1_566
O1 Sb0 2.039769 1_565
O1 Sb2 2.039845 1_555
O2 Sb1 2.001573 1_465
O2 Sb3 2.032902 1_555
O3 Sb2 2.078154 1_555
O3 Sb0 2.100711 1_555
O4 Sb2 2.033892 1_555
O4 Sb3 2.056400 1_555
O5 Sb3 2.029186 1_555
O5 Sb1 2.222991 1_455
O6 Sb2 2.078145 1_555
O6 Sb0 2.100737 1_665
O7 Sb2 2.034095 1_555
O7 Sb3 2.056228 1_555
O8 Sb3 2.029082 1_555
O8 Sb1 2.227192 1_565
O9 Sb0 2.039795 1_655
O9 Sb2 2.039866 1_555
O10 Sb0 2.010002 1_656
O11 Sb1 2.001381 1_555
O11 Sb3 2.032887 1_555
