# generated using pymatgen
data_MgV3OF11
_symmetry_space_group_name_H-M   'P 1'
_cell_length_a   7.33283753
_cell_length_b   6.02924711
_cell_length_c   5.25230446
_cell_angle_alpha   95.57707945
_cell_angle_beta   101.02602922
_cell_angle_gamma   94.81993873
_symmetry_Int_Tables_number   1
_chemical_formula_structural   MgV3OF11
_chemical_formula_sum   'Mg1 V3 O1 F11'
_cell_volume   225.59185499
_cell_formula_units_Z   1
loop_
 _symmetry_equiv_pos_site_id
 _symmetry_equiv_pos_as_xyz
  1  'x, y, z'
loop_
 _atom_site_type_symbol
 _atom_site_label
 _atom_site_symmetry_multiplicity
 _atom_site_fract_x
 _atom_site_fract_y
 _atom_site_fract_z
 _atom_site_occupancy
  Mg  Mg0  1  0.80282900  0.50107500  0.89262200  1
  V  V0  1  0.01457900  0.99115300  0.02253400  1
  V  V1  1  0.35715300  0.17324700  0.59323000  1
  V  V2  1  0.62509700  0.84136500  0.40321300  1
  O  O0  1  0.16071600  0.01265900  0.31936800  1
  F  F0  1  0.03831100  0.69488700  0.88288600  1
  F  F1  1  0.28214600  0.42901600  0.50889700  1
  F  F2  1  0.20656600  0.13591800  0.85278300  1
  F  F3  1  0.45135900  0.89497300  0.66435200  1
  F  F4  1  0.43854600  0.69425000  0.15172500  1
  F  F5  1  0.56006700  0.32042100  0.85493700  1
  F  F6  1  0.53381900  0.14419800  0.35718200  1
  F  F7  1  0.79414500  0.81108600  0.11902900  1
  F  F8  1  0.71927300  0.57836000  0.54046800  1
  F  F9  1  0.84173000  0.00956100  0.67552600  1
  F  F10  1  0.92548800  0.28318200  0.09000500  1
loop_
_geom_bond_atom_site_label_1
_geom_bond_atom_site_label_2
_geom_bond_distance
_geom_bond_site_symmetry_2
O0 V0 1.701210 1_545
O0 V1 1.945182 1_555
F0 V0 1.898789 1_556
F0 Mg0 2.013970 1_455
F1 V1 1.748966 1_555
F2 V1 1.929278 1_555
F2 V0 1.990868 1_546
F3 V1 1.910388 1_565
F3 V2 2.064021 1_555
F4 V2 1.811077 1_555
F5 V1 1.910361 1_555
F5 Mg0 1.972793 1_555
F6 V1 1.963739 1_555
F6 V2 2.017293 1_545
F7 V0 2.042969 1_655
F7 V2 2.119119 1_555
F7 Mg0 2.128087 1_554
F8 V2 1.930520 1_555
F8 Mg0 1.948240 1_555
F9 V0 2.029772 1_646
F9 V2 2.043476 1_545
F10 Mg0 1.927765 1_554
F10 V0 1.952707 1_645
