# generated using pymatgen
data_MgTe4Mo2W2(SeS)2
_symmetry_space_group_name_H-M   'P 1'
_cell_length_a   6.77602600
_cell_length_b   6.77610715
_cell_length_c   77.48329200
_cell_angle_alpha   90.00090349
_cell_angle_beta   89.99975887
_cell_angle_gamma   119.99982964
_symmetry_Int_Tables_number   1
_chemical_formula_structural   MgTe4Mo2W2(SeS)2
_chemical_formula_sum   'Mg8 Te32 Mo16 W16 Se16 S16'
_cell_volume   3081.02178836
_cell_formula_units_Z   8
loop_
 _symmetry_equiv_pos_site_id
 _symmetry_equiv_pos_as_xyz
  1  'x, y, z'
loop_
 _atom_site_type_symbol
 _atom_site_label
 _atom_site_symmetry_multiplicity
 _atom_site_fract_x
 _atom_site_fract_y
 _atom_site_fract_z
 _atom_site_occupancy
  Mg  Mg0_0  1  0.36127950  0.10306550  0.44074050  1
  Mg  Mg0_1  1  0.36127950  0.10306550  0.94074050  1
  Mg  Mg0_2  1  0.36127950  0.60306550  0.44074050  1
  Mg  Mg0_3  1  0.36127950  0.60306550  0.94074050  1
  Mg  Mg0_4  1  0.86127950  0.10306550  0.44074050  1
  Mg  Mg0_5  1  0.86127950  0.10306550  0.94074050  1
  Mg  Mg0_6  1  0.86127950  0.60306550  0.44074050  1
  Mg  Mg0_7  1  0.86127950  0.60306550  0.94074050  1
  Te  Te0_0  1  0.16667800  0.33335650  0.16512400  1
  Te  Te0_1  1  0.16667800  0.33335650  0.66512400  1
  Te  Te0_2  1  0.16667800  0.83335650  0.16512400  1
  Te  Te0_3  1  0.16667800  0.83335650  0.66512400  1
  Te  Te0_4  1  0.66667800  0.33335650  0.16512400  1
  Te  Te0_5  1  0.66667800  0.33335650  0.66512400  1
  Te  Te0_6  1  0.66667800  0.83335650  0.16512400  1
  Te  Te0_7  1  0.66667800  0.83335650  0.66512400  1
  Te  Te1_0  1  0.16668300  0.33336600  0.35310150  1
  Te  Te1_1  1  0.16668300  0.33336600  0.85310150  1
  Te  Te1_2  1  0.16668300  0.83336600  0.35310150  1
  Te  Te1_3  1  0.16668300  0.83336600  0.85310150  1
  Te  Te1_4  1  0.66668300  0.33336600  0.35310150  1
  Te  Te1_5  1  0.66668300  0.33336600  0.85310150  1
  Te  Te1_6  1  0.66668300  0.83336600  0.35310150  1
  Te  Te1_7  1  0.66668300  0.83336600  0.85310150  1
  Te  Te2_0  1  0.16668100  0.33335750  0.11670500  1
  Te  Te2_1  1  0.16668100  0.33335750  0.61670500  1
  Te  Te2_2  1  0.16668100  0.83335750  0.11670500  1
  Te  Te2_3  1  0.16668100  0.83335750  0.61670500  1
  Te  Te2_4  1  0.66668100  0.33335750  0.11670500  1
  Te  Te2_5  1  0.66668100  0.33335750  0.61670500  1
  Te  Te2_6  1  0.66668100  0.83335750  0.11670500  1
  Te  Te2_7  1  0.66668100  0.83335750  0.61670500  1
  Te  Te3_0  1  0.16667900  0.33335600  0.30442400  1
  Te  Te3_1  1  0.16667900  0.33335600  0.80442400  1
  Te  Te3_2  1  0.16667900  0.83335600  0.30442400  1
  Te  Te3_3  1  0.16667900  0.83335600  0.80442400  1
  Te  Te3_4  1  0.66667900  0.33335600  0.30442400  1
  Te  Te3_5  1  0.66667900  0.33335600  0.80442400  1
  Te  Te3_6  1  0.66667900  0.83335600  0.30442400  1
  Te  Te3_7  1  0.66667900  0.83335600  0.80442400  1
  Mo  Mo0_0  1  0.16665150  0.33330200  0.04692800  1
  Mo  Mo0_1  1  0.16665150  0.33330200  0.54692800  1
  Mo  Mo0_2  1  0.16665150  0.83330200  0.04692800  1
  Mo  Mo0_3  1  0.16665150  0.83330200  0.54692800  1
  Mo  Mo0_4  1  0.66665150  0.33330200  0.04692800  1
  Mo  Mo0_5  1  0.66665150  0.33330200  0.54692800  1
  Mo  Mo0_6  1  0.66665150  0.83330200  0.04692800  1
  Mo  Mo0_7  1  0.66665150  0.83330200  0.54692800  1
  Mo  Mo1_0  1  0.33334500  0.16668950  0.14089600  1
  Mo  Mo1_1  1  0.33334500  0.16668950  0.64089600  1
  Mo  Mo1_2  1  0.33334500  0.66668950  0.14089600  1
  Mo  Mo1_3  1  0.33334500  0.66668950  0.64089600  1
  Mo  Mo1_4  1  0.83334500  0.16668950  0.14089600  1
  Mo  Mo1_5  1  0.83334500  0.16668950  0.64089600  1
  Mo  Mo1_6  1  0.83334500  0.66668950  0.14089600  1
  Mo  Mo1_7  1  0.83334500  0.66668950  0.64089600  1
  W  W0_0  1  0.16667100  0.33334000  0.23482850  1
  W  W0_1  1  0.16667100  0.33334000  0.73482850  1
  W  W0_2  1  0.16667100  0.83334000  0.23482850  1
  W  W0_3  1  0.16667100  0.83334000  0.73482850  1
  W  W0_4  1  0.66667100  0.33334000  0.23482850  1
  W  W0_5  1  0.66667100  0.33334000  0.73482850  1
  W  W0_6  1  0.66667100  0.83334000  0.23482850  1
  W  W0_7  1  0.66667100  0.83334000  0.73482850  1
  W  W1_0  1  0.33334700  0.16669350  0.32878400  1
  W  W1_1  1  0.33334700  0.16669350  0.82878400  1
  W  W1_2  1  0.33334700  0.66669350  0.32878400  1
  W  W1_3  1  0.33334700  0.66669350  0.82878400  1
  W  W1_4  1  0.83334700  0.16669350  0.32878400  1
  W  W1_5  1  0.83334700  0.16669350  0.82878400  1
  W  W1_6  1  0.83334700  0.66669350  0.32878400  1
  W  W1_7  1  0.83334700  0.66669350  0.82878400  1
  Se  Se0_0  1  0.33331800  0.16663550  0.02563800  1
  Se  Se0_1  1  0.33331800  0.16663550  0.52563800  1
  Se  Se0_2  1  0.33331800  0.66663550  0.02563800  1
  Se  Se0_3  1  0.33331800  0.66663550  0.52563800  1
  Se  Se0_4  1  0.83331800  0.16663550  0.02563800  1
  Se  Se0_5  1  0.83331800  0.16663550  0.52563800  1
  Se  Se0_6  1  0.83331800  0.66663550  0.02563800  1
  Se  Se0_7  1  0.83331800  0.66663550  0.52563800  1
  Se  Se1_0  1  0.33332500  0.16664900  0.06827900  1
  Se  Se1_1  1  0.33332500  0.16664900  0.56827900  1
  Se  Se1_2  1  0.33332500  0.66664900  0.06827900  1
  Se  Se1_3  1  0.33332500  0.66664900  0.56827900  1
  Se  Se1_4  1  0.83332500  0.16664900  0.06827900  1
  Se  Se1_5  1  0.83332500  0.16664900  0.56827900  1
  Se  Se1_6  1  0.83332500  0.66664900  0.06827900  1
  Se  Se1_7  1  0.83332500  0.66664900  0.56827900  1
  S  S0_0  1  0.33331400  0.16662700  0.21537950  1
  S  S0_1  1  0.33331400  0.16662700  0.71537950  1
  S  S0_2  1  0.33331400  0.66662700  0.21537950  1
  S  S0_3  1  0.33331400  0.66662700  0.71537950  1
  S  S0_4  1  0.83331400  0.16662700  0.21537950  1
  S  S0_5  1  0.83331400  0.16662700  0.71537950  1
  S  S0_6  1  0.83331400  0.66662700  0.21537950  1
  S  S0_7  1  0.83331400  0.66662700  0.71537950  1
  S  S1_0  1  0.33331200  0.16662300  0.25428300  1
  S  S1_1  1  0.33331200  0.16662300  0.75428300  1
  S  S1_2  1  0.33331200  0.66662300  0.25428300  1
  S  S1_3  1  0.33331200  0.66662300  0.75428300  1
  S  S1_4  1  0.83331200  0.16662300  0.25428300  1
  S  S1_5  1  0.83331200  0.16662300  0.75428300  1
  S  S1_6  1  0.83331200  0.66662300  0.25428300  1
  S  S1_7  1  0.83331200  0.66662300  0.75428300  1
loop_
_geom_bond_atom_site_label_1
_geom_bond_atom_site_label_2
_geom_bond_distance
_geom_bond_site_symmetry_2
Mg0_0 Mg0_4 3.388013 1_455
Mg0_0 Mg0_4 3.388013 1_555
Mg0_0 Mg0_6 3.388042 1_555
Mg0_0 Mg0_6 3.388042 1_445
Mg0_0 Mg0_2 3.388054 1_555
Mg0_0 Mg0_2 3.388054 1_545
Mg0_1 Mg0_5 3.388013 1_555
Mg0_1 Mg0_5 3.388013 1_455
Mg0_1 Mg0_7 3.388042 1_555
Mg0_1 Mg0_7 3.388042 1_445
Mg0_1 Mg0_3 3.388054 1_555
Mg0_1 Mg0_3 3.388054 1_545
Mg0_2 Mg0_6 3.388013 1_455
Mg0_2 Mg0_6 3.388013 1_555
Mg0_2 Mg0_4 3.388042 1_455
Mg0_2 Mg0_4 3.388042 1_565
Mg0_3 Mg0_7 3.388013 1_455
Mg0_3 Mg0_7 3.388013 1_555
Mg0_3 Mg0_5 3.388042 1_455
Mg0_3 Mg0_5 3.388042 1_565
Mg0_4 Mg0_6 3.388054 1_555
Mg0_4 Mg0_6 3.388054 1_545
Mg0_5 Mg0_7 3.388054 1_555
Mg0_5 Mg0_7 3.388054 1_545
Te1_0 W1_0 2.715962 1_555
Te1_0 W1_4 2.715965 1_455
Te1_0 W1_2 2.715973 1_555
Te1_1 W1_1 2.715962 1_555
Te1_1 W1_5 2.715965 1_455
Te1_1 W1_3 2.715973 1_555
Te1_2 W1_2 2.715962 1_555
Te1_2 W1_6 2.715965 1_455
Te1_2 W1_0 2.715973 1_565
Te1_3 W1_3 2.715962 1_555
Te1_3 W1_7 2.715965 1_455
Te1_3 W1_1 2.715973 1_565
Te1_4 W1_4 2.715962 1_555
Te1_4 W1_0 2.715965 1_555
Te1_4 W1_6 2.715973 1_555
Te1_5 W1_5 2.715962 1_555
Te1_5 W1_1 2.715965 1_555
Te1_5 W1_7 2.715973 1_555
Te1_6 W1_6 2.715962 1_555
Te1_6 W1_2 2.715965 1_555
Te1_6 W1_4 2.715973 1_565
Te1_7 W1_7 2.715962 1_555
Te1_7 W1_3 2.715965 1_555
Te1_7 W1_5 2.715973 1_565
Te3_0 W1_4 2.718245 1_455
Te3_0 W1_0 2.718253 1_555
Te3_0 W1_2 2.718258 1_555
Te3_1 W1_5 2.718245 1_455
Te3_1 W1_1 2.718253 1_555
Te3_1 W1_3 2.718258 1_555
Te3_2 W1_6 2.718245 1_455
Te3_2 W1_2 2.718253 1_555
Te3_2 W1_0 2.718258 1_565
Te3_3 W1_7 2.718245 1_455
Te3_3 W1_3 2.718253 1_555
Te3_3 W1_1 2.718258 1_565
Te3_4 W1_0 2.718245 1_555
Te3_4 W1_4 2.718253 1_555
Te3_4 W1_6 2.718258 1_555
Te3_5 W1_1 2.718245 1_555
Te3_5 W1_5 2.718253 1_555
Te3_5 W1_7 2.718258 1_555
Te3_6 W1_2 2.718245 1_555
Te3_6 W1_6 2.718253 1_555
Te3_6 W1_4 2.718258 1_565
Te3_7 W1_3 2.718245 1_555
Te3_7 W1_7 2.718253 1_555
Te3_7 W1_5 2.718258 1_565
Mo0_0 Se0_0 2.558791 1_555
Mo0_0 Se0_4 2.558797 1_455
Mo0_0 Se0_2 2.558841 1_555
Mo0_0 Se1_4 2.561826 1_455
Mo0_0 Se1_0 2.561841 1_555
Mo0_0 Se1_2 2.561911 1_555
Mo0_1 Se0_1 2.558791 1_555
Mo0_1 Se0_5 2.558797 1_455
Mo0_1 Se0_3 2.558841 1_555
Mo0_1 Se1_5 2.561826 1_455
Mo0_1 Se1_1 2.561841 1_555
Mo0_1 Se1_3 2.561911 1_555
Mo0_2 Se0_2 2.558791 1_555
Mo0_2 Se0_6 2.558797 1_455
Mo0_2 Se0_0 2.558841 1_565
Mo0_2 Se1_6 2.561826 1_455
Mo0_2 Se1_2 2.561841 1_555
Mo0_2 Se1_0 2.561911 1_565
Mo0_3 Se0_3 2.558791 1_555
Mo0_3 Se0_7 2.558797 1_455
Mo0_3 Se0_1 2.558841 1_565
Mo0_3 Se1_7 2.561826 1_455
Mo0_3 Se1_3 2.561841 1_555
Mo0_3 Se1_1 2.561911 1_565
Mo0_4 Se0_4 2.558791 1_555
Mo0_4 Se0_0 2.558797 1_555
Mo0_4 Se0_6 2.558841 1_555
Mo0_4 Se1_0 2.561826 1_555
Mo0_4 Se1_4 2.561841 1_555
Mo0_4 Se1_6 2.561911 1_555
Mo0_5 Se0_5 2.558791 1_555
Mo0_5 Se0_1 2.558797 1_555
Mo0_5 Se0_7 2.558841 1_555
Mo0_5 Se1_1 2.561826 1_555
Mo0_5 Se1_5 2.561841 1_555
Mo0_5 Se1_7 2.561911 1_555
Mo0_6 Se0_6 2.558791 1_555
Mo0_6 Se0_2 2.558797 1_555
Mo0_6 Se0_4 2.558841 1_565
Mo0_6 Se1_2 2.561826 1_555
Mo0_6 Se1_6 2.561841 1_555
Mo0_6 Se1_4 2.561911 1_565
Mo0_7 Se0_7 2.558791 1_555
Mo0_7 Se0_3 2.558797 1_555
Mo0_7 Se0_5 2.558841 1_565
Mo0_7 Se1_3 2.561826 1_555
Mo0_7 Se1_7 2.561841 1_555
Mo0_7 Se1_5 2.561911 1_565
Mo1_0 Te2_2 2.709158 1_545
Mo1_0 Te2_0 2.709183 1_555
Mo1_0 Te2_4 2.709185 1_555
Mo1_0 Te0_0 2.711145 1_555
Mo1_0 Te0_4 2.711145 1_555
Mo1_0 Te0_2 2.711189 1_545
Mo1_1 Te2_3 2.709158 1_545
Mo1_1 Te2_1 2.709183 1_555
Mo1_1 Te2_5 2.709185 1_555
Mo1_1 Te0_1 2.711145 1_555
Mo1_1 Te0_5 2.711145 1_555
Mo1_1 Te0_3 2.711189 1_545
Mo1_2 Te2_0 2.709158 1_555
Mo1_2 Te2_2 2.709183 1_555
Mo1_2 Te2_6 2.709185 1_555
Mo1_2 Te0_2 2.711145 1_555
Mo1_2 Te0_6 2.711145 1_555
Mo1_2 Te0_0 2.711189 1_555
Mo1_3 Te2_1 2.709158 1_555
Mo1_3 Te2_3 2.709183 1_555
Mo1_3 Te2_7 2.709185 1_555
Mo1_3 Te0_3 2.711145 1_555
Mo1_3 Te0_7 2.711145 1_555
Mo1_3 Te0_1 2.711189 1_555
Mo1_4 Te2_6 2.709158 1_545
Mo1_4 Te2_4 2.709183 1_555
Mo1_4 Te2_0 2.709185 1_655
Mo1_4 Te0_4 2.711145 1_555
Mo1_4 Te0_0 2.711145 1_655
Mo1_4 Te0_6 2.711189 1_545
Mo1_5 Te2_7 2.709158 1_545
Mo1_5 Te2_5 2.709183 1_555
Mo1_5 Te2_1 2.709185 1_655
Mo1_5 Te0_5 2.711145 1_555
Mo1_5 Te0_1 2.711145 1_655
Mo1_5 Te0_7 2.711189 1_545
Mo1_6 Te2_4 2.709158 1_555
Mo1_6 Te2_6 2.709183 1_555
Mo1_6 Te2_2 2.709185 1_655
Mo1_6 Te0_6 2.711145 1_555
Mo1_6 Te0_2 2.711145 1_655
Mo1_6 Te0_4 2.711189 1_555
Mo1_7 Te2_5 2.709158 1_555
Mo1_7 Te2_7 2.709183 1_555
Mo1_7 Te2_3 2.709185 1_655
Mo1_7 Te0_7 2.711145 1_555
Mo1_7 Te0_3 2.711145 1_655
Mo1_7 Te0_5 2.711189 1_555
S0_0 W0_2 2.469071 1_545
S0_0 W0_0 2.469346 1_555
S0_0 W0_4 2.469354 1_555
S0_1 W0_3 2.469071 1_545
S0_1 W0_1 2.469346 1_555
S0_1 W0_5 2.469354 1_555
S0_2 W0_0 2.469071 1_555
S0_2 W0_2 2.469346 1_555
S0_2 W0_6 2.469354 1_555
S0_3 W0_1 2.469071 1_555
S0_3 W0_3 2.469346 1_555
S0_3 W0_7 2.469354 1_555
S0_4 W0_6 2.469071 1_545
S0_4 W0_4 2.469346 1_555
S0_4 W0_0 2.469354 1_655
S0_5 W0_7 2.469071 1_545
S0_5 W0_5 2.469346 1_555
S0_5 W0_1 2.469354 1_655
S0_6 W0_4 2.469071 1_555
S0_6 W0_6 2.469346 1_555
S0_6 W0_2 2.469354 1_655
S0_7 W0_5 2.469071 1_555
S0_7 W0_7 2.469346 1_555
S0_7 W0_3 2.469354 1_655
S1_0 W0_2 2.469275 1_545
S1_0 W0_4 2.469633 1_555
S1_0 W0_0 2.469643 1_555
S1_1 W0_3 2.469275 1_545
S1_1 W0_5 2.469633 1_555
S1_1 W0_1 2.469643 1_555
S1_2 W0_0 2.469275 1_555
S1_2 W0_6 2.469633 1_555
S1_2 W0_2 2.469643 1_555
S1_3 W0_1 2.469275 1_555
S1_3 W0_7 2.469633 1_555
S1_3 W0_3 2.469643 1_555
S1_4 W0_6 2.469275 1_545
S1_4 W0_0 2.469633 1_655
S1_4 W0_4 2.469643 1_555
S1_5 W0_7 2.469275 1_545
S1_5 W0_1 2.469633 1_655
S1_5 W0_5 2.469643 1_555
S1_6 W0_4 2.469275 1_555
S1_6 W0_2 2.469633 1_655
S1_6 W0_6 2.469643 1_555
S1_7 W0_5 2.469275 1_555
S1_7 W0_3 2.469633 1_655
S1_7 W0_7 2.469643 1_555
