# generated using pymatgen
data_MgMn4(AgO4)4
_symmetry_space_group_name_H-M   'P 1'
_cell_length_a   5.53144747
_cell_length_b   7.95613562
_cell_length_c   8.39363844
_cell_angle_alpha   86.68168436
_cell_angle_beta   90.32175573
_cell_angle_gamma   96.12764074
_symmetry_Int_Tables_number   1
_chemical_formula_structural   MgMn4(AgO4)4
_chemical_formula_sum   'Mg1 Mn4 Ag4 O16'
_cell_volume   366.66880600
_cell_formula_units_Z   1
loop_
 _symmetry_equiv_pos_site_id
 _symmetry_equiv_pos_as_xyz
  1  'x, y, z'
loop_
 _atom_site_type_symbol
 _atom_site_label
 _atom_site_symmetry_multiplicity
 _atom_site_fract_x
 _atom_site_fract_y
 _atom_site_fract_z
 _atom_site_occupancy
  Mg  Mg0  1  0.71662200  0.45378100  0.21389700  1
  Mn  Mn0  1  0.77706800  0.11448500  0.29318200  1
  Mn  Mn1  1  0.26025800  0.63538500  0.18669000  1
  Mn  Mn2  1  0.73542800  0.36060100  0.81179200  1
  Mn  Mn3  1  0.23164100  0.87929800  0.69394200  1
  Ag  Ag0  1  0.27646600  0.12688600  0.03289100  1
  Ag  Ag1  1  0.70449300  0.70000400  0.50847800  1
  Ag  Ag2  1  0.23834400  0.34175200  0.52562700  1
  Ag  Ag3  1  0.72584700  0.85955800  0.96564500  1
  O  O0  1  0.92477100  0.04331900  0.13918500  1
  O  O1  1  0.52960700  0.21498600  0.22228900  1
  O  O2  1  0.25615200  0.04346500  0.57050600  1
  O  O3  1  0.24998000  0.49510600  0.05354500  1
  O  O4  1  0.74381000  0.48565200  0.96337600  1
  O  O5  1  0.50129400  0.82088800  0.74017100  1
  O  O6  1  0.71876000  0.97766900  0.44418700  1
  O  O7  1  0.07232400  0.72001400  0.61671300  1
  O  O8  1  0.58468800  0.17775500  0.86777200  1
  O  O9  1  0.09359500  0.92729700  0.85859300  1
  O  O10  1  0.40221300  0.82226900  0.12312300  1
  O  O11  1  0.00960100  0.32746700  0.76187400  1
  O  O12  1  0.97232400  0.65377300  0.24574600  1
  O  O13  1  0.59314600  0.44169000  0.65601400  1
  O  O14  1  0.93484200  0.30229200  0.34784000  1
  O  O15  1  0.44464500  0.55609000  0.33661100  1
loop_
_geom_bond_atom_site_label_1
_geom_bond_atom_site_label_2
_geom_bond_distance
_geom_bond_site_symmetry_2
Mg0 O12 2.041649 1_555
Mg0 O1 2.061647 1_555
Mg0 O14 2.076573 1_555
Mg0 O15 2.088708 1_555
Mg0 O4 2.107675 1_554
Mn0 O6 1.632588 1_545
Mn0 O0 1.689451 1_555
Mn0 O14 1.732418 1_555
Mn0 O1 1.742567 1_555
Mn1 O3 1.621100 1_555
Mn1 O10 1.666031 1_555
Mn1 O12 1.694340 1_455
Mn1 O15 1.747237 1_555
Mn2 O11 1.627981 1_655
Mn2 O8 1.642749 1_555
Mn2 O13 1.656650 1_555
Mn2 O4 1.657380 1_555
Mn3 O2 1.613982 1_565
Mn3 O7 1.628830 1_555
Mn3 O5 1.646791 1_555
Mn3 O9 1.665563 1_555
Ag0 O0 2.167318 1_455
Ag0 O8 2.192186 1_554
Ag0 O1 2.207647 1_555
Ag0 O9 2.365286 1_544
Ag0 O10 2.659438 1_545
Ag1 O7 2.217492 1_655
Ag1 O6 2.236736 1_555
Ag1 O15 2.296651 1_555
Ag1 O13 2.362279 1_555
Ag1 O5 2.538158 1_555
Ag1 O12 2.727690 1_555
Ag2 O14 2.248873 1_455
Ag2 O13 2.329189 1_555
Ag2 O11 2.348918 1_555
Ag2 O2 2.393687 1_555
Ag2 O15 2.453371 1_555
Ag3 O10 2.215331 1_556
Ag3 O9 2.228489 1_655
Ag3 O5 2.275661 1_555
Ag3 O0 2.314118 1_566
