# generated using pymatgen
data_MgCu2(PdO2)2
_symmetry_space_group_name_H-M   'P 1'
_cell_length_a   4.73482127
_cell_length_b   5.32312300
_cell_length_c   4.79261836
_cell_angle_alpha   90.00000000
_cell_angle_beta   85.92824426
_cell_angle_gamma   90.00000000
_symmetry_Int_Tables_number   1
_chemical_formula_structural   MgCu2(PdO2)2
_chemical_formula_sum   'Mg1 Cu2 Pd2 O4'
_cell_volume   120.48843210
_cell_formula_units_Z   1
loop_
 _symmetry_equiv_pos_site_id
 _symmetry_equiv_pos_as_xyz
  1  'x, y, z'
loop_
 _atom_site_type_symbol
 _atom_site_label
 _atom_site_symmetry_multiplicity
 _atom_site_fract_x
 _atom_site_fract_y
 _atom_site_fract_z
 _atom_site_occupancy
  Mg  Mg0  1  0.50000000  0.00000000  0.50000000  1
  Cu  Cu0  1  0.00000000  0.00000000  0.50000000  1
  Cu  Cu1  1  0.00000000  0.50000000  0.00000000  1
  Pd  Pd0  1  0.50000000  0.50000000  0.50000000  1
  Pd  Pd1  1  0.50000000  0.00000000  0.00000000  1
  O  O0  1  0.25474200  0.75503100  0.73935800  1
  O  O1  1  0.74525800  0.75503100  0.26064200  1
  O  O2  1  0.74525800  0.24496900  0.26064200  1
  O  O3  1  0.25474200  0.24496900  0.73935800  1
loop_
_geom_bond_atom_site_label_1
_geom_bond_atom_site_label_2
_geom_bond_distance
_geom_bond_site_symmetry_2
Mg0 O1 2.043454 1_545
Mg0 O3 2.043454 1_555
Mg0 O0 2.043454 1_545
Mg0 O2 2.043454 1_555
Mg0 Pd1 2.396309 1_555
Mg0 Pd1 2.396309 1_556
Cu0 O0 2.160482 1_545
Cu0 O3 2.160482 1_555
Cu0 O2 2.160482 1_455
Cu0 O1 2.160482 1_445
Cu1 O3 2.155045 1_554
Cu1 O2 2.155045 1_455
Cu1 O1 2.155045 1_455
Cu1 O0 2.155045 1_554
O0 Pd0 2.078042 1_555
O0 Pd1 2.194384 1_566
O1 Pd0 2.078042 1_555
O1 Pd1 2.194384 1_565
O2 Pd0 2.078042 1_555
O2 Pd1 2.194384 1_555
O3 Pd0 2.078042 1_555
O3 Pd1 2.194384 1_556
