# generated using pymatgen
data_MgV4O8
_symmetry_space_group_name_H-M   'P 1'
_cell_length_a   3.06000500
_cell_length_b   5.14859146
_cell_length_c   9.28898007
_cell_angle_alpha   90.52617276
_cell_angle_beta   90.00000000
_cell_angle_gamma   90.00000000
_symmetry_Int_Tables_number   1
_chemical_formula_structural   MgV4O8
_chemical_formula_sum   'Mg1 V4 O8'
_cell_volume   146.33906816
_cell_formula_units_Z   1
loop_
 _symmetry_equiv_pos_site_id
 _symmetry_equiv_pos_as_xyz
  1  'x, y, z'
loop_
 _atom_site_type_symbol
 _atom_site_label
 _atom_site_symmetry_multiplicity
 _atom_site_fract_x
 _atom_site_fract_y
 _atom_site_fract_z
 _atom_site_occupancy
  Mg  Mg0  1  0.75000000  0.94243700  0.55885600  1
  V  V0  1  0.25000000  0.45737100  0.63963100  1
  V  V1  1  0.74999900  0.53418400  0.34063600  1
  V  V2  1  0.74999900  0.95864200  0.86581800  1
  V  V3  1  0.25000000  0.03858900  0.13633600  1
  O  O0  1  0.25000000  0.72703300  0.47317000  1
  O  O1  1  0.74999900  0.31090300  0.51737000  1
  O  O2  1  0.74999900  0.19251600  0.01526600  1
  O  O3  1  0.25000000  0.80626100  0.97093900  1
  O  O4  1  0.25000000  0.10983900  0.73950900  1
  O  O5  1  0.74999900  0.85928000  0.22593200  1
  O  O6  1  0.25000000  0.33647000  0.25242300  1
  O  O7  1  0.74999900  0.67091700  0.72839800  1
loop_
_geom_bond_atom_site_label_1
_geom_bond_atom_site_label_2
_geom_bond_distance
_geom_bond_site_symmetry_2
Mg0 O1 1.939290 1_565
Mg0 O0 2.046497 1_655
Mg0 O0 2.046497 1_555
Mg0 O7 2.115398 1_555
Mg0 O4 2.423458 1_665
Mg0 O4 2.423458 1_565
O0 V0 2.087564 1_555
O0 V1 2.195432 1_555
O0 V1 2.195436 1_455
O1 V1 2.012787 1_555
O1 V0 2.045388 1_555
O1 V0 2.045392 1_655
O2 V2 1.829306 1_544
O2 V3 2.061577 1_555
O2 V3 2.061581 1_655
O3 V3 1.938422 1_566
O3 V2 1.980902 1_555
O3 V2 1.980906 1_455
O4 V0 2.023075 1_555
O4 V2 2.083327 1_545
O4 V2 2.083331 1_445
O5 V3 1.974826 1_565
O5 V3 1.974830 1_665
O5 V1 1.992378 1_555
O6 V3 1.866697 1_555
O6 V1 2.008290 1_555
O6 V1 2.008295 1_455
O7 V2 1.946582 1_555
O7 V0 2.052548 1_555
O7 V0 2.052553 1_655
