# generated using pymatgen
data_Na14Ca8Si3(S3O16)3
_symmetry_space_group_name_H-M   'P 1'
_cell_length_a   19.03452151
_cell_length_b   9.51374528
_cell_length_c   23.26541050
_cell_angle_alpha   89.92426601
_cell_angle_beta   90.01173191
_cell_angle_gamma   119.98148606
_symmetry_Int_Tables_number   1
_chemical_formula_structural   Na14Ca8Si3(S3O16)3
_chemical_formula_sum   'Na42 Ca24 Si9 S27 O144'
_cell_volume   3649.34889970
_cell_formula_units_Z   3
loop_
 _symmetry_equiv_pos_site_id
 _symmetry_equiv_pos_as_xyz
  1  'x, y, z'
loop_
 _atom_site_type_symbol
 _atom_site_label
 _atom_site_symmetry_multiplicity
 _atom_site_fract_x
 _atom_site_fract_y
 _atom_site_fract_z
 _atom_site_occupancy
  Na  Na0  1  0.80414444  0.99628923  0.25994951  1
  Na  Na1  1  0.18218336  0.36891807  0.26212534  1
  Na  Na2  1  0.68207101  0.33525455  0.25178089  1
  Na  Na3  1  0.99633855  0.62827493  0.23502698  1
  Na  Na4  1  0.51360959  0.66566044  0.24604923  1
  Na  Na5  1  0.30725807  0.61495712  0.75973784  1
  Na  Na6  1  0.00895289  0.35848885  0.74568620  1
  Na  Na7  1  0.51157377  0.35972713  0.73421303  1
  Na  Na8  1  0.18283527  0.02815726  0.75144378  1
  Na  Na9  1  0.67676130  0.01679102  0.76464129  1
  Na  Na10  1  0.14859228  0.32893302  0.58731151  1
  Na  Na11  1  0.63921801  0.32423815  0.59904021  1
  Na  Na12  1  0.34846074  0.00539372  0.58417671  1
  Na  Na13  1  0.82795375  0.95457118  0.57413920  1
  Na  Na14  1  0.14244255  0.95437667  0.08127196  1
  Na  Na15  1  0.64888385  0.96608876  0.07706086  1
  Na  Na16  1  0.33150468  0.70605950  0.06736573  1
  Na  Na17  1  0.84599529  0.68599096  0.07663945  1
  Na  Na18  1  0.48750417  0.69676200  0.91438164  1
  Na  Na19  1  0.97874446  0.65724345  0.92809848  1
  Na  Na20  1  0.35159174  0.00265783  0.91786487  1
  Na  Na21  1  0.82901721  0.02544177  0.90953371  1
  Na  Na22  1  0.17832277  0.33545660  0.89965980  1
  Na  Na23  1  0.66376710  0.27245310  0.90254283  1
  Na  Na24  1  0.48166032  0.30108960  0.43396204  1
  Na  Na25  1  0.98507178  0.28006368  0.42146498  1
  Na  Na26  1  0.16854118  0.05598652  0.42084083  1
  Na  Na27  1  0.67775340  0.02405523  0.40638870  1
  Na  Na28  1  0.33436581  0.63794496  0.41800286  1
  Na  Na29  1  0.84509073  0.69533089  0.42603500  1
  Na  Na30  1  0.99847196  0.00719095  0.49245164  1
  Na  Na31  1  0.50152408  0.00221254  0.51340155  1
  Na  Na32  1  0.99681493  0.98909040  0.00658276  1
  Na  Na33  1  0.50176301  0.99468524  0.98513879  1
  Na  Na34  1  0.32680334  0.35904314  0.83014013  1
  Na  Na35  1  0.80864809  0.31652017  0.83097252  1
  Na  Na36  1  0.32499345  0.32621737  0.34146821  1
  Na  Na37  1  0.82067435  0.28703599  0.33379867  1
  Na  Na38  1  0.15268962  0.65846250  0.15606183  1
  Na  Na39  1  0.66091362  0.67617459  0.16914144  1
  Na  Na40  1  0.16145272  0.64864944  0.67274639  1
  Na  Na41  1  0.65195443  0.62000318  0.66768249  1
  Ca  Ca0  1  0.99947994  0.00471862  0.35068412  1
  Ca  Ca1  1  0.50282970  0.00109906  0.34308663  1
  Ca  Ca2  1  0.00279434  0.00433394  0.84270407  1
  Ca  Ca3  1  0.50357205  0.00175920  0.84733964  1
  Ca  Ca4  1  0.00120627  0.99505256  0.65333237  1
  Ca  Ca5  1  0.50333375  0.00706961  0.65392657  1
  Ca  Ca6  1  0.99875660  0.00072690  0.15014498  1
  Ca  Ca7  1  0.50176466  0.00692863  0.15260711  1
  Ca  Ca8  1  0.33897095  0.33925111  0.67797709  1
  Ca  Ca9  1  0.83041663  0.34513345  0.68496292  1
  Ca  Ca10  1  0.33595968  0.32579939  0.18258682  1
  Ca  Ca11  1  0.83678352  0.33509729  0.17696216  1
  Ca  Ca12  1  0.33538191  0.33709490  0.98448506  1
  Ca  Ca13  1  0.83513501  0.33353320  0.98859481  1
  Ca  Ca14  1  0.33620484  0.33897379  0.49083519  1
  Ca  Ca15  1  0.83520586  0.33459758  0.48571226  1
  Ca  Ca16  1  0.16219645  0.65494403  0.01535177  1
  Ca  Ca17  1  0.66315763  0.66571114  0.01245616  1
  Ca  Ca18  1  0.16266953  0.65640442  0.51368233  1
  Ca  Ca19  1  0.66185563  0.66617510  0.51726309  1
  Ca  Ca20  1  0.16965940  0.66459849  0.31992452  1
  Ca  Ca21  1  0.66958210  0.67976949  0.32033982  1
  Ca  Ca22  1  0.16852161  0.65846114  0.82012216  1
  Ca  Ca23  1  0.66999790  0.66935896  0.81699340  1
  Si  Si0  1  0.65499282  0.00044371  0.24775304  1
  Si  Si1  1  0.15527794  0.30995509  0.74749388  1
  Si  Si2  1  0.65454771  0.31121150  0.75090938  1
  Si  Si3  1  0.48885634  0.32736251  0.58119270  1
  Si  Si4  1  0.98954120  0.64936184  0.08411719  1
  Si  Si5  1  0.32044364  0.66446653  0.91968517  1
  Si  Si6  1  0.66904972  0.97683107  0.91920453  1
  Si  Si7  1  0.82062479  0.97720543  0.41858865  1
  Si  Si8  1  0.16947589  0.35921833  0.41559257  1
  S  S0  1  0.15063641  0.00044449  0.25007748  1
  S  S1  1  0.34631241  0.69005911  0.24813593  1
  S  S2  1  0.84850139  0.69539055  0.25057651  1
  S  S3  1  0.00168212  0.30638294  0.25074707  1
  S  S4  1  0.50020974  0.30800063  0.25286855  1
  S  S5  1  0.00282129  0.69475706  0.75286016  1
  S  S6  1  0.49818510  0.69408341  0.75101813  1
  S  S7  1  0.34561985  0.99850974  0.75057938  1
  S  S8  1  0.84859183  0.00542176  0.74802016  1
  S  S9  1  0.98510291  0.32925642  0.58507830  1
  S  S10  1  0.18048582  0.02600629  0.58274179  1
  S  S11  1  0.68496300  0.03537059  0.58289908  1
  S  S12  1  0.32996348  0.64213888  0.58267891  1
  S  S13  1  0.83485851  0.64202856  0.57941428  1
  S  S14  1  0.48478075  0.63957715  0.08609921  1
  S  S15  1  0.33240631  0.02636408  0.08179744  1
  S  S16  1  0.83016412  0.01824401  0.08352946  1
  S  S17  1  0.18566238  0.33373205  0.08624227  1
  S  S18  1  0.68125394  0.33673410  0.08459905  1
  S  S19  1  0.82110767  0.67123563  0.91935713  1
  S  S20  1  0.01312831  0.35745492  0.91490742  1
  S  S21  1  0.51363758  0.36315109  0.91581227  1
  S  S22  1  0.16400009  0.96796310  0.91708607  1
  S  S23  1  0.31888264  0.97016153  0.41739703  1
  S  S24  1  0.66470911  0.36150192  0.41527902  1
  S  S25  1  0.01556395  0.66630170  0.41395083  1
  S  S26  1  0.51240663  0.66705119  0.41362618  1
  O  O0  1  0.11071796  0.01853207  0.30217002  1
  O  O1  1  0.61220367  0.01939589  0.30698796  1
  O  O2  1  0.39289608  0.77130607  0.30108424  1
  O  O3  1  0.89711818  0.77728329  0.30239630  1
  O  O4  1  0.48897229  0.21570889  0.30680640  1
  O  O5  1  0.99552391  0.21697551  0.30442494  1
  O  O6  1  0.11223643  0.20519680  0.80671960  1
  O  O7  1  0.61071749  0.20427230  0.80913046  1
  O  O8  1  0.48838671  0.76760948  0.80475023  1
  O  O9  1  0.99106198  0.76288960  0.80726521  1
  O  O10  1  0.39279788  0.01061844  0.80290910  1
  O  O11  1  0.89472812  0.01286771  0.80119118  1
  O  O12  1  0.38428868  0.97462352  0.69897240  1
  O  O13  1  0.88947057  0.98659094  0.69669151  1
  O  O14  1  0.10049947  0.21535288  0.69073736  1
  O  O15  1  0.60171047  0.21969502  0.69276723  1
  O  O16  1  0.00743084  0.79710941  0.70355975  1
  O  O17  1  0.50330013  0.79373682  0.70100647  1
  O  O18  1  0.38829216  0.78558475  0.19663669  1
  O  O19  1  0.88775792  0.79681772  0.19894413  1
  O  O20  1  0.01110242  0.22118804  0.20095743  1
  O  O21  1  0.50423225  0.21672367  0.20303886  1
  O  O22  1  0.10170626  0.98567489  0.19813490  1
  O  O23  1  0.59912222  0.98397063  0.19171746  1
  O  O24  1  0.43951371  0.32859374  0.63875937  1
  O  O25  1  0.94335406  0.33889256  0.63698257  1
  O  O26  1  0.22967372  0.10923049  0.63447642  1
  O  O27  1  0.73557648  0.12296051  0.63328892  1
  O  O28  1  0.32089131  0.53807784  0.63273803  1
  O  O29  1  0.83156662  0.53990845  0.62806107  1
  O  O30  1  0.44445162  0.54805915  0.13935021  1
  O  O31  1  0.94504730  0.55503977  0.14401778  1
  O  O32  1  0.32700180  0.11802034  0.13152252  1
  O  O33  1  0.82289505  0.10128175  0.13524285  1
  O  O34  1  0.23392678  0.34624702  0.13841642  1
  O  O35  1  0.72909447  0.35328422  0.13766212  1
  O  O36  1  0.22552427  0.31345465  0.03458208  1
  O  O37  1  0.72354790  0.31836786  0.03388208  1
  O  O38  1  0.43808008  0.55078947  0.03468872  1
  O  O39  1  0.93409732  0.56007638  0.02691679  1
  O  O40  1  0.33942757  0.11478801  0.02759026  1
  O  O41  1  0.83686441  0.11180313  0.03106328  1
  O  O42  1  0.22068558  0.12577134  0.53036896  1
  O  O43  1  0.72289678  0.13267570  0.52965086  1
  O  O44  1  0.33653281  0.56556601  0.52866926  1
  O  O45  1  0.84207182  0.57066877  0.52409852  1
  O  O46  1  0.43702828  0.31193956  0.52215394  1
  O  O47  1  0.94063461  0.32635501  0.53204006  1
  O  O48  1  0.27649959  0.68208703  0.97795836  1
  O  O49  1  0.78420827  0.68589545  0.97404073  1
  O  O50  1  0.06645186  0.44038772  0.96433580  1
  O  O51  1  0.56498559  0.44344007  0.96677854  1
  O  O52  1  0.15576990  0.86816359  0.96849820  1
  O  O53  1  0.66197336  0.87568910  0.97869435  1
  O  O54  1  0.28055103  0.87838741  0.47084883  1
  O  O55  1  0.77505349  0.86548600  0.47499936  1
  O  O56  1  0.15993947  0.45193411  0.47181803  1
  O  O57  1  0.65681353  0.44810479  0.46509863  1
  O  O58  1  0.06866616  0.68887219  0.46352825  1
  O  O59  1  0.56547539  0.68865522  0.46267584  1
  O  O60  1  0.05206404  0.64514658  0.36037859  1
  O  O61  1  0.54853188  0.64697850  0.35957524  1
  O  O62  1  0.26700466  0.88556379  0.36714547  1
  O  O63  1  0.76729826  0.89646350  0.35963623  1
  O  O64  1  0.18016708  0.46389735  0.35617603  1
  O  O65  1  0.67264756  0.45292528  0.36127322  1
  O  O66  1  0.04977124  0.45138762  0.86137563  1
  O  O67  1  0.55103612  0.46030926  0.86360750  1
  O  O68  1  0.17159107  0.88914918  0.86434779  1
  O  O69  1  0.68051322  0.88688091  0.86254091  1
  O  O70  1  0.26363987  0.63820717  0.86276902  1
  O  O71  1  0.76946004  0.65595282  0.87024842  1
  O  O72  1  0.00662470  0.81337607  0.41063127  1
  O  O73  1  0.50094821  0.81159310  0.41080206  1
  O  O74  1  0.40059304  0.98418365  0.41222809  1
  O  O75  1  0.91085774  0.99001999  0.41669205  1
  O  O76  1  0.08914096  0.17494723  0.41469232  1
  O  O77  1  0.59061667  0.19592896  0.41385277  1
  O  O78  1  0.00218474  0.19048806  0.91163100  1
  O  O79  1  0.50314116  0.19675083  0.91243862  1
  O  O80  1  0.08962487  0.98467087  0.91517636  1
  O  O81  1  0.58658936  0.99224872  0.91644393  1
  O  O82  1  0.40958588  0.83177539  0.91601024  1
  O  O83  1  0.90361771  0.82102926  0.91475985  1
  O  O84  1  0.49349872  0.15641009  0.58181002  1
  O  O85  1  0.98884000  0.17455138  0.58436417  1
  O  O86  1  0.09878829  0.01099925  0.58563237  1
  O  O87  1  0.60231834  0.01467042  0.58677620  1
  O  O88  1  0.40194627  0.80689029  0.58689283  1
  O  O89  1  0.90557168  0.81086059  0.58346376  1
  O  O90  1  0.48815793  0.80086047  0.08553450  1
  O  O91  1  0.99765296  0.83408501  0.08334026  1
  O  O92  1  0.40289193  0.99968848  0.08653794  1
  O  O93  1  0.90255808  0.99655625  0.08649020  1
  O  O94  1  0.10342076  0.18733824  0.08956124  1
  O  O95  1  0.59958995  0.18908685  0.08705696  1
  O  O96  1  0.33993589  0.14922901  0.74662590  1
  O  O97  1  0.84957543  0.16393875  0.74538906  1
  O  O98  1  0.24717327  0.33051906  0.74665883  1
  O  O99  1  0.74252825  0.31446714  0.74993568  1
  O  O100  1  0.42532873  0.52772858  0.74738103  1
  O  O101  1  0.93640352  0.52416319  0.74685144  1
  O  O102  1  0.34012151  0.52533643  0.24655950  1
  O  O103  1  0.84261015  0.53299493  0.24659808  1
  O  O104  1  0.43197093  0.34319463  0.24804022  1
  O  O105  1  0.92711061  0.32001750  0.24660438  1
  O  O106  1  0.23220858  0.15102479  0.24679414  1
  O  O107  1  0.74708086  0.16417102  0.24668435  1
  O  O108  1  0.33203894  0.50229088  0.91983884  1
  O  O109  1  0.83143293  0.52536122  0.92029433  1
  O  O110  1  0.43110178  0.34392206  0.92205058  1
  O  O111  1  0.93208172  0.34428186  0.92149404  1
  O  O112  1  0.23782401  0.13237487  0.92096690  1
  O  O113  1  0.75110166  0.16238432  0.91916884  1
  O  O114  1  0.32858768  0.13645195  0.41899914  1
  O  O115  1  0.83291176  0.16308975  0.42010657  1
  O  O116  1  0.25268268  0.34273643  0.41863135  1
  O  O117  1  0.73894912  0.34518385  0.41962962  1
  O  O118  1  0.43055098  0.51816785  0.41963089  1
  O  O119  1  0.93357179  0.52072612  0.42073403  1
  O  O120  1  0.18118079  0.48517711  0.08327749  1
  O  O121  1  0.67628650  0.48771164  0.08009574  1
  O  O122  1  0.08230645  0.67808099  0.08244597  1
  O  O123  1  0.56916060  0.66671995  0.08526567  1
  O  O124  1  0.25618636  0.86420528  0.08190167  1
  O  O125  1  0.75591887  0.85248670  0.08236832  1
  O  O126  1  0.17549218  0.86545913  0.57887773  1
  O  O127  1  0.68149344  0.87606860  0.58018309  1
  O  O128  1  0.25520629  0.65837497  0.58163197  1
  O  O129  1  0.75879884  0.65124761  0.58035969  1
  O  O130  1  0.06995824  0.47009735  0.58464241  1
  O  O131  1  0.58192605  0.48249179  0.58186794  1
  O  O132  1  0.15682554  0.85072048  0.25299700  1
  O  O133  1  0.66168771  0.83224989  0.24823784  1
  O  O134  1  0.26232360  0.66438872  0.24969596  1
  O  O135  1  0.76472704  0.67088825  0.25431922  1
  O  O136  1  0.07469594  0.47437347  0.25173078  1
  O  O137  1  0.57808960  0.46769879  0.25407941  1
  O  O138  1  0.16169840  0.49078572  0.74821496  1
  O  O139  1  0.65639178  0.48636844  0.75126486  1
  O  O140  1  0.08179102  0.69492680  0.75422099  1
  O  O141  1  0.57302532  0.68137519  0.75271606  1
  O  O142  1  0.26118071  0.85643141  0.75397635  1
  O  O143  1  0.76380583  0.87082076  0.75022503  1
loop_
_geom_bond_atom_site_label_1
_geom_bond_atom_site_label_2
_geom_bond_distance
_geom_bond_site_symmetry_2
Na0 O107 2.357635 1_565
Na0 O133 2.373595 1_555
Na0 O63 2.470206 1_555
Na0 O135 2.800635 1_555
Na0 O105 2.802403 1_565
Na0 O33 3.029757 1_565
Na1 O64 2.376091 1_555
Na1 O134 2.454559 1_555
Na1 O102 2.628912 1_555
Na1 O136 2.702171 1_555
Na1 O106 2.702974 1_555
Na2 O107 2.491599 1_555
Na2 O103 2.673114 1_555
Na2 O135 2.766654 1_555
Na2 O35 2.779573 1_555
Na2 O65 2.825423 1_555
Na2 O137 2.828548 1_555
Na2 O1 2.905987 1_555
Na3 O31 2.290210 1_555
Na3 O105 2.558384 1_555
Na3 O136 2.588486 1_655
Na3 O103 2.608676 1_555
Na3 O132 2.743327 1_655
Na4 O133 2.448355 1_555
Na4 O104 2.657759 1_555
Na4 O137 2.719840 1_555
Na4 O61 2.750576 1_555
Na4 O30 2.771455 1_555
Na4 O102 2.877711 1_555
Na4 O23 2.912430 1_555
Na5 O98 2.373247 1_555
Na5 O138 2.423481 1_555
Na5 O70 2.582618 1_555
Na5 O100 2.772569 1_555
Na5 O142 2.842148 1_555
Na6 O138 2.526576 1_555
Na6 O101 2.562737 1_455
Na6 O97 2.648999 1_455
Na6 O25 2.785171 1_455
Na6 O140 2.788014 1_555
Na6 O66 2.819296 1_555
Na6 O14 2.983671 1_555
Na7 O139 2.426733 1_555
Na7 O24 2.548599 1_555
Na7 O141 2.709888 1_555
Na7 O15 2.817231 1_555
Na7 O100 2.822648 1_555
Na7 O96 2.868335 1_555
Na8 O98 2.503061 1_555
Na8 O96 2.615098 1_555
Na8 O142 2.707623 1_545
Na8 O140 2.767568 1_545
Na8 O26 2.846645 1_555
Na8 O68 2.898758 1_545
Na8 O6 2.926626 1_555
Na9 O99 2.481700 1_555
Na9 O69 2.607899 1_545
Na9 O143 2.662195 1_545
Na9 O141 2.804182 1_545
Na9 O7 2.842444 1_555
Na9 O97 2.894366 1_555
Na10 O130 2.461010 1_555
Na10 O14 2.607883 1_555
Na10 O85 2.635325 1_455
Na10 O86 2.680250 1_555
Na10 O128 2.757032 1_555
Na10 O56 2.894015 1_555
Na11 O131 2.292343 1_555
Na11 O15 2.353541 1_555
Na11 O84 2.445094 1_555
Na11 O87 2.680178 1_555
Na11 O129 2.822784 1_555
Na12 O84 2.392593 1_555
Na12 O88 2.555026 1_545
Na12 O12 2.807222 1_545
Na12 O128 2.863108 1_545
Na12 O126 2.871736 1_545
Na12 O46 2.916451 1_555
Na12 O54 2.920388 1_545
Na12 O24 2.958770 1_555
Na13 O89 2.473269 1_555
Na13 O55 2.490700 1_555
Na13 O127 2.503671 1_555
Na13 O129 2.506729 1_555
Na13 O85 2.722191 1_565
Na14 O122 2.283246 1_555
Na14 O91 2.399000 1_455
Na14 O94 2.673483 1_565
Na14 O124 2.698125 1_555
Na14 O52 2.799100 1_554
Na14 O22 2.883727 1_555
Na15 O123 2.475905 1_555
Na15 O53 2.501748 1_554
Na15 O90 2.657526 1_555
Na15 O95 2.725128 1_565
Na15 O125 2.744891 1_555
Na15 O23 2.864459 1_555
Na16 O48 2.288392 1_554
Na16 O92 2.461371 1_555
Na16 O124 2.567247 1_555
Na16 O120 2.594061 1_555
Na16 O90 2.682542 1_555
Na17 O91 2.505609 1_555
Na17 O93 2.600760 1_555
Na17 O49 2.660591 1_554
Na17 O39 2.756396 1_555
Na17 O121 2.812364 1_555
Na17 O125 2.860337 1_555
Na17 O19 3.001606 1_555
Na18 O82 2.398995 1_555
Na18 O81 2.482638 1_555
Na18 O108 2.593009 1_555
Na18 O8 2.635225 1_555
Na19 O109 2.440053 1_555
Na19 O39 2.464228 1_556
Na19 O83 2.606682 1_555
Na19 O111 2.652491 1_555
Na19 O80 2.770449 1_655
Na19 O9 2.953896 1_555
Na20 O82 2.378502 1_545
Na20 O79 2.534332 1_555
Na20 O10 2.777551 1_555
Na20 O110 2.816184 1_555
Na20 O40 2.821834 1_556
Na20 O112 2.981427 1_555
Na20 O48 2.988628 1_545
Na21 O113 2.424710 1_555
Na21 O111 2.679898 1_555
Na21 O69 2.683595 1_545
Na21 O11 2.843233 1_555
Na21 O78 2.856569 1_655
Na21 O83 2.927858 1_545
Na21 O41 2.928323 1_556
Na22 O6 2.498317 1_555
Na22 O108 2.580810 1_555
Na22 O70 2.643700 1_555
Na22 O112 2.728660 1_555
Na22 O80 2.912737 1_545
Na22 O78 2.932284 1_555
Na23 O81 2.335183 1_545
Na23 O7 2.347707 1_555
Na23 O113 2.397526 1_555
Na23 O79 2.778258 1_555
Na23 O109 2.910779 1_555
Na24 O46 2.243051 1_555
Na24 O114 2.550262 1_555
Na24 O74 2.660970 1_545
Na24 O118 2.707178 1_555
Na24 O77 2.756158 1_555
Na25 O75 2.393129 1_545
Na25 O115 2.531138 1_555
Na25 O76 2.632369 1_655
Na25 O47 2.811357 1_555
Na25 O5 2.817509 1_555
Na25 O119 2.906301 1_555
Na26 O76 2.300983 1_555
Na26 O116 2.375488 1_555
Na26 O42 2.695214 1_555
Na26 O114 2.745476 1_555
Na26 O72 2.788207 1_545
Na26 O0 2.927536 1_555
Na27 O115 2.582682 1_555
Na27 O1 2.617378 1_555
Na27 O117 2.689089 1_555
Na27 O63 2.762937 1_545
Na27 O77 2.857679 1_555
Na27 O73 2.936503 1_545
Na27 O43 3.024825 1_555
Na28 O116 2.437444 1_555
Na28 O118 2.595557 1_555
Na28 O44 2.669943 1_555
Na28 O73 2.752359 1_555
Na28 O74 2.882108 1_555
Na28 O64 2.927955 1_555
Na28 O2 2.971468 1_555
Na29 O75 2.442400 1_555
Na29 O45 2.557319 1_555
Na29 O72 2.718794 1_655
Na29 O55 2.803189 1_555
Na29 O119 2.899634 1_555
Na29 O117 2.911311 1_555
Na29 O3 3.014373 1_555
Na30 O75 2.375258 1_545
Na30 O76 2.457504 1_655
Na30 O72 2.709813 1_645
Na30 O85 2.728074 1_555
Na30 O89 2.790928 1_545
Na30 O86 2.876892 1_655
Na31 O84 2.222317 1_555
Na31 O87 2.526074 1_555
Na31 O88 2.538082 1_545
Na31 O77 2.916016 1_555
Na31 O74 2.988441 1_545
Na31 O73 2.996389 1_545
Na32 O91 2.319599 1_555
Na32 O93 2.609447 1_555
Na32 O83 2.727611 1_554
Na32 O94 2.754052 1_665
Na32 O80 2.778685 1_654
Na32 O78 2.890491 1_664
Na33 O81 2.280442 1_555
Na33 O82 2.314050 1_555
Na33 O79 2.549150 1_565
Na33 O90 2.904257 1_556
Na33 O95 3.013008 1_566
Na33 O92 3.033318 1_556
Na34 O98 2.394241 1_555
Na34 O108 2.468596 1_555
Na34 O100 2.604827 1_555
Na34 O112 2.885009 1_555
Na34 O96 2.886406 1_555
Na34 O110 2.969403 1_555
Na35 O99 2.261300 1_555
Na35 O113 2.438890 1_555
Na35 O109 2.757458 1_555
Na35 O97 2.795928 1_555
Na35 O101 2.972671 1_555
Na36 O116 2.315164 1_555
Na36 O114 2.575367 1_555
Na36 O118 2.649330 1_555
Na36 O106 2.795509 1_555
Na36 O102 2.826875 1_555
Na36 O104 2.927346 1_555
Na37 O115 2.396840 1_555
Na37 O107 2.409344 1_555
Na37 O117 2.752777 1_555
Na37 O105 2.771804 1_555
Na37 O103 2.962611 1_555
Na37 O119 2.981082 1_555
Na38 O122 2.238557 1_555
Na38 O120 2.603985 1_555
Na38 O124 2.612994 1_555
Na38 O136 2.760039 1_555
Na38 O132 2.881803 1_555
Na38 O134 2.997415 1_555
Na39 O133 2.361514 1_555
Na39 O123 2.590040 1_555
Na39 O125 2.668400 1_555
Na39 O137 2.681433 1_555
Na39 O135 2.816351 1_555
Na39 O121 2.850744 1_555
Na40 O138 2.310531 1_555
Na40 O140 2.599374 1_555
Na40 O130 2.677908 1_555
Na40 O142 2.709369 1_555
Na40 O128 2.742775 1_555
Na40 O126 2.921103 1_555
Na41 O139 2.346404 1_555
Na41 O131 2.395265 1_555
Na41 O141 2.718983 1_555
Na41 O129 2.783475 1_555
Na41 O143 2.974499 1_555
Na41 O127 3.002235 1_555
Ca0 O75 2.233436 1_545
Ca0 O76 2.235189 1_655
Ca0 O5 2.321199 1_555
Ca0 O0 2.344556 1_655
Ca0 O72 2.349065 1_645
Ca0 O3 2.352077 1_545
Ca1 O1 2.169796 1_555
Ca1 O4 2.341869 1_555
Ca1 O2 2.354941 1_545
Ca1 O73 2.379438 1_545
Ca1 O77 2.418662 1_555
Ca1 O74 2.467412 1_545
Ca2 O6 2.170284 1_555
Ca2 O11 2.310082 1_455
Ca2 O9 2.344847 1_445
Ca2 O78 2.395055 1_555
Ca2 O80 2.432412 1_545
Ca2 O83 2.473575 1_445
Ca3 O7 2.175022 1_555
Ca3 O81 2.287247 1_545
Ca3 O8 2.321621 1_545
Ca3 O82 2.339032 1_545
Ca3 O10 2.387056 1_555
Ca3 O79 2.399579 1_555
Ca4 O14 2.183412 1_565
Ca4 O16 2.267833 1_555
Ca4 O13 2.318851 1_455
Ca4 O86 2.381768 1_565
Ca4 O89 2.417636 1_455
Ca4 O85 2.437349 1_465
Ca5 O15 2.152521 1_555
Ca5 O84 2.264545 1_555
Ca5 O17 2.304741 1_545
Ca5 O12 2.372605 1_545
Ca5 O87 2.420870 1_555
Ca5 O88 2.473238 1_545
Ca6 O91 2.214220 1_545
Ca6 O20 2.316403 1_655
Ca6 O22 2.320830 1_645
Ca6 O19 2.327023 1_545
Ca6 O93 2.339686 1_545
Ca6 O94 2.359492 1_655
Ca7 O23 2.170980 1_545
Ca7 O21 2.296761 1_555
Ca7 O95 2.359105 1_555
Ca7 O18 2.366078 1_545
Ca7 O92 2.403943 1_545
Ca7 O90 2.417867 1_545
Ca8 O24 2.168004 1_555
Ca8 O28 2.334414 1_555
Ca8 O98 2.338605 1_555
Ca8 O100 2.363328 1_555
Ca8 O26 2.365621 1_555
Ca8 O96 2.417636 1_555
Ca9 O99 2.163519 1_555
Ca9 O29 2.267110 1_555
Ca9 O27 2.316066 1_555
Ca9 O101 2.369654 1_555
Ca9 O97 2.388028 1_555
Ca9 O25 2.449406 1_555
Ca10 O32 2.239938 1_555
Ca10 O34 2.289560 1_555
Ca10 O30 2.319196 1_555
Ca10 O104 2.320220 1_555
Ca10 O106 2.368345 1_555
Ca10 O102 2.383757 1_555
Ca11 O31 2.213451 1_555
Ca11 O33 2.319070 1_555
Ca11 O107 2.325972 1_555
Ca11 O35 2.328292 1_555
Ca11 O105 2.417992 1_555
Ca11 O103 2.445626 1_555
Ca12 O108 2.197685 1_555
Ca12 O36 2.304767 1_556
Ca12 O110 2.305719 1_555
Ca12 O38 2.313467 1_556
Ca12 O40 2.375268 1_556
Ca12 O112 2.411905 1_555
Ca13 O39 2.221535 1_556
Ca13 O113 2.285081 1_555
Ca13 O37 2.310106 1_556
Ca13 O41 2.343313 1_556
Ca13 O111 2.380124 1_555
Ca13 O109 2.445703 1_555
Ca14 O46 2.184574 1_555
Ca14 O42 2.309435 1_555
Ca14 O116 2.325142 1_555
Ca14 O44 2.326718 1_555
Ca14 O118 2.410314 1_555
Ca14 O114 2.501159 1_555
Ca15 O115 2.220217 1_555
Ca15 O43 2.279616 1_555
Ca15 O47 2.313274 1_555
Ca15 O45 2.360237 1_555
Ca15 O119 2.367941 1_555
Ca15 O117 2.431808 1_555
Ca16 O48 2.235149 1_554
Ca16 O122 2.265821 1_555
Ca16 O50 2.276899 1_554
Ca16 O52 2.358006 1_554
Ca16 O120 2.411001 1_555
Ca16 O124 2.451275 1_555
Ca17 O53 2.156167 1_554
Ca17 O51 2.269077 1_554
Ca17 O49 2.388076 1_554
Ca17 O125 2.406541 1_555
Ca17 O121 2.412957 1_555
Ca17 O123 2.467626 1_555
Ca18 O56 2.153932 1_555
Ca18 O58 2.282362 1_555
Ca18 O128 2.359653 1_555
Ca18 O54 2.397331 1_555
Ca18 O126 2.416320 1_555
Ca18 O130 2.418410 1_555
Ca19 O131 2.228114 1_555
Ca19 O55 2.262199 1_555
Ca19 O59 2.326945 1_555
Ca19 O127 2.351937 1_555
Ca19 O57 2.365152 1_555
Ca19 O129 2.416684 1_555
Ca20 O64 2.185081 1_555
Ca20 O62 2.274153 1_555
Ca20 O60 2.348782 1_555
Ca20 O134 2.405283 1_555
Ca20 O136 2.407631 1_555
Ca20 O132 2.458564 1_555
Ca21 O63 2.171958 1_555
Ca21 O133 2.269860 1_555
Ca21 O61 2.349746 1_555
Ca21 O65 2.385016 1_555
Ca21 O135 2.408465 1_555
Ca21 O137 2.444467 1_555
Ca22 O70 2.155700 1_555
Ca22 O138 2.271621 1_555
Ca22 O66 2.335988 1_555
Ca22 O142 2.387414 1_555
Ca22 O68 2.399299 1_555
Ca22 O140 2.401347 1_555
Ca23 O139 2.234414 1_555
Ca23 O69 2.244401 1_555
Ca23 O71 2.318534 1_555
Ca23 O67 2.398620 1_555
Ca23 O143 2.418212 1_555
Ca23 O141 2.421940 1_555
O0 S0 1.485729 1_555
O1 Si0 1.656197 1_555
O2 S1 1.489383 1_555
O3 S2 1.482669 1_555
O4 S4 1.483555 1_555
O5 S3 1.481370 1_655
O6 Si1 1.656476 1_555
O7 Si2 1.647541 1_555
O8 S6 1.489847 1_555
O9 S5 1.489862 1_655
O10 S7 1.482722 1_545
O11 S8 1.498037 1_555
O12 S7 1.484329 1_555
O13 S8 1.484549 1_565
O14 Si1 1.644845 1_555
O15 Si2 1.651286 1_555
O16 S5 1.477562 1_555
O17 S6 1.472085 1_555
O18 S1 1.473677 1_555
O19 S2 1.486321 1_555
O20 S3 1.476061 1_555
O21 S4 1.474144 1_555
O22 S0 1.488879 1_565
O23 Si0 1.639676 1_565
O24 Si3 1.639380 1_555
O25 S9 1.473647 1_555
O26 S10 1.487744 1_555
O27 S11 1.482123 1_555
O28 S12 1.480713 1_555
O29 S13 1.471410 1_555
O30 S14 1.487209 1_555
O31 Si4 1.643864 1_555
O32 S15 1.483807 1_555
O33 S16 1.484116 1_555
O34 S17 1.490708 1_555
O35 S18 1.494942 1_555
O36 S17 1.484841 1_555
O37 S18 1.487426 1_555
O38 S14 1.478550 1_555
O39 Si4 1.647049 1_555
O40 S15 1.483561 1_555
O41 S16 1.477245 1_555
O42 S10 1.497504 1_555
O43 S11 1.497449 1_555
O44 S12 1.489565 1_555
O45 S13 1.493829 1_555
O46 Si3 1.654307 1_555
O47 S9 1.488681 1_555
O48 Si5 1.645303 1_555
O49 S19 1.493348 1_555
O50 S20 1.475365 1_555
O51 S21 1.483413 1_555
O52 S22 1.484978 1_555
O53 Si6 1.651264 1_555
O54 S23 1.483907 1_555
O55 Si7 1.637039 1_555
O56 Si8 1.638696 1_555
O57 S24 1.473510 1_555
O58 S25 1.476974 1_555
O59 S26 1.468849 1_555
O60 S25 1.489105 1_555
O61 S26 1.490932 1_555
O62 S23 1.482370 1_555
O63 Si7 1.650598 1_555
O64 Si8 1.654698 1_555
O65 S24 1.491272 1_555
O66 S20 1.486832 1_555
O67 S21 1.475151 1_555
O68 S22 1.483024 1_555
O69 Si6 1.645475 1_555
O70 Si5 1.647800 1_555
O71 S19 1.466325 1_555
O72 S25 1.493458 1_555
O73 S26 1.497463 1_555
O74 S23 1.497979 1_555
O75 Si7 1.660572 1_555
O76 Si8 1.653157 1_555
O77 S24 1.500404 1_555
O78 S20 1.497358 1_555
O79 S21 1.495479 1_555
O80 S22 1.502098 1_555
O81 Si6 1.649029 1_555
O82 Si5 1.649357 1_555
O83 S19 1.507211 1_555
O84 Si3 1.672351 1_555
O85 S9 1.508743 1_555
O86 S10 1.490396 1_555
O87 S11 1.487264 1_555
O88 S12 1.482451 1_555
O89 S13 1.496703 1_555
O90 S14 1.503356 1_555
O91 Si4 1.685637 1_555
O92 S15 1.488889 1_565
O93 S16 1.493401 1_565
O94 S17 1.488967 1_555
O95 S18 1.486682 1_555
O96 S7 1.493635 1_545
O97 S8 1.499990 1_555
O98 Si1 1.660205 1_555
O99 Si2 1.659565 1_555
O100 S6 1.497287 1_555
O101 S5 1.483831 1_655
O102 S1 1.512187 1_555
O103 S2 1.495111 1_555
O104 S4 1.498784 1_555
O105 S3 1.491589 1_655
O106 S0 1.498538 1_555
O107 Si0 1.664485 1_555
O108 Si5 1.664208 1_555
O109 S19 1.495876 1_555
O110 S21 1.495141 1_555
O111 S20 1.491937 1_655
O112 S22 1.494307 1_545
O113 Si6 1.673331 1_545
O114 S23 1.498814 1_545
O115 Si7 1.664384 1_545
O116 Si8 1.669175 1_555
O117 S24 1.500141 1_555
O118 S26 1.499103 1_555
O119 S25 1.489298 1_655
O120 S17 1.486789 1_555
O121 S18 1.489425 1_555
O122 Si4 1.646764 1_455
O123 S14 1.494053 1_555
O124 S15 1.499307 1_565
O125 S16 1.502499 1_565
O126 S10 1.485039 1_565
O127 S11 1.485089 1_565
O128 S12 1.506301 1_555
O129 S13 1.493690 1_555
O130 S9 1.497088 1_455
O131 Si3 1.644301 1_555
O132 S0 1.488276 1_565
O133 Si0 1.667516 1_565
O134 S1 1.492162 1_555
O135 S2 1.494383 1_555
O136 S3 1.505481 1_555
O137 S4 1.501923 1_555
O138 Si1 1.662786 1_555
O139 Si2 1.649170 1_555
O140 S5 1.502672 1_555
O141 S6 1.489166 1_555
O142 S7 1.498356 1_555
O143 S8 1.476951 1_565
