# generated using pymatgen
data_Li3Mn2(PO4)3
_symmetry_space_group_name_H-M   'P 1'
_cell_length_a   8.81995309
_cell_length_b   8.81995309
_cell_length_c   11.51569588
_cell_angle_alpha   45.84620984
_cell_angle_beta   45.84620984
_cell_angle_gamma   60.27042644
_symmetry_Int_Tables_number   1
_chemical_formula_structural   Li3Mn2(PO4)3
_chemical_formula_sum   'Li6 Mn4 P6 O24'
_cell_volume   461.04153282
_cell_formula_units_Z   2
loop_
 _symmetry_equiv_pos_site_id
 _symmetry_equiv_pos_as_xyz
  1  'x, y, z'
loop_
 _atom_site_type_symbol
 _atom_site_label
 _atom_site_symmetry_multiplicity
 _atom_site_fract_x
 _atom_site_fract_y
 _atom_site_fract_z
 _atom_site_occupancy
  Li  Li0  1  0.04327400  0.59210700  0.24346000  1
  Li  Li1  1  0.59210700  0.04327400  0.74346000  1
  Li  Li2  1  0.50000000  0.50000000  0.00000000  1
  Li  Li3  1  0.40789300  0.95672600  0.25654000  1
  Li  Li4  1  0.50000000  0.50000000  0.50000000  1
  Li  Li5  1  0.95672600  0.40789300  0.75654000  1
  Mn  Mn0  1  0.80713900  0.78753100  0.06361500  1
  Mn  Mn1  1  0.78753100  0.80713900  0.56361500  1
  Mn  Mn2  1  0.21246900  0.19286100  0.43638500  1
  Mn  Mn3  1  0.19286100  0.21246900  0.93638500  1
  P  P0  1  0.03345000  0.70634800  0.72412000  1
  P  P1  1  0.71625800  0.28374200  0.75000000  1
  P  P2  1  0.70634800  0.03345000  0.22412000  1
  P  P3  1  0.29365200  0.96655000  0.77588000  1
  P  P4  1  0.96655000  0.29365200  0.27588000  1
  P  P5  1  0.28374200  0.71625800  0.25000000  1
  O  O0  1  0.69261300  0.05541700  0.93497900  1
  O  O1  1  0.05541700  0.69261300  0.43497900  1
  O  O2  1  0.83938900  0.68140900  0.75616400  1
  O  O3  1  0.17562100  0.50418800  0.73459800  1
  O  O4  1  0.30738700  0.94458300  0.06502100  1
  O  O5  1  0.94458300  0.30738700  0.56502100  1
  O  O6  1  0.16061100  0.31859100  0.24383600  1
  O  O7  1  0.82437900  0.49581200  0.26540200  1
  O  O8  1  0.82962000  0.10395700  0.47660100  1
  O  O9  1  0.06026800  0.28453500  0.10873100  1
  O  O10  1  0.44158900  0.68781900  0.28174400  1
  O  O11  1  0.31859100  0.16061100  0.74383600  1
  O  O12  1  0.49581200  0.82437900  0.76540200  1
  O  O13  1  0.10395700  0.82962000  0.97660100  1
  O  O14  1  0.31218100  0.55841100  0.21825600  1
  O  O15  1  0.28453500  0.06026800  0.60873100  1
  O  O16  1  0.71546500  0.93973200  0.39126900  1
  O  O17  1  0.68781900  0.44158900  0.78174300  1
  O  O18  1  0.89604300  0.17038000  0.02339900  1
  O  O19  1  0.50418800  0.17562100  0.23459800  1
  O  O20  1  0.68140900  0.83938900  0.25616400  1
  O  O21  1  0.55841100  0.31218100  0.71825600  1
  O  O22  1  0.93973200  0.71546500  0.89126900  1
  O  O23  1  0.17038000  0.89604300  0.52339900  1
loop_
_geom_bond_atom_site_label_1
_geom_bond_atom_site_label_2
_geom_bond_distance
_geom_bond_site_symmetry_2
Li0 O13 1.992603 1_554
Li0 O14 2.063925 1_555
Li0 O6 2.099104 1_555
Li0 O7 2.271622 1_455
Li0 O5 2.344854 1_455
Li1 O8 1.992603 1_555
Li1 O21 2.063925 1_555
Li1 O11 2.099104 1_555
Li1 O12 2.271622 1_545
Li1 O4 2.344854 1_546
Li2 O14 2.117449 1_555
Li2 O17 2.117458 1_554
Li2 O12 2.179741 1_554
Li2 O19 2.179741 1_555
Li2 O6 2.487185 1_555
Li2 O2 2.487185 1_554
Li3 O23 1.992603 1_555
Li3 O10 2.063925 1_555
Li3 O20 2.099104 1_555
Li3 O19 2.271622 1_565
Li3 O0 2.344854 1_564
Li4 O21 2.117449 1_555
Li4 O10 2.117449 1_555
Li4 O3 2.179741 1_555
Li4 O7 2.179741 1_555
Li4 O11 2.487185 1_555
Li4 O20 2.487185 1_555
Li5 O18 1.992603 1_556
Li5 O17 2.063931 1_555
Li5 O2 2.099104 1_555
Li5 O3 2.271622 1_655
Li5 O1 2.344854 1_655
Mn0 O22 1.870105 1_554
Mn0 O0 1.907521 1_564
Mn0 O7 1.953858 1_555
Mn0 O20 1.959524 1_555
Mn0 O13 2.187788 1_654
Mn0 O10 2.435124 1_555
Mn1 O16 1.870105 1_555
Mn1 O1 1.907521 1_655
Mn1 O12 1.953858 1_555
Mn1 O2 1.959524 1_555
Mn1 O8 2.187788 1_565
Mn1 O17 2.435125 1_555
Mn2 O15 1.870105 1_555
Mn2 O5 1.907521 1_455
Mn2 O19 1.953858 1_555
Mn2 O6 1.959524 1_555
Mn2 O23 2.187788 1_545
Mn2 O14 2.435124 1_555
Mn3 O9 1.870105 1_556
Mn3 O4 1.907521 1_546
Mn3 O3 1.953858 1_555
Mn3 O11 1.959524 1_555
Mn3 O18 2.187788 1_456
Mn3 O21 2.435124 1_555
O0 P1 1.567737 1_555
O1 P5 1.567737 1_555
O2 P0 1.579415 1_655
O3 P0 1.568342 1_555
O4 P5 1.567737 1_555
O5 P1 1.567737 1_555
O6 P4 1.579415 1_455
O7 P4 1.568342 1_555
O8 P4 1.525706 1_555
O9 P4 1.525719 1_455
O10 P5 1.539385 1_555
O11 P3 1.579415 1_545
O12 P3 1.568342 1_555
O13 P3 1.525706 1_555
O14 P5 1.539385 1_555
O15 P3 1.525719 1_545
O16 P2 1.525719 1_565
O17 P1 1.539376 1_555
O18 P2 1.525706 1_555
O19 P2 1.568342 1_555
O20 P2 1.579415 1_565
O21 P1 1.539385 1_555
O22 P0 1.525719 1_655
O23 P0 1.525706 1_555
