# generated using pymatgen
data_Na4Hf2(SiO4)3
_symmetry_space_group_name_H-M   'P 1'
_cell_length_a   9.20205782
_cell_length_b   9.20205749
_cell_length_c   23.02128608
_cell_angle_alpha   90.00000000
_cell_angle_beta   90.00000000
_cell_angle_gamma   120.00000118
_symmetry_Int_Tables_number   1
_chemical_formula_structural   Na4Hf2(SiO4)3
_chemical_formula_sum   'Na24 Hf12 Si18 O72'
_cell_volume   1688.22414915
_cell_formula_units_Z   6
loop_
 _symmetry_equiv_pos_site_id
 _symmetry_equiv_pos_as_xyz
  1  'x, y, z'
loop_
 _atom_site_type_symbol
 _atom_site_label
 _atom_site_symmetry_multiplicity
 _atom_site_fract_x
 _atom_site_fract_y
 _atom_site_fract_z
 _atom_site_occupancy
  Na  Na0  1  0.63429676  0.00000000  0.25000000  1
  Na  Na1  1  0.36570324  0.36570324  0.25000000  1
  Na  Na2  1  1.00000000  0.63429676  0.25000000  1
  Na  Na3  1  0.63429676  0.63429676  0.75000000  1
  Na  Na4  1  0.00000000  0.36570324  0.75000000  1
  Na  Na5  1  0.36570324  0.00000000  0.75000000  1
  Na  Na6  1  0.30096376  0.33333300  0.58333300  1
  Na  Na7  1  0.03237024  0.69903624  0.58333300  1
  Na  Na8  1  0.66666700  0.96762976  0.58333300  1
  Na  Na9  1  0.30096376  0.96762976  0.08333300  1
  Na  Na10  1  0.66666700  0.69903624  0.08333300  1
  Na  Na11  1  0.03237024  0.33333300  0.08333300  1
  Na  Na12  1  0.96762976  0.66666700  0.91666700  1
  Na  Na13  1  0.69903624  0.03237024  0.91666700  1
  Na  Na14  1  0.33333300  0.30096376  0.91666700  1
  Na  Na15  1  0.96762976  0.30096376  0.41666700  1
  Na  Na16  1  0.33333300  0.03237024  0.41666700  1
  Na  Na17  1  0.69903624  0.66666700  0.41666700  1
  Na  Na18  1  -0.00000000  0.00000000  0.50000000  1
  Na  Na19  1  -0.00000000  0.00000000  -0.00000000  1
  Na  Na20  1  0.66666700  0.33333300  0.83333300  1
  Na  Na21  1  0.66666700  0.33333300  0.33333300  1
  Na  Na22  1  0.33333300  0.66666700  0.16666700  1
  Na  Na23  1  0.33333300  0.66666700  0.66666700  1
  Hf  Hf0  1  -0.00000000  0.00000000  0.35130378  1
  Hf  Hf1  1  -0.00000000  0.00000000  0.85130378  1
  Hf  Hf2  1  -0.00000000  0.00000000  0.64869622  1
  Hf  Hf3  1  -0.00000000  0.00000000  0.14869622  1
  Hf  Hf4  1  0.66666700  0.33333300  0.68463678  1
  Hf  Hf5  1  0.66666700  0.33333300  0.18463678  1
  Hf  Hf6  1  0.66666700  0.33333300  0.98202922  1
  Hf  Hf7  1  0.66666700  0.33333300  0.48202922  1
  Hf  Hf8  1  0.33333300  0.66666700  0.01797078  1
  Hf  Hf9  1  0.33333300  0.66666700  0.51797078  1
  Hf  Hf10  1  0.33333300  0.66666700  0.31536322  1
  Hf  Hf11  1  0.33333300  0.66666700  0.81536322  1
  Si  Si0  1  0.29195759  0.00000000  0.25000000  1
  Si  Si1  1  0.70804241  0.70804241  0.25000000  1
  Si  Si2  1  0.00000000  0.29195759  0.25000000  1
  Si  Si3  1  0.29195759  0.29195759  0.75000000  1
  Si  Si4  1  1.00000000  0.70804241  0.75000000  1
  Si  Si5  1  0.70804241  0.00000000  0.75000000  1
  Si  Si6  1  0.95862459  0.33333300  0.58333300  1
  Si  Si7  1  0.37470941  0.04137541  0.58333300  1
  Si  Si8  1  0.66666700  0.62529059  0.58333300  1
  Si  Si9  1  0.95862459  0.62529059  0.08333300  1
  Si  Si10  1  0.66666700  0.04137541  0.08333300  1
  Si  Si11  1  0.37470941  0.33333300  0.08333300  1
  Si  Si12  1  0.62529059  0.66666700  0.91666700  1
  Si  Si13  1  0.04137541  0.37470941  0.91666700  1
  Si  Si14  1  0.33333300  0.95862459  0.91666700  1
  Si  Si15  1  0.62529059  0.95862459  0.41666700  1
  Si  Si16  1  0.33333300  0.37470941  0.41666700  1
  Si  Si17  1  0.04137541  0.66666700  0.41666700  1
  O  O0  1  0.20608625  0.03473005  0.30671725  1
  O  O1  1  0.82864380  0.79391375  0.30671725  1
  O  O2  1  0.96526995  0.17135620  0.30671725  1
  O  O3  1  0.20608625  0.17135620  0.80671725  1
  O  O4  1  0.96526995  0.79391375  0.80671725  1
  O  O5  1  0.82864380  0.03473005  0.80671725  1
  O  O6  1  0.79391375  0.96526995  0.69328275  1
  O  O7  1  0.17135620  0.20608625  0.69328275  1
  O  O8  1  0.03473005  0.82864380  0.69328275  1
  O  O9  1  0.79391375  0.82864380  0.19328275  1
  O  O10  1  0.03473005  0.20608625  0.19328275  1
  O  O11  1  0.17135620  0.96526995  0.19328275  1
  O  O12  1  0.87275325  0.36806305  0.64005025  1
  O  O13  1  0.49531080  0.12724675  0.64005025  1
  O  O14  1  0.63193695  0.50468920  0.64005025  1
  O  O15  1  0.87275325  0.50468920  0.14005025  1
  O  O16  1  0.63193695  0.12724675  0.14005025  1
  O  O17  1  0.49531080  0.36806305  0.14005025  1
  O  O18  1  0.46058075  0.29860295  0.02661575  1
  O  O19  1  0.83802320  0.53941925  0.02661575  1
  O  O20  1  0.70139705  0.16197680  0.02661575  1
  O  O21  1  0.46058075  0.16197680  0.52661575  1
  O  O22  1  0.70139705  0.53941925  0.52661575  1
  O  O23  1  0.83802320  0.29860295  0.52661575  1
  O  O24  1  0.53941925  0.70139705  0.97338425  1
  O  O25  1  0.16197680  0.46058075  0.97338425  1
  O  O26  1  0.29860295  0.83802320  0.97338425  1
  O  O27  1  0.53941925  0.83802320  0.47338425  1
  O  O28  1  0.29860295  0.46058075  0.47338425  1
  O  O29  1  0.16197680  0.70139705  0.47338425  1
  O  O30  1  0.12724675  0.63193695  0.35994975  1
  O  O31  1  0.50468920  0.87275325  0.35994975  1
  O  O32  1  0.36806305  0.49531080  0.35994975  1
  O  O33  1  0.12724675  0.49531080  0.85994975  1
  O  O34  1  0.36806305  0.87275325  0.85994975  1
  O  O35  1  0.50468920  0.63193695  0.85994975  1
  O  O36  1  0.02334894  0.83468198  0.40981582  1
  O  O37  1  0.81133304  0.97665106  0.40981582  1
  O  O38  1  0.16531802  0.18866696  0.40981582  1
  O  O39  1  0.02334894  0.18866696  0.90981582  1
  O  O40  1  0.16531802  0.97665106  0.90981582  1
  O  O41  1  0.81133304  0.83468198  0.90981582  1
  O  O42  1  0.97665106  0.16531802  0.59018418  1
  O  O43  1  0.18866696  0.02334894  0.59018418  1
  O  O44  1  0.83468198  0.81133304  0.59018418  1
  O  O45  1  0.97665106  0.81133304  0.09018418  1
  O  O46  1  0.83468198  0.02334894  0.09018418  1
  O  O47  1  0.18866696  0.16531802  0.09018418  1
  O  O48  1  0.69001594  0.16801498  0.74314882  1
  O  O49  1  0.47800004  0.30998406  0.74314882  1
  O  O50  1  0.83198502  0.52199996  0.74314882  1
  O  O51  1  0.69001594  0.52199996  0.24314882  1
  O  O52  1  0.83198502  0.30998406  0.24314882  1
  O  O53  1  0.47800004  0.16801498  0.24314882  1
  O  O54  1  0.64331806  0.49865102  0.92351718  1
  O  O55  1  0.85533396  0.35668194  0.92351718  1
  O  O56  1  0.50134898  0.14466604  0.92351718  1
  O  O57  1  0.64331806  0.14466604  0.42351718  1
  O  O58  1  0.50134898  0.35668194  0.42351718  1
  O  O59  1  0.85533396  0.49865102  0.42351718  1
  O  O60  1  0.35668194  0.50134898  0.07648282  1
  O  O61  1  0.14466604  0.64331806  0.07648282  1
  O  O62  1  0.49865102  0.85533396  0.07648282  1
  O  O63  1  0.35668194  0.85533396  0.57648282  1
  O  O64  1  0.49865102  0.64331806  0.57648282  1
  O  O65  1  0.14466604  0.50134898  0.57648282  1
  O  O66  1  0.30998406  0.83198502  0.25685118  1
  O  O67  1  0.52199996  0.69001594  0.25685118  1
  O  O68  1  0.16801498  0.47800004  0.25685118  1
  O  O69  1  0.30998406  0.47800004  0.75685118  1
  O  O70  1  0.16801498  0.69001594  0.75685118  1
  O  O71  1  0.52199996  0.83198502  0.75685118  1
loop_
_geom_bond_atom_site_label_1
_geom_bond_atom_site_label_2
_geom_bond_distance
_geom_bond_site_symmetry_2
Na0 O67 2.506345 1_545
Na0 O52 2.506346 1_555
Na0 O53 2.589879 1_555
Na0 O66 2.589887 1_545
Na0 O16 2.793542 1_555
Na0 O31 2.793544 1_545
Na0 O9 2.943586 1_545
Na0 O2 2.943586 1_555
Na1 O53 2.506353 1_555
Na1 O68 2.506353 1_555
Na1 O67 2.589887 1_555
Na1 O51 2.589887 1_555
Na1 O32 2.793546 1_555
Na1 O17 2.793546 1_555
Na1 O0 2.943586 1_555
Na1 O10 2.943586 1_555
Na2 O51 2.506345 1_555
Na2 O66 2.506346 1_655
Na2 O68 2.589879 1_655
Na2 O52 2.589887 1_555
Na2 O30 2.793542 1_655
Na2 O15 2.793544 1_555
Na2 O11 2.943586 1_655
Na2 O1 2.943586 1_555
Na3 O71 2.506353 1_555
Na3 O50 2.506353 1_555
Na3 O49 2.589887 1_555
Na3 O69 2.589887 1_555
Na3 O14 2.793546 1_555
Na3 O35 2.793546 1_555
Na3 O6 2.943586 1_555
Na3 O4 2.943586 1_555
Na4 O69 2.506345 1_555
Na4 O48 2.506346 1_455
Na4 O50 2.589879 1_455
Na4 O70 2.589887 1_555
Na4 O12 2.793542 1_455
Na4 O33 2.793544 1_555
Na4 O5 2.943586 1_455
Na4 O7 2.943586 1_555
Na5 O49 2.506345 1_555
Na5 O70 2.506346 1_545
Na5 O71 2.589879 1_545
Na5 O48 2.589887 1_555
Na5 O34 2.793542 1_545
Na5 O13 2.793544 1_555
Na5 O8 2.943586 1_545
Na5 O3 2.943586 1_555
Na6 O43 2.506345 1_555
Na6 O64 2.506350 1_555
Na6 O42 2.589887 1_455
Na6 O65 2.589894 1_555
Na6 O28 2.793527 1_555
Na6 O7 2.793544 1_555
Na6 O21 2.943586 1_555
Na6 O14 2.943586 1_555
Na7 O65 2.506336 1_555
Na7 O44 2.506353 1_455
Na7 O63 2.589878 1_555
Na7 O43 2.589887 1_565
Na7 O29 2.793519 1_555
Na7 O8 2.793546 1_555
Na7 O12 2.943586 1_455
Na7 O22 2.943586 1_455
Na8 O42 2.506346 1_565
Na8 O63 2.506353 1_555
Na8 O64 2.589878 1_555
Na8 O44 2.589879 1_555
Na8 O27 2.793523 1_555
Na8 O6 2.793542 1_555
Na8 O23 2.943586 1_565
Na8 O13 2.943586 1_565
Na9 O62 2.506336 1_555
Na9 O47 2.506353 1_565
Na9 O61 2.589878 1_555
Na9 O45 2.589887 1_455
Na9 O26 2.793519 1_554
Na9 O11 2.793546 1_555
Na9 O18 2.943586 1_565
Na9 O16 2.943586 1_565
Na10 O45 2.506345 1_555
Na10 O60 2.506350 1_555
Na10 O46 2.589887 1_565
Na10 O62 2.589894 1_555
Na10 O24 2.793527 1_554
Na10 O9 2.793544 1_555
Na10 O17 2.943586 1_555
Na10 O19 2.943586 1_555
Na11 O46 2.506346 1_455
Na11 O61 2.506353 1_555
Na11 O60 2.589878 1_555
Na11 O47 2.589879 1_555
Na11 O25 2.793523 1_554
Na11 O10 2.793542 1_555
Na11 O15 2.943586 1_455
Na11 O20 2.943586 1_455
Na12 O40 2.506346 1_655
Na12 O55 2.506353 1_555
Na12 O54 2.589878 1_555
Na12 O41 2.589879 1_555
Na12 O19 2.793523 1_556
Na12 O4 2.793542 1_555
Na12 O26 2.943586 1_655
Na12 O33 2.943586 1_655
Na13 O56 2.506336 1_555
Na13 O41 2.506353 1_545
Na13 O55 2.589878 1_555
Na13 O39 2.589887 1_655
Na13 O20 2.793519 1_556
Na13 O5 2.793546 1_555
Na13 O24 2.943586 1_545
Na13 O34 2.943586 1_545
Na14 O39 2.506345 1_555
Na14 O54 2.506350 1_555
Na14 O40 2.589887 1_545
Na14 O56 2.589894 1_555
Na14 O18 2.793527 1_556
Na14 O3 2.793544 1_555
Na14 O35 2.943586 1_555
Na14 O25 2.943586 1_555
Na15 O59 2.506336 1_555
Na15 O38 2.506353 1_655
Na15 O57 2.589878 1_555
Na15 O37 2.589887 1_545
Na15 O23 2.793519 1_555
Na15 O2 2.793546 1_555
Na15 O30 2.943586 1_655
Na15 O28 2.943586 1_655
Na16 O36 2.506346 1_545
Na16 O57 2.506353 1_555
Na16 O58 2.589878 1_555
Na16 O38 2.589879 1_555
Na16 O21 2.793523 1_555
Na16 O0 2.793542 1_555
Na16 O29 2.943586 1_545
Na16 O31 2.943586 1_545
Na17 O37 2.506345 1_555
Na17 O58 2.506350 1_555
Na17 O36 2.589887 1_655
Na17 O59 2.589894 1_555
Na17 O22 2.793527 1_555
Na17 O1 2.793544 1_555
Na17 O27 2.943586 1_555
Na17 O32 2.943586 1_555
Na18 O44 2.645315 1_445
Na18 O38 2.645315 1_555
Na18 O42 2.645315 1_455
Na18 O36 2.645315 1_545
Na18 O43 2.645315 1_555
Na18 O37 2.645315 1_445
Na19 O39 2.645315 1_554
Na19 O45 2.645315 1_445
Na19 O41 2.645315 1_444
Na19 O47 2.645315 1_555
Na19 O40 2.645315 1_544
Na19 O46 2.645315 1_455
Na20 O50 2.645315 1_555
Na20 O56 2.645315 1_555
Na20 O48 2.645315 1_555
Na20 O54 2.645315 1_555
Na20 O49 2.645315 1_555
Na20 O55 2.645315 1_555
Na21 O57 2.645315 1_555
Na21 O51 2.645315 1_555
Na21 O53 2.645315 1_555
Na21 O59 2.645315 1_555
Na21 O52 2.645315 1_555
Na21 O58 2.645315 1_555
Na22 O68 2.645315 1_555
Na22 O62 2.645315 1_555
Na22 O66 2.645315 1_555
Na22 O60 2.645315 1_555
Na22 O61 2.645315 1_555
Na22 O67 2.645315 1_555
Na23 O69 2.645315 1_555
Na23 O63 2.645315 1_555
Na23 O71 2.645315 1_555
Na23 O65 2.645315 1_555
Na23 O70 2.645315 1_555
Na23 O64 2.645315 1_555
Hf0 O1 2.036183 1_445
Hf0 O2 2.036183 1_455
Hf0 O0 2.036183 1_555
Hf0 O38 2.121730 1_555
Hf0 O36 2.121730 1_545
Hf0 O37 2.121730 1_445
Hf1 O4 2.036183 1_445
Hf1 O3 2.036183 1_555
Hf1 O5 2.036183 1_455
Hf1 O39 2.121730 1_555
Hf1 O41 2.121730 1_445
Hf1 O40 2.121730 1_545
Hf2 O7 2.036183 1_555
Hf2 O8 2.036183 1_545
Hf2 O6 2.036183 1_445
Hf2 O44 2.121730 1_445
Hf2 O42 2.121730 1_455
Hf2 O43 2.121730 1_555
Hf3 O10 2.036183 1_555
Hf3 O9 2.036183 1_445
Hf3 O11 2.036183 1_545
Hf3 O45 2.121730 1_445
Hf3 O47 2.121730 1_555
Hf3 O46 2.121730 1_455
Hf4 O13 2.036183 1_555
Hf4 O14 2.036183 1_555
Hf4 O12 2.036183 1_555
Hf4 O50 2.121730 1_555
Hf4 O48 2.121730 1_555
Hf4 O49 2.121730 1_555
Hf5 O16 2.036183 1_555
Hf5 O15 2.036183 1_555
Hf5 O17 2.036183 1_555
Hf5 O51 2.121730 1_555
Hf5 O53 2.121730 1_555
Hf5 O52 2.121730 1_555
Hf6 O19 2.036183 1_556
Hf6 O20 2.036183 1_556
Hf6 O18 2.036183 1_556
Hf6 O56 2.121730 1_555
Hf6 O54 2.121730 1_555
Hf6 O55 2.121730 1_555
Hf7 O22 2.036183 1_555
Hf7 O21 2.036183 1_555
Hf7 O23 2.036183 1_555
Hf7 O57 2.121730 1_555
Hf7 O59 2.121730 1_555
Hf7 O58 2.121730 1_555
Hf8 O25 2.036183 1_554
Hf8 O26 2.036183 1_554
Hf8 O24 2.036183 1_554
Hf8 O62 2.121730 1_555
Hf8 O60 2.121730 1_555
Hf8 O61 2.121730 1_555
Hf9 O28 2.036183 1_555
Hf9 O27 2.036183 1_555
Hf9 O29 2.036183 1_555
Hf9 O63 2.121730 1_555
Hf9 O65 2.121730 1_555
Hf9 O64 2.121730 1_555
Hf10 O31 2.036183 1_555
Hf10 O32 2.036183 1_555
Hf10 O30 2.036183 1_555
Hf10 O68 2.121730 1_555
Hf10 O66 2.121730 1_555
Hf10 O67 2.121730 1_555
Hf11 O34 2.036183 1_555
Hf11 O33 2.036183 1_555
Hf11 O35 2.036183 1_555
Hf11 O69 2.121730 1_555
Hf11 O71 2.121730 1_555
Hf11 O70 2.121730 1_555
O0 Si0 1.638274 1_555
O1 Si1 1.638274 1_555
O2 Si2 1.638274 1_655
O3 Si3 1.638274 1_555
O4 Si4 1.638274 1_555
O5 Si5 1.638274 1_555
O6 Si5 1.638274 1_565
O7 Si3 1.638274 1_555
O8 Si4 1.638274 1_455
O9 Si1 1.638274 1_555
O10 Si2 1.638274 1_555
O11 Si0 1.638274 1_565
O12 Si6 1.638274 1_555
O13 Si7 1.638274 1_555
O14 Si8 1.638274 1_555
O15 Si9 1.638274 1_555
O16 Si10 1.638274 1_555
O17 Si11 1.638274 1_555
O18 Si11 1.638274 1_555
O19 Si9 1.638274 1_555
O20 Si10 1.638274 1_555
O21 Si7 1.638274 1_555
O22 Si8 1.638274 1_555
O23 Si6 1.638274 1_555
O24 Si12 1.638274 1_555
O25 Si13 1.638274 1_555
O26 Si14 1.638274 1_555
O27 Si15 1.638274 1_555
O28 Si16 1.638274 1_555
O29 Si17 1.638274 1_555
O30 Si17 1.638274 1_555
O31 Si15 1.638274 1_555
O32 Si16 1.638274 1_555
O33 Si13 1.638274 1_555
O34 Si14 1.638274 1_555
O35 Si12 1.638274 1_555
O36 Si17 1.642934 1_555
O37 Si15 1.642943 1_555
O38 Si16 1.642939 1_555
O39 Si13 1.642943 1_555
O40 Si14 1.642934 1_555
O41 Si12 1.642939 1_555
O42 Si6 1.642934 1_555
O43 Si7 1.642943 1_555
O44 Si8 1.642939 1_555
O45 Si9 1.642943 1_555
O46 Si10 1.642934 1_555
O47 Si11 1.642939 1_555
O48 Si5 1.642934 1_555
O49 Si3 1.642943 1_555
O50 Si4 1.642939 1_555
O51 Si1 1.642943 1_555
O52 Si2 1.642934 1_655
O53 Si0 1.642939 1_555
O54 Si12 1.642946 1_555
O55 Si13 1.642928 1_655
O56 Si14 1.642936 1_545
O57 Si15 1.642928 1_545
O58 Si16 1.642946 1_555
O59 Si17 1.642936 1_655
O60 Si11 1.642946 1_555
O61 Si9 1.642928 1_455
O62 Si10 1.642936 1_565
O63 Si7 1.642928 1_565
O64 Si8 1.642946 1_555
O65 Si6 1.642936 1_455
O66 Si0 1.642934 1_565
O67 Si1 1.642943 1_555
O68 Si2 1.642939 1_555
O69 Si3 1.642943 1_555
O70 Si4 1.642934 1_455
O71 Si5 1.642939 1_565
