# generated using pymatgen
data_EuPt2
_symmetry_space_group_name_H-M   'P 1'
_cell_length_a   5.48212353
_cell_length_b   5.48208539
_cell_length_c   5.48223522
_cell_angle_alpha   60.00156683
_cell_angle_beta   60.00247065
_cell_angle_gamma   60.00047383
_symmetry_Int_Tables_number   1
_chemical_formula_structural   EuPt2
_chemical_formula_sum   'Eu2 Pt4'
_cell_volume   116.50701834
_cell_formula_units_Z   2
loop_
 _symmetry_equiv_pos_site_id
 _symmetry_equiv_pos_as_xyz
  1  'x, y, z'
loop_
 _atom_site_type_symbol
 _atom_site_label
 _atom_site_symmetry_multiplicity
 _atom_site_fract_x
 _atom_site_fract_y
 _atom_site_fract_z
 _atom_site_occupancy
  Eu  Eu0  1  0.87499222  0.87500363  0.87500995  1
  Eu  Eu1  1  0.12500778  0.12499637  0.12499005  1
  Pt  Pt0  1  0.50000000  0.50000000  0.50000000  1
  Pt  Pt1  1  0.50000000  0.50000000  0.00000000  1
  Pt  Pt2  1  -0.00000000  0.50000000  0.50000000  1
  Pt  Pt3  1  0.50000000  -0.00000000  0.50000000  1
loop_
_geom_bond_atom_site_label_1
_geom_bond_atom_site_label_2
_geom_bond_distance
_geom_bond_site_symmetry_2
Eu0 Pt1 3.214140 1_566
Eu0 Pt1 3.214183 1_556
Eu0 Pt1 3.214198 1_656
Eu0 Pt3 3.214201 1_565
Eu0 Pt0 3.214203 1_565
Eu0 Pt2 3.214224 1_665
Eu0 Pt2 3.214237 1_655
Eu0 Pt2 3.214239 1_656
Eu0 Pt3 3.214250 1_566
Eu0 Pt3 3.214293 1_665
Eu0 Pt0 3.214295 1_556
Eu0 Pt0 3.214308 1_655
Eu1 Pt1 3.214140 1_545
Eu1 Pt1 3.214183 1_555
Eu1 Pt1 3.214198 1_455
Eu1 Pt3 3.214201 1_555
Eu1 Pt0 3.214203 1_545
Eu1 Pt2 3.214224 1_545
Eu1 Pt2 3.214237 1_555
Eu1 Pt2 3.214239 1_554
Eu1 Pt3 3.214250 1_554
Eu1 Pt3 3.214293 1_455
Eu1 Pt0 3.214295 1_554
Eu1 Pt0 3.214308 1_455
Pt0 Pt3 2.741043 1_555
Pt0 Pt3 2.741043 1_565
Pt0 Pt2 2.741062 1_555
Pt0 Pt2 2.741062 1_655
Pt0 Pt1 2.741118 1_555
Pt0 Pt1 2.741118 1_556
Pt1 Pt3 2.741145 1_564
Pt1 Pt3 2.741145 1_555
Pt1 Pt2 2.741192 1_555
Pt1 Pt2 2.741192 1_654
Pt2 Pt3 2.741072 1_555
Pt2 Pt3 2.741072 1_465
