# generated using pymatgen
data_Li5TlO4
_symmetry_space_group_name_H-M   'P 1'
_cell_length_a   13.17736073
_cell_length_b   13.17736073
_cell_length_c   4.70143152
_cell_angle_alpha   90.00000000
_cell_angle_beta   90.00000000
_cell_angle_gamma   90.00000000
_symmetry_Int_Tables_number   1
_chemical_formula_structural   Li5TlO4
_chemical_formula_sum   'Li40 Tl8 O32'
_cell_volume   816.36990149
_cell_formula_units_Z   8
loop_
 _symmetry_equiv_pos_site_id
 _symmetry_equiv_pos_as_xyz
  1  'x, y, z'
loop_
 _atom_site_type_symbol
 _atom_site_label
 _atom_site_symmetry_multiplicity
 _atom_site_fract_x
 _atom_site_fract_y
 _atom_site_fract_z
 _atom_site_occupancy
  Li  Li0  1  0.87041983  0.12958017  0.50000000  1
  Li  Li1  1  0.62958017  0.62958017  0.00000000  1
  Li  Li2  1  0.37041983  0.37041983  0.00000000  1
  Li  Li3  1  0.12958017  0.87041983  0.50000000  1
  Li  Li4  1  0.62958017  0.37041983  0.00000000  1
  Li  Li5  1  0.87041983  0.87041983  0.50000000  1
  Li  Li6  1  0.12958017  0.12958017  0.50000000  1
  Li  Li7  1  0.37041983  0.62958017  0.00000000  1
  Li  Li8  1  0.89112863  0.36005269  0.56628727  1
  Li  Li9  1  0.10887137  0.63994731  0.56628727  1
  Li  Li10  1  0.13994731  0.39112863  0.06628727  1
  Li  Li11  1  0.86005269  0.60887137  0.06628727  1
  Li  Li12  1  0.36005269  0.89112863  0.43371273  1
  Li  Li13  1  0.39112863  0.13994731  0.93371273  1
  Li  Li14  1  0.60887137  0.86005269  0.93371273  1
  Li  Li15  1  0.63994731  0.10887137  0.43371273  1
  Li  Li16  1  0.60887137  0.13994731  0.93371273  1
  Li  Li17  1  0.39112863  0.86005269  0.93371273  1
  Li  Li18  1  0.36005269  0.10887137  0.43371273  1
  Li  Li19  1  0.76109253  0.23890747  0.00000000  1
  Li  Li20  1  0.13994731  0.60887137  0.06628727  1
  Li  Li21  1  0.10887137  0.36005269  0.56628727  1
  Li  Li22  1  0.89112863  0.63994731  0.56628727  1
  Li  Li23  1  0.86005269  0.39112863  0.06628727  1
  Li  Li24  1  0.50000000  0.50000000  0.50000000  1
  Li  Li25  1  0.00000000  0.00000000  0.00000000  1
  Li  Li26  1  0.50000000  0.50000000  0.00000000  1
  Li  Li27  1  0.00000000  0.00000000  0.50000000  1
  Li  Li28  1  0.50000000  0.00000000  0.90632122  1
  Li  Li29  1  0.50000000  0.00000000  0.40632122  1
  Li  Li30  1  0.00000000  0.50000000  0.59367878  1
  Li  Li31  1  0.00000000  0.50000000  0.09367878  1
  Li  Li32  1  0.26109253  0.73890747  0.50000000  1
  Li  Li33  1  0.23890747  0.23890747  0.00000000  1
  Li  Li34  1  0.76109253  0.76109253  0.00000000  1
  Li  Li35  1  0.73890747  0.26109253  0.50000000  1
  Li  Li36  1  0.23890747  0.76109253  0.00000000  1
  Li  Li37  1  0.26109253  0.26109253  0.50000000  1
  Li  Li38  1  0.73890747  0.73890747  0.50000000  1
  Li  Li39  1  0.63994731  0.89112863  0.43371273  1
  Tl  Tl0  1  0.22680629  0.00000000  0.96102398  1
  Tl  Tl1  1  0.77319371  0.00000000  0.96102398  1
  Tl  Tl2  1  0.50000000  0.72680629  0.46102398  1
  Tl  Tl3  1  0.50000000  0.27319371  0.46102398  1
  Tl  Tl4  1  0.00000000  0.22680629  0.03897602  1
  Tl  Tl5  1  0.72680629  0.50000000  0.53897602  1
  Tl  Tl6  1  0.27319371  0.50000000  0.53897602  1
  Tl  Tl7  1  0.00000000  0.77319371  0.03897602  1
  O  O0  1  0.26020138  0.86413560  0.71890847  1
  O  O1  1  0.73979862  0.13586440  0.71890847  1
  O  O2  1  0.63586440  0.76020138  0.21890847  1
  O  O3  1  0.36413560  0.23979862  0.21890847  1
  O  O4  1  0.86413560  0.26020138  0.28109153  1
  O  O5  1  0.76020138  0.63586440  0.78109153  1
  O  O6  1  0.23979862  0.36413560  0.78109153  1
  O  O7  1  0.13586440  0.73979862  0.28109153  1
  O  O8  1  0.23979862  0.63586440  0.78109153  1
  O  O9  1  0.76020138  0.36413560  0.78109153  1
  O  O10  1  0.86413560  0.73979862  0.28109153  1
  O  O11  1  0.13586440  0.26020138  0.28109153  1
  O  O12  1  0.63586440  0.23979862  0.21890847  1
  O  O13  1  0.73979862  0.86413560  0.71890847  1
  O  O14  1  0.26020138  0.13586440  0.71890847  1
  O  O15  1  0.36413560  0.76020138  0.21890847  1
  O  O16  1  0.11390862  0.00000000  0.27375790  1
  O  O17  1  0.88609138  0.00000000  0.27375790  1
  O  O18  1  0.50000000  0.61390862  0.77375790  1
  O  O19  1  0.50000000  0.38609138  0.77375790  1
  O  O20  1  0.00000000  0.38378341  0.83750564  1
  O  O21  1  0.61390862  0.50000000  0.22624210  1
  O  O22  1  0.38609138  0.50000000  0.22624210  1
  O  O23  1  0.00000000  0.88609138  0.72624210  1
  O  O24  1  0.61621659  0.00000000  0.16249436  1
  O  O25  1  0.38378341  0.00000000  0.16249436  1
  O  O26  1  0.50000000  0.11621659  0.66249436  1
  O  O27  1  0.50000000  0.88378341  0.66249436  1
  O  O28  1  0.00000000  0.61621659  0.83750564  1
  O  O29  1  0.11621659  0.50000000  0.33750564  1
  O  O30  1  0.88378341  0.50000000  0.33750564  1
  O  O31  1  0.00000000  0.11390862  0.72624210  1
loop_
_geom_bond_atom_site_label_1
_geom_bond_atom_site_label_2
_geom_bond_distance
_geom_bond_site_symmetry_2
Li0 O4 2.007175 1_555
Li0 O1 2.007175 1_555
Li0 O31 2.022292 1_655
Li0 O17 2.022292 1_555
Li1 O5 2.007175 1_554
Li1 O2 2.007175 1_555
Li1 O21 2.022292 1_555
Li1 O18 2.022292 1_554
Li2 O3 2.007175 1_555
Li2 O6 2.007175 1_554
Li2 O19 2.022292 1_554
Li2 O22 2.022292 1_555
Li3 O0 2.007175 1_555
Li3 O7 2.007175 1_555
Li3 O23 2.022292 1_555
Li3 O16 2.022292 1_565
Li4 O12 2.007175 1_555
Li4 O9 2.007175 1_554
Li4 O19 2.022292 1_554
Li4 O21 2.022292 1_555
Li5 O10 2.007175 1_555
Li5 O13 2.007175 1_555
Li5 O23 2.022292 1_655
Li5 O17 2.022292 1_565
Li6 O14 2.007175 1_555
Li6 O11 2.007175 1_555
Li6 O31 2.022292 1_555
Li6 O16 2.022292 1_555
Li7 O8 2.007175 1_554
Li7 O15 2.007175 1_555
Li7 O22 2.022292 1_555
Li7 O18 2.022292 1_554
Li8 O4 1.911965 1_555
Li8 O20 1.944708 1_655
Li8 O9 1.999836 1_555
Li8 O30 2.137083 1_555
Li9 O7 1.911965 1_555
Li9 O28 1.944708 1_555
Li9 O8 1.999836 1_555
Li9 O29 2.137083 1_555
Li10 O6 1.911965 1_554
Li10 O29 1.944708 1_555
Li10 O11 1.999836 1_555
Li10 O20 2.137083 1_554
Li11 O5 1.911965 1_554
Li11 O30 1.944708 1_555
Li11 O10 1.999836 1_555
Li11 O28 2.137083 1_654
Li12 O0 1.911965 1_555
Li12 O25 1.944708 1_565
Li12 O15 1.999836 1_555
Li12 O27 2.137083 1_555
Li13 O3 1.911965 1_556
Li13 O26 1.944708 1_555
Li13 O14 1.999836 1_555
Li13 O25 2.137083 1_556
Li14 O2 1.911965 1_556
Li14 O27 1.944708 1_555
Li14 O13 1.999836 1_555
Li14 O24 2.137083 1_566
Li15 O1 1.911965 1_555
Li15 O24 1.944708 1_555
Li15 O12 1.999836 1_555
Li15 O26 2.137083 1_555
Li16 O12 1.911965 1_556
Li16 O26 1.944708 1_555
Li16 O1 1.999836 1_555
Li16 O24 2.137083 1_556
Li17 O15 1.911965 1_556
Li17 O27 1.944708 1_555
Li17 O0 1.999836 1_555
Li17 O25 2.137083 1_566
Li18 O14 1.911965 1_555
Li18 O25 1.944708 1_555
Li18 O3 1.999836 1_555
Li18 O26 2.137083 1_555
Li19 O1 1.915438 1_554
Li19 O4 1.915438 1_555
Li19 O12 1.944849 1_555
Li19 O9 1.944849 1_554
Li20 O8 1.911965 1_554
Li20 O29 1.944708 1_555
Li20 O7 1.999836 1_555
Li20 O28 2.137083 1_554
Li21 O11 1.911965 1_555
Li21 O20 1.944708 1_555
Li21 O6 1.999836 1_555
Li21 O29 2.137083 1_555
Li22 O10 1.911965 1_555
Li22 O28 1.944708 1_655
Li22 O5 1.999836 1_555
Li22 O30 2.137083 1_555
Li23 O9 1.911965 1_554
Li23 O30 1.944708 1_555
Li23 O4 1.999836 1_555
Li23 O20 2.137083 1_654
Li24 O19 1.977259 1_555
Li24 O18 1.977259 1_555
Li24 O22 1.977259 1_555
Li24 O21 1.977259 1_555
Li25 O23 1.977259 1_544
Li25 O16 1.977259 1_555
Li25 O31 1.977259 1_554
Li25 O17 1.977259 1_455
Li26 O18 1.839680 1_554
Li26 O19 1.839680 1_554
Li26 O22 1.839680 1_555
Li26 O21 1.839680 1_555
Li27 O16 1.839680 1_555
Li27 O31 1.839680 1_555
Li27 O17 1.839680 1_455
Li27 O23 1.839680 1_545
Li28 O27 1.912944 1_545
Li28 O26 1.912944 1_555
Li28 O25 1.948282 1_556
Li28 O24 1.948282 1_556
Li29 O25 1.912944 1_555
Li29 O24 1.912944 1_555
Li29 O27 1.948282 1_545
Li29 O26 1.948282 1_555
Li30 O20 1.912944 1_555
Li30 O28 1.912944 1_555
Li30 O30 1.948282 1_455
Li30 O29 1.948282 1_555
Li31 O30 1.912944 1_455
Li31 O29 1.912944 1_555
Li31 O20 1.948282 1_554
Li31 O28 1.948282 1_554
Li32 O8 1.915438 1_555
Li32 O15 1.915438 1_555
Li32 O0 1.944849 1_555
Li32 O7 1.944849 1_555
Li33 O14 1.915438 1_554
Li33 O11 1.915438 1_555
Li33 O3 1.944849 1_555
Li33 O6 1.944849 1_554
Li34 O10 1.915438 1_555
Li34 O13 1.915438 1_554
Li34 O2 1.944849 1_555
Li34 O5 1.944849 1_554
Li35 O9 1.915438 1_555
Li35 O12 1.915438 1_555
Li35 O1 1.944849 1_555
Li35 O4 1.944849 1_555
Li36 O0 1.915438 1_554
Li36 O7 1.915438 1_555
Li36 O15 1.944849 1_555
Li36 O8 1.944849 1_554
Li37 O6 1.915438 1_555
Li37 O3 1.915438 1_555
Li37 O14 1.944849 1_555
Li37 O11 1.944849 1_555
Li38 O2 1.915438 1_555
Li38 O5 1.915438 1_555
Li38 O10 1.944849 1_555
Li38 O13 1.944849 1_555
Li39 O13 1.911965 1_555
Li39 O24 1.944708 1_565
Li39 O2 1.999836 1_555
Li39 O27 2.137083 1_555
O0 Tl0 2.166714 1_565
O1 Tl1 2.166714 1_555
O2 Tl2 2.166714 1_555
O3 Tl3 2.166714 1_555
O4 Tl4 2.166714 1_655
O5 Tl5 2.166714 1_555
O6 Tl6 2.166714 1_555
O7 Tl7 2.166714 1_555
O8 Tl6 2.166714 1_555
O9 Tl5 2.166714 1_555
O10 Tl7 2.166714 1_655
O11 Tl4 2.166714 1_555
O12 Tl3 2.166714 1_555
O13 Tl1 2.166714 1_565
O14 Tl0 2.166714 1_555
O15 Tl2 2.166714 1_555
O16 Tl0 2.091651 1_554
O17 Tl1 2.091651 1_554
O18 Tl2 2.091651 1_555
O19 Tl3 2.091651 1_555
O20 Tl4 2.275096 1_556
O21 Tl5 2.091651 1_555
O22 Tl6 2.091651 1_555
O23 Tl7 2.091651 1_556
O24 Tl1 2.275096 1_554
O25 Tl0 2.275096 1_554
O26 Tl3 2.275096 1_555
O27 Tl2 2.275096 1_555
O28 Tl7 2.275096 1_556
O29 Tl6 2.275096 1_555
O30 Tl5 2.275096 1_555
O31 Tl4 2.091651 1_556
