# generated using pymatgen
data_Rb2MgV2(CuS2)4
_symmetry_space_group_name_H-M   'P 1'
_cell_length_a   5.54874476
_cell_length_b   7.46181100
_cell_length_c   9.96429650
_cell_angle_alpha   90.00000000
_cell_angle_beta   105.82041750
_cell_angle_gamma   90.00000000
_symmetry_Int_Tables_number   1
_chemical_formula_structural   Rb2MgV2(CuS2)4
_chemical_formula_sum   'Rb2 Mg1 V2 Cu4 S8'
_cell_volume   396.93124400
_cell_formula_units_Z   1
loop_
 _symmetry_equiv_pos_site_id
 _symmetry_equiv_pos_as_xyz
  1  'x, y, z'
loop_
 _atom_site_type_symbol
 _atom_site_label
 _atom_site_symmetry_multiplicity
 _atom_site_fract_x
 _atom_site_fract_y
 _atom_site_fract_z
 _atom_site_occupancy
  Rb  Rb0  1  0.57259700  0.75000000  0.38724900  1
  Rb  Rb1  1  0.17445200  0.25000000  0.63700700  1
  Mg  Mg0  1  0.95831500  0.75000000  0.04006700  1
  V  V0  1  0.49433400  0.75000000  0.78063500  1
  V  V1  1  0.70838900  0.25000000  0.21902200  1
  Cu  Cu0  1  0.60734000  0.49111600  0.99862600  1
  Cu  Cu1  1  0.20786300  0.25000000  0.21302600  1
  Cu  Cu2  1  0.98868000  0.75000000  0.77001300  1
  Cu  Cu3  1  0.60734000  0.00888400  0.99862600  1
  S  S0  1  0.94350000  0.00275600  0.20878200  1
  S  S1  1  0.36276600  0.75000000  0.98102100  1
  S  S2  1  0.37869800  0.25000000  0.02514600  1
  S  S3  1  0.74313800  0.50845500  0.79938900  1
  S  S4  1  0.17135400  0.75000000  0.59448700  1
  S  S5  1  0.74313800  0.99154500  0.79938900  1
  S  S6  1  0.56139500  0.25000000  0.40123400  1
  S  S7  1  0.94350000  0.49724400  0.20878200  1
loop_
_geom_bond_atom_site_label_1
_geom_bond_atom_site_label_2
_geom_bond_distance
_geom_bond_site_symmetry_2
Rb0 S4 3.400212 1_655
Rb0 S4 3.424577 1_555
Rb0 S0 3.598675 1_565
Rb0 S7 3.598675 1_555
Rb0 S6 3.734657 1_555
Rb0 S6 3.734657 1_565
Rb1 S6 3.568388 1_455
Rb1 S6 3.588781 1_555
Rb1 S3 3.675673 1_555
Rb1 S5 3.675673 1_545
Rb1 S2 3.721871 1_556
Rb1 S4 3.754396 1_545
Rb1 S4 3.754396 1_555
Rb1 S5 3.765143 1_445
Rb1 S3 3.765143 1_455
Mg0 S1 2.470324 1_654
Mg0 S0 2.542706 1_565
Mg0 S7 2.542706 1_555
Cu0 S2 2.258129 1_556
Cu0 S3 2.311146 1_555
Cu0 S1 2.339715 1_555
Cu0 S7 2.395134 1_556
Cu0 Mg0 2.693755 1_556
Cu1 S6 2.314999 1_555
Cu1 S2 2.317514 1_555
Cu1 S0 2.350175 1_455
Cu1 S7 2.350175 1_455
Cu2 S4 2.247887 1_655
Cu2 S3 2.325491 1_555
Cu2 S5 2.325491 1_555
Cu2 S1 2.519853 1_655
Cu3 S2 2.258129 1_556
Cu3 S5 2.311146 1_545
Cu3 S1 2.339715 1_545
Cu3 S0 2.395134 1_556
Cu3 Mg0 2.693755 1_546
S0 V1 2.277829 1_555
S1 V0 2.305336 1_555
S2 V1 2.269729 1_555
S3 V0 2.246928 1_555
S4 V0 2.199930 1_555
S5 V0 2.246928 1_555
S6 V1 2.183839 1_555
S7 V1 2.277829 1_555
