# generated using pymatgen
data_Cu3TeO6
_symmetry_space_group_name_H-M   'P 1'
_cell_length_a   8.26623563
_cell_length_b   8.26712732
_cell_length_c   8.26713805
_cell_angle_alpha   109.46853187
_cell_angle_beta   109.47524469
_cell_angle_gamma   109.47120572
_symmetry_Int_Tables_number   1
_chemical_formula_structural   Cu3TeO6
_chemical_formula_sum   'Cu12 Te4 O24'
_cell_volume   434.89921845
_cell_formula_units_Z   4
loop_
 _symmetry_equiv_pos_site_id
 _symmetry_equiv_pos_as_xyz
  1  'x, y, z'
loop_
 _atom_site_type_symbol
 _atom_site_label
 _atom_site_symmetry_multiplicity
 _atom_site_fract_x
 _atom_site_fract_y
 _atom_site_fract_z
 _atom_site_occupancy
  Cu  Cu0  1  0.71826694  0.46825612  0.24989165  1
  Cu  Cu1  1  0.74999366  0.78164265  0.03166171  1
  Cu  Cu2  1  0.03167468  0.74999214  0.78167397  1
  Cu  Cu3  1  0.24995405  0.71830525  0.46831666  1
  Cu  Cu4  1  0.46831553  0.24997368  0.71829861  1
  Cu  Cu5  1  0.78170001  0.03164164  0.74997524  1
  Cu  Cu6  1  0.28173616  0.53174163  0.75010631  1
  Cu  Cu7  1  0.25000750  0.21835675  0.96834066  1
  Cu  Cu8  1  0.96831913  0.25000532  0.21832908  1
  Cu  Cu9  1  0.75004330  0.28169689  0.53168408  1
  Cu  Cu10  1  0.53169036  0.75003375  0.28170213  1
  Cu  Cu11  1  0.21829893  0.96835359  0.25002087  1
  Te  Te0  1  0.50000242  0.00000961  0.00000541  1
  Te  Te1  1  -0.00000175  0.00000349  0.50000914  1
  Te  Te2  1  0.00000268  0.50000595  0.00000681  1
  Te  Te3  1  0.49999843  0.50000547  0.50000508  1
  O  O0  1  0.53124403  0.80762038  0.07186241  1
  O  O1  1  0.26423785  0.69231222  0.22358716  1
  O  O2  1  0.96875002  0.04061831  0.27638089  1
  O  O3  1  0.45933789  0.42812824  0.23572569  1
  O  O4  1  0.42809600  0.23573919  0.45931769  1
  O  O5  1  0.07189317  0.53120608  0.80762588  1
  O  O6  1  0.69236966  0.22354509  0.26419562  1
  O  O7  1  0.27645374  0.96870203  0.04069478  1
  O  O8  1  0.80760949  0.07182294  0.53117141  1
  O  O9  1  0.22353537  0.26422726  0.69223770  1
  O  O10  1  0.04067253  0.27639313  0.96879796  1
  O  O11  1  0.23574787  0.45935697  0.42806962  1
  O  O12  1  0.46875707  0.19237629  0.92813718  1
  O  O13  1  0.73576049  0.30768618  0.77640876  1
  O  O14  1  0.03124865  0.95938198  0.72361479  1
  O  O15  1  0.54065890  0.57186694  0.76426651  1
  O  O16  1  0.76425328  0.54064302  0.57193219  1
  O  O17  1  0.95933381  0.72360193  0.03120111  1
  O  O18  1  0.77646186  0.73577154  0.30776321  1
  O  O19  1  0.19239306  0.92817516  0.46882915  1
  O  O20  1  0.72354933  0.03129952  0.95930731  1
  O  O21  1  0.30762663  0.77645062  0.73579574  1
  O  O22  1  0.92810937  0.46879522  0.19236895  1
  O  O23  1  0.57189791  0.76425581  0.54068089  1
loop_
_geom_bond_atom_site_label_1
_geom_bond_atom_site_label_2
_geom_bond_distance
_geom_bond_site_symmetry_2
Cu0 O22 1.944562 1_555
Cu0 O18 1.945093 1_555
Cu0 O3 2.009612 1_555
Cu0 O6 2.010024 1_555
Cu0 O12 2.386008 1_554
Cu0 O16 2.387937 1_555
Cu1 O17 1.944595 1_555
Cu1 O15 1.944706 1_554
Cu1 O0 2.009559 1_555
Cu1 O2 2.009744 1_565
Cu1 O18 2.387698 1_555
Cu1 O20 2.387883 1_564
Cu2 O16 1.944678 1_455
Cu2 O14 1.945179 1_555
Cu2 O7 2.009930 1_556
Cu2 O5 2.009991 1_555
Cu2 O21 2.386337 1_555
Cu2 O17 2.386674 1_456
Cu3 O19 1.945128 1_555
Cu3 O21 1.945219 1_555
Cu3 O11 2.009701 1_555
Cu3 O1 2.009952 1_555
Cu3 O22 2.386404 1_455
Cu3 O23 2.386937 1_555
Cu4 O13 1.944670 1_555
Cu4 O12 1.945175 1_555
Cu4 O9 2.009897 1_555
Cu4 O4 2.009907 1_555
Cu4 O19 2.386215 1_545
Cu4 O15 2.386860 1_555
Cu5 O23 1.944666 1_545
Cu5 O20 1.944996 1_555
Cu5 O10 2.009861 1_655
Cu5 O8 2.009901 1_555
Cu5 O14 2.386235 1_645
Cu5 O13 2.387588 1_555
Cu6 O5 1.944559 1_555
Cu6 O9 1.945080 1_555
Cu6 O15 2.009581 1_555
Cu6 O21 2.010043 1_555
Cu6 O0 2.386009 1_556
Cu6 O11 2.387904 1_555
Cu7 O10 1.944528 1_555
Cu7 O3 1.944645 1_556
Cu7 O12 2.009576 1_555
Cu7 O14 2.009764 1_545
Cu7 O9 2.387702 1_555
Cu7 O7 2.387869 1_546
Cu8 O11 1.944714 1_655
Cu8 O2 1.945131 1_555
Cu8 O20 2.009899 1_554
Cu8 O22 2.010015 1_555
Cu8 O6 2.386265 1_555
Cu8 O10 2.386753 1_654
Cu9 O8 1.945183 1_555
Cu9 O6 1.945281 1_555
Cu9 O16 2.009671 1_555
Cu9 O13 2.009916 1_555
Cu9 O5 2.386410 1_655
Cu9 O4 2.386944 1_555
Cu10 O1 1.944706 1_555
Cu10 O0 1.945128 1_555
Cu10 O18 2.009856 1_555
Cu10 O23 2.009946 1_555
Cu10 O8 2.386167 1_565
Cu10 O3 2.386925 1_555
Cu11 O4 1.944660 1_565
Cu11 O7 1.944978 1_555
Cu11 O17 2.009830 1_455
Cu11 O19 2.009917 1_555
Cu11 O2 2.386257 1_465
Cu11 O1 2.387560 1_555
O0 Te0 1.936659 1_565
O1 Te2 1.936235 1_555
O2 Te1 1.936639 1_655
O3 Te3 1.936843 1_555
O4 Te3 1.936644 1_555
O5 Te2 1.936662 1_556
O6 Te0 1.936136 1_555
O7 Te0 1.936122 1_565
O8 Te1 1.936176 1_655
O9 Te1 1.936109 1_555
O10 Te2 1.936820 1_556
O11 Te3 1.936295 1_555
O12 Te0 1.936538 1_556
O13 Te2 1.936325 1_656
O14 Te1 1.936486 1_565
O15 Te3 1.936716 1_555
O16 Te3 1.936366 1_555
O17 Te2 1.936696 1_655
O18 Te1 1.936162 1_665
O19 Te1 1.936308 1_565
O20 Te0 1.936165 1_556
O21 Te0 1.936291 1_566
O22 Te2 1.936551 1_655
O23 Te3 1.936548 1_555
