# generated using pymatgen
data_TlBi(SO4)2
_symmetry_space_group_name_H-M   'P 1'
_cell_length_a   7.29332235
_cell_length_b   10.74837201
_cell_length_c   10.94525692
_cell_angle_alpha   60.59360033
_cell_angle_beta   68.90825956
_cell_angle_gamma   68.48078744
_symmetry_Int_Tables_number   1
_chemical_formula_structural   TlBi(SO4)2
_chemical_formula_sum   'Tl4 Bi4 S8 O32'
_cell_volume   678.04321119
_cell_formula_units_Z   4
loop_
 _symmetry_equiv_pos_site_id
 _symmetry_equiv_pos_as_xyz
  1  'x, y, z'
loop_
 _atom_site_type_symbol
 _atom_site_label
 _atom_site_symmetry_multiplicity
 _atom_site_fract_x
 _atom_site_fract_y
 _atom_site_fract_z
 _atom_site_occupancy
  Tl  Tl0  1  0.00000000  0.50000000  0.50000000  1
  Tl  Tl1  1  0.00000000  -0.00000000  0.50000000  1
  Tl  Tl2  1  0.00000000  0.50000000  -0.00000000  1
  Tl  Tl3  1  0.00000000  -0.00000000  -0.00000000  1
  Bi  Bi0  1  0.49993705  0.28482075  0.24966314  1
  Bi  Bi1  1  0.50006295  0.71517925  0.75033686  1
  Bi  Bi2  1  0.49970397  0.78446832  0.25013553  1
  Bi  Bi3  1  0.50029603  0.21553168  0.74986447  1
  S  S0  1  0.67746832  0.89426134  0.38652806  1
  S  S1  1  0.32253168  0.10573866  0.61347194  1
  S  S2  1  0.32170805  0.11905541  0.11387185  1
  S  S3  1  0.67829195  0.88094459  0.88612815  1
  S  S4  1  0.67840615  0.39444073  0.38599616  1
  S  S5  1  0.32159385  0.60555927  0.61400384  1
  S  S6  1  0.32099146  0.61950450  0.11372598  1
  S  S7  1  0.67900854  0.38049550  0.88627402  1
  O  O0  1  0.46068503  0.90422616  0.40917211  1
  O  O1  1  0.53931497  0.09577384  0.59082789  1
  O  O2  1  0.46148511  0.40481697  0.40867011  1
  O  O3  1  0.53851489  0.59518303  0.59132989  1
  O  O4  1  0.53802732  0.54483003  0.09074703  1
  O  O5  1  0.46197268  0.45516997  0.90925297  1
  O  O6  1  0.53855074  0.04379448  0.09140348  1
  O  O7  1  0.46144926  0.95620552  0.90859652  1
  O  O8  1  0.26186500  0.21202225  0.97393465  1
  O  O9  1  0.73813500  0.78797775  0.02606535  1
  O  O10  1  0.28025930  0.21315073  0.18815016  1
  O  O11  1  0.71974070  0.78684927  0.81184984  1
  O  O12  1  0.27924898  0.71370299  0.18790733  1
  O  O13  1  0.72075102  0.28629701  0.81209267  1
  O  O14  1  0.72003401  0.54210608  0.31183027  1
  O  O15  1  0.27996599  0.45789392  0.68816973  1
  O  O16  1  0.71871947  0.04203089  0.31238410  1
  O  O17  1  0.28128053  0.95796911  0.68761590  1
  O  O18  1  0.79291043  0.80960732  0.29745205  1
  O  O19  1  0.20708957  0.19039268  0.70254795  1
  O  O20  1  0.20633283  0.00268878  0.20286868  1
  O  O21  1  0.79366717  -0.00268878  0.79713132  1
  O  O22  1  0.79337997  0.30980710  0.29680487  1
  O  O23  1  0.20662003  0.69019290  0.70319513  1
  O  O24  1  0.73862238  0.31743878  0.52585197  1
  O  O25  1  0.26137762  0.68256122  0.47414803  1
  O  O26  1  0.73756936  0.81747841  0.52642888  1
  O  O27  1  0.26243064  0.18252159  0.47357112  1
  O  O28  1  0.73957390  0.28780249  0.02602448  1
  O  O29  1  0.26042610  0.71219751  0.97397552  1
  O  O30  1  0.20630128  0.50272854  0.20295787  1
  O  O31  1  0.79369872  0.49727146  0.79704213  1
loop_
_geom_bond_atom_site_label_1
_geom_bond_atom_site_label_2
_geom_bond_distance
_geom_bond_site_symmetry_2
Bi0 O16 2.408672 1_555
Bi0 O10 2.409324 1_555
Bi0 O27 2.431334 1_555
Bi0 O28 2.435629 1_555
Bi0 O30 2.503148 1_555
Bi0 O22 2.504242 1_555
Bi0 O2 2.521640 1_555
Bi0 O4 2.522124 1_555
Bi1 O17 2.408672 1_555
Bi1 O11 2.409324 1_555
Bi1 O26 2.431334 1_555
Bi1 O29 2.435629 1_555
Bi1 O31 2.503148 1_555
Bi1 O23 2.504242 1_555
Bi1 O3 2.521640 1_555
Bi1 O5 2.522124 1_555
Bi2 O14 2.409734 1_555
Bi2 O12 2.412822 1_555
Bi2 O25 2.434107 1_555
Bi2 O9 2.434742 1_555
Bi2 O20 2.504100 1_565
Bi2 O18 2.504514 1_555
Bi2 O6 2.517451 1_565
Bi2 O0 2.518519 1_555
Bi3 O15 2.409734 1_555
Bi3 O13 2.412822 1_555
Bi3 O24 2.434107 1_555
Bi3 O8 2.434742 1_555
Bi3 O21 2.504100 1_555
Bi3 O19 2.504514 1_555
Bi3 O7 2.517451 1_545
Bi3 O1 2.518519 1_555
O0 S0 1.480704 1_555
O1 S1 1.480704 1_555
O2 S4 1.480588 1_555
O3 S5 1.480588 1_555
O4 S6 1.480783 1_555
O5 S7 1.480783 1_555
O6 S2 1.480840 1_555
O7 S3 1.480840 1_555
O8 S2 1.480933 1_556
O9 S3 1.480933 1_554
O10 S2 1.476983 1_555
O11 S3 1.476983 1_555
O12 S6 1.476574 1_555
O13 S7 1.476574 1_555
O14 S4 1.476869 1_555
O15 S5 1.476869 1_555
O16 S0 1.476765 1_545
O17 S1 1.476765 1_565
O18 S0 1.485146 1_555
O19 S1 1.485146 1_555
O20 S2 1.485621 1_555
O21 S3 1.485621 1_545
O22 S4 1.485580 1_555
O23 S5 1.485580 1_555
O24 S4 1.481270 1_555
O25 S5 1.481270 1_555
O26 S0 1.481444 1_555
O27 S1 1.481444 1_555
O28 S7 1.481329 1_554
O29 S6 1.481329 1_556
O30 S6 1.485739 1_555
O31 S7 1.485739 1_555
