# generated using pymatgen
data_LiBiP2O7
_symmetry_space_group_name_H-M   'P 1'
_cell_length_a   8.40764900
_cell_length_b   5.24747500
_cell_length_c   13.44049332
_cell_angle_alpha   67.12953902
_cell_angle_beta   90.00000000
_cell_angle_gamma   90.00000000
_symmetry_Int_Tables_number   1
_chemical_formula_structural   LiBiP2O7
_chemical_formula_sum   'Li4 Bi4 P8 O28'
_cell_volume   546.36355341
_cell_formula_units_Z   4
loop_
 _symmetry_equiv_pos_site_id
 _symmetry_equiv_pos_as_xyz
  1  'x, y, z'
loop_
 _atom_site_type_symbol
 _atom_site_label
 _atom_site_symmetry_multiplicity
 _atom_site_fract_x
 _atom_site_fract_y
 _atom_site_fract_z
 _atom_site_occupancy
  Li  Li0  1  0.63983500  0.74579700  0.09855100  1
  Li  Li1  1  0.36016500  0.25420300  0.90144900  1
  Li  Li2  1  0.86016500  0.74579700  0.59855100  1
  Li  Li3  1  0.13983500  0.25420300  0.40144900  1
  Bi  Bi0  1  0.30339500  0.96721400  0.22379100  1
  Bi  Bi1  1  0.80339500  0.03278600  0.27620900  1
  Bi  Bi2  1  0.19660500  0.96721400  0.72379100  1
  Bi  Bi3  1  0.69660500  0.03278600  0.77620900  1
  P  P0  1  0.28985100  0.65948800  0.02039600  1
  P  P1  1  0.71014900  0.34051200  0.97960400  1
  P  P2  1  0.97330600  0.42909700  0.83622100  1
  P  P3  1  0.47330600  0.57090300  0.66377900  1
  P  P4  1  0.78985100  0.34051200  0.47960400  1
  P  P5  1  0.52669400  0.42909700  0.33622100  1
  P  P6  1  0.21014900  0.65948800  0.52039600  1
  P  P7  1  0.02669400  0.57090300  0.16377900  1
  O  O0  1  0.55984000  0.19819000  0.29320000  1
  O  O1  1  0.82604100  0.64269600  0.45993300  1
  O  O2  1  0.39132200  0.29760600  0.73273300  1
  O  O3  1  0.05984000  0.80181000  0.20680000  1
  O  O4  1  0.94016000  0.19819000  0.79320000  1
  O  O5  1  0.60867800  0.70239400  0.26726700  1
  O  O6  1  0.17395900  0.35730400  0.54006700  1
  O  O7  1  0.38065500  0.75615100  0.09947200  1
  O  O8  1  0.34888400  0.47357200  0.34167000  1
  O  O9  1  0.30792500  0.86888000  0.90429300  1
  O  O10  1  0.59922400  0.32065300  0.45572800  1
  O  O11  1  0.09922400  0.67934700  0.04427200  1
  O  O12  1  0.80792500  0.13112000  0.59570700  1
  O  O13  1  0.84888400  0.52642800  0.15833000  1
  O  O14  1  0.88065500  0.24384900  0.40052800  1
  O  O15  1  0.65111600  0.52642800  0.65833000  1
  O  O16  1  0.10867800  0.29760600  0.23273300  1
  O  O17  1  0.44016000  0.80181000  0.70680000  1
  O  O18  1  0.67395900  0.64269600  0.95993300  1
  O  O19  1  0.89132200  0.70239400  0.76726700  1
  O  O20  1  0.32604100  0.35730400  0.04006700  1
  O  O21  1  0.11934500  0.75615100  0.59947200  1
  O  O22  1  0.15111600  0.47357200  0.84167000  1
  O  O23  1  0.19207500  0.86888000  0.40429300  1
  O  O24  1  0.90077600  0.32065300  0.95572800  1
  O  O25  1  0.40077600  0.67934700  0.54427200  1
  O  O26  1  0.69207500  0.13112000  0.09570700  1
  O  O27  1  0.61934500  0.24384900  0.90052800  1
loop_
_geom_bond_atom_site_label_1
_geom_bond_atom_site_label_2
_geom_bond_distance
_geom_bond_site_symmetry_2
Li0 O26 2.054913 1_565
Li0 O13 2.083491 1_555
Li0 O18 2.151657 1_554
Li0 O7 2.179927 1_555
Li0 O5 2.204807 1_555
Li1 O9 2.054913 1_545
Li1 O22 2.083491 1_555
Li1 O20 2.151657 1_556
Li1 O27 2.179927 1_555
Li1 O2 2.204807 1_555
Li2 O12 2.054913 1_565
Li2 O15 2.083491 1_555
Li2 O1 2.151657 1_555
Li2 O21 2.179927 1_655
Li2 O19 2.204807 1_555
Li3 O23 2.054913 1_545
Li3 O8 2.083491 1_555
Li3 O6 2.151657 1_555
Li3 O14 2.179927 1_455
Li3 O16 2.204807 1_555
Bi0 O3 2.269965 1_555
Bi0 O16 2.421227 1_565
Bi0 O7 2.424669 1_555
Bi0 O23 2.460658 1_555
Bi0 O8 2.485236 1_555
Bi0 O20 2.528842 1_565
Bi1 O0 2.269965 1_555
Bi1 O5 2.421227 1_545
Bi1 O14 2.424669 1_555
Bi1 O26 2.460658 1_555
Bi1 O13 2.485236 1_555
Bi1 O1 2.528842 1_545
Bi2 O17 2.269965 1_555
Bi2 O2 2.421227 1_565
Bi2 O21 2.424669 1_555
Bi2 O9 2.460658 1_555
Bi2 O22 2.485236 1_555
Bi2 O6 2.528842 1_565
Bi3 O4 2.269965 1_555
Bi3 O19 2.421227 1_545
Bi3 O27 2.424669 1_555
Bi3 O12 2.460658 1_555
Bi3 O15 2.485236 1_555
Bi3 O18 2.528842 1_545
O0 P5 1.557165 1_555
O1 P4 1.533317 1_555
O2 P3 1.535455 1_555
O3 P7 1.557165 1_555
O4 P2 1.557165 1_555
O5 P5 1.535455 1_555
O6 P6 1.533317 1_555
O7 P0 1.545565 1_555
O8 P5 1.519221 1_555
O9 P0 1.527330 1_556
O10 P5 1.601623 1_555
O10 P4 1.645771 1_555
O11 P7 1.601623 1_555
O11 P0 1.645771 1_555
O12 P4 1.527330 1_555
O13 P7 1.519221 1_655
O14 P4 1.545565 1_555
O15 P3 1.519221 1_555
O16 P7 1.535455 1_555
O17 P3 1.557165 1_555
O18 P1 1.533317 1_555
O19 P2 1.535455 1_555
O20 P0 1.533317 1_555
O21 P6 1.545565 1_555
O22 P2 1.519221 1_455
O23 P6 1.527330 1_555
O24 P2 1.601623 1_555
O24 P1 1.645771 1_555
O25 P3 1.601623 1_555
O25 P6 1.645771 1_555
O26 P1 1.527330 1_554
O27 P1 1.545565 1_555
