# generated using pymatgen
data_Sr4MgFe2(SO3)2
_symmetry_space_group_name_H-M   'P 1'
_cell_length_a   3.99714200
_cell_length_b   3.99738902
_cell_length_c   15.25715308
_cell_angle_alpha   89.98844115
_cell_angle_beta   89.99911183
_cell_angle_gamma   90.00017196
_symmetry_Int_Tables_number   1
_chemical_formula_structural   Sr4MgFe2(SO3)2
_chemical_formula_sum   'Sr4 Mg1 Fe2 S2 O6'
_cell_volume   243.78079388
_cell_formula_units_Z   1
loop_
 _symmetry_equiv_pos_site_id
 _symmetry_equiv_pos_as_xyz
  1  'x, y, z'
loop_
 _atom_site_type_symbol
 _atom_site_label
 _atom_site_symmetry_multiplicity
 _atom_site_fract_x
 _atom_site_fract_y
 _atom_site_fract_z
 _atom_site_occupancy
  Sr  Sr0  1  0.74999800  0.75002100  0.12501600  1
  Sr  Sr1  1  0.25000500  0.25001600  0.87499500  1
  Sr  Sr2  1  0.74997500  0.74990800  0.36088000  1
  Sr  Sr3  1  0.25000800  0.25028800  0.63911500  1
  Mg  Mg0  1  0.75001600  0.24980200  0.49998400  1
  Fe  Fe0  1  0.24999300  0.24998200  0.24228800  1
  Fe  Fe1  1  0.75000400  0.75007900  0.75773900  1
  S  S0  1  0.24999800  0.25004100  0.08484800  1
  S  S1  1  0.74999600  0.74998500  0.91516300  1
  O  O0  1  0.74999200  0.24999800  0.26215800  1
  O  O1  1  0.24999000  0.74998800  0.25787900  1
  O  O2  1  0.25000500  0.75008100  0.74211200  1
  O  O3  1  0.75000300  0.25007200  0.73785700  1
  O  O4  1  0.25001500  0.24994000  0.44581700  1
  O  O5  1  0.75000300  0.74980400  0.55415000  1
loop_
_geom_bond_atom_site_label_1
_geom_bond_atom_site_label_2
_geom_bond_distance
_geom_bond_site_symmetry_2
Mg0 O5 2.162649 1_545
Mg0 O4 2.162686 1_655
Mg0 O4 2.162717 1_555
Mg0 O5 2.162972 1_555
Fe0 O1 2.012729 1_545
Fe0 O1 2.012871 1_555
Fe0 O0 2.021432 1_455
Fe0 O0 2.021434 1_555
Fe0 S0 2.402086 1_555
Fe1 O2 2.012742 1_555
Fe1 O2 2.012743 1_655
Fe1 O3 2.021495 1_565
Fe1 O3 2.021671 1_555
Fe1 S1 2.401842 1_555
S0 Sr0 2.892130 1_445
S0 Sr0 2.892151 1_545
S0 Sr0 2.892198 1_455
S0 Sr0 2.892203 1_555
S0 Sr1 3.201759 1_554
S1 Sr1 2.892148 1_555
S1 Sr1 2.892157 1_565
S1 Sr1 2.892185 1_665
S1 Sr1 2.892193 1_655
S1 Sr0 3.201759 1_556
O0 Sr2 2.502648 1_555
O0 Sr2 2.502737 1_545
O0 Sr0 2.893369 1_555
O0 Sr0 2.893825 1_545
O1 Sr2 2.542393 1_555
O1 Sr2 2.542449 1_455
O1 Sr0 2.846658 1_455
O1 Sr0 2.846659 1_555
O2 Sr3 2.542079 1_555
O2 Sr3 2.542882 1_565
O2 Sr1 2.846858 1_555
O2 Sr1 2.847067 1_565
O3 Sr3 2.502775 1_655
O3 Sr3 2.502780 1_555
O3 Sr1 2.893439 1_555
O3 Sr1 2.893495 1_655
