# generated using pymatgen
data_Na2Y3Ta5Si6(SO8)6
_symmetry_space_group_name_H-M   'P 1'
_cell_length_a   17.95771572
_cell_length_b   8.98294991
_cell_length_c   23.41629178
_cell_angle_alpha   89.74564448
_cell_angle_beta   90.02103306
_cell_angle_gamma   120.10668915
_symmetry_Int_Tables_number   1
_chemical_formula_structural   Na2Y3Ta5Si6(SO8)6
_chemical_formula_sum   'Na6 Y9 Ta15 Si18 S18 O144'
_cell_volume   3267.72603185
_cell_formula_units_Z   3
loop_
 _symmetry_equiv_pos_site_id
 _symmetry_equiv_pos_as_xyz
  1  'x, y, z'
loop_
 _atom_site_type_symbol
 _atom_site_label
 _atom_site_symmetry_multiplicity
 _atom_site_fract_x
 _atom_site_fract_y
 _atom_site_fract_z
 _atom_site_occupancy
  Na  Na0  1  0.98906701  0.95810929  0.49954143  1
  Na  Na1  1  0.50246179  0.99621955  0.99867460  1
  Na  Na2  1  0.33635813  0.30432019  0.83920763  1
  Na  Na3  1  0.83304521  0.34543325  0.83787705  1
  Na  Na4  1  0.32084205  0.30676954  0.33708375  1
  Na  Na5  1  0.83771657  0.34935279  0.34637371  1
  Y  Y0  1  0.00686604  0.00165561  0.35437529  1
  Y  Y1  1  0.50291091  0.02373138  0.85330553  1
  Y  Y2  1  0.99901096  0.00515755  0.65273471  1
  Y  Y3  1  0.49149844  0.97931001  0.14715860  1
  Y  Y4  1  0.33687647  0.33519843  0.97433902  1
  Y  Y5  1  0.83880833  0.33302393  0.97494045  1
  Y  Y6  1  0.33607901  0.33973109  0.47917270  1
  Y  Y7  1  0.83019619  0.34201337  0.47916270  1
  Y  Y8  1  0.67278380  0.66804714  0.30795318  1
  Ta  Ta0  1  0.49249642  0.99217891  0.36082255  1
  Ta  Ta1  1  0.00503697  0.00763628  0.86247693  1
  Ta  Ta2  1  0.49907816  0.00336242  0.64712248  1
  Ta  Ta3  1  0.00481053  0.01911105  0.15028311  1
  Ta  Ta4  1  0.32490695  0.33431650  0.68928116  1
  Ta  Ta5  1  0.82653616  0.32682003  0.67937798  1
  Ta  Ta6  1  0.33990321  0.35234300  0.18881628  1
  Ta  Ta7  1  0.83400753  0.32042428  0.18349608  1
  Ta  Ta8  1  0.15885092  0.66362242  0.01836744  1
  Ta  Ta9  1  0.67029296  0.66622699  0.02313363  1
  Ta  Ta10  1  0.17409427  0.67967571  0.52011780  1
  Ta  Ta11  1  0.66845562  0.65413651  0.52496236  1
  Ta  Ta12  1  0.16243769  0.67799538  0.30600278  1
  Ta  Ta13  1  0.16799952  0.67399559  0.80785657  1
  Ta  Ta14  1  0.66377322  0.64526767  0.81102150  1
  Si  Si0  1  0.14889709  0.00874253  0.24668037  1
  Si  Si1  1  0.35403453  0.70724696  0.25500831  1
  Si  Si2  1  0.99683987  0.28845354  0.25398148  1
  Si  Si3  1  0.14438697  0.28955872  0.75384481  1
  Si  Si4  1  0.64806251  0.28844762  0.74876919  1
  Si  Si5  1  0.35557030  0.00609988  0.74867044  1
  Si  Si6  1  0.68238537  0.02941083  0.58183768  1
  Si  Si7  1  0.33325030  0.62676438  0.58382949  1
  Si  Si8  1  0.83790834  0.63475877  0.58099542  1
  Si  Si9  1  0.48260415  0.62505890  0.07941945  1
  Si  Si10  1  0.83582201  0.03778817  0.08193252  1
  Si  Si11  1  0.80839188  0.66874734  0.91451922  1
  Si  Si12  1  0.02688437  0.38409265  0.91264610  1
  Si  Si13  1  0.52624480  0.38187515  0.91867314  1
  Si  Si14  1  0.16515997  0.94843089  0.91273910  1
  Si  Si15  1  0.30480600  0.95218613  0.41211975  1
  Si  Si16  1  0.66319901  0.37346678  0.41431233  1
  Si  Si17  1  0.02551612  0.66489303  0.41685038  1
  S  S0  1  0.65074316  0.02092822  0.25079285  1
  S  S1  1  0.85868336  0.70363656  0.24314317  1
  S  S2  1  0.49320810  0.28274992  0.25048059  1
  S  S3  1  0.99647366  0.69782301  0.75302498  1
  S  S4  1  0.49836108  0.70366476  0.74862733  1
  S  S5  1  0.85157278  0.00690351  0.75488391  1
  S  S6  1  0.47915493  0.33205074  0.58523009  1
  S  S7  1  0.98346630  0.34555709  0.58333774  1
  S  S8  1  0.18973457  0.03771190  0.58429300  1
  S  S9  1  0.98081404  0.63060946  0.08486221  1
  S  S10  1  0.32585904  0.03260002  0.08184772  1
  S  S11  1  0.18873998  0.33917628  0.08569366  1
  S  S12  1  0.69118203  0.34204575  0.08352204  1
  S  S13  1  0.30383347  0.67103822  0.91771292  1
  S  S14  1  0.66286699  0.93569634  0.91661592  1
  S  S15  1  0.80942667  0.94389023  0.42101531  1
  S  S16  1  0.16491104  0.38979649  0.41803195  1
  S  S17  1  0.52536214  0.67753937  0.41450418  1
  O  O0  1  0.11761075  0.06180425  0.30294700  1
  O  O1  1  0.61068130  0.04827255  0.30183695  1
  O  O2  1  0.42550182  0.80792125  0.30638154  1
  O  O3  1  0.90622481  0.76175181  0.29688767  1
  O  O4  1  0.48006871  0.17139548  0.30138279  1
  O  O5  1  0.96503364  0.16081152  0.30692073  1
  O  O6  1  0.09293946  0.15042667  0.80602510  1
  O  O7  1  0.61807901  0.17930039  0.80650289  1
  O  O8  1  0.47537048  0.76170830  0.80038265  1
  O  O9  1  0.98139985  0.77964452  0.80293808  1
  O  O10  1  0.41032570  0.05636973  0.80634281  1
  O  O11  1  0.91019222  0.03387698  0.80332869  1
  O  O12  1  0.40617340  0.97776914  0.69578925  1
  O  O13  1  0.88119282  0.96294990  0.70265065  1
  O  O14  1  0.09392037  0.22667604  0.69564799  1
  O  O15  1  0.58303347  0.19020756  0.69585164  1
  O  O16  1  0.01307434  0.79977740  0.70098729  1
  O  O17  1  0.51164149  0.81539813  0.69889639  1
  O  O18  1  0.38610263  0.81315968  0.19698394  1
  O  O19  1  0.90814064  0.81825841  0.19455716  1
  O  O20  1  0.01010266  0.18938049  0.19744810  1
  O  O21  1  0.50803890  0.21347167  0.19857263  1
  O  O22  1  0.08453555  0.98044096  0.19265458  1
  O  O23  1  0.60142822  0.99700176  0.19892139  1
  O  O24  1  0.43728426  0.36168658  0.63443872  1
  O  O25  1  0.93880928  0.36400910  0.63607753  1
  O  O26  1  0.24414062  0.12710492  0.63576244  1
  O  O27  1  0.75255563  0.13174844  0.63805848  1
  O  O28  1  0.31761063  0.49246128  0.63888916  1
  O  O29  1  0.82658116  0.50281040  0.63656750  1
  O  O30  1  0.43018612  0.50062522  0.13836839  1
  O  O31  1  0.93683409  0.50966077  0.13400193  1
  O  O32  1  0.31396509  0.11444582  0.13302980  1
  O  O33  1  0.81806161  0.13904705  0.13823008  1
  O  O34  1  0.24622558  0.36784560  0.13568423  1
  O  O35  1  0.74644867  0.36161010  0.13506126  1
  O  O36  1  0.21894795  0.29510976  0.03446924  1
  O  O37  1  0.72937776  0.31283318  0.03255198  1
  O  O38  1  0.41743519  0.53674038  0.02796915  1
  O  O39  1  0.92976479  0.56576296  0.03300140  1
  O  O40  1  0.33531592  0.13187033  0.02982077  1
  O  O41  1  0.86178012  0.16882132  0.03023520  1
  O  O42  1  0.22824976  0.14036278  0.53271306  1
  O  O43  1  0.72182967  0.15280373  0.52909744  1
  O  O44  1  0.35456578  0.55043690  0.52898149  1
  O  O45  1  0.85588747  0.56248141  0.52489060  1
  O  O46  1  0.42802415  0.29316720  0.53308218  1
  O  O47  1  0.93006683  0.31317097  0.53314817  1
  O  O48  1  0.25752767  0.68082166  0.97152425  1
  O  O49  1  0.76487019  0.69482374  0.97228885  1
  O  O50  1  0.08053615  0.47535883  0.97451792  1
  O  O51  1  0.58675307  0.49491593  0.97261220  1
  O  O52  1  0.15545536  0.83092739  0.97294457  1
  O  O53  1  0.66210858  0.84558155  0.97052593  1
  O  O54  1  0.26406468  0.84329153  0.47299156  1
  O  O55  1  0.75657945  0.83446730  0.47169040  1
  O  O56  1  0.16468073  0.48059232  0.47232056  1
  O  O57  1  0.65120322  0.47335511  0.47186258  1
  O  O58  1  0.08533103  0.67311546  0.47420597  1
  O  O59  1  0.57286428  0.69270831  0.46740138  1
  O  O60  1  0.07874465  0.66597929  0.35862664  1
  O  O61  1  0.56683674  0.66327923  0.36295764  1
  O  O62  1  0.24916339  0.84957886  0.35749432  1
  O  O63  1  0.76380157  0.86645973  0.36760212  1
  O  O64  1  0.16921095  0.48554487  0.36652582  1
  O  O65  1  0.67347817  0.48635838  0.35860707  1
  O  O66  1  0.08326375  0.50628447  0.86073863  1
  O  O67  1  0.57629688  0.48690064  0.85793360  1
  O  O68  1  0.17552541  0.85036568  0.85843090  1
  O  O69  1  0.66757063  0.84728824  0.86434519  1
  O  O70  1  0.25914077  0.67202517  0.86520080  1
  O  O71  1  0.74993478  0.65655287  0.85745010  1
  O  O72  1  0.02106531  0.84076919  0.41874915  1
  O  O73  1  0.52040429  0.84207164  0.40919233  1
  O  O74  1  0.39935977  0.95894100  0.40391088  1
  O  O75  1  0.89236384  0.94725466  0.42322116  1
  O  O76  1  0.08540893  0.22013781  0.42020798  1
  O  O77  1  0.57203813  0.18589359  0.40273300  1
  O  O78  1  0.02315967  0.19697703  0.90690916  1
  O  O79  1  0.52089418  0.19702217  0.92255377  1
  O  O80  1  0.07255346  0.94376974  0.90617609  1
  O  O81  1  0.58227580  0.94139062  0.91621216  1
  O  O82  1  0.39008414  0.82246919  0.91943324  1
  O  O83  1  0.90047227  0.84421572  0.89898702  1
  O  O84  1  0.49515554  0.18618019  0.59589752  1
  O  O85  1  0.99712738  0.19854340  0.59148512  1
  O  O86  1  0.10249484  0.00812923  0.59198117  1
  O  O87  1  0.59054799  0.00381806  0.60468694  1
  O  O88  1  0.41233545  0.81437980  0.60363709  1
  O  O89  1  0.91157208  0.82849780  0.59178270  1
  O  O90  1  0.50280395  0.82067741  0.08629107  1
  O  O91  1  0.99741828  0.80342268  0.09837373  1
  O  O92  1  0.40212295  0.01212132  0.08630012  1
  O  O93  1  0.91442369  0.00671010  0.10303612  1
  O  O94  1  0.09995510  0.19023054  0.09843503  1
  O  O95  1  0.60366328  0.20048039  0.09234632  1
  O  O96  1  0.34145503  0.16775846  0.72922961  1
  O  O97  1  0.84778591  0.16936505  0.74635370  1
  O  O98  1  0.24295291  0.30997796  0.74442985  1
  O  O99  1  0.74591022  0.32133948  0.73283539  1
  O  O100  1  0.42464562  0.52212337  0.73576323  1
  O  O101  1  0.92114881  0.52081939  0.74578730  1
  O  O102  1  0.34866710  0.51404357  0.24311216  1
  O  O103  1  0.84595245  0.52911507  0.23022469  1
  O  O104  1  0.40968992  0.28827414  0.24416528  1
  O  O105  1  0.91680928  0.32223715  0.23167836  1
  O  O106  1  0.24381602  0.16806608  0.22708246  1
  O  O107  1  0.73987198  0.18614495  0.24264054  1
  O  O108  1  0.30271772  0.50718884  0.91979174  1
  O  O109  1  0.81669983  0.49982874  0.91600571  1
  O  O110  1  0.43498142  0.37473721  0.91351160  1
  O  O111  1  0.93402160  0.36547774  0.91265484  1
  O  O112  1  0.24466561  0.13753923  0.91555290  1
  O  O113  1  0.74012638  0.10937956  0.91721008  1
  O  O114  1  0.32075908  0.14411510  0.41492120  1
  O  O115  1  0.81967104  0.11439945  0.42532765  1
  O  O116  1  0.24228517  0.37042046  0.41978087  1
  O  O117  1  0.74106157  0.33629176  0.41610598  1
  O  O118  1  0.43648205  0.53017727  0.41670045  1
  O  O119  1  0.93545682  0.48827472  0.41496814  1
  O  O120  1  0.17966344  0.49410145  0.07763461  1
  O  O121  1  0.69061501  0.50700666  0.07851731  1
  O  O122  1  0.06681289  0.63848399  0.07687106  1
  O  O123  1  0.57487520  0.62966329  0.07127973  1
  O  O124  1  0.24737918  0.85461200  0.07446677  1
  O  O125  1  0.74930429  0.85438112  0.07243877  1
  O  O126  1  0.18675729  0.86879695  0.57883651  1
  O  O127  1  0.67044619  0.83780684  0.56934710  1
  O  O128  1  0.24601236  0.63916208  0.57241134  1
  O  O129  1  0.74395616  0.63217199  0.57341707  1
  O  O130  1  0.06838435  0.50669370  0.57754794  1
  O  O131  1  0.56475023  0.49034709  0.57602556  1
  O  O132  1  0.15844653  0.83763978  0.25422443  1
  O  O133  1  0.66798661  0.88027249  0.25783811  1
  O  O134  1  0.25853132  0.66169185  0.27271062  1
  O  O135  1  0.77459360  0.69211182  0.24415799  1
  O  O136  1  0.08069891  0.47557201  0.26139224  1
  O  O137  1  0.56213596  0.45991168  0.25867420  1
  O  O138  1  0.16546482  0.48236933  0.77030914  1
  O  O139  1  0.65994757  0.48382218  0.75783194  1
  O  O140  1  0.07438685  0.67862387  0.76172943  1
  O  O141  1  0.57640653  0.68848148  0.75638330  1
  O  O142  1  0.25905810  0.83771663  0.75887308  1
  O  O143  1  0.76212429  0.86510031  0.76678626  1
loop_
_geom_bond_atom_site_label_1
_geom_bond_atom_site_label_2
_geom_bond_distance
_geom_bond_site_symmetry_2
Na0 O72 2.376232 1_655
Na0 O75 2.459356 1_555
Na0 O89 2.512366 1_555
Na0 O76 2.804050 1_665
Na0 O86 2.850187 1_665
Na0 O85 3.008068 1_565
Na1 O79 2.431737 1_565
Na1 O90 2.583965 1_556
Na1 O81 2.596953 1_555
Na1 O82 2.610491 1_555
Na1 O92 2.782224 1_566
Na1 O95 2.857998 1_566
Na2 O110 2.334028 1_555
Na2 O112 2.378088 1_555
Na2 O98 2.797024 1_555
Na2 O96 2.878568 1_555
Na2 O108 2.895245 1_555
Na2 O100 3.009624 1_555
Na3 O109 2.405840 1_555
Na3 O111 2.461601 1_555
Na3 O101 2.665905 1_555
Na3 O113 2.673813 1_555
Na3 O97 2.759553 1_555
Na3 O99 2.864869 1_555
Na4 O114 2.330481 1_555
Na4 O116 2.624485 1_555
Na4 O104 2.753010 1_555
Na4 O102 2.754921 1_555
Na4 O118 2.768580 1_555
Na4 O106 2.897836 1_555
Na5 O119 2.244171 1_555
Na5 O117 2.342814 1_555
Na5 O115 2.693933 1_555
Na5 O107 2.929356 1_555
O0 Si0 1.597994 1_555
O0 Y0 2.148297 1_555
O1 S0 1.478876 1_555
O1 Ta0 2.364124 1_545
O2 Si1 1.660189 1_555
O2 Ta0 1.957554 1_555
O3 S1 1.463943 1_555
O3 Y0 2.416453 1_665
O4 S2 1.493257 1_555
O4 Ta0 2.217917 1_545
O5 Si2 1.583832 1_555
O5 Y0 2.214920 1_655
O6 Si3 1.654517 1_555
O6 Ta1 1.959495 1_555
O7 Si4 1.593119 1_555
O7 Y1 2.125993 1_555
O8 S4 1.460477 1_555
O8 Y1 2.485572 1_565
O9 S3 1.478851 1_555
O9 Ta1 2.339051 1_665
O10 Si5 1.597975 1_555
O10 Y1 2.131763 1_555
O11 S5 1.483024 1_555
O11 Ta1 2.296278 1_655
O12 Si5 1.630799 1_565
O12 Ta2 1.936291 1_565
O13 S5 1.466381 1_565
O13 Y2 2.275839 1_565
O14 Si3 1.577925 1_555
O14 Y2 2.118570 1_455
O15 Si4 1.628713 1_555
O15 Ta2 1.967034 1_555
O16 S3 1.459082 1_455
O16 Y2 2.278790 1_465
O17 S4 1.473113 1_555
O17 Ta2 2.176104 1_565
O18 Si1 1.588193 1_555
O18 Y3 2.079246 1_555
O19 S1 1.488709 1_555
O19 Ta3 2.046025 1_665
O20 Si2 1.680642 1_455
O20 Ta3 1.854003 1_555
O21 S2 1.452194 1_555
O21 Y3 2.314657 1_545
O22 Si0 1.645573 1_565
O22 Ta3 1.910399 1_565
O23 S0 1.454776 1_565
O23 Y3 2.253144 1_555
O24 S6 1.472467 1_555
O24 Ta4 2.298577 1_555
O25 S7 1.526967 1_555
O25 Ta5 2.127766 1_555
O26 S8 1.507510 1_555
O26 Ta4 2.109459 1_555
O27 Si6 1.735934 1_555
O27 Ta5 1.857513 1_555
O28 Si7 1.686173 1_555
O28 Ta4 1.897212 1_555
O29 Si8 1.698312 1_555
O29 Ta5 1.867850 1_555
O30 Si9 1.724121 1_555
O30 Ta6 1.902414 1_555
O31 S9 1.502314 1_555
O31 Ta7 2.116032 1_555
O32 S10 1.479224 1_555
O32 Ta6 2.348614 1_555
O33 Si10 1.723066 1_555
O33 Ta7 1.845859 1_555
O34 S11 1.495779 1_555
O34 Ta6 2.151553 1_555
O35 S12 1.516046 1_555
O35 Ta7 2.115202 1_555
O36 S11 1.452532 1_555
O36 Y4 2.414455 1_554
O37 S12 1.465537 1_555
O37 Y5 2.314464 1_554
O38 Si9 1.589488 1_555
O38 Y4 2.083005 1_554
O39 S9 1.457459 1_555
O39 Y5 2.342014 1_554
O40 S10 1.465204 1_555
O40 Y4 2.225378 1_554
O41 Si10 1.582889 1_555
O41 Y5 2.148362 1_554
O42 S8 1.462313 1_555
O42 Y6 2.243101 1_555
O43 Si6 1.567276 1_555
O43 Y7 2.169989 1_555
O44 Si7 1.592992 1_555
O44 Y6 2.107611 1_555
O45 Si8 1.571608 1_555
O45 Y7 2.093666 1_555
O46 S6 1.461987 1_555
O46 Y6 2.276262 1_555
O47 S7 1.451807 1_555
O47 Y7 2.311541 1_555
O48 S13 1.536885 1_555
O48 Ta8 2.022950 1_556
O49 Si11 1.637949 1_555
O49 Ta9 1.982200 1_556
O50 Si12 1.707786 1_555
O50 Ta8 1.876295 1_556
O51 Si13 1.646376 1_555
O51 Ta9 1.927970 1_556
O52 Si14 1.713021 1_555
O52 Ta8 1.863174 1_556
O53 S14 1.492961 1_555
O53 Ta9 2.086785 1_556
O54 Si15 1.671612 1_555
O54 Ta10 1.895502 1_555
O55 S15 1.526275 1_555
O55 Ta11 2.023914 1_555
O56 S16 1.514557 1_555
O56 Ta10 2.047883 1_555
O57 Si16 1.694834 1_555
O57 Ta11 1.947343 1_555
O58 Si17 1.698015 1_555
O58 Ta10 1.898720 1_555
O59 S17 1.471261 1_555
O59 Ta11 2.339737 1_555
O60 Si17 1.662548 1_555
O60 Ta12 1.904298 1_555
O61 S17 1.458007 1_555
O61 Y8 2.280373 1_555
O62 Si15 1.603034 1_555
O62 Ta12 1.965174 1_555
O63 S15 1.467884 1_555
O63 Y8 2.212916 1_555
O64 S16 1.457602 1_555
O64 Ta12 2.280581 1_555
O65 Si16 1.601435 1_555
O65 Y8 2.018421 1_555
O66 Si12 1.606683 1_555
O66 Ta13 1.950255 1_555
O67 Si13 1.690913 1_555
O67 Ta14 1.855700 1_555
O68 Si14 1.613224 1_555
O68 Ta13 1.931983 1_555
O69 S14 1.487273 1_555
O69 Ta14 2.180126 1_555
O70 S13 1.470558 1_555
O70 Ta13 2.123531 1_555
O71 Si11 1.668747 1_555
O71 Ta14 1.851665 1_555
O72 Si17 1.622256 1_555
O72 Y0 2.185417 1_565
O73 S17 1.529120 1_555
O73 Ta0 2.004048 1_555
O74 Si15 1.679436 1_555
O74 Ta0 1.844472 1_555
O75 S15 1.475324 1_555
O75 Y0 2.460294 1_665
O76 S16 1.476503 1_555
O76 Y0 2.337905 1_555
O77 Si16 1.681965 1_555
O77 Ta0 1.884676 1_545
O78 Si12 1.654384 1_555
O78 Ta1 1.881869 1_555
O79 Si13 1.616612 1_555
O79 Y1 2.162075 1_555
O80 Si14 1.649533 1_555
O80 Ta1 1.880945 1_565
O81 S14 1.473582 1_555
O81 Y1 2.407185 1_565
O82 S13 1.462103 1_555
O82 Y1 2.464559 1_565
O83 Si11 1.652750 1_555
O83 Ta1 1.906954 1_665
O84 S6 1.495571 1_555
O84 Ta2 2.058937 1_555
O85 S7 1.470836 1_555
O85 Y2 2.261140 1_555
O86 S8 1.462693 1_555
O86 Y2 2.330195 1_455
O87 Si6 1.636502 1_555
O87 Ta2 1.918317 1_555
O88 Si7 1.636361 1_555
O88 Ta2 1.925225 1_565
O89 Si8 1.592655 1_555
O89 Y2 2.130635 1_565
O90 Si9 1.615031 1_555
O90 Y3 2.100416 1_555
O91 S9 1.462461 1_555
O91 Ta3 2.238718 1_665
O92 S10 1.474037 1_555
O92 Y3 2.272192 1_545
O93 Si10 1.645624 1_555
O93 Ta3 1.920777 1_655
O94 S11 1.509276 1_555
O94 Ta3 2.026386 1_555
O95 S12 1.456965 1_555
O95 Y3 2.369867 1_545
O96 Si5 1.656386 1_555
O96 Ta4 1.906658 1_555
O97 S5 1.507080 1_555
O97 Ta5 2.264321 1_555
O98 Si3 1.699833 1_555
O98 Ta4 1.886125 1_555
O99 Si4 1.671121 1_555
O99 Ta5 1.896030 1_555
O100 S4 1.529989 1_555
O100 Ta4 2.054825 1_555
O101 S3 1.493688 1_555
O101 Ta5 2.322405 1_555
O102 Si1 1.713308 1_555
O102 Ta6 1.880972 1_555
O103 S1 1.498703 1_555
O103 Ta7 2.090999 1_555
O104 S2 1.532369 1_555
O104 Ta6 2.072999 1_555
O105 Si2 1.692894 1_555
O105 Ta7 1.859789 1_555
O106 Si0 1.646724 1_555
O106 Ta6 1.908640 1_555
O107 S0 1.554180 1_555
O107 Ta7 2.042533 1_555
O108 S13 1.462496 1_555
O108 Y4 2.308115 1_555
O109 Si11 1.597677 1_555
O109 Y5 2.210286 1_555
O110 Si13 1.612189 1_555
O110 Y4 2.151341 1_555
O111 Si12 1.590318 1_655
O111 Y5 2.152592 1_555
O112 Si14 1.579958 1_545
O112 Y4 2.204522 1_555
O113 S14 1.479141 1_545
O113 Y5 2.335502 1_555
O114 Si15 1.601354 1_545
O114 Y6 2.228288 1_555
O115 S15 1.452152 1_545
O115 Y7 2.332480 1_555
O116 S16 1.484956 1_555
O116 Y6 2.303867 1_555
O117 Si16 1.592672 1_555
O117 Y7 2.159017 1_555
O118 S17 1.477250 1_555
O118 Y6 2.280964 1_555
O119 Si17 1.600328 1_655
O119 Y7 2.247638 1_555
O120 S11 1.491368 1_555
O120 Ta8 2.221816 1_555
O121 S12 1.491063 1_555
O121 Ta9 2.089873 1_555
O122 S9 1.521682 1_455
O122 Ta8 2.069766 1_555
O123 Si9 1.647732 1_555
O123 Ta9 1.936097 1_555
O124 S10 1.521219 1_565
O124 Ta8 2.116284 1_555
O125 Si10 1.616383 1_565
O125 Ta9 1.952718 1_555
O126 S8 1.497290 1_565
O126 Ta10 2.112193 1_555
O127 Si6 1.651712 1_565
O127 Ta11 1.938990 1_555
O128 Si7 1.646987 1_555
O128 Ta10 1.940680 1_555
O129 Si8 1.684947 1_555
O129 Ta11 1.851975 1_555
O130 S7 1.490969 1_455
O130 Ta10 2.202428 1_555
O131 S6 1.495289 1_555
O131 Ta11 2.073603 1_555
O132 Si0 1.638596 1_565
O132 Ta12 1.902467 1_555
O133 S0 1.452640 1_565
O133 Y8 2.272392 1_555
O134 Si1 1.604841 1_555
O134 Ta12 1.965325 1_555
O135 S1 1.461073 1_555
O135 Y8 2.285504 1_555
O136 Si2 1.608173 1_455
O136 Ta12 1.972379 1_555
O137 S2 1.458740 1_555
O137 Y8 2.250737 1_555
O138 Si3 1.624772 1_555
O138 Ta13 1.916512 1_555
O139 Si4 1.672795 1_555
O139 Ta14 1.890836 1_555
O140 S3 1.506801 1_455
O140 Ta13 2.015634 1_555
O141 S4 1.485666 1_555
O141 Ta14 2.203223 1_555
O142 Si5 1.647992 1_565
O142 Ta13 1.930346 1_555
O143 S5 1.491614 1_565
O143 Ta14 2.139182 1_555
