# generated using pymatgen
data_LiFeP2O7
_symmetry_space_group_name_H-M   'P 1'
_cell_length_a   5.10708300
_cell_length_b   8.60841500
_cell_length_c   12.58053951
_cell_angle_alpha   78.15030836
_cell_angle_beta   90.00000000
_cell_angle_gamma   90.00000000
_symmetry_Int_Tables_number   1
_chemical_formula_structural   LiFeP2O7
_chemical_formula_sum   'Li4 Fe4 P8 O28'
_cell_volume   541.30293246
_cell_formula_units_Z   4
loop_
 _symmetry_equiv_pos_site_id
 _symmetry_equiv_pos_as_xyz
  1  'x, y, z'
loop_
 _atom_site_type_symbol
 _atom_site_label
 _atom_site_symmetry_multiplicity
 _atom_site_fract_x
 _atom_site_fract_y
 _atom_site_fract_z
 _atom_site_occupancy
  Li  Li0  1  0.51244700  0.37429600  0.68496000  1
  Li  Li1  1  0.02425700  0.41190700  0.08550400  1
  Li  Li2  1  0.48755300  0.87429600  0.18496000  1
  Li  Li3  1  0.97574300  0.91190700  0.58550400  1
  Fe  Fe0  1  0.98826100  0.75073100  0.01929100  1
  Fe  Fe1  1  0.01173900  0.25073100  0.51929100  1
  Fe  Fe2  1  0.49328800  0.76437800  0.46757700  1
  Fe  Fe3  1  0.50671200  0.26437800  0.96757700  1
  P  P0  1  0.49122300  0.03110100  0.63932400  1
  P  P1  1  0.00214900  0.97019000  0.35587200  1
  P  P2  1  0.51441300  0.42714800  0.38284800  1
  P  P3  1  0.50877700  0.53110100  0.13932400  1
  P  P4  1  0.48558700  0.92714800  0.88284800  1
  P  P5  1  0.99785100  0.47019000  0.85587200  1
  P  P6  1  0.00072500  0.07326500  0.11814500  1
  P  P7  1  0.99927500  0.57326500  0.61814500  1
  O  O0  1  0.79273300  0.83942100  0.36822000  1
  O  O1  1  0.41933300  0.41757200  0.06652000  1
  O  O2  1  0.29518300  0.08069700  0.09491000  1
  O  O3  1  0.85337600  0.21966400  0.05589200  1
  O  O4  1  0.66129500  0.79498900  0.94221000  1
  O  O5  1  0.19724300  0.89305900  0.91233900  1
  O  O6  1  0.02960200  0.56626700  0.94381500  1
  O  O7  1  0.20726700  0.33942100  0.86822000  1
  O  O8  1  0.71888600  0.40659500  0.84737200  1
  O  O9  1  0.56925300  0.09336300  0.89335000  1
  O  O10  1  0.52970600  0.91836100  0.75785000  1
  O  O11  1  0.04843000  0.59357000  0.74272200  1
  O  O12  1  0.58066700  0.91757200  0.56652000  1
  O  O13  1  0.70481700  0.58069700  0.59491000  1
  O  O14  1  0.12407400  0.41256300  0.61213900  1
  O  O15  1  0.33001000  0.67722700  0.12784400  1
  O  O16  1  0.66999000  0.17722700  0.62784400  1
  O  O17  1  0.19854300  0.07188900  0.63217000  1
  O  O18  1  0.14662400  0.71966400  0.55589200  1
  O  O19  1  0.28111400  0.90659500  0.34737200  1
  O  O20  1  0.33870500  0.29498900  0.44221000  1
  O  O21  1  0.43074700  0.59336300  0.39335000  1
  O  O22  1  0.80275700  0.39305900  0.41233900  1
  O  O23  1  0.97039800  0.06626700  0.44381500  1
  O  O24  1  0.47029400  0.41836100  0.25785000  1
  O  O25  1  0.95157000  0.09357000  0.24272200  1
  O  O26  1  0.87592600  0.91256300  0.11213900  1
  O  O27  1  0.80145700  0.57188900  0.13217000  1
loop_
_geom_bond_atom_site_label_1
_geom_bond_atom_site_label_2
_geom_bond_distance
_geom_bond_site_symmetry_2
Li0 O16 2.131254 1_555
Li0 O13 2.139840 1_555
Li0 O14 2.181273 1_555
Li0 O8 2.365791 1_555
Li1 O27 1.966748 1_455
Li1 O3 1.972893 1_455
Li1 O6 1.992754 1_554
Li1 O1 2.031180 1_555
Li2 O15 2.131254 1_555
Li2 O2 2.139840 1_565
Li2 O26 2.181273 1_555
Li2 O19 2.365791 1_555
Li3 O17 1.966748 1_665
Li3 O18 1.972893 1_655
Li3 O23 1.992754 1_565
Li3 O12 2.031180 1_555
Fe0 O4 1.929289 1_554
Fe0 O5 1.942583 1_654
Fe0 O6 2.021628 1_654
Fe0 O26 2.074276 1_555
Fe0 O27 2.097404 1_555
Fe0 O15 2.226369 1_655
Fe1 O20 1.929289 1_555
Fe1 O22 1.942583 1_455
Fe1 O23 2.021628 1_455
Fe1 O14 2.074276 1_555
Fe1 O17 2.097404 1_555
Fe1 O16 2.226369 1_455
Fe2 O21 1.925071 1_555
Fe2 O0 1.996706 1_555
Fe2 O12 2.040059 1_555
Fe2 O19 2.049274 1_555
Fe2 O18 2.083608 1_555
Fe2 O13 2.278842 1_555
Fe3 O9 1.925071 1_555
Fe3 O7 1.996706 1_555
Fe3 O1 2.040059 1_556
Fe3 O8 2.049274 1_555
Fe3 O3 2.083608 1_556
Fe3 O2 2.278842 1_556
O0 P1 1.537331 1_655
O1 P3 1.539580 1_555
O2 P6 1.530796 1_555
O3 P6 1.537064 1_655
O4 P4 1.519325 1_555
O5 P4 1.532185 1_555
O6 P5 1.519933 1_455
O7 P5 1.537331 1_455
O8 P5 1.537837 1_555
O9 P4 1.524794 1_545
O10 P4 1.605687 1_555
O10 P0 1.615436 1_565
O11 P5 1.612511 1_455
O11 P7 1.631668 1_455
O12 P0 1.539580 1_565
O13 P7 1.530796 1_555
O14 P7 1.539035 1_455
O15 P3 1.536919 1_555
O16 P0 1.536919 1_555
O17 P0 1.533838 1_555
O18 P7 1.537064 1_455
O19 P1 1.537837 1_555
O20 P2 1.519325 1_555
O21 P2 1.524794 1_555
O22 P2 1.532185 1_555
O23 P1 1.519933 1_645
O24 P2 1.605687 1_555
O24 P3 1.615436 1_555
O25 P1 1.612511 1_645
O25 P6 1.631668 1_655
O26 P6 1.539035 1_665
O27 P3 1.533838 1_555
