# generated using pymatgen
data_MgCrCo5O12
_symmetry_space_group_name_H-M   'P 1'
_cell_length_a   4.93980564
_cell_length_b   4.94110126
_cell_length_c   9.99478810
_cell_angle_alpha   86.28501632
_cell_angle_beta   82.19971838
_cell_angle_gamma   59.98797807
_symmetry_Int_Tables_number   1
_chemical_formula_structural   MgCrCo5O12
_chemical_formula_sum   'Mg1 Cr1 Co5 O12'
_cell_volume   209.28843802
_cell_formula_units_Z   1
loop_
 _symmetry_equiv_pos_site_id
 _symmetry_equiv_pos_as_xyz
  1  'x, y, z'
loop_
 _atom_site_type_symbol
 _atom_site_label
 _atom_site_symmetry_multiplicity
 _atom_site_fract_x
 _atom_site_fract_y
 _atom_site_fract_z
 _atom_site_occupancy
  Mg  Mg0  1  0.25060033  0.66832523  0.24978488  1
  Cr  Cr0  1  0.98320605  0.00815620  0.99515682  1
  Co  Co0  1  0.17799600  0.66780755  0.50921050  1
  Co  Co1  1  0.65239565  0.67279209  0.99887174  1
  Co  Co2  1  0.31774949  0.33751864  0.99864171  1
  Co  Co3  1  0.84827405  0.33454542  0.49635588  1
  Co  Co4  1  0.51487195  0.00118480  0.49636911  1
  O  O0  1  0.97036125  0.66162950  0.10473048  1
  O  O1  1  0.36210230  0.65437158  0.90228822  1
  O  O2  1  0.20874782  0.34558031  0.39895893  1
  O  O3  1  0.53004635  0.66691117  0.39904559  1
  O  O4  1  0.50082211  0.32255216  0.59291197  1
  O  O5  1  0.15457870  0.01472796  0.59313586  1
  O  O6  1  0.80851085  0.66871618  0.59293917  1
  O  O7  1  0.60330534  0.35814616  0.10472520  1
  O  O8  1  0.30028291  0.99122576  0.10495162  1
  O  O9  1  0.00945410  0.35589318  0.90265892  1
  O  O10  1  0.66030916  0.00657642  0.90265523  1
  O  O11  1  0.88745659  0.98833969  0.39857216  1
loop_
_geom_bond_atom_site_label_1
_geom_bond_atom_site_label_2
_geom_bond_distance
_geom_bond_site_symmetry_2
Mg0 O7 2.101807 1_555
Mg0 O0 2.148522 1_455
Mg0 O11 2.161653 1_455
Mg0 O3 2.163127 1_555
Mg0 O8 2.167318 1_555
Mg0 O2 2.178730 1_555
Cr0 O9 1.951464 1_655
Cr0 O10 1.952608 1_555
Cr0 O1 1.971340 1_645
Cr0 O0 1.995481 1_546
Cr0 O8 1.997024 1_646
Cr0 O7 2.037815 1_556
Co0 O4 1.899710 1_555
Co0 O6 1.899823 1_455
Co0 O5 1.901841 1_565
Co0 O3 1.926104 1_555
Co0 O2 1.926729 1_555
Co0 O11 1.928978 1_455
Co1 O9 1.859960 1_655
Co1 O10 1.869533 1_565
Co1 O1 1.874616 1_555
Co1 O8 1.898160 1_556
Co1 O7 1.920826 1_556
Co1 O0 1.986557 1_556
Co2 O10 1.858045 1_555
Co2 O9 1.869439 1_555
Co2 O1 1.875375 1_555
Co2 O0 1.900196 1_456
Co2 O7 1.920456 1_556
Co2 O8 1.987814 1_546
Co3 O4 1.877610 1_555
Co3 O6 1.878150 1_555
Co3 O5 1.878711 1_655
Co3 O3 1.933794 1_555
Co3 O2 1.934196 1_655
Co3 O11 1.937265 1_545
Co4 O6 1.877528 1_545
Co4 O4 1.878159 1_555
Co4 O5 1.878696 1_555
Co4 O2 1.934189 1_555
Co4 O3 1.935050 1_545
Co4 O11 1.936424 1_545
