# generated using pymatgen
data_TaBr5N2
_symmetry_space_group_name_H-M   'P 1'
_cell_length_a   7.83870881
_cell_length_b   7.83870881
_cell_length_c   13.75597735
_cell_angle_alpha   90.00000000
_cell_angle_beta   90.00000000
_cell_angle_gamma   89.99793774
_symmetry_Int_Tables_number   1
_chemical_formula_structural   TaBr5N2
_chemical_formula_sum   'Ta4 Br20 N8'
_cell_volume   845.24092248
_cell_formula_units_Z   4
loop_
 _symmetry_equiv_pos_site_id
 _symmetry_equiv_pos_as_xyz
  1  'x, y, z'
loop_
 _atom_site_type_symbol
 _atom_site_label
 _atom_site_symmetry_multiplicity
 _atom_site_fract_x
 _atom_site_fract_y
 _atom_site_fract_z
 _atom_site_occupancy
  Ta  Ta0  1  0.50000000  0.50000000  0.36560695  1
  Ta  Ta1  1  0.00000000  -0.00000000  0.86560695  1
  Ta  Ta2  1  0.50000000  0.50000000  0.63439305  1
  Ta  Ta3  1  0.00000000  -0.00000000  0.13439305  1
  Br  Br0  1  0.80980757  0.60003145  0.36581077  1
  Br  Br1  1  0.19019243  0.39996855  0.36581077  1
  Br  Br2  1  0.69024017  0.10006769  0.86579737  1
  Br  Br3  1  0.30975983  0.89993231  0.86579737  1
  Br  Br4  1  0.60006769  0.19024017  0.36579737  1
  Br  Br5  1  0.39993231  0.80975983  0.36579737  1
  Br  Br6  1  0.10003145  0.30980757  0.86581077  1
  Br  Br7  1  0.89996855  0.69019243  0.86581077  1
  Br  Br8  1  0.19019243  0.39996855  0.63418923  1
  Br  Br9  1  0.80980757  0.60003145  0.63418923  1
  Br  Br10  1  0.30975983  0.89993231  0.13420263  1
  Br  Br11  1  0.69024017  0.10006769  0.13420263  1
  Br  Br12  1  0.39993231  0.80975983  0.63420263  1
  Br  Br13  1  0.60006769  0.19024017  0.63420263  1
  Br  Br14  1  0.89996855  0.69019243  0.13418923  1
  Br  Br15  1  0.10003145  0.30980757  0.13418923  1
  Br  Br16  1  0.50000000  0.50000000  0.16236013  1
  Br  Br17  1  0.00000000  -0.00000000  0.66236013  1
  Br  Br18  1  0.50000000  0.50000000  0.83763987  1
  Br  Br19  1  0.00000000  -0.00000000  0.33763987  1
  N  N0  1  0.50000000  0.50000000  0.00000000  1
  N  N1  1  0.00000000  -0.00000000  0.50000000  1
  N  N2  1  0.00000000  0.50000000  0.25000000  1
  N  N3  1  0.50000000  -0.00000000  0.75000000  1
  N  N4  1  0.50000000  -0.00000000  0.25000000  1
  N  N5  1  0.00000000  0.50000000  0.75000000  1
  N  N6  1  0.50000000  0.50000000  0.50000000  1
  N  N7  1  0.00000000  -0.00000000  0.00000000  1
loop_
_geom_bond_atom_site_label_1
_geom_bond_atom_site_label_2
_geom_bond_distance
_geom_bond_site_symmetry_2
Br0 N2 2.318483 1_655
Br0 Ta0 2.551971 1_555
Br1 N2 2.318483 1_555
Br1 Ta0 2.551971 1_555
Br2 N3 2.318730 1_555
Br2 Ta1 2.551648 1_655
Br3 N3 2.318730 1_565
Br3 Ta1 2.551648 1_565
Br4 N4 2.318730 1_555
Br4 Ta0 2.551648 1_555
Br5 N4 2.318730 1_565
Br5 Ta0 2.551648 1_555
Br6 N5 2.318483 1_555
Br6 Ta1 2.551971 1_555
Br7 N5 2.318483 1_655
Br7 Ta1 2.551971 1_665
Br8 N5 2.318483 1_555
Br8 Ta2 2.551971 1_555
Br9 N5 2.318483 1_655
Br9 Ta2 2.551971 1_555
Br10 N4 2.318730 1_565
Br10 Ta3 2.551648 1_565
Br11 N4 2.318730 1_555
Br11 Ta3 2.551648 1_655
Br12 N3 2.318730 1_565
Br12 Ta2 2.551648 1_555
Br13 N3 2.318730 1_555
Br13 Ta2 2.551648 1_555
Br14 N2 2.318483 1_655
Br14 Ta3 2.551971 1_665
Br15 N2 2.318483 1_555
Br15 Ta3 2.551971 1_555
Br16 N0 2.233422 1_555
Br16 Ta0 2.795859 1_555
Br17 N1 2.233422 1_555
Br17 Ta1 2.795859 1_555
Br18 N0 2.233422 1_556
Br18 Ta2 2.795859 1_555
Br19 N1 2.233422 1_555
Br19 Ta3 2.795859 1_555
N6 Ta2 1.848708 1_555
N6 Ta0 1.848708 1_555
N7 Ta1 1.848708 1_554
N7 Ta3 1.848708 1_555
