# generated using pymatgen
data_MgV8O20
_symmetry_space_group_name_H-M   'P 1'
_cell_length_a   10.03979451
_cell_length_b   3.66747300
_cell_length_c   11.34920374
_cell_angle_alpha   90.00000000
_cell_angle_beta   88.38032219
_cell_angle_gamma   90.00000000
_symmetry_Int_Tables_number   1
_chemical_formula_structural   MgV8O20
_chemical_formula_sum   'Mg1 V8 O20'
_cell_volume   417.71838649
_cell_formula_units_Z   1
loop_
 _symmetry_equiv_pos_site_id
 _symmetry_equiv_pos_as_xyz
  1  'x, y, z'
loop_
 _atom_site_type_symbol
 _atom_site_label
 _atom_site_symmetry_multiplicity
 _atom_site_fract_x
 _atom_site_fract_y
 _atom_site_fract_z
 _atom_site_occupancy
  Mg  Mg0  1  0.25244800  0.75000000  0.28996500  1
  V  V0  1  0.12027900  0.75000000  0.99476600  1
  V  V1  1  0.37410800  0.25000000  0.50131100  1
  V  V2  1  0.62349600  0.75000000  0.48809600  1
  V  V3  1  0.87203800  0.25000000  0.98722700  1
  V  V4  1  0.06894200  0.25000000  0.61589800  1
  V  V5  1  0.42775100  0.75000000  0.08435100  1
  V  V6  1  0.56820500  0.25000000  0.90421400  1
  V  V7  1  0.93753800  0.75000000  0.42921100  1
  O  O0  1  0.04277300  0.75000000  0.31406600  1
  O  O1  1  0.05073000  0.75000000  0.56432500  1
  O  O2  1  0.06753900  0.25000000  0.01680800  1
  O  O3  1  0.21344800  0.75000000  0.87710700  1
  O  O4  1  0.24326800  0.25000000  0.62281300  1
  O  O5  1  0.23346400  0.75000000  0.11538800  1
  O  O6  1  0.27989900  0.25000000  0.37430000  1
  O  O7  1  0.42605500  0.75000000  0.52152200  1
  O  O8  1  0.42624600  0.25000000  0.02480900  1
  O  O9  1  0.50248900  0.25000000  0.77632400  1
  O  O10  1  0.45516000  0.75000000  0.22978200  1
  O  O11  1  0.57038300  0.75000000  0.95852400  1
  O  O12  1  0.57255400  0.25000000  0.46431000  1
  O  O13  1  0.69628200  0.75000000  0.61207600  1
  O  O14  1  0.74897600  0.25000000  0.87613700  1
  O  O15  1  0.76791900  0.75000000  0.38306700  1
  O  O16  1  0.78981900  0.25000000  0.11149900  1
  O  O17  1  0.92599500  0.75000000  0.96593600  1
  O  O18  1  0.93684300  0.25000000  0.47983200  1
  O  O19  1  0.00535300  0.25000000  0.74758600  1
loop_
_geom_bond_atom_site_label_1
_geom_bond_atom_site_label_2
_geom_bond_distance
_geom_bond_site_symmetry_2
Mg0 O5 1.995811 1_555
Mg0 O6 2.090351 1_565
Mg0 O6 2.090351 1_555
Mg0 O0 2.115109 1_555
Mg0 O10 2.128364 1_555
O0 V7 1.657093 1_455
O1 V7 1.934269 1_455
O1 V4 1.935113 1_555
O1 V4 1.935113 1_565
O2 V0 1.923032 1_554
O2 V0 1.923032 1_544
O2 V3 2.000626 1_454
O3 V0 1.608565 1_555
O4 V4 1.754170 1_555
O4 V1 1.877410 1_555
O5 V0 1.803691 1_554
O5 V5 1.972329 1_555
O6 V1 1.746291 1_555
O7 V1 1.921970 1_555
O7 V1 1.921970 1_565
O7 V2 2.007682 1_555
O8 V6 1.947886 1_554
O8 V5 1.954492 1_555
O8 V5 1.954492 1_545
O9 V6 1.611255 1_555
O10 V5 1.680963 1_555
O11 V6 1.934877 1_555
O11 V6 1.934877 1_565
O11 V5 1.993565 1_556
O12 V2 1.924798 1_555
O12 V2 1.924798 1_545
O12 V1 2.024484 1_555
O13 V2 1.603742 1_555
O14 V3 1.790010 1_555
O14 V6 1.833773 1_555
O15 V7 1.795739 1_555
O15 V2 1.850833 1_555
O16 V3 1.613930 1_554
O17 V3 1.925366 1_555
O17 V3 1.925366 1_565
O17 V0 1.986924 1_655
O18 V7 1.921580 1_555
O18 V7 1.921580 1_545
O18 V4 2.063828 1_655
O19 V4 1.608519 1_555
