# generated using pymatgen
data_Na6La5Nb3(PO4)12
_symmetry_space_group_name_H-M   'P 1'
_cell_length_a   18.58804650
_cell_length_b   9.29185982
_cell_length_c   23.86111986
_cell_angle_alpha   90.07417104
_cell_angle_beta   89.89812907
_cell_angle_gamma   119.93595146
_symmetry_Int_Tables_number   1
_chemical_formula_structural   Na6La5Nb3(PO4)12
_chemical_formula_sum   'Na18 La15 Nb9 P36 O144'
_cell_volume   3571.38811479
_cell_formula_units_Z   3
loop_
 _symmetry_equiv_pos_site_id
 _symmetry_equiv_pos_as_xyz
  1  'x, y, z'
loop_
 _atom_site_type_symbol
 _atom_site_label
 _atom_site_symmetry_multiplicity
 _atom_site_fract_x
 _atom_site_fract_y
 _atom_site_fract_z
 _atom_site_occupancy
  Na  Na0  1  0.67911604  0.36938170  0.25160510  1
  Na  Na1  1  0.00406304  0.63885853  0.25251239  1
  Na  Na2  1  0.00170473  0.36945654  0.74962079  1
  Na  Na3  1  0.50172923  0.36944216  0.74988921  1
  Na  Na4  1  0.18145173  0.99243162  0.74916214  1
  Na  Na5  1  0.68132771  0.99236380  0.74950615  1
  Na  Na6  1  0.00056768  0.99961800  0.50210231  1
  Na  Na7  1  0.49990612  0.00052586  0.50261790  1
  Na  Na8  1  0.99856010  0.99644551  0.00264669  1
  Na  Na9  1  0.50219676  0.00524827  0.00159123  1
  Na  Na10  1  0.33354602  0.34414553  0.83463310  1
  Na  Na11  1  0.83305282  0.34361939  0.83525020  1
  Na  Na12  1  0.33285164  0.33227978  0.33486003  1
  Na  Na13  1  0.83332618  0.32182924  0.33551166  1
  Na  Na14  1  0.17250110  0.66456951  0.16725596  1
  Na  Na15  1  0.66698211  0.68178586  0.16729511  1
  Na  Na16  1  0.17342637  0.66703420  0.66112823  1
  Na  Na17  1  0.67322048  0.66661141  0.66183980  1
  La  La0  1  0.99735884  0.99456482  0.64370436  1
  La  La1  1  0.49727848  0.99426528  0.64364617  1
  La  La2  1  0.99784765  0.00191564  0.14602826  1
  La  La3  1  0.49989315  0.99970115  0.14481715  1
  La  La4  1  0.33286288  0.34582877  0.67690052  1
  La  La5  1  0.83315848  0.34577161  0.67703301  1
  La  La6  1  0.83288052  0.31742884  0.18068370  1
  La  La7  1  0.33315185  0.33089174  0.97984877  1
  La  La8  1  0.83353672  0.33260047  0.98171050  1
  La  La9  1  0.33296383  0.33166606  0.48151932  1
  La  La10  1  0.83367201  0.33383405  0.48049382  1
  La  La11  1  0.17398538  0.67070581  0.31599897  1
  La  La12  1  0.66529915  0.67380691  0.31735112  1
  La  La13  1  0.17158737  0.66598903  0.82088154  1
  La  La14  1  0.67198673  0.66696967  0.82107406  1
  Nb  Nb0  1  0.00242510  0.00620661  0.35445843  1
  Nb  Nb1  1  0.49645271  0.99512093  0.35414918  1
  Nb  Nb2  1  0.99821053  0.99715742  0.85680476  1
  Nb  Nb3  1  0.49852961  0.99691194  0.85600050  1
  Nb  Nb4  1  0.33382731  0.33612262  0.18414317  1
  Nb  Nb5  1  0.16972196  0.67142215  0.01732792  1
  Nb  Nb6  1  0.66342839  0.66127146  0.01512863  1
  Nb  Nb7  1  0.16539170  0.66631833  0.51275644  1
  Nb  Nb8  1  0.66599964  0.66788338  0.51276910  1
  P  P0  1  0.14971550  0.01668025  0.25022483  1
  P  P1  1  0.64389316  0.00946130  0.25437338  1
  P  P2  1  0.35913834  0.69753989  0.24981519  1
  P  P3  1  0.85806682  0.70739368  0.25501232  1
  P  P4  1  0.99698896  0.28838751  0.25523762  1
  P  P5  1  0.49096322  0.28126800  0.25082127  1
  P  P6  1  0.14158606  0.27832055  0.75516359  1
  P  P7  1  0.64183591  0.27891289  0.75494039  1
  P  P8  1  0.99823194  0.71028419  0.75615370  1
  P  P9  1  0.49833315  0.70979482  0.75596065  1
  P  P10  1  0.35769063  0.00843028  0.75505228  1
  P  P11  1  0.85780419  0.00815828  0.75516094  1
  P  P12  1  0.49395685  0.35067103  0.58042044  1
  P  P13  1  0.99358816  0.35064398  0.58044330  1
  P  P14  1  0.18154104  0.01272722  0.58084547  1
  P  P15  1  0.68196458  0.01390934  0.58054426  1
  P  P16  1  0.32428020  0.63776078  0.57725090  1
  P  P17  1  0.82439902  0.63768278  0.57732633  1
  P  P18  1  0.48432042  0.61458492  0.08318641  1
  P  P19  1  0.99295979  0.63734466  0.08047383  1
  P  P20  1  0.32322726  0.03186589  0.08368778  1
  P  P21  1  0.82480812  0.01086210  0.07720922  1
  P  P22  1  0.19284930  0.35558800  0.08364944  1
  P  P23  1  0.68113223  0.34703846  0.08038595  1
  P  P24  1  0.32110955  0.68587909  0.91867382  1
  P  P25  1  0.81974106  0.68381563  0.91869955  1
  P  P26  1  0.02434499  0.36374677  0.91661984  1
  P  P27  1  0.52251872  0.36025483  0.91462501  1
  P  P28  1  0.15722880  0.95215125  0.91595438  1
  P  P29  1  0.65723362  0.95415535  0.91566997  1
  P  P30  1  0.31905627  0.95430491  0.41676961  1
  P  P31  1  0.82024808  0.95412120  0.41618437  1
  P  P32  1  0.15779380  0.36159908  0.41657581  1
  P  P33  1  0.65701265  0.36101228  0.41349036  1
  P  P34  1  0.02409981  0.68509199  0.41322747  1
  P  P35  1  0.52165219  0.68475382  0.41655380  1
  O  O0  1  0.10290055  0.03492597  0.30374701  1
  O  O1  1  0.58659016  0.01043716  0.30532983  1
  O  O2  1  0.41312129  0.79161295  0.30363690  1
  O  O3  1  0.91612528  0.82175975  0.30571944  1
  O  O4  1  0.48038938  0.16425023  0.30342080  1
  O  O5  1  0.99766876  0.17739155  0.30680774  1
  O  O6  1  0.08794963  0.16742636  0.80745411  1
  O  O7  1  0.58806438  0.16758490  0.80722881  1
  O  O8  1  0.49564185  0.81680420  0.80811480  1
  O  O9  1  0.99561688  0.81720982  0.80833372  1
  O  O10  1  0.41202633  0.00545150  0.80726119  1
  O  O11  1  0.91204980  0.00528026  0.80744851  1
  O  O12  1  0.39699982  0.99301502  0.70165305  1
  O  O13  1  0.89695743  0.99255097  0.70172063  1
  O  O14  1  0.09454126  0.20058597  0.70159150  1
  O  O15  1  0.59448335  0.20071165  0.70149797  1
  O  O16  1  0.00843910  0.80750837  0.70295996  1
  O  O17  1  0.50843389  0.80732483  0.70291156  1
  O  O18  1  0.39666766  0.79817101  0.19785250  1
  O  O19  1  0.89608546  0.79970113  0.20106289  1
  O  O20  1  0.00322642  0.20983846  0.20131775  1
  O  O21  1  0.50767320  0.20980025  0.19889670  1
  O  O22  1  0.09628620  0.98413471  0.19878195  1
  O  O23  1  0.60021004  0.99995485  0.20012576  1
  O  O24  1  0.46272482  0.38291842  0.63765670  1
  O  O25  1  0.96236025  0.38267413  0.63772195  1
  O  O26  1  0.22834642  0.07614283  0.63808380  1
  O  O27  1  0.72846847  0.07641218  0.63786667  1
  O  O28  1  0.30809022  0.53979553  0.63338816  1
  O  O29  1  0.80804099  0.53965463  0.63339209  1
  O  O30  1  0.43236223  0.49687713  0.13608371  1
  O  O31  1  0.96274969  0.54218953  0.13696398  1
  O  O32  1  0.31526064  0.13366604  0.13593419  1
  O  O33  1  0.80790061  0.07558637  0.13289397  1
  O  O34  1  0.25213132  0.37063553  0.13633466  1
  O  O35  1  0.72752628  0.37937112  0.13722774  1
  O  O36  1  0.22918026  0.32770076  0.03156269  1
  O  O37  1  0.72830029  0.32562663  0.03270806  1
  O  O38  1  0.43417590  0.54047095  0.03124626  1
  O  O39  1  0.93562397  0.54456499  0.03263783  1
  O  O40  1  0.33655153  0.12990418  0.03113160  1
  O  O41  1  0.83733548  0.12445154  0.02877955  1
  O  O42  1  0.22898909  0.13128519  0.53394003  1
  O  O43  1  0.72955290  0.13235176  0.53356681  1
  O  O44  1  0.33725628  0.54749964  0.52947571  1
  O  O45  1  0.83730924  0.54749166  0.52938494  1
  O  O46  1  0.43482001  0.32726886  0.53355224  1
  O  O47  1  0.93435427  0.32742802  0.53355640  1
  O  O48  1  0.26951583  0.70256943  0.96906914  1
  O  O49  1  0.76617228  0.69841932  0.96782462  1
  O  O50  1  0.08630648  0.46988427  0.96623010  1
  O  O51  1  0.58251730  0.46674383  0.96440072  1
  O  O52  1  0.15241643  0.83213139  0.96572440  1
  O  O53  1  0.64837777  0.83139421  0.96524504  1
  O  O54  1  0.26843412  0.83564350  0.46694560  1
  O  O55  1  0.76876167  0.83593113  0.46675880  1
  O  O56  1  0.14949993  0.46373199  0.46719995  1
  O  O57  1  0.64872740  0.46566480  0.46336259  1
  O  O58  1  0.08399072  0.70068393  0.46366306  1
  O  O59  1  0.58168780  0.70309944  0.46687459  1
  O  O60  1  0.05812637  0.66068381  0.35858558  1
  O  O61  1  0.55668156  0.65749304  0.36339748  1
  O  O62  1  0.27154853  0.88762292  0.36319879  1
  O  O63  1  0.77183685  0.88254402  0.36308587  1
  O  O64  1  0.16959637  0.45741075  0.36345719  1
  O  O65  1  0.66918328  0.45135511  0.35840498  1
  O  O66  1  0.05603296  0.45217893  0.86087068  1
  O  O67  1  0.55490956  0.45000281  0.85930541  1
  O  O68  1  0.16878946  0.88738503  0.86029191  1
  O  O69  1  0.66899876  0.88899738  0.86003440  1
  O  O70  1  0.27433013  0.65786963  0.86453766  1
  O  O71  1  0.77433702  0.65682914  0.86396717  1
  O  O72  1  0.02117685  0.85318907  0.40765455  1
  O  O73  1  0.51816600  0.85222003  0.40925872  1
  O  O74  1  0.40514689  0.95721525  0.40901849  1
  O  O75  1  0.90789424  0.96294102  0.40921988  1
  O  O76  1  0.07426217  0.18710874  0.41055544  1
  O  O77  1  0.57257997  0.18572737  0.40670597  1
  O  O78  1  0.01994190  0.18827351  0.91110218  1
  O  O79  1  0.51951736  0.18689353  0.91053817  1
  O  O80  1  0.07357348  0.95885650  0.91178432  1
  O  O81  1  0.57372403  0.96180919  0.91098839  1
  O  O82  1  0.40688218  0.85340152  0.91252388  1
  O  O83  1  0.90602708  0.85203847  0.91238207  1
  O  O84  1  0.51081351  0.20545784  0.58243866  1
  O  O85  1  0.01074619  0.20593223  0.58245070  1
  O  O86  1  0.09217872  0.97930098  0.58254847  1
  O  O87  1  0.59247426  0.97975195  0.58234868  1
  O  O88  1  0.39701376  0.81571351  0.58069230  1
  O  O89  1  0.89691260  0.81567565  0.58073851  1
  O  O90  1  0.50090802  0.79031954  0.09181428  1
  O  O91  1  0.01214967  0.81741142  0.08201543  1
  O  O92  1  0.39311245  0.99504511  0.09239789  1
  O  O93  1  0.89714696  0.97682418  0.08008731  1
  O  O94  1  0.10488902  0.21509980  0.09333369  1
  O  O95  1  0.59147714  0.20322064  0.08068435  1
  O  O96  1  0.35850702  0.17703320  0.75765799  1
  O  O97  1  0.85853052  0.17666826  0.75766092  1
  O  O98  1  0.22550878  0.28001474  0.75672701  1
  O  O99  1  0.72556749  0.28006635  0.75662949  1
  O  O100  1  0.41998199  0.53529022  0.75691038  1
  O  O101  1  0.92001307  0.53546905  0.75685727  1
  O  O102  1  0.35426985  0.52040441  0.24018767  1
  O  O103  1  0.85916144  0.54063028  0.25727161  1
  O  O104  1  0.41033851  0.29651008  0.24116050  1
  O  O105  1  0.91572755  0.29769861  0.25825735  1
  O  O106  1  0.23779662  0.17929234  0.24045870  1
  O  O107  1  0.72625770  0.17934236  0.25835020  1
  O  O108  1  0.33823306  0.54406758  0.92588139  1
  O  O109  1  0.83790144  0.54316974  0.92598169  1
  O  O110  1  0.43492221  0.32747710  0.92325270  1
  O  O111  1  0.93664166  0.33138361  0.92492278  1
  O  O112  1  0.22827971  0.12770190  0.92411849  1
  O  O113  1  0.72885390  0.12955282  0.92394728  1
  O  O114  1  0.33850131  0.13202891  0.42472497  1
  O  O115  1  0.83694662  0.13039327  0.42411593  1
  O  O116  1  0.22841178  0.32586434  0.42419063  1
  O  O117  1  0.72761663  0.32610771  0.42306673  1
  O  O118  1  0.43368690  0.54341151  0.42473550  1
  O  O119  1  0.93632951  0.54302512  0.42284731  1
  O  O120  1  0.18894739  0.52259133  0.07540279  1
  O  O121  1  0.67541283  0.50993600  0.06518620  1
  O  O122  1  0.07994159  0.64412324  0.06515268  1
  O  O123  1  0.57146255  0.62402604  0.07584117  1
  O  O124  1  0.24033023  0.85692584  0.07463778  1
  O  O125  1  0.74170769  0.83761064  0.06497872  1
  O  O126  1  0.17590793  0.83987859  0.56661995  1
  O  O127  1  0.67643771  0.84056761  0.56650792  1
  O  O128  1  0.24327289  0.64871470  0.56571914  1
  O  O129  1  0.74309327  0.64778201  0.56547625  1
  O  O130  1  0.07978221  0.51335439  0.56653743  1
  O  O131  1  0.58042110  0.51253165  0.56620724  1
  O  O132  1  0.16094310  0.86485889  0.25731361  1
  O  O133  1  0.65796756  0.86191230  0.25696155  1
  O  O134  1  0.26979532  0.65939342  0.25583175  1
  O  O135  1  0.76749179  0.66862111  0.25794130  1
  O  O136  1  0.07042391  0.46759011  0.25746097  1
  O  O137  1  0.56727800  0.45404582  0.25897835  1
  O  O138  1  0.14900165  0.45022792  0.75858636  1
  O  O139  1  0.64919958  0.45067146  0.75853832  1
  O  O140  1  0.07665571  0.69230481  0.75976024  1
  O  O141  1  0.57678125  0.69214598  0.75967244  1
  O  O142  1  0.26716253  0.86554086  0.75723407  1
  O  O143  1  0.76720044  0.86534676  0.75721552  1
loop_
_geom_bond_atom_site_label_1
_geom_bond_atom_site_label_2
_geom_bond_distance
_geom_bond_site_symmetry_2
Na0 O107 2.336118 1_555
Na0 O135 2.427673 1_555
Na0 O137 2.569441 1_555
Na0 O65 2.691110 1_555
Na0 O35 2.859246 1_555
Na1 O103 2.376162 1_455
Na1 O136 2.455260 1_555
Na1 O132 2.610615 1_555
Na1 O60 2.694701 1_555
Na1 O105 2.751212 1_455
Na1 O31 2.882863 1_455
Na2 O97 2.359949 1_455
Na2 O138 2.460942 1_555
Na2 O140 2.612798 1_555
Na2 O101 2.655435 1_455
Na2 O25 2.788628 1_455
Na2 O66 2.808340 1_555
Na3 O96 2.359417 1_555
Na3 O139 2.462320 1_555
Na3 O141 2.610772 1_555
Na3 O100 2.654682 1_555
Na3 O67 2.760314 1_555
Na3 O24 2.794881 1_555
Na4 O98 2.378858 1_565
Na4 O142 2.417030 1_555
Na4 O140 2.492747 1_555
Na4 O26 2.776719 1_565
Na4 O68 2.795483 1_555
Na4 O96 2.860407 1_565
Na4 O16 3.000461 1_555
Na5 O99 2.378414 1_565
Na5 O143 2.420017 1_555
Na5 O141 2.491310 1_555
Na5 O69 2.777632 1_555
Na5 O27 2.790677 1_565
Na5 O97 2.862100 1_565
Na5 O17 3.002231 1_555
Na6 O89 2.619728 1_455
Na6 O86 2.636937 1_555
Na6 O85 2.648828 1_565
Na6 O76 2.701951 1_565
Na6 O75 2.724177 1_455
Na6 O72 2.754275 1_555
Na7 O88 2.606729 1_545
Na7 O84 2.627031 1_555
Na7 O87 2.638445 1_545
Na7 O73 2.726320 1_545
Na7 O74 2.748936 1_545
Na7 O77 2.775392 1_555
Na8 O93 2.578108 1_555
Na8 O91 2.616694 1_655
Na8 O83 2.664590 1_554
Na8 O80 2.690748 1_654
Na8 O78 2.721470 1_664
Na8 O94 2.951720 1_665
Na9 O95 2.579721 1_555
Na9 O81 2.669738 1_544
Na9 O79 2.671585 1_554
Na9 O82 2.675271 1_544
Na9 O90 2.930321 1_545
Na9 O92 2.933983 1_545
Na10 O100 2.514979 1_555
Na10 O98 2.580624 1_555
Na10 O96 2.590091 1_555
Na10 O108 2.833319 1_555
Na10 O110 2.890083 1_555
Na10 O112 2.915691 1_555
Na11 O101 2.532098 1_555
Na11 O99 2.587025 1_555
Na11 O97 2.604038 1_555
Na11 O109 2.820762 1_555
Na11 O113 2.887605 1_555
Na11 O111 2.921056 1_555
Na12 O102 2.762169 1_555
Na12 O104 2.765525 1_555
Na12 O106 2.777687 1_555
Na12 O116 2.861093 1_555
Na12 O114 2.877035 1_555
Na12 O118 2.879975 1_555
Na13 O105 2.475076 1_555
Na13 O107 2.545682 1_555
Na13 O103 2.623257 1_555
Na13 O115 2.787148 1_555
Na13 O117 2.879287 1_555
Na13 O119 2.882437 1_555
Na14 O120 2.651440 1_555
Na14 O124 2.723860 1_555
Na14 O134 2.800115 1_555
Na14 O136 2.848254 1_555
Na14 O132 2.917950 1_555
Na14 O122 2.935854 1_555
Na15 O123 2.694840 1_555
Na15 O133 2.770628 1_555
Na15 O125 2.824173 1_555
Na15 O135 2.902895 1_555
Na15 O121 2.957849 1_555
Na15 O137 2.963435 1_555
Na16 O128 2.665784 1_555
Na16 O126 2.757161 1_555
Na16 O130 2.772737 1_555
Na16 O142 2.914180 1_555
Na16 O138 2.961041 1_555
Na16 O140 3.038853 1_555
Na17 O129 2.686931 1_555
Na17 O127 2.775461 1_555
Na17 O131 2.788010 1_555
Na17 O143 2.902491 1_555
Na17 O139 2.943348 1_555
Na17 O141 3.021152 1_555
La0 O13 2.314239 1_555
La0 O14 2.320842 1_665
La0 O89 2.326441 1_555
La0 O16 2.329642 1_655
La0 O86 2.344311 1_655
La0 O85 2.360885 1_665
La1 O12 2.315078 1_555
La1 O15 2.322218 1_565
La1 O88 2.323767 1_555
La1 O17 2.329577 1_555
La1 O87 2.348842 1_555
La1 O84 2.358084 1_565
La2 O22 2.295720 1_645
La2 O19 2.298523 1_545
La2 O20 2.298724 1_655
La2 O94 2.351070 1_655
La2 O93 2.368064 1_545
La2 O91 2.406130 1_645
La3 O18 2.280590 1_555
La3 O21 2.282441 1_565
La3 O23 2.285415 1_555
La3 O90 2.327050 1_555
La3 O92 2.330004 1_555
La3 O95 2.366672 1_565
La4 O28 2.318015 1_555
La4 O24 2.446414 1_555
La4 O26 2.460309 1_555
La4 O100 2.554075 1_555
La4 O98 2.599158 1_555
La4 O96 2.675376 1_555
La5 O29 2.322482 1_555
La5 O25 2.436406 1_555
La5 O27 2.462486 1_555
La5 O101 2.550155 1_555
La5 O99 2.598158 1_555
La5 O97 2.672696 1_555
La6 O33 2.349367 1_555
La6 O105 2.474686 1_555
La6 O31 2.498450 1_555
La6 O35 2.524919 1_555
La6 O107 2.542385 1_555
La6 O103 2.619498 1_555
La7 O40 2.261209 1_556
La7 O38 2.274831 1_556
La7 O36 2.278814 1_556
La7 O108 2.325976 1_555
La7 O110 2.335379 1_555
La7 O112 2.337172 1_555
La8 O41 2.269207 1_556
La8 O37 2.275226 1_556
La8 O39 2.286591 1_556
La8 O109 2.334726 1_555
La8 O111 2.349809 1_555
La8 O113 2.363118 1_555
La9 O42 2.274301 1_555
La9 O44 2.274305 1_555
La9 O46 2.283300 1_555
La9 O114 2.339164 1_555
La9 O118 2.352355 1_555
La9 O116 2.357054 1_555
La10 O45 2.273140 1_555
La10 O47 2.286679 1_555
La10 O43 2.288111 1_555
La10 O115 2.344085 1_555
La10 O119 2.367949 1_555
La10 O117 2.374273 1_555
La11 O62 2.230011 1_555
La11 O64 2.249681 1_555
La11 O134 2.328345 1_555
La11 O60 2.339129 1_555
La11 O136 2.365439 1_555
La11 O132 2.391325 1_555
La12 O61 2.234627 1_555
La12 O63 2.245698 1_555
La12 O65 2.322004 1_555
La12 O133 2.322687 1_555
La12 O135 2.387845 1_555
La12 O137 2.391193 1_555
La13 O70 2.211146 1_555
La13 O66 2.282462 1_555
La13 O68 2.284864 1_555
La13 O138 2.357861 1_555
La13 O142 2.368683 1_555
La13 O140 2.396101 1_555
La14 O71 2.204983 1_555
La14 O69 2.287509 1_555
La14 O67 2.291594 1_555
La14 O139 2.364355 1_555
La14 O143 2.365057 1_555
La14 O141 2.399240 1_555
Nb0 O5 1.994009 1_455
Nb0 O3 2.029925 1_445
Nb0 O76 2.039743 1_555
Nb0 O75 2.060272 1_445
Nb0 O72 2.062790 1_545
Nb0 O0 2.125758 1_555
Nb1 O1 1.984929 1_565
Nb1 O74 2.028626 1_555
Nb1 O73 2.048521 1_555
Nb1 O77 2.052082 1_565
Nb1 O4 2.120976 1_565
Nb1 O2 2.122527 1_555
Nb2 O6 2.008999 1_665
Nb2 O9 2.012577 1_555
Nb2 O11 2.021197 1_565
Nb2 O83 2.050242 1_555
Nb2 O78 2.067669 1_665
Nb2 O80 2.077347 1_655
Nb3 O7 2.000696 1_565
Nb3 O8 2.003687 1_555
Nb3 O10 2.019520 1_565
Nb3 O82 2.056332 1_555
Nb3 O81 2.060140 1_555
Nb3 O79 2.066493 1_565
Nb4 O30 2.041395 1_555
Nb4 O34 2.050217 1_555
Nb4 O102 2.052131 1_555
Nb4 O32 2.080644 1_555
Nb4 O106 2.125065 1_555
Nb4 O104 2.130658 1_555
Nb5 O122 1.929530 1_555
Nb5 O124 2.075094 1_555
Nb5 O48 2.075598 1_554
Nb5 O52 2.082095 1_554
Nb5 O120 2.111962 1_555
Nb5 O50 2.121414 1_554
Nb6 O121 1.942059 1_555
Nb6 O125 1.959180 1_555
Nb6 O51 2.069256 1_554
Nb6 O49 2.091875 1_554
Nb6 O53 2.107429 1_554
Nb6 O123 2.131364 1_555
Nb7 O130 1.984766 1_555
Nb7 O128 1.990706 1_555
Nb7 O126 1.992925 1_555
Nb7 O58 2.062309 1_555
Nb7 O56 2.062329 1_555
Nb7 O54 2.080432 1_555
Nb8 O127 1.985271 1_555
Nb8 O129 1.986020 1_555
Nb8 O131 1.986399 1_555
Nb8 O59 2.069120 1_555
Nb8 O55 2.076599 1_555
Nb8 O57 2.101661 1_555
O0 P0 1.599907 1_555
O1 P1 1.618021 1_555
O2 P2 1.595778 1_555
O3 P3 1.616962 1_555
O4 P5 1.607942 1_555
O5 P4 1.610711 1_555
O6 P6 1.608139 1_555
O7 P7 1.610193 1_555
O8 P9 1.608123 1_555
O9 P8 1.607629 1_555
O10 P10 1.614077 1_555
O11 P11 1.614157 1_555
O12 P10 1.509498 1_565
O13 P11 1.509389 1_565
O14 P6 1.513809 1_555
O15 P7 1.513973 1_555
O16 P8 1.514657 1_455
O17 P9 1.513637 1_555
O18 P2 1.499061 1_555
O19 P3 1.512238 1_555
O20 P4 1.510945 1_455
O21 P5 1.508276 1_555
O22 P0 1.512656 1_565
O23 P1 1.508135 1_565
O24 P12 1.568995 1_555
O25 P13 1.569084 1_555
O26 P14 1.568425 1_555
O27 P15 1.567296 1_555
O28 P16 1.562608 1_555
O29 P17 1.561121 1_555
O30 P18 1.633123 1_555
O31 P19 1.555257 1_555
O32 P20 1.614599 1_555
O33 P21 1.552739 1_555
O34 P22 1.632447 1_555
O35 P23 1.555006 1_555
O36 P22 1.496232 1_555
O37 P23 1.507483 1_555
O38 P18 1.496756 1_555
O39 P19 1.505545 1_555
O40 P20 1.496829 1_555
O41 P21 1.503495 1_555
O42 P14 1.507997 1_555
O43 P15 1.509375 1_555
O44 P16 1.503184 1_555
O45 P17 1.505243 1_555
O46 P12 1.507130 1_555
O47 P13 1.509034 1_555
O48 P24 1.591735 1_555
O49 P25 1.585625 1_555
O50 P26 1.602676 1_555
O51 P27 1.591788 1_555
O52 P28 1.601716 1_555
O53 P29 1.594658 1_555
O54 P30 1.580651 1_555
O55 P31 1.590152 1_555
O56 P32 1.589311 1_555
O57 P33 1.590990 1_555
O58 P34 1.597484 1_555
O59 P35 1.590745 1_555
O60 P34 1.513567 1_555
O61 P35 1.502576 1_555
O62 P30 1.501181 1_555
O63 P31 1.503964 1_555
O64 P32 1.501395 1_555
O65 P33 1.515178 1_555
O66 P26 1.519424 1_555
O67 P27 1.516314 1_555
O68 P28 1.516034 1_555
O69 P29 1.518468 1_555
O70 P24 1.506554 1_555
O71 P25 1.507512 1_555
O72 P34 1.595474 1_555
O73 P35 1.599138 1_555
O74 P30 1.597350 1_555
O75 P31 1.598232 1_555
O76 P32 1.596199 1_555
O77 P33 1.609681 1_555
O78 P26 1.596487 1_555
O79 P27 1.586624 1_555
O80 P28 1.590294 1_555
O81 P29 1.593088 1_555
O82 P24 1.584069 1_555
O83 P25 1.592494 1_555
O84 P12 1.530781 1_555
O85 P13 1.529809 1_455
O86 P14 1.530409 1_565
O87 P15 1.530523 1_565
O88 P16 1.528904 1_555
O89 P17 1.527701 1_555
O90 P18 1.516797 1_555
O91 P19 1.527175 1_455
O92 P20 1.514084 1_565
O93 P21 1.528932 1_565
O94 P22 1.516558 1_555
O95 P23 1.529831 1_555
O96 P10 1.560277 1_555
O97 P11 1.560142 1_555
O98 P6 1.552678 1_555
O99 P7 1.551681 1_555
O100 P9 1.547197 1_555
O101 P8 1.547771 1_555
O102 P2 1.618778 1_555
O103 P3 1.560797 1_555
O104 P5 1.591326 1_555
O105 P4 1.557012 1_555
O106 P0 1.596384 1_555
O107 P1 1.559732 1_555
O108 P24 1.512145 1_555
O109 P25 1.514307 1_555
O110 P27 1.513392 1_555
O111 P26 1.515606 1_655
O112 P28 1.514243 1_545
O113 P29 1.517263 1_545
O114 P30 1.515736 1_545
O115 P31 1.518836 1_545
O116 P32 1.517344 1_555
O117 P33 1.518502 1_555
O118 P35 1.514190 1_555
O119 P34 1.518864 1_655
O120 P22 1.601608 1_555
O121 P23 1.611227 1_555
O122 P19 1.627282 1_455
O123 P18 1.587255 1_555
O124 P20 1.601146 1_565
O125 P21 1.606635 1_565
O126 P14 1.592658 1_565
O127 P15 1.597045 1_565
O128 P16 1.583641 1_555
O129 P17 1.586180 1_555
O130 P13 1.595198 1_455
O131 P12 1.595915 1_555
O132 P0 1.535198 1_565
O133 P1 1.519924 1_565
O134 P2 1.521839 1_555
O135 P3 1.537367 1_555
O136 P4 1.539555 1_455
O137 P5 1.534523 1_555
O138 P6 1.535289 1_555
O139 P7 1.534550 1_555
O140 P8 1.550445 1_455
O141 P9 1.549271 1_555
O142 P10 1.538552 1_565
O143 P11 1.539158 1_565
