# generated using pymatgen
data_Na5Zr2Ga2SiP5O24
_symmetry_space_group_name_H-M   'P 1'
_cell_length_a   8.92650783
_cell_length_b   8.91401432
_cell_length_c   22.46563534
_cell_angle_alpha   90.00248305
_cell_angle_beta   89.89134562
_cell_angle_gamma   119.89117856
_symmetry_Int_Tables_number   1
_chemical_formula_structural   Na5Zr2Ga2SiP5O24
_chemical_formula_sum   'Na15 Zr6 Ga6 Si3 P15 O72'
_cell_volume   1549.80987640
_cell_formula_units_Z   3
loop_
 _symmetry_equiv_pos_site_id
 _symmetry_equiv_pos_as_xyz
  1  'x, y, z'
loop_
 _atom_site_type_symbol
 _atom_site_label
 _atom_site_symmetry_multiplicity
 _atom_site_fract_x
 _atom_site_fract_y
 _atom_site_fract_z
 _atom_site_occupancy
  Na  Na0  1  0.00255249  0.63393759  0.25338071  1
  Na  Na1  1  0.63247695  0.64112425  0.75362774  1
  Na  Na2  1  0.36270695  0.99520038  0.75490854  1
  Na  Na3  1  0.66330088  0.96816964  0.58490270  1
  Na  Na4  1  0.29614104  0.96963532  0.08494321  1
  Na  Na5  1  0.67483680  0.70029075  0.08309133  1
  Na  Na6  1  0.02899683  0.33143553  0.08640338  1
  Na  Na7  1  0.96701126  0.29958985  0.41471319  1
  Na  Na8  1  0.33668687  0.03417247  0.41727300  1
  Na  Na9  1  0.00214118  0.98688426  0.49747502  1
  Na  Na10  1  0.00067288  0.99638134  0.99967487  1
  Na  Na11  1  0.67858422  0.33008225  0.84067972  1
  Na  Na12  1  0.65609926  0.33580233  0.33712945  1
  Na  Na13  1  0.34259518  0.66740596  0.17497578  1
  Na  Na14  1  0.31416774  0.65151060  0.67016825  1
  Zr  Zr0  1  0.99646947  0.00310003  0.85662814  1
  Zr  Zr1  1  0.00559181  0.00115744  0.64645789  1
  Zr  Zr2  1  0.66866646  0.32858665  0.68587169  1
  Zr  Zr3  1  0.66494617  0.32997830  0.19011388  1
  Zr  Zr4  1  0.33038530  0.66752038  0.01613071  1
  Zr  Zr5  1  0.33251741  0.66614182  0.51754110  1
  Ga  Ga0  1  0.99532942  0.99648286  0.34952681  1
  Ga  Ga1  1  0.99728179  0.99403811  0.15300025  1
  Ga  Ga2  1  0.67227710  0.34207294  0.97976056  1
  Ga  Ga3  1  0.66178453  0.33953216  0.48170953  1
  Ga  Ga4  1  0.34101985  0.66593278  0.31549327  1
  Ga  Ga5  1  0.33416691  0.66829499  0.81899751  1
  Si  Si0  1  0.69668359  0.99274820  0.75079024  1
  Si  Si1  1  0.37478443  0.04623681  0.57821843  1
  Si  Si2  1  0.95381157  0.62862435  0.08407428  1
  P  P0  1  0.28425575  0.99242433  0.25321391  1
  P  P1  1  0.70693360  0.71845623  0.25110774  1
  P  P2  1  0.00966512  0.28974969  0.25149726  1
  P  P3  1  0.29030984  0.30116850  0.75193423  1
  P  P4  1  0.00689423  0.70622319  0.75287350  1
  P  P5  1  0.95497687  0.33354262  0.57812135  1
  P  P6  1  0.66883982  0.62198566  0.58110296  1
  P  P7  1  0.67381721  0.04810327  0.08167359  1
  P  P8  1  0.37442467  0.32654276  0.08226228  1
  P  P9  1  0.62352212  0.65433574  0.91564984  1
  P  P10  1  0.03518700  0.38059894  0.91586535  1
  P  P11  1  0.34693539  0.97295235  0.91566341  1
  P  P12  1  0.63084368  0.96078351  0.41312817  1
  P  P13  1  0.33524526  0.37228080  0.41203557  1
  P  P14  1  0.03357543  0.66513342  0.41235027  1
  O  O0  1  0.20049314  0.01907487  0.30920018  1
  O  O1  1  0.83106762  0.80201366  0.30373837  1
  O  O2  1  0.98283240  0.18219234  0.30808186  1
  O  O3  1  0.21087333  0.17750495  0.80511110  1
  O  O4  1  0.97695080  0.79514508  0.80648316  1
  O  O5  1  0.82492506  0.02025786  0.80577726  1
  O  O6  1  0.78196659  0.96254378  0.68996906  1
  O  O7  1  0.18232422  0.21230383  0.69551728  1
  O  O8  1  0.03807817  0.82300513  0.69693243  1
  O  O9  1  0.78406359  0.81758030  0.19150518  1
  O  O10  1  0.02766925  0.20487709  0.19327278  1
  O  O11  1  0.17461717  0.96373683  0.19552417  1
  O  O12  1  0.87117563  0.35818858  0.63477356  1
  O  O13  1  0.48898921  0.12981402  0.63898909  1
  O  O14  1  0.64762989  0.52476053  0.64021676  1
  O  O15  1  0.87521958  0.50837623  0.14421900  1
  O  O16  1  0.63255623  0.12402762  0.13753979  1
  O  O17  1  0.48958965  0.36052909  0.13798292  1
  O  O18  1  0.45444466  0.28949413  0.02783795  1
  O  O19  1  0.82439635  0.53717830  0.02849825  1
  O  O20  1  0.70347023  0.16282160  0.02731069  1
  O  O21  1  0.46845254  0.15621658  0.51866075  1
  O  O22  1  0.69541542  0.53570505  0.52661442  1
  O  O23  1  0.84605370  0.30791442  0.52181510  1
  O  O24  1  0.53936563  0.68000570  0.97296805  1
  O  O25  1  0.13932518  0.45899101  0.97483911  1
  O  O26  1  0.31929383  0.85951724  0.97266295  1
  O  O27  1  0.55226011  0.85610687  0.47174273  1
  O  O28  1  0.30189538  0.45478093  0.46787445  1
  O  O29  1  0.15672007  0.69872646  0.46640990  1
  O  O30  1  0.11620862  0.62920672  0.35671036  1
  O  O31  1  0.50251293  0.86938745  0.36160281  1
  O  O32  1  0.35973030  0.48637354  0.35748091  1
  O  O33  1  0.13311139  0.49564219  0.86255430  1
  O  O34  1  0.36437554  0.88090382  0.85975495  1
  O  O35  1  0.51603518  0.63970269  0.85975693  1
  O  O36  1  0.02255161  0.83326553  0.40774604  1
  O  O37  1  0.81529444  0.98444470  0.40705263  1
  O  O38  1  0.16913599  0.18761884  0.40823854  1
  O  O39  1  0.02194373  0.19993098  0.91291138  1
  O  O40  1  0.18140589  0.98787849  0.91318239  1
  O  O41  1  0.80614009  0.81893386  0.91341215  1
  O  O42  1  0.96450603  0.16524607  0.58539105  1
  O  O43  1  0.18258515  0.02160701  0.58434877  1
  O  O44  1  0.82573770  0.80885900  0.58535574  1
  O  O45  1  0.97907104  0.82448303  0.09194195  1
  O  O46  1  0.83688263  0.02975137  0.09016564  1
  O  O47  1  0.18940291  0.16909068  0.09108101  1
  O  O48  1  0.67026349  0.16189953  0.74835319  1
  O  O49  1  0.47499429  0.32379796  0.74463873  1
  O  O50  1  0.83832252  0.53121067  0.74577792  1
  O  O51  1  0.69188735  0.53440423  0.24633640  1
  O  O52  1  0.84535730  0.31303217  0.24741750  1
  O  O53  1  0.46678071  0.15429509  0.24740788  1
  O  O54  1  0.63719336  0.48998603  0.92080556  1
  O  O55  1  0.85539161  0.36134883  0.92163310  1
  O  O56  1  0.51065663  0.14964711  0.92287543  1
  O  O57  1  0.65066436  0.14525999  0.41784822  1
  O  O58  1  0.49566826  0.34881896  0.41880731  1
  O  O59  1  0.85530512  0.49883778  0.42155420  1
  O  O60  1  0.35841320  0.49347861  0.07744832  1
  O  O61  1  0.14971767  0.65143318  0.07889766  1
  O  O62  1  0.51313398  0.86151526  0.07697438  1
  O  O63  1  0.36270800  0.85543130  0.57594638  1
  O  O64  1  0.50684836  0.64396376  0.57589657  1
  O  O65  1  0.13825132  0.49086848  0.57491980  1
  O  O66  1  0.30019844  0.82598692  0.25785813  1
  O  O67  1  0.52566166  0.69745431  0.25780032  1
  O  O68  1  0.16760472  0.47698069  0.25510402  1
  O  O69  1  0.31019949  0.48102288  0.75862887  1
  O  O70  1  0.16851072  0.68865600  0.75884988  1
  O  O71  1  0.50544328  0.81936880  0.75798974  1
loop_
_geom_bond_atom_site_label_1
_geom_bond_atom_site_label_2
_geom_bond_distance
_geom_bond_site_symmetry_2
Na0 O66 2.338295 1_555
Na0 O51 2.460065 1_455
Na0 O52 2.483879 1_455
Na0 O68 2.486879 1_555
Na0 O30 2.543899 1_555
Na0 O15 2.702076 1_455
Na0 O1 2.854291 1_455
Na0 O11 2.860663 1_555
Na1 O71 2.369678 1_555
Na1 O49 2.460878 1_555
Na1 O50 2.482042 1_555
Na1 O69 2.496415 1_555
Na1 O35 2.596675 1_555
Na1 O14 2.779220 1_555
Na1 O6 2.866597 1_555
Na1 O4 2.925089 1_555
Na2 O48 2.387335 1_565
Na2 O70 2.399543 1_555
Na2 O71 2.464885 1_555
Na2 O34 2.569402 1_555
Na2 O49 2.590474 1_565
Na2 O3 2.817644 1_565
Na2 O8 2.833823 1_555
Na2 O13 2.851912 1_565
Na3 O63 2.358938 1_555
Na3 O42 2.368061 1_565
Na3 O44 2.484285 1_555
Na3 O64 2.514271 1_555
Na3 O6 2.599695 1_555
Na3 O27 2.732332 1_555
Na3 O13 2.863752 1_565
Na3 O23 2.984818 1_565
Na4 O47 2.403304 1_565
Na4 O45 2.461276 1_455
Na4 O61 2.465314 1_555
Na4 O62 2.563634 1_555
Na4 O11 2.698901 1_555
Na4 O26 2.751180 1_554
Na4 O18 2.783851 1_565
Na4 O16 2.863981 1_565
Na5 O45 2.376098 1_555
Na5 O60 2.490807 1_555
Na5 O62 2.497243 1_555
Na5 O46 2.551318 1_565
Na5 O9 2.639809 1_555
Na5 O19 2.707218 1_555
Na5 O24 2.721958 1_554
Na5 O17 2.903221 1_555
Na6 O46 2.362802 1_455
Na6 O47 2.494272 1_555
Na6 O61 2.502368 1_555
Na6 O60 2.556946 1_555
Na6 O10 2.650268 1_555
Na6 O25 2.723855 1_554
Na6 O20 2.850714 1_455
Na6 O15 2.865324 1_455
Na7 O59 2.436605 1_555
Na7 O37 2.442182 1_545
Na7 O57 2.449287 1_555
Na7 O38 2.463065 1_655
Na7 O2 2.645655 1_555
Na7 O23 2.651544 1_555
Na7 O28 2.857953 1_655
Na7 O30 2.863264 1_655
Na8 O58 2.432030 1_555
Na8 O57 2.463717 1_555
Na8 O36 2.472474 1_545
Na8 O38 2.487831 1_555
Na8 O21 2.547480 1_555
Na8 O0 2.690545 1_555
Na8 O29 2.818900 1_545
Na8 O31 2.841293 1_545
Na9 O43 2.452398 1_565
Na9 O36 2.493772 1_555
Na9 O44 2.528551 1_455
Na9 O38 2.602566 1_565
Na9 O37 2.624041 1_455
Na9 O42 2.659187 1_465
Na10 O45 2.527065 1_456
Na10 O40 2.548367 1_555
Na10 O41 2.558878 1_455
Na10 O46 2.604057 1_466
Na10 O39 2.604448 1_565
Na10 O47 2.617816 1_566
Na11 O55 2.334222 1_555
Na11 O56 2.414647 1_555
Na11 O54 2.435299 1_555
Na11 O48 2.538621 1_555
Na11 O50 2.689586 1_555
Na11 O49 2.806174 1_555
Na12 O58 2.363683 1_555
Na12 O57 2.468494 1_555
Na12 O59 2.511614 1_555
Na12 O53 2.612269 1_555
Na12 O51 2.613576 1_555
Na12 O52 2.699283 1_555
Na13 O67 2.404084 1_555
Na13 O68 2.430771 1_555
Na13 O66 2.477671 1_555
Na13 O61 2.722732 1_555
Na13 O60 2.727806 1_555
Na13 O62 2.742429 1_555
Na14 O70 2.487693 1_555
Na14 O69 2.491311 1_555
Na14 O71 2.552038 1_555
Na14 O65 2.620397 1_555
Na14 O63 2.680381 1_555
Na14 O64 2.747670 1_555
Ga0 O1 1.919713 1_555
Ga0 O2 1.950477 1_565
Ga0 O0 1.959963 1_665
Ga0 O37 2.021054 1_555
Ga0 O36 2.059195 1_655
Ga0 O38 2.103002 1_665
Ga1 O9 1.963397 1_555
Ga1 O10 1.979150 1_665
Ga1 O11 1.980751 1_655
Ga1 O45 1.987004 1_555
Ga1 O46 2.146182 1_565
Ga1 O47 2.152892 1_665
Ga2 O19 1.928494 1_556
Ga2 O54 2.001001 1_555
Ga2 O55 2.029443 1_555
Ga2 O56 2.048679 1_555
Ga2 O20 2.053418 1_556
Ga2 O18 2.061795 1_556
Ga3 O21 1.876580 1_555
Ga3 O22 1.908796 1_555
Ga3 O23 2.016079 1_555
Ga3 O58 2.081569 1_555
Ga3 O59 2.091251 1_555
Ga3 O57 2.212714 1_555
Ga4 O32 1.935652 1_555
Ga4 O31 1.959588 1_555
Ga4 O67 2.001442 1_555
Ga4 O30 2.080847 1_555
Ga4 O66 2.089255 1_555
Ga4 O68 2.117272 1_555
Ga5 O33 1.946175 1_555
Ga5 O35 1.989245 1_555
Ga5 O71 1.992388 1_555
Ga5 O34 1.998576 1_555
Ga5 O69 2.077680 1_555
Ga5 O70 2.078601 1_555
O0 P0 1.539783 1_545
O1 P1 1.537179 1_555
O2 P2 1.537088 1_655
O3 P3 1.537195 1_555
O3 Zr0 2.108433 1_455
O4 P4 1.536270 1_655
O4 Zr0 2.101035 1_565
O5 Si0 1.619302 1_545
O5 Zr0 1.978232 1_555
O6 Si0 1.649050 1_555
O6 Zr1 2.089635 1_665
O7 P3 1.551308 1_555
O7 Zr1 2.071952 1_555
O8 P4 1.565423 1_555
O8 Zr1 2.086201 1_565
O9 P1 1.561400 1_555
O10 P2 1.558687 1_555
O11 P0 1.567888 1_555
O12 P5 1.545267 1_555
O12 Zr2 2.042529 1_555
O13 Si1 1.645120 1_555
O13 Zr2 1.998754 1_555
O14 P6 1.544739 1_555
O14 Zr2 2.115036 1_555
O15 Si2 1.647380 1_555
O15 Zr3 2.032938 1_555
O16 P7 1.554197 1_555
O16 Zr3 2.078704 1_555
O17 P8 1.552430 1_555
O17 Zr3 2.080351 1_555
O18 P8 1.531667 1_555
O19 Si2 1.620091 1_555
O20 P7 1.528541 1_555
O21 Si1 1.621520 1_555
O22 P6 1.525431 1_555
O23 P5 1.543024 1_555
O24 P9 1.562843 1_555
O24 Zr4 2.053980 1_556
O25 P10 1.570000 1_555
O25 Zr4 2.017562 1_556
O26 P11 1.572682 1_555
O26 Zr4 2.015421 1_556
O27 P12 1.562351 1_555
O27 Zr5 2.110813 1_555
O28 P13 1.555577 1_555
O28 Zr5 2.087369 1_555
O29 P14 1.565229 1_555
O29 Zr5 2.080289 1_555
O30 P14 1.562381 1_555
O31 P12 1.546182 1_555
O32 P13 1.536800 1_555
O33 P10 1.533889 1_555
O34 P11 1.549698 1_555
O35 P9 1.547301 1_555
O36 P14 1.553586 1_555
O37 P12 1.557916 1_555
O38 P13 1.575821 1_555
O39 P10 1.556367 1_555
O39 Zr0 2.081395 1_455
O40 P11 1.549315 1_555
O40 Zr0 2.142227 1_465
O41 P9 1.558341 1_555
O41 Zr0 2.102606 1_565
O42 P5 1.552986 1_555
O42 Zr1 2.166299 1_655
O43 Si1 1.623071 1_555
O43 Zr1 2.044735 1_555
O44 P6 1.555853 1_555
O44 Zr1 2.159940 1_665
O45 Si2 1.654679 1_555
O46 P7 1.555743 1_555
O47 P8 1.557328 1_555
O48 Si0 1.639091 1_545
O48 Zr2 2.049308 1_555
O49 P3 1.566178 1_555
O49 Zr2 2.156723 1_555
O50 P4 1.544215 1_655
O50 Zr2 2.155985 1_555
O51 P1 1.581659 1_555
O51 Zr3 2.130251 1_555
O52 P2 1.583217 1_655
O52 Zr3 2.126968 1_555
O53 P0 1.552310 1_545
O53 Zr3 2.113948 1_555
O54 P9 1.533899 1_555
O55 P10 1.531927 1_655
O56 P11 1.532806 1_545
O57 P12 1.567403 1_545
O58 P13 1.554635 1_555
O59 P14 1.555667 1_655
O60 P8 1.567970 1_555
O60 Zr4 2.180699 1_555
O61 Si2 1.660681 1_455
O61 Zr4 2.090629 1_555
O62 P7 1.567680 1_565
O62 Zr4 2.171751 1_555
O63 Si1 1.650563 1_565
O63 Zr5 2.046769 1_555
O64 P6 1.557574 1_555
O64 Zr5 2.119867 1_555
O65 P5 1.536616 1_455
O65 Zr5 2.097884 1_555
O66 P0 1.562945 1_555
O67 P1 1.540496 1_555
O68 P2 1.560414 1_555
O69 P3 1.529982 1_555
O70 P4 1.532891 1_555
O71 Si0 1.642644 1_555
