# generated using pymatgen
data_Li6MgBr8
_symmetry_space_group_name_H-M   'P 1'
_cell_length_a   7.72049537
_cell_length_b   7.72049537
_cell_length_c   7.72049537
_cell_angle_alpha   60.00000000
_cell_angle_beta   60.00000000
_cell_angle_gamma   60.00000000
_symmetry_Int_Tables_number   1
_chemical_formula_structural   Li6MgBr8
_chemical_formula_sum   'Li6 Mg1 Br8'
_cell_volume   325.40221339
_cell_formula_units_Z   1
loop_
 _symmetry_equiv_pos_site_id
 _symmetry_equiv_pos_as_xyz
  1  'x, y, z'
loop_
 _atom_site_type_symbol
 _atom_site_label
 _atom_site_symmetry_multiplicity
 _atom_site_fract_x
 _atom_site_fract_y
 _atom_site_fract_z
 _atom_site_occupancy
  Li  Li0  1  -0.00000000  0.50000000  0.00000000  1
  Li  Li1  1  0.50000000  0.00000000  0.00000000  1
  Li  Li2  1  -0.00000000  0.50000000  0.50000000  1
  Li  Li3  1  0.50000000  0.00000000  0.50000000  1
  Li  Li4  1  -0.00000000  0.00000000  0.50000000  1
  Li  Li5  1  0.50000000  0.50000000  0.00000000  1
  Mg  Mg0  1  -0.00000000  0.00000000  0.00000000  1
  Br  Br0  1  0.25000000  0.25000000  0.25000000  1
  Br  Br1  1  0.75000000  0.75000000  0.75000000  1
  Br  Br2  1  0.24447290  0.75552710  0.24447290  1
  Br  Br3  1  0.24447290  0.75552710  0.75552710  1
  Br  Br4  1  0.75552710  0.24447290  0.24447290  1
  Br  Br5  1  0.75552710  0.75552710  0.24447290  1
  Br  Br6  1  0.24447290  0.24447290  0.75552710  1
  Br  Br7  1  0.75552710  0.24447290  0.75552710  1
loop_
_geom_bond_atom_site_label_1
_geom_bond_atom_site_label_2
_geom_bond_distance
_geom_bond_site_symmetry_2
Br0 Li2 2.729607 1_555
Br0 Li3 2.729607 1_555
Br0 Li0 2.729607 1_555
Br0 Li1 2.729607 1_555
Br0 Li4 2.729607 1_555
Br0 Li5 2.729607 1_555
Br1 Li0 2.729607 1_656
Br1 Li3 2.729607 1_565
Br1 Li4 2.729607 1_665
Br1 Li1 2.729607 1_566
Br1 Li5 2.729607 1_556
Br1 Li2 2.729607 1_655
Br2 Mg0 2.669260 1_565
Br2 Li2 2.730274 1_555
Br2 Li5 2.730274 1_555
Br2 Li1 2.730274 1_565
Br2 Li4 2.730274 1_565
Br3 Mg0 2.669260 1_566
Br3 Li0 2.730274 1_556
Br3 Li3 2.730274 1_565
Br3 Li5 2.730274 1_556
Br3 Li4 2.730274 1_565
Br4 Mg0 2.669260 1_655
Br4 Li3 2.730274 1_555
Br4 Li5 2.730274 1_555
Br4 Li0 2.730274 1_655
Br4 Li4 2.730274 1_655
Br5 Mg0 2.669260 1_665
Br5 Li2 2.730274 1_655
Br5 Li3 2.730274 1_565
Br5 Li0 2.730274 1_655
Br5 Li1 2.730274 1_565
Br6 Mg0 2.669260 1_556
Br6 Li0 2.730274 1_556
Br6 Li2 2.730274 1_555
Br6 Li3 2.730274 1_555
Br6 Li1 2.730274 1_556
Br7 Mg0 2.669260 1_656
Br7 Li2 2.730274 1_655
Br7 Li1 2.730274 1_556
Br7 Li5 2.730274 1_556
Br7 Li4 2.730274 1_655
