# generated using pymatgen
data_K2Co2(SO4)3
_symmetry_space_group_name_H-M   'P 1'
_cell_length_a   10.06846400
_cell_length_b   10.06846400
_cell_length_c   10.06846400
_cell_angle_alpha   90.00000000
_cell_angle_beta   90.00000000
_cell_angle_gamma   90.00000000
_symmetry_Int_Tables_number   1
_chemical_formula_structural   K2Co2(SO4)3
_chemical_formula_sum   'K8 Co8 S12 O48'
_cell_volume   1020.68014049
_cell_formula_units_Z   4
loop_
 _symmetry_equiv_pos_site_id
 _symmetry_equiv_pos_as_xyz
  1  'x, y, z'
loop_
 _atom_site_type_symbol
 _atom_site_label
 _atom_site_symmetry_multiplicity
 _atom_site_fract_x
 _atom_site_fract_y
 _atom_site_fract_z
 _atom_site_occupancy
  K  K0  1  0.68464600  0.18464600  0.31535400  1
  K  K1  1  0.31535400  0.68464600  0.18464600  1
  K  K2  1  0.94937400  0.55062600  0.44937400  1
  K  K3  1  0.18464600  0.31535400  0.68464600  1
  K  K4  1  0.05062600  0.05062600  0.05062600  1
  K  K5  1  0.44937400  0.94937400  0.55062600  1
  K  K6  1  0.55062600  0.44937400  0.94937400  1
  K  K7  1  0.81535400  0.81535400  0.81535400  1
  Co  Co0  1  0.33467700  0.33467700  0.33467700  1
  Co  Co1  1  0.16532300  0.66532300  0.83467700  1
  Co  Co2  1  0.83467700  0.16532300  0.66532300  1
  Co  Co3  1  0.66532300  0.83467700  0.16532300  1
  Co  Co4  1  0.59301200  0.59301200  0.59301200  1
  Co  Co5  1  0.09301200  0.90698800  0.40698800  1
  Co  Co6  1  0.40698800  0.09301200  0.90698800  1
  Co  Co7  1  0.90698800  0.40698800  0.09301200  1
  S  S0  1  0.28096100  0.62342800  0.51923500  1
  S  S1  1  0.78096100  0.87657200  0.48076500  1
  S  S2  1  0.71903900  0.12342800  0.98076500  1
  S  S3  1  0.87657200  0.48076500  0.78096100  1
  S  S4  1  0.98076500  0.71903900  0.12342800  1
  S  S5  1  0.48076500  0.78096100  0.87657200  1
  S  S6  1  0.62342800  0.51923500  0.28096100  1
  S  S7  1  0.51923500  0.28096100  0.62342800  1
  S  S8  1  0.12342800  0.98076500  0.71903900  1
  S  S9  1  0.21903900  0.37657200  0.01923500  1
  S  S10  1  0.01923500  0.21903900  0.37657200  1
  S  S11  1  0.37657200  0.01923500  0.21903900  1
  O  O0  1  0.25214200  0.59454500  0.66058200  1
  O  O1  1  0.75214200  0.90545500  0.33941800  1
  O  O2  1  0.74785800  0.09454500  0.83941800  1
  O  O3  1  0.90545500  0.33941800  0.75214200  1
  O  O4  1  0.83941800  0.74785800  0.09454500  1
  O  O5  1  0.33941800  0.75214200  0.90545500  1
  O  O6  1  0.59454500  0.66058200  0.25214200  1
  O  O7  1  0.66058200  0.25214200  0.59454500  1
  O  O8  1  0.09454500  0.83941800  0.74785800  1
  O  O9  1  0.40545500  0.16058200  0.24785800  1
  O  O10  1  0.16058200  0.24785800  0.40545500  1
  O  O11  1  0.24785800  0.40545500  0.16058200  1
  O  O12  1  0.25936500  0.49915100  0.44186100  1
  O  O13  1  0.75936500  0.00084900  0.55813900  1
  O  O14  1  0.74063500  0.99915100  0.05813900  1
  O  O15  1  0.00084900  0.55813900  0.75936500  1
  O  O16  1  0.05813900  0.74063500  0.99915100  1
  O  O17  1  0.55813900  0.75936500  0.00084900  1
  O  O18  1  0.99611800  0.57896400  0.17122300  1
  O  O19  1  0.44186100  0.25936500  0.49915100  1
  O  O20  1  0.99915100  0.05813900  0.74063500  1
  O  O21  1  0.50084900  0.94186100  0.24063500  1
  O  O22  1  0.94186100  0.24063500  0.50084900  1
  O  O23  1  0.24063500  0.50084900  0.94186100  1
  O  O24  1  0.42103600  0.67122300  0.50388200  1
  O  O25  1  0.92103600  0.82877700  0.49611800  1
  O  O26  1  0.57896400  0.17122300  0.99611800  1
  O  O27  1  0.82877700  0.49611800  0.92103600  1
  O  O28  1  0.31010400  0.27497400  0.96340800  1
  O  O29  1  0.96340800  0.31010400  0.27497400  1
  O  O30  1  0.27497400  0.96340800  0.31010400  1
  O  O31  1  0.22502600  0.03659200  0.81010400  1
  O  O32  1  0.46340800  0.18989600  0.72502600  1
  O  O33  1  0.72502600  0.46340800  0.18989600  1
  O  O34  1  0.53659200  0.68989600  0.77497400  1
  O  O35  1  0.03659200  0.81010400  0.22502600  1
  O  O36  1  0.77497400  0.53659200  0.68989600  1
  O  O37  1  0.81010400  0.22502600  0.03659200  1
  O  O38  1  0.68989600  0.77497400  0.53659200  1
  O  O39  1  0.18989600  0.72502600  0.46340800  1
  O  O40  1  0.07896400  0.32877700  0.00388200  1
  O  O41  1  0.00388200  0.07896400  0.32877700  1
  O  O42  1  0.32877700  0.00388200  0.07896400  1
  O  O43  1  0.17122300  0.99611800  0.57896400  1
  O  O44  1  0.50388200  0.42103600  0.67122300  1
  O  O45  1  0.67122300  0.50388200  0.42103600  1
  O  O46  1  0.49611800  0.92103600  0.82877700  1
  O  O47  1  0.49915100  0.44186100  0.25936500  1
loop_
_geom_bond_atom_site_label_1
_geom_bond_atom_site_label_2
_geom_bond_distance
_geom_bond_site_symmetry_2
K0 O1 2.902136 1_545
K0 O9 2.902136 1_555
K0 O7 2.902136 1_555
K0 O37 3.104591 1_555
K0 O29 3.104591 1_555
K0 O33 3.104591 1_555
K0 O21 3.156890 1_545
K0 O19 3.156890 1_555
K0 O13 3.156890 1_555
K0 O47 3.242338 1_555
K0 O14 3.242338 1_545
K0 O22 3.242338 1_555
K1 O5 2.902136 1_554
K1 O11 2.902136 1_555
K1 O6 2.902136 1_555
K1 O35 3.104591 1_555
K1 O30 3.104591 1_555
K1 O39 3.104591 1_555
K1 O23 3.156890 1_554
K1 O47 3.156890 1_555
K1 O17 3.156890 1_555
K1 O16 3.242338 1_554
K1 O12 3.242338 1_555
K1 O21 3.242338 1_555
K2 O45 2.854121 1_555
K2 O25 2.854121 1_555
K2 O18 2.854121 1_555
K2 O39 2.994639 1_655
K2 O36 2.994639 1_555
K2 O29 2.994639 1_555
K2 O22 3.164775 1_555
K2 O15 3.164775 1_655
K2 O12 3.164775 1_655
K3 O3 2.902136 1_455
K3 O10 2.902136 1_555
K3 O0 2.902136 1_555
K3 O31 3.104591 1_555
K3 O28 3.104591 1_555
K3 O32 3.104591 1_555
K3 O22 3.156890 1_455
K3 O12 3.156890 1_555
K3 O15 3.156890 1_555
K3 O20 3.242338 1_455
K3 O19 3.242338 1_555
K3 O23 3.242338 1_555
K4 O40 2.854121 1_555
K4 O41 2.854121 1_555
K4 O42 2.854121 1_555
K4 O37 2.994639 1_455
K4 O35 2.994639 1_545
K4 O31 2.994639 1_554
K4 O20 3.164775 1_454
K4 O16 3.164775 1_544
K4 O14 3.164775 1_445
K5 O24 2.854121 1_555
K5 O46 2.854121 1_555
K5 O43 2.854121 1_555
K5 O32 2.994639 1_565
K5 O30 2.994639 1_555
K5 O38 2.994639 1_555
K5 O21 3.164775 1_555
K5 O13 3.164775 1_565
K5 O19 3.164775 1_565
K6 O44 2.854121 1_555
K6 O27 2.854121 1_555
K6 O26 2.854121 1_555
K6 O33 2.994639 1_556
K6 O34 2.994639 1_555
K6 O28 2.994639 1_555
K6 O23 3.164775 1_555
K6 O17 3.164775 1_556
K6 O47 3.164775 1_556
K7 O8 2.902136 1_655
K7 O2 2.902136 1_565
K7 O4 2.902136 1_556
K7 O36 3.104591 1_555
K7 O34 3.104591 1_555
K7 O38 3.104591 1_555
K7 O14 3.156890 1_556
K7 O16 3.156890 1_655
K7 O20 3.156890 1_565
K7 O17 3.242338 1_556
K7 O13 3.242338 1_565
K7 O15 3.242338 1_655
Co0 O11 2.084346 1_555
Co0 O9 2.084346 1_555
Co0 O10 2.084346 1_555
Co0 O12 2.117061 1_555
Co0 O47 2.117061 1_555
Co0 O19 2.117061 1_555
Co1 O0 2.084346 1_555
Co1 O5 2.084346 1_555
Co1 O8 2.084346 1_555
Co1 O16 2.117061 1_555
Co1 O23 2.117061 1_555
Co1 O15 2.117061 1_555
Co2 O3 2.084346 1_555
Co2 O7 2.084346 1_555
Co2 O2 2.084346 1_555
Co2 O20 2.117061 1_555
Co2 O22 2.117061 1_555
Co2 O13 2.117061 1_555
Co3 O1 2.084346 1_555
Co3 O6 2.084346 1_555
Co3 O4 2.084346 1_555
Co3 O14 2.117061 1_555
Co3 O21 2.117061 1_555
Co3 O17 2.117061 1_555
Co4 O45 2.103246 1_555
Co4 O24 2.103246 1_555
Co4 O44 2.103246 1_555
Co4 O36 2.151918 1_555
Co4 O34 2.151918 1_555
Co4 O38 2.151918 1_555
Co5 O41 2.103246 1_565
Co5 O25 2.103246 1_455
Co5 O43 2.103246 1_555
Co5 O39 2.151918 1_555
Co5 O30 2.151918 1_555
Co5 O35 2.151918 1_555
Co6 O42 2.103246 1_556
Co6 O46 2.103246 1_545
Co6 O26 2.103246 1_555
Co6 O32 2.151918 1_555
Co6 O28 2.151918 1_555
Co6 O31 2.151918 1_555
Co7 O40 2.103246 1_655
Co7 O27 2.103246 1_554
Co7 O18 2.103246 1_555
Co7 O33 2.151918 1_555
Co7 O29 2.151918 1_555
Co7 O37 2.151918 1_555
O0 S0 1.481253 1_555
O1 S1 1.481253 1_555
O2 S2 1.481253 1_555
O3 S3 1.481253 1_555
O4 S4 1.481253 1_555
O5 S5 1.481253 1_555
O6 S6 1.481253 1_555
O7 S7 1.481253 1_555
O8 S8 1.481253 1_555
O9 S11 1.481253 1_555
O10 S10 1.481253 1_555
O11 S9 1.481253 1_555
O12 S0 1.489925 1_555
O13 S1 1.489925 1_545
O14 S2 1.489925 1_564
O15 S3 1.489925 1_455
O16 S4 1.489925 1_456
O17 S5 1.489925 1_554
O18 S4 1.498175 1_555
O19 S7 1.489925 1_555
O20 S8 1.489925 1_645
O21 S11 1.489925 1_565
O22 S10 1.489925 1_655
O23 S9 1.489925 1_556
O24 S0 1.498175 1_555
O25 S1 1.498175 1_555
O26 S2 1.498175 1_555
O27 S3 1.498175 1_555
O28 S9 1.484258 1_556
O29 S10 1.484258 1_655
O30 S11 1.484258 1_565
O31 S8 1.484258 1_545
O32 S7 1.484258 1_555
O33 S6 1.484258 1_555
O34 S5 1.484258 1_555
O35 S4 1.484258 1_455
O36 S3 1.484258 1_555
O37 S2 1.484258 1_554
O38 S1 1.484258 1_555
O39 S0 1.484258 1_555
O40 S9 1.498175 1_555
O41 S10 1.498175 1_555
O42 S11 1.498175 1_555
O43 S8 1.498175 1_555
O44 S7 1.498175 1_555
O45 S6 1.498175 1_555
O46 S5 1.498175 1_555
O47 S6 1.489925 1_555
