# generated using pymatgen
data_MgCu6OF11
_symmetry_space_group_name_H-M   'P 1'
_cell_length_a   5.45782046
_cell_length_b   4.59794935
_cell_length_c   9.23981606
_cell_angle_alpha   88.75279374
_cell_angle_beta   89.50576734
_cell_angle_gamma   92.64861287
_symmetry_Int_Tables_number   1
_chemical_formula_structural   MgCu6OF11
_chemical_formula_sum   'Mg1 Cu6 O1 F11'
_cell_volume   231.55782353
_cell_formula_units_Z   1
loop_
 _symmetry_equiv_pos_site_id
 _symmetry_equiv_pos_as_xyz
  1  'x, y, z'
loop_
 _atom_site_type_symbol
 _atom_site_label
 _atom_site_symmetry_multiplicity
 _atom_site_fract_x
 _atom_site_fract_y
 _atom_site_fract_z
 _atom_site_occupancy
  Mg  Mg0  1  0.37066300  0.66690800  0.09985500  1
  Cu  Cu0  1  0.97169300  0.01654500  0.01926100  1
  Cu  Cu1  1  0.62287800  0.33894400  0.91395800  1
  Cu  Cu2  1  0.34526800  0.01227900  0.35320400  1
  Cu  Cu3  1  0.81561100  0.53798100  0.34163900  1
  Cu  Cu4  1  0.14596600  0.50420700  0.66363600  1
  Cu  Cu5  1  0.65604100  0.00794000  0.64641100  1
  O  O0  1  0.57769400  0.77691100  0.26804500  1
  F  F0  1  0.31014100  0.23942100  0.06728600  1
  F  F1  1  0.09669100  0.78565600  0.23495800  1
  F  F2  1  0.80189400  0.32619600  0.09682900  1
  F  F3  1  0.09553700  0.29322400  0.40749100  1
  F  F4  1  0.59706500  0.25996800  0.44517000  1
  F  F5  1  0.36663400  0.79465000  0.58112800  1
  F  F6  1  0.87585800  0.71560700  0.58724100  1
  F  F7  1  0.42934200  0.29422600  0.74003800  1
  F  F8  1  0.15252600  0.72587300  0.93258500  1
  F  F9  1  0.91454300  0.22272000  0.75594700  1
  F  F10  1  0.64145100  0.80018600  0.95469200  1
loop_
_geom_bond_atom_site_label_1
_geom_bond_atom_site_label_2
_geom_bond_distance
_geom_bond_site_symmetry_2
Mg0 O0 1.989806 1_555
Cu0 F2 1.885341 1_555
Cu0 F8 1.885884 1_644
Cu0 F10 2.114924 1_544
Cu0 F0 2.125596 1_655
Cu0 F1 2.358556 1_645
Cu1 F7 1.940109 1_555
Cu1 F2 1.960247 1_556
Cu1 F10 2.159890 1_555
Cu1 F0 2.233328 1_556
Cu1 F9 2.241349 1_555
Cu1 F10 2.504325 1_545
Cu2 O0 1.883146 1_545
Cu2 F4 1.955838 1_555
Cu2 F3 1.989257 1_555
Cu2 F1 2.016076 1_545
Cu2 F5 2.318040 1_545
Cu3 O0 1.862785 1_555
Cu3 F4 1.938562 1_555
Cu3 F3 2.028784 1_655
Cu3 F1 2.094156 1_655
Cu3 F6 2.448200 1_555
Cu3 F2 2.482450 1_555
Cu4 F5 1.899023 1_555
Cu4 F6 1.933092 1_455
Cu4 F9 1.944280 1_455
Cu4 F7 1.987385 1_555
Cu5 F6 1.927340 1_545
Cu5 F5 1.928617 1_545
Cu5 F9 1.982290 1_555
Cu5 F7 2.047831 1_555
Cu5 F4 2.203390 1_555
F0 Mg0 2.007628 1_555
F1 Mg0 2.040894 1_555
F8 Mg0 1.980647 1_556
F10 Mg0 2.050635 1_556
