# generated using pymatgen
data_PRhO4
_symmetry_space_group_name_H-M   'P 1'
_cell_length_a   8.97918522
_cell_length_b   8.97920427
_cell_length_c   8.97920034
_cell_angle_alpha   138.19010235
_cell_angle_beta   109.14941201
_cell_angle_gamma   85.79107921
_symmetry_Int_Tables_number   1
_chemical_formula_structural   PRhO4
_chemical_formula_sum   'P6 Rh6 O24'
_cell_volume   438.77671851
_cell_formula_units_Z   6
loop_
 _symmetry_equiv_pos_site_id
 _symmetry_equiv_pos_as_xyz
  1  'x, y, z'
loop_
 _atom_site_type_symbol
 _atom_site_label
 _atom_site_symmetry_multiplicity
 _atom_site_fract_x
 _atom_site_fract_y
 _atom_site_fract_z
 _atom_site_occupancy
  P  P0  1  0.17400383  0.67400428  0.00000045  1
  P  P1  1  0.32599593  0.32599620  0.50000011  1
  P  P2  1  0.82599625  0.32599602  -0.00000010  1
  P  P3  1  0.67400399  0.67400390  0.49999996  1
  P  P4  1  0.74999976  0.83023820  0.08023846  1
  P  P5  1  0.25000023  0.16976205  0.91976179  1
  Rh  Rh0  1  0.11853658  0.11853681  0.50000026  1
  Rh  Rh1  1  0.38146327  0.88146336  -0.00000014  1
  Rh  Rh2  1  0.88146339  0.88146346  0.50000000  1
  Rh  Rh3  1  0.61853675  0.11853698  0.00000049  1
  Rh  Rh4  1  0.50000002  0.49999979  -0.00000023  1
  Rh  Rh5  1  -0.00000002  -0.00000025  -0.00000022  1
  O  O0  1  0.14398438  0.78423028  0.91504315  1
  O  O1  1  0.35601538  0.27105978  0.64024661  1
  O  O2  1  0.13081258  0.21576911  0.35975379  1
  O  O3  1  0.36918727  0.72894091  0.08495603  1
  O  O4  1  0.85601567  0.21576979  0.08495693  1
  O  O5  1  0.64398459  0.72894029  0.35975346  1
  O  O6  1  0.86918741  0.78423096  0.64024625  1
  O  O7  1  0.63081273  0.27105916  0.91504407  1
  O  O8  1  0.91399888  0.57792990  0.21506898  1
  O  O9  1  0.58600131  0.80107064  0.66393132  1
  O  O10  1  0.63713965  0.42207011  0.33606897  1
  O  O11  1  0.86286028  0.19892902  0.78493063  1
  O  O12  1  0.15363013  0.20172775  0.04809710  1
  O  O13  1  0.34636955  0.39446633  0.04809708  1
  O  O14  1  0.84636982  0.79827233  0.95190301  1
  O  O15  1  0.65363049  0.60553384  0.95190305  1
  O  O16  1  0.62798977  0.97606186  0.10405154  1
  O  O17  1  0.87200992  0.97606174  0.34807197  1
  O  O18  1  0.12799006  0.02393868  0.65192843  1
  O  O19  1  0.37201024  0.02393853  0.89594885  1
  O  O20  1  0.13713957  0.80107030  0.21506874  1
  O  O21  1  0.36286055  0.57792955  0.66393061  1
  O  O22  1  0.41399863  0.19892871  0.33606822  1
  O  O23  1  0.08600117  0.42206962  0.78493040  1
loop_
_geom_bond_atom_site_label_1
_geom_bond_atom_site_label_2
_geom_bond_distance
_geom_bond_site_symmetry_2
O0 P0 1.607995 1_556
O0 Rh5 2.020700 1_566
O0 Rh1 2.025934 1_556
O1 P1 1.607993 1_555
O1 Rh4 2.020698 1_556
O1 Rh0 2.025935 1_555
O2 P1 1.607993 1_555
O2 Rh5 2.020701 1_555
O2 Rh0 2.025936 1_555
O3 P0 1.607995 1_555
O3 Rh4 2.020701 1_555
O3 Rh1 2.025935 1_555
O4 P2 1.607995 1_555
O4 Rh5 2.020702 1_655
O4 Rh3 2.025934 1_555
O5 P3 1.607993 1_555
O5 Rh4 2.020700 1_555
O5 Rh2 2.025935 1_555
O6 P3 1.607994 1_555
O6 Rh5 2.020699 1_666
O6 Rh2 2.025936 1_555
O7 P2 1.607995 1_556
O7 Rh4 2.020699 1_556
O7 Rh3 2.025935 1_556
O8 P2 1.489981 1_555
O8 Rh2 2.009466 1_555
O9 P3 1.489981 1_555
O9 Rh3 2.009466 1_566
O10 P3 1.489982 1_555
O10 Rh3 2.009462 1_555
O11 P2 1.489977 1_556
O11 Rh2 2.009463 1_545
O12 P5 1.511211 1_554
O12 Rh5 2.044563 1_555
O13 P5 1.511203 1_554
O13 Rh4 2.044564 1_555
O14 P4 1.511211 1_556
O14 Rh5 2.044562 1_666
O15 P4 1.511202 1_556
O15 Rh4 2.044564 1_556
O16 P4 1.576764 1_555
O16 Rh1 2.056836 1_555
O16 Rh3 2.056838 1_565
O17 P4 1.576762 1_555
O17 Rh0 2.056837 1_665
O17 Rh2 2.056838 1_555
O18 P5 1.576762 1_555
O18 Rh2 2.056838 1_445
O18 Rh0 2.056838 1_555
O19 P5 1.576763 1_555
O19 Rh3 2.056836 1_556
O19 Rh1 2.056838 1_546
O20 P0 1.489973 1_555
O20 Rh0 2.009469 1_565
O21 P1 1.489980 1_555
O21 Rh1 2.009467 1_556
O22 P1 1.489984 1_555
O22 Rh1 2.009461 1_545
O23 P0 1.489986 1_556
O23 Rh0 2.009460 1_555
