# generated using pymatgen
data_Na5Al2SiGe2P5O24
_symmetry_space_group_name_H-M   'P 1'
_cell_length_a   8.56076147
_cell_length_b   8.55119408
_cell_length_c   21.67422173
_cell_angle_alpha   90.14923035
_cell_angle_beta   89.71056160
_cell_angle_gamma   119.97964417
_symmetry_Int_Tables_number   1
_chemical_formula_structural   Na5Al2SiGe2P5O24
_chemical_formula_sum   'Na15 Al6 Si3 Ge6 P15 O72'
_cell_volume   1374.34828790
_cell_formula_units_Z   3
loop_
 _symmetry_equiv_pos_site_id
 _symmetry_equiv_pos_as_xyz
  1  'x, y, z'
loop_
 _atom_site_type_symbol
 _atom_site_label
 _atom_site_symmetry_multiplicity
 _atom_site_fract_x
 _atom_site_fract_y
 _atom_site_fract_z
 _atom_site_occupancy
  Na  Na0  1  0.00132545  0.63677118  0.25072986  1
  Na  Na1  1  0.63199676  0.63705678  0.75094230  1
  Na  Na2  1  0.36834093  0.99938090  0.75072128  1
  Na  Na3  1  0.66444627  0.96831134  0.58387942  1
  Na  Na4  1  0.29858831  0.96716331  0.08303702  1
  Na  Na5  1  0.67111944  0.69961684  0.08245435  1
  Na  Na6  1  0.03140264  0.33372788  0.08352134  1
  Na  Na7  1  0.96845327  0.30016612  0.41603949  1
  Na  Na8  1  0.33535995  0.03435212  0.41752875  1
  Na  Na9  1  0.00195327  0.99397288  0.50059513  1
  Na  Na10  1  0.99978526  0.99765325  0.99717837  1
  Na  Na11  1  0.67413185  0.33301096  0.83668117  1
  Na  Na12  1  0.66059068  0.33472915  0.33333642  1
  Na  Na13  1  0.33919307  0.66701448  0.17001066  1
  Na  Na14  1  0.32233127  0.65765451  0.66682521  1
  Al  Al0  1  0.99569251  0.99546317  0.35109840  1
  Al  Al1  1  0.99897247  0.99645851  0.14969890  1
  Al  Al2  1  0.66998187  0.33834089  0.97749950  1
  Al  Al3  1  0.66199542  0.33613104  0.48146139  1
  Al  Al4  1  0.33883546  0.66622518  0.31338095  1
  Al  Al5  1  0.33294298  0.66650604  0.81453546  1
  Si  Si0  1  0.71629169  0.00477696  0.75018828  1
  Si  Si1  1  0.37166638  0.04519870  0.58167461  1
  Si  Si2  1  0.95333820  0.62257448  0.08161544  1
  Ge  Ge0  1  0.99659675  0.00246006  0.85466586  1
  Ge  Ge1  1  0.00391572  -0.00036541  0.64705729  1
  Ge  Ge2  1  0.67021189  0.32729177  0.68441595  1
  Ge  Ge3  1  0.66741349  0.33258915  0.18654072  1
  Ge  Ge4  1  0.32721563  0.66555060  0.01416673  1
  Ge  Ge5  1  0.33031132  0.66677621  0.51981879  1
  P  P0  1  0.29274758  0.00376267  0.25027701  1
  P  P1  1  0.70716168  0.71281377  0.24988384  1
  P  P2  1  0.00092702  0.28602698  0.25008560  1
  P  P3  1  0.28291850  0.28898367  0.75038143  1
  P  P4  1  -0.00000442  0.70923513  0.75044463  1
  P  P5  1  0.95792291  0.33739625  0.58174006  1
  P  P6  1  0.66696826  0.61740515  0.58276008  1
  P  P7  1  0.66798499  0.04770535  0.08204538  1
  P  P8  1  0.38010069  0.33198543  0.08234028  1
  P  P9  1  0.62164988  0.66417518  0.91532764  1
  P  P10  1  0.04283443  0.37749301  0.91480238  1
  P  P11  1  0.33492612  0.96035613  0.91478526  1
  P  P12  1  0.62319060  0.95175383  0.41560895  1
  P  P13  1  0.33852275  0.38348773  0.41569423  1
  P  P14  1  0.04107634  0.66585422  0.41562925  1
  O  O0  1  0.20689316  0.03440038  0.30826294  1
  O  O1  1  0.83437445  0.79555097  0.30529639  1
  O  O2  1  0.96850102  0.17102225  0.30813432  1
  O  O3  1  0.20779069  0.16159148  0.80696163  1
  O  O4  1  0.95677696  0.79132036  0.80732816  1
  O  O5  1  0.84227783  0.03991083  0.80976442  1
  O  O6  1  0.79840166  0.95814282  0.68817208  1
  O  O7  1  0.16829443  0.20564994  0.69216151  1
  O  O8  1  0.04343407  0.83308941  0.69296265  1
  O  O9  1  0.79197813  0.82391784  0.19073286  1
  O  O10  1  0.02893563  0.20183546  0.19125397  1
  O  O11  1  0.17343123  0.96704991  0.19246192  1
  O  O12  1  0.87748736  0.37483054  0.64053546  1
  O  O13  1  0.50151154  0.12492638  0.64355816  1
  O  O14  1  0.63276852  0.50582508  0.64342582  1
  O  O15  1  0.87568951  0.49527749  0.14472483  1
  O  O16  1  0.61999443  0.12215846  0.14079225  1
  O  O17  1  0.50078996  0.37553880  0.14085002  1
  O  O18  1  0.46150586  0.29130815  0.02651664  1
  O  O19  1  0.82135768  0.52974568  0.02501483  1
  O  O20  1  0.70269509  0.16749896  0.02630711  1
  O  O21  1  0.46429119  0.16428594  0.52136047  1
  O  O22  1  0.70125273  0.53355989  0.52656170  1
  O  O23  1  0.83811720  0.29883946  0.52474089  1
  O  O24  1  0.54053118  0.70357807  0.97585464  1
  O  O25  1  0.15940309  0.45397727  0.97603752  1
  O  O26  1  0.29511093  0.84131134  0.97526002  1
  O  O27  1  0.54362001  0.83830468  0.47602953  1
  O  O28  1  0.29187034  0.46157960  0.47437281  1
  O  O29  1  0.16723995  0.70849016  0.47297388  1
  O  O30  1  0.12613905  0.62897601  0.35838197  1
  O  O31  1  0.49570670  0.86619882  0.36107216  1
  O  O32  1  0.36518896  0.50001668  0.35949205  1
  O  O33  1  0.13648100  0.49938815  0.85997759  1
  O  O34  1  0.36307826  0.87013480  0.85817331  1
  O  O35  1  0.50565484  0.63755384  0.85856329  1
  O  O36  1  0.02726475  0.83795561  0.40862507  1
  O  O37  1  0.81385862  0.97710088  0.40865977  1
  O  O38  1  0.16722821  0.19152838  0.40992120  1
  O  O39  1  0.02978193  0.18899896  0.91117951  1
  O  O40  1  0.16065711  0.97466384  0.90947861  1
  O  O41  1  0.81191179  0.83663146  0.91139275  1
  O  O42  1  0.96983002  0.16291402  0.58942642  1
  O  O43  1  0.17316439  0.02313194  0.59103202  1
  O  O44  1  0.83262830  0.81085223  0.58918350  1
  O  O45  1  0.98106589  0.82362104  0.09187243  1
  O  O46  1  0.83526119  0.02664482  0.09121338  1
  O  O47  1  0.18905060  0.16846616  0.09178511  1
  O  O48  1  0.69053381  0.18202157  0.74359977  1
  O  O49  1  0.47618331  0.31137068  0.74346370  1
  O  O50  1  0.82480161  0.52451171  0.74226351  1
  O  O51  1  0.69302626  0.52135046  0.24364464  1
  O  O52  1  0.82856514  0.30817798  0.24489786  1
  O  O53  1  0.48211253  0.17502647  0.24280491  1
  O  O54  1  0.63728311  0.49543432  0.92340569  1
  O  O55  1  0.85663381  0.35704803  0.92372558  1
  O  O56  1  0.50238209  0.14445450  0.92454902  1
  O  O57  1  0.64524633  0.14346065  0.42304536  1
  O  O58  1  0.50381240  0.35934579  0.42301572  1
  O  O59  1  0.85653854  0.49461791  0.42488715  1
  O  O60  1  0.36162060  0.50473434  0.07641104  1
  O  O61  1  0.15834571  0.64422414  0.07555551  1
  O  O62  1  0.49879542  0.85408445  0.07635902  1
  O  O63  1  0.35881556  0.84472494  0.57606740  1
  O  O64  1  0.49802237  0.64105068  0.57715237  1
  O  O65  1  0.14765017  0.50387146  0.57588717  1
  O  O66  1  0.30845892  0.83186425  0.25742001  1
  O  O67  1  0.52019618  0.69090298  0.25767372  1
  O  O68  1  0.16475186  0.47918405  0.25663827  1
  O  O69  1  0.30807738  0.47779757  0.75812434  1
  O  O70  1  0.16740048  0.69079544  0.75805248  1
  O  O71  1  0.51517545  0.82642278  0.75707712  1
loop_
_geom_bond_atom_site_label_1
_geom_bond_atom_site_label_2
_geom_bond_distance
_geom_bond_site_symmetry_2
Na0 O66 2.310037 1_555
Na0 O51 2.315919 1_455
Na0 O68 2.382545 1_555
Na0 O52 2.438351 1_455
Na0 O15 2.570904 1_455
Na0 O30 2.586018 1_555
Na0 O1 2.683067 1_455
Na0 O11 2.753805 1_555
Na1 O71 2.292588 1_555
Na1 O50 2.295507 1_555
Na1 O69 2.406458 1_555
Na1 O49 2.418475 1_555
Na1 O35 2.567084 1_555
Na1 O14 2.585236 1_555
Na1 O4 2.706407 1_555
Na1 O6 2.740425 1_555
Na2 O70 2.326041 1_555
Na2 O49 2.352421 1_565
Na2 O71 2.376403 1_555
Na2 O48 2.400546 1_565
Na2 O34 2.571004 1_555
Na2 O13 2.571020 1_565
Na2 O3 2.679278 1_565
Na2 O8 2.720083 1_555
Na3 O63 2.287226 1_555
Na3 O42 2.296226 1_565
Na3 O44 2.416399 1_555
Na3 O64 2.428561 1_555
Na3 O6 2.561089 1_555
Na3 O27 2.575208 1_555
Na3 O13 2.692940 1_565
Na3 O23 2.764421 1_565
Na4 O47 2.342674 1_565
Na4 O62 2.355109 1_555
Na4 O45 2.365084 1_455
Na4 O61 2.404144 1_555
Na4 O26 2.563487 1_554
Na4 O11 2.597353 1_555
Na4 O18 2.695525 1_565
Na4 O16 2.697392 1_565
Na5 O45 2.323569 1_555
Na5 O60 2.324667 1_555
Na5 O62 2.426675 1_555
Na5 O46 2.429745 1_565
Na5 O9 2.573028 1_555
Na5 O24 2.579443 1_554
Na5 O19 2.675010 1_555
Na5 O17 2.714628 1_555
Na6 O46 2.309903 1_455
Na6 O61 2.318900 1_555
Na6 O47 2.400075 1_555
Na6 O60 2.453375 1_555
Na6 O25 2.558490 1_554
Na6 O10 2.591178 1_555
Na6 O15 2.694065 1_455
Na6 O20 2.739602 1_455
Na7 O59 2.303943 1_555
Na7 O38 2.313694 1_655
Na7 O37 2.398950 1_545
Na7 O57 2.401215 1_555
Na7 O2 2.583862 1_555
Na7 O23 2.599392 1_555
Na7 O28 2.715959 1_655
Na7 O30 2.738201 1_655
Na8 O36 2.321835 1_545
Na8 O57 2.334842 1_555
Na8 O58 2.410780 1_555
Na8 O38 2.417069 1_555
Na8 O21 2.510750 1_555
Na8 O0 2.616274 1_555
Na8 O29 2.696698 1_545
Na8 O31 2.719495 1_545
Na9 O43 2.390370 1_565
Na9 O44 2.441117 1_455
Na9 O36 2.463964 1_555
Na9 O42 2.499359 1_465
Na9 O38 2.513674 1_565
Na9 O37 2.526455 1_455
Na10 O41 2.396559 1_555
Na10 O40 2.406365 1_655
Na10 O39 2.410121 1_665
Na10 O45 2.495405 1_556
Na10 O46 2.552747 1_566
Na10 O47 2.572196 1_666
Na11 O55 2.397783 1_555
Na11 O48 2.433450 1_555
Na11 O54 2.445422 1_555
Na11 O56 2.450927 1_555
Na11 O50 2.532404 1_555
Na11 O49 2.589829 1_555
Na12 O58 2.424376 1_555
Na12 O51 2.443519 1_555
Na12 O53 2.445559 1_555
Na12 O52 2.467751 1_555
Na12 O57 2.504438 1_555
Na12 O59 2.519534 1_555
Na13 O67 2.400886 1_555
Na13 O68 2.434234 1_555
Na13 O66 2.448945 1_555
Na13 O60 2.515120 1_555
Na13 O62 2.520029 1_555
Na13 O61 2.520811 1_555
Na14 O65 2.429281 1_555
Na14 O63 2.457005 1_555
Na14 O70 2.468869 1_555
Na14 O69 2.474260 1_555
Na14 O64 2.498461 1_555
Na14 O71 2.504304 1_555
Al0 O1 1.860289 1_555
Al0 O2 1.879835 1_565
Al0 O0 1.903905 1_665
Al0 O37 1.934270 1_555
Al0 O36 1.953899 1_655
Al0 O38 2.034726 1_665
Al1 O9 1.867081 1_555
Al1 O10 1.872218 1_665
Al1 O11 1.882391 1_655
Al1 O45 1.882717 1_555
Al1 O47 1.995980 1_665
Al1 O46 2.004717 1_565
Al2 O19 1.817644 1_556
Al2 O54 1.909150 1_555
Al2 O55 1.914139 1_555
Al2 O18 1.934268 1_556
Al2 O20 1.936921 1_556
Al2 O56 1.937507 1_555
Al3 O21 1.810536 1_555
Al3 O22 1.829309 1_555
Al3 O23 1.936813 1_555
Al3 O58 1.940403 1_555
Al3 O59 1.961196 1_555
Al3 O57 2.023107 1_555
Al4 O32 1.843885 1_555
Al4 O31 1.872402 1_555
Al4 O67 1.888875 1_555
Al4 O30 1.942243 1_555
Al4 O68 1.979341 1_555
Al4 O66 1.981222 1_555
Al5 O33 1.851902 1_555
Al5 O34 1.880981 1_555
Al5 O35 1.881311 1_555
Al5 O71 1.926631 1_555
Al5 O69 1.947630 1_555
Al5 O70 1.965518 1_555
Ge0 O5 1.797884 1_555
Ge0 O39 1.914669 1_655
Ge0 O3 1.928536 1_655
Ge0 O41 1.941923 1_545
Ge0 O40 1.947414 1_645
Ge0 O4 1.951283 1_545
Ge1 O43 1.818449 1_555
Ge1 O6 1.837743 1_445
Ge1 O7 1.888610 1_555
Ge1 O8 1.903923 1_545
Ge1 O44 1.992982 1_445
Ge1 O42 2.003700 1_455
Ge2 O13 1.836242 1_555
Ge2 O48 1.856186 1_555
Ge2 O12 1.866145 1_555
Ge2 O14 1.929195 1_555
Ge2 O50 1.985656 1_555
Ge2 O49 2.041793 1_555
Ge3 O15 1.856662 1_555
Ge3 O16 1.910681 1_555
Ge3 O53 1.916219 1_555
Ge3 O17 1.920942 1_555
Ge3 O51 1.955504 1_555
Ge3 O52 1.963023 1_555
Ge4 O25 1.851140 1_554
Ge4 O26 1.862072 1_554
Ge4 O24 1.876888 1_554
Ge4 O61 1.900501 1_555
Ge4 O62 2.053236 1_555
Ge4 O60 2.053380 1_555
Ge5 O63 1.866442 1_555
Ge5 O28 1.890665 1_555
Ge5 O29 1.902853 1_555
Ge5 O65 1.917083 1_555
Ge5 O27 1.923469 1_555
Ge5 O64 1.997254 1_555
O0 P0 1.539405 1_555
O1 P1 1.538762 1_555
O2 P2 1.535334 1_655
O3 P3 1.550171 1_555
O4 P4 1.549217 1_655
O5 Si0 1.615268 1_555
O6 Si0 1.651567 1_565
O7 P3 1.540134 1_555
O8 P4 1.555886 1_555
O9 P1 1.543058 1_555
O10 P2 1.538312 1_555
O11 P0 1.550019 1_565
O12 P5 1.552377 1_555
O13 Si1 1.659024 1_555
O14 P6 1.564765 1_555
O15 Si2 1.665300 1_555
O16 P7 1.564383 1_555
O17 P8 1.562250 1_555
O18 P8 1.517278 1_555
O19 Si2 1.588794 1_555
O20 P7 1.515167 1_555
O21 Si1 1.601305 1_555
O22 P6 1.511953 1_555
O23 P5 1.536097 1_555
O24 P9 1.593463 1_555
O25 P10 1.594274 1_555
O26 P11 1.589394 1_555
O27 P12 1.567579 1_555
O28 P13 1.574775 1_555
O29 P14 1.569050 1_555
O30 P14 1.545192 1_555
O31 P12 1.527779 1_555
O32 P13 1.518252 1_555
O33 P10 1.517537 1_555
O34 P11 1.528651 1_555
O35 P9 1.528577 1_555
O36 P14 1.542106 1_555
O37 P12 1.542097 1_555
O38 P13 1.567054 1_555
O39 P10 1.560815 1_555
O40 P11 1.561446 1_555
O41 P9 1.560041 1_555
O42 P5 1.554916 1_555
O43 Si1 1.625027 1_555
O44 P6 1.556690 1_555
O45 Si2 1.628522 1_555
O46 P7 1.543818 1_555
O47 P8 1.544232 1_555
O48 Si0 1.643676 1_555
O49 P3 1.574035 1_555
O50 P4 1.552282 1_655
O51 P1 1.585716 1_555
O52 P2 1.583312 1_655
O53 P0 1.557217 1_555
O54 P9 1.524853 1_555
O55 P10 1.525588 1_655
O56 P11 1.524495 1_545
O57 P12 1.561602 1_545
O58 P13 1.537666 1_555
O59 P14 1.538374 1_655
O60 P8 1.567942 1_555
O61 Si2 1.674727 1_455
O62 P7 1.567950 1_565
O63 Si1 1.666204 1_565
O64 P6 1.562568 1_555
O65 P5 1.539090 1_455
O66 P0 1.549760 1_565
O67 P1 1.524191 1_555
O68 P2 1.549517 1_555
O69 P3 1.527369 1_555
O70 P4 1.527818 1_555
O71 Si0 1.639203 1_565
