# generated using pymatgen
data_Nd(GePt)2
_symmetry_space_group_name_H-M   'P 1'
_cell_length_a   5.91008704
_cell_length_b   5.91008704
_cell_length_c   5.91008704
_cell_angle_alpha   136.08680386
_cell_angle_beta   136.08680386
_cell_angle_gamma   63.84616363
_symmetry_Int_Tables_number   1
_chemical_formula_structural   Nd(GePt)2
_chemical_formula_sum   'Nd1 Ge2 Pt2'
_cell_volume   97.98202752
_cell_formula_units_Z   1
loop_
 _symmetry_equiv_pos_site_id
 _symmetry_equiv_pos_as_xyz
  1  'x, y, z'
loop_
 _atom_site_type_symbol
 _atom_site_label
 _atom_site_symmetry_multiplicity
 _atom_site_fract_x
 _atom_site_fract_y
 _atom_site_fract_z
 _atom_site_occupancy
  Nd  Nd0  1  0.00000000  0.00000000  0.00000000  1
  Ge  Ge0  1  0.37417100  0.37417100  0.00000000  1
  Ge  Ge1  1  0.62582900  0.62582900  0.00000000  1
  Pt  Pt0  1  0.75000000  0.25000000  0.50000000  1
  Pt  Pt1  1  0.25000000  0.75000000  0.50000000  1
loop_
_geom_bond_atom_site_label_1
_geom_bond_atom_site_label_2
_geom_bond_distance
_geom_bond_site_symmetry_2
Nd0 Pt1 3.342739 1_444
Nd0 Pt1 3.342739 1_545
Nd0 Pt0 3.342739 1_454
Nd0 Pt1 3.342739 1_544
Nd0 Pt0 3.342739 1_455
Nd0 Pt1 3.342739 1_555
Nd0 Pt0 3.342739 1_555
Nd0 Pt0 3.342739 1_444
Ge0 Ge1 2.524753 1_555
Ge0 Pt0 2.536753 1_555
Ge0 Pt1 2.536753 1_555
Ge0 Pt1 2.536753 1_544
Ge0 Pt0 2.536753 1_454
Ge0 Nd0 3.370472 1_666
Ge0 Nd0 3.370472 1_655
Ge0 Nd0 3.370472 1_554
Ge0 Nd0 3.370472 1_565
Ge1 Pt0 2.536753 1_565
Ge1 Pt1 2.536753 1_554
Ge1 Pt1 2.536753 1_655
Ge1 Pt0 2.536753 1_554
Ge1 Nd0 3.370472 1_666
Ge1 Nd0 3.370472 1_565
Ge1 Nd0 3.370472 1_655
Ge1 Nd0 3.370472 1_554
