# generated using pymatgen
data_Mn4(PO4)3
_symmetry_space_group_name_H-M   'P 1'
_cell_length_a   10.90305055
_cell_length_b   10.90305055
_cell_length_c   10.90305055
_cell_angle_alpha   143.80594669
_cell_angle_beta   143.80594669
_cell_angle_gamma   52.11756873
_symmetry_Int_Tables_number   1
_chemical_formula_structural   Mn4(PO4)3
_chemical_formula_sum   'Mn8 P6 O24'
_cell_volume   449.39200338
_cell_formula_units_Z   2
loop_
 _symmetry_equiv_pos_site_id
 _symmetry_equiv_pos_as_xyz
  1  'x, y, z'
loop_
 _atom_site_type_symbol
 _atom_site_label
 _atom_site_symmetry_multiplicity
 _atom_site_fract_x
 _atom_site_fract_y
 _atom_site_fract_z
 _atom_site_occupancy
  Mn  Mn0  1  0.76947600  0.76947600  0.00000000  1
  Mn  Mn1  1  0.12634400  0.12500000  0.50134400  1
  Mn  Mn2  1  0.37500000  0.87365600  0.99865600  1
  Mn  Mn3  1  0.23052400  0.23052400  0.00000000  1
  Mn  Mn4  1  0.87500000  0.37634400  0.00134400  1
  Mn  Mn5  1  0.98052400  0.48052400  0.50000000  1
  Mn  Mn6  1  0.51947600  0.01947600  0.50000000  1
  Mn  Mn7  1  0.62365600  0.62500000  0.49865600  1
  P  P0  1  0.00000000  0.00000000  0.00000000  1
  P  P1  1  0.75000000  0.25000000  0.50000000  1
  P  P2  1  0.53052500  0.12500000  0.90552500  1
  P  P3  1  0.87500000  0.78052500  0.40552500  1
  P  P4  1  0.21947500  0.62500000  0.09447500  1
  P  P5  1  0.37500000  0.46947500  0.59447500  1
  O  O0  1  0.07392400  0.78487600  0.15199400  1
  O  O1  1  0.44081600  0.13559400  0.70754400  1
  O  O2  1  0.86440600  0.57195000  0.30522200  1
  O  O3  1  0.11711700  0.46512400  0.78904800  1
  O  O4  1  0.26672800  0.55918400  0.69477800  1
  O  O5  1  0.88559400  0.69081600  0.20754400  1
  O  O6  1  0.22657700  0.97593800  0.11930300  1
  O  O7  1  0.89336600  0.27406200  0.75063900  1
  O  O8  1  0.21512400  0.36711700  0.28904800  1
  O  O9  1  0.67193000  0.88288300  0.34800600  1
  O  O10  1  0.02406200  0.14336600  0.25063900  1
  O  O11  1  0.85727400  0.10663400  0.38069700  1
  O  O12  1  0.67607600  0.32807000  0.21095200  1
  O  O13  1  0.30918400  0.51672800  0.19477800  1
  O  O14  1  0.89272600  0.77342300  0.74936100  1
  O  O15  1  0.72593800  0.47657700  0.61930300  1
  O  O16  1  0.07807000  0.92607600  0.71095200  1
  O  O17  1  0.53487600  0.32392400  0.65199400  1
  O  O18  1  0.32195000  0.11440600  0.80522200  1
  O  O19  1  0.63288300  0.92193000  0.84800600  1
  O  O20  1  0.48327200  0.67805000  0.79245600  1
  O  O21  1  0.42805000  0.73327200  0.29245600  1
  O  O22  1  0.85663400  0.10727400  0.88069700  1
  O  O23  1  0.52342300  0.14272600  0.24936100  1
loop_
_geom_bond_atom_site_label_1
_geom_bond_atom_site_label_2
_geom_bond_distance
_geom_bond_site_symmetry_2
Mn0 O20 2.152636 1_554
Mn0 O5 2.152636 1_555
Mn0 O11 2.222424 1_565
Mn0 O15 2.222428 1_554
Mn0 O0 2.269279 1_655
Mn0 O19 2.269283 1_554
Mn1 O11 2.108220 1_455
Mn1 O10 2.108224 1_555
Mn1 O18 2.109328 1_555
Mn1 O1 2.109328 1_555
Mn1 O0 2.208543 1_545
Mn1 O3 2.208544 1_555
Mn2 O6 2.108215 1_556
Mn2 O23 2.108215 1_566
Mn2 O20 2.109328 1_555
Mn2 O4 2.109328 1_555
Mn2 O9 2.208538 1_556
Mn2 O16 2.208543 1_555
Mn3 O13 2.152636 1_555
Mn3 O18 2.152636 1_554
Mn3 O7 2.222422 1_454
Mn3 O23 2.222428 1_555
Mn3 O16 2.269279 1_544
Mn3 O8 2.269285 1_555
Mn4 O22 2.108220 1_554
Mn4 O7 2.108224 1_554
Mn4 O2 2.109328 1_555
Mn4 O5 2.109328 1_555
Mn4 O17 2.208543 1_554
Mn4 O8 2.208544 1_655
Mn5 O2 2.152636 1_555
Mn5 O4 2.152636 1_655
Mn5 O10 2.222422 1_655
Mn5 O14 2.222428 1_555
Mn5 O12 2.269279 1_555
Mn5 O3 2.269285 1_655
Mn6 O21 2.152636 1_545
Mn6 O1 2.152636 1_555
Mn6 O22 2.222424 1_555
Mn6 O6 2.222428 1_545
Mn6 O17 2.269279 1_555
Mn6 O9 2.269283 1_545
Mn7 O14 2.108215 1_555
Mn7 O15 2.108215 1_555
Mn7 O13 2.109328 1_555
Mn7 O21 2.109328 1_555
Mn7 O19 2.208538 1_555
Mn7 O12 2.208543 1_555
O0 P4 1.547552 1_555
O1 P2 1.576540 1_555
O2 P3 1.576540 1_555
O3 P4 1.547548 1_556
O4 P5 1.576540 1_555
O5 P3 1.576540 1_555
O6 P0 1.559464 1_565
O7 P1 1.559460 1_555
O8 P5 1.547548 1_555
O9 P3 1.547553 1_555
O10 P0 1.559460 1_555
O11 P1 1.559462 1_555
O12 P2 1.547552 1_554
O13 P4 1.576540 1_555
O14 P0 1.559464 1_666
O15 P1 1.559464 1_555
O16 P3 1.547552 1_455
O17 P5 1.547552 1_555
O18 P2 1.576540 1_555
O19 P2 1.547553 1_565
O20 P5 1.576540 1_555
O21 P4 1.576540 1_555
O22 P0 1.559462 1_656
O23 P1 1.559464 1_555
