# generated using pymatgen
data_Na7TiZn3P5SO24
_symmetry_space_group_name_H-M   'P 1'
_cell_length_a   9.01907750
_cell_length_b   9.00855533
_cell_length_c   21.75600645
_cell_angle_alpha   89.34983764
_cell_angle_beta   90.43851963
_cell_angle_gamma   120.01476338
_symmetry_Int_Tables_number   1
_chemical_formula_structural   Na7TiZn3P5SO24
_chemical_formula_sum   'Na21 Ti3 Zn9 P15 S3 O72'
_cell_volume   1530.50008560
_cell_formula_units_Z   3
loop_
 _symmetry_equiv_pos_site_id
 _symmetry_equiv_pos_as_xyz
  1  'x, y, z'
loop_
 _atom_site_type_symbol
 _atom_site_label
 _atom_site_symmetry_multiplicity
 _atom_site_fract_x
 _atom_site_fract_y
 _atom_site_fract_z
 _atom_site_occupancy
  Na  Na0  1  0.62499271  0.99820817  0.25121464  1
  Na  Na1  1  0.36812608  0.36112127  0.25301510  1
  Na  Na2  1  0.00788352  0.63972970  0.24911244  1
  Na  Na3  1  0.64877351  0.63750095  0.74749866  1
  Na  Na4  1  0.99161920  0.35327089  0.74893320  1
  Na  Na5  1  0.29346644  0.33893261  0.58648143  1
  Na  Na6  1  0.03566762  0.70373607  0.58756602  1
  Na  Na7  1  0.67133958  0.95628747  0.58426610  1
  Na  Na8  1  0.29250046  0.95567844  0.08077526  1
  Na  Na9  1  0.66216284  0.70367282  0.07791647  1
  Na  Na10  1  0.04280128  0.33735027  0.07825974  1
  Na  Na11  1  0.97638474  0.67876210  0.90885104  1
  Na  Na12  1  0.32304998  0.29551765  0.90892850  1
  Na  Na13  1  0.32707343  0.02083620  0.41248996  1
  Na  Na14  1  0.69406024  0.67676271  0.41671083  1
  Na  Na15  1  0.99526295  0.01565562  0.49742759  1
  Na  Na16  1  0.98365824  0.00048516  0.99285919  1
  Na  Na17  1  0.65097247  0.30204763  0.82692851  1
  Na  Na18  1  0.67081080  0.32323636  0.33276398  1
  Na  Na19  1  0.33230307  0.67240956  0.16294303  1
  Na  Na20  1  0.33471545  0.67400132  0.66616171  1
  Ti  Ti0  1  0.66804196  0.33002246  0.98077215  1
  Ti  Ti1  1  0.68045115  0.34191170  0.48028842  1
  Ti  Ti2  1  0.33534640  0.67457535  0.81634581  1
  Zn  Zn0  1  0.01033278  0.01019497  0.35266230  1
  Zn  Zn1  1  0.99696604  0.00284363  0.84599045  1
  Zn  Zn2  1  0.99474984  0.00079987  0.66324157  1
  Zn  Zn3  1  0.00953465  0.99840995  0.14569477  1
  Zn  Zn4  1  0.66750496  0.33556203  0.68517160  1
  Zn  Zn5  1  0.65617225  0.32271807  0.17532296  1
  Zn  Zn6  1  0.33719133  0.66722868  0.01104293  1
  Zn  Zn7  1  0.33185455  0.65666183  0.50881861  1
  Zn  Zn8  1  0.33000964  0.67328129  0.32997330  1
  P  P0  1  0.29892595  0.99722251  0.24994160  1
  P  P1  1  0.30014944  0.30520138  0.75232631  1
  P  P2  1  0.00728213  0.70492823  0.75164552  1
  P  P3  1  0.69578339  0.99673474  0.74935810  1
  P  P4  1  0.96278581  0.33582410  0.58592900  1
  P  P5  1  0.66472148  0.62586134  0.58325241  1
  P  P6  1  0.95653745  0.62345012  0.08455306  1
  P  P7  1  0.66738142  0.03732059  0.08530777  1
  P  P8  1  0.37316126  0.33561275  0.08300873  1
  P  P9  1  0.62966044  0.66416030  0.91905579  1
  P  P10  1  0.03527616  0.37108321  0.91898251  1
  P  P11  1  0.33753944  0.96317912  0.92019074  1
  P  P12  1  0.63695795  0.97284428  0.41820172  1
  P  P13  1  0.33853784  0.36584366  0.41796383  1
  P  P14  1  0.03232731  0.66587950  0.41721659  1
  S  S0  1  0.70203422  0.70319040  0.24978246  1
  S  S1  1  0.00045562  0.29652135  0.24803236  1
  S  S2  1  0.37572033  0.04248019  0.58156663  1
  O  O0  1  0.21169119  0.01879664  0.30718826  1
  O  O1  1  0.80131353  0.79026579  0.30556933  1
  O  O2  1  0.97765834  0.18547471  0.30145041  1
  O  O3  1  0.21534909  0.20003454  0.80998260  1
  O  O4  1  0.98184598  0.79114279  0.80741926  1
  O  O5  1  0.81853376  0.02916165  0.80242228  1
  O  O6  1  0.75870254  0.95006332  0.68953102  1
  O  O7  1  0.18738118  0.22894244  0.69366703  1
  O  O8  1  0.03182969  0.80647954  0.69094483  1
  O  O9  1  0.78465988  0.80539621  0.19325613  1
  O  O10  1  0.01484053  0.21797526  0.19006427  1
  O  O11  1  0.19248694  0.97404554  0.19062370  1
  O  O12  1  0.88315719  0.35511214  0.64481620  1
  O  O13  1  0.47945439  0.12653728  0.63584318  1
  O  O14  1  0.64320814  0.52244409  0.64212079  1
  O  O15  1  0.87507754  0.52178751  0.14400477  1
  O  O16  1  0.64472409  0.10987069  0.14589587  1
  O  O17  1  0.47147147  0.35924744  0.14363148  1
  O  O18  1  0.47922811  0.32145515  0.02795900  1
  O  O19  1  0.84100217  0.51935335  0.02760285  1
  O  O20  1  0.67979518  0.16255641  0.03110975  1
  O  O21  1  0.46429374  0.14227560  0.52408244  1
  O  O22  1  0.67154338  0.51758906  0.52668654  1
  O  O23  1  0.83968254  0.32457675  0.53062208  1
  O  O24  1  0.55385161  0.68414467  0.97868489  1
  O  O25  1  0.13722752  0.44947777  0.97816247  1
  O  O26  1  0.31001002  0.86183238  0.98007074  1
  O  O27  1  0.55156088  0.85956583  0.47519725  1
  O  O28  1  0.31915485  0.44547438  0.47678196  1
  O  O29  1  0.14636917  0.69464508  0.47349942  1
  O  O30  1  0.10296913  0.63524780  0.35761113  1
  O  O31  1  0.52220433  0.89984641  0.36011987  1
  O  O32  1  0.37043969  0.48163943  0.36053647  1
  O  O33  1  0.13130130  0.49520280  0.86331993  1
  O  O34  1  0.35502822  0.85889369  0.86606782  1
  O  O35  1  0.50636206  0.63952883  0.86385637  1
  O  O36  1  -0.00014911  0.81866023  0.41358348  1
  O  O37  1  0.81357458  0.98945038  0.41128050  1
  O  O38  1  0.18769584  0.18169541  0.41355922  1
  O  O39  1  0.01492469  0.19392233  0.91139579  1
  O  O40  1  0.18323036  0.99003978  0.91172743  1
  O  O41  1  0.81331521  0.81157754  0.91144984  1
  O  O42  1  0.97264848  0.16990179  0.58309074  1
  O  O43  1  0.20627147  0.03246981  0.58234524  1
  O  O44  1  0.83298501  0.79945029  0.58025278  1
  O  O45  1  0.96239642  0.79832249  0.08129874  1
  O  O46  1  0.83568594  0.03132604  0.08248313  1
  O  O47  1  0.19761284  0.16745186  0.08065776  1
  O  O48  1  0.67184643  0.15268904  0.74331270  1
  O  O49  1  0.48396785  0.33848835  0.74742229  1
  O  O50  1  0.85140892  0.52030490  0.74942064  1
  O  O51  1  0.68933101  0.53137628  0.24882385  1
  O  O52  1  0.84835199  0.32116041  0.24764471  1
  O  O53  1  0.48064864  0.16194910  0.24765366  1
  O  O54  1  0.63564039  0.49007719  0.92088471  1
  O  O55  1  0.85722535  0.36440164  0.92183743  1
  O  O56  1  0.50387167  0.14426519  0.92168687  1
  O  O57  1  0.65198357  0.15370458  0.42571787  1
  O  O58  1  0.50704035  0.35026018  0.42185821  1
  O  O59  1  0.84753555  0.50210642  0.42438821  1
  O  O60  1  0.35041703  0.49337907  0.07772615  1
  O  O61  1  0.13676388  0.64637646  0.08056179  1
  O  O62  1  0.50926755  0.85828775  0.07881743  1
  O  O63  1  0.35338726  0.86745910  0.57914155  1
  O  O64  1  0.50641558  0.64928424  0.57833401  1
  O  O65  1  0.14086311  0.49799523  0.57878316  1
  O  O66  1  0.31728741  0.83373160  0.25404117  1
  O  O67  1  0.52659377  0.68129243  0.25167924  1
  O  O68  1  0.16021117  0.46740883  0.25250074  1
  O  O69  1  0.31348056  0.48875005  0.75844193  1
  O  O70  1  0.17117650  0.68497107  0.75863755  1
  O  O71  1  0.51669954  0.82984544  0.76107968  1
loop_
_geom_bond_atom_site_label_1
_geom_bond_atom_site_label_2
_geom_bond_distance
_geom_bond_site_symmetry_2
Na0 O66 2.405768 1_555
Na0 O53 2.407007 1_565
Na0 O16 2.463435 1_565
Na0 O67 2.530441 1_555
Na0 O31 2.534272 1_555
Na0 O52 2.581135 1_565
Na1 O53 2.468024 1_555
Na1 O68 2.495805 1_555
Na1 O67 2.497440 1_555
Na1 O51 2.511734 1_555
Na1 O17 2.565712 1_555
Na1 O32 2.585617 1_555
Na1 O0 2.912022 1_555
Na2 O66 2.444077 1_555
Na2 O52 2.485477 1_455
Na2 O30 2.512076 1_555
Na2 O51 2.530108 1_455
Na2 O68 2.536191 1_555
Na2 O15 2.555913 1_455
Na2 O11 2.896637 1_555
Na3 O49 2.336591 1_555
Na3 O14 2.516542 1_555
Na3 O50 2.526787 1_555
Na3 O71 2.567213 1_555
Na3 O69 2.635681 1_555
Na3 O6 2.765404 1_555
Na3 O35 2.851798 1_555
Na3 O4 2.908703 1_555
Na4 O50 2.401609 1_555
Na4 O12 2.463668 1_555
Na4 O48 2.526607 1_555
Na4 O69 2.532033 1_655
Na4 O70 2.600760 1_655
Na4 O5 2.776122 1_555
Na4 O33 2.797814 1_655
Na4 O7 2.803372 1_655
Na5 O65 2.437157 1_555
Na5 O43 2.465958 1_555
Na5 O64 2.481664 1_555
Na5 O42 2.507531 1_455
Na5 O7 2.523567 1_555
Na5 O28 2.530780 1_555
Na6 O44 2.383220 1_455
Na6 O8 2.448849 1_555
Na6 O65 2.478292 1_555
Na6 O63 2.488748 1_555
Na6 O43 2.566468 1_565
Na6 O29 2.699335 1_555
Na7 O64 2.401576 1_555
Na7 O42 2.420100 1_565
Na7 O6 2.425368 1_555
Na7 O44 2.488932 1_555
Na7 O63 2.564663 1_555
Na7 O27 2.573496 1_555
Na8 O26 2.391806 1_554
Na8 O61 2.412772 1_555
Na8 O47 2.450561 1_565
Na8 O62 2.512345 1_555
Na8 O45 2.579029 1_455
Na8 O11 2.596877 1_555
Na9 O24 2.334610 1_554
Na9 O45 2.398599 1_555
Na9 O62 2.400960 1_555
Na9 O60 2.483033 1_555
Na9 O46 2.560148 1_565
Na9 O9 2.711820 1_555
Na10 O25 2.367676 1_554
Na10 O60 2.402472 1_555
Na10 O46 2.437788 1_455
Na10 O61 2.472432 1_555
Na10 O47 2.535717 1_555
Na10 O10 2.610642 1_555
Na11 O41 2.315407 1_555
Na11 O4 2.407940 1_555
Na11 O40 2.473071 1_655
Na11 O55 2.489237 1_555
Na11 O54 2.679267 1_555
Na11 O33 2.835073 1_655
Na11 O19 2.904788 1_556
Na12 O3 2.343399 1_555
Na12 O40 2.385898 1_545
Na12 O39 2.453570 1_555
Na12 O54 2.478611 1_555
Na12 O56 2.607854 1_555
Na12 O35 2.851130 1_555
Na12 O18 2.893700 1_556
Na13 O38 2.346122 1_555
Na13 O0 2.505401 1_555
Na13 O57 2.566809 1_555
Na13 O36 2.578788 1_545
Na13 O58 2.583138 1_555
Na13 O21 2.698606 1_555
Na13 O31 2.749782 1_545
Na13 O29 2.864637 1_545
Na14 O36 2.391403 1_655
Na14 O37 2.463186 1_555
Na14 O58 2.557527 1_555
Na14 O59 2.566884 1_555
Na14 O1 2.611147 1_555
Na14 O22 2.731358 1_555
Na14 O32 2.822033 1_555
Na14 O27 2.858808 1_555
Na15 O42 2.407046 1_555
Na15 O37 2.414466 1_545
Na15 O38 2.442993 1_655
Na15 O44 2.508277 1_545
Na15 O36 2.574208 1_645
Na15 O43 2.592686 1_655
Na16 O39 2.388135 1_655
Na16 O41 2.409236 1_545
Na16 O46 2.466436 1_556
Na16 O40 2.566347 1_645
Na16 O45 2.575340 1_546
Na16 O47 2.596095 1_656
Na17 O48 2.338661 1_555
Na17 O49 2.410476 1_555
Na17 O56 2.473724 1_555
Na17 O50 2.528395 1_555
Na17 O55 2.638488 1_555
Na17 O54 2.717346 1_555
Na18 O53 2.449623 1_555
Na18 O52 2.463713 1_555
Na18 O57 2.475221 1_555
Na18 O58 2.532269 1_555
Na18 O51 2.548001 1_555
Na18 O59 2.562287 1_555
Na19 O61 2.434110 1_555
Na19 O62 2.449995 1_555
Na19 O66 2.514913 1_555
Na19 O60 2.530053 1_555
Na19 O67 2.572058 1_555
Na19 O68 2.590922 1_555
Na20 O63 2.507241 1_555
Na20 O65 2.535503 1_555
Na20 O70 2.535513 1_555
Na20 O69 2.542139 1_555
Na20 O64 2.549248 1_555
Na20 O71 2.576418 1_555
O0 P0 1.543188 1_545
O0 Zn0 2.041534 1_555
O1 S0 1.480683 1_555
O1 Zn0 2.192885 1_665
O2 S1 1.471440 1_655
O2 Zn0 2.059633 1_655
O3 P1 1.522749 1_555
O3 Zn1 2.034781 1_455
O4 P2 1.527128 1_655
O4 Zn1 2.033288 1_565
O5 P3 1.519317 1_545
O5 Zn1 1.974275 1_555
O6 P3 1.566964 1_555
O6 Zn2 2.026720 1_565
O7 P1 1.560783 1_555
O7 Zn2 2.030163 1_455
O8 P2 1.550598 1_555
O8 Zn2 2.024394 1_465
O9 S0 1.489074 1_555
O9 Zn3 2.161176 1_655
O10 S1 1.490845 1_555
O10 Zn3 2.189607 1_545
O11 P0 1.554744 1_555
O11 Zn3 2.014722 1_555
O12 P4 1.526858 1_555
O12 Zn4 2.065126 1_555
O13 S2 1.462093 1_555
O13 Zn4 2.096887 1_555
O14 P5 1.530286 1_555
O14 Zn4 2.022306 1_555
O15 P6 1.538180 1_555
O15 Zn5 2.007212 1_555
O16 P7 1.537445 1_555
O16 Zn5 1.981394 1_555
O17 P8 1.539687 1_555
O17 Zn5 1.970880 1_555
O18 P8 1.583938 1_555
O18 Ti0 1.962980 1_554
O19 P6 1.590394 1_555
O19 Ti0 1.932310 1_554
O20 P7 1.587819 1_555
O20 Ti0 1.899277 1_554
O21 S2 1.510540 1_555
O21 Ti1 2.103504 1_555
O22 P5 1.599399 1_555
O22 Ti1 1.922170 1_555
O23 P4 1.600182 1_555
O23 Ti1 1.866119 1_555
O24 P9 1.524756 1_555
O24 Zn6 2.014432 1_556
O25 P10 1.534535 1_555
O25 Zn6 2.021141 1_556
O26 P11 1.530857 1_555
O26 Zn6 1.997030 1_556
O27 P12 1.540048 1_555
O27 Zn7 2.042279 1_555
O28 P13 1.527213 1_555
O28 Zn7 1.982236 1_555
O29 P14 1.531573 1_555
O29 Zn7 2.013252 1_555
O30 P14 1.536347 1_555
O30 Zn8 1.996062 1_555
O31 P12 1.555089 1_555
O31 Zn8 2.018448 1_555
O32 P13 1.551637 1_555
O32 Zn8 2.038542 1_555
O33 P10 1.575855 1_555
O33 Ti2 2.014567 1_555
O34 P11 1.571677 1_555
O34 Ti2 1.923983 1_555
O35 P9 1.570609 1_555
O35 Ti2 2.000618 1_555
O36 P14 1.544937 1_555
O36 Zn0 2.128294 1_565
O37 P12 1.532058 1_555
O37 Zn0 2.123179 1_665
O38 P13 1.534841 1_555
O38 Zn0 2.059758 1_555
O39 P10 1.523311 1_555
O39 Zn1 2.187966 1_455
O40 P11 1.536664 1_555
O40 Zn1 2.243705 1_465
O41 P9 1.527470 1_555
O41 Zn1 2.205836 1_565
O42 P4 1.543085 1_555
O42 Zn2 2.374714 1_555
O43 S2 1.485435 1_555
O43 Zn2 2.512736 1_455
O44 P5 1.541982 1_555
O44 Zn2 2.462722 1_565
O45 P6 1.550409 1_555
O45 Zn3 2.161963 1_655
O46 P7 1.547379 1_555
O46 Zn3 2.204668 1_645
O47 P8 1.550884 1_555
O47 Zn3 2.145228 1_545
O48 P3 1.528571 1_545
O48 Zn4 2.081354 1_555
O49 P1 1.534426 1_555
O49 Zn4 2.157270 1_555
O50 P2 1.551284 1_655
O50 Zn4 2.174944 1_555
O51 S0 1.494162 1_555
O51 Zn5 2.382922 1_555
O52 S1 1.495219 1_655
O52 Zn5 2.337145 1_555
O53 P0 1.567528 1_545
O53 Zn5 2.184626 1_555
O54 P9 1.595942 1_555
O54 Ti0 2.057918 1_555
O55 P10 1.578287 1_655
O55 Ti0 2.036427 1_555
O56 P11 1.569994 1_545
O56 Ti0 2.045943 1_555
O57 P12 1.576230 1_545
O57 Ti1 1.988867 1_555
O58 P13 1.596148 1_555
O58 Ti1 2.037845 1_555
O59 P14 1.586665 1_655
O59 Ti1 1.909213 1_555
O60 P8 1.537152 1_555
O60 Zn6 2.168962 1_555
O61 P6 1.535662 1_455
O61 Zn6 2.299164 1_555
O62 P7 1.534876 1_565
O62 Zn6 2.212545 1_555
O63 S2 1.487716 1_565
O63 Zn7 2.382646 1_555
O64 P5 1.546953 1_555
O64 Zn7 2.199165 1_555
O65 P4 1.545719 1_455
O65 Zn7 2.203346 1_555
O66 P0 1.563769 1_555
O66 Zn8 2.222677 1_555
O67 S0 1.494276 1_555
O67 Zn8 2.442467 1_555
O68 S1 1.495843 1_555
O68 Zn8 2.411577 1_555
O69 P1 1.603777 1_555
O69 Ti2 2.035188 1_555
O70 P2 1.581859 1_555
O70 Ti2 1.971044 1_555
O71 P3 1.581878 1_555
O71 Ti2 1.944372 1_555
