# generated using pymatgen
data_MgBi4(P2O7)4
_symmetry_space_group_name_H-M   'P 1'
_cell_length_a   9.23606738
_cell_length_b   5.24814899
_cell_length_c   13.60261934
_cell_angle_alpha   89.69533841
_cell_angle_beta   103.84762260
_cell_angle_gamma   90.14299219
_symmetry_Int_Tables_number   1
_chemical_formula_structural   MgBi4(P2O7)4
_chemical_formula_sum   'Mg1 Bi4 P8 O28'
_cell_volume   640.17656390
_cell_formula_units_Z   1
loop_
 _symmetry_equiv_pos_site_id
 _symmetry_equiv_pos_as_xyz
  1  'x, y, z'
loop_
 _atom_site_type_symbol
 _atom_site_label
 _atom_site_symmetry_multiplicity
 _atom_site_fract_x
 _atom_site_fract_y
 _atom_site_fract_z
 _atom_site_occupancy
  Mg  Mg0  1  0.33329500  0.26808800  0.22589300  1
  Bi  Bi0  1  0.25244300  0.76276800  0.53215900  1
  Bi  Bi1  1  0.77523000  0.73344800  0.02336700  1
  Bi  Bi2  1  0.24792600  0.27491000  0.95701500  1
  Bi  Bi3  1  0.72832900  0.23764800  0.47232100  1
  P  P0  1  0.48006400  0.75622000  0.34983200  1
  P  P1  1  0.02379800  0.76953600  0.85003100  1
  P  P2  1  0.56861800  0.25063400  0.87315900  1
  P  P3  1  0.45068500  0.76126600  0.12385400  1
  P  P4  1  0.05921100  0.23777400  0.38614100  1
  P  P5  1  0.92794600  0.75637600  0.62311100  1
  P  P6  1  0.48352300  0.25363400  0.64515700  1
  P  P7  1  0.00757300  0.21585700  0.15505200  1
  O  O0  1  0.80660100  0.57004900  0.57441300  1
  O  O1  1  0.14272800  0.28428700  0.11171600  1
  O  O2  1  0.57799700  0.14511000  0.57855300  1
  O  O3  1  0.32892300  0.89208600  0.04552700  1
  O  O4  1  0.06564200  0.95380700  0.41659000  1
  O  O5  1  0.08713600  0.66535800  0.62380100  1
  O  O6  1  0.93654700  0.64908300  0.92150100  1
  O  O7  1  0.44571500  0.53960000  0.62779900  1
  O  O8  1  0.90453300  0.34527300  0.37606300  1
  O  O9  1  0.36932300  0.88385500  0.40177300  1
  O  O10  1  0.64120600  0.83679900  0.38848900  1
  O  O11  1  0.42416500  0.47312300  0.12884200  1
  O  O12  1  0.96365800  0.93487400  0.14093600  1
  O  O13  1  0.16073100  0.60876400  0.84816100  1
  O  O14  1  0.87396500  0.39148800  0.12821000  1
  O  O15  1  0.58804600  0.24347100  0.75846700  1
  O  O16  1  0.34229600  0.09096500  0.64041200  1
  O  O17  1  0.91383600  0.76669600  0.73882900  1
  O  O18  1  0.41319600  0.14426900  0.87015500  1
  O  O19  1  0.46055700  0.46678900  0.33819500  1
  O  O20  1  0.61048500  0.83330900  0.12388700  1
  O  O21  1  0.09951500  0.25153800  0.27476400  1
  O  O22  1  0.19046800  0.38312900  0.45244400  1
  O  O23  1  0.05886900  0.05376900  0.87156300  1
  O  O24  1  0.90211300  0.02901700  0.58055500  1
  O  O25  1  0.42124900  0.88542400  0.23264700  1
  O  O26  1  0.58102000  0.52851100  0.91059100  1
  O  O27  1  0.70083900  0.09639900  0.93312900  1
loop_
_geom_bond_atom_site_label_1
_geom_bond_atom_site_label_2
_geom_bond_distance
_geom_bond_site_symmetry_2
Mg0 O19 1.988447 1_555
Mg0 O11 2.028750 1_555
Mg0 O1 2.051365 1_555
Mg0 O25 2.161478 1_545
Mg0 O21 2.407735 1_555
Bi0 O5 2.246495 1_555
Bi0 O7 2.265682 1_555
Bi0 O4 2.268650 1_555
Bi0 O22 2.278874 1_555
Bi0 O16 2.293179 1_565
Bi0 O9 2.369786 1_555
Bi1 O27 2.277076 1_564
Bi1 O6 2.309549 1_554
Bi1 O12 2.319560 1_555
Bi1 O26 2.327729 1_554
Bi1 O14 2.333384 1_555
Bi1 O20 2.338170 1_555
Bi2 O23 2.186261 1_555
Bi2 O18 2.252391 1_555
Bi2 O13 2.306424 1_555
Bi2 O3 2.365677 1_546
Bi2 O1 2.520864 1_556
Bi2 O11 2.718623 1_556
Bi3 O24 2.191614 1_555
Bi3 O0 2.243503 1_555
Bi3 O2 2.280667 1_555
Bi3 O8 2.385280 1_555
Bi3 O10 2.439530 1_545
O0 P5 1.515638 1_555
O1 P7 1.543525 1_555
O2 P6 1.514253 1_555
O3 P3 1.514530 1_555
O4 P4 1.542134 1_565
O5 P5 1.544949 1_455
O6 P1 1.536260 1_655
O7 P6 1.545783 1_555
O8 P4 1.512442 1_655
O9 P0 1.532449 1_555
O10 P0 1.514937 1_555
O11 P3 1.535062 1_555
O12 P7 1.529279 1_665
O13 P1 1.527432 1_555
O14 P7 1.513976 1_655
O15 P6 1.611700 1_555
O15 P2 1.613140 1_555
O16 P6 1.545681 1_555
O17 P1 1.607656 1_655
O17 P5 1.611441 1_555
O18 P2 1.530382 1_555
O19 P0 1.533737 1_555
O20 P3 1.522565 1_555
O21 P4 1.645519 1_555
O21 P7 1.657824 1_555
O22 P4 1.531124 1_555
O23 P1 1.540354 1_545
O24 P5 1.538235 1_545
O25 P0 1.694592 1_555
O25 P3 1.700659 1_555
O26 P2 1.542167 1_555
O27 P2 1.527429 1_555
