# generated using pymatgen
data_Na14In4Ga4Si7S5O48
_symmetry_space_group_name_H-M   'P 1'
_cell_length_a   18.12241700
_cell_length_b   9.06898229
_cell_length_c   22.42934712
_cell_angle_alpha   89.81916682
_cell_angle_beta   89.83910838
_cell_angle_gamma   120.03907004
_symmetry_Int_Tables_number   1
_chemical_formula_structural   Na14In4Ga4Si7S5O48
_chemical_formula_sum   'Na42 In12 Ga12 Si21 S15 O144'
_cell_volume   3191.11958906
_cell_formula_units_Z   3
loop_
 _symmetry_equiv_pos_site_id
 _symmetry_equiv_pos_as_xyz
  1  'x, y, z'
loop_
 _atom_site_type_symbol
 _atom_site_label
 _atom_site_symmetry_multiplicity
 _atom_site_fract_x
 _atom_site_fract_y
 _atom_site_fract_z
 _atom_site_occupancy
  Na  Na0  1  0.81263417  0.99275229  0.24297389  1
  Na  Na1  1  0.18709069  0.36831362  0.25625056  1
  Na  Na2  1  0.68791251  0.36728144  0.25387965  1
  Na  Na3  1  0.99707703  0.64051227  0.24235171  1
  Na  Na4  1  0.50241415  0.64619183  0.24587013  1
  Na  Na5  1  0.31225929  0.63421237  0.75153830  1
  Na  Na6  1  0.00110396  0.35710764  0.74943485  1
  Na  Na7  1  0.49984187  0.35578814  0.74770352  1
  Na  Na8  1  0.18445396  0.00325763  0.75778857  1
  Na  Na9  1  0.68853642  0.00750595  0.75931673  1
  Na  Na10  1  0.14345423  0.33455102  0.58323006  1
  Na  Na11  1  0.64305509  0.33528327  0.58413668  1
  Na  Na12  1  0.33685492  0.97195447  0.58080063  1
  Na  Na13  1  0.83794668  0.97402042  0.58323360  1
  Na  Na14  1  0.14061449  0.94893630  0.08471651  1
  Na  Na15  1  0.65057458  0.95639739  0.08507232  1
  Na  Na16  1  0.33782831  0.70144964  0.08332781  1
  Na  Na17  1  0.83746344  0.71380106  0.08059707  1
  Na  Na18  1  0.48757464  0.68155138  0.92339812  1
  Na  Na19  1  0.98309389  0.67523434  0.92377424  1
  Na  Na20  1  0.34563776  0.02259110  0.91462004  1
  Na  Na21  1  0.84444306  0.02411044  0.91929540  1
  Na  Na22  1  0.16761411  0.29726825  0.91060473  1
  Na  Na23  1  0.67422174  0.30679028  0.91137558  1
  Na  Na24  1  0.48563505  0.29177764  0.41895221  1
  Na  Na25  1  0.98522734  0.28921939  0.41979083  1
  Na  Na26  1  0.17024681  0.03656740  0.40691120  1
  Na  Na27  1  0.66847234  0.03857432  0.40764342  1
  Na  Na28  1  0.34556732  0.66808865  0.41026257  1
  Na  Na29  1  0.84549023  0.66923268  0.41143769  1
  Na  Na30  1  0.99842469  0.00887664  0.49613109  1
  Na  Na31  1  0.49897119  0.00935114  0.49566127  1
  Na  Na32  1  0.99206845  0.98845331  0.00106134  1
  Na  Na33  1  0.50115507  0.99026374  0.99779452  1
  Na  Na34  1  0.32710154  0.32596623  0.83460621  1
  Na  Na35  1  0.82496602  0.33175530  0.83555536  1
  Na  Na36  1  0.32587619  0.31937030  0.33097869  1
  Na  Na37  1  0.82652185  0.32792017  0.32962160  1
  Na  Na38  1  0.16610131  0.67718294  0.17016673  1
  Na  Na39  1  0.66594291  0.67617845  0.16510510  1
  Na  Na40  1  0.15949434  0.65462576  0.67020538  1
  Na  Na41  1  0.66865641  0.65716432  0.67187425  1
  In  In0  1  0.99927109  0.01616600  0.65257594  1
  In  In1  1  0.49629620  0.01288233  0.65175600  1
  In  In2  1  0.99216653  0.98294239  0.14734303  1
  In  In3  1  0.50061583  0.98274487  0.15135505  1
  In  In4  1  0.83509960  0.33325745  0.68838426  1
  In  In5  1  0.33453628  0.33562329  0.18815858  1
  In  In6  1  0.16229286  0.67001957  0.01429051  1
  In  In7  1  0.67207285  0.69052360  0.01731509  1
  In  In8  1  0.16577907  0.65624021  0.51301726  1
  In  In9  1  0.66320855  0.65424510  0.51379455  1
  In  In10  1  0.18093448  0.68767150  0.31546095  1
  In  In11  1  0.68257847  0.67468503  0.81791361  1
  Ga  Ga0  1  0.00019409  0.99923702  0.34766441  1
  Ga  Ga1  1  0.50138588  0.00377101  0.34739315  1
  Ga  Ga2  1  0.00083540  0.99884884  0.84916568  1
  Ga  Ga3  1  0.50150122  0.00467445  0.85018280  1
  Ga  Ga4  1  0.33454370  0.32182695  0.68877272  1
  Ga  Ga5  1  0.83379600  0.33318486  0.18304675  1
  Ga  Ga6  1  0.33129998  0.34623462  0.97872969  1
  Ga  Ga7  1  0.83399200  0.33363357  0.98479766  1
  Ga  Ga8  1  0.33228415  0.31924938  0.47970606  1
  Ga  Ga9  1  0.83117718  0.31604869  0.47812363  1
  Ga  Ga10  1  0.68506047  0.68694582  0.31688345  1
  Ga  Ga11  1  0.18278289  0.68128352  0.81851724  1
  Si  Si0  1  0.14434752  0.99816735  0.25029435  1
  Si  Si1  1  0.65027908  0.99781440  0.25330936  1
  Si  Si2  1  0.35404058  0.70969556  0.25119256  1
  Si  Si3  1  0.85175138  0.69988105  0.25265870  1
  Si  Si4  1  0.15110788  0.30270474  0.75090826  1
  Si  Si5  1  0.64662106  0.29617756  0.75108020  1
  Si  Si6  1  0.35139266  0.99753272  0.75219942  1
  Si  Si7  1  0.85361115  0.99741934  0.75092405  1
  Si  Si8  1  0.47617180  0.34201231  0.58367192  1
  Si  Si9  1  0.98011910  0.34202131  0.58078815  1
  Si  Si10  1  0.47885157  0.61748887  0.08070439  1
  Si  Si11  1  0.97801211  0.61255412  0.08355320  1
  Si  Si12  1  0.83769039  0.05653211  0.08379848  1
  Si  Si13  1  0.31677120  0.66941784  0.91663037  1
  Si  Si14  1  0.82031179  0.66287441  0.91961832  1
  Si  Si15  1  0.16651597  0.96725617  0.91472759  1
  Si  Si16  1  0.66477288  0.97233565  0.91481373  1
  Si  Si17  1  0.31941802  0.96995389  0.41992824  1
  Si  Si18  1  0.81692348  0.96413807  0.41718463  1
  Si  Si19  1  0.16637654  0.35842350  0.41712058  1
  Si  Si20  1  0.66633385  0.36593606  0.41556155  1
  S  S0  1  0.99911623  0.29192904  0.25158986  1
  S  S1  1  0.50177289  0.29396397  0.25251705  1
  S  S2  1  0.00215745  0.70995001  0.75178051  1
  S  S3  1  0.49725595  0.70473027  0.74963331  1
  S  S4  1  0.18740521  0.04176287  0.58430962  1
  S  S5  1  0.68444533  0.03648104  0.58140484  1
  S  S6  1  0.33625526  0.62115267  0.58438321  1
  S  S7  1  0.83577217  0.62546042  0.58107209  1
  S  S8  1  0.33566553  0.04616986  0.08091769  1
  S  S9  1  0.18670148  0.33460394  0.08093184  1
  S  S10  1  0.68598317  0.33204206  0.08405657  1
  S  S11  1  0.02045473  0.37244588  0.91277059  1
  S  S12  1  0.51698417  0.36875441  0.91684699  1
  S  S13  1  0.01596348  0.66564403  0.41678304  1
  S  S14  1  0.51846593  0.66667773  0.41519294  1
  O  O0  1  0.10094930  0.03440065  0.30937898  1
  O  O1  1  0.60429540  0.03732156  0.30962479  1
  O  O2  1  0.41504961  0.80502925  0.30937892  1
  O  O3  1  0.91369468  0.78979942  0.31091966  1
  O  O4  1  0.48952631  0.18964404  0.30713020  1
  O  O5  1  0.98513011  0.18582374  0.30659645  1
  O  O6  1  0.10685536  0.16995082  0.80685627  1
  O  O7  1  0.59957483  0.16632888  0.80748277  1
  O  O8  1  0.48289744  0.78223828  0.80342854  1
  O  O9  1  0.99097394  0.79158894  0.80578096  1
  O  O10  1  0.41569259  0.03484403  0.80832177  1
  O  O11  1  0.91783146  0.02809558  0.80720947  1
  O  O12  1  0.38140645  0.94309586  0.69087153  1
  O  O13  1  0.88587699  0.95993302  0.68732294  1
  O  O14  1  0.09837974  0.23332995  0.68828125  1
  O  O15  1  0.59596304  0.22337459  0.68726360  1
  O  O16  1  0.01744714  0.81619620  0.69696720  1
  O  O17  1  0.51304708  0.81213885  0.69539460  1
  O  O18  1  0.38793452  0.81528715  0.18864617  1
  O  O19  1  0.88382992  0.82082849  0.19378757  1
  O  O20  1  0.01565387  0.21745478  0.19871786  1
  O  O21  1  0.51631490  0.21669025  0.19821786  1
  O  O22  1  0.09223061  0.97590223  0.18847276  1
  O  O23  1  0.59552198  0.95835777  0.19157817  1
  O  O24  1  0.42937024  0.35623237  0.64459495  1
  O  O25  1  0.94031201  0.36434491  0.64286586  1
  O  O26  1  0.23926407  0.12375572  0.63842680  1
  O  O27  1  0.73556508  0.11389772  0.63612280  1
  O  O28  1  0.32358337  0.51597431  0.63836794  1
  O  O29  1  0.82026844  0.51856863  0.63511887  1
  O  O30  1  0.43845962  0.51678758  0.14329921  1
  O  O31  1  0.93259138  0.50958888  0.14561452  1
  O  O32  1  0.32000508  0.12142538  0.13497419  1
  O  O33  1  0.81840931  0.13766355  0.14376914  1
  O  O34  1  0.23823543  0.36138434  0.13578580  1
  O  O35  1  0.73760813  0.35587076  0.13896446  1
  O  O36  1  0.22737520  0.30545975  0.02724617  1
  O  O37  1  0.72443753  0.30269201  0.02984285  1
  O  O38  1  0.41489917  0.52528317  0.02312595  1
  O  O39  1  0.91980687  0.52837471  0.02423982  1
  O  O40  1  0.34203584  0.14344745  0.02608839  1
  O  O41  1  0.84313667  0.15787203  0.02175591  1
  O  O42  1  0.22606472  0.14975967  0.52969998  1
  O  O43  1  0.72502346  0.14794006  0.52782465  1
  O  O44  1  0.34250716  0.53919315  0.52866672  1
  O  O45  1  0.84211310  0.54158129  0.52633561  1
  O  O46  1  0.41616347  0.31210574  0.52493056  1
  O  O47  1  0.91685878  0.30932492  0.52302563  1
  O  O48  1  0.27669286  0.70578418  0.97668308  1
  O  O49  1  0.78064819  0.70661155  0.97845564  1
  O  O50  1  0.07381926  0.44313725  0.96726919  1
  O  O51  1  0.57302657  0.44899442  0.96879178  1
  O  O52  1  0.14251285  0.85237697  0.97533365  1
  O  O53  1  0.63685209  0.84603015  0.97292333  1
  O  O54  1  0.28124603  0.85379637  0.48142777  1
  O  O55  1  0.77820140  0.85011187  0.47836162  1
  O  O56  1  0.14159940  0.42818516  0.47686822  1
  O  O57  1  0.64116098  0.42869911  0.47693409  1
  O  O58  1  0.07144306  0.70020133  0.46994332  1
  O  O59  1  0.57198858  0.70165952  0.46966041  1
  O  O60  1  0.05330757  0.63006471  0.36331370  1
  O  O61  1  0.55778317  0.63439727  0.36285535  1
  O  O62  1  0.24990913  0.89459374  0.36700008  1
  O  O63  1  0.75167891  0.88153029  0.36121292  1
  O  O64  1  0.18697089  0.48350742  0.35937969  1
  O  O65  1  0.68402804  0.49760383  0.35962870  1
  O  O66  1  0.06253325  0.48458534  0.86006445  1
  O  O67  1  0.55237144  0.47476987  0.86164090  1
  O  O68  1  0.18514450  0.87452567  0.85783263  1
  O  O69  1  0.68251723  0.88698133  0.85599454  1
  O  O70  1  0.25330321  0.62224542  0.85907364  1
  O  O71  1  0.75357972  0.59920156  0.86419487  1
  O  O72  1  0.00726406  0.81865708  0.41155714  1
  O  O73  1  0.50904569  0.82034222  0.41017285  1
  O  O74  1  0.41256185  0.98236796  0.40982777  1
  O  O75  1  0.91139769  0.98200254  0.40759649  1
  O  O76  1  0.08155203  0.16734193  0.40961236  1
  O  O77  1  0.58258059  0.17359241  0.40736659  1
  O  O78  1  0.01139609  0.19976147  0.90772982  1
  O  O79  1  0.50744018  0.19682338  0.91167710  1
  O  O80  1  0.08316346  0.99262078  0.90619059  1
  O  O81  1  0.57886214  0.99270147  0.90819813  1
  O  O82  1  0.41058937  0.84130940  0.90696580  1
  O  O83  1  0.91308636  0.84015919  0.90859016  1
  O  O84  1  0.48390957  0.16407774  0.58251296  1
  O  O85  1  0.98832215  0.16490255  0.57993843  1
  O  O86  1  0.10090069  0.02236512  0.58861119  1
  O  O87  1  0.59851736  0.01883663  0.58547165  1
  O  O88  1  0.41374085  0.79428380  0.58676885  1
  O  O89  1  0.91364338  0.79643152  0.58482214  1
  O  O90  1  0.48666462  0.81069544  0.07985903  1
  O  O91  1  0.98949125  0.80707958  0.08215448  1
  O  O92  1  0.41364022  0.03164488  0.08480863  1
  O  O93  1  0.92170082  0.03256548  0.08435763  1
  O  O94  1  0.10209306  0.18092106  0.08518836  1
  O  O95  1  0.59979834  0.17543404  0.08895232  1
  O  O96  1  0.34390882  0.17253642  0.74647163  1
  O  O97  1  0.85047647  0.17713396  0.75164611  1
  O  O98  1  0.24842404  0.32482916  0.74182252  1
  O  O99  1  0.73978783  0.30730429  0.74752349  1
  O  O100  1  0.41798577  0.53425459  0.74457490  1
  O  O101  1  0.92537365  0.53976065  0.74848098  1
  O  O102  1  0.35077972  0.52366760  0.25243502  1
  O  O103  1  0.84363623  0.51005013  0.24553508  1
  O  O104  1  0.42485403  0.31047851  0.24923245  1
  O  O105  1  0.92057811  0.30539919  0.24754071  1
  O  O106  1  0.23901544  0.17180707  0.24775687  1
  O  O107  1  0.74537082  0.17081977  0.24673947  1
  O  O108  1  0.32572862  0.49608150  0.92027292  1
  O  O109  1  0.83215086  0.49445148  0.92674308  1
  O  O110  1  0.42984224  0.34735244  0.92361488  1
  O  O111  1  0.93562221  0.35611510  0.91822182  1
  O  O112  1  0.25603839  0.15580613  0.92373035  1
  O  O113  1  0.75213600  0.15846967  0.92350503  1
  O  O114  1  0.33138266  0.16280559  0.42401552  1
  O  O115  1  0.82596377  0.15557041  0.42088169  1
  O  O116  1  0.25613260  0.35157516  0.42785284  1
  O  O117  1  0.75593437  0.35682944  0.42471182  1
  O  O118  1  0.43195547  0.51347182  0.42263199  1
  O  O119  1  0.92972034  0.51248467  0.42418060  1
  O  O120  1  0.18233085  0.49264760  0.07533300  1
  O  O121  1  0.67912251  0.48668712  0.07892525  1
  O  O122  1  0.07660418  0.64265144  0.08302253  1
  O  O123  1  0.57457123  0.64349810  0.07887111  1
  O  O124  1  0.25894119  0.86914743  0.07927919  1
  O  O125  1  0.75216620  0.86141536  0.08483657  1
  O  O126  1  0.18297041  0.87487301  0.57940963  1
  O  O127  1  0.68000894  0.86957655  0.57592581  1
  O  O128  1  0.25885761  0.64279622  0.58294477  1
  O  O129  1  0.75866056  0.64841815  0.57962632  1
  O  O130  1  0.07833935  0.50721271  0.57954892  1
  O  O131  1  0.57449685  0.50508247  0.58234874  1
  O  O132  1  0.14303187  0.81601612  0.25511734  1
  O  O133  1  0.65439807  0.81931177  0.26214104  1
  O  O134  1  0.25434976  0.66480380  0.24981592  1
  O  O135  1  0.75465861  0.67388456  0.25765994  1
  O  O136  1  0.07424218  0.46553189  0.25819217  1
  O  O137  1  0.57810106  0.46641090  0.25801257  1
  O  O138  1  0.15628289  0.48941367  0.75979810  1
  O  O139  1  0.64452241  0.47437264  0.75583066  1
  O  O140  1  0.07855172  0.68949848  0.75691488  1
  O  O141  1  0.57195181  0.68027211  0.75530631  1
  O  O142  1  0.25427351  0.83178063  0.75723969  1
  O  O143  1  0.75414041  0.84283995  0.75009826  1
loop_
_geom_bond_atom_site_label_1
_geom_bond_atom_site_label_2
_geom_bond_distance
_geom_bond_site_symmetry_2
Na0 O107 2.464147 1_565
Na0 O105 2.515247 1_565
Na0 O133 2.520931 1_555
Na0 O135 2.554424 1_555
Na0 O33 2.555711 1_565
Na0 O19 2.707356 1_555
Na0 O63 2.849917 1_555
Na1 O134 2.334903 1_555
Na1 O106 2.403705 1_555
Na1 O64 2.541535 1_555
Na1 O102 2.570127 1_555
Na1 O136 2.601267 1_555
Na1 O34 2.865111 1_555
Na1 O0 2.874217 1_555
Na1 O20 2.994586 1_555
Na2 O135 2.415914 1_555
Na2 O103 2.452118 1_555
Na2 O107 2.478451 1_555
Na2 O137 2.562764 1_555
Na2 O65 2.669776 1_555
Na2 O35 2.747202 1_555
Na2 O1 2.870525 1_555
Na2 O21 2.979086 1_555
Na3 O132 2.324607 1_655
Na3 O103 2.416980 1_555
Na3 O31 2.474795 1_555
Na3 O136 2.611711 1_655
Na3 O105 2.636368 1_555
Na3 O22 2.898181 1_655
Na3 O60 2.918712 1_655
Na3 O3 2.920613 1_555
Na4 O102 2.397374 1_555
Na4 O133 2.421617 1_555
Na4 O30 2.585257 1_555
Na4 O137 2.617656 1_555
Na4 O104 2.638997 1_555
Na4 O23 2.743877 1_555
Na4 O61 2.832601 1_555
Na4 O2 2.982359 1_555
Na5 O98 2.452308 1_555
Na5 O138 2.455206 1_555
Na5 O142 2.493335 1_555
Na5 O100 2.501092 1_555
Na5 O70 2.615069 1_555
Na5 O12 2.778636 1_555
Na5 O28 2.805293 1_555
Na5 O8 2.931443 1_555
Na6 O97 2.378228 1_455
Na6 O138 2.455490 1_555
Na6 O140 2.617935 1_555
Na6 O101 2.627528 1_455
Na6 O25 2.649083 1_455
Na6 O66 2.734603 1_555
Na6 O14 2.868198 1_555
Na6 O11 2.883769 1_455
Na7 O139 2.290264 1_555
Na7 O96 2.459094 1_555
Na7 O141 2.559458 1_555
Na7 O24 2.645961 1_555
Na7 O100 2.688626 1_555
Na7 O67 2.757536 1_555
Na7 O10 2.857521 1_555
Na7 O15 2.899220 1_555
Na8 O142 2.447364 1_545
Na8 O140 2.512674 1_545
Na8 O96 2.514673 1_555
Na8 O68 2.529145 1_545
Na8 O98 2.565808 1_555
Na8 O6 2.757611 1_555
Na8 O26 2.868469 1_555
Na8 O16 2.965867 1_545
Na9 O143 2.337619 1_545
Na9 O69 2.402709 1_545
Na9 O99 2.406384 1_555
Na9 O97 2.546438 1_555
Na9 O141 2.646575 1_545
Na9 O7 2.857601 1_555
Na9 O27 2.905001 1_555
Na10 O130 2.387664 1_555
Na10 O85 2.438795 1_455
Na10 O14 2.507299 1_555
Na10 O128 2.516961 1_555
Na10 O56 2.535679 1_555
Na10 O86 2.537007 1_555
Na11 O131 2.414947 1_555
Na11 O15 2.493105 1_555
Na11 O84 2.499550 1_555
Na11 O129 2.550379 1_555
Na11 O57 2.552874 1_555
Na11 O87 2.562934 1_555
Na12 O84 2.343415 1_565
Na12 O54 2.465408 1_555
Na12 O126 2.468960 1_555
Na12 O128 2.585642 1_555
Na12 O88 2.608271 1_555
Na12 O12 2.652187 1_555
Na13 O85 2.388234 1_565
Na13 O13 2.518341 1_555
Na13 O127 2.530938 1_555
Na13 O129 2.558299 1_555
Na13 O89 2.586288 1_555
Na13 O55 2.603999 1_555
Na14 O91 2.373350 1_455
Na14 O122 2.416111 1_555
Na14 O94 2.526708 1_565
Na14 O22 2.539931 1_555
Na14 O124 2.586382 1_555
Na14 O52 2.613499 1_554
Na15 O125 2.391518 1_555
Na15 O123 2.461571 1_555
Na15 O95 2.575065 1_565
Na15 O90 2.580013 1_555
Na15 O23 2.589782 1_555
Na15 O53 2.676053 1_554
Na16 O90 2.363426 1_555
Na16 O120 2.494293 1_555
Na16 O124 2.557679 1_555
Na16 O18 2.561122 1_555
Na16 O92 2.595723 1_565
Na16 O48 2.647349 1_554
Na16 O34 2.923281 1_555
Na16 O38 2.926377 1_555
Na17 O91 2.444338 1_555
Na17 O49 2.501977 1_554
Na17 O125 2.502490 1_555
Na17 O93 2.505712 1_565
Na17 O121 2.561576 1_555
Na17 O19 2.702704 1_555
Na18 O81 2.476433 1_555
Na18 O82 2.490929 1_555
Na18 O108 2.549407 1_555
Na18 O53 2.600898 1_555
Na18 O38 2.615569 1_556
Na18 O110 2.665669 1_555
Na18 O8 2.853921 1_555
Na18 O67 3.004388 1_555
Na19 O109 2.383972 1_555
Na19 O83 2.421111 1_555
Na19 O80 2.547956 1_655
Na19 O39 2.569862 1_556
Na19 O111 2.577114 1_555
Na19 O52 2.765609 1_655
Na19 O9 2.822638 1_555
Na20 O82 2.460886 1_545
Na20 O112 2.470146 1_555
Na20 O79 2.541398 1_555
Na20 O110 2.559222 1_555
Na20 O10 2.673693 1_555
Na20 O40 2.746706 1_556
Na20 O68 2.829554 1_545
Na20 O48 2.850371 1_545
Na21 O113 2.516466 1_555
Na21 O83 2.542987 1_545
Na21 O41 2.607593 1_556
Na21 O111 2.610545 1_555
Na21 O78 2.631857 1_655
Na21 O49 2.832430 1_545
Na21 O11 2.832478 1_555
Na21 O69 2.924804 1_545
Na22 O80 2.398869 1_545
Na22 O78 2.509168 1_555
Na22 O108 2.518330 1_555
Na22 O112 2.521696 1_555
Na22 O6 2.592115 1_555
Na22 O70 2.796380 1_555
Na22 O36 2.821256 1_556
Na22 O50 2.916225 1_555
Na23 O113 2.403845 1_555
Na23 O81 2.485744 1_545
Na23 O109 2.517776 1_555
Na23 O71 2.525076 1_555
Na23 O79 2.666841 1_555
Na23 O7 2.682149 1_555
Na23 O37 2.817227 1_556
Na24 O114 2.432948 1_555
Na24 O74 2.440123 1_545
Na24 O77 2.487461 1_555
Na24 O118 2.637082 1_555
Na24 O4 2.689333 1_555
Na24 O46 2.736354 1_555
Na24 O57 2.775604 1_555
Na24 O61 2.974228 1_555
Na25 O75 2.429456 1_545
Na25 O76 2.500431 1_655
Na25 O115 2.509395 1_555
Na25 O47 2.672565 1_555
Na25 O119 2.676047 1_555
Na25 O5 2.708978 1_555
Na25 O56 2.777192 1_655
Na25 O60 2.971552 1_655
Na26 O76 2.429474 1_555
Na26 O0 2.520721 1_555
Na26 O116 2.522960 1_555
Na26 O62 2.530685 1_545
Na26 O114 2.578220 1_555
Na26 O72 2.606404 1_545
Na26 O42 2.942075 1_555
Na26 O58 3.000066 1_545
Na27 O77 2.414646 1_555
Na27 O1 2.487460 1_555
Na27 O115 2.516910 1_555
Na27 O117 2.533674 1_555
Na27 O73 2.557570 1_545
Na27 O63 2.745435 1_545
Na27 O43 2.883564 1_555
Na27 O59 2.989778 1_545
Na28 O74 2.476487 1_555
Na28 O116 2.520613 1_555
Na28 O73 2.566726 1_555
Na28 O2 2.578482 1_555
Na28 O118 2.586891 1_555
Na28 O64 2.752993 1_555
Na28 O44 2.887401 1_555
Na28 O54 2.952127 1_555
Na29 O75 2.466927 1_555
Na29 O117 2.477488 1_555
Na29 O3 2.534174 1_555
Na29 O72 2.540460 1_655
Na29 O119 2.570002 1_555
Na29 O65 2.793867 1_555
Na29 O45 2.809743 1_555
Na29 O55 2.905006 1_555
Na30 O85 2.417311 1_555
Na30 O76 2.428780 1_655
Na30 O75 2.475050 1_545
Na30 O72 2.625951 1_645
Na30 O89 2.650446 1_545
Na30 O86 2.749948 1_655
Na31 O74 2.419643 1_545
Na31 O77 2.478180 1_555
Na31 O84 2.497208 1_555
Na31 O73 2.642017 1_545
Na31 O87 2.680629 1_555
Na31 O88 2.703094 1_545
Na32 O93 2.403920 1_565
Na32 O91 2.433062 1_555
Na32 O83 2.503243 1_554
Na32 O94 2.672137 1_665
Na32 O80 2.678055 1_654
Na32 O78 2.734191 1_664
Na33 O90 2.378906 1_556
Na33 O81 2.444326 1_555
Na33 O82 2.546625 1_555
Na33 O79 2.648658 1_565
Na33 O92 2.654868 1_566
Na33 O95 2.689395 1_566
Na34 O112 2.451993 1_555
Na34 O108 2.475804 1_555
Na34 O98 2.523103 1_555
Na34 O96 2.524868 1_555
Na34 O110 2.674273 1_555
Na34 O100 2.683476 1_555
Na35 O113 2.447906 1_555
Na35 O99 2.451082 1_555
Na35 O109 2.491063 1_555
Na35 O97 2.526443 1_555
Na35 O111 2.662344 1_555
Na35 O101 2.684032 1_555
Na36 O106 2.382484 1_555
Na36 O102 2.424403 1_555
Na36 O114 2.550470 1_555
Na36 O104 2.590942 1_555
Na36 O116 2.600410 1_555
Na36 O118 2.770803 1_555
Na37 O107 2.362807 1_555
Na37 O103 2.417766 1_555
Na37 O117 2.564761 1_555
Na37 O115 2.568436 1_555
Na37 O105 2.582592 1_555
Na37 O119 2.776353 1_555
Na38 O132 2.434796 1_555
Na38 O134 2.440559 1_555
Na38 O122 2.462154 1_555
Na38 O124 2.653873 1_555
Na38 O136 2.666863 1_555
Na38 O120 2.814854 1_555
Na39 O125 2.417043 1_555
Na39 O123 2.470030 1_555
Na39 O133 2.598633 1_555
Na39 O135 2.635673 1_555
Na39 O121 2.678789 1_555
Na39 O137 2.723971 1_555
Na40 O130 2.479982 1_555
Na40 O138 2.485851 1_555
Na40 O140 2.546853 1_555
Na40 O142 2.572556 1_555
Na40 O128 2.694366 1_555
Na40 O126 2.727020 1_555
Na41 O139 2.394821 1_555
Na41 O143 2.394982 1_555
Na41 O131 2.554713 1_555
Na41 O141 2.639861 1_555
Na41 O129 2.656949 1_555
Na41 O127 2.821192 1_555
In0 O13 2.007401 1_545
In0 O14 2.054893 1_655
In0 O85 2.183830 1_555
In0 O16 2.230971 1_645
In0 O86 2.309676 1_655
In0 O89 2.371692 1_545
In1 O15 2.026422 1_555
In1 O12 2.042615 1_545
In1 O84 2.153897 1_555
In1 O17 2.215460 1_545
In1 O88 2.313906 1_545
In1 O87 2.351350 1_555
In2 O19 2.047015 1_555
In2 O22 2.066029 1_655
In2 O93 2.100132 1_565
In2 O91 2.149789 1_555
In2 O20 2.268062 1_665
In2 O94 2.350181 1_665
In3 O18 2.013322 1_555
In3 O23 2.051655 1_555
In3 O90 2.166373 1_555
In3 O95 2.251497 1_565
In3 O21 2.258001 1_565
In3 O92 2.370190 1_565
In4 O25 2.050949 1_555
In4 O99 2.092011 1_555
In4 O97 2.116666 1_555
In4 O29 2.182955 1_555
In4 O101 2.227446 1_555
In4 O27 2.240370 1_555
In5 O30 2.034626 1_555
In5 O106 2.095309 1_555
In5 O102 2.142120 1_555
In5 O32 2.184056 1_555
In5 O34 2.213187 1_555
In5 O104 2.234239 1_555
In6 O52 2.052604 1_554
In6 O48 2.104781 1_554
In6 O122 2.109002 1_555
In6 O50 2.153366 1_554
In6 O120 2.273253 1_555
In6 O124 2.306067 1_555
In7 O53 2.069692 1_554
In7 O49 2.086802 1_554
In7 O123 2.106751 1_555
In7 O125 2.139463 1_555
In7 O51 2.300866 1_554
In7 O121 2.358919 1_555
In8 O56 2.057231 1_555
In8 O54 2.078668 1_555
In8 O130 2.096257 1_555
In8 O58 2.168938 1_555
In8 O128 2.353659 1_555
In8 O126 2.376716 1_555
In9 O57 2.054608 1_555
In9 O55 2.098906 1_555
In9 O131 2.138802 1_555
In9 O59 2.148445 1_555
In9 O127 2.296210 1_555
In9 O129 2.297974 1_555
In10 O62 2.023278 1_555
In10 O134 2.061116 1_555
In10 O132 2.110499 1_555
In10 O64 2.145340 1_555
In10 O60 2.355253 1_555
In10 O136 2.361659 1_555
In11 O71 2.021560 1_555
In11 O143 2.077334 1_555
In11 O69 2.109236 1_555
In11 O139 2.117025 1_555
In11 O67 2.347253 1_555
In11 O141 2.472011 1_555
Ga0 O0 1.891982 1_565
Ga0 O3 1.944324 1_455
Ga0 O75 2.038543 1_455
Ga0 O76 2.050146 1_565
Ga0 O5 2.059235 1_465
Ga0 O72 2.224497 1_555
Ga1 O2 1.901955 1_545
Ga1 O1 1.926053 1_555
Ga1 O4 2.014311 1_555
Ga1 O77 2.025311 1_555
Ga1 O74 2.064622 1_545
Ga1 O73 2.233118 1_545
Ga2 O11 1.903803 1_465
Ga2 O80 1.989914 1_555
Ga2 O6 1.998872 1_565
Ga2 O83 2.015237 1_455
Ga2 O9 2.046481 1_455
Ga2 O78 2.179311 1_565
Ga3 O7 1.896917 1_555
Ga3 O10 1.951202 1_555
Ga3 O81 1.957627 1_545
Ga3 O82 2.015929 1_545
Ga3 O8 2.148760 1_545
Ga3 O79 2.186060 1_555
Ga4 O24 1.866558 1_555
Ga4 O96 1.938282 1_555
Ga4 O98 1.970946 1_555
Ga4 O26 2.098038 1_555
Ga4 O100 2.161898 1_555
Ga4 O28 2.180953 1_555
Ga5 O33 1.874632 1_555
Ga5 O31 1.893471 1_555
Ga5 O103 2.073211 1_555
Ga5 O107 2.094865 1_555
Ga5 O35 2.103801 1_555
Ga5 O105 2.244251 1_555
Ga6 O38 1.865275 1_556
Ga6 O108 1.924302 1_555
Ga6 O112 2.007283 1_555
Ga6 O36 2.038790 1_556
Ga6 O110 2.164909 1_555
Ga6 O40 2.212561 1_556
Ga7 O41 1.874111 1_556
Ga7 O39 1.894218 1_556
Ga7 O109 1.964870 1_555
Ga7 O113 2.068808 1_555
Ga7 O37 2.114348 1_556
Ga7 O111 2.295696 1_555
Ga8 O46 1.857592 1_555
Ga8 O114 1.887213 1_555
Ga8 O116 1.937795 1_555
Ga8 O42 2.083305 1_555
Ga8 O118 2.188920 1_555
Ga8 O44 2.205437 1_555
Ga9 O47 1.879431 1_555
Ga9 O115 1.910563 1_555
Ga9 O117 1.985598 1_555
Ga9 O43 2.075747 1_555
Ga9 O119 2.148447 1_555
Ga9 O45 2.236384 1_555
Ga10 O63 1.856089 1_555
Ga10 O135 1.873643 1_555
Ga10 O65 1.955877 1_555
Ga10 O133 1.979834 1_555
Ga10 O61 2.343846 1_555
Ga10 O137 2.377099 1_555
Ga11 O70 1.853630 1_555
Ga11 O142 1.907399 1_555
Ga11 O68 1.945662 1_555
Ga11 O138 2.043137 1_555
Ga11 O66 2.210342 1_555
Ga11 O140 2.374357 1_555
O0 Si0 1.654811 1_545
O1 Si1 1.647471 1_545
O2 Si2 1.652679 1_555
O3 Si3 1.652638 1_555
O4 S1 1.491887 1_555
O5 S0 1.502975 1_555
O6 Si4 1.638748 1_555
O7 Si5 1.641157 1_555
O8 S3 1.484716 1_555
O9 S2 1.486859 1_655
O10 Si6 1.634950 1_545
O11 Si7 1.646805 1_545
O12 Si6 1.643359 1_555
O13 Si7 1.640086 1_555
O14 Si4 1.641121 1_555
O15 Si5 1.653491 1_555
O16 S2 1.496661 1_555
O17 S3 1.490699 1_555
O18 Si2 1.630996 1_555
O19 Si3 1.622586 1_555
O20 S0 1.469025 1_455
O21 S1 1.494095 1_555
O22 Si0 1.635151 1_555
O23 Si1 1.638655 1_555
O24 Si8 1.645399 1_555
O25 Si9 1.625558 1_555
O26 S4 1.490622 1_555
O27 S5 1.489308 1_555
O28 S6 1.483430 1_555
O29 S7 1.485318 1_555
O30 Si10 1.630279 1_555
O31 Si11 1.644074 1_555
O32 S8 1.487815 1_555
O33 Si12 1.653413 1_555
O34 S9 1.492037 1_555
O35 S10 1.498144 1_555
O36 S9 1.501733 1_555
O37 S10 1.489328 1_555
O38 Si10 1.659890 1_555
O39 Si11 1.635049 1_555
O40 S8 1.481344 1_555
O41 Si12 1.640491 1_555
O42 S4 1.500334 1_555
O43 S5 1.499980 1_555
O44 S6 1.488761 1_555
O45 S7 1.480454 1_555
O46 Si8 1.645326 1_555
O47 Si9 1.658664 1_555
O48 Si13 1.639420 1_555
O49 Si14 1.642862 1_555
O50 S11 1.493758 1_555
O51 S12 1.480041 1_555
O52 Si15 1.629877 1_555
O53 Si16 1.635070 1_555
O54 Si17 1.657367 1_555
O55 Si18 1.644304 1_555
O56 Si19 1.638337 1_555
O57 Si20 1.639624 1_555
O58 S13 1.491448 1_555
O59 S14 1.494980 1_555
O60 S13 1.488931 1_555
O61 S14 1.475716 1_555
O62 Si17 1.617023 1_555
O63 Si18 1.631799 1_555
O64 Si19 1.633253 1_555
O65 Si20 1.645442 1_555
O66 S11 1.491375 1_555
O67 S12 1.496531 1_555
O68 Si15 1.654773 1_555
O69 Si16 1.642063 1_555
O70 Si13 1.640648 1_555
O71 Si14 1.629450 1_555
O72 S13 1.477274 1_555
O73 S14 1.490368 1_555
O74 Si17 1.649467 1_555
O75 Si18 1.650391 1_555
O76 Si19 1.652479 1_555
O77 Si20 1.653235 1_555
O78 S11 1.495372 1_555
O79 S12 1.485206 1_555
O80 Si15 1.649414 1_555
O81 Si16 1.664068 1_555
O82 Si13 1.646226 1_555
O83 Si14 1.661845 1_555
O84 Si8 1.688524 1_555
O85 Si9 1.685784 1_555
O86 S4 1.490230 1_555
O87 S5 1.486103 1_555
O88 S6 1.494504 1_555
O89 S7 1.487792 1_555
O90 Si10 1.685810 1_555
O91 Si11 1.669929 1_555
O92 S8 1.486194 1_555
O93 Si12 1.642168 1_555
O94 S9 1.470188 1_555
O95 S10 1.498612 1_555
O96 Si6 1.663767 1_545
O97 Si7 1.659123 1_545
O98 Si4 1.683904 1_555
O99 Si5 1.641914 1_555
O100 S3 1.498415 1_555
O101 S2 1.474802 1_655
O102 Si2 1.658433 1_555
O103 Si3 1.661131 1_555
O104 S1 1.476651 1_555
O105 S0 1.491204 1_555
O106 Si0 1.649368 1_545
O107 Si1 1.656280 1_545
O108 Si13 1.660995 1_555
O109 Si14 1.652679 1_555
O110 S12 1.498748 1_555
O111 S11 1.473520 1_655
O112 Si15 1.680285 1_545
O113 Si16 1.649912 1_545
O114 Si17 1.654013 1_545
O115 Si18 1.662519 1_545
O116 Si19 1.676564 1_555
O117 Si20 1.679769 1_555
O118 S14 1.494139 1_555
O119 S13 1.491048 1_655
O120 S9 1.479513 1_555
O121 S10 1.472846 1_555
O122 Si11 1.666922 1_455
O123 Si10 1.629816 1_555
O124 S8 1.509241 1_565
O125 Si12 1.669623 1_565
O126 S4 1.479392 1_565
O127 S5 1.480576 1_565
O128 S6 1.510894 1_555
O129 S7 1.512869 1_555
O130 Si9 1.656251 1_455
O131 Si8 1.650517 1_555
O132 Si0 1.643337 1_555
O133 Si1 1.668678 1_555
O134 Si2 1.641538 1_555
O135 Si3 1.657589 1_555
O136 S0 1.486888 1_455
O137 S1 1.486857 1_555
O138 Si4 1.661003 1_555
O139 Si5 1.639210 1_555
O140 S2 1.490706 1_555
O141 S3 1.482975 1_555
O142 Si6 1.648974 1_555
O143 Si7 1.638726 1_555
