# generated using pymatgen
data_Na8CaTi3Si5SO24
_symmetry_space_group_name_H-M   'P 1'
_cell_length_a   9.14963533
_cell_length_b   9.14990342
_cell_length_c   22.34100092
_cell_angle_alpha   90.88818121
_cell_angle_beta   89.60564631
_cell_angle_gamma   120.05798723
_symmetry_Int_Tables_number   1
_chemical_formula_structural   Na8CaTi3Si5SO24
_chemical_formula_sum   'Na24 Ca3 Ti9 Si15 S3 O72'
_cell_volume   1618.62812440
_cell_formula_units_Z   3
loop_
 _symmetry_equiv_pos_site_id
 _symmetry_equiv_pos_as_xyz
  1  'x, y, z'
loop_
 _atom_site_type_symbol
 _atom_site_label
 _atom_site_symmetry_multiplicity
 _atom_site_fract_x
 _atom_site_fract_y
 _atom_site_fract_z
 _atom_site_occupancy
  Na  Na0  1  0.64735080  0.01601686  0.24682089  1
  Na  Na1  1  0.36170073  0.36388499  0.24216797  1
  Na  Na2  1  0.99613265  0.62248534  0.24305442  1
  Na  Na3  1  0.62673447  0.61745375  0.74859843  1
  Na  Na4  1  0.99236557  0.37170618  0.75384048  1
  Na  Na5  1  0.38435237  0.00813364  0.74888549  1
  Na  Na6  1  0.31171707  0.33604730  0.58741457  1
  Na  Na7  1  0.03236970  0.70523672  0.58153646  1
  Na  Na8  1  0.66148789  0.96776826  0.58960311  1
  Na  Na9  1  0.30959619  0.96686622  0.08005060  1
  Na  Na10  1  0.65950703  0.69065761  0.07935642  1
  Na  Na11  1  0.03153790  0.35176823  0.07996981  1
  Na  Na12  1  0.96314106  0.66809018  0.91493885  1
  Na  Na13  1  0.70365805  0.03647324  0.91508940  1
  Na  Na14  1  0.33309037  0.29565984  0.91538507  1
  Na  Na15  1  0.95938564  0.28427636  0.41411243  1
  Na  Na16  1  0.32220022  0.03047935  0.41933494  1
  Na  Na17  1  0.71421378  0.67852792  0.41989311  1
  Na  Na18  1  0.00047521  0.99658042  0.49905176  1
  Na  Na19  1  0.99993231  0.99772652  0.99336410  1
  Na  Na20  1  0.66604185  0.33290875  0.83017053  1
  Na  Na21  1  0.68225942  0.33066926  0.33494106  1
  Na  Na22  1  0.32991569  0.66317215  0.15927806  1
  Na  Na23  1  0.34271920  0.67348506  0.67164883  1
  Ca  Ca0  1  0.99928889  0.00156854  0.35491742  1
  Ca  Ca1  1  0.65890421  0.33094482  0.68582374  1
  Ca  Ca2  1  0.67105064  0.33425749  0.17502658  1
  Ti  Ti0  1  0.99951042  0.00138183  0.85285001  1
  Ti  Ti1  1  0.00186346  0.98718453  0.65336562  1
  Ti  Ti2  1  0.00545289  0.02463884  0.13657097  1
  Ti  Ti3  1  0.66852729  0.33565138  0.98102730  1
  Ti  Ti4  1  0.65002396  0.33770261  0.47888686  1
  Ti  Ti5  1  0.33290474  0.66810772  0.01377130  1
  Ti  Ti6  1  0.34455191  0.67995893  0.51653479  1
  Ti  Ti7  1  0.32118052  0.65017607  0.32173114  1
  Ti  Ti8  1  0.33574232  0.66639603  0.81504061  1
  Si  Si0  1  0.00503234  0.30364796  0.25206798  1
  Si  Si1  1  0.27977960  0.28869871  0.75278269  1
  Si  Si2  1  0.01068006  0.71483110  0.75428435  1
  Si  Si3  1  0.71130270  0.99121516  0.75267154  1
  Si  Si4  1  0.36652363  0.03327730  0.58239863  1
  Si  Si5  1  0.66464228  0.63573446  0.58317446  1
  Si  Si6  1  0.97022851  0.63725406  0.08299191  1
  Si  Si7  1  0.65954802  0.03215824  0.08174179  1
  Si  Si8  1  0.37277263  0.34245954  0.08209485  1
  Si  Si9  1  0.62287922  0.66411456  0.91600496  1
  Si  Si10  1  0.04225369  0.37797082  0.91574191  1
  Si  Si11  1  0.33569735  0.95837939  0.91663430  1
  Si  Si12  1  0.61574435  0.95950596  0.41602428  1
  Si  Si13  1  0.33850568  0.38187780  0.42049258  1
  Si  Si14  1  0.03708213  0.65266863  0.42097708  1
  S  S0  1  0.29465682  0.99350361  0.24927113  1
  S  S1  1  0.69827545  0.70561011  0.24950178  1
  S  S2  1  0.96536710  0.33499234  0.58057646  1
  O  O0  1  0.21730000  0.01056733  0.30483837  1
  O  O1  1  0.79664019  0.77853944  0.30459695  1
  O  O2  1  0.97829669  0.19582932  0.31070276  1
  O  O3  1  0.17947127  0.16969651  0.81065734  1
  O  O4  1  0.98774667  0.81617182  0.81130518  1
  O  O5  1  0.82911463  0.01031293  0.81118074  1
  O  O6  1  0.80775840  0.96787845  0.69169060  1
  O  O7  1  0.16254751  0.19114947  0.69161578  1
  O  O8  1  0.03215367  0.83131435  0.69279601  1
  O  O9  1  0.78838686  0.80971420  0.19611312  1
  O  O10  1  0.02676202  0.19541281  0.19168554  1
  O  O11  1  0.18896790  0.97576797  0.19570283  1
  O  O12  1  0.89625054  0.36504813  0.63600812  1
  O  O13  1  0.48248811  0.09050850  0.64101515  1
  O  O14  1  0.61746395  0.52323130  0.64189431  1
  O  O15  1  0.91509750  0.53242352  0.14392903  1
  O  O16  1  0.61420218  0.08461632  0.14488521  1
  O  O17  1  0.46770432  0.38069326  0.14521406  1
  O  O18  1  0.47151793  0.30330602  0.02722659  1
  O  O19  1  0.83243377  0.53471154  0.02766456  1
  O  O20  1  0.70094059  0.16852527  0.02732845  1
  O  O21  1  0.47242828  0.16814795  0.52541783  1
  O  O22  1  0.69338611  0.52991493  0.52506082  1
  O  O23  1  0.85506928  0.31176984  0.52795737  1
  O  O24  1  0.52833210  0.69207308  0.97385819  1
  O  O25  1  0.16433081  0.47070446  0.97377543  1
  O  O26  1  0.30687893  0.83667876  0.97398482  1
  O  O27  1  0.51631235  0.84087738  0.47374366  1
  O  O28  1  0.31737588  0.48167181  0.47691330  1
  O  O29  1  0.15856486  0.67443406  0.47671336  1
  O  O30  1  0.13350130  0.62787389  0.35952783  1
  O  O31  1  0.49344546  0.86045139  0.35647123  1
  O  O32  1  0.36597695  0.49968550  0.35963049  1
  O  O33  1  0.13439803  0.50179030  0.85782335  1
  O  O34  1  0.36747303  0.86378990  0.85830840  1
  O  O35  1  0.49843635  0.63249464  0.85771309  1
  O  O36  1  0.01992288  0.81846341  0.41815183  1
  O  O37  1  0.79715221  0.97238335  0.41886729  1
  O  O38  1  0.18093971  0.19396536  0.41994912  1
  O  O39  1  0.02172870  0.18874473  0.91243911  1
  O  O40  1  0.16782512  0.97934752  0.91312785  1
  O  O41  1  0.81101630  0.83363394  0.91290819  1
  O  O42  1  0.97821394  0.17879821  0.58330398  1
  O  O43  1  0.18203910  0.02547643  0.58601128  1
  O  O44  1  0.84002626  0.82226160  0.58574519  1
  O  O45  1  0.98208058  0.82520426  0.09154864  1
  O  O46  1  0.83847934  0.02051619  0.08819974  1
  O  O47  1  0.18264969  0.16189443  0.08624540  1
  O  O48  1  0.69796885  0.15983539  0.75287242  1
  O  O49  1  0.46316809  0.30533741  0.75424739  1
  O  O50  1  0.84487103  0.53140002  0.75210999  1
  O  O51  1  0.67046232  0.53188592  0.24541061  1
  O  O52  1  0.84344191  0.33101245  0.24870142  1
  O  O53  1  0.46474766  0.14716539  0.24668207  1
  O  O54  1  0.63919726  0.49289102  0.92335608  1
  O  O55  1  0.85418610  0.36079501  0.92375659  1
  O  O56  1  0.50796214  0.14576888  0.92436683  1
  O  O57  1  0.62923999  0.14525439  0.42220732  1
  O  O58  1  0.51651140  0.37413546  0.42188248  1
  O  O59  1  0.85246527  0.47814739  0.42401198  1
  O  O60  1  0.33865695  0.49841708  0.07140722  1
  O  O61  1  0.15941275  0.66496239  0.07073357  1
  O  O62  1  0.50339689  0.84087906  0.07048436  1
  O  O63  1  0.33172177  0.83891348  0.57136066  1
  O  O64  1  0.49997752  0.66164794  0.57264247  1
  O  O65  1  0.13841632  0.48470110  0.57509159  1
  O  O66  1  0.30877613  0.83723370  0.25052299  1
  O  O67  1  0.53141649  0.69979664  0.25242067  1
  O  O68  1  0.18804852  0.49141779  0.25399595  1
  O  O69  1  0.29076092  0.47416473  0.75553558  1
  O  O70  1  0.18605455  0.70748402  0.75556297  1
  O  O71  1  0.52605288  0.81634495  0.75570345  1
loop_
_geom_bond_atom_site_label_1
_geom_bond_atom_site_label_2
_geom_bond_distance
_geom_bond_site_symmetry_2
Na0 O16 2.432448 1_555
Na0 O53 2.498001 1_555
Na0 O52 2.518901 1_555
Na0 O67 2.539167 1_545
Na0 O66 2.683956 1_545
Na0 O31 2.839502 1_545
Na0 O9 2.977504 1_545
Na0 O2 2.984759 1_555
Na1 O17 2.342668 1_555
Na1 O68 2.407890 1_555
Na1 O51 2.449132 1_555
Na1 O53 2.590689 1_555
Na1 O67 2.666928 1_555
Na1 O32 2.878141 1_555
Na1 O10 2.881173 1_555
Na2 O52 2.314281 1_555
Na2 O15 2.342445 1_555
Na2 O66 2.537203 1_655
Na2 O68 2.589574 1_655
Na2 O51 2.663397 1_555
Na2 O30 2.886558 1_655
Na3 O71 2.419506 1_555
Na3 O49 2.477613 1_555
Na3 O50 2.487562 1_555
Na3 O14 2.509808 1_555
Na3 O69 2.674886 1_555
Na3 O35 2.729746 1_555
Na4 O69 2.402219 1_655
Na4 O48 2.404731 1_555
Na4 O50 2.436305 1_555
Na4 O33 2.628415 1_655
Na4 O70 2.669147 1_655
Na4 O12 2.771341 1_555
Na5 O70 2.427094 1_545
Na5 O49 2.440503 1_555
Na5 O48 2.485606 1_555
Na5 O13 2.555518 1_555
Na5 O71 2.659660 1_545
Na5 O34 2.763133 1_545
Na6 O43 2.470659 1_555
Na6 O65 2.572593 1_555
Na6 O64 2.614118 1_555
Na6 O42 2.644141 1_455
Na6 O7 2.698002 1_555
Na6 O14 2.724560 1_555
Na6 O28 2.811359 1_555
Na6 O21 2.934228 1_555
Na7 O63 2.386151 1_555
Na7 O44 2.476862 1_455
Na7 O43 2.538564 1_565
Na7 O65 2.642812 1_555
Na7 O29 2.676792 1_555
Na7 O8 2.724439 1_555
Na7 O22 2.965135 1_455
Na7 O12 2.988989 1_455
Na8 O64 2.449731 1_555
Na8 O42 2.558039 1_565
Na8 O44 2.573265 1_555
Na8 O6 2.652067 1_555
Na8 O13 2.653213 1_565
Na8 O63 2.664271 1_555
Na8 O27 2.867323 1_555
Na9 O61 2.397069 1_555
Na9 O62 2.560008 1_555
Na9 O47 2.572770 1_565
Na9 O45 2.614324 1_455
Na9 O26 2.630265 1_554
Na9 O11 2.818692 1_555
Na9 O16 2.832947 1_565
Na9 O18 2.929846 1_565
Na10 O62 2.438816 1_555
Na10 O60 2.562876 1_555
Na10 O45 2.580997 1_555
Na10 O46 2.620089 1_565
Na10 O24 2.655421 1_554
Na10 O9 2.837025 1_555
Na10 O19 2.838745 1_555
Na10 O17 2.897612 1_555
Na11 O60 2.440641 1_555
Na11 O61 2.505985 1_555
Na11 O46 2.643877 1_455
Na11 O25 2.646706 1_554
Na11 O47 2.714053 1_555
Na11 O15 2.753025 1_455
Na11 O20 2.872509 1_455
Na11 O10 2.885208 1_555
Na12 O55 2.478900 1_555
Na12 O40 2.505885 1_655
Na12 O41 2.519672 1_555
Na12 O54 2.575305 1_555
Na12 O4 2.651708 1_555
Na12 O19 2.802452 1_556
Na12 O33 2.949513 1_655
Na12 O26 3.024102 1_655
Na13 O56 2.455877 1_555
Na13 O41 2.496933 1_545
Na13 O39 2.520415 1_655
Na13 O55 2.575291 1_555
Na13 O5 2.642966 1_555
Na13 O20 2.771921 1_556
Na14 O54 2.463007 1_555
Na14 O40 2.505601 1_545
Na14 O39 2.507196 1_555
Na14 O56 2.586983 1_555
Na14 O3 2.667793 1_555
Na14 O18 2.793154 1_556
Na14 O35 2.978770 1_555
Na14 O25 3.006009 1_555
Na15 O59 2.424036 1_555
Na15 O2 2.469627 1_555
Na15 O37 2.474366 1_545
Na15 O38 2.548361 1_655
Na15 O57 2.631712 1_555
Na15 O23 2.762332 1_555
Na16 O38 2.417492 1_555
Na16 O36 2.457227 1_545
Na16 O57 2.458480 1_555
Na16 O21 2.703845 1_555
Na16 O0 2.709572 1_555
Na16 O58 2.728941 1_555
Na17 O37 2.400725 1_555
Na17 O36 2.424291 1_655
Na17 O58 2.446844 1_555
Na17 O22 2.690549 1_555
Na17 O59 2.701905 1_555
Na17 O1 2.719572 1_555
Na18 O36 2.479750 1_555
Na18 O44 2.482227 1_455
Na18 O38 2.486519 1_565
Na18 O43 2.488467 1_565
Na18 O37 2.517925 1_455
Na18 O42 2.569414 1_465
Na19 O40 2.410987 1_655
Na19 O41 2.415004 1_555
Na19 O39 2.471248 1_665
Na19 O47 2.606267 1_666
Na19 O46 2.639411 1_566
Na19 O45 2.678486 1_556
Na20 O48 2.438661 1_555
Na20 O49 2.438702 1_555
Na20 O50 2.469640 1_555
Na20 O54 2.606893 1_555
Na20 O55 2.644422 1_555
Na20 O56 2.653583 1_555
Na21 O52 2.417325 1_555
Na21 O59 2.461759 1_555
Na21 O57 2.485884 1_555
Na21 O58 2.602020 1_555
Na21 O53 2.696634 1_555
Na21 O51 2.778194 1_555
Na22 O60 2.481865 1_555
Na22 O61 2.533030 1_555
Na22 O62 2.563160 1_555
Na22 O68 2.579587 1_555
Na22 O66 2.632857 1_555
Na22 O67 2.693288 1_555
Na23 O71 2.412379 1_555
Na23 O70 2.461241 1_555
Na23 O69 2.507903 1_555
Na23 O64 2.660718 1_555
Na23 O63 2.753562 1_555
Na23 O65 2.799440 1_555
Ca0 O2 2.138007 1_555
Ca0 O38 2.234997 1_655
Ca0 O37 2.239146 1_545
Ca0 O1 2.243515 1_545
Ca0 O0 2.246119 1_655
Ca0 O36 2.287416 1_645
Ca1 O13 2.200940 1_555
Ca1 O14 2.220222 1_555
Ca1 O49 2.269827 1_555
Ca1 O50 2.297067 1_555
Ca1 O12 2.313145 1_555
Ca1 O48 2.337399 1_555
Ca2 O16 2.169904 1_555
Ca2 O15 2.172149 1_555
Ca2 O17 2.214383 1_555
Ca2 O52 2.298303 1_555
Ca2 O51 2.379914 1_555
Ca2 O53 2.421290 1_555
O0 S0 1.469380 1_545
O1 S1 1.469191 1_555
O2 Si0 1.594672 1_655
O3 Si1 1.651047 1_555
O3 Ti0 1.858741 1_455
O4 Si2 1.637459 1_655
O4 Ti0 1.874778 1_565
O5 Si3 1.650684 1_545
O5 Ti0 1.858479 1_555
O6 Si3 1.686338 1_555
O6 Ti1 1.894185 1_655
O7 Si1 1.684609 1_555
O7 Ti1 1.895767 1_545
O8 Si2 1.701041 1_555
O8 Ti1 1.823492 1_555
O9 S1 1.498243 1_555
O9 Ti2 2.390289 1_665
O10 Si0 1.729812 1_555
O10 Ti2 1.906365 1_555
O11 S0 1.498805 1_555
O11 Ti2 2.359136 1_565
O12 S2 1.470394 1_555
O13 Si4 1.598815 1_555
O14 Si5 1.598719 1_555
O15 Si6 1.604441 1_555
O16 Si7 1.600941 1_555
O17 Si8 1.600786 1_555
O18 Si8 1.656086 1_555
O18 Ti3 1.962544 1_554
O19 Si6 1.672791 1_555
O19 Ti3 1.969385 1_554
O20 Si7 1.656927 1_555
O20 Ti3 2.000987 1_554
O21 Si4 1.707694 1_555
O21 Ti4 1.905081 1_555
O22 Si5 1.704023 1_555
O22 Ti4 1.888136 1_555
O23 S2 1.496438 1_555
O23 Ti4 2.293507 1_555
O24 Si9 1.637190 1_555
O24 Ti5 1.905730 1_556
O25 Si10 1.638586 1_555
O25 Ti5 1.902100 1_556
O26 Si11 1.642137 1_555
O26 Ti5 1.907660 1_556
O27 Si12 1.645207 1_555
O27 Ti6 1.804602 1_555
O28 Si13 1.611766 1_555
O28 Ti6 1.907462 1_555
O29 Si14 1.617187 1_555
O29 Ti6 1.903453 1_555
O30 Si14 1.699588 1_555
O30 Ti7 1.826963 1_555
O31 Si12 1.676574 1_555
O31 Ti7 1.929023 1_555
O32 Si13 1.686199 1_555
O32 Ti7 1.840452 1_555
O33 Si10 1.655978 1_555
O33 Ti8 1.953635 1_555
O34 Si11 1.656334 1_555
O34 Ti8 1.924907 1_555
O35 Si9 1.659773 1_555
O35 Ti8 1.926722 1_555
O36 Si14 1.603632 1_555
O37 Si12 1.605681 1_555
O38 Si13 1.597279 1_555
O39 Si10 1.645895 1_555
O39 Ti0 2.082423 1_455
O40 Si11 1.643007 1_555
O40 Ti0 2.138647 1_465
O41 Si9 1.643415 1_555
O41 Ti0 2.123869 1_565
O42 S2 1.493691 1_555
O42 Ti1 2.457738 1_645
O43 Si4 1.654826 1_555
O43 Ti1 2.123287 1_545
O44 Si5 1.657071 1_555
O44 Ti1 2.115121 1_655
O45 Si6 1.676018 1_555
O45 Ti2 1.985577 1_665
O46 Si7 1.700257 1_555
O46 Ti2 1.861987 1_655
O47 Si8 1.699336 1_555
O47 Ti2 1.857115 1_555
O48 Si3 1.607375 1_545
O49 Si1 1.607614 1_555
O50 Si2 1.602701 1_655
O51 S1 1.480003 1_555
O52 Si0 1.620877 1_655
O53 S0 1.487103 1_545
O54 Si9 1.657221 1_555
O54 Ti3 2.061798 1_555
O55 Si10 1.656342 1_655
O55 Ti3 2.040427 1_555
O56 Si11 1.655692 1_545
O56 Ti3 2.044444 1_555
O57 Si12 1.644879 1_545
O57 Ti4 2.083044 1_555
O58 Si13 1.665818 1_555
O58 Ti4 1.915155 1_555
O59 Si14 1.645461 1_655
O59 Ti4 2.053869 1_555
O60 Si8 1.627442 1_555
O60 Ti5 2.053364 1_555
O61 Si6 1.640589 1_455
O61 Ti5 2.016851 1_555
O62 Si7 1.629124 1_565
O62 Ti5 2.008134 1_555
O63 Si4 1.656850 1_565
O63 Ti6 1.934744 1_555
O64 Si5 1.657093 1_555
O64 Ti6 1.972663 1_555
O65 S2 1.492724 1_455
O65 Ti6 2.263525 1_555
O66 S0 1.499429 1_555
O66 Ti7 2.398885 1_555
O67 S1 1.501758 1_555
O67 Ti7 2.325933 1_555
O68 Si0 1.695400 1_555
O68 Ti7 2.017069 1_555
O69 Si1 1.649157 1_555
O69 Ti8 2.059196 1_555
O70 Si2 1.639776 1_555
O70 Ti8 2.083059 1_555
O71 Si3 1.650046 1_555
O71 Ti8 2.074412 1_555
