# generated using pymatgen
data_MgCo6(O3F)3
_symmetry_space_group_name_H-M   'P 1'
_cell_length_a   6.73040704
_cell_length_b   5.80037200
_cell_length_c   5.76108432
_cell_angle_alpha   84.36123453
_cell_angle_beta   76.08307363
_cell_angle_gamma   72.24786788
_symmetry_Int_Tables_number   1
_chemical_formula_structural   MgCo6(O3F)3
_chemical_formula_sum   'Mg1 Co6 O9 F3'
_cell_volume   207.83392557
_cell_formula_units_Z   1
loop_
 _symmetry_equiv_pos_site_id
 _symmetry_equiv_pos_as_xyz
  1  'x, y, z'
loop_
 _atom_site_type_symbol
 _atom_site_label
 _atom_site_symmetry_multiplicity
 _atom_site_fract_x
 _atom_site_fract_y
 _atom_site_fract_z
 _atom_site_occupancy
  Mg  Mg0  1  0.49090895  0.50908900  0.99455183  1
  Co  Co0  1  0.83959455  0.66667993  0.67444912  1
  Co  Co1  1  0.32963035  0.76096226  0.57514488  1
  Co  Co2  1  0.66718682  0.28793572  0.40403491  1
  Co  Co3  1  0.15756126  0.32020799  0.36136030  1
  Co  Co4  1  0.49778134  0.99640119  0.01361647  1
  Co  Co5  1  0.99627609  0.01791750  -0.01213374  1
  O  O0  1  0.60859528  0.53888046  0.62919662  1
  O  O1  1  0.30087982  0.86345609  0.92251097  1
  O  O2  1  0.95684683  0.19431253  0.26851964  1
  O  O3  1  0.37836152  0.47717158  0.36984942  1
  O  O4  1  0.03796764  0.80893449  0.73513259  1
  O  O5  1  0.68947281  0.15043752  0.07320572  1
  O  O6  1  0.34633325  0.00885944  0.36143772  1
  O  O7  1  0.69867319  0.69519077  -0.00977832  1
  O  O8  1  0.96787841  0.62592967  0.36933690  1
  F  F0  1  0.29931153  0.32312838  0.98209500  1
  F  F1  1  0.63987766  0.02356986  0.62751970  1
  F  F2  1  0.01686270  0.30593561  0.72244725  1
loop_
_geom_bond_atom_site_label_1
_geom_bond_atom_site_label_2
_geom_bond_distance
_geom_bond_site_symmetry_2
Mg0 O7 2.004892 1_556
Mg0 O0 2.073071 1_555
Mg0 O3 2.121760 1_556
Mg0 O1 2.125453 1_555
Mg0 O5 2.174798 1_556
Co0 O8 1.765862 1_555
Co0 O7 1.835721 1_556
Co0 O4 1.881128 1_655
Co0 O0 1.992575 1_555
Co0 F2 2.097836 1_655
Co0 F1 2.129135 1_565
Co1 O6 1.811105 1_565
Co1 O4 1.904560 1_555
Co1 O0 2.002266 1_555
Co1 O3 2.020592 1_555
Co1 O1 2.091189 1_555
Co2 O2 1.846800 1_555
Co2 F1 1.926893 1_555
Co2 O0 1.931792 1_555
Co2 O3 1.965434 1_555
Co2 O5 2.092703 1_555
Co3 O8 1.839512 1_455
Co3 O6 1.864554 1_555
Co3 O2 1.915751 1_455
Co3 O3 1.976991 1_555
Co3 F2 2.073020 1_555
Co3 F0 2.164361 1_554
Co4 O7 1.848478 1_555
Co4 O5 1.885978 1_565
Co4 O1 1.914066 1_554
Co4 F0 1.978433 1_564
Co4 O6 2.015084 1_565
Co4 F1 2.210628 1_564
Co5 O4 1.900263 1_644
Co5 O2 1.919546 1_555
Co5 O5 1.927291 1_555
Co5 O1 1.929334 1_644
Co5 F2 2.164609 1_654
F0 Mg0 1.933758 1_555
