# generated using pymatgen
data_NaCa2Hf2PS5O24
_symmetry_space_group_name_H-M   'P 1'
_cell_length_a   9.04616033
_cell_length_b   9.05728782
_cell_length_c   23.55394779
_cell_angle_alpha   89.96609394
_cell_angle_beta   90.02445025
_cell_angle_gamma   120.00621917
_symmetry_Int_Tables_number   1
_chemical_formula_structural   NaCa2Hf2PS5O24
_chemical_formula_sum   'Na3 Ca6 Hf6 P3 S15 O72'
_cell_volume   1671.20408374
_cell_formula_units_Z   3
loop_
 _symmetry_equiv_pos_site_id
 _symmetry_equiv_pos_as_xyz
  1  'x, y, z'
loop_
 _atom_site_type_symbol
 _atom_site_label
 _atom_site_symmetry_multiplicity
 _atom_site_fract_x
 _atom_site_fract_y
 _atom_site_fract_z
 _atom_site_occupancy
  Na  Na0  1  0.67263461  0.33236474  0.82713630  1
  Na  Na1  1  0.65533772  0.33536381  0.33275522  1
  Na  Na2  1  0.34045994  0.67244943  0.16146278  1
  Ca  Ca0  1  0.00022668  0.00365586  0.85761182  1
  Ca  Ca1  1  0.66700167  0.33258616  0.68306388  1
  Ca  Ca2  1  0.66257065  0.33394969  0.19201924  1
  Ca  Ca3  1  0.66565283  0.33375884  0.48635886  1
  Ca  Ca4  1  0.33108995  0.66277552  0.01824540  1
  Ca  Ca5  1  0.33430543  0.66697847  0.52263905  1
  Hf  Hf0  1  0.00096305  0.99338532  0.35384555  1
  Hf  Hf1  1  0.99892944  0.00003067  0.64874048  1
  Hf  Hf2  1  0.99894934  0.99112523  0.14584423  1
  Hf  Hf3  1  0.67295757  0.33368584  0.97843767  1
  Hf  Hf4  1  0.33924861  0.67396178  0.31055249  1
  Hf  Hf5  1  0.32464569  0.66019420  0.81330917  1
  P  P0  1  0.28023026  0.99058209  0.25102459  1
  P  P1  1  0.71085508  0.71960124  0.25117155  1
  P  P2  1  0.03613581  0.38385945  0.91670189  1
  S  S0  1  0.01125671  0.28888783  0.25121288  1
  S  S1  1  0.29090003  0.29720060  0.75219600  1
  S  S2  1  0.00680069  0.71085589  0.75271573  1
  S  S3  1  0.70047082  0.99005836  0.75244241  1
  S  S4  1  0.96320843  0.32312676  0.58516847  1
  S  S5  1  0.35888044  0.03612959  0.58538984  1
  S  S6  1  0.67716283  0.64013713  0.58534717  1
  S  S7  1  0.95310918  0.62614262  0.08524515  1
  S  S8  1  0.67615500  0.04810627  0.08558870  1
  S  S9  1  0.37089271  0.32485709  0.08524202  1
  S  S10  1  0.61552207  0.64925139  0.91625992  1
  S  S11  1  0.35024603  0.96519441  0.91614566  1
  S  S12  1  0.62795968  0.96154676  0.41167244  1
  S  S13  1  0.33169545  0.37485152  0.41088263  1
  S  S14  1  0.04122338  0.66427260  0.41164052  1
  O  O0  1  0.18370738  0.00485758  0.30326306  1
  O  O1  1  0.81870425  0.81973798  0.30340903  1
  O  O2  1  0.99721844  0.18703349  0.30226198  1
  O  O3  1  0.21574073  0.19291490  0.80231334  1
  O  O4  1  0.98065488  0.78699180  0.80309515  1
  O  O5  1  0.80507886  0.01760665  0.80244509  1
  O  O6  1  0.78551054  0.96771952  0.70070935  1
  O  O7  1  0.18244120  0.21303176  0.70090335  1
  O  O8  1  0.02863917  0.81783101  0.70129633  1
  O  O9  1  0.79834439  0.82761354  0.19658129  1
  O  O10  1  0.03140957  0.20734257  0.19884558  1
  O  O11  1  0.17268794  0.97232251  0.19644715  1
  O  O12  1  0.88473277  0.35284515  0.63467205  1
  O  O13  1  0.46824278  0.11462570  0.63466290  1
  O  O14  1  0.64735964  0.53154322  0.63471223  1
  O  O15  1  0.87609604  0.52327557  0.13552011  1
  O  O16  1  0.64990187  0.12572948  0.13576547  1
  O  O17  1  0.47426567  0.35037858  0.13566802  1
  O  O18  1  0.45577574  0.30353834  0.03339207  1
  O  O19  1  0.84624955  0.54088756  0.03333451  1
  O  O20  1  0.69632679  0.15493412  0.03330816  1
  O  O21  1  0.42524312  0.14175762  0.53387342  1
  O  O22  1  0.71548724  0.57319506  0.53379602  1
  O  O23  1  0.85756202  0.28541210  0.53371160  1
  O  O24  1  0.54593165  0.67760197  0.96775536  1
  O  O25  1  0.13444173  0.46117332  0.97015052  1
  O  O26  1  0.32903207  0.87066275  0.96792105  1
  O  O27  1  0.55902793  0.86412703  0.46317630  1
  O  O28  1  0.30558179  0.44287382  0.46304735  1
  O  O29  1  0.13637593  0.69133682  0.46359914  1
  O  O30  1  0.13924315  0.65218347  0.36125879  1
  O  O31  1  0.51382845  0.86330449  0.36115395  1
  O  O32  1  0.34785868  0.48848047  0.36072514  1
  O  O33  1  0.12834223  0.50636058  0.86377651  1
  O  O34  1  0.38025622  0.88077432  0.86550935  1
  O  O35  1  0.50216682  0.62245382  0.86559067  1
  O  O36  1  0.02296663  0.81974386  0.40238433  1
  O  O37  1  0.80025914  0.98105536  0.40108836  1
  O  O38  1  0.17647515  0.20337398  0.40040445  1
  O  O39  1  -0.00129741  0.20594532  0.90585535  1
  O  O40  1  0.20803100  0.99259611  0.90670278  1
  O  O41  1  0.78803504  0.78564709  0.90635856  1
  O  O42  1  0.97639481  0.16454614  0.59807964  1
  O  O43  1  0.18709296  0.02259100  0.59865220  1
  O  O44  1  0.83529607  0.81216029  0.59821501  1
  O  O45  1  0.95796426  0.79582938  0.09118734  1
  O  O46  1  0.83926743  0.04207922  0.09213994  1
  O  O47  1  0.19989738  0.16314251  0.09231639  1
  O  O48  1  0.66981784  0.13416340  0.74573621  1
  O  O49  1  0.46614835  0.33062860  0.74523467  1
  O  O50  1  0.86447243  0.53572929  0.74609284  1
  O  O51  1  0.69473439  0.54543975  0.25140397  1
  O  O52  1  0.86114759  0.30862118  0.24914681  1
  O  O53  1  0.45754799  0.14431379  0.25097462  1
  O  O54  1  0.61916396  0.48223684  0.92295189  1
  O  O55  1  0.85420798  0.37653152  0.92379469  1
  O  O56  1  0.51355907  0.13993573  0.92186737  1
  O  O57  1  0.64193667  0.12976440  0.41135850  1
  O  O58  1  0.48488026  0.35778686  0.41075075  1
  O  O59  1  0.87113939  0.51209976  0.41108234  1
  O  O60  1  0.34122855  0.46970035  0.08000066  1
  O  O61  1  0.12878378  0.66122629  0.07943303  1
  O  O62  1  0.53234107  0.87375635  0.07919675  1
  O  O63  1  0.32730497  0.86352900  0.57679420  1
  O  O64  1  0.53529186  0.67072050  0.57683558  1
  O  O65  1  0.13583569  0.46450462  0.57665754  1
  O  O66  1  0.28974317  0.82190130  0.25579440  1
  O  O67  1  0.52934013  0.70381981  0.25566033  1
  O  O68  1  0.17019340  0.46189251  0.25537418  1
  O  O69  1  0.29727543  0.46740375  0.75931214  1
  O  O70  1  0.17193118  0.70575049  0.75906243  1
  O  O71  1  0.53111441  0.82778084  0.75971167  1
loop_
_geom_bond_atom_site_label_1
_geom_bond_atom_site_label_2
_geom_bond_distance
_geom_bond_site_symmetry_2
Na0 O50 2.617206 1_555
Na0 O48 2.618696 1_555
Na0 O49 2.679247 1_555
Na0 O55 2.716977 1_555
Na0 O56 2.752582 1_555
Na0 O54 2.798425 1_555
Na1 O58 2.471840 1_555
Na1 O59 2.579144 1_555
Na1 O57 2.584657 1_555
Na1 O51 2.595571 1_555
Na1 O53 2.609681 1_555
Na1 O52 2.803183 1_555
Na2 O62 2.631586 1_555
Na2 O60 2.659102 1_555
Na2 O61 2.685611 1_555
Na2 O67 2.726694 1_555
Na2 O66 2.757742 1_555
Na2 O68 2.821733 1_555
Ca0 O39 2.162430 1_555
Ca0 O5 2.245387 1_455
Ca0 O40 2.251032 1_545
Ca0 O3 2.256705 1_555
Ca0 O41 2.260542 1_445
Ca0 O4 2.277382 1_445
Ca1 O12 2.202837 1_555
Ca1 O13 2.209172 1_555
Ca1 O14 2.212125 1_555
Ca1 O49 2.327234 1_555
Ca1 O48 2.334996 1_555
Ca1 O50 2.343919 1_555
Ca2 O17 2.221915 1_555
Ca2 O16 2.260988 1_555
Ca2 O15 2.264748 1_555
Ca2 O53 2.265264 1_555
Ca2 O51 2.270631 1_555
Ca2 O52 2.345179 1_555
Ca3 O22 2.275803 1_555
Ca3 O23 2.282036 1_555
Ca3 O21 2.285486 1_555
Ca3 O57 2.487484 1_555
Ca3 O59 2.490888 1_555
Ca3 O58 2.499213 1_555
Ca4 O25 2.129286 1_554
Ca4 O24 2.224912 1_554
Ca4 O26 2.232277 1_554
Ca4 O60 2.310755 1_555
Ca4 O61 2.324451 1_555
Ca4 O62 2.355529 1_555
Ca5 O64 2.207450 1_555
Ca5 O65 2.216172 1_555
Ca5 O63 2.217152 1_555
Ca5 O29 2.362416 1_555
Ca5 O28 2.373440 1_555
Ca5 O27 2.377292 1_555
Hf0 O0 1.998213 1_565
Hf0 O1 2.002553 1_455
Hf0 O36 2.032472 1_555
Hf0 O38 2.078819 1_565
Hf0 O37 2.084677 1_455
Hf0 O2 2.147206 1_465
Hf1 O44 1.996117 1_545
Hf1 O43 1.996126 1_655
Hf1 O42 1.996802 1_555
Hf1 O6 2.178941 1_545
Hf1 O8 2.183757 1_645
Hf1 O7 2.187486 1_655
Hf2 O11 2.045882 1_655
Hf2 O9 2.055801 1_555
Hf2 O45 2.066399 1_555
Hf2 O47 2.118573 1_665
Hf2 O46 2.136400 1_565
Hf2 O10 2.215228 1_665
Hf3 O55 1.964759 1_555
Hf3 O56 2.098664 1_555
Hf3 O54 2.099367 1_555
Hf3 O20 2.162366 1_556
Hf3 O19 2.170252 1_556
Hf3 O18 2.252798 1_556
Hf4 O31 2.036565 1_555
Hf4 O67 2.058682 1_555
Hf4 O66 2.063278 1_555
Hf4 O32 2.086465 1_555
Hf4 O30 2.093670 1_555
Hf4 O68 2.186442 1_555
Hf5 O33 2.008214 1_555
Hf5 O70 2.068651 1_555
Hf5 O69 2.073137 1_555
Hf5 O71 2.133161 1_555
Hf5 O34 2.180223 1_555
Hf5 O35 2.181512 1_555
O0 P0 1.551480 1_545
O1 P1 1.550349 1_555
O2 S0 1.481420 1_655
O3 S1 1.450851 1_555
O4 S2 1.450485 1_655
O5 S3 1.451930 1_545
O6 S3 1.508074 1_555
O7 S1 1.501793 1_555
O8 S2 1.500669 1_555
O9 P1 1.568993 1_555
O10 S0 1.495357 1_555
O11 P0 1.569901 1_555
O12 S4 1.458828 1_555
O13 S5 1.458642 1_555
O14 S6 1.457995 1_555
O15 S7 1.451161 1_555
O16 S8 1.454547 1_555
O17 S9 1.456633 1_555
O18 S9 1.505915 1_555
O19 S7 1.509713 1_555
O20 S8 1.519229 1_555
O21 S5 1.474061 1_555
O22 S6 1.474328 1_555
O23 S4 1.473768 1_555
O24 S10 1.447797 1_555
O25 P2 1.497775 1_555
O26 S11 1.446287 1_555
O27 S12 1.445032 1_555
O28 S13 1.446291 1_555
O29 S14 1.444709 1_555
O30 S14 1.518097 1_555
O31 S12 1.534583 1_555
O32 S13 1.524629 1_555
O33 P2 1.598255 1_555
O34 S11 1.513211 1_555
O35 S10 1.511665 1_555
O36 S14 1.513241 1_555
O37 S12 1.499192 1_555
O38 S13 1.504548 1_555
O39 P2 1.493737 1_555
O40 S11 1.444018 1_555
O41 S10 1.444873 1_555
O42 S4 1.529874 1_555
O43 S5 1.528843 1_555
O44 S6 1.528631 1_555
O45 S7 1.521947 1_555
O46 S8 1.511414 1_555
O47 S9 1.516472 1_555
O48 S3 1.472107 1_545
O49 S1 1.466934 1_555
O50 S2 1.468161 1_655
O51 P1 1.509799 1_555
O52 S0 1.456336 1_655
O53 P0 1.509251 1_545
O54 S10 1.537448 1_555
O55 P2 1.622274 1_655
O56 S11 1.538533 1_545
O57 S12 1.464478 1_545
O58 S13 1.469143 1_555
O59 S14 1.464959 1_655
O60 S9 1.469757 1_555
O61 S7 1.462965 1_455
O62 S8 1.467711 1_565
O63 S5 1.456081 1_565
O64 S6 1.455778 1_555
O65 S4 1.455488 1_455
O66 P0 1.576534 1_555
O67 P1 1.578987 1_555
O68 S0 1.509585 1_555
O69 S1 1.522912 1_555
O70 S2 1.524731 1_555
O71 S3 1.511441 1_555
