# generated using pymatgen
data_As4S3
_symmetry_space_group_name_H-M   'P 1'
_cell_length_a   8.39664958
_cell_length_b   9.41843409
_cell_length_c   10.28792545
_cell_angle_alpha   90.00000000
_cell_angle_beta   90.00000000
_cell_angle_gamma   90.00000000
_symmetry_Int_Tables_number   1
_chemical_formula_structural   As4S3
_chemical_formula_sum   'As16 S12'
_cell_volume   813.60299851
_cell_formula_units_Z   4
loop_
 _symmetry_equiv_pos_site_id
 _symmetry_equiv_pos_as_xyz
  1  'x, y, z'
loop_
 _atom_site_type_symbol
 _atom_site_label
 _atom_site_symmetry_multiplicity
 _atom_site_fract_x
 _atom_site_fract_y
 _atom_site_fract_z
 _atom_site_occupancy
  As  As0  1  0.10089336  0.14389822  0.71553194  1
  As  As1  1  0.60089336  0.85610178  0.28446806  1
  As  As2  1  0.39910664  0.64389822  0.78446806  1
  As  As3  1  0.89910664  0.35610178  0.21553194  1
  As  As4  1  0.10089336  0.64389822  0.78446806  1
  As  As5  1  0.60089336  0.35610178  0.21553194  1
  As  As6  1  0.39910664  0.14389822  0.71553194  1
  As  As7  1  0.89910664  0.85610178  0.28446806  1
  As  As8  1  0.25000000  0.48453189  0.93449789  1
  As  As9  1  0.75000000  0.51546811  0.06550211  1
  As  As10  1  0.25000000  0.98453189  0.56550211  1
  As  As11  1  0.75000000  0.01546811  0.43449789  1
  As  As12  1  0.25000000  0.83905174  0.05612653  1
  As  As13  1  0.75000000  0.16094826  0.94387347  1
  As  As14  1  0.25000000  0.33905174  0.44387347  1
  As  As15  1  0.75000000  0.66094826  0.55612653  1
  S  S0  1  0.25000000  0.60965812  0.11683470  1
  S  S1  1  0.75000000  0.39034188  0.88316530  1
  S  S2  1  0.25000000  0.10965812  0.38316530  1
  S  S3  1  0.75000000  0.89034188  0.61683470  1
  S  S4  1  0.95079979  0.17193129  0.08794208  1
  S  S5  1  0.45079979  0.82806871  0.91205792  1
  S  S6  1  0.54920021  0.67193129  0.41205792  1
  S  S7  1  0.04920021  0.32806871  0.58794208  1
  S  S8  1  0.04920021  0.82806871  0.91205792  1
  S  S9  1  0.54920021  0.17193129  0.08794208  1
  S  S10  1  0.45079979  0.32806871  0.58794208  1
  S  S11  1  0.95079979  0.67193129  0.41205792  1
loop_
_geom_bond_atom_site_label_1
_geom_bond_atom_site_label_2
_geom_bond_distance
_geom_bond_site_symmetry_2
As0 S7 2.218161 1_555
As1 S6 2.218161 1_555
As2 S5 2.218161 1_555
As3 S4 2.218161 1_555
As4 S8 2.218161 1_555
As5 S9 2.218161 1_555
As6 S10 2.218161 1_555
As7 S11 2.218161 1_555
As8 S0 2.215339 1_556
As9 S1 2.215339 1_554
As10 S2 2.215339 1_565
As11 S3 2.215339 1_545
As12 S8 2.247280 1_554
As12 S5 2.247280 1_554
As12 S0 2.248991 1_555
As13 S9 2.247280 1_556
As13 S4 2.247280 1_556
As13 S1 2.248991 1_555
As14 S10 2.247280 1_555
As14 S7 2.247280 1_555
As14 S2 2.248991 1_555
As15 S11 2.247280 1_555
As15 S6 2.247280 1_555
As15 S3 2.248991 1_555
