# generated using pymatgen
data_Li2V(PO4)2
_symmetry_space_group_name_H-M   'P 1'
_cell_length_a   4.83652802
_cell_length_b   15.01653717
_cell_length_c   7.96212220
_cell_angle_alpha   98.42447936
_cell_angle_beta   102.02641408
_cell_angle_gamma   85.98452107
_symmetry_Int_Tables_number   1
_chemical_formula_structural   Li2V(PO4)2
_chemical_formula_sum   'Li8 V4 P8 O32'
_cell_volume   559.01094193
_cell_formula_units_Z   4
loop_
 _symmetry_equiv_pos_site_id
 _symmetry_equiv_pos_as_xyz
  1  'x, y, z'
loop_
 _atom_site_type_symbol
 _atom_site_label
 _atom_site_symmetry_multiplicity
 _atom_site_fract_x
 _atom_site_fract_y
 _atom_site_fract_z
 _atom_site_occupancy
  Li  Li0  1  0.42058600  0.24088200  0.04381300  1
  Li  Li1  1  0.67088100  0.49081200  0.79393500  1
  Li  Li2  1  0.92064400  0.74086900  0.54382700  1
  Li  Li3  1  0.17086500  0.99080400  0.29391700  1
  Li  Li4  1  0.63669800  0.13178400  0.39095800  1
  Li  Li5  1  0.88687000  0.38182200  0.14107100  1
  Li  Li6  1  0.13689100  0.63177700  0.89106100  1
  Li  Li7  1  0.38686800  0.88180600  0.64110700  1
  V  V0  1  0.25513500  0.74914000  0.24229700  1
  V  V1  1  0.50510000  0.99921900  0.99254300  1
  V  V2  1  0.75505200  0.24914500  0.74224300  1
  V  V3  1  0.00491700  0.49928300  0.49229500  1
  P  P0  1  0.50938000  0.35552700  0.41254100  1
  P  P1  1  0.75948800  0.60549900  0.16259600  1
  P  P2  1  0.00954800  0.85552400  0.91253500  1
  P  P3  1  0.25955000  0.10548800  0.66256900  1
  P  P4  1  0.98606600  0.14305900  0.08639000  1
  P  P5  1  0.23608600  0.39300600  0.83634900  1
  P  P6  1  0.48600300  0.64303800  0.58634100  1
  P  P7  1  0.73609200  0.89306500  0.33640900  1
  O  O0  1  0.90090200  0.16507000  0.25787800  1
  O  O1  1  0.15114400  0.41499800  0.00792700  1
  O  O2  1  0.40094600  0.66502400  0.75793300  1
  O  O3  1  0.65081100  0.91506100  0.50793400  1
  O  O4  1  0.69680100  0.43181000  0.52911600  1
  O  O5  1  0.94682100  0.68180100  0.27911300  1
  O  O6  1  0.19693700  0.93179500  0.02911600  1
  O  O7  1  0.44686100  0.18178300  0.77912300  1
  O  O8  1  0.80243600  0.06747800  0.96771500  1
  O  O9  1  0.05241000  0.31748300  0.71760700  1
  O  O10  1  0.30236000  0.56746700  0.46764400  1
  O  O11  1  0.55242500  0.81747800  0.21767100  1
  O  O12  1  0.58102400  0.32963500  0.23626900  1
  O  O13  1  0.83100000  0.57961000  0.98629400  1
  O  O14  1  0.08110500  0.82965900  0.73629300  1
  O  O15  1  0.33107000  0.07966200  0.48630300  1
  O  O16  1  0.54874500  0.27145700  0.51386200  1
  O  O17  1  0.79870800  0.52143700  0.26387300  1
  O  O18  1  0.04879800  0.77143500  0.01382300  1
  O  O19  1  0.29874300  0.02146100  0.76379500  1
  O  O20  1  0.19169900  0.39087800  0.39478600  1
  O  O21  1  0.44159900  0.64083800  0.14463600  1
  O  O22  1  0.69192900  0.89087300  0.89497800  1
  O  O23  1  0.94178500  0.14085600  0.64489700  1
  O  O24  1  0.30762800  0.11039000  0.10416800  1
  O  O25  1  0.55771000  0.36035700  0.85411600  1
  O  O26  1  0.80764800  0.61036900  0.60414200  1
  O  O27  1  0.05767800  0.86035700  0.35413800  1
  O  O28  1  0.95641800  0.22801700  0.98613000  1
  O  O29  1  0.20641100  0.47803400  0.73617500  1
  O  O30  1  0.45642300  0.72801600  0.48616500  1
  O  O31  1  0.70629300  0.97802600  0.23623800  1
loop_
_geom_bond_atom_site_label_1
_geom_bond_atom_site_label_2
_geom_bond_distance
_geom_bond_site_symmetry_2
Li0 O12 1.943558 1_555
Li0 O7 2.189305 1_554
Li0 O28 2.212054 1_454
Li0 O24 2.214599 1_555
Li1 O13 1.943059 1_555
Li1 O4 2.189472 1_555
Li1 O29 2.213305 1_555
Li1 O25 2.213894 1_555
Li2 O14 1.943970 1_655
Li2 O5 2.189250 1_555
Li2 O30 2.212284 1_555
Li2 O26 2.214649 1_555
Li3 O15 1.943846 1_565
Li3 O6 2.189537 1_555
Li3 O31 2.213798 1_455
Li3 O27 2.213935 1_555
Li4 O0 1.953029 1_555
Li4 O15 2.043940 1_555
Li4 O16 2.232665 1_555
Li4 O23 2.233399 1_555
Li4 O31 2.488469 1_545
Li4 O24 2.488496 1_555
Li5 O1 1.953031 1_655
Li5 O12 2.044613 1_555
Li5 O20 2.231457 1_655
Li5 O17 2.231856 1_555
Li5 O28 2.489708 1_554
Li5 O25 2.489743 1_554
Li6 O2 1.952514 1_555
Li6 O13 2.044807 1_455
Li6 O21 2.230331 1_556
Li6 O18 2.232232 1_556
Li6 O29 2.488728 1_555
Li6 O26 2.489673 1_455
Li7 O3 1.952391 1_555
Li7 O14 2.043932 1_555
Li7 O19 2.232027 1_565
Li7 O22 2.232930 1_555
Li7 O30 2.489527 1_555
Li7 O27 2.489885 1_555
O0 P4 1.492084 1_555
O1 P5 1.492254 1_554
O2 P6 1.492604 1_555
O3 P7 1.492601 1_555
O4 P0 1.574375 1_555
O4 V3 1.952906 1_655
O5 P1 1.574188 1_555
O5 V0 1.952492 1_655
O6 P2 1.574192 1_554
O6 V1 1.951898 1_554
O7 P3 1.574169 1_555
O7 V2 1.952399 1_555
O8 P4 1.564286 1_556
O8 V1 1.882039 1_545
O9 P5 1.564008 1_555
O9 V2 1.882330 1_455
O10 P6 1.564281 1_555
O10 V3 1.881291 1_555
O11 P7 1.564625 1_555
O11 V0 1.882031 1_555
O12 P0 1.504975 1_555
O13 P1 1.504936 1_556
O14 P2 1.504536 1_555
O15 P3 1.504582 1_555
O16 P0 1.575299 1_555
O16 V2 1.946801 1_555
O17 P1 1.575012 1_555
O17 V3 1.946288 1_655
O18 P2 1.575411 1_554
O18 V0 1.947407 1_555
O19 P3 1.574316 1_555
O19 V1 1.949080 1_545
O20 P0 1.574731 1_555
O20 V3 1.945457 1_555
O21 P1 1.575515 1_555
O21 V0 1.944004 1_555
O22 P2 1.574544 1_655
O22 V1 1.945074 1_555
O23 P3 1.575225 1_655
O23 V2 1.943558 1_555
O24 P4 1.581530 1_455
O24 V1 2.045651 1_544
O25 P5 1.581742 1_555
O25 V2 2.046594 1_555
O26 P6 1.581895 1_555
O26 V3 2.044971 1_655
O27 P7 1.581815 1_455
O27 V0 2.046821 1_555
O28 P4 1.584458 1_556
O28 V2 2.041841 1_555
O29 P5 1.584953 1_555
O29 V3 2.042434 1_555
O30 P6 1.584340 1_555
O30 V0 2.041592 1_555
O31 P7 1.584018 1_555
O31 V1 2.040535 1_554
