# generated using pymatgen
data_MgV2(Cl2O)2
_symmetry_space_group_name_H-M   'P 1'
_cell_length_a   7.33173221
_cell_length_b   3.70980705
_cell_length_c   6.96391566
_cell_angle_alpha   105.23662281
_cell_angle_beta   104.78775660
_cell_angle_gamma   89.99018382
_symmetry_Int_Tables_number   1
_chemical_formula_structural   MgV2(Cl2O)2
_chemical_formula_sum   'Mg1 V2 Cl4 O2'
_cell_volume   176.24729353
_cell_formula_units_Z   1
loop_
 _symmetry_equiv_pos_site_id
 _symmetry_equiv_pos_as_xyz
  1  'x, y, z'
loop_
 _atom_site_type_symbol
 _atom_site_label
 _atom_site_symmetry_multiplicity
 _atom_site_fract_x
 _atom_site_fract_y
 _atom_site_fract_z
 _atom_site_occupancy
  Mg  Mg0  1  0.40928700  0.33511200  0.66654500  1
  V  V0  1  0.99848600  0.00199000  0.99835800  1
  V  V1  1  0.52468100  0.02176100  0.04770200  1
  Cl  Cl0  1  0.18656000  0.85107500  0.69929700  1
  Cl  Cl1  1  0.31857500  0.13917800  0.28374600  1
  Cl  Cl2  1  0.66119600  0.85748900  0.71169800  1
  Cl  Cl3  1  0.82497200  0.13337200  0.27125600  1
  O  O0  1  0.48392200  0.48527500  0.97343300  1
  O  O1  1  0.99972800  0.49617700  0.98685200  1
loop_
_geom_bond_atom_site_label_1
_geom_bond_atom_site_label_2
_geom_bond_distance
_geom_bond_site_symmetry_2
Mg0 O0 1.988592 1_555
Cl0 Mg0 2.518349 1_555
Cl0 Mg0 2.519824 1_565
Cl0 V0 2.721223 1_465
Cl0 V1 2.925037 1_566
Cl1 V1 2.463064 1_555
Cl1 Mg0 2.480665 1_555
Cl1 V0 2.608487 1_454
Cl2 Mg0 2.577766 1_565
Cl2 Mg0 2.578764 1_555
Cl2 V1 2.700766 1_566
Cl2 V0 2.702916 1_565
Cl3 V1 2.313911 1_555
Cl3 V0 2.492930 1_554
O0 V1 1.923068 1_566
O0 V1 1.924065 1_556
O1 V0 1.856131 1_555
O1 V0 1.857142 1_565
