# generated using pymatgen
data_Ba5Co5O14
_symmetry_space_group_name_H-M   'P 1'
_cell_length_a   5.66327605
_cell_length_b   5.66080207
_cell_length_c   11.90914268
_cell_angle_alpha   89.92538992
_cell_angle_beta   90.09844874
_cell_angle_gamma   119.85848322
_symmetry_Int_Tables_number   1
_chemical_formula_structural   Ba5Co5O14
_chemical_formula_sum   'Ba5 Co5 O14'
_cell_volume   331.11105402
_cell_formula_units_Z   1
loop_
 _symmetry_equiv_pos_site_id
 _symmetry_equiv_pos_as_xyz
  1  'x, y, z'
loop_
 _atom_site_type_symbol
 _atom_site_label
 _atom_site_symmetry_multiplicity
 _atom_site_fract_x
 _atom_site_fract_y
 _atom_site_fract_z
 _atom_site_occupancy
  Ba  Ba0  1  0.66566124  0.33381716  0.58162892  1
  Ba  Ba1  1  0.33434151  0.66618307  0.41838335  1
  Ba  Ba2  1  0.66651730  0.33339740  0.22682321  1
  Ba  Ba3  1  0.33348216  0.66660200  0.77317905  1
  Ba  Ba4  1  -0.00000332  -0.00000279  -0.00001599  1
  Co  Co0  1  0.66675375  0.33335020  0.85913840  1
  Co  Co1  1  0.33324533  0.66664848  0.14086171  1
  Co  Co2  1  -0.00106431  0.00053494  0.70833528  1
  Co  Co3  1  0.00106531  -0.00053558  0.29166853  1
  Co  Co4  1  0.00000115  0.00000117  0.49999235  1
  O  O0  1  0.85713331  0.14335318  0.39833080  1
  O  O1  1  0.85537196  0.70826321  0.39699173  1
  O  O2  1  0.29346016  0.14575876  0.39660981  1
  O  O3  1  0.70653304  0.85423884  0.60339383  1
  O  O4  1  0.14463040  0.29174040  0.60301203  1
  O  O5  1  0.14286637  0.85664115  0.60167401  1
  O  O6  1  0.83857717  0.16148340  0.80181124  1
  O  O7  1  0.83867453  0.67671874  0.80162265  1
  O  O8  1  0.32334902  0.16138107  0.80158148  1
  O  O9  1  0.67667120  0.83862949  0.19842102  1
  O  O10  1  0.33312759  0.66675999  0.99503157  1
  O  O11  1  0.66687407  0.33324591  0.00495597  1
  O  O12  1  0.16141510  0.83852445  0.19819000  1
  O  O13  1  0.16131695  0.32326436  0.19837805  1
loop_
_geom_bond_atom_site_label_1
_geom_bond_atom_site_label_2
_geom_bond_distance
_geom_bond_site_symmetry_2
Ba0 O3 2.848605 1_545
Ba0 O4 2.849600 1_655
Ba0 O3 2.850000 1_555
Ba0 O4 2.851501 1_555
Ba0 O5 2.855764 1_655
Ba0 O5 2.856021 1_545
Ba0 O2 2.861343 1_555
Ba0 O1 2.865433 1_555
Ba0 O0 2.877821 1_555
Ba0 O8 3.114336 1_555
Ba0 O7 3.114902 1_555
Ba0 O6 3.118053 1_555
Ba1 O2 2.848630 1_565
Ba1 O1 2.849622 1_455
Ba1 O2 2.850001 1_555
Ba1 O1 2.851500 1_555
Ba1 O0 2.855798 1_455
Ba1 O0 2.856005 1_565
Ba1 O3 2.861234 1_555
Ba1 O4 2.865345 1_555
Ba1 O5 2.877744 1_555
Ba1 O9 3.114481 1_555
Ba1 O13 3.115064 1_555
Ba1 O12 3.118211 1_555
Ba2 O11 2.642254 1_555
Ba2 O2 2.730379 1_555
Ba2 O1 2.738208 1_555
Ba2 O0 2.763622 1_555
Ba2 O9 2.850439 1_545
Ba2 O9 2.851528 1_555
Ba2 O13 2.851957 1_655
Ba2 O13 2.852575 1_555
Ba2 O12 2.857736 1_545
Ba2 O12 2.858107 1_655
Ba3 O10 2.642079 1_555
Ba3 O3 2.730346 1_555
Ba3 O4 2.738181 1_555
Ba3 O5 2.763582 1_555
Ba3 O8 2.850443 1_565
Ba3 O8 2.851522 1_555
Ba3 O7 2.851953 1_455
Ba3 O7 2.852572 1_555
Ba3 O6 2.857737 1_565
Ba3 O6 2.858101 1_455
Ba4 O6 2.839073 1_454
Ba4 O12 2.839361 1_545
Ba4 O7 2.846620 1_444
Ba4 O13 2.846912 1_555
Ba4 O8 2.848564 1_554
Ba4 O9 2.848832 1_445
Ba4 O10 3.265819 1_544
Ba4 O11 3.265839 1_455
Ba4 O11 3.273845 1_445
Ba4 O10 3.273898 1_554
Ba4 O10 3.275805 1_444
Ba4 O11 3.275850 1_555
Co0 O11 1.736561 1_556
Co0 O6 1.818300 1_555
Co0 O7 1.819259 1_555
Co0 O8 1.819830 1_555
Co1 O10 1.736710 1_554
Co1 O12 1.818377 1_555
Co1 O13 1.819332 1_555
Co1 O9 1.819937 1_555
Co2 O5 1.899686 1_545
Co2 O4 1.901406 1_555
Co2 O3 1.902631 1_445
Co2 O6 1.929790 1_455
Co2 O7 1.938996 1_445
Co2 O8 1.941034 1_555
Co3 O0 1.899681 1_455
Co3 O1 1.901390 1_445
Co3 O2 1.902601 1_555
Co3 O12 1.929739 1_545
Co3 O13 1.938951 1_555
Co3 O9 1.940966 1_445
Co4 O0 1.851160 1_455
Co4 O5 1.851336 1_545
Co4 O1 1.886225 1_445
Co4 O4 1.886377 1_555
Co4 O2 1.896752 1_555
Co4 O3 1.896933 1_445
