# generated using pymatgen
data_MgMn6O7F5
_symmetry_space_group_name_H-M   'P 1'
_cell_length_a   5.20520424
_cell_length_b   8.03096143
_cell_length_c   6.07845713
_cell_angle_alpha   101.61592854
_cell_angle_beta   99.94461656
_cell_angle_gamma   81.82034040
_symmetry_Int_Tables_number   1
_chemical_formula_structural   MgMn6O7F5
_chemical_formula_sum   'Mg1 Mn6 O7 F5'
_cell_volume   243.62618711
_cell_formula_units_Z   1
loop_
 _symmetry_equiv_pos_site_id
 _symmetry_equiv_pos_as_xyz
  1  'x, y, z'
loop_
 _atom_site_type_symbol
 _atom_site_label
 _atom_site_symmetry_multiplicity
 _atom_site_fract_x
 _atom_site_fract_y
 _atom_site_fract_z
 _atom_site_occupancy
  Mg  Mg0  1  0.48766027  0.99953407  0.96328137  1
  Mn  Mn0  1  0.58463917  0.02657485  0.47937091  1
  Mn  Mn1  1  0.51446541  0.64846606  0.17781933  1
  Mn  Mn2  1  0.50750816  0.35542766  0.80853370  1
  Mn  Mn3  1  0.97114054  0.66772270  0.68439267  1
  Mn  Mn4  1  0.98257537  0.32145581  0.34202375  1
  Mn  Mn5  1  0.97604241  0.99478565  0.00673845  1
  O  O0  1  0.79517207  0.80099785  0.93566638  1
  O  O1  1  0.78307885  0.09057315  0.24681582  1
  O  O2  1  0.68226955  0.11755311  0.79748623  1
  O  O3  1  0.69994660  0.76955138  0.46553297  1
  O  O4  1  0.69361104  0.42984611  0.11782656  1
  O  O5  1  0.29111579  0.57328219  0.88837024  1
  O  O6  1  0.32407708  0.23017883  0.52549657  1
  F  F0  1  0.79589468  0.43358394  0.63014695  1
  F  F1  1  0.34075326  0.89363122  0.18925917  1
  F  F2  1  0.15241005  0.55654770  0.42344250  1
  F  F3  1  0.19930894  0.18499188  0.05276396  1
  F  F4  1  0.19055075  0.90529386  0.75313049  1
loop_
_geom_bond_atom_site_label_1
_geom_bond_atom_site_label_2
_geom_bond_distance
_geom_bond_site_symmetry_2
Mg0 O2 1.987596 1_565
Mg0 O0 2.095547 1_555
Mg0 O1 2.183241 1_566
Mn0 O2 1.930910 1_555
Mn0 O6 1.976723 1_555
Mn0 O3 2.054993 1_545
Mn0 O1 2.068148 1_555
Mn1 O4 1.865166 1_555
Mn1 O5 1.969044 1_554
Mn1 O3 1.983776 1_555
Mn2 O5 1.962487 1_555
Mn2 O6 1.972898 1_555
Mn2 O4 1.978208 1_556
Mn2 O2 1.989077 1_555
Mn3 O0 1.965526 1_555
Mn3 O3 1.972869 1_555
Mn3 O5 2.047563 1_655
Mn4 O6 2.052953 1_655
Mn4 O4 2.067467 1_555
Mn4 O1 2.181635 1_555
Mn5 O0 1.871035 1_554
Mn5 O1 1.887988 1_565
Mn5 O2 2.081441 1_564
F0 Mn4 2.127447 1_555
F0 Mn3 2.147343 1_555
F0 Mn2 2.219778 1_555
F1 Mn1 2.039370 1_555
F1 Mg0 2.052599 1_554
F1 Mn5 2.165955 1_455
F1 Mn0 2.171510 1_565
F2 Mn3 1.977446 1_455
F2 Mn4 2.130393 1_455
F3 Mn5 1.995743 1_445
F3 Mg0 2.021527 1_544
F3 Mn4 2.263305 1_455
F4 Mg0 1.964093 1_555
F4 Mn5 2.014844 1_456
F4 Mn3 2.292007 1_455
