# generated using pymatgen
data_Na10Hf6Zn2Si7S5O48
_symmetry_space_group_name_H-M   'P 1'
_cell_length_a   18.14615951
_cell_length_b   9.09865256
_cell_length_c   22.88431314
_cell_angle_alpha   90.06468897
_cell_angle_beta   90.05818551
_cell_angle_gamma   120.10563902
_symmetry_Int_Tables_number   1
_chemical_formula_structural   Na10Hf6Zn2Si7S5O48
_chemical_formula_sum   'Na30 Hf18 Zn6 Si21 S15 O144'
_cell_volume   3268.63201298
_cell_formula_units_Z   3
loop_
 _symmetry_equiv_pos_site_id
 _symmetry_equiv_pos_as_xyz
  1  'x, y, z'
loop_
 _atom_site_type_symbol
 _atom_site_label
 _atom_site_symmetry_multiplicity
 _atom_site_fract_x
 _atom_site_fract_y
 _atom_site_fract_z
 _atom_site_occupancy
  Na  Na0  1  0.81746089  0.01272118  0.24737157  1
  Na  Na1  1  0.18825419  0.37608245  0.24611886  1
  Na  Na2  1  0.69057258  0.36106603  0.25219578  1
  Na  Na3  1  0.99127139  0.61299151  0.25205984  1
  Na  Na4  1  0.49399288  0.63521084  0.24443557  1
  Na  Na5  1  0.31847234  0.62110766  0.74767862  1
  Na  Na6  1  0.99412202  0.35160303  0.74625409  1
  Na  Na7  1  0.49068268  0.37205320  0.75122925  1
  Na  Na8  1  0.19329602  0.02469344  0.74731326  1
  Na  Na9  1  0.68722208  0.99748374  0.74680410  1
  Na  Na10  1  0.14844707  0.32654791  0.58157720  1
  Na  Na11  1  0.01624178  0.69288364  0.58360317  1
  Na  Na12  1  0.48835065  0.66408608  0.91801568  1
  Na  Na13  1  0.99234148  0.67663807  0.92026646  1
  Na  Na14  1  0.84887664  0.02514428  0.91375090  1
  Na  Na15  1  0.49273921  0.31102999  0.41997116  1
  Na  Na16  1  0.16396627  0.02383557  0.41957671  1
  Na  Na17  1  0.35009095  0.66918861  0.41283106  1
  Na  Na18  1  0.99654936  0.00327834  0.49971709  1
  Na  Na19  1  0.51181701  0.01027678  0.49509349  1
  Na  Na20  1  0.01026942  0.01225489  0.99531259  1
  Na  Na21  1  0.50292190  0.01023840  0.00059982  1
  Na  Na22  1  0.32831960  0.31621571  0.82898264  1
  Na  Na23  1  0.83097392  0.33345100  0.83054597  1
  Na  Na24  1  0.33651450  0.33961871  0.32993463  1
  Na  Na25  1  0.83168269  0.33918365  0.33069262  1
  Na  Na26  1  0.17421810  0.67035132  0.16113673  1
  Na  Na27  1  0.66185139  0.67129011  0.16317784  1
  Na  Na28  1  0.16995081  0.67572903  0.66436356  1
  Na  Na29  1  0.67261616  0.67790611  0.66157236  1
  Hf  Hf0  1  0.99469876  0.99720520  0.35354670  1
  Hf  Hf1  1  0.50507252  0.99249456  0.35460061  1
  Hf  Hf2  1  0.00323113  0.01566134  0.85516373  1
  Hf  Hf3  1  0.49860599  0.00222222  0.85328908  1
  Hf  Hf4  1  0.99676101  0.01265643  0.64606420  1
  Hf  Hf5  1  0.49808197  0.99210961  0.64819191  1
  Hf  Hf6  1  0.99733639  0.00488880  0.14729790  1
  Hf  Hf7  1  0.49465615  0.97470983  0.14560014  1
  Hf  Hf8  1  0.33487405  0.32408704  0.98138986  1
  Hf  Hf9  1  0.83226069  0.33746922  0.97832880  1
  Hf  Hf10  1  0.33125328  0.32617139  0.48046654  1
  Hf  Hf11  1  0.83477592  0.33884275  0.47861941  1
  Hf  Hf12  1  0.66088062  0.66030435  0.01608499  1
  Hf  Hf13  1  0.16448413  0.67163242  0.51621586  1
  Hf  Hf14  1  0.16890000  0.66346304  0.31634041  1
  Hf  Hf15  1  0.66574479  0.66267201  0.31656058  1
  Hf  Hf16  1  0.16619149  0.66973095  0.81705796  1
  Hf  Hf17  1  0.66992796  0.67490173  0.81645680  1
  Zn  Zn0  1  0.32910577  0.31733781  0.68979687  1
  Zn  Zn1  1  0.83864116  0.31255384  0.67749336  1
  Zn  Zn2  1  0.34011328  0.36227527  0.17663846  1
  Zn  Zn3  1  0.83374461  0.33495715  0.19091766  1
  Zn  Zn4  1  0.15821931  0.66856167  0.01029597  1
  Zn  Zn5  1  0.65677298  0.64814363  0.50973300  1
  Si  Si0  1  0.64690225  0.99889957  0.24859439  1
  Si  Si1  1  0.35108663  0.70250478  0.25103827  1
  Si  Si2  1  0.85288861  0.70812723  0.24890540  1
  Si  Si3  1  0.00137243  0.29526586  0.24955618  1
  Si  Si4  1  0.14697820  0.29707692  0.74940781  1
  Si  Si5  1  0.50038734  0.70536057  0.75031409  1
  Si  Si6  1  0.35302683  0.99725135  0.74963657  1
  Si  Si7  1  0.85085704  0.99863396  0.75080104  1
  Si  Si8  1  0.97982445  0.33587476  0.58386954  1
  Si  Si9  1  0.18708649  0.03726434  0.58685094  1
  Si  Si10  1  0.48208364  0.62539930  0.08343684  1
  Si  Si11  1  0.81158851  0.66722358  0.91773836  1
  Si  Si12  1  0.02349891  0.37777467  0.92003562  1
  Si  Si13  1  0.51961664  0.37047140  0.91469892  1
  Si  Si14  1  0.16796440  0.96270911  0.91748104  1
  Si  Si15  1  0.66510938  0.95958191  0.91731319  1
  Si  Si16  1  0.31356030  0.95820085  0.41639114  1
  Si  Si17  1  0.16501205  0.37136038  0.41872905  1
  Si  Si18  1  0.66777111  0.37385730  0.41731662  1
  Si  Si19  1  0.01796816  0.66440913  0.41409651  1
  Si  Si20  1  0.52272998  0.66892173  0.41972412  1
  S  S0  1  0.14507226  0.00085522  0.24916833  1
  S  S1  1  0.49803448  0.28750000  0.25047643  1
  S  S2  1  0.64542275  0.28979657  0.74886342  1
  S  S3  1  0.99765358  0.70656610  0.75047803  1
  S  S4  1  0.48221977  0.33476076  0.58574628  1
  S  S5  1  0.68605724  0.03776280  0.58437504  1
  S  S6  1  0.33572632  0.62937474  0.58390206  1
  S  S7  1  0.82942552  0.61830404  0.58568305  1
  S  S8  1  0.98068356  0.62736362  0.08592404  1
  S  S9  1  0.33151925  0.03964650  0.08629601  1
  S  S10  1  0.83381939  0.04144449  0.08421009  1
  S  S11  1  0.18609764  0.33418436  0.08457872  1
  S  S12  1  0.68779002  0.33495218  0.08557573  1
  S  S13  1  0.31234314  0.66526889  0.91815665  1
  S  S14  1  0.81123599  0.95782419  0.41861935  1
  O  O0  1  0.10544024  0.02627513  0.30293938  1
  O  O1  1  0.60226258  0.03393663  0.30452118  1
  O  O2  1  0.41129608  0.79387502  0.30809186  1
  O  O3  1  0.91519647  0.80126191  0.30497241  1
  O  O4  1  0.49044539  0.19037428  0.30428774  1
  O  O5  1  0.98873939  0.17094623  0.30484060  1
  O  O6  1  0.09824774  0.16741303  0.80318223  1
  O  O7  1  0.60451745  0.18124874  0.80141558  1
  O  O8  1  0.48848774  0.79975826  0.80788959  1
  O  O9  1  0.99024675  0.79176289  0.80341816  1
  O  O10  1  0.41531523  0.02266518  0.80481531  1
  O  O11  1  0.91071793  0.02901001  0.80816571  1
  O  O12  1  0.40129676  0.96761108  0.69325263  1
  O  O13  1  0.89954302  0.97618193  0.69416604  1
  O  O14  1  0.08679965  0.20887242  0.69070452  1
  O  O15  1  0.59003843  0.20663971  0.69668648  1
  O  O16  1  0.01157949  0.81190509  0.69739560  1
  O  O17  1  0.51921262  0.84013618  0.69553783  1
  O  O18  1  0.39917754  0.82194378  0.19404514  1
  O  O19  1  0.90162295  0.83690150  0.19333798  1
  O  O20  1  0.01988796  0.20202049  0.19373125  1
  O  O21  1  0.51291554  0.20818167  0.19864302  1
  O  O22  1  0.08884085  0.97433740  0.19771010  1
  O  O23  1  0.58321298  0.96689241  0.19298401  1
  O  O24  1  0.44057668  0.35235925  0.63799560  1
  O  O25  1  0.94803629  0.38424398  0.64338584  1
  O  O26  1  0.24077310  0.12445275  0.64476117  1
  O  O27  1  0.73246177  0.11764334  0.63975691  1
  O  O28  1  0.32444099  0.53037186  0.63616321  1
  O  O29  1  0.81849451  0.51587592  0.63787255  1
  O  O30  1  0.44617625  0.52493524  0.14436481  1
  O  O31  1  0.93716755  0.52563431  0.13803062  1
  O  O32  1  0.31973189  0.12093916  0.13800753  1
  O  O33  1  0.82415985  0.11970661  0.13697481  1
  O  O34  1  0.23234964  0.34707721  0.13989399  1
  O  O35  1  0.73681039  0.35591959  0.13872433  1
  O  O36  1  0.23006029  0.31020181  0.03346392  1
  O  O37  1  0.73101848  0.31117070  0.03344922  1
  O  O38  1  0.42143848  0.53048370  0.02599884  1
  O  O39  1  0.92766057  0.54457335  0.03207397  1
  O  O40  1  0.34266463  0.14655380  0.03256657  1
  O  O41  1  0.84408758  0.14486458  0.03099028  1
  O  O42  1  0.23041513  0.16037513  0.52839731  1
  O  O43  1  0.72920016  0.14862481  0.53318710  1
  O  O44  1  0.34726202  0.54925904  0.53017633  1
  O  O45  1  0.84327653  0.53586370  0.53259826  1
  O  O46  1  0.42916742  0.31175461  0.53177095  1
  O  O47  1  0.91728758  0.31256353  0.52933790  1
  O  O48  1  0.27499001  0.69291802  0.96988272  1
  O  O49  1  0.76887658  0.70577717  0.97356809  1
  O  O50  1  0.08132607  0.45615528  0.97597253  1
  O  O51  1  0.57956109  0.46410147  0.97121299  1
  O  O52  1  0.14675684  0.84145966  0.97298341  1
  O  O53  1  0.64812617  0.83259361  0.97157141  1
  O  O54  1  0.26934942  0.83303784  0.47189441  1
  O  O55  1  0.77413123  0.85620451  0.47024645  1
  O  O56  1  0.15355866  0.45857948  0.47711895  1
  O  O57  1  0.64712418  0.45307409  0.47298580  1
  O  O58  1  0.07901324  0.70101213  0.47204901  1
  O  O59  1  0.58072748  0.70838831  0.47582198  1
  O  O60  1  0.06258858  0.64039820  0.35573054  1
  O  O61  1  0.56278922  0.63199402  0.35962876  1
  O  O62  1  0.24909536  0.87517420  0.36080382  1
  O  O63  1  0.76064980  0.87844905  0.36378301  1
  O  O64  1  0.18427229  0.49341330  0.36107683  1
  O  O65  1  0.68243505  0.48956355  0.35714479  1
  O  O66  1  0.06180998  0.49401258  0.85985161  1
  O  O67  1  0.56094262  0.48993449  0.85649968  1
  O  O68  1  0.18252678  0.87584330  0.85741457  1
  O  O69  1  0.68597219  0.88221971  0.85858614  1
  O  O70  1  0.26120195  0.64309539  0.86372154  1
  O  O71  1  0.75184816  0.63240127  0.86029193  1
  O  O72  1  0.01350784  0.83943696  0.40888067  1
  O  O73  1  0.50360277  0.82593786  0.41168177  1
  O  O74  1  0.40795978  0.98454814  0.40867270  1
  O  O75  1  0.89844646  0.98068167  0.41057115  1
  O  O76  1  0.08591105  0.17883440  0.41007237  1
  O  O77  1  0.57938986  0.19093455  0.40766419  1
  O  O78  1  0.00310939  0.18199945  0.91207572  1
  O  O79  1  0.50804519  0.18213767  0.90992051  1
  O  O80  1  0.07977962  0.96950692  0.90757129  1
  O  O81  1  0.57887654  0.96963254  0.91040294  1
  O  O82  1  0.40018965  0.81499258  0.91003931  1
  O  O83  1  0.90697973  0.83130862  0.90925749  1
  O  O84  1  0.48899171  0.17580377  0.58922938  1
  O  O85  1  0.98998765  0.16466257  0.58597837  1
  O  O86  1  0.08848145  0.00896744  0.59012660  1
  O  O87  1  0.59956774  0.02582227  0.58806158  1
  O  O88  1  0.41327760  0.80342127  0.58701682  1
  O  O89  1  0.91323895  0.78646530  0.58950358  1
  O  O90  1  0.48877090  0.81594633  0.08505268  1
  O  O91  1  0.98790611  0.80004636  0.08952365  1
  O  O92  1  0.41351676  0.03545637  0.08966905  1
  O  O93  1  0.91373624  0.02801393  0.08712504  1
  O  O94  1  0.09968257  0.17289670  0.08757419  1
  O  O95  1  0.60053228  0.18350800  0.08853292  1
  O  O96  1  0.34566146  0.16594797  0.74842299  1
  O  O97  1  0.84031148  0.16899474  0.74662203  1
  O  O98  1  0.24152004  0.32425999  0.74695867  1
  O  O99  1  0.72907247  0.30586299  0.74275515  1
  O  O100  1  0.41562989  0.52287212  0.74250217  1
  O  O101  1  0.92403306  0.53600085  0.74671020  1
  O  O102  1  0.33997255  0.51103095  0.24714656  1
  O  O103  1  0.84311536  0.52245356  0.24410374  1
  O  O104  1  0.42467365  0.31158014  0.24632774  1
  O  O105  1  0.91640792  0.30842575  0.24426672  1
  O  O106  1  0.22886983  0.15216985  0.24283183  1
  O  O107  1  0.74083085  0.16343255  0.24343891  1
  O  O108  1  0.32281611  0.51317787  0.92187386  1
  O  O109  1  0.82664741  0.50438656  0.92695352  1
  O  O110  1  0.42751317  0.36364301  0.92406766  1
  O  O111  1  0.92717462  0.35929745  0.92727224  1
  O  O112  1  0.25018648  0.15383511  0.92461584  1
  O  O113  1  0.75200048  0.14308247  0.92750023  1
  O  O114  1  0.32346486  0.14692508  0.42578111  1
  O  O115  1  0.81984069  0.12897039  0.42226997  1
  O  O116  1  0.25299151  0.35915220  0.42488650  1
  O  O117  1  0.74909812  0.34481814  0.42429909  1
  O  O118  1  0.42713081  0.49519595  0.42584982  1
  O  O119  1  0.92484034  0.49682587  0.42377884  1
  O  O120  1  0.17698385  0.48372719  0.07903056  1
  O  O121  1  0.68092475  0.48989056  0.07731994  1
  O  O122  1  0.06566890  0.64745781  0.08123727  1
  O  O123  1  0.57842226  0.65111002  0.07769040  1
  O  O124  1  0.25918506  0.86728214  0.07826554  1
  O  O125  1  0.75931253  0.86826218  0.07792533  1
  O  O126  1  0.17333586  0.84522981  0.57833602  1
  O  O127  1  0.67722733  0.87006061  0.57913958  1
  O  O128  1  0.25812229  0.64449792  0.57723783  1
  O  O129  1  0.75876581  0.64946003  0.57745199  1
  O  O130  1  0.07768162  0.49948826  0.57665778  1
  O  O131  1  0.56781208  0.48418060  0.58033255  1
  O  O132  1  0.14860481  0.84187200  0.25382454  1
  O  O133  1  0.65291627  0.82470847  0.25628418  1
  O  O134  1  0.25615394  0.68207326  0.25446714  1
  O  O135  1  0.75940990  0.69556994  0.25485073  1
  O  O136  1  0.08611734  0.48469819  0.25414046  1
  O  O137  1  0.57859410  0.46224093  0.25505965  1
  O  O138  1  0.15130990  0.48181802  0.75685256  1
  O  O139  1  0.64847129  0.45493394  0.75460336  1
  O  O140  1  0.07823259  0.69444820  0.75487521  1
  O  O141  1  0.58576084  0.68675706  0.75410890  1
  O  O142  1  0.25914130  0.82279659  0.75479115  1
  O  O143  1  0.75560662  0.83031483  0.75390639  1
loop_
_geom_bond_atom_site_label_1
_geom_bond_atom_site_label_2
_geom_bond_distance
_geom_bond_site_symmetry_2
Na0 O105 2.371116 1_555
Na0 O107 2.394787 1_555
Na0 O135 2.533367 1_545
Na0 O133 2.600234 1_545
Na0 O33 2.689287 1_555
Na0 O63 2.898557 1_545
Na0 O19 2.978386 1_545
Na0 O5 2.993457 1_555
Na1 O102 2.386707 1_555
Na1 O134 2.421337 1_555
Na1 O106 2.491093 1_555
Na1 O136 2.506624 1_555
Na1 O34 2.614086 1_555
Na1 O64 2.852557 1_555
Na1 O20 2.900676 1_555
Na2 O107 2.397947 1_555
Na2 O103 2.403484 1_555
Na2 O137 2.618647 1_555
Na2 O135 2.648140 1_555
Na2 O65 2.706362 1_555
Na2 O35 2.737276 1_555
Na2 O1 2.843941 1_555
Na3 O103 2.390920 1_555
Na3 O105 2.403814 1_555
Na3 O136 2.518410 1_655
Na3 O132 2.554314 1_655
Na3 O60 2.652186 1_655
Na3 O31 2.759041 1_555
Na3 O3 2.945725 1_555
Na4 O102 2.434005 1_555
Na4 O30 2.474134 1_555
Na4 O133 2.524304 1_555
Na4 O104 2.557234 1_555
Na4 O137 2.704925 1_555
Na4 O23 2.867988 1_555
Na4 O61 2.922087 1_555
Na4 O2 2.937853 1_555
Na5 O98 2.336963 1_555
Na5 O100 2.345691 1_555
Na5 O142 2.556349 1_555
Na5 O138 2.645147 1_555
Na5 O28 2.700236 1_555
Na5 O70 2.895691 1_555
Na5 O12 3.001485 1_555
Na5 O8 3.002375 1_555
Na6 O97 2.428711 1_555
Na6 O138 2.491227 1_655
Na6 O101 2.563841 1_555
Na6 O25 2.564361 1_555
Na6 O140 2.705729 1_655
Na6 O14 2.884847 1_655
Na6 O66 2.887010 1_655
Na6 O11 2.910393 1_555
Na7 O96 2.344076 1_555
Na7 O100 2.377541 1_555
Na7 O141 2.494662 1_555
Na7 O139 2.570255 1_555
Na7 O67 2.682436 1_555
Na7 O24 2.721072 1_555
Na8 O96 2.394122 1_555
Na8 O98 2.408796 1_555
Na8 O26 2.509615 1_555
Na8 O142 2.652105 1_545
Na8 O140 2.669508 1_545
Na8 O68 2.822049 1_545
Na8 O6 2.922883 1_555
Na9 O143 2.402788 1_555
Na9 O97 2.409054 1_565
Na9 O141 2.488087 1_555
Na9 O99 2.514187 1_565
Na9 O27 2.641969 1_565
Na9 O69 2.761584 1_555
Na9 O17 2.886354 1_555
Na10 O130 2.482896 1_555
Na10 O85 2.489952 1_455
Na10 O86 2.533630 1_555
Na10 O128 2.562206 1_555
Na10 O56 2.657287 1_555
Na10 O14 2.728453 1_555
Na10 O42 2.869668 1_555
Na11 O89 2.415285 1_455
Na11 O126 2.469656 1_555
Na11 O86 2.495656 1_565
Na11 O130 2.516423 1_555
Na11 O58 2.782399 1_555
Na11 O25 2.795513 1_455
Na11 O16 2.836729 1_555
Na11 O45 2.957198 1_455
Na12 O110 2.384186 1_555
Na12 O81 2.424426 1_555
Na12 O82 2.584848 1_555
Na12 O108 2.603695 1_555
Na12 O38 2.755102 1_556
Na12 O53 2.790681 1_555
Na12 O8 2.806955 1_555
Na12 O67 2.884509 1_555
Na13 O80 2.337474 1_655
Na13 O111 2.517365 1_555
Na13 O83 2.574909 1_555
Na13 O109 2.606563 1_555
Na13 O52 2.707275 1_655
Na13 O39 2.822462 1_556
Na13 O9 2.880097 1_555
Na13 O66 2.891588 1_655
Na14 O78 2.421675 1_655
Na14 O83 2.469393 1_545
Na14 O113 2.496717 1_555
Na14 O111 2.649826 1_555
Na14 O11 2.657982 1_555
Na14 O69 2.855787 1_545
Na14 O49 2.864642 1_545
Na14 O41 2.912239 1_556
Na15 O77 2.338703 1_555
Na15 O118 2.498891 1_555
Na15 O74 2.582760 1_545
Na15 O114 2.661306 1_555
Na15 O57 2.710697 1_555
Na15 O46 2.808934 1_555
Na15 O4 2.857038 1_555
Na15 O61 2.887857 1_555
Na16 O72 2.394041 1_545
Na16 O76 2.458935 1_555
Na16 O114 2.529496 1_555
Na16 O116 2.643298 1_555
Na16 O42 2.771818 1_555
Na16 O58 2.813380 1_545
Na16 O62 2.849755 1_545
Na16 O0 2.875909 1_555
Na17 O73 2.410237 1_555
Na17 O116 2.480872 1_555
Na17 O74 2.514562 1_555
Na17 O118 2.601869 1_555
Na17 O2 2.648234 1_555
Na17 O64 2.859241 1_555
Na17 O44 2.890543 1_555
Na17 O54 2.895989 1_555
Na18 O85 2.497286 1_555
Na18 O76 2.608664 1_655
Na18 O86 2.640517 1_655
Na18 O75 2.645304 1_545
Na18 O72 2.663197 1_645
Na18 O89 2.724423 1_545
Na19 O77 2.489760 1_555
Na19 O73 2.494057 1_545
Na19 O87 2.616935 1_555
Na19 O74 2.658302 1_545
Na19 O84 2.775035 1_555
Na19 O88 2.793785 1_545
Na20 O78 2.497594 1_555
Na20 O80 2.503891 1_545
Na20 O94 2.614125 1_556
Na20 O83 2.644104 1_445
Na20 O93 2.786086 1_456
Na20 O91 2.786753 1_446
Na21 O90 2.545484 1_545
Na21 O79 2.573506 1_554
Na21 O81 2.609895 1_544
Na21 O95 2.618459 1_555
Na21 O92 2.686711 1_555
Na21 O82 2.754553 1_544
Na22 O96 2.407105 1_555
Na22 O98 2.473772 1_555
Na22 O112 2.625786 1_555
Na22 O100 2.643579 1_555
Na22 O110 2.715077 1_555
Na22 O108 2.812784 1_555
Na23 O97 2.490927 1_555
Na23 O101 2.611754 1_555
Na23 O99 2.654081 1_555
Na23 O109 2.721686 1_555
Na23 O113 2.738907 1_555
Na23 O111 2.753446 1_555
Na24 O102 2.436063 1_555
Na24 O104 2.588336 1_555
Na24 O118 2.678810 1_555
Na24 O116 2.706709 1_555
Na24 O106 2.709219 1_555
Na24 O114 2.744837 1_555
Na25 O103 2.532060 1_555
Na25 O107 2.569710 1_555
Na25 O105 2.605816 1_555
Na25 O117 2.630671 1_555
Na25 O119 2.646910 1_555
Na25 O115 2.773802 1_555
Na26 O124 2.535046 1_555
Na26 O120 2.548475 1_555
Na26 O134 2.572473 1_555
Na26 O122 2.616626 1_555
Na26 O136 2.691630 1_555
Na26 O132 2.805843 1_555
Na27 O123 2.422224 1_555
Na27 O133 2.595311 1_555
Na27 O125 2.642174 1_555
Na27 O135 2.680102 1_555
Na27 O121 2.696568 1_555
Na27 O137 2.730236 1_555
Na28 O126 2.483951 1_555
Na28 O142 2.550809 1_555
Na28 O130 2.587590 1_555
Na28 O128 2.660311 1_555
Na28 O138 2.668001 1_555
Na28 O140 2.716590 1_555
Na29 O127 2.546232 1_555
Na29 O143 2.558824 1_555
Na29 O129 2.574394 1_555
Na29 O131 2.608175 1_555
Na29 O141 2.666205 1_555
Na29 O139 2.821373 1_555
Hf0 O3 1.976715 1_555
Hf0 O5 1.981975 1_565
Hf0 O72 2.067679 1_655
Hf0 O76 2.095388 1_665
Hf0 O75 2.125518 1_555
Hf0 O0 2.218471 1_665
Hf1 O1 1.975830 1_565
Hf1 O73 1.991882 1_555
Hf1 O77 2.025401 1_565
Hf1 O2 2.049707 1_555
Hf1 O74 2.125708 1_555
Hf1 O4 2.262999 1_565
Hf2 O6 1.978367 1_555
Hf2 O78 1.996416 1_555
Hf2 O80 2.031534 1_545
Hf2 O11 2.047167 1_455
Hf2 O83 2.113429 1_445
Hf2 O9 2.262807 1_445
Hf3 O10 1.956670 1_555
Hf3 O79 2.025360 1_555
Hf3 O8 2.040243 1_545
Hf3 O81 2.085233 1_545
Hf3 O7 2.150486 1_555
Hf3 O82 2.176162 1_545
Hf4 O13 1.962512 1_545
Hf4 O14 1.991641 1_655
Hf4 O85 1.998277 1_555
Hf4 O86 2.114280 1_655
Hf4 O89 2.251396 1_545
Hf4 O16 2.299014 1_645
Hf5 O17 1.940978 1_555
Hf5 O12 1.951669 1_555
Hf5 O15 2.133046 1_565
Hf5 O88 2.148311 1_555
Hf5 O87 2.195085 1_565
Hf5 O84 2.218684 1_565
Hf6 O20 1.942206 1_655
Hf6 O19 1.951163 1_545
Hf6 O93 2.135045 1_555
Hf6 O22 2.150618 1_645
Hf6 O94 2.194472 1_655
Hf6 O91 2.219241 1_545
Hf7 O18 1.937614 1_555
Hf7 O90 1.964269 1_555
Hf7 O23 1.968377 1_555
Hf7 O92 2.219410 1_565
Hf7 O95 2.314076 1_565
Hf7 O21 2.320138 1_565
Hf8 O112 2.013080 1_555
Hf8 O38 2.017257 1_556
Hf8 O110 2.018614 1_555
Hf8 O40 2.057625 1_556
Hf8 O36 2.194864 1_556
Hf8 O108 2.290247 1_555
Hf9 O109 1.964209 1_555
Hf9 O113 2.002515 1_555
Hf9 O111 2.008094 1_555
Hf9 O37 2.141939 1_556
Hf9 O39 2.185938 1_556
Hf9 O41 2.225078 1_556
Hf10 O114 2.002426 1_555
Hf10 O42 2.016353 1_555
Hf10 O116 2.036995 1_555
Hf10 O118 2.068525 1_555
Hf10 O46 2.186882 1_555
Hf10 O44 2.213848 1_555
Hf11 O119 1.990913 1_555
Hf11 O47 2.000590 1_555
Hf11 O117 2.011566 1_555
Hf11 O45 2.116696 1_555
Hf11 O115 2.203921 1_555
Hf11 O43 2.215510 1_555
Hf12 O51 1.941372 1_554
Hf12 O53 1.978815 1_554
Hf12 O123 2.027912 1_555
Hf12 O49 2.037082 1_554
Hf12 O121 2.251620 1_555
Hf12 O125 2.317680 1_555
Hf13 O58 1.977847 1_555
Hf13 O54 2.002571 1_555
Hf13 O56 2.051279 1_555
Hf13 O126 2.069169 1_555
Hf13 O130 2.093271 1_555
Hf13 O128 2.305430 1_555
Hf14 O64 1.988912 1_555
Hf14 O62 2.010982 1_555
Hf14 O60 2.043528 1_555
Hf14 O134 2.067988 1_555
Hf14 O136 2.113647 1_555
Hf14 O132 2.328365 1_555
Hf15 O65 1.978981 1_555
Hf15 O61 2.005208 1_555
Hf15 O135 2.113805 1_555
Hf15 O133 2.116301 1_555
Hf15 O63 2.141885 1_555
Hf15 O137 2.214486 1_555
Hf16 O68 1.973718 1_555
Hf16 O66 2.017973 1_555
Hf16 O138 2.103603 1_555
Hf16 O142 2.113707 1_555
Hf16 O70 2.141846 1_555
Hf16 O140 2.231442 1_555
Hf17 O71 1.984976 1_555
Hf17 O69 2.004201 1_555
Hf17 O67 2.061896 1_555
Hf17 O143 2.066233 1_555
Hf17 O141 2.131017 1_555
Hf17 O139 2.317659 1_555
O0 S0 1.500960 1_555
O1 Si0 1.629735 1_545
O2 Si1 1.634922 1_555
O3 Si2 1.635883 1_555
O4 S1 1.482248 1_555
O5 Si3 1.635945 1_655
O6 Si4 1.626980 1_555
O7 S2 1.497248 1_555
O8 Si5 1.644507 1_555
O9 S3 1.479670 1_555
O10 Si6 1.630878 1_545
O11 Si7 1.635463 1_545
O12 Si6 1.656302 1_555
O13 Si7 1.638528 1_555
O14 Si4 1.660315 1_555
O15 S2 1.496971 1_555
O16 S3 1.489423 1_455
O17 Si5 1.666089 1_555
O18 Si1 1.642477 1_555
O19 Si2 1.654715 1_555
O20 Si3 1.658045 1_555
O21 S1 1.481546 1_555
O22 S0 1.495341 1_565
O23 Si0 1.642725 1_555
O24 S4 1.465990 1_555
O24 Zn0 2.226546 1_555
O25 Si8 1.623684 1_555
O25 Zn1 1.918499 1_555
O26 Si9 1.598233 1_555
O26 Zn0 1.970267 1_555
O27 S5 1.491758 1_555
O27 Zn1 2.041681 1_555
O28 S6 1.449675 1_555
O28 Zn0 2.332478 1_555
O29 S7 1.466914 1_555
O29 Zn1 2.249373 1_555
O30 Si10 1.615980 1_555
O30 Zn2 1.894171 1_555
O31 S8 1.474221 1_555
O31 Zn3 2.177110 1_555
O32 S9 1.466453 1_555
O32 Zn2 2.218162 1_555
O33 S10 1.455851 1_555
O33 Zn3 2.245478 1_555
O34 S11 1.489731 1_555
O34 Zn2 2.067675 1_555
O35 S12 1.460825 1_555
O35 Zn3 2.211294 1_555
O36 S11 1.492728 1_555
O37 S12 1.502234 1_555
O38 Si10 1.650962 1_555
O39 S8 1.510037 1_555
O40 S9 1.518139 1_555
O41 S10 1.493520 1_555
O42 Si9 1.668613 1_555
O43 S5 1.488243 1_555
O44 S6 1.496117 1_555
O45 S7 1.513034 1_555
O46 S4 1.513649 1_555
O47 Si8 1.626387 1_555
O48 S13 1.447731 1_555
O48 Zn4 2.219841 1_556
O49 Si11 1.621677 1_555
O50 Si12 1.578856 1_555
O50 Zn4 1.894200 1_556
O51 Si13 1.626833 1_555
O52 Si14 1.598953 1_555
O52 Zn4 1.891575 1_556
O53 Si15 1.618179 1_555
O54 Si16 1.625609 1_555
O55 S14 1.443472 1_555
O55 Zn5 2.213340 1_555
O56 Si17 1.619275 1_555
O57 Si18 1.597695 1_555
O57 Zn5 1.890124 1_555
O58 Si19 1.650069 1_555
O59 Si20 1.581673 1_555
O59 Zn5 1.887990 1_555
O60 Si19 1.632887 1_555
O61 Si20 1.666913 1_555
O62 Si16 1.632654 1_555
O63 S14 1.506490 1_555
O64 Si17 1.646486 1_555
O65 Si18 1.672789 1_555
O66 Si12 1.663234 1_555
O67 Si13 1.644759 1_555
O68 Si14 1.670861 1_555
O69 Si15 1.646559 1_555
O70 S13 1.504317 1_555
O71 Si11 1.629539 1_555
O72 Si19 1.639093 1_555
O73 Si20 1.641111 1_555
O74 Si16 1.616090 1_555
O75 S14 1.500698 1_555
O76 Si17 1.626139 1_555
O77 Si18 1.646707 1_555
O78 Si12 1.637387 1_555
O79 Si13 1.622031 1_555
O80 Si14 1.647582 1_555
O81 Si15 1.620196 1_555
O82 S13 1.501353 1_555
O83 Si11 1.634531 1_555
O84 S4 1.513855 1_555
O85 Si8 1.658748 1_555
O86 Si9 1.676805 1_555
O87 S5 1.520308 1_555
O88 S6 1.502371 1_555
O89 S7 1.525370 1_555
O90 Si10 1.676506 1_555
O91 S8 1.511846 1_555
O92 S9 1.509324 1_555
O93 S10 1.516580 1_555
O94 S11 1.519576 1_555
O95 S12 1.490662 1_555
O96 Si6 1.606387 1_545
O96 Zn0 2.050862 1_555
O97 Si7 1.657195 1_545
O97 Zn1 2.062511 1_555
O98 Si4 1.606879 1_555
O98 Zn0 2.084607 1_555
O99 S2 1.457007 1_555
O99 Zn1 2.464166 1_555
O100 Si5 1.609747 1_555
O100 Zn0 2.112490 1_555
O101 S3 1.456083 1_555
O101 Zn1 2.422972 1_555
O102 Si1 1.652526 1_555
O102 Zn2 2.105689 1_555
O103 Si2 1.611369 1_555
O103 Zn3 2.030888 1_555
O104 S1 1.456552 1_555
O104 Zn2 2.411922 1_555
O105 Si3 1.609635 1_655
O105 Zn3 2.039372 1_555
O106 S0 1.459260 1_555
O106 Zn2 2.483033 1_555
O107 Si0 1.612825 1_545
O107 Zn3 2.022759 1_555
O108 S13 1.490765 1_555
O109 Si11 1.649551 1_555
O110 Si13 1.655216 1_555
O111 Si12 1.678319 1_655
O112 Si14 1.634881 1_545
O113 Si15 1.638743 1_545
O114 Si16 1.648186 1_545
O115 S14 1.487276 1_545
O116 Si17 1.660859 1_555
O117 Si18 1.632187 1_555
O118 Si20 1.666648 1_555
O119 Si19 1.626779 1_655
O120 S11 1.456330 1_555
O120 Zn4 2.449023 1_555
O121 S12 1.488385 1_555
O122 S8 1.463116 1_455
O122 Zn4 2.275010 1_555
O123 Si10 1.648761 1_555
O124 S9 1.466271 1_565
O124 Zn4 2.389545 1_555
O125 S10 1.481023 1_565
O126 Si9 1.647694 1_565
O127 S5 1.456904 1_565
O127 Zn5 2.444833 1_555
O128 S6 1.489719 1_555
O129 S7 1.457446 1_555
O129 Zn5 2.408110 1_555
O130 Si8 1.657053 1_455
O131 S4 1.469166 1_555
O131 Zn5 2.244229 1_555
O132 S0 1.483670 1_565
O133 Si0 1.651940 1_555
O134 Si1 1.639308 1_555
O135 Si2 1.647728 1_555
O136 Si3 1.639157 1_555
O137 S1 1.530848 1_555
O138 Si4 1.651482 1_555
O139 S2 1.481236 1_555
O140 S3 1.523735 1_455
O141 Si5 1.642876 1_555
O142 Si6 1.650419 1_555
O143 Si7 1.637967 1_555
