# generated using pymatgen
data_MgW2(SCl4)2
_symmetry_space_group_name_H-M   'P 1'
_cell_length_a   7.78924687
_cell_length_b   7.37509091
_cell_length_c   7.54972294
_cell_angle_alpha   79.56122090
_cell_angle_beta   102.64585268
_cell_angle_gamma   97.86452288
_symmetry_Int_Tables_number   1
_chemical_formula_structural   MgW2(SCl4)2
_chemical_formula_sum   'Mg1 W2 S2 Cl8'
_cell_volume   414.04045448
_cell_formula_units_Z   1
loop_
 _symmetry_equiv_pos_site_id
 _symmetry_equiv_pos_as_xyz
  1  'x, y, z'
loop_
 _atom_site_type_symbol
 _atom_site_label
 _atom_site_symmetry_multiplicity
 _atom_site_fract_x
 _atom_site_fract_y
 _atom_site_fract_z
 _atom_site_occupancy
  Mg  Mg0  1  0.81325700  0.06703600  0.79006100  1
  W  W0  1  0.80301100  0.14629500  0.24001400  1
  W  W1  1  0.20010500  0.85911800  0.75814500  1
  S  S0  1  0.76681900  0.35517700  0.00345400  1
  S  S1  1  0.25445000  0.67747600  0.00710800  1
  Cl  Cl0  1  0.83492000  0.88522000  0.10409300  1
  Cl  Cl1  1  0.53376000  0.99313100  0.27896700  1
  Cl  Cl2  1  0.10517500  0.15625300  0.35937000  1
  Cl  Cl3  1  0.78570200  0.29955700  0.49290900  1
  Cl  Cl4  1  0.22072500  0.68923200  0.53885600  1
  Cl  Cl5  1  0.88188400  0.80385200  0.66543000  1
  Cl  Cl6  1  0.47831200  0.02972700  0.72548400  1
  Cl  Cl7  1  0.13855200  0.13978300  0.84443900  1
loop_
_geom_bond_atom_site_label_1
_geom_bond_atom_site_label_2
_geom_bond_distance
_geom_bond_site_symmetry_2
Mg0 S0 2.991383 1_556
S0 W0 2.131608 1_555
S1 W1 2.097873 1_554
Cl0 W0 2.404325 1_565
Cl0 Mg0 2.486405 1_564
Cl1 W0 2.293979 1_565
Cl2 W0 2.324869 1_455
Cl3 W0 2.424382 1_555
Cl3 Mg0 2.552556 1_555
Cl4 W1 2.293403 1_555
Cl5 W1 2.422248 1_655
Cl5 Mg0 2.470746 1_565
Cl6 W1 2.390679 1_545
Cl6 Mg0 2.532854 1_555
Cl7 W1 2.415774 1_545
Cl7 Mg0 2.475658 1_455
