# generated using pymatgen
data_SrLaMgMn2O6
_symmetry_space_group_name_H-M   'P 1'
_cell_length_a   6.40452870
_cell_length_b   5.71995488
_cell_length_c   5.69867558
_cell_angle_alpha   120.64794422
_cell_angle_beta   111.27075753
_cell_angle_gamma   95.79384635
_symmetry_Int_Tables_number   1
_chemical_formula_structural   SrLaMgMn2O6
_chemical_formula_sum   'Sr1 La1 Mg1 Mn2 O6'
_cell_volume   156.36470572
_cell_formula_units_Z   1
loop_
 _symmetry_equiv_pos_site_id
 _symmetry_equiv_pos_as_xyz
  1  'x, y, z'
loop_
 _atom_site_type_symbol
 _atom_site_label
 _atom_site_symmetry_multiplicity
 _atom_site_fract_x
 _atom_site_fract_y
 _atom_site_fract_z
 _atom_site_occupancy
  Sr  Sr0  1  0.38626854  0.81308729  0.61771825  1
  La  La0  1  0.75977379  0.27631728  0.45450911  1
  Mg  Mg0  1  0.86218504  0.61896904  0.15887933  1
  Mn  Mn0  1  0.04749700  0.02990444  0.00970246  1
  Mn  Mn1  1  0.32268740  0.48156224  0.91476066  1
  O  O0  1  0.12260921  0.27607509  0.44395961  1
  O  O1  1  0.12424143  0.72436519  0.07920690  1
  O  O2  1  0.40032089  0.27843959  0.12540662  1
  O  O3  1  0.95705646  0.74974337  0.58088913  1
  O  O4  1  0.62333272  0.76918165  0.02353868  1
  O  O5  1  0.78777753  0.19485482  0.87118924  1
loop_
_geom_bond_atom_site_label_1
_geom_bond_atom_site_label_2
_geom_bond_distance
_geom_bond_site_symmetry_2
La0 O0 2.346389 1_655
La0 O2 2.390295 1_555
La0 O4 2.424401 1_545
La0 O3 2.471612 1_555
La0 O5 2.592986 1_555
La0 O1 2.855059 1_656
Mg0 O3 1.930350 1_555
Mg0 O4 1.938591 1_555
Mg0 O5 1.986173 1_554
Mg0 O1 2.003520 1_655
Mn0 O3 1.915260 1_444
Mn0 O0 1.945534 1_555
Mn0 O1 2.047129 1_545
Mn0 O5 2.098482 1_454
Mn0 O2 2.208300 1_555
Mn1 O2 2.035581 1_556
Mn1 O0 2.051383 1_555
Mn1 O4 2.062292 1_556
Mn1 O1 2.077494 1_556
O0 Sr0 2.811729 1_555
O1 Sr0 2.644813 1_555
O2 Sr0 2.715689 1_544
O2 Sr0 2.953461 1_555
O3 Sr0 2.652277 1_655
O4 Sr0 2.416213 1_554
O5 Sr0 2.534351 1_545
