# generated using pymatgen
data_Li9V3P8O29
_symmetry_space_group_name_H-M   'P 1'
_cell_length_a   9.88202638
_cell_length_b   9.88202638
_cell_length_c   13.81282700
_cell_angle_alpha   90.00000000
_cell_angle_beta   90.00000000
_cell_angle_gamma   120.00000257
_symmetry_Int_Tables_number   1
_chemical_formula_structural   Li9V3P8O29
_chemical_formula_sum   'Li18 V6 P16 O58'
_cell_volume   1168.16774655
_cell_formula_units_Z   2
loop_
 _symmetry_equiv_pos_site_id
 _symmetry_equiv_pos_as_xyz
  1  'x, y, z'
loop_
 _atom_site_type_symbol
 _atom_site_label
 _atom_site_symmetry_multiplicity
 _atom_site_fract_x
 _atom_site_fract_y
 _atom_site_fract_z
 _atom_site_occupancy
  Li  Li0  1  0.00000000  0.00000000  0.00000000  1
  Li  Li1  1  0.00000000  0.00000000  0.50000000  1
  Li  Li2  1  0.66666700  0.33333300  0.88118900  1
  Li  Li3  1  0.66666700  0.33333300  0.38118900  1
  Li  Li4  1  0.33333300  0.66666700  0.11881100  1
  Li  Li5  1  0.33333300  0.66666700  0.61881100  1
  Li  Li6  1  0.23528500  0.89986100  0.93671400  1
  Li  Li7  1  0.66457600  0.76471500  0.93671400  1
  Li  Li8  1  0.10013900  0.33542400  0.93671400  1
  Li  Li9  1  0.23528500  0.33542400  0.43671400  1
  Li  Li10  1  0.10013900  0.76471500  0.43671400  1
  Li  Li11  1  0.66457600  0.89986100  0.43671400  1
  Li  Li12  1  0.76471500  0.10013900  0.06328600  1
  Li  Li13  1  0.33542400  0.23528500  0.06328600  1
  Li  Li14  1  0.89986100  0.66457600  0.06328600  1
  Li  Li15  1  0.76471500  0.66457600  0.56328600  1
  Li  Li16  1  0.89986100  0.23528500  0.56328600  1
  Li  Li17  1  0.33542400  0.10013900  0.56328600  1
  V  V0  1  0.56671400  0.56671400  0.75000000  1
  V  V1  1  0.00000000  0.43328600  0.75000000  1
  V  V2  1  0.43328600  0.00000000  0.75000000  1
  V  V3  1  0.56671400  0.00000000  0.25000000  1
  V  V4  1  0.43328600  0.43328600  0.25000000  1
  V  V5  1  0.00000000  0.56671400  0.25000000  1
  P  P0  1  0.33333300  0.66666700  0.87494200  1
  P  P1  1  0.33333300  0.66666700  0.37494200  1
  P  P2  1  0.66666700  0.33333300  0.12505800  1
  P  P3  1  0.66666700  0.33333300  0.62505800  1
  P  P4  1  0.91127200  0.68422700  0.84455900  1
  P  P5  1  0.77295500  0.08872800  0.84455900  1
  P  P6  1  0.31577300  0.22704500  0.84455900  1
  P  P7  1  0.91127200  0.22704500  0.34455900  1
  P  P8  1  0.31577300  0.08872800  0.34455900  1
  P  P9  1  0.77295500  0.68422700  0.34455900  1
  P  P10  1  0.08872800  0.31577300  0.15544100  1
  P  P11  1  0.22704500  0.91127200  0.15544100  1
  P  P12  1  0.68422700  0.77295500  0.15544100  1
  P  P13  1  0.08872800  0.77295500  0.65544100  1
  P  P14  1  0.68422700  0.91127200  0.65544100  1
  P  P15  1  0.22704500  0.31577300  0.65544100  1
  O  O0  1  0.33333300  0.66666700  0.98443700  1
  O  O1  1  0.33333300  0.66666700  0.48443700  1
  O  O2  1  0.66666700  0.33333300  0.01556300  1
  O  O3  1  0.66666700  0.33333300  0.51556300  1
  O  O4  1  0.00000000  0.78634100  0.75000000  1
  O  O5  1  0.78634100  0.00000000  0.75000000  1
  O  O6  1  0.21365900  0.21365900  0.75000000  1
  O  O7  1  0.00000000  0.21365900  0.25000000  1
  O  O8  1  0.21365900  0.00000000  0.25000000  1
  O  O9  1  0.78634100  0.78634100  0.25000000  1
  O  O10  1  0.32377000  0.81044400  0.83639000  1
  O  O11  1  0.48667400  0.67623000  0.83639000  1
  O  O12  1  0.18955600  0.51332600  0.83639000  1
  O  O13  1  0.32377000  0.51332600  0.33639000  1
  O  O14  1  0.18955600  0.67623000  0.33639000  1
  O  O15  1  0.48667400  0.81044400  0.33639000  1
  O  O16  1  0.67623000  0.18955600  0.16361000  1
  O  O17  1  0.51332600  0.32377000  0.16361000  1
  O  O18  1  0.81044400  0.48667400  0.16361000  1
  O  O19  1  0.67623000  0.48667400  0.66361000  1
  O  O20  1  0.81044400  0.32377000  0.66361000  1
  O  O21  1  0.51332600  0.18955600  0.66361000  1
  O  O22  1  0.89236400  0.52049300  0.83413900  1
  O  O23  1  0.62812900  0.10763600  0.83413900  1
  O  O24  1  0.47950700  0.37187100  0.83413900  1
  O  O25  1  0.89236400  0.37187100  0.33413900  1
  O  O26  1  0.47950700  0.10763600  0.33413900  1
  O  O27  1  0.62812900  0.52049300  0.33413900  1
  O  O28  1  0.10763600  0.47950700  0.16586100  1
  O  O29  1  0.37187100  0.89236400  0.16586100  1
  O  O30  1  0.52049300  0.62812900  0.16586100  1
  O  O31  1  0.10763600  0.62812900  0.66586100  1
  O  O32  1  0.52049300  0.89236400  0.66586100  1
  O  O33  1  0.37187100  0.47950700  0.66586100  1
  O  O34  1  0.74999700  0.67137100  0.84534700  1
  O  O35  1  0.92137400  0.25000300  0.84534700  1
  O  O36  1  0.32862900  0.07862600  0.84534700  1
  O  O37  1  0.74999700  0.07862600  0.34534700  1
  O  O38  1  0.32862900  0.25000300  0.34534700  1
  O  O39  1  0.92137400  0.67137100  0.34534700  1
  O  O40  1  0.25000300  0.32862900  0.15465300  1
  O  O41  1  0.07862600  0.74999700  0.15465300  1
  O  O42  1  0.67137100  0.92137400  0.15465300  1
  O  O43  1  0.25000300  0.92137400  0.65465300  1
  O  O44  1  0.67137100  0.74999700  0.65465300  1
  O  O45  1  0.07862600  0.32862900  0.65465300  1
  O  O46  1  0.00500900  0.77444200  0.93302300  1
  O  O47  1  0.76943300  0.99499100  0.93302300  1
  O  O48  1  0.22555800  0.23056700  0.93302300  1
  O  O49  1  0.00500900  0.23056700  0.43302300  1
  O  O50  1  0.22555800  0.99499100  0.43302300  1
  O  O51  1  0.76943300  0.77444200  0.43302300  1
  O  O52  1  0.99499100  0.22555800  0.06697700  1
  O  O53  1  0.23056700  0.00500900  0.06697700  1
  O  O54  1  0.77444200  0.76943300  0.06697700  1
  O  O55  1  0.99499100  0.76943300  0.56697700  1
  O  O56  1  0.77444200  0.00500900  0.56697700  1
  O  O57  1  0.23056700  0.22555800  0.56697700  1
loop_
_geom_bond_atom_site_label_1
_geom_bond_atom_site_label_2
_geom_bond_distance
_geom_bond_site_symmetry_2
Li0 O48 2.436591 1_554
Li0 O54 2.436591 1_445
Li0 O47 2.436591 1_444
Li0 O53 2.436591 1_555
Li0 O46 2.436591 1_544
Li0 O52 2.436591 1_455
Li1 O57 2.436591 1_555
Li1 O51 2.436591 1_445
Li1 O55 2.436591 1_445
Li1 O49 2.436591 1_555
Li1 O56 2.436591 1_455
Li1 O50 2.436591 1_545
Li2 O2 1.856085 1_556
Li2 O23 2.166204 1_555
Li2 O22 2.166207 1_555
Li2 O24 2.166213 1_555
Li3 O3 1.856085 1_555
Li3 O25 2.166204 1_555
Li3 O26 2.166207 1_555
Li3 O27 2.166213 1_555
Li4 O0 1.856085 1_554
Li4 O29 2.166204 1_555
Li4 O28 2.166207 1_555
Li4 O30 2.166213 1_555
Li5 O1 1.856085 1_555
Li5 O31 2.166204 1_555
Li5 O32 2.166207 1_555
Li5 O33 2.166213 1_555
Li6 O46 1.973997 1_555
Li6 O36 1.983638 1_565
Li6 O10 2.058726 1_555
Li6 O53 2.089923 1_566
Li7 O47 1.973997 1_555
Li7 O34 1.983638 1_555
Li7 O11 2.058726 1_555
Li7 O54 2.089923 1_556
Li8 O48 1.973997 1_555
Li8 O35 1.983638 1_455
Li8 O12 2.058726 1_555
Li8 O52 2.089923 1_456
Li9 O49 1.973997 1_555
Li9 O38 1.983638 1_555
Li9 O13 2.058726 1_555
Li9 O57 2.089923 1_555
Li10 O50 1.973997 1_555
Li10 O39 1.983638 1_455
Li10 O14 2.058726 1_555
Li10 O55 2.089923 1_455
Li11 O51 1.973997 1_555
Li11 O37 1.983638 1_565
Li11 O15 2.058726 1_555
Li11 O56 2.089923 1_565
Li12 O52 1.973997 1_555
Li12 O42 1.983638 1_545
Li12 O16 2.058726 1_555
Li12 O47 2.089923 1_544
Li13 O53 1.973997 1_555
Li13 O40 1.983638 1_555
Li13 O17 2.058726 1_555
Li13 O48 2.089923 1_554
Li14 O54 1.973997 1_555
Li14 O41 1.983638 1_655
Li14 O18 2.058726 1_555
Li14 O46 2.089923 1_654
Li15 O55 1.973997 1_555
Li15 O44 1.983638 1_555
Li15 O19 2.058726 1_555
Li15 O51 2.089923 1_555
Li16 O56 1.973997 1_555
Li16 O45 1.983638 1_655
Li16 O20 2.058726 1_555
Li16 O49 2.089923 1_655
Li17 O57 1.973997 1_555
Li17 O43 1.983638 1_545
Li17 O21 2.058726 1_555
Li17 O50 2.089923 1_545
O0 P0 1.512435 1_555
O1 P1 1.512435 1_555
O2 P2 1.512435 1_555
O3 P3 1.512435 1_555
O4 P4 1.615008 1_455
O4 P13 1.615008 1_555
O5 P14 1.615008 1_545
O5 P5 1.615008 1_555
O6 P15 1.615008 1_555
O6 P6 1.615008 1_555
O7 P10 1.615008 1_555
O7 P7 1.615008 1_455
O8 P8 1.615008 1_555
O8 P11 1.615008 1_545
O9 P12 1.615008 1_555
O9 P9 1.615008 1_555
O10 P0 1.563798 1_555
O10 V2 2.019110 1_565
O11 P0 1.563807 1_555
O11 V0 2.019110 1_555
O12 P0 1.563803 1_555
O12 V1 2.019110 1_555
O13 P1 1.563807 1_555
O13 V4 2.019110 1_555
O14 P1 1.563798 1_555
O14 V5 2.019110 1_555
O15 P1 1.563803 1_555
O15 V3 2.019110 1_565
O16 P2 1.563798 1_555
O16 V3 2.019110 1_555
O17 P2 1.563807 1_555
O17 V4 2.019110 1_555
O18 P2 1.563803 1_555
O18 V5 2.019110 1_655
O19 P3 1.563807 1_555
O19 V0 2.019110 1_555
O20 P3 1.563798 1_555
O20 V1 2.019110 1_655
O21 P3 1.563803 1_555
O21 V2 2.019110 1_555
O22 P4 1.539903 1_555
O22 V1 2.035041 1_655
O23 P5 1.539903 1_555
O23 V2 2.035041 1_555
O24 P6 1.539903 1_555
O24 V0 2.035041 1_555
O25 P7 1.539903 1_555
O25 V5 2.035041 1_655
O26 P8 1.539903 1_555
O26 V3 2.035041 1_555
O27 P9 1.539903 1_555
O27 V4 2.035041 1_555
O28 P10 1.539903 1_555
O28 V5 2.035041 1_555
O29 P11 1.539903 1_555
O29 V3 2.035041 1_565
O30 P12 1.539903 1_555
O30 V4 2.035041 1_555
O31 P13 1.539903 1_555
O31 V1 2.035041 1_555
O32 P14 1.539903 1_555
O32 V2 2.035041 1_565
O33 P15 1.539903 1_555
O33 V0 2.035041 1_555
O34 P4 1.534191 1_555
O34 V0 2.052174 1_555
O35 P5 1.534191 1_555
O35 V1 2.052174 1_655
O36 P6 1.534191 1_555
O36 V2 2.052174 1_555
O37 P7 1.534191 1_555
O37 V3 2.052174 1_555
O38 P8 1.534191 1_555
O38 V4 2.052174 1_555
O39 P9 1.534191 1_555
O39 V5 2.052174 1_655
O40 P10 1.534191 1_555
O40 V4 2.052174 1_555
O41 P11 1.534191 1_555
O41 V5 2.052174 1_555
O42 P12 1.534191 1_555
O42 V3 2.052174 1_565
O43 P13 1.534191 1_555
O43 V2 2.052174 1_565
O44 P14 1.534191 1_555
O44 V0 2.052174 1_555
O45 P15 1.534191 1_555
O45 V1 2.052174 1_555
O46 P4 1.523206 1_455
O47 P5 1.523206 1_565
O48 P6 1.523206 1_555
O49 P7 1.523206 1_455
O50 P8 1.523206 1_565
O51 P9 1.523206 1_555
O52 P10 1.523206 1_655
O53 P11 1.523206 1_545
O54 P12 1.523206 1_555
O55 P13 1.523206 1_655
O56 P14 1.523206 1_545
O57 P15 1.523206 1_555
