# generated using pymatgen
data_Na5Ca2Al2P3(SO8)3
_symmetry_space_group_name_H-M   'P 1'
_cell_length_a   9.05953950
_cell_length_b   9.05793483
_cell_length_c   22.02702835
_cell_angle_alpha   91.96312246
_cell_angle_beta   90.30318740
_cell_angle_gamma   120.43330242
_symmetry_Int_Tables_number   1
_chemical_formula_structural   Na5Ca2Al2P3(SO8)3
_chemical_formula_sum   'Na15 Ca6 Al6 P9 S9 O72'
_cell_volume   1557.05535616
_cell_formula_units_Z   3
loop_
 _symmetry_equiv_pos_site_id
 _symmetry_equiv_pos_as_xyz
  1  'x, y, z'
loop_
 _atom_site_type_symbol
 _atom_site_label
 _atom_site_symmetry_multiplicity
 _atom_site_fract_x
 _atom_site_fract_y
 _atom_site_fract_z
 _atom_site_occupancy
  Na  Na0  1  0.65842178  0.02003066  0.25440843  1
  Na  Na1  1  0.99798570  0.63322828  0.24306342  1
  Na  Na2  1  0.64880277  0.64534554  0.74414724  1
  Na  Na3  1  0.98766933  0.34934369  0.74872213  1
  Na  Na4  1  0.32001869  0.34933006  0.58702530  1
  Na  Na5  1  0.66107051  0.96588842  0.57595638  1
  Na  Na6  1  0.31006669  0.96706522  0.07939544  1
  Na  Na7  1  0.68968373  0.01712775  0.91181752  1
  Na  Na8  1  0.97504720  0.30172067  0.41203655  1
  Na  Na9  1  0.97740928  0.95884435  0.49939780  1
  Na  Na10  1  0.00635232  0.98534789  0.00124340  1
  Na  Na11  1  0.62038783  0.30396111  0.83406311  1
  Na  Na12  1  0.62342363  0.31322312  0.33584545  1
  Na  Na13  1  0.30939781  0.62467728  0.16577827  1
  Na  Na14  1  0.31678516  0.67102369  0.66640417  1
  Ca  Ca0  1  0.00436000  0.00121095  0.35240287  1
  Ca  Ca1  1  0.02168405  0.00992068  0.85575554  1
  Ca  Ca2  1  0.66374823  0.33031133  0.68498318  1
  Ca  Ca3  1  0.66871738  0.33415163  0.18277353  1
  Ca  Ca4  1  0.32439963  0.66021712  0.01948294  1
  Ca  Ca5  1  0.33456155  0.66749979  0.51551312  1
  Al  Al0  1  0.97995559  0.00857281  0.64913885  1
  Al  Al1  1  0.00665886  0.99531878  0.15293684  1
  Al  Al2  1  0.66899810  0.35251169  0.98114927  1
  Al  Al3  1  0.67150830  0.32722892  0.48744966  1
  Al  Al4  1  0.33292004  0.67881383  0.31336892  1
  Al  Al5  1  0.34945264  0.68874306  0.81188063  1
  P  P0  1  0.29274761  0.98139850  0.24971837  1
  P  P1  1  0.02522839  0.30287821  0.25218414  1
  P  P2  1  0.28458427  0.31132295  0.74901675  1
  P  P3  1  0.69513152  0.98481730  0.75339574  1
  P  P4  1  0.95926518  0.31606265  0.58550324  1
  P  P5  1  0.69060562  0.63707007  0.58532421  1
  P  P6  1  0.94863218  0.64425142  0.08677900  1
  P  P7  1  0.36217690  0.97815137  0.92281230  1
  P  P8  1  0.61885021  0.97936296  0.41893800  1
  S  S0  1  0.69108414  0.71369118  0.24854416  1
  S  S1  1  0.02572049  0.71883676  0.74923720  1
  S  S2  1  0.35758569  0.04610008  0.57986192  1
  S  S3  1  0.69497607  0.04448168  0.08183177  1
  S  S4  1  0.36250834  0.31522690  0.08142328  1
  S  S5  1  0.61811181  0.64658711  0.91470909  1
  S  S6  1  0.01418354  0.37855861  0.91367952  1
  S  S7  1  0.36022979  0.38510065  0.41665173  1
  S  S8  1  0.02323889  0.64695948  0.41419358  1
  O  O0  1  0.21245316  0.00220917  0.30613709  1
  O  O1  1  0.78613794  0.78419471  0.30565764  1
  O  O2  1  0.98300253  0.20714788  0.31093138  1
  O  O3  1  0.20712288  0.20891273  0.80371119  1
  O  O4  1  0.99381241  0.78590704  0.80523446  1
  O  O5  1  0.79304837  -0.00013987  0.81120402  1
  O  O6  1  0.78861960  0.95872283  0.69608258  1
  O  O7  1  0.16493516  0.21149856  0.69001733  1
  O  O8  1  0.03821353  0.82009230  0.69601169  1
  O  O9  1  0.78793204  0.82671687  0.19715903  1
  O  O10  1  0.04024414  0.19141436  0.19846252  1
  O  O11  1  0.17824874  0.95904058  0.19115947  1
  O  O12  1  0.88940195  0.33748076  0.64515773  1
  O  O13  1  0.45160299  0.11398540  0.63756309  1
  O  O14  1  0.65223870  0.54236803  0.64411772  1
  O  O15  1  0.88548218  0.56099373  0.14697184  1
  O  O16  1  0.66703111  0.11536349  0.13874555  1
  O  O17  1  0.45360806  0.33781471  0.13860793  1
  O  O18  1  0.45927482  0.29721785  0.02858019  1
  O  O19  1  0.82263150  0.53170705  0.03229391  1
  O  O20  1  0.70312096  0.14861856  0.02916520  1
  O  O21  1  0.45999141  0.16011200  0.52918670  1
  O  O22  1  0.70327965  0.52496054  0.53139501  1
  O  O23  1  0.83879760  0.29581160  0.52950951  1
  O  O24  1  0.53888019  0.67190372  0.96799695  1
  O  O25  1  0.11705480  0.45594776  0.96848047  1
  O  O26  1  0.35137953  0.89149293  0.98144977  1
  O  O27  1  0.54862735  0.89020172  0.47769075  1
  O  O28  1  0.33825889  0.44907682  0.47599671  1
  O  O29  1  0.12149503  0.66801944  0.46942545  1
  O  O30  1  0.11548173  0.63093651  0.35899535  1
  O  O31  1  0.50011110  0.87241471  0.36132249  1
  O  O32  1  0.36602996  0.49543349  0.36655212  1
  O  O33  1  0.10076304  0.46953531  0.85796508  1
  O  O34  1  0.38656177  0.87118841  0.86732649  1
  O  O35  1  0.51461472  0.62707732  0.85734250  1
  O  O36  1  0.98985591  0.78808866  0.41064640  1
  O  O37  1  0.80294315  0.01417486  0.41236960  1
  O  O38  1  0.20956351  0.21072849  0.40976689  1
  O  O39  1  0.97252632  0.19756037  0.91058255  1
  O  O40  1  0.21299494  0.00767452  0.91596343  1
  O  O41  1  0.79305366  0.79665613  0.91143339  1
  O  O42  1  0.95629780  0.13793183  0.58702042  1
  O  O43  1  0.19299803  0.04625746  0.58082527  1
  O  O44  1  0.86005944  0.81754853  0.59215411  1
  O  O45  1  0.96198737  0.82608347  0.09076727  1
  O  O46  1  0.85828651  0.04176812  0.08633947  1
  O  O47  1  0.19466103  0.14741045  0.08229101  1
  O  O48  1  0.67452103  0.14112254  0.74820932  1
  O  O49  1  0.47055529  0.35485724  0.74295498  1
  O  O50  1  0.88188330  0.53889780  0.74221463  1
  O  O51  1  0.65822382  0.53860725  0.24081945  1
  O  O52  1  0.87698253  0.33764367  0.24103017  1
  O  O53  1  0.47993083  0.12622873  0.24520232  1
  O  O54  1  0.62678070  0.48561765  0.91934923  1
  O  O55  1  0.84672933  0.37719237  0.91844763  1
  O  O56  1  0.53566083  0.15960747  0.92620514  1
  O  O57  1  0.63028179  0.16081167  0.42407466  1
  O  O58  1  0.52129596  0.37830636  0.41892280  1
  O  O59  1  0.85653842  0.47892133  0.41586768  1
  O  O60  1  0.32993278  0.45656093  0.07547128  1
  O  O61  1  0.13179050  0.67784652  0.07827733  1
  O  O62  1  0.54701177  0.86760102  0.07602823  1
  O  O63  1  0.32626314  0.87110696  0.57258775  1
  O  O64  1  0.54162042  0.67219542  0.57546646  1
  O  O65  1  0.14527476  0.46018167  0.57893690  1
  O  O66  1  0.29508465  0.80575982  0.25345623  1
  O  O67  1  0.52396933  0.71283922  0.25131319  1
  O  O68  1  0.19498731  0.48300550  0.25957198  1
  O  O69  1  0.28690631  0.48915799  0.75546523  1
  O  O70  1  0.18854682  0.71127145  0.75508751  1
  O  O71  1  0.51563073  0.81331423  0.75466223  1
loop_
_geom_bond_atom_site_label_1
_geom_bond_atom_site_label_2
_geom_bond_distance
_geom_bond_site_symmetry_2
Na0 O53 2.273103 1_555
Na0 O67 2.404845 1_545
Na0 O52 2.564658 1_555
Na0 O16 2.706875 1_555
Na0 O31 2.774809 1_545
Na0 O2 2.799506 1_555
Na0 O9 2.824649 1_545
Na0 O66 2.850747 1_545
Na1 O15 2.270170 1_555
Na1 O52 2.321636 1_555
Na1 O66 2.333866 1_655
Na1 O51 2.744904 1_555
Na1 O30 2.766191 1_655
Na1 O68 2.767012 1_655
Na1 O11 2.837601 1_655
Na2 O49 2.285173 1_555
Na2 O14 2.369623 1_555
Na2 O71 2.379588 1_555
Na2 O50 2.729671 1_555
Na2 O35 2.752933 1_555
Na3 O69 2.340919 1_655
Na3 O50 2.359961 1_555
Na3 O12 2.423397 1_555
Na3 O48 2.486634 1_555
Na3 O33 2.586439 1_655
Na3 O7 2.784399 1_655
Na3 O70 2.828545 1_655
Na4 O65 2.272829 1_555
Na4 O43 2.377262 1_555
Na4 O64 2.599313 1_555
Na4 O28 2.613261 1_555
Na4 O7 2.670209 1_555
Na4 O42 2.851740 1_455
Na4 O14 2.859259 1_555
Na4 O21 2.870193 1_555
Na5 O64 2.308591 1_555
Na5 O27 2.315226 1_555
Na5 O42 2.320790 1_565
Na5 O63 2.701484 1_555
Na5 O44 2.768134 1_555
Na5 O23 2.814633 1_565
Na5 O6 2.897638 1_555
Na6 O61 2.276148 1_555
Na6 O26 2.330274 1_554
Na6 O47 2.342967 1_565
Na6 O62 2.716891 1_555
Na6 O11 2.729004 1_555
Na6 O45 2.754695 1_455
Na6 O18 2.858894 1_565
Na7 O39 2.235845 1_555
Na7 O56 2.348216 1_555
Na7 O5 2.441227 1_555
Na7 O34 2.540537 1_545
Na7 O41 2.599749 1_545
Na7 O20 2.784518 1_556
Na8 O37 2.258815 1_555
Na8 O59 2.339558 1_555
Na8 O2 2.373245 1_555
Na8 O38 2.639710 1_655
Na8 O57 2.729173 1_555
Na8 O23 2.863291 1_555
Na8 O30 2.878718 1_655
Na9 O44 2.401337 1_555
Na9 O43 2.440826 1_665
Na9 O36 2.489696 1_555
Na9 O42 2.548894 1_565
Na9 O37 2.694527 1_565
Na9 O38 3.003015 1_665
Na10 O47 2.345962 1_565
Na10 O45 2.397314 1_455
Na10 O46 2.495885 1_465
Na10 O40 2.598833 1_564
Na10 O41 2.636433 1_454
Na10 O39 2.937691 1_464
Na11 O56 2.366376 1_555
Na11 O54 2.435255 1_555
Na11 O48 2.558102 1_555
Na11 O55 2.568444 1_555
Na11 O49 2.598276 1_555
Na12 O58 2.246969 1_555
Na12 O57 2.440507 1_555
Na12 O53 2.460778 1_555
Na12 O59 2.527441 1_555
Na12 O51 2.880298 1_555
Na13 O68 2.417901 1_555
Na13 O67 2.500362 1_555
Na13 O60 2.528590 1_555
Na13 O66 2.537347 1_555
Na13 O61 2.711382 1_555
Na13 O62 2.988041 1_555
Na14 O70 2.388060 1_555
Na14 O71 2.474847 1_555
Na14 O69 2.531939 1_555
Na14 O65 2.546286 1_555
Na14 O63 2.768245 1_555
Na14 O64 2.860802 1_555
Ca0 O0 2.143927 1_555
Ca0 O1 2.176126 1_445
Ca0 O2 2.198183 1_455
Ca0 O38 2.211541 1_555
Ca0 O36 2.303106 1_445
Ca0 O37 2.306552 1_455
Ca1 O3 2.116524 1_555
Ca1 O4 2.177767 1_445
Ca1 O40 2.185500 1_555
Ca1 O5 2.245638 1_455
Ca1 O39 2.275397 1_455
Ca1 O41 2.379423 1_445
Ca2 O13 2.155857 1_555
Ca2 O14 2.197943 1_555
Ca2 O12 2.200316 1_555
Ca2 O50 2.256583 1_555
Ca2 O49 2.267551 1_555
Ca2 O48 2.284125 1_555
Ca3 O16 2.169253 1_555
Ca3 O15 2.177125 1_555
Ca3 O17 2.189282 1_555
Ca3 O51 2.256307 1_555
Ca3 O52 2.262466 1_555
Ca3 O53 2.302663 1_555
Ca4 O25 2.127989 1_554
Ca4 O26 2.180317 1_554
Ca4 O24 2.212722 1_554
Ca4 O61 2.244901 1_555
Ca4 O62 2.263292 1_555
Ca4 O60 2.274920 1_555
Ca5 O28 2.150008 1_555
Ca5 O27 2.166408 1_555
Ca5 O29 2.178392 1_555
Ca5 O63 2.229366 1_555
Ca5 O64 2.270182 1_555
Ca5 O65 2.315506 1_555
Al0 O6 1.880389 1_545
Al0 O42 1.911082 1_555
Al0 O44 1.918861 1_545
Al0 O7 1.935925 1_655
Al0 O8 2.299365 1_645
Al0 O43 2.346152 1_655
Al1 O10 1.892186 1_565
Al1 O45 1.900197 1_455
Al1 O11 1.938036 1_555
Al1 O9 2.065020 1_455
Al1 O46 2.174885 1_465
Al1 O47 2.240127 1_565
Al2 O19 1.846728 1_556
Al2 O56 1.917909 1_555
Al2 O54 2.006755 1_555
Al2 O18 2.011262 1_556
Al2 O55 2.056732 1_555
Al2 O20 2.309503 1_556
Al3 O22 1.893061 1_555
Al3 O57 1.907985 1_555
Al3 O23 1.917386 1_555
Al3 O21 1.995989 1_555
Al3 O58 2.237932 1_555
Al3 O59 2.242102 1_555
Al4 O31 1.910609 1_555
Al4 O66 1.918272 1_555
Al4 O68 1.925221 1_555
Al4 O30 2.064936 1_555
Al4 O67 2.114861 1_555
Al4 O32 2.203576 1_555
Al5 O71 1.877437 1_555
Al5 O34 1.905298 1_555
Al5 O69 1.983531 1_555
Al5 O70 2.007767 1_555
Al5 O35 2.103053 1_555
Al5 O33 2.383129 1_555
O0 P0 1.497169 1_545
O1 S0 1.452043 1_555
O2 P1 1.522764 1_655
O3 P2 1.493463 1_555
O4 S1 1.450653 1_655
O5 P3 1.510164 1_545
O6 P3 1.600199 1_555
O7 P2 1.610319 1_555
O8 S1 1.482713 1_555
O9 S0 1.509623 1_555
O10 P1 1.580227 1_555
O11 P0 1.592461 1_555
O12 P4 1.510163 1_555
O13 S2 1.457189 1_555
O14 P5 1.520726 1_555
O15 P6 1.514402 1_555
O16 S3 1.469971 1_555
O17 S4 1.452550 1_555
O18 S4 1.514149 1_555
O19 P6 1.582845 1_555
O20 S3 1.498787 1_555
O21 S2 1.514096 1_555
O22 P5 1.578737 1_555
O23 P4 1.585376 1_555
O24 S5 1.450103 1_555
O25 S6 1.444066 1_555
O26 P7 1.512275 1_555
O27 P8 1.513806 1_555
O28 S7 1.466933 1_555
O29 S8 1.452405 1_555
O30 S8 1.522910 1_555
O31 P8 1.597449 1_555
O32 S7 1.497439 1_555
O33 S6 1.491660 1_555
O34 P7 1.618582 1_555
O35 S5 1.520333 1_555
O36 S8 1.459446 1_655
O37 P8 1.541045 1_545
O38 S7 1.475846 1_555
O39 S6 1.483305 1_655
O40 P7 1.512491 1_545
O41 S5 1.479943 1_555
O42 P4 1.601554 1_555
O43 S2 1.492073 1_555
O44 P5 1.578005 1_555
O45 P6 1.588438 1_555
O46 S3 1.494954 1_555
O47 S4 1.511258 1_555
O48 P3 1.526789 1_545
O49 P2 1.531290 1_555
O50 S1 1.485743 1_655
O51 S0 1.461279 1_555
O52 P1 1.547109 1_655
O53 P0 1.537399 1_545
O54 S5 1.506207 1_555
O55 S6 1.515059 1_655
O56 P7 1.597055 1_545
O57 P8 1.593575 1_545
O58 S7 1.491954 1_555
O59 S8 1.508171 1_655
O60 S4 1.461855 1_555
O61 P6 1.541655 1_455
O62 S3 1.479392 1_565
O63 S2 1.464619 1_565
O64 P5 1.551402 1_555
O65 P4 1.533535 1_455
O66 P0 1.606657 1_555
O67 S0 1.511654 1_555
O68 P1 1.578254 1_555
O69 P2 1.601661 1_555
O70 S1 1.516019 1_555
O71 P3 1.582003 1_555
