# generated using pymatgen
data_CsMgFe(SO4)2
_symmetry_space_group_name_H-M   'P 1'
_cell_length_a   5.18604606
_cell_length_b   5.18679488
_cell_length_c   9.13045112
_cell_angle_alpha   89.98985144
_cell_angle_beta   89.99161562
_cell_angle_gamma   120.00986731
_symmetry_Int_Tables_number   1
_chemical_formula_structural   CsMgFe(SO4)2
_chemical_formula_sum   'Cs1 Mg1 Fe1 S2 O8'
_cell_volume   212.67434174
_cell_formula_units_Z   1
loop_
 _symmetry_equiv_pos_site_id
 _symmetry_equiv_pos_as_xyz
  1  'x, y, z'
loop_
 _atom_site_type_symbol
 _atom_site_label
 _atom_site_symmetry_multiplicity
 _atom_site_fract_x
 _atom_site_fract_y
 _atom_site_fract_z
 _atom_site_occupancy
  Cs  Cs0  1  0.00058400  0.99975300  0.47274700  1
  Mg  Mg0  1  0.33402900  0.66591400  0.93437200  1
  Fe  Fe0  1  0.00072200  0.00020600  0.01842400  1
  S  S0  1  0.33306900  0.66657100  0.20857700  1
  S  S1  1  0.66732700  0.33278300  0.79262200  1
  O  O0  1  0.65564600  0.05459900  0.85087500  1
  O  O1  1  0.40067100  0.34438900  0.85077300  1
  O  O2  1  0.07698400  0.38919900  0.14457200  1
  O  O3  1  0.66743800  0.33281000  0.63284800  1
  O  O4  1  0.33440300  0.66609000  0.36910100  1
  O  O5  1  0.31114100  0.92262900  0.14520300  1
  O  O6  1  0.94556600  0.59931100  0.85074600  1
  O  O7  1  0.60992100  0.68824800  0.14342300  1
loop_
_geom_bond_atom_site_label_1
_geom_bond_atom_site_label_2
_geom_bond_distance
_geom_bond_site_symmetry_2
Cs0 O4 3.138038 1_455
Cs0 O4 3.138612 1_565
Cs0 O4 3.144011 1_555
Cs0 O3 3.330426 1_465
Cs0 O3 3.332792 1_565
Cs0 O3 3.332804 1_455
Cs0 O5 3.513010 1_555
Cs0 O2 3.523144 1_565
Cs0 O7 3.533496 1_455
Mg0 O1 2.014981 1_555
Mg0 O0 2.015698 1_565
Mg0 O6 2.016255 1_455
Mg0 O7 2.353489 1_556
Mg0 O2 2.367454 1_556
Mg0 O5 2.377299 1_556
Fe0 O5 2.177561 1_545
Fe0 O7 2.178667 1_445
Fe0 O2 2.180964 1_555
Fe0 O1 2.475159 1_554
Fe0 O0 2.475512 1_454
Fe0 O6 2.481076 1_444
O0 S1 1.510218 1_555
O1 S1 1.510291 1_555
O2 S0 1.504779 1_555
O3 S1 1.458809 1_555
O4 S0 1.465681 1_555
O5 S0 1.504153 1_555
O6 S1 1.509960 1_555
O7 S0 1.505392 1_555
