# generated using pymatgen
data_BaYMgFeCuO5
_symmetry_space_group_name_H-M   'P 1'
_cell_length_a   3.97440207
_cell_length_b   4.02870876
_cell_length_c   9.87118680
_cell_angle_alpha   90.00000000
_cell_angle_beta   90.00000000
_cell_angle_gamma   90.00000000
_symmetry_Int_Tables_number   1
_chemical_formula_structural   BaYMgFeCuO5
_chemical_formula_sum   'Ba1 Y1 Mg1 Fe1 Cu1 O5'
_cell_volume   158.05456495
_cell_formula_units_Z   1
loop_
 _symmetry_equiv_pos_site_id
 _symmetry_equiv_pos_as_xyz
  1  'x, y, z'
loop_
 _atom_site_type_symbol
 _atom_site_label
 _atom_site_symmetry_multiplicity
 _atom_site_fract_x
 _atom_site_fract_y
 _atom_site_fract_z
 _atom_site_occupancy
  Ba  Ba0  1  0.00000000  0.00000000  0.12728311  1
  Y  Y0  1  0.00000000  0.00000000  0.47729877  1
  Mg  Mg0  1  0.50000000  0.00000000  0.82510883  1
  Fe  Fe0  1  0.49999900  0.49999900  0.64410411  1
  Cu  Cu0  1  0.49999900  0.49999900  0.30764777  1
  O  O0  1  0.00000000  0.49999900  0.57980165  1
  O  O1  1  0.49999900  0.00000000  0.62546203  1
  O  O2  1  0.00000000  0.49999900  0.28411293  1
  O  O3  1  0.49999900  0.00000000  0.32699219  1
  O  O4  1  0.49999900  0.49999900  0.87343962  1
loop_
_geom_bond_atom_site_label_1
_geom_bond_atom_site_label_2
_geom_bond_distance
_geom_bond_site_symmetry_2
Ba0 O2 2.540514 1_555
Ba0 O2 2.540520 1_545
Ba0 O3 2.799149 1_555
Ba0 O3 2.799155 1_455
Mg0 O1 1.970751 1_555
Mg0 O4 2.070076 1_555
Mg0 O4 2.070084 1_545
Fe0 O1 2.022738 1_555
Fe0 O1 2.022746 1_565
Fe0 O0 2.086109 1_555
Fe0 O0 2.086116 1_655
Fe0 O4 2.263814 1_555
Cu0 O2 2.000731 1_555
Cu0 O2 2.000739 1_655
Cu0 O3 2.023381 1_555
Cu0 O3 2.023389 1_565
O0 Y0 2.254195 1_555
O0 Y0 2.254203 1_565
O1 Y0 2.467387 1_555
O1 Y0 2.467393 1_655
O2 Y0 2.773834 1_555
O2 Y0 2.773840 1_565
O3 Y0 2.479986 1_555
O3 Y0 2.479992 1_655
