# generated using pymatgen
data_MgV8O16
_symmetry_space_group_name_H-M   'P 1'
_cell_length_a   5.23098166
_cell_length_b   5.89068207
_cell_length_c   10.48558411
_cell_angle_alpha   90.01040928
_cell_angle_beta   90.01211971
_cell_angle_gamma   87.86284179
_symmetry_Int_Tables_number   1
_chemical_formula_structural   MgV8O16
_chemical_formula_sum   'Mg1 V8 O16'
_cell_volume   322.87855538
_cell_formula_units_Z   1
loop_
 _symmetry_equiv_pos_site_id
 _symmetry_equiv_pos_as_xyz
  1  'x, y, z'
loop_
 _atom_site_type_symbol
 _atom_site_label
 _atom_site_symmetry_multiplicity
 _atom_site_fract_x
 _atom_site_fract_y
 _atom_site_fract_z
 _atom_site_occupancy
  Mg  Mg0  1  0.51585100  0.25721600  0.24998800  1
  V  V0  1  0.49356200  0.74202200  0.48487400  1
  V  V1  1  0.49350700  0.74207800  0.01513400  1
  V  V2  1  0.50861200  0.23913200  0.52156900  1
  V  V3  1  0.50849900  0.23912600  0.97843400  1
  V  V4  1  0.99974600  0.50286000  0.48663000  1
  V  V5  1  0.00184400  0.00058900  0.01270700  1
  V  V6  1  0.00198200  0.00056900  0.48728500  1
  V  V7  1  0.99968800  0.50289800  0.01336300  1
  O  O0  1  0.83876800  0.73872700  0.39489700  1
  O  O1  1  0.83876100  0.73877000  0.10510600  1
  O  O2  1  0.15368100  0.26092300  0.58339600  1
  O  O3  1  0.15349500  0.26087300  0.91659500  1
  O  O4  1  0.17607400  0.74368800  0.57672600  1
  O  O5  1  0.17593300  0.74367100  0.92329300  1
  O  O6  1  0.80421200  0.25353400  0.39630500  1
  O  O7  1  0.80417800  0.25360500  0.10369900  1
  O  O8  1  0.66297600  0.51424700  0.58576900  1
  O  O9  1  0.65754200  0.99469400  0.90738100  1
  O  O10  1  0.36298800  0.00950200  0.39501400  1
  O  O11  1  0.34478200  0.48077200  0.10658100  1
  O  O12  1  0.34477500  0.48072200  0.39340900  1
  O  O13  1  0.36298000  0.00959500  0.10498900  1
  O  O14  1  0.65772100  0.99471100  0.59262700  1
  O  O15  1  0.66284500  0.51422700  0.91423100  1
loop_
_geom_bond_atom_site_label_1
_geom_bond_atom_site_label_2
_geom_bond_distance
_geom_bond_site_symmetry_2
Mg0 O6 2.150859 1_555
Mg0 O7 2.150982 1_555
Mg0 O12 2.169753 1_555
Mg0 O11 2.169880 1_555
Mg0 O13 2.272539 1_555
Mg0 O10 2.273653 1_555
O0 V4 1.864846 1_555
O0 V6 2.035631 1_665
O0 V0 2.037005 1_555
O1 V7 1.864732 1_555
O1 V5 2.035713 1_665
O1 V1 2.036850 1_555
O2 V4 1.903580 1_455
O2 V2 1.966359 1_555
O2 V6 2.021709 1_555
O3 V7 1.903612 1_456
O3 V3 1.966509 1_555
O3 V5 2.021735 1_556
O4 V0 1.919721 1_555
O4 V4 1.962784 1_455
O4 V6 1.973837 1_565
O5 V1 1.919713 1_556
O5 V7 1.962633 1_456
O5 V5 1.973781 1_566
O6 V6 2.021375 1_655
O6 V2 2.033237 1_555
O6 V4 2.052174 1_555
O7 V5 2.021338 1_655
O7 V3 2.033148 1_554
O7 V7 2.052464 1_555
O8 V0 1.901664 1_555
O8 V2 1.956667 1_555
O8 V4 2.044609 1_555
O9 V3 1.775464 1_565
O9 V1 2.079298 1_556
O9 V5 2.113873 1_666
O10 V0 1.938292 1_545
O10 V2 2.060757 1_555
O10 V6 2.124423 1_555
O11 V1 1.996049 1_555
O11 V7 2.052514 1_455
O11 V3 2.115195 1_554
O12 V0 1.995821 1_555
O12 V4 2.052574 1_455
O12 V2 2.115401 1_555
O13 V1 1.938224 1_545
O13 V3 2.060673 1_554
O13 V5 2.124733 1_555
O14 V2 1.775657 1_565
O14 V0 2.079406 1_555
O14 V6 2.114172 1_665
O15 V1 1.901781 1_556
O15 V3 1.956887 1_555
O15 V7 2.044534 1_556
