# generated using pymatgen
data_PbCl2
_symmetry_space_group_name_H-M   'P 1'
_cell_length_a   4.54802648
_cell_length_b   7.67151188
_cell_length_c   9.17110966
_cell_angle_alpha   90.00000000
_cell_angle_beta   90.00000000
_cell_angle_gamma   90.00000000
_symmetry_Int_Tables_number   1
_chemical_formula_structural   PbCl2
_chemical_formula_sum   'Pb4 Cl8'
_cell_volume   319.98220951
_cell_formula_units_Z   4
loop_
 _symmetry_equiv_pos_site_id
 _symmetry_equiv_pos_as_xyz
  1  'x, y, z'
loop_
 _atom_site_type_symbol
 _atom_site_label
 _atom_site_symmetry_multiplicity
 _atom_site_fract_x
 _atom_site_fract_y
 _atom_site_fract_z
 _atom_site_occupancy
  Pb  Pb0  1  0.25000000  0.76365269  0.40944598  1
  Pb  Pb1  1  0.75000000  0.23634731  0.59055402  1
  Pb  Pb2  1  0.25000000  0.26365269  0.09055402  1
  Pb  Pb3  1  0.75000000  0.73634731  0.90944598  1
  Cl  Cl0  1  0.25000000  0.98276899  0.65764769  1
  Cl  Cl1  1  0.75000000  0.01723101  0.34235231  1
  Cl  Cl2  1  0.25000000  0.48276899  0.84235231  1
  Cl  Cl3  1  0.75000000  0.51723101  0.15764769  1
  Cl  Cl4  1  0.75000000  0.14146135  0.92262662  1
  Cl  Cl5  1  0.25000000  0.85853865  0.07737338  1
  Cl  Cl6  1  0.75000000  0.64146135  0.57737338  1
  Cl  Cl7  1  0.25000000  0.35853865  0.42262662  1
loop_
_geom_bond_atom_site_label_1
_geom_bond_atom_site_label_2
_geom_bond_distance
_geom_bond_site_symmetry_2
Cl0 Pb0 2.829678 1_555
Cl0 Pb1 3.055170 1_565
Cl0 Pb1 3.055170 1_465
Cl1 Pb1 2.829678 1_555
Cl1 Pb0 3.055170 1_645
Cl1 Pb0 3.055170 1_545
Cl2 Pb2 2.829678 1_556
Cl2 Pb3 3.055170 1_455
Cl2 Pb3 3.055170 1_555
Cl3 Pb3 2.829678 1_554
Cl3 Pb2 3.055170 1_655
Cl3 Pb2 3.055170 1_555
Cl4 Pb2 2.902015 1_656
Cl4 Pb2 2.902015 1_556
Cl4 Pb3 3.110187 1_545
Cl4 Pb1 3.131258 1_555
Cl5 Pb3 2.902015 1_454
Cl5 Pb3 2.902015 1_554
Cl5 Pb2 3.110187 1_565
Cl5 Pb0 3.131258 1_555
Cl6 Pb0 2.902015 1_655
Cl6 Pb0 2.902015 1_555
Cl6 Pb1 3.110187 1_555
Cl6 Pb3 3.131258 1_555
Cl7 Pb1 2.902015 1_455
Cl7 Pb1 2.902015 1_555
Cl7 Pb0 3.110187 1_555
Cl7 Pb2 3.131258 1_555
