# generated using pymatgen
data_Na42Mg20Ta4Si15(S7O48)3
_symmetry_space_group_name_H-M   'P 1'
_cell_length_a   18.19580147
_cell_length_b   9.04043719
_cell_length_c   22.11353256
_cell_angle_alpha   90.05362288
_cell_angle_beta   90.16152591
_cell_angle_gamma   119.84376773
_symmetry_Int_Tables_number   1
_chemical_formula_structural   Na42Mg20Ta4Si15(S7O48)3
_chemical_formula_sum   'Na42 Mg20 Ta4 Si15 S21 O144'
_cell_volume   3155.20538392
_cell_formula_units_Z   1
loop_
 _symmetry_equiv_pos_site_id
 _symmetry_equiv_pos_as_xyz
  1  'x, y, z'
loop_
 _atom_site_type_symbol
 _atom_site_label
 _atom_site_symmetry_multiplicity
 _atom_site_fract_x
 _atom_site_fract_y
 _atom_site_fract_z
 _atom_site_occupancy
  Na  Na0  1  0.30857434  0.99211209  0.23695728  1
  Na  Na1  1  0.80560659  0.99098329  0.23852691  1
  Na  Na2  1  0.19229055  0.37014502  0.24938903  1
  Na  Na3  1  0.69147803  0.36728092  0.24075865  1
  Na  Na4  1  0.99936329  0.64193471  0.24975582  1
  Na  Na5  1  0.49860270  0.64642813  0.24792364  1
  Na  Na6  1  0.30422108  0.62003447  0.74287128  1
  Na  Na7  1  0.81053162  0.62754816  0.74082142  1
  Na  Na8  1  0.00060271  0.35234697  0.75368026  1
  Na  Na9  1  0.49773991  0.35390516  0.75386051  1
  Na  Na10  1  0.18926106  0.01236739  0.75356713  1
  Na  Na11  1  0.69346721  0.01530417  0.75257522  1
  Na  Na12  1  0.16505334  0.34226342  0.58862764  1
  Na  Na13  1  0.66457750  0.35152050  0.59047359  1
  Na  Na14  1  0.31694938  0.95609904  0.58881426  1
  Na  Na15  1  0.16266578  0.97165126  0.07476246  1
  Na  Na16  1  0.66538123  0.98771571  0.08516903  1
  Na  Na17  1  0.81884075  0.68087576  0.08508133  1
  Na  Na18  1  0.48149780  0.66439840  0.91972942  1
  Na  Na19  1  0.99655376  0.68270843  0.91944853  1
  Na  Na20  1  0.33865519  0.02897481  0.91683386  1
  Na  Na21  1  0.85488853  0.04132323  0.91744314  1
  Na  Na22  1  0.16426137  0.28377432  0.90818542  1
  Na  Na23  1  0.66776174  0.29755311  0.91964256  1
  Na  Na24  1  0.48273897  0.30026843  0.41647385  1
  Na  Na25  1  0.98408379  0.30074112  0.41920396  1
  Na  Na26  1  0.16750007  0.03891311  0.41947476  1
  Na  Na27  1  0.66535951  0.03372349  0.40752748  1
  Na  Na28  1  0.35251834  0.66525899  0.41743094  1
  Na  Na29  1  0.85252790  0.66674828  0.41908199  1
  Na  Na30  1  0.99793036  0.97392005  0.50636260  1
  Na  Na31  1  0.49568069  0.97165951  0.50078579  1
  Na  Na32  1  0.00551478  0.01639022  0.99443133  1
  Na  Na33  1  0.49350289  0.01972136  0.00366546  1
  Na  Na34  1  0.31714877  0.30188419  0.83063179  1
  Na  Na35  1  0.83155503  0.32508358  0.82666311  1
  Na  Na36  1  0.32826335  0.33631609  0.32462963  1
  Na  Na37  1  0.82759395  0.33458533  0.32466952  1
  Na  Na38  1  0.18132352  0.68338341  0.16301561  1
  Na  Na39  1  0.67094205  0.66433939  0.16205805  1
  Na  Na40  1  0.17056478  0.67786317  0.66606010  1
  Na  Na41  1  0.68215892  0.67876817  0.66665681  1
  Mg  Mg0  1  0.00209276  0.99302596  0.34598149  1
  Mg  Mg1  1  0.49900650  0.98849307  0.34327931  1
  Mg  Mg2  1  0.00364768  0.00906962  0.84872602  1
  Mg  Mg3  1  0.50017095  0.01124547  0.84764769  1
  Mg  Mg4  1  0.32189113  0.32304941  0.68350791  1
  Mg  Mg5  1  0.83025272  0.33410205  0.68441473  1
  Mg  Mg6  1  0.32830574  0.32548002  0.18266821  1
  Mg  Mg7  1  0.82378988  0.32312110  0.18191633  1
  Mg  Mg8  1  0.32785453  0.30914560  0.98508268  1
  Mg  Mg9  1  0.82895000  0.32053788  0.99197923  1
  Mg  Mg10  1  0.32705267  0.33652358  0.49441773  1
  Mg  Mg11  1  0.83606854  0.34648731  0.49125928  1
  Mg  Mg12  1  0.17335325  0.68423489  0.01607524  1
  Mg  Mg13  1  0.66739145  0.66359582  0.02199496  1
  Mg  Mg14  1  0.16736668  0.66934717  0.52296089  1
  Mg  Mg15  1  0.67293322  0.67434986  0.52058148  1
  Mg  Mg16  1  0.17185050  0.67831221  0.30983349  1
  Mg  Mg17  1  0.67084750  0.67490820  0.30962423  1
  Mg  Mg18  1  0.17307915  0.67850365  0.81315679  1
  Mg  Mg19  1  0.67177907  0.66399541  0.81096770  1
  Ta  Ta0  1  0.99716344  0.99887560  0.64755922  1
  Ta  Ta1  1  0.49576972  0.99838643  0.65032070  1
  Ta  Ta2  1  0.99624776  0.99073922  0.14898699  1
  Ta  Ta3  1  0.49680214  0.99124799  0.14604356  1
  Si  Si0  1  0.14979220  0.00271066  0.25406687  1
  Si  Si1  1  0.64821815  0.99975889  0.25415886  1
  Si  Si2  1  0.35132496  0.69824303  0.25388383  1
  Si  Si3  1  0.85106518  0.69630920  0.25570905  1
  Si  Si4  1  0.14801211  0.30008180  0.75298753  1
  Si  Si5  1  0.64967583  0.29643355  0.75359000  1
  Si  Si6  1  0.35000017  0.00655281  0.75517018  1
  Si  Si7  1  0.85265007  0.00377391  0.75452083  1
  Si  Si8  1  0.18235666  0.03105239  0.58169239  1
  Si  Si9  1  0.33574082  0.62996888  0.58138783  1
  Si  Si10  1  0.83122659  0.63022154  0.58213837  1
  Si  Si11  1  0.33135538  0.03393127  0.08361813  1
  Si  Si12  1  0.83500352  0.04097556  0.08200535  1
  Si  Si13  1  0.68315739  0.33417081  0.08244159  1
  Si  Si14  1  0.16385133  0.96358675  0.91629562  1
  S  S0  1  0.00029985  0.28925723  0.25209881  1
  S  S1  1  0.50047582  0.28993203  0.25212420  1
  S  S2  1  0.99878349  0.70840295  0.75066384  1
  S  S3  1  0.50025504  0.71014624  0.75212201  1
  S  S4  1  0.48167027  0.33576225  0.58329728  1
  S  S5  1  0.97920608  0.33029891  0.58275868  1
  S  S6  1  0.68486728  0.03601545  0.58230496  1
  S  S7  1  0.47843462  0.62379099  0.08254997  1
  S  S8  1  0.98044773  0.62339363  0.08544306  1
  S  S9  1  0.18372667  0.33546903  0.08406530  1
  S  S10  1  0.31673360  0.66723986  0.91667250  1
  S  S11  1  0.81364065  0.66212049  0.91685936  1
  S  S12  1  0.02019563  0.38049406  0.91745215  1
  S  S13  1  0.52245495  0.38044308  0.91578893  1
  S  S14  1  0.66440512  0.95469766  0.91575783  1
  S  S15  1  0.31617253  0.96610484  0.41652998  1
  S  S16  1  0.81437557  0.96601776  0.41708309  1
  S  S17  1  0.16425376  0.37402119  0.41560533  1
  S  S18  1  0.66422062  0.37089026  0.41686109  1
  S  S19  1  0.02057775  0.66133357  0.41592508  1
  S  S20  1  0.52222486  0.66296542  0.41734897  1
  O  O0  1  0.10847888  0.03932908  0.31283557  1
  O  O1  1  0.60793251  0.03622118  0.31397385  1
  O  O2  1  0.40466856  0.77665979  0.31596544  1
  O  O3  1  0.90684385  0.78857780  0.31511314  1
  O  O4  1  0.48587086  0.18715294  0.30785991  1
  O  O5  1  0.98639757  0.18666540  0.30752799  1
  O  O6  1  0.10551639  0.18005557  0.81066384  1
  O  O7  1  0.60646663  0.17355889  0.81098501  1
  O  O8  1  0.48699395  0.78685217  0.80685051  1
  O  O9  1  0.98369210  0.78174836  0.80536538  1
  O  O10  1  0.40893273  0.02848415  0.81242667  1
  O  O11  1  0.90720917  0.02797684  0.81509172  1
  O  O12  1  0.40632769  0.98238143  0.69418381  1
  O  O13  1  0.90597364  0.97460052  0.69737689  1
  O  O14  1  0.08410840  0.19246617  0.69280375  1
  O  O15  1  0.58743781  0.18861096  0.69167176  1
  O  O16  1  0.01064052  0.82082262  0.69699071  1
  O  O17  1  0.51220247  0.82615769  0.69801101  1
  O  O18  1  0.40707788  0.83702792  0.19867280  1
  O  O19  1  0.90577329  0.83155376  0.19593846  1
  O  O20  1  0.01181489  0.19857648  0.19873347  1
  O  O21  1  0.51282969  0.20236981  0.19918145  1
  O  O22  1  0.08521607  0.98517291  0.19459342  1
  O  O23  1  0.58362278  0.97946903  0.19593796  1
  O  O24  1  0.44347174  0.35352651  0.63762908  1
  O  O25  1  0.93866059  0.35096544  0.63618162  1
  O  O26  1  0.24458573  0.11988137  0.63870533  1
  O  O27  1  0.73489030  0.11417615  0.63684277  1
  O  O28  1  0.32648362  0.52007957  0.64068086  1
  O  O29  1  0.81721135  0.50630463  0.63906965  1
  O  O30  1  0.43947317  0.52695708  0.13763412  1
  O  O31  1  0.93913523  0.53070599  0.14033260  1
  O  O32  1  0.31982818  0.12629877  0.14272178  1
  O  O33  1  0.82443947  0.12870442  0.14227306  1
  O  O34  1  0.23349051  0.35864818  0.13957048  1
  O  O35  1  0.74271281  0.36864565  0.14129116  1
  O  O36  1  0.22265249  0.30388648  0.03053071  1
  O  O37  1  0.72037831  0.28774874  0.02253379  1
  O  O38  1  0.42795051  0.54807490  0.02749978  1
  O  O39  1  0.92775729  0.55410491  0.03070502  1
  O  O40  1  0.35015049  0.14186735  0.02167948  1
  O  O41  1  0.85303939  0.14676368  0.01989349  1
  O  O42  1  0.21841740  0.14982143  0.52068813  1
  O  O43  1  0.72439574  0.14229277  0.52739667  1
  O  O44  1  0.35519865  0.56432671  0.51831453  1
  O  O45  1  0.84715828  0.55785705  0.51859087  1
  O  O46  1  0.42885015  0.30133591  0.52801582  1
  O  O47  1  0.92935668  0.30545545  0.52630024  1
  O  O48  1  0.27419848  0.69136059  0.96895637  1
  O  O49  1  0.77215039  0.68467815  0.97076604  1
  O  O50  1  0.07445922  0.46565496  0.97025301  1
  O  O51  1  0.57690889  0.47026929  0.96775726  1
  O  O52  1  0.14797562  0.84667152  0.97655182  1
  O  O53  1  0.65598094  0.85415590  0.97067988  1
  O  O54  1  0.27555095  0.86081772  0.47039662  1
  O  O55  1  0.77198279  0.85572560  0.46937769  1
  O  O56  1  0.15577380  0.45787235  0.47060576  1
  O  O57  1  0.65536929  0.45632752  0.47145891  1
  O  O58  1  0.07362933  0.67711630  0.46831856  1
  O  O59  1  0.57592927  0.68204354  0.47026599  1
  O  O60  1  0.05895473  0.64191835  0.35942538  1
  O  O61  1  0.56211626  0.64526600  0.36137046  1
  O  O62  1  0.26474614  0.88582311  0.36170806  1
  O  O63  1  0.76416323  0.88940533  0.36123313  1
  O  O64  1  0.17176926  0.47594572  0.36123218  1
  O  O65  1  0.67525605  0.47477364  0.36246309  1
  O  O66  1  0.05913049  0.47498110  0.86086620  1
  O  O67  1  0.56126586  0.47680044  0.85904296  1
  O  O68  1  0.17999726  0.87494006  0.85695933  1
  O  O69  1  0.67184877  0.86793168  0.86113904  1
  O  O70  1  0.26724916  0.63956920  0.86043148  1
  O  O71  1  0.76072713  0.63511242  0.86207487  1
  O  O72  1  0.01119570  0.81751169  0.41473183  1
  O  O73  1  0.51277667  0.81919727  0.41580915  1
  O  O74  1  0.40352077  0.98674749  0.41264247  1
  O  O75  1  0.90181005  0.98896487  0.41358877  1
  O  O76  1  0.08590272  0.20093437  0.41307853  1
  O  O77  1  0.58499197  0.19943284  0.41413264  1
  O  O78  1  0.00713643  0.20342464  0.91543562  1
  O  O79  1  0.51294635  0.20538516  0.91421091  1
  O  O80  1  0.07696206  0.98106381  0.91284705  1
  O  O81  1  0.58624285  0.97131146  0.91314710  1
  O  O82  1  0.40415365  0.82321562  0.91302758  1
  O  O83  1  0.89878420  0.81694210  0.91237720  1
  O  O84  1  0.49168370  0.17380354  0.58765728  1
  O  O85  1  0.98723084  0.17076538  0.58728573  1
  O  O86  1  0.08833057  0.02345279  0.59236626  1
  O  O87  1  0.59933617  0.02906732  0.58692843  1
  O  O88  1  0.42238166  0.83366769  0.58993345  1
  O  O89  1  0.91743191  0.82258831  0.59261440  1
  O  O90  1  0.48744096  0.80276257  0.08775666  1
  O  O91  1  0.99059106  0.80687260  0.09013358  1
  O  O92  1  0.41829404  0.01366506  0.09482568  1
  O  O93  1  0.92114317  0.01069046  0.09158621  1
  O  O94  1  0.09752252  0.16960981  0.09034214  1
  O  O95  1  0.58895816  0.15261166  0.09347542  1
  O  O96  1  0.34922347  0.18209486  0.74420398  1
  O  O97  1  0.84763776  0.17692690  0.74260974  1
  O  O98  1  0.24253064  0.32559494  0.74598480  1
  O  O99  1  0.74348012  0.32021012  0.74559778  1
  O  O100  1  0.42713108  0.54085598  0.74267526  1
  O  O101  1  0.92401286  0.53709261  0.74169506  1
  O  O102  1  0.34685926  0.51620500  0.24184035  1
  O  O103  1  0.84991892  0.51817620  0.24545093  1
  O  O104  1  0.42691483  0.31479722  0.24445259  1
  O  O105  1  0.92681254  0.31303211  0.24386585  1
  O  O106  1  0.24343051  0.16669702  0.24596758  1
  O  O107  1  0.74293472  0.16240289  0.24700256  1
  O  O108  1  0.32868738  0.51587176  0.92418943  1
  O  O109  1  0.82446273  0.50855394  0.92218762  1
  O  O110  1  0.43740540  0.36597104  0.92016495  1
  O  O111  1  0.93470979  0.36936903  0.92170053  1
  O  O112  1  0.24875825  0.15797703  0.92093162  1
  O  O113  1  0.74173727  0.12827629  0.91740650  1
  O  O114  1  0.32661880  0.14142773  0.42155722  1
  O  O115  1  0.82270135  0.13957575  0.42358494  1
  O  O116  1  0.24166359  0.35553277  0.41739018  1
  O  O117  1  0.73945077  0.34524468  0.42103957  1
  O  O118  1  0.43658026  0.50662546  0.42096048  1
  O  O119  1  0.93397110  0.50489475  0.41982991  1
  O  O120  1  0.16799893  0.47809257  0.07639382  1
  O  O121  1  0.66922888  0.49633098  0.07629571  1
  O  O122  1  0.06624297  0.65039910  0.08055475  1
  O  O123  1  0.56651385  0.65850135  0.07683936  1
  O  O124  1  0.24782127  0.84388095  0.08013155  1
  O  O125  1  0.75170091  0.84880210  0.07801808  1
  O  O126  1  0.16866028  0.84115553  0.57527488  1
  O  O127  1  0.66901928  0.86066963  0.57535237  1
  O  O128  1  0.25241150  0.65469285  0.57724618  1
  O  O129  1  0.74565099  0.64776339  0.57903456  1
  O  O130  1  0.06700749  0.47380852  0.57670441  1
  O  O131  1  0.56905489  0.47953067  0.57521969  1
  O  O132  1  0.14931722  0.82196288  0.25260026  1
  O  O133  1  0.64914116  0.81957643  0.25324447  1
  O  O134  1  0.25733547  0.67985078  0.25288453  1
  O  O135  1  0.75820517  0.68058592  0.25268928  1
  O  O136  1  0.07933988  0.45633641  0.25524979  1
  O  O137  1  0.57895227  0.45799722  0.25665370  1
  O  O138  1  0.14951674  0.48246081  0.75269922  1
  O  O139  1  0.64899485  0.47611062  0.75160240  1
  O  O140  1  0.07612109  0.69479712  0.75319198  1
  O  O141  1  0.57969843  0.70321448  0.75425390  1
  O  O142  1  0.25995998  0.83352220  0.74934389  1
  O  O143  1  0.75800484  0.83402196  0.75344422  1
loop_
_geom_bond_atom_site_label_1
_geom_bond_atom_site_label_2
_geom_bond_distance
_geom_bond_site_symmetry_2
Na0 O32 2.369813 1_565
Na0 O106 2.408029 1_565
Na0 O134 2.519266 1_555
Na0 O132 2.540342 1_555
Na0 O104 2.630485 1_565
Na0 O18 2.898677 1_555
Na0 O62 2.902467 1_555
Na1 O107 2.344504 1_565
Na1 O33 2.404704 1_565
Na1 O133 2.495588 1_555
Na1 O135 2.512102 1_555
Na1 O105 2.638503 1_565
Na1 O63 2.846373 1_555
Na1 O19 2.984616 1_555
Na2 O134 2.438651 1_555
Na2 O106 2.440907 1_555
Na2 O102 2.447134 1_555
Na2 O136 2.538330 1_555
Na2 O34 2.560789 1_555
Na2 O64 2.743626 1_555
Na3 O35 2.389051 1_555
Na3 O107 2.460093 1_555
Na3 O135 2.477985 1_555
Na3 O103 2.503392 1_555
Na3 O137 2.581307 1_555
Na4 O103 2.371824 1_555
Na4 O132 2.382596 1_655
Na4 O105 2.586989 1_555
Na4 O31 2.636468 1_555
Na4 O60 2.653785 1_655
Na4 O136 2.716131 1_655
Na4 O22 2.958111 1_655
Na4 O3 2.985264 1_555
Na5 O133 2.386954 1_555
Na5 O102 2.406266 1_555
Na5 O104 2.608191 1_555
Na5 O30 2.663838 1_555
Na5 O137 2.748545 1_555
Na5 O61 2.761362 1_555
Na5 O23 2.856685 1_555
Na5 O2 2.930104 1_555
Na6 O98 2.318882 1_555
Na6 O142 2.437468 1_555
Na6 O138 2.457151 1_555
Na6 O28 2.540269 1_555
Na6 O100 2.665978 1_555
Na6 O70 2.714645 1_555
Na7 O99 2.418057 1_555
Na7 O143 2.500359 1_555
Na7 O29 2.531526 1_555
Na7 O139 2.563223 1_555
Na7 O101 2.571621 1_555
Na7 O71 2.844392 1_555
Na7 O13 2.893944 1_555
Na8 O138 2.356751 1_555
Na8 O97 2.433947 1_455
Na8 O66 2.605217 1_555
Na8 O101 2.667816 1_455
Na8 O140 2.690545 1_555
Na8 O25 2.826855 1_455
Na8 O11 2.896903 1_455
Na8 O14 2.898940 1_555
Na9 O96 2.362100 1_555
Na9 O139 2.402567 1_555
Na9 O67 2.585034 1_555
Na9 O100 2.593937 1_555
Na9 O141 2.740289 1_555
Na9 O24 2.750229 1_555
Na9 O10 2.868972 1_555
Na10 O98 2.501254 1_555
Na10 O142 2.519579 1_545
Na10 O96 2.535373 1_555
Na10 O140 2.568675 1_545
Na10 O68 2.568756 1_545
Na10 O26 2.730372 1_555
Na10 O6 2.919028 1_555
Na11 O99 2.440313 1_555
Na11 O97 2.444903 1_555
Na11 O143 2.445539 1_545
Na11 O141 2.536683 1_545
Na11 O69 2.680111 1_545
Na11 O27 2.694711 1_555
Na11 O7 2.912641 1_555
Na12 O128 2.470411 1_555
Na12 O86 2.501846 1_555
Na12 O130 2.603080 1_555
Na12 O14 2.711108 1_555
Na12 O28 2.795549 1_555
Na12 O85 2.807214 1_455
Na12 O42 2.812725 1_555
Na12 O56 2.847911 1_555
Na13 O129 2.341792 1_555
Na13 O87 2.543250 1_555
Na13 O131 2.544299 1_555
Na13 O29 2.634141 1_555
Na13 O15 2.667136 1_555
Na13 O84 2.729527 1_555
Na13 O57 2.830649 1_555
Na13 O43 2.959868 1_555
Na14 O126 2.377859 1_555
Na14 O128 2.383596 1_555
Na14 O88 2.649371 1_555
Na14 O26 2.662486 1_565
Na14 O54 2.739618 1_555
Na14 O12 2.779151 1_555
Na14 O84 2.784884 1_565
Na15 O124 2.351546 1_555
Na15 O52 2.399219 1_554
Na15 O122 2.541637 1_555
Na15 O94 2.615134 1_565
Na15 O91 2.739130 1_455
Na15 O36 2.813902 1_565
Na15 O32 2.895446 1_565
Na16 O125 2.456277 1_555
Na16 O95 2.500768 1_565
Na16 O123 2.607006 1_555
Na16 O37 2.755082 1_565
Na16 O53 2.771869 1_554
Na16 O90 2.809850 1_555
Na16 O33 2.810770 1_565
Na16 O23 2.851176 1_555
Na17 O125 2.380506 1_555
Na17 O121 2.389189 1_555
Na17 O93 2.617203 1_565
Na17 O49 2.670285 1_554
Na17 O91 2.744322 1_555
Na17 O35 2.748854 1_555
Na17 O19 2.862621 1_555
Na17 O39 2.993058 1_555
Na18 O110 2.401730 1_555
Na18 O108 2.414507 1_555
Na18 O82 2.464613 1_555
Na18 O81 2.468071 1_555
Na18 O38 2.594762 1_556
Na18 O8 2.713428 1_555
Na19 O80 2.347643 1_655
Na19 O111 2.474084 1_555
Na19 O83 2.609480 1_555
Na19 O52 2.700965 1_655
Na19 O109 2.717027 1_555
Na19 O9 2.725862 1_555
Na19 O39 2.746978 1_556
Na19 O66 2.938254 1_655
Na20 O112 2.437883 1_555
Na20 O40 2.498243 1_556
Na20 O10 2.643506 1_555
Na20 O110 2.658243 1_555
Na20 O82 2.663523 1_545
Na20 O79 2.751680 1_555
Na20 O68 2.828488 1_545
Na20 O48 2.910546 1_545
Na21 O78 2.405044 1_655
Na21 O41 2.463890 1_556
Na21 O11 2.483871 1_555
Na21 O83 2.525460 1_545
Na21 O113 2.543174 1_555
Na21 O111 2.573963 1_555
Na22 O112 2.339894 1_555
Na22 O6 2.378687 1_555
Na22 O80 2.387043 1_545
Na22 O78 2.581310 1_555
Na22 O108 2.687712 1_555
Na22 O36 2.876138 1_556
Na22 O70 2.998557 1_555
Na23 O37 2.484746 1_556
Na23 O113 2.491306 1_555
Na23 O79 2.511159 1_555
Na23 O109 2.521393 1_555
Na23 O81 2.561926 1_545
Na23 O7 2.647541 1_555
Na24 O118 2.398992 1_555
Na24 O77 2.446215 1_555
Na24 O74 2.459911 1_545
Na24 O114 2.467100 1_555
Na24 O4 2.621447 1_555
Na24 O46 2.658690 1_555
Na25 O119 2.431670 1_555
Na25 O76 2.435128 1_655
Na25 O75 2.449431 1_545
Na25 O115 2.549275 1_555
Na25 O47 2.580218 1_555
Na25 O5 2.683850 1_555
Na26 O42 2.435718 1_555
Na26 O116 2.484467 1_555
Na26 O72 2.537378 1_545
Na26 O76 2.556085 1_555
Na26 O114 2.563653 1_555
Na26 O0 2.589223 1_555
Na27 O1 2.320282 1_555
Na27 O117 2.460810 1_555
Na27 O73 2.479422 1_545
Na27 O115 2.550540 1_555
Na27 O77 2.566171 1_555
Na27 O43 2.841370 1_555
Na27 O63 2.885272 1_545
Na28 O44 2.420610 1_555
Na28 O2 2.452400 1_555
Na28 O116 2.507529 1_555
Na28 O73 2.530409 1_555
Na28 O118 2.566152 1_555
Na28 O74 2.576092 1_555
Na29 O45 2.393814 1_555
Na29 O72 2.507512 1_655
Na29 O3 2.531789 1_555
Na29 O119 2.548618 1_555
Na29 O75 2.589555 1_555
Na29 O117 2.594603 1_555
Na30 O89 2.383542 1_555
Na30 O86 2.402272 1_665
Na30 O72 2.549618 1_655
Na30 O85 2.597669 1_565
Na30 O75 2.739231 1_555
Na30 O76 2.790429 1_665
Na31 O88 2.363233 1_555
Na31 O73 2.439852 1_555
Na31 O87 2.541470 1_565
Na31 O74 2.615268 1_555
Na31 O84 2.676156 1_565
Na31 O77 2.692095 1_565
Na32 O80 2.339297 1_545
Na32 O78 2.422324 1_555
Na32 O83 2.608449 1_445
Na32 O94 2.624171 1_556
Na32 O93 2.629711 1_456
Na32 O91 2.763889 1_446
Na33 O92 2.425013 1_555
Na33 O79 2.504937 1_554
Na33 O95 2.510704 1_555
Na33 O82 2.629988 1_544
Na33 O90 2.666433 1_545
Na33 O81 2.792539 1_544
Na34 O112 2.374047 1_555
Na34 O98 2.381025 1_555
Na34 O96 2.407828 1_555
Na34 O108 2.766342 1_555
Na34 O110 2.784848 1_555
Na34 O100 2.860450 1_555
Na35 O99 2.386878 1_555
Na35 O97 2.392274 1_555
Na35 O101 2.617176 1_555
Na35 O113 2.644690 1_555
Na35 O111 2.707102 1_555
Na35 O109 2.727263 1_555
Na36 O106 2.320347 1_555
Na36 O102 2.360581 1_555
Na36 O104 2.601615 1_555
Na36 O116 2.647805 1_555
Na36 O114 2.766636 1_555
Na36 O118 2.782603 1_555
Na37 O103 2.308028 1_555
Na37 O107 2.310694 1_555
Na37 O105 2.618740 1_555
Na37 O117 2.701073 1_555
Na37 O119 2.747773 1_555
Na37 O115 2.784365 1_555
Na38 O124 2.280103 1_555
Na38 O134 2.427345 1_555
Na38 O132 2.561492 1_555
Na38 O120 2.591389 1_555
Na38 O122 2.674852 1_555
Na38 O136 2.838131 1_555
Na39 O121 2.419056 1_555
Na39 O125 2.444647 1_555
Na39 O135 2.511747 1_555
Na39 O133 2.597364 1_555
Na39 O123 2.654143 1_555
Na39 O137 2.752585 1_555
Na40 O142 2.391251 1_555
Na40 O126 2.503383 1_555
Na40 O138 2.505007 1_555
Na40 O128 2.538750 1_555
Na40 O140 2.639904 1_555
Na40 O130 2.714903 1_555
Na41 O129 2.345548 1_555
Na41 O143 2.368542 1_555
Na41 O139 2.482302 1_555
Na41 O127 2.689398 1_555
Na41 O141 2.776072 1_555
Na41 O131 2.801529 1_555
Mg0 O0 1.913585 1_565
Mg0 O3 1.920592 1_455
Mg0 O5 2.090021 1_465
Mg0 O72 2.262997 1_555
Mg0 O76 2.277976 1_565
Mg0 O75 2.348384 1_455
Mg1 O1 1.921213 1_565
Mg1 O2 1.923297 1_555
Mg1 O4 2.079647 1_565
Mg1 O74 2.315052 1_555
Mg1 O73 2.315535 1_555
Mg1 O77 2.355945 1_565
Mg2 O6 1.921770 1_555
Mg2 O11 1.988230 1_455
Mg2 O80 2.044607 1_545
Mg2 O9 2.127506 1_445
Mg2 O78 2.269592 1_555
Mg2 O83 2.315178 1_445
Mg3 O10 1.907212 1_555
Mg3 O7 1.933329 1_555
Mg3 O8 2.120833 1_545
Mg3 O79 2.210937 1_555
Mg3 O82 2.257268 1_545
Mg3 O81 2.287359 1_545
Mg4 O26 1.936777 1_555
Mg4 O28 1.982971 1_555
Mg4 O98 2.009673 1_555
Mg4 O96 2.074334 1_555
Mg4 O24 2.325041 1_555
Mg4 O100 2.341864 1_555
Mg5 O29 1.963323 1_555
Mg5 O99 2.038194 1_555
Mg5 O97 2.055167 1_555
Mg5 O27 2.150060 1_555
Mg5 O101 2.179490 1_555
Mg5 O25 2.182837 1_555
Mg6 O32 1.940717 1_555
Mg6 O102 2.052582 1_555
Mg6 O106 2.052937 1_555
Mg6 O34 2.116789 1_555
Mg6 O30 2.179179 1_555
Mg6 O104 2.292231 1_555
Mg7 O35 1.936583 1_555
Mg7 O33 1.968682 1_555
Mg7 O107 2.058026 1_555
Mg7 O103 2.113456 1_555
Mg7 O31 2.205993 1_555
Mg7 O105 2.356901 1_555
Mg8 O40 1.928092 1_556
Mg8 O112 1.994681 1_555
Mg8 O36 2.144055 1_556
Mg8 O38 2.221222 1_556
Mg8 O108 2.298450 1_555
Mg8 O110 2.301427 1_555
Mg9 O41 1.930501 1_556
Mg9 O37 1.967804 1_556
Mg9 O39 2.152657 1_556
Mg9 O109 2.328096 1_555
Mg9 O111 2.342227 1_555
Mg9 O113 2.343811 1_555
Mg10 O44 1.931200 1_555
Mg10 O42 1.944584 1_555
Mg10 O46 2.159468 1_555
Mg10 O116 2.365664 1_555
Mg10 O114 2.384871 1_555
Mg10 O118 2.438849 1_555
Mg11 O45 1.915944 1_555
Mg11 O47 2.058930 1_555
Mg11 O43 2.110421 1_555
Mg11 O119 2.280419 1_555
Mg11 O115 2.310335 1_555
Mg11 O117 2.338151 1_555
Mg12 O52 1.951569 1_554
Mg12 O124 1.991112 1_555
Mg12 O48 2.085707 1_554
Mg12 O50 2.148617 1_554
Mg12 O120 2.255308 1_555
Mg12 O122 2.312627 1_555
Mg13 O121 1.945012 1_555
Mg13 O125 2.029924 1_555
Mg13 O51 2.079629 1_554
Mg13 O49 2.145733 1_554
Mg13 O53 2.157999 1_554
Mg13 O123 2.184209 1_555
Mg14 O126 1.926511 1_555
Mg14 O128 2.011740 1_555
Mg14 O58 2.117058 1_555
Mg14 O56 2.152458 1_555
Mg14 O130 2.162266 1_555
Mg14 O54 2.201760 1_555
Mg15 O129 1.945971 1_555
Mg15 O55 2.071886 1_555
Mg15 O127 2.103646 1_555
Mg15 O59 2.114130 1_555
Mg15 O57 2.129350 1_555
Mg15 O131 2.199566 1_555
Mg16 O132 1.996636 1_555
Mg16 O134 1.998790 1_555
Mg16 O62 2.126362 1_555
Mg16 O64 2.154087 1_555
Mg16 O60 2.207136 1_555
Mg16 O136 2.222505 1_555
Mg17 O133 1.983759 1_555
Mg17 O135 2.011130 1_555
Mg17 O63 2.157247 1_555
Mg17 O137 2.175924 1_555
Mg17 O61 2.186584 1_555
Mg17 O65 2.189333 1_555
Mg18 O68 1.970129 1_555
Mg18 O142 2.065360 1_555
Mg18 O138 2.085272 1_555
Mg18 O70 2.178008 1_555
Mg18 O66 2.239747 1_555
Mg18 O140 2.266801 1_555
Mg19 O143 2.014220 1_555
Mg19 O139 2.017986 1_555
Mg19 O71 2.091835 1_555
Mg19 O69 2.150321 1_555
Mg19 O67 2.160150 1_555
Mg19 O141 2.255228 1_555
O0 Si0 1.617402 1_555
O1 Si1 1.625030 1_545
O2 Si2 1.623333 1_555
O3 Si3 1.612254 1_555
O4 S1 1.487043 1_555
O5 S0 1.482226 1_655
O6 Si4 1.604717 1_555
O7 Si5 1.613079 1_555
O8 S3 1.473227 1_555
O9 S2 1.469661 1_555
O10 Si6 1.603927 1_555
O11 Si7 1.613466 1_555
O12 Si6 1.774023 1_565
O12 Ta1 1.839898 1_555
O13 Si7 1.693745 1_565
O13 Ta0 1.913976 1_555
O14 Si4 1.712526 1_555
O14 Ta0 1.949093 1_445
O15 Si5 1.731338 1_555
O15 Ta1 1.925951 1_545
O16 S2 1.507868 1_455
O16 Ta0 2.059302 1_455
O17 S3 1.534907 1_555
O17 Ta1 2.022515 1_555
O18 Si2 1.684346 1_555
O18 Ta3 1.926659 1_555
O19 Si3 1.741244 1_555
O19 Ta2 1.874478 1_555
O20 S0 1.509678 1_555
O20 Ta2 2.070138 1_445
O21 S1 1.491533 1_555
O21 Ta3 2.132743 1_545
O22 Si0 1.714918 1_565
O22 Ta2 1.926729 1_455
O23 Si1 1.687944 1_555
O23 Ta3 1.970330 1_555
O24 S4 1.438005 1_555
O25 S5 1.454825 1_555
O26 Si8 1.612940 1_555
O27 S6 1.460946 1_555
O28 Si9 1.603632 1_555
O29 Si10 1.620215 1_555
O30 S7 1.463527 1_555
O31 S8 1.456250 1_555
O32 Si11 1.619672 1_555
O33 Si12 1.610385 1_555
O34 S9 1.474714 1_555
O35 Si13 1.618693 1_555
O36 S9 1.479877 1_555
O37 Si13 1.636076 1_555
O38 S7 1.469913 1_555
O39 S8 1.473458 1_555
O40 Si11 1.618073 1_555
O41 Si12 1.612919 1_555
O42 Si8 1.646141 1_555
O43 S6 1.494687 1_555
O44 Si9 1.622731 1_555
O45 Si10 1.635880 1_555
O46 S4 1.486596 1_555
O47 S5 1.490724 1_555
O48 S10 1.468287 1_555
O49 S11 1.480003 1_555
O50 S12 1.471800 1_555
O51 S13 1.467271 1_555
O52 Si14 1.636166 1_555
O53 S14 1.479587 1_555
O54 S15 1.475843 1_555
O55 S16 1.472481 1_555
O56 S17 1.481037 1_555
O57 S18 1.484380 1_555
O58 S19 1.466581 1_555
O59 S20 1.476284 1_555
O60 S19 1.485243 1_555
O61 S20 1.484963 1_555
O62 S15 1.479217 1_555
O63 S16 1.483920 1_555
O64 S17 1.480226 1_555
O65 S18 1.478228 1_555
O66 S12 1.483932 1_555
O67 S13 1.492308 1_555
O68 Si14 1.638534 1_555
O69 S14 1.482342 1_555
O70 S10 1.479527 1_555
O71 S11 1.487678 1_555
O72 S19 1.504424 1_555
O73 S20 1.505765 1_555
O74 S15 1.507950 1_555
O75 S16 1.500779 1_555
O76 S17 1.504411 1_555
O77 S18 1.503293 1_555
O78 S12 1.497394 1_555
O79 S13 1.504366 1_555
O80 Si14 1.666843 1_555
O81 S14 1.503587 1_555
O82 S10 1.514478 1_555
O83 S11 1.487280 1_555
O84 S4 1.565883 1_555
O84 Ta1 2.135769 1_545
O85 S5 1.523556 1_555
O85 Ta0 2.122736 1_545
O86 Si8 1.694952 1_555
O86 Ta0 1.983914 1_445
O87 S6 1.529740 1_555
O87 Ta1 2.255814 1_545
O88 Si9 1.737960 1_555
O88 Ta1 1.947052 1_555
O89 Si10 1.679496 1_555
O89 Ta0 1.950950 1_555
O90 S7 1.547134 1_555
O90 Ta3 2.073575 1_555
O91 S8 1.578316 1_555
O91 Ta2 2.071792 1_555
O92 Si11 1.698174 1_555
O92 Ta3 1.908921 1_545
O93 Si12 1.732591 1_555
O93 Ta2 1.935788 1_545
O94 S9 1.545551 1_555
O94 Ta2 2.178102 1_445
O95 Si13 1.701348 1_555
O95 Ta3 1.967433 1_545
O96 Si6 1.612615 1_555
O97 Si7 1.634269 1_555
O98 Si4 1.625359 1_555
O99 Si5 1.620918 1_555
O100 S3 1.458565 1_555
O101 S2 1.479754 1_555
O102 Si2 1.628446 1_555
O103 Si3 1.615903 1_555
O104 S1 1.472804 1_555
O105 S0 1.466999 1_655
O106 Si0 1.618996 1_555
O107 Si1 1.623929 1_545
O108 S10 1.498003 1_555
O109 S11 1.500775 1_555
O110 S13 1.490212 1_555
O111 S12 1.511161 1_655
O112 Si14 1.668020 1_545
O113 S14 1.498579 1_545
O114 S15 1.503463 1_545
O115 S16 1.506117 1_545
O116 S17 1.499158 1_555
O117 S18 1.500433 1_555
O118 S20 1.497097 1_555
O119 S19 1.507921 1_655
O120 S9 1.463065 1_555
O121 Si13 1.613016 1_555
O122 S8 1.459464 1_455
O123 S7 1.477719 1_555
O124 Si11 1.633453 1_565
O125 Si12 1.643670 1_565
O126 Si8 1.613383 1_565
O127 S6 1.471053 1_565
O128 Si9 1.641310 1_555
O129 Si10 1.643064 1_555
O130 S5 1.480581 1_455
O131 S4 1.481418 1_555
O132 Si0 1.630047 1_565
O133 Si1 1.637457 1_555
O134 Si2 1.633930 1_555
O135 Si3 1.624785 1_555
O136 S0 1.480519 1_555
O137 S1 1.482278 1_555
O138 Si4 1.635353 1_555
O139 Si5 1.631193 1_555
O140 S2 1.473216 1_455
O141 S3 1.478345 1_555
O142 Si6 1.611045 1_565
O143 Si7 1.640360 1_565
