# generated using pymatgen
data_Na6Sc2Ta2Si5SO24
_symmetry_space_group_name_H-M   'P 1'
_cell_length_a   9.08188662
_cell_length_b   9.07824726
_cell_length_c   22.62880839
_cell_angle_alpha   89.87274064
_cell_angle_beta   90.15641931
_cell_angle_gamma   119.97758278
_symmetry_Int_Tables_number   1
_chemical_formula_structural   Na6Sc2Ta2Si5SO24
_chemical_formula_sum   'Na18 Sc6 Ta6 Si15 S3 O72'
_cell_volume   1616.09403663
_cell_formula_units_Z   3
loop_
 _symmetry_equiv_pos_site_id
 _symmetry_equiv_pos_as_xyz
  1  'x, y, z'
loop_
 _atom_site_type_symbol
 _atom_site_label
 _atom_site_symmetry_multiplicity
 _atom_site_fract_x
 _atom_site_fract_y
 _atom_site_fract_z
 _atom_site_occupancy
  Na  Na0  1  0.64185883  0.01378642  0.24851373  1
  Na  Na1  1  0.36648307  0.35364225  0.25269859  1
  Na  Na2  1  0.99022065  0.62939654  0.24819291  1
  Na  Na3  1  0.99369715  0.35750665  0.74940388  1
  Na  Na4  1  0.29868021  0.34212259  0.58055555  1
  Na  Na5  1  0.66074017  0.95972752  0.58031299  1
  Na  Na6  1  0.66760136  0.69958622  0.07667858  1
  Na  Na7  1  0.02126557  0.33753569  0.08035396  1
  Na  Na8  1  0.95601566  0.66353630  0.91274727  1
  Na  Na9  1  0.71300624  0.03590659  0.91810922  1
  Na  Na10  1  0.32942663  0.30491316  0.91289808  1
  Na  Na11  1  0.69806879  0.67452447  0.41663511  1
  Na  Na12  1  0.00778615  0.01212966  0.49518590  1
  Na  Na13  1  0.99189080  0.99608253  0.99699986  1
  Na  Na14  1  0.66453144  0.34144998  0.83129713  1
  Na  Na15  1  0.66105543  0.32116991  0.33222440  1
  Na  Na16  1  0.32984559  0.68667533  0.16192089  1
  Na  Na17  1  0.33018470  0.67553922  0.66130066  1
  Sc  Sc0  1  0.00541229  0.01422041  0.35317183  1
  Sc  Sc1  1  0.99188053  0.99879437  0.84752538  1
  Sc  Sc2  1  0.67470454  0.32886536  0.18501829  1
  Sc  Sc3  1  0.68884350  0.34603858  0.98207230  1
  Sc  Sc4  1  0.33546322  0.67207258  0.01859744  1
  Sc  Sc5  1  0.33599259  0.66384438  0.52164351  1
  Ta  Ta0  1  0.99666140  0.99334984  0.64690972  1
  Ta  Ta1  1  0.99338680  0.99257151  0.15040883  1
  Ta  Ta2  1  0.66523716  0.33454906  0.68703479  1
  Ta  Ta3  1  0.65454045  0.32020885  0.48128317  1
  Ta  Ta4  1  0.34489744  0.67123956  0.31382887  1
  Ta  Ta5  1  0.33471883  0.65418809  0.80741557  1
  Si  Si0  1  0.29051215  0.00035865  0.25199418  1
  Si  Si1  1  0.70901771  0.70588972  0.25362152  1
  Si  Si2  1  0.00221801  0.29368781  0.25015011  1
  Si  Si3  1  0.29246428  0.28227977  0.75054983  1
  Si  Si4  1  -0.00015719  0.70916870  0.75185157  1
  Si  Si5  1  0.70477454  0.99834403  0.74972650  1
  Si  Si6  1  0.95565462  0.33513313  0.58456816  1
  Si  Si7  1  0.37257234  0.04120325  0.58542988  1
  Si  Si8  1  0.67298723  0.62334425  0.58202016  1
  Si  Si9  1  0.96686933  0.63361754  0.08446770  1
  Si  Si10  1  0.66419881  0.03548178  0.08389249  1
  Si  Si11  1  0.62584184  0.66589117  0.91790870  1
  Si  Si12  1  0.04444947  0.37384517  0.91713165  1
  Si  Si13  1  0.62787770  0.96164588  0.41950190  1
  Si  Si14  1  0.33210966  0.37081615  0.41971337  1
  S  S0  1  0.36815625  0.32568101  0.08341449  1
  S  S1  1  0.33285367  0.95546146  0.91510723  1
  S  S2  1  0.04152477  0.66185405  0.41633395  1
  O  O0  1  0.20247079  0.03334419  0.30658262  1
  O  O1  1  0.82501875  0.78571527  0.31026094  1
  O  O2  1  0.96134818  0.16650874  0.30437619  1
  O  O3  1  0.21440612  0.18171794  0.81112620  1
  O  O4  1  0.96996735  0.78469459  0.81165673  1
  O  O5  1  0.82177659  0.04158218  0.80825135  1
  O  O6  1  0.80051785  0.97116481  0.69185506  1
  O  O7  1  0.16399012  0.19615404  0.69310285  1
  O  O8  1  0.02575249  0.83547133  0.69468331  1
  O  O9  1  0.79912731  0.83513804  0.19424841  1
  O  O10  1  0.03918556  0.20604424  0.19061421  1
  O  O11  1  0.16186563  0.96638177  0.19335399  1
  O  O12  1  0.85988740  0.35229173  0.64285636  1
  O  O13  1  0.50154857  0.14515117  0.64003503  1
  O  O14  1  0.64692987  0.49796796  0.63811940  1
  O  O15  1  0.87411970  0.51805388  0.14216298  1
  O  O16  1  0.64360589  0.12288900  0.14305152  1
  O  O17  1  0.47372652  0.35172742  0.13665473  1
  O  O18  1  0.44807815  0.30451076  0.02938399  1
  O  O19  1  0.84425218  0.55561064  0.02557975  1
  O  O20  1  0.70124357  0.15559150  0.02514703  1
  O  O21  1  0.46667289  0.17041627  0.52663251  1
  O  O22  1  0.69809451  0.53177519  0.52260636  1
  O  O23  1  0.82495471  0.30206371  0.52785022  1
  O  O24  1  0.54184214  0.69806641  0.97613727  1
  O  O25  1  0.15857073  0.46400528  0.97531666  1
  O  O26  1  0.30730058  0.85223928  0.96896157  1
  O  O27  1  0.53476651  0.84573940  0.47629806  1
  O  O28  1  0.31419431  0.46336787  0.47713358  1
  O  O29  1  0.14652404  0.68377493  0.46901068  1
  O  O30  1  0.12565088  0.64213266  0.36151432  1
  O  O31  1  0.50142354  0.86344390  0.35921733  1
  O  O32  1  0.36071274  0.50141760  0.36017428  1
  O  O33  1  0.14265497  0.50033994  0.85858040  1
  O  O34  1  0.35855226  0.87380591  0.86295071  1
  O  O35  1  0.49664940  0.64693949  0.86084766  1
  O  O36  1  0.01794524  0.81117998  0.41123292  1
  O  O37  1  0.80681610  0.96636956  0.41231435  1
  O  O38  1  0.17383288  0.18344070  0.41313691  1
  O  O39  1  0.02750972  0.18689175  0.91280871  1
  O  O40  1  0.18090803  0.97413195  0.91093188  1
  O  O41  1  0.81538239  0.83095228  0.91240293  1
  O  O42  1  0.96585905  0.15667030  0.59053274  1
  O  O43  1  0.19067247  0.03874527  0.59170445  1
  O  O44  1  0.84075126  0.81524117  0.59014741  1
  O  O45  1  0.97834496  0.82322149  0.09203821  1
  O  O46  1  0.84753559  0.02766364  0.09102517  1
  O  O47  1  0.19628327  0.17628799  0.08859238  1
  O  O48  1  0.68950393  0.16992309  0.74037350  1
  O  O49  1  0.48406150  0.31618006  0.74066742  1
  O  O50  1  0.83871002  0.51545781  0.74113525  1
  O  O51  1  0.67080604  0.51534933  0.24183135  1
  O  O52  1  0.84083397  0.32254350  0.24445586  1
  O  O53  1  0.47843724  0.16138383  0.24324760  1
  O  O54  1  0.62805837  0.48623848  0.91917920  1
  O  O55  1  0.85544255  0.35822427  0.91804541  1
  O  O56  1  0.48651709  0.12675986  0.92088141  1
  O  O57  1  0.64371562  0.15203813  0.42339610  1
  O  O58  1  0.51944833  0.37403128  0.42178592  1
  O  O59  1  0.87092551  0.50669045  0.41980559  1
  O  O60  1  0.35134473  0.48109661  0.07921273  1
  O  O61  1  0.14827461  0.64247142  0.07857760  1
  O  O62  1  0.51127969  0.84018845  0.08045503  1
  O  O63  1  0.36375053  0.86126909  0.57972941  1
  O  O64  1  0.50544318  0.64311884  0.58064132  1
  O  O65  1  0.14571342  0.49372062  0.58046541  1
  O  O66  1  0.30058492  0.82123070  0.25766617  1
  O  O67  1  0.52016844  0.69924011  0.25729003  1
  O  O68  1  0.17681754  0.48357278  0.25824592  1
  O  O69  1  0.30391142  0.47436377  0.75591467  1
  O  O70  1  0.16949879  0.68388430  0.75728867  1
  O  O71  1  0.51480640  0.82941092  0.75818438  1
loop_
_geom_bond_atom_site_label_1
_geom_bond_atom_site_label_2
_geom_bond_distance
_geom_bond_site_symmetry_2
Na0 O53 2.449091 1_555
Na0 O52 2.463457 1_555
Na0 O67 2.501970 1_545
Na0 O16 2.578870 1_555
Na0 O66 2.700476 1_545
Na0 O2 2.811919 1_555
Na0 O31 2.833313 1_545
Na0 O9 2.917443 1_545
Na1 O51 2.408692 1_555
Na1 O53 2.429424 1_555
Na1 O68 2.531087 1_555
Na1 O67 2.725234 1_555
Na1 O32 2.793345 1_555
Na1 O0 2.797567 1_555
Na1 O17 2.806340 1_555
Na1 O10 2.934301 1_555
Na2 O52 2.414846 1_555
Na2 O66 2.473207 1_655
Na2 O51 2.550452 1_555
Na2 O15 2.611929 1_555
Na2 O68 2.629556 1_655
Na2 O30 2.818499 1_655
Na2 O1 2.895795 1_555
Na2 O11 2.925219 1_655
Na3 O48 2.423017 1_555
Na3 O50 2.467135 1_555
Na3 O69 2.469037 1_655
Na3 O70 2.575527 1_655
Na3 O12 2.686858 1_555
Na3 O33 2.803218 1_655
Na3 O5 2.820668 1_555
Na3 O7 2.905793 1_655
Na4 O65 2.394702 1_555
Na4 O64 2.421807 1_555
Na4 O43 2.430972 1_555
Na4 O28 2.558092 1_555
Na4 O42 2.634087 1_455
Na4 O7 2.849686 1_555
Na4 O21 2.939681 1_555
Na4 O14 3.035713 1_555
Na5 O63 2.380077 1_555
Na5 O42 2.444614 1_565
Na5 O64 2.489874 1_555
Na5 O44 2.565618 1_555
Na5 O27 2.594769 1_555
Na5 O6 2.800915 1_555
Na5 O23 2.941696 1_565
Na5 O13 3.033642 1_565
Na6 O62 2.337550 1_555
Na6 O45 2.485158 1_555
Na6 O24 2.539896 1_554
Na6 O60 2.548405 1_555
Na6 O46 2.604633 1_565
Na6 O19 2.780577 1_555
Na6 O9 2.923609 1_555
Na7 O61 2.409208 1_555
Na7 O46 2.454554 1_455
Na7 O60 2.604167 1_555
Na7 O47 2.650744 1_555
Na7 O25 2.663833 1_554
Na7 O10 2.802756 1_555
Na7 O20 2.815682 1_455
Na7 O15 2.938822 1_455
Na8 O41 2.425079 1_555
Na8 O55 2.449522 1_555
Na8 O4 2.511952 1_555
Na8 O40 2.523612 1_655
Na8 O54 2.587219 1_555
Na8 O19 2.742008 1_556
Na9 O41 2.464462 1_545
Na9 O39 2.477954 1_655
Na9 O55 2.540222 1_555
Na9 O56 2.571300 1_555
Na9 O5 2.668411 1_555
Na9 O20 2.681008 1_556
Na10 O54 2.371300 1_555
Na10 O39 2.393853 1_555
Na10 O3 2.544902 1_555
Na10 O40 2.606032 1_545
Na10 O56 2.643273 1_555
Na10 O18 2.845653 1_556
Na10 O35 2.935291 1_555
Na10 O25 2.957924 1_555
Na11 O37 2.321421 1_555
Na11 O58 2.379954 1_555
Na11 O36 2.528478 1_655
Na11 O1 2.642685 1_555
Na11 O59 2.679605 1_555
Na11 O22 2.723289 1_555
Na11 O32 2.943643 1_555
Na11 O27 2.960100 1_555
Na12 O38 2.408065 1_555
Na12 O37 2.499528 1_445
Na12 O42 2.652987 1_455
Na12 O36 2.670225 1_545
Na12 O43 2.677484 1_555
Na12 O44 2.721175 1_445
Na13 O41 2.464988 1_555
Na13 O39 2.482644 1_665
Na13 O46 2.592594 1_566
Na13 O45 2.626097 1_556
Na13 O40 2.672372 1_655
Na13 O47 2.716102 1_666
Na14 O54 2.498508 1_555
Na14 O49 2.559867 1_555
Na14 O55 2.569371 1_555
Na14 O50 2.581958 1_555
Na14 O48 2.660672 1_555
Na14 O56 2.715394 1_555
Na15 O57 2.526815 1_555
Na15 O53 2.549383 1_555
Na15 O52 2.570562 1_555
Na15 O58 2.574283 1_555
Na15 O51 2.669893 1_555
Na15 O59 2.680197 1_555
Na16 O61 2.400458 1_555
Na16 O62 2.401268 1_555
Na16 O66 2.568307 1_555
Na16 O60 2.721338 1_555
Na16 O67 2.727955 1_555
Na16 O68 2.742308 1_555
Na17 O63 2.412192 1_555
Na17 O65 2.471938 1_555
Na17 O64 2.537302 1_555
Na17 O70 2.642329 1_555
Na17 O71 2.687388 1_555
Na17 O69 2.743393 1_555
O0 Si0 1.581520 1_555
O0 Sc0 2.010843 1_555
O1 Si1 1.584791 1_555
O1 Sc0 2.129367 1_665
O2 Si2 1.595127 1_655
O2 Sc0 1.958164 1_655
O3 Si3 1.602500 1_555
O3 Sc1 2.041960 1_445
O4 Si4 1.602258 1_655
O4 Sc1 2.023799 1_555
O5 Si5 1.617066 1_545
O5 Sc1 1.979386 1_545
O6 Si5 1.659509 1_555
O6 Ta0 1.974500 1_555
O7 Si3 1.657461 1_555
O7 Ta0 1.998900 1_445
O8 Si4 1.664048 1_555
O8 Ta0 1.913818 1_455
O9 Si1 1.700294 1_555
O9 Ta1 1.903375 1_555
O10 Si2 1.683738 1_555
O10 Ta1 1.989136 1_445
O11 Si0 1.689445 1_565
O11 Ta1 1.922640 1_455
O12 Si6 1.631879 1_555
O12 Ta2 1.968458 1_555
O13 Si7 1.637698 1_555
O13 Ta2 1.934585 1_555
O14 Si8 1.639839 1_555
O14 Ta2 1.921459 1_555
O15 Si9 1.622195 1_555
O15 Sc2 2.015937 1_555
O16 Si10 1.615899 1_555
O16 Sc2 1.989175 1_555
O17 S0 1.481561 1_555
O17 Sc2 2.222394 1_555
O18 S0 1.484567 1_555
O18 Sc3 2.292763 1_554
O19 Si9 1.650859 1_555
O19 Sc3 1.974416 1_554
O20 Si10 1.642766 1_555
O20 Sc3 2.034319 1_554
O21 Si7 1.695316 1_555
O21 Ta3 1.870333 1_555
O22 Si8 1.657309 1_555
O22 Ta3 1.991612 1_555
O23 Si6 1.668428 1_555
O23 Ta3 1.943696 1_555
O24 Si11 1.622764 1_555
O24 Sc4 2.014630 1_556
O25 Si12 1.620899 1_555
O25 Sc4 2.018701 1_556
O26 S1 1.481975 1_555
O26 Sc4 2.100120 1_556
O27 Si13 1.607737 1_555
O27 Sc5 2.015488 1_555
O28 Si14 1.601047 1_555
O28 Sc5 2.003239 1_555
O29 S2 1.474801 1_555
O29 Sc5 2.170521 1_555
O30 S2 1.515747 1_555
O30 Ta4 2.164173 1_555
O31 Si13 1.717077 1_555
O31 Ta4 1.908285 1_555
O32 Si14 1.724949 1_555
O32 Ta4 1.926283 1_555
O33 Si12 1.686962 1_555
O33 Ta5 1.975616 1_555
O34 S1 1.474867 1_555
O34 Ta5 2.275859 1_555
O35 Si11 1.692484 1_555
O35 Ta5 1.927609 1_555
O36 S2 1.478566 1_555
O36 Sc0 2.309725 1_565
O37 Si13 1.612764 1_555
O37 Sc0 2.111995 1_665
O38 Si14 1.593237 1_555
O38 Sc0 2.047100 1_555
O39 Si12 1.628951 1_555
O39 Sc1 2.158559 1_445
O40 S1 1.474748 1_555
O40 Sc1 2.329204 1_455
O41 Si11 1.626881 1_555
O41 Sc1 2.146760 1_555
O42 Si6 1.673509 1_555
O42 Ta0 2.075621 1_545
O43 Si7 1.647474 1_555
O43 Ta0 2.029556 1_445
O44 Si8 1.654544 1_555
O44 Ta0 1.995134 1_555
O45 Si9 1.680752 1_555
O45 Ta1 1.981183 1_555
O46 Si10 1.708812 1_555
O46 Ta1 2.017894 1_545
O47 S0 1.474563 1_555
O47 Ta1 2.250860 1_445
O48 Si5 1.644540 1_545
O48 Ta2 2.014612 1_555
O49 Si3 1.624566 1_555
O49 Ta2 1.985935 1_555
O50 Si4 1.649570 1_655
O50 Ta2 2.022572 1_555
O51 Si1 1.607914 1_555
O51 Sc2 2.142414 1_555
O52 Si2 1.617382 1_655
O52 Sc2 2.040543 1_555
O53 Si0 1.611308 1_555
O53 Sc2 2.126217 1_555
O54 Si11 1.641270 1_555
O54 Sc3 2.154064 1_555
O55 Si12 1.650445 1_655
O55 Sc3 2.060261 1_555
O56 S1 1.487990 1_545
O56 Sc3 2.366322 1_555
O57 Si13 1.663755 1_545
O57 Ta3 1.978518 1_555
O58 Si14 1.687519 1_555
O58 Ta3 2.035632 1_555
O59 S2 1.486636 1_655
O59 Ta3 2.311514 1_555
O60 S0 1.495857 1_555
O60 Sc4 2.268544 1_555
O61 Si9 1.614716 1_455
O61 Sc4 2.087811 1_555
O62 Si10 1.617875 1_565
O62 Sc4 2.097666 1_555
O63 Si7 1.600448 1_565
O63 Sc5 2.135559 1_555
O64 Si8 1.619014 1_555
O64 Sc5 2.112603 1_555
O65 Si6 1.605508 1_455
O65 Sc5 2.116513 1_555
O66 Si0 1.678372 1_565
O66 Ta4 2.041660 1_555
O67 Si1 1.688022 1_555
O67 Ta4 1.959750 1_555
O68 Si2 1.669660 1_555
O68 Ta4 2.053009 1_555
O69 Si3 1.698836 1_555
O69 Ta5 1.910942 1_555
O70 Si4 1.671571 1_555
O70 Ta5 2.001117 1_555
O71 Si5 1.649714 1_555
O71 Ta5 1.961788 1_555
