# generated using pymatgen
data_NaNbIn(PO4)3
_symmetry_space_group_name_H-M   'P 1'
_cell_length_a   8.83615032
_cell_length_b   8.83615004
_cell_length_c   23.16448968
_cell_angle_alpha   90.00000000
_cell_angle_beta   90.00000000
_cell_angle_gamma   120.00000107
_symmetry_Int_Tables_number   1
_chemical_formula_structural   NaNbIn(PO4)3
_chemical_formula_sum   'Na6 Nb6 In6 P18 O72'
_cell_volume   1566.31656502
_cell_formula_units_Z   6
loop_
 _symmetry_equiv_pos_site_id
 _symmetry_equiv_pos_as_xyz
  1  'x, y, z'
loop_
 _atom_site_type_symbol
 _atom_site_label
 _atom_site_symmetry_multiplicity
 _atom_site_fract_x
 _atom_site_fract_y
 _atom_site_fract_z
 _atom_site_occupancy
  Na  Na0  1  -0.00000000  -0.00000000  0.49696202  1
  Na  Na1  1  -0.00000000  -0.00000000  0.99696202  1
  Na  Na2  1  0.66666700  0.33333300  0.83029502  1
  Na  Na3  1  0.66666700  0.33333300  0.33029502  1
  Na  Na4  1  0.33333300  0.66666700  0.16362902  1
  Na  Na5  1  0.33333300  0.66666700  0.66362902  1
  Nb  Nb0  1  -0.00000000  -0.00000000  0.64547791  1
  Nb  Nb1  1  -0.00000000  -0.00000000  0.14547791  1
  Nb  Nb2  1  0.66666700  0.33333300  0.97881091  1
  Nb  Nb3  1  0.66666700  0.33333300  0.47881091  1
  Nb  Nb4  1  0.33333300  0.66666700  0.31214491  1
  Nb  Nb5  1  0.33333300  0.66666700  0.81214491  1
  In  In0  1  -0.00000000  -0.00000000  0.35182306  1
  In  In1  1  -0.00000000  -0.00000000  0.85182306  1
  In  In2  1  0.66666700  0.33333300  0.68515606  1
  In  In3  1  0.66666700  0.33333300  0.18515606  1
  In  In4  1  0.33333300  0.66666700  0.01849006  1
  In  In5  1  0.33333300  0.66666700  0.51849006  1
  P  P0  1  0.29026959  0.00116552  0.25057486  1
  P  P1  1  0.71089593  0.70973041  0.25057486  1
  P  P2  1  0.99883448  0.28910407  0.25057486  1
  P  P3  1  0.29026959  0.28910407  0.75057486  1
  P  P4  1  0.99883448  0.70973041  0.75057486  1
  P  P5  1  0.71089593  0.00116552  0.75057486  1
  P  P6  1  0.95693659  0.33449852  0.58390786  1
  P  P7  1  0.37756293  0.04306341  0.58390786  1
  P  P8  1  0.66550148  0.62243707  0.58390786  1
  P  P9  1  0.95693659  0.62243707  0.08390786  1
  P  P10  1  0.66550148  0.04306341  0.08390786  1
  P  P11  1  0.37756293  0.33449852  0.08390786  1
  P  P12  1  0.62360259  0.66783252  0.91724186  1
  P  P13  1  0.04422893  0.37639741  0.91724186  1
  P  P14  1  0.33216748  0.95577107  0.91724186  1
  P  P15  1  0.62360259  0.95577107  0.41724186  1
  P  P16  1  0.33216748  0.37639741  0.41724186  1
  P  P17  1  0.04422893  0.66783252  0.41724186  1
  O  O0  1  0.21282685  0.02839871  0.30463372  1
  O  O1  1  0.81557186  0.78717315  0.30463372  1
  O  O2  1  0.97160129  0.18442814  0.30463372  1
  O  O3  1  0.21282685  0.18442814  0.80463372  1
  O  O4  1  0.97160129  0.78717315  0.80463372  1
  O  O5  1  0.81557186  0.02839871  0.80463372  1
  O  O6  1  0.79973394  0.97014169  0.69578771  1
  O  O7  1  0.17040775  0.20026606  0.69578771  1
  O  O8  1  0.02985831  0.82959225  0.69578771  1
  O  O9  1  0.79973394  0.82959225  0.19578771  1
  O  O10  1  0.02985831  0.20026606  0.19578771  1
  O  O11  1  0.17040775  0.97014169  0.19578771  1
  O  O12  1  0.87949385  0.36173171  0.63796672  1
  O  O13  1  0.48223886  0.12050615  0.63796672  1
  O  O14  1  0.63826829  0.51776114  0.63796672  1
  O  O15  1  0.87949385  0.51776114  0.13796672  1
  O  O16  1  0.63826829  0.12050615  0.13796672  1
  O  O17  1  0.48223886  0.36173171  0.13796672  1
  O  O18  1  0.46640094  0.30347469  0.02912071  1
  O  O19  1  0.83707475  0.53359906  0.02912071  1
  O  O20  1  0.69652531  0.16292525  0.02912071  1
  O  O21  1  0.46640094  0.16292525  0.52912071  1
  O  O22  1  0.69652531  0.53359906  0.52912071  1
  O  O23  1  0.83707475  0.30347469  0.52912071  1
  O  O24  1  0.54615985  0.69506571  0.97130072  1
  O  O25  1  0.14890486  0.45384015  0.97130072  1
  O  O26  1  0.30493429  0.85109514  0.97130072  1
  O  O27  1  0.54615985  0.85109514  0.47130072  1
  O  O28  1  0.30493429  0.45384015  0.47130072  1
  O  O29  1  0.14890486  0.69506571  0.47130072  1
  O  O30  1  0.13306694  0.63680869  0.36245471  1
  O  O31  1  0.50374075  0.86693306  0.36245471  1
  O  O32  1  0.36319131  0.49625925  0.36245471  1
  O  O33  1  0.13306694  0.49625925  0.86245471  1
  O  O34  1  0.36319131  0.86693306  0.86245471  1
  O  O35  1  0.50374075  0.63680869  0.86245471  1
  O  O36  1  0.01591188  0.82270409  0.41016571  1
  O  O37  1  0.80679221  0.98408812  0.41016571  1
  O  O38  1  0.17729591  0.19320779  0.41016571  1
  O  O39  1  0.01591188  0.19320779  0.91016571  1
  O  O40  1  0.17729591  0.98408812  0.91016571  1
  O  O41  1  0.80679221  0.82270409  0.91016571  1
  O  O42  1  0.96956660  0.16216934  0.59075033  1
  O  O43  1  0.19260274  0.03043340  0.59075033  1
  O  O44  1  0.83783066  0.80739726  0.59075033  1
  O  O45  1  0.96956660  0.80739726  0.09075033  1
  O  O46  1  0.83783066  0.03043340  0.09075033  1
  O  O47  1  0.19260274  0.16216934  0.09075033  1
  O  O48  1  0.68257888  0.15603709  0.74349871  1
  O  O49  1  0.47345921  0.31742112  0.74349871  1
  O  O50  1  0.84396291  0.52654079  0.74349871  1
  O  O51  1  0.68257888  0.52654079  0.24349871  1
  O  O52  1  0.84396291  0.31742112  0.24349871  1
  O  O53  1  0.47345921  0.15603709  0.24349871  1
  O  O54  1  0.63623360  0.49550234  0.92408333  1
  O  O55  1  0.85926974  0.36376640  0.92408333  1
  O  O56  1  0.50449766  0.14073026  0.92408333  1
  O  O57  1  0.63623360  0.14073026  0.42408333  1
  O  O58  1  0.50449766  0.36376640  0.42408333  1
  O  O59  1  0.85926974  0.49550234  0.42408333  1
  O  O60  1  0.34924488  0.48937109  0.07683271  1
  O  O61  1  0.14012521  0.65075512  0.07683271  1
  O  O62  1  0.51062891  0.85987479  0.07683271  1
  O  O63  1  0.34924488  0.85987479  0.57683271  1
  O  O64  1  0.51062891  0.65075512  0.57683271  1
  O  O65  1  0.14012521  0.48937109  0.57683271  1
  O  O66  1  0.30289960  0.82883634  0.25741733  1
  O  O67  1  0.52593574  0.69710040  0.25741733  1
  O  O68  1  0.17116366  0.47406426  0.25741733  1
  O  O69  1  0.30289960  0.47406426  0.75741733  1
  O  O70  1  0.17116366  0.69710040  0.75741733  1
  O  O71  1  0.52593574  0.82883634  0.75741733  1
loop_
_geom_bond_atom_site_label_1
_geom_bond_atom_site_label_2
_geom_bond_distance
_geom_bond_site_symmetry_2
Na0 O38 2.595533 1_555
Na0 O36 2.595533 1_545
Na0 O37 2.595533 1_445
Na0 O44 2.689055 1_445
Na0 O42 2.689055 1_455
Na0 O43 2.689055 1_555
Na1 O39 2.595533 1_555
Na1 O41 2.595533 1_445
Na1 O40 2.595533 1_545
Na1 O45 2.689055 1_446
Na1 O47 2.689055 1_556
Na1 O46 2.689055 1_456
Na2 O50 2.595533 1_555
Na2 O48 2.595533 1_555
Na2 O49 2.595533 1_555
Na2 O56 2.689055 1_555
Na2 O54 2.689055 1_555
Na2 O55 2.689055 1_555
Na3 O51 2.595533 1_555
Na3 O53 2.595533 1_555
Na3 O52 2.595533 1_555
Na3 O57 2.689055 1_555
Na3 O59 2.689055 1_555
Na3 O58 2.689055 1_555
Na4 O62 2.595533 1_555
Na4 O60 2.595533 1_555
Na4 O61 2.595533 1_555
Na4 O68 2.689055 1_555
Na4 O66 2.689055 1_555
Na4 O67 2.689055 1_555
Na5 O63 2.595533 1_555
Na5 O65 2.595533 1_555
Na5 O64 2.595533 1_555
Na5 O69 2.689055 1_555
Na5 O71 2.689055 1_555
Na5 O70 2.689055 1_555
Nb0 O7 2.022946 1_555
Nb0 O8 2.022946 1_545
Nb0 O6 2.022946 1_445
Nb0 O44 2.029326 1_445
Nb0 O42 2.029326 1_455
Nb0 O43 2.029326 1_555
Nb1 O10 2.022946 1_555
Nb1 O9 2.022946 1_445
Nb1 O11 2.022946 1_545
Nb1 O45 2.029326 1_445
Nb1 O47 2.029326 1_555
Nb1 O46 2.029326 1_455
Nb2 O19 2.022946 1_556
Nb2 O20 2.022946 1_556
Nb2 O18 2.022946 1_556
Nb2 O56 2.029326 1_555
Nb2 O54 2.029326 1_555
Nb2 O55 2.029326 1_555
Nb3 O22 2.022946 1_555
Nb3 O21 2.022946 1_555
Nb3 O23 2.022946 1_555
Nb3 O57 2.029326 1_555
Nb3 O59 2.029326 1_555
Nb3 O58 2.029326 1_555
Nb4 O31 2.022946 1_555
Nb4 O32 2.022946 1_555
Nb4 O30 2.022946 1_555
Nb4 O68 2.029326 1_555
Nb4 O66 2.029326 1_555
Nb4 O67 2.029326 1_555
Nb5 O34 2.022946 1_555
Nb5 O33 2.022946 1_555
Nb5 O35 2.022946 1_555
Nb5 O69 2.029326 1_555
Nb5 O71 2.029326 1_555
Nb5 O70 2.029326 1_555
In0 O1 2.079066 1_445
In0 O2 2.079066 1_455
In0 O0 2.079066 1_555
In0 O38 2.126218 1_555
In0 O36 2.126218 1_545
In0 O37 2.126218 1_445
In1 O4 2.079066 1_445
In1 O3 2.079066 1_555
In1 O5 2.079066 1_455
In1 O39 2.126218 1_555
In1 O41 2.126218 1_445
In1 O40 2.126218 1_545
In2 O13 2.079066 1_555
In2 O14 2.079066 1_555
In2 O12 2.079066 1_555
In2 O50 2.126218 1_555
In2 O48 2.126218 1_555
In2 O49 2.126218 1_555
In3 O16 2.079066 1_555
In3 O15 2.079066 1_555
In3 O17 2.079066 1_555
In3 O51 2.126218 1_555
In3 O53 2.126218 1_555
In3 O52 2.126218 1_555
In4 O25 2.079066 1_554
In4 O26 2.079066 1_554
In4 O24 2.079066 1_554
In4 O62 2.126218 1_555
In4 O60 2.126218 1_555
In4 O61 2.126218 1_555
In5 O28 2.079066 1_555
In5 O27 2.079066 1_555
In5 O29 2.079066 1_555
In5 O63 2.126218 1_555
In5 O65 2.126218 1_555
In5 O64 2.126218 1_555
O0 P0 1.502981 1_555
O1 P1 1.502981 1_555
O2 P2 1.502981 1_555
O3 P3 1.502981 1_555
O4 P4 1.502981 1_555
O5 P5 1.502981 1_555
O6 P5 1.586568 1_565
O7 P3 1.586568 1_555
O8 P4 1.586568 1_455
O9 P1 1.586568 1_555
O10 P2 1.586568 1_455
O11 P0 1.586568 1_565
O12 P6 1.502981 1_555
O13 P7 1.502981 1_555
O14 P8 1.502981 1_555
O15 P9 1.502981 1_555
O16 P10 1.502981 1_555
O17 P11 1.502981 1_555
O18 P11 1.586568 1_555
O19 P9 1.586568 1_555
O20 P10 1.586568 1_555
O21 P7 1.586568 1_555
O22 P8 1.586568 1_555
O23 P6 1.586568 1_555
O24 P12 1.502981 1_555
O25 P13 1.502981 1_555
O26 P14 1.502981 1_555
O27 P15 1.502981 1_555
O28 P16 1.502981 1_555
O29 P17 1.502981 1_555
O30 P17 1.586568 1_555
O31 P15 1.586568 1_555
O32 P16 1.586568 1_555
O33 P13 1.586568 1_555
O34 P14 1.586568 1_555
O35 P12 1.586568 1_555
O36 P17 1.518088 1_555
O37 P15 1.518097 1_555
O38 P16 1.518093 1_555
O39 P13 1.518096 1_555
O40 P14 1.518088 1_555
O41 P12 1.518093 1_555
O42 P6 1.589406 1_555
O43 P7 1.589415 1_555
O44 P8 1.589411 1_555
O45 P9 1.589415 1_555
O46 P10 1.589406 1_555
O47 P11 1.589411 1_555
O48 P5 1.518088 1_555
O49 P3 1.518097 1_555
O50 P4 1.518093 1_555
O51 P1 1.518096 1_555
O52 P2 1.518088 1_555
O53 P0 1.518093 1_555
O54 P12 1.589417 1_555
O55 P13 1.589400 1_655
O56 P14 1.589407 1_545
O57 P15 1.589400 1_545
O58 P16 1.589417 1_555
O59 P17 1.589407 1_655
O60 P11 1.518099 1_555
O61 P9 1.518082 1_455
O62 P10 1.518089 1_565
O63 P7 1.518082 1_565
O64 P8 1.518099 1_555
O65 P6 1.518089 1_455
O66 P0 1.589406 1_565
O67 P1 1.589415 1_555
O68 P2 1.589411 1_455
O69 P3 1.589415 1_555
O70 P4 1.589406 1_455
O71 P5 1.589411 1_565
