# generated using pymatgen
data_Sr2MgMnSbO6
_symmetry_space_group_name_H-M   'P 1'
_cell_length_a   6.17185219
_cell_length_b   6.83462720
_cell_length_c   5.55318685
_cell_angle_alpha   64.02384555
_cell_angle_beta   71.71564907
_cell_angle_gamma   108.96439368
_symmetry_Int_Tables_number   1
_chemical_formula_structural   Sr2MgMnSbO6
_chemical_formula_sum   'Sr2 Mg1 Mn1 Sb1 O6'
_cell_volume   168.07129952
_cell_formula_units_Z   1
loop_
 _symmetry_equiv_pos_site_id
 _symmetry_equiv_pos_as_xyz
  1  'x, y, z'
loop_
 _atom_site_type_symbol
 _atom_site_label
 _atom_site_symmetry_multiplicity
 _atom_site_fract_x
 _atom_site_fract_y
 _atom_site_fract_z
 _atom_site_occupancy
  Sr  Sr0  1  0.31868749  0.73775907  0.44008206  1
  Sr  Sr1  1  0.68131251  0.26224093  0.55991794  1
  Mg  Mg0  1  0.00000000  0.00000000  0.50000000  1
  Mn  Mn0  1  0.50000000  0.50000000  -0.00000000  1
  Sb  Sb0  1  0.00000000  0.00000000  -0.00000000  1
  O  O0  1  0.81611343  0.67564832  0.51177115  1
  O  O1  1  0.18388657  0.32435168  0.48822885  1
  O  O2  1  0.67122260  0.85154223  0.92929248  1
  O  O3  1  0.32877740  0.14845777  0.07070752  1
  O  O4  1  0.16794810  0.85835359  0.78723769  1
  O  O5  1  0.83205190  0.14164641  0.21276231  1
loop_
_geom_bond_atom_site_label_1
_geom_bond_atom_site_label_2
_geom_bond_distance
_geom_bond_site_symmetry_2
Mg0 O2 2.082732 1_445
Mg0 O3 2.082732 1_555
Mg0 O0 2.097113 1_445
Mg0 O1 2.097113 1_555
Mg0 O4 2.211992 1_545
Mg0 O5 2.211992 1_455
Mn0 O2 2.075244 1_554
Mn0 O3 2.075244 1_555
Mn0 O1 2.214901 1_555
Mn0 O0 2.214901 1_554
O0 Sb0 2.258570 1_665
O0 Sr1 2.533340 1_555
O0 Sr0 2.860288 1_655
O1 Sb0 2.258570 1_556
O1 Sr0 2.533340 1_555
O1 Sr1 2.860288 1_455
O2 Sb0 2.193614 1_666
O2 Sr0 2.545594 1_556
O2 Sr1 2.617816 1_565
O3 Sb0 2.193614 1_555
O3 Sr1 2.545594 1_554
O3 Sr0 2.617816 1_545
O4 Sb0 2.072045 1_566
O4 Sr0 2.454848 1_555
O4 Sr1 2.829394 1_565
O5 Sb0 2.072045 1_655
O5 Sr1 2.454848 1_555
O5 Sr0 2.829394 1_545
