# generated using pymatgen
data_Eu(Ni5P3)2
_symmetry_space_group_name_H-M   'P 1'
_cell_length_a   8.55147644
_cell_length_b   8.55147644
_cell_length_c   8.63919460
_cell_angle_alpha   90.00000000
_cell_angle_beta   90.00000000
_cell_angle_gamma   136.26058426
_symmetry_Int_Tables_number   1
_chemical_formula_structural   Eu(Ni5P3)2
_chemical_formula_sum   'Eu2 Ni20 P12'
_cell_volume   436.78933534
_cell_formula_units_Z   2
loop_
 _symmetry_equiv_pos_site_id
 _symmetry_equiv_pos_as_xyz
  1  'x, y, z'
loop_
 _atom_site_type_symbol
 _atom_site_label
 _atom_site_symmetry_multiplicity
 _atom_site_fract_x
 _atom_site_fract_y
 _atom_site_fract_z
 _atom_site_occupancy
  Eu  Eu0  1  -0.00000000  -0.00000000  0.50000000  1
  Eu  Eu1  1  0.50000000  0.50000000  0.00000000  1
  Ni  Ni0  1  0.20587157  0.79412843  0.28942333  1
  Ni  Ni1  1  0.29412843  0.70587157  0.78942333  1
  Ni  Ni2  1  0.91351446  0.58648554  0.75000000  1
  Ni  Ni3  1  0.70587157  0.29412843  0.21057667  1
  Ni  Ni4  1  0.08648554  0.41351446  0.25000000  1
  Ni  Ni5  1  0.41351446  0.08648554  0.75000000  1
  Ni  Ni6  1  0.95675246  0.04324754  0.88051865  1
  Ni  Ni7  1  0.04324754  0.95675246  0.11948135  1
  Ni  Ni8  1  0.54324754  0.45675246  0.38051865  1
  Ni  Ni9  1  0.45675246  0.54324754  0.61948135  1
  Ni  Ni10  1  0.47183421  0.12625602  0.47003258  1
  Ni  Ni11  1  0.12625602  0.47183421  0.52996742  1
  Ni  Ni12  1  0.02816579  0.37374398  0.97003258  1
  Ni  Ni13  1  0.37374398  0.02816579  0.02996742  1
  Ni  Ni14  1  0.52816579  0.87374398  0.52996742  1
  Ni  Ni15  1  0.87374398  0.52816579  0.47003258  1
  Ni  Ni16  1  0.97183421  0.62625602  0.02996742  1
  Ni  Ni17  1  0.62625602  0.97183421  0.97003258  1
  Ni  Ni18  1  0.58648554  0.91351446  0.25000000  1
  Ni  Ni19  1  0.79412843  0.20587157  0.71057667  1
  P  P0  1  0.14610654  0.35389346  0.75000000  1
  P  P1  1  0.35389346  0.14610654  0.25000000  1
  P  P2  1  0.40873155  0.59126845  0.37105076  1
  P  P3  1  0.59126845  0.40873155  0.62894924  1
  P  P4  1  0.09126845  0.90873155  0.87105076  1
  P  P5  1  0.90873155  0.09126845  0.12894924  1
  P  P6  1  0.29154965  0.70845035  0.07175658  1
  P  P7  1  0.70845035  0.29154965  0.92824342  1
  P  P8  1  0.20845035  0.79154965  0.57175658  1
  P  P9  1  0.79154965  0.20845035  0.42824342  1
  P  P10  1  0.85389346  0.64610654  0.25000000  1
  P  P11  1  0.64610654  0.85389346  0.75000000  1
loop_
_geom_bond_atom_site_label_1
_geom_bond_atom_site_label_2
_geom_bond_distance
_geom_bond_site_symmetry_2
Eu0 P0 3.149707 1_555
Eu0 P10 3.149707 1_445
Eu0 P1 3.149707 1_555
Eu0 P11 3.149707 1_445
Eu0 Ni14 3.349344 1_445
Eu0 Ni11 3.349344 1_555
Eu0 Ni10 3.349344 1_555
Eu0 Ni15 3.349344 1_445
Eu0 Ni7 3.358276 1_545
Eu0 Ni6 3.358276 1_455
Eu0 P9 3.366123 1_455
Eu0 P8 3.366123 1_545
Eu0 Ni8 3.418106 1_445
Eu0 Ni8 3.418106 1_555
Eu0 Ni9 3.418106 1_555
Eu0 Ni9 3.418106 1_445
Eu0 P5 3.517705 1_455
Eu0 P4 3.517705 1_545
Eu1 P0 3.149707 1_554
Eu1 P11 3.149707 1_554
Eu1 P10 3.149707 1_555
Eu1 P1 3.149707 1_555
Eu1 Ni12 3.349344 1_554
Eu1 Ni16 3.349344 1_555
Eu1 Ni17 3.349344 1_554
Eu1 Ni13 3.349344 1_555
Eu1 Ni9 3.358276 1_554
Eu1 Ni8 3.358276 1_555
Eu1 P7 3.366123 1_554
Eu1 P6 3.366123 1_555
Eu1 Ni6 3.418106 1_564
Eu1 Ni7 3.418106 1_545
Eu1 Ni6 3.418106 1_454
Eu1 Ni7 3.418106 1_655
Eu1 P3 3.517705 1_554
Eu1 P2 3.517705 1_555
Ni0 P1 2.296211 1_565
Ni0 P10 2.296211 1_455
Ni0 P6 2.320659 1_555
Ni0 P8 2.439475 1_555
Ni1 P11 2.296211 1_555
Ni1 P0 2.296211 1_555
Ni1 P8 2.320659 1_555
Ni1 P6 2.439475 1_556
Ni2 P3 2.223795 1_555
Ni2 P4 2.223795 1_655
Ni2 P7 2.327363 1_555
Ni2 P8 2.327363 1_655
Ni3 P1 2.296211 1_555
Ni3 P10 2.296211 1_555
Ni3 P9 2.320659 1_555
Ni3 P7 2.439475 1_554
Ni4 P2 2.223795 1_555
Ni4 P5 2.223795 1_455
Ni4 P6 2.327363 1_555
Ni4 P9 2.327363 1_455
Ni5 P3 2.223795 1_555
Ni5 P4 2.223795 1_545
Ni5 P7 2.327363 1_555
Ni5 P8 2.327363 1_545
Ni6 P4 2.136619 1_645
Ni6 P0 2.175932 1_655
Ni6 P11 2.175932 1_545
Ni6 P5 2.277561 1_556
Ni7 P5 2.136619 1_465
Ni7 P10 2.175932 1_455
Ni7 P1 2.175932 1_565
Ni7 P4 2.277561 1_554
Ni8 P2 2.136619 1_555
Ni8 P1 2.175932 1_555
Ni8 P10 2.175932 1_555
Ni8 P3 2.277561 1_555
Ni9 P3 2.136619 1_555
Ni9 P0 2.175932 1_555
Ni9 P11 2.175932 1_555
Ni9 P2 2.277561 1_555
Ni10 P8 2.173089 1_545
Ni10 P1 2.215141 1_555
Ni10 P3 2.279934 1_555
Ni10 P9 2.307058 1_555
Ni11 P9 2.173089 1_455
Ni11 P0 2.215141 1_555
Ni11 P2 2.279934 1_555
Ni11 P8 2.307058 1_555
Ni12 P6 2.173089 1_556
Ni12 P0 2.215141 1_555
Ni12 P5 2.279934 1_456
Ni12 P7 2.307058 1_455
Ni13 P7 2.173089 1_554
Ni13 P1 2.215141 1_555
Ni13 P4 2.279934 1_544
Ni13 P6 2.307058 1_545
Ni14 P9 2.173089 1_565
Ni14 P11 2.215141 1_555
Ni14 P2 2.279934 1_555
Ni14 P8 2.307058 1_555
Ni15 P8 2.173089 1_655
Ni15 P10 2.215141 1_555
Ni15 P3 2.279934 1_555
Ni15 P9 2.307058 1_555
Ni16 P7 2.173089 1_554
Ni16 P10 2.215141 1_555
Ni16 P4 2.279934 1_654
Ni16 P6 2.307058 1_655
Ni17 P6 2.173089 1_556
Ni17 P11 2.215141 1_555
Ni17 P5 2.279934 1_566
Ni17 P7 2.307058 1_565
Ni18 P2 2.223795 1_555
Ni18 P5 2.223795 1_565
Ni18 P6 2.327363 1_555
Ni18 P9 2.327363 1_565
Ni19 P0 2.296211 1_655
Ni19 P11 2.296211 1_545
Ni19 P7 2.320659 1_555
Ni19 P9 2.439475 1_555
