# generated using pymatgen
data_Na4YGaSi2SO12
_symmetry_space_group_name_H-M   'P 1'
_cell_length_a   9.24059034
_cell_length_b   9.22443343
_cell_length_c   22.65453512
_cell_angle_alpha   89.63234644
_cell_angle_beta   90.15070539
_cell_angle_gamma   119.59867654
_symmetry_Int_Tables_number   1
_chemical_formula_structural   Na4YGaSi2SO12
_chemical_formula_sum   'Na24 Y6 Ga6 Si12 S6 O72'
_cell_volume   1679.02940062
_cell_formula_units_Z   6
loop_
 _symmetry_equiv_pos_site_id
 _symmetry_equiv_pos_as_xyz
  1  'x, y, z'
loop_
 _atom_site_type_symbol
 _atom_site_label
 _atom_site_symmetry_multiplicity
 _atom_site_fract_x
 _atom_site_fract_y
 _atom_site_fract_z
 _atom_site_occupancy
  Na  Na0  1  0.64050210  0.00120722  0.25457034  1
  Na  Na1  1  0.36192991  0.37334201  0.24562128  1
  Na  Na2  1  0.99624230  0.62508974  0.25627448  1
  Na  Na3  1  0.62583194  0.62839706  0.73633633  1
  Na  Na4  1  0.99570378  0.35167261  0.75166569  1
  Na  Na5  1  0.38196315  0.01408041  0.75110257  1
  Na  Na6  1  0.30865986  0.33052721  0.58903768  1
  Na  Na7  1  0.03737511  0.71532222  0.57696449  1
  Na  Na8  1  0.66425567  0.95456194  0.58830333  1
  Na  Na9  1  0.28790237  0.96821825  0.07655429  1
  Na  Na10  1  0.67065534  0.68627861  0.09110125  1
  Na  Na11  1  0.04672303  0.34127386  0.09001436  1
  Na  Na12  1  0.98736613  0.66568904  0.92299754  1
  Na  Na13  1  0.69712670  0.04563951  0.90632880  1
  Na  Na14  1  0.32020034  0.28544958  0.92118453  1
  Na  Na15  1  0.95590886  0.29988115  0.40931600  1
  Na  Na16  1  0.33020786  0.02293146  0.41934447  1
  Na  Na17  1  0.70806858  0.67125231  0.42058546  1
  Na  Na18  1  0.99277888  0.98096793  0.49927784  1
  Na  Na19  1  0.02522414  0.01115278  0.00067720  1
  Na  Na20  1  0.65863505  0.30979566  0.83043082  1
  Na  Na21  1  0.68102857  0.33915651  0.33449228  1
  Na  Na22  1  0.32292910  0.64541007  0.17145773  1
  Na  Na23  1  0.35508160  0.67612808  0.66498886  1
  Y  Y0  1  0.00755356  0.01451998  0.84549875  1
  Y  Y1  1  0.99738524  0.00130008  0.15694615  1
  Y  Y2  1  0.66624611  0.33315871  0.98518907  1
  Y  Y3  1  0.32145429  0.65614057  0.01948396  1
  Y  Y4  1  0.34144706  0.67975653  0.51605375  1
  Y  Y5  1  0.33373886  0.66752815  0.81246724  1
  Ga  Ga0  1  0.95514922  0.97575153  0.34923780  1
  Ga  Ga1  1  0.00150423  0.99989722  0.64753285  1
  Ga  Ga2  1  0.63394738  0.31120048  0.68133288  1
  Ga  Ga3  1  0.68881278  0.37537132  0.18775151  1
  Ga  Ga4  1  0.66541797  0.33471319  0.48410110  1
  Ga  Ga5  1  0.32859262  0.66947441  0.31943219  1
  Si  Si0  1  0.68590153  0.69630772  0.25306784  1
  Si  Si1  1  0.00024744  0.30353237  0.25372644  1
  Si  Si2  1  0.29959442  0.29384098  0.74280772  1
  Si  Si3  1  0.70872747  0.01113585  0.74125769  1
  Si  Si4  1  0.37073675  0.04650807  0.58278566  1
  Si  Si5  1  0.67600630  0.61955768  0.58533637  1
  Si  Si6  1  0.96504306  0.63397664  0.08598593  1
  Si  Si7  1  0.37662115  0.33270160  0.08923544  1
  Si  Si8  1  0.02772778  0.36077959  0.91517541  1
  Si  Si9  1  0.33296838  0.96960628  0.91616471  1
  Si  Si10  1  0.63037618  0.96998188  0.41496710  1
  Si  Si11  1  0.03182611  0.67111583  0.41389104  1
  S  S0  1  0.30094436  0.99852431  0.25392460  1
  S  S1  1  0.99396887  0.70089818  0.74589331  1
  S  S2  1  0.95211364  0.32820450  0.58313809  1
  S  S3  1  0.66675324  0.03758953  0.08743117  1
  S  S4  1  0.63592879  0.66817288  0.91623183  1
  S  S5  1  0.33310693  0.36792813  0.41507747  1
  O  O0  1  0.21685804  0.02424027  0.30466066  1
  O  O1  1  0.81918245  0.78318654  0.30732856  1
  O  O2  1  0.96806755  0.16919930  0.30858944  1
  O  O3  1  0.23067940  0.18961584  0.80431339  1
  O  O4  1  0.97039739  0.77381448  0.80084010  1
  O  O5  1  0.80683080  0.03910087  0.80404248  1
  O  O6  1  0.80652649  0.97547754  0.68702309  1
  O  O7  1  0.17147807  0.19376873  0.68791749  1
  O  O8  1  0.01925145  0.81077233  0.69423246  1
  O  O9  1  0.75732352  0.80758606  0.19311517  1
  O  O10  1  0.04432927  0.23735117  0.19362366  1
  O  O11  1  0.20139542  0.97233019  0.19892934  1
  O  O12  1  0.87730084  0.35541043  0.63609330  1
  O  O13  1  0.48807112  0.12194434  0.64108561  1
  O  O14  1  0.65499167  0.50415032  0.64389734  1
  O  O15  1  0.87418245  0.51137996  0.14343232  1
  O  O16  1  0.64596311  0.12123688  0.13893227  1
  O  O17  1  0.49734770  0.34673923  0.14615608  1
  O  O18  1  0.44653426  0.30479639  0.02681143  1
  O  O19  1  0.86243329  0.55630181  0.02507502  1
  O  O20  1  0.68719458  0.13186180  0.03160797  1
  O  O21  1  0.46185123  0.16639951  0.52422886  1
  O  O22  1  0.70457840  0.53543520  0.52481664  1
  O  O23  1  0.85255225  0.30771163  0.52862448  1
  O  O24  1  0.55768550  0.69097493  0.97004483  1
  O  O25  1  0.14257573  0.44481241  0.97378971  1
  O  O26  1  0.32042810  0.86443038  0.97633578  1
  O  O27  1  0.56375960  0.85374243  0.47399825  1
  O  O28  1  0.30439948  0.44114118  0.46931143  1
  O  O29  1  0.14388903  0.70911088  0.47373448  1
  O  O30  1  0.12686485  0.63480476  0.35869824  1
  O  O31  1  0.50377406  0.87608593  0.35877426  1
  O  O32  1  0.35837572  0.47765819  0.36316718  1
  O  O33  1  0.11937785  0.47227795  0.85639140  1
  O  O34  1  0.36090492  0.88289230  0.85756426  1
  O  O35  1  0.53286894  0.64908970  0.86317348  1
  O  O36  1  0.01755312  0.84513084  0.40446007  1
  O  O37  1  0.82050581  0.99354161  0.40858240  1
  O  O38  1  0.18691222  0.19951826  0.40879349  1
  O  O39  1  0.00250612  0.17222451  0.91554513  1
  O  O40  1  0.15615331  0.97096087  0.91485522  1
  O  O41  1  0.80167007  0.81501862  0.91108892  1
  O  O42  1  0.96839501  0.17461100  0.58609423  1
  O  O43  1  0.18158157  0.02874400  0.58839458  1
  O  O44  1  0.84221738  0.81158431  0.59022132  1
  O  O45  1  0.98030981  0.81806202  0.08995481  1
  O  O46  1  0.82037806  0.02297209  0.08993470  1
  O  O47  1  0.18729797  0.17223184  0.09180904  1
  O  O48  1  0.69848241  0.18688952  0.73551813  1
  O  O49  1  0.49011265  0.31852162  0.74061921  1
  O  O50  1  0.84918205  0.53289215  0.74115101  1
  O  O51  1  0.67098906  0.50911832  0.24881329  1
  O  O52  1  0.82355200  0.31362690  0.24668035  1
  O  O53  1  0.46966693  0.14558996  0.24828779  1
  O  O54  1  0.64806163  0.51550441  0.91897775  1
  O  O55  1  0.84593657  0.35001566  0.91646934  1
  O  O56  1  0.49404714  0.15818239  0.91625304  1
  O  O57  1  0.64582429  0.15721868  0.42349958  1
  O  O58  1  0.48886524  0.35693698  0.41989449  1
  O  O59  1  0.84469913  0.50018951  0.42085215  1
  O  O60  1  0.37211931  0.50892367  0.08912033  1
  O  O61  1  0.15148326  0.65339418  0.08717269  1
  O  O62  1  0.52005672  0.86866741  0.08333419  1
  O  O63  1  0.34542692  0.85660257  0.58074821  1
  O  O64  1  0.50380826  0.63313733  0.58296035  1
  O  O65  1  0.12367399  0.47578008  0.57779164  1
  O  O66  1  0.31437646  0.84304447  0.25795286  1
  O  O67  1  0.50038353  0.67788312  0.26372506  1
  O  O68  1  0.16575318  0.49081416  0.26316255  1
  O  O69  1  0.31490610  0.47914808  0.74436347  1
  O  O70  1  0.14900305  0.68821421  0.74886158  1
  O  O71  1  0.52174297  0.84567334  0.74394385  1
loop_
_geom_bond_atom_site_label_1
_geom_bond_atom_site_label_2
_geom_bond_distance
_geom_bond_site_symmetry_2
Na0 O53 2.521789 1_555
Na0 O52 2.525460 1_555
Na0 O67 2.606420 1_545
Na0 O66 2.621583 1_545
Na0 O31 2.653581 1_545
Na0 O16 2.828373 1_555
Na0 O9 2.870195 1_545
Na0 O2 2.903859 1_555
Na1 O67 2.481610 1_555
Na1 O51 2.489309 1_555
Na1 O68 2.562838 1_555
Na1 O17 2.651202 1_555
Na1 O53 2.733617 1_555
Na1 O10 2.817516 1_555
Na1 O32 2.843039 1_555
Na2 O68 2.434104 1_655
Na2 O52 2.515036 1_555
Na2 O30 2.594247 1_655
Na2 O66 2.616784 1_655
Na2 O51 2.651359 1_555
Na2 O15 2.785327 1_555
Na2 O1 2.920641 1_555
Na3 O14 2.471946 1_555
Na3 O49 2.491721 1_555
Na3 O69 2.505088 1_555
Na3 O50 2.615601 1_555
Na3 O71 2.623264 1_555
Na4 O48 2.421862 1_555
Na4 O69 2.585370 1_655
Na4 O50 2.629320 1_555
Na4 O33 2.633668 1_655
Na4 O70 2.702190 1_655
Na4 O5 2.786282 1_555
Na4 O12 2.841564 1_555
Na5 O71 2.468676 1_545
Na5 O49 2.482330 1_555
Na5 O48 2.571540 1_555
Na5 O34 2.655496 1_545
Na5 O13 2.679674 1_555
Na5 O70 2.698422 1_545
Na5 O3 2.880843 1_555
Na6 O43 2.428952 1_555
Na6 O64 2.467106 1_555
Na6 O7 2.572012 1_555
Na6 O65 2.652921 1_555
Na6 O42 2.737187 1_455
Na6 O28 2.898805 1_555
Na6 O21 2.933980 1_555
Na7 O44 2.391435 1_455
Na7 O63 2.478765 1_555
Na7 O43 2.530506 1_565
Na7 O29 2.551617 1_555
Na7 O65 2.694225 1_555
Na7 O8 2.835331 1_555
Na7 O22 2.927693 1_455
Na8 O42 2.526917 1_565
Na8 O6 2.550841 1_555
Na8 O44 2.566522 1_555
Na8 O64 2.581665 1_555
Na8 O63 2.625871 1_555
Na8 O27 2.756457 1_555
Na9 O45 2.489904 1_455
Na9 O47 2.502704 1_565
Na9 O61 2.541040 1_555
Na9 O26 2.545071 1_554
Na9 O62 2.722392 1_555
Na9 O11 2.892978 1_555
Na9 O18 2.919945 1_565
Na10 O60 2.414676 1_555
Na10 O45 2.495970 1_555
Na10 O9 2.524439 1_555
Na10 O62 2.665691 1_555
Na10 O46 2.704679 1_565
Na10 O24 2.939539 1_554
Na10 O17 2.989241 1_555
Na10 O19 2.991865 1_555
Na11 O47 2.473932 1_555
Na11 O10 2.525738 1_555
Na11 O61 2.544673 1_555
Na11 O60 2.615260 1_555
Na11 O46 2.632335 1_455
Na11 O25 2.788155 1_554
Na12 O40 2.460184 1_655
Na12 O55 2.540526 1_555
Na12 O19 2.555783 1_556
Na12 O41 2.691176 1_555
Na12 O54 2.732651 1_555
Na12 O26 2.954385 1_655
Na12 O4 2.965600 1_555
Na12 O33 3.023596 1_655
Na13 O55 2.453472 1_555
Na13 O39 2.472881 1_655
Na13 O5 2.544697 1_555
Na13 O56 2.565056 1_555
Na13 O41 2.738084 1_545
Na13 O34 2.919360 1_545
Na13 O20 2.966227 1_556
Na14 O56 2.415983 1_555
Na14 O40 2.528686 1_545
Na14 O39 2.587717 1_555
Na14 O18 2.627881 1_556
Na14 O54 2.707936 1_555
Na14 O3 2.787834 1_555
Na14 O25 2.948150 1_555
Na15 O37 2.461462 1_545
Na15 O57 2.513933 1_555
Na15 O59 2.534127 1_555
Na15 O2 2.615978 1_555
Na15 O38 2.714079 1_655
Na15 O23 2.882216 1_555
Na15 O30 2.915177 1_655
Na16 O36 2.543965 1_545
Na16 O57 2.545667 1_555
Na16 O38 2.566681 1_555
Na16 O58 2.679641 1_555
Na16 O21 2.704057 1_555
Na16 O0 2.800924 1_555
Na16 O29 2.811485 1_545
Na16 O31 2.910610 1_545
Na17 O59 2.460056 1_555
Na17 O36 2.520199 1_655
Na17 O58 2.590077 1_555
Na17 O37 2.632794 1_555
Na17 O22 2.658748 1_555
Na17 O1 2.763364 1_555
Na17 O27 2.885873 1_555
Na18 O44 2.539309 1_555
Na18 O43 2.558775 1_665
Na18 O36 2.560682 1_655
Na18 O37 2.632752 1_555
Na18 O42 2.748581 1_565
Na18 O38 2.806801 1_665
Na19 O40 2.417868 1_544
Na19 O39 2.498094 1_554
Na19 O47 2.556946 1_555
Na19 O45 2.581350 1_445
Na19 O46 2.812583 1_455
Na19 O41 2.827183 1_444
Na20 O56 2.434887 1_555
Na20 O55 2.507923 1_555
Na20 O48 2.547970 1_555
Na20 O49 2.583855 1_555
Na20 O50 2.795015 1_555
Na20 O54 2.804862 1_555
Na21 O52 2.464465 1_555
Na21 O59 2.474678 1_555
Na21 O51 2.517506 1_555
Na21 O57 2.531615 1_555
Na21 O58 2.689445 1_555
Na21 O53 2.719635 1_555
Na22 O60 2.423023 1_555
Na22 O61 2.501760 1_555
Na22 O68 2.528055 1_555
Na22 O67 2.579273 1_555
Na22 O66 2.712650 1_555
Na22 O62 2.793840 1_555
Na23 O71 2.378916 1_555
Na23 O69 2.442977 1_555
Na23 O64 2.461838 1_555
Na23 O63 2.554721 1_555
Na23 O70 2.735066 1_555
Na23 O65 2.830377 1_555
Ga0 O1 1.856335 1_555
Ga0 O37 1.896240 1_555
Ga0 O2 1.953347 1_565
Ga0 O36 2.003152 1_655
Ga0 O0 2.450880 1_665
Ga0 O38 2.514204 1_665
Ga1 O6 1.924122 1_455
Ga1 O7 1.934142 1_565
Ga1 O43 2.050476 1_565
Ga1 O44 2.088746 1_455
Ga1 O8 2.108961 1_555
Ga1 O42 2.254842 1_465
Ga2 O13 1.839958 1_555
Ga2 O14 1.887996 1_555
Ga2 O49 1.916838 1_555
Ga2 O48 1.957293 1_555
Ga2 O12 2.318260 1_555
Ga2 O50 2.444926 1_555
Ga3 O15 1.840159 1_555
Ga3 O17 1.902840 1_555
Ga3 O51 1.920069 1_555
Ga3 O52 2.082991 1_555
Ga3 O16 2.447344 1_555
Ga3 O53 2.492287 1_555
Ga4 O22 1.941204 1_555
Ga4 O21 1.970091 1_555
Ga4 O57 2.081596 1_555
Ga4 O23 2.117248 1_555
Ga4 O59 2.148029 1_555
Ga4 O58 2.265725 1_555
Ga5 O30 1.945395 1_555
Ga5 O67 2.001588 1_555
Ga5 O31 2.003423 1_555
Ga5 O68 2.042653 1_555
Ga5 O32 2.155293 1_555
Ga5 O66 2.167665 1_555
O0 S0 1.473571 1_545
O1 Si0 1.643109 1_555
O2 Si1 1.669396 1_655
O3 Si2 1.629124 1_555
O3 Y0 2.105108 1_555
O4 S1 1.485347 1_555
O4 Y0 2.312019 1_665
O5 Si3 1.636573 1_555
O5 Y0 2.185700 1_655
O6 Si3 1.655047 1_565
O7 Si2 1.651495 1_555
O8 S1 1.484537 1_455
O9 Si0 1.628356 1_555
O9 Y1 2.204628 1_565
O10 Si1 1.628439 1_555
O10 Y1 2.169810 1_455
O11 S0 1.495024 1_555
O11 Y1 2.239389 1_465
O12 S2 1.469601 1_555
O13 Si4 1.631916 1_555
O14 Si5 1.646234 1_555
O15 Si6 1.651194 1_555
O16 S3 1.467210 1_555
O17 Si7 1.666136 1_555
O18 Si7 1.630124 1_555
O18 Y2 2.135826 1_554
O19 Si6 1.628267 1_555
O19 Y2 2.160776 1_554
O20 S3 1.488662 1_555
O20 Y2 2.218145 1_554
O21 Si4 1.661023 1_555
O22 Si5 1.664202 1_555
O23 S2 1.494169 1_555
O24 S4 1.487068 1_555
O24 Y3 2.331986 1_556
O25 Si8 1.638158 1_555
O25 Y3 2.106600 1_556
O26 Si9 1.638800 1_555
O26 Y3 2.154310 1_556
O27 Si10 1.628182 1_555
O27 Y4 2.106516 1_555
O28 S5 1.491768 1_555
O28 Y4 2.316671 1_555
O29 Si11 1.635034 1_555
O29 Y4 2.191092 1_555
O30 Si11 1.657891 1_555
O31 Si10 1.656730 1_555
O32 S5 1.488202 1_555
O33 Si8 1.635989 1_555
O33 Y5 2.149614 1_555
O34 Si9 1.639605 1_555
O34 Y5 2.141373 1_555
O35 S4 1.487902 1_555
O35 Y5 2.242751 1_555
O36 Si11 1.686495 1_555
O37 Si10 1.666925 1_555
O38 S5 1.478945 1_555
O39 Si8 1.636760 1_555
O39 Y0 2.175689 1_555
O40 Si9 1.640272 1_555
O40 Y0 2.245298 1_565
O41 S4 1.464109 1_555
O41 Y0 2.394842 1_665
O42 S2 1.497924 1_555
O43 Si4 1.678135 1_555
O44 Si5 1.680165 1_555
O45 Si6 1.636069 1_555
O45 Y1 2.225620 1_565
O46 S3 1.491704 1_555
O46 Y1 2.307822 1_555
O47 Si7 1.642074 1_555
O47 Y1 2.234666 1_455
O48 Si3 1.674245 1_555
O49 Si2 1.660733 1_555
O50 S1 1.468487 1_555
O51 Si0 1.666387 1_555
O52 Si1 1.687814 1_655
O53 S0 1.482199 1_545
O54 S4 1.467822 1_555
O54 Y2 2.313642 1_555
O55 Si8 1.633431 1_655
O55 Y2 2.227188 1_555
O56 Si9 1.638208 1_545
O56 Y2 2.249064 1_555
O57 Si10 1.673734 1_545
O58 S5 1.495645 1_555
O59 Si11 1.675074 1_655
O60 Si7 1.646478 1_555
O60 Y3 2.269088 1_555
O61 Si6 1.641917 1_455
O61 Y3 2.189037 1_555
O62 S3 1.479461 1_565
O62 Y3 2.402501 1_555
O63 Si4 1.649785 1_565
O63 Y4 2.186708 1_555
O64 Si5 1.657379 1_555
O64 Y4 2.313082 1_555
O65 S2 1.499360 1_455
O65 Y4 2.405565 1_555
O66 S0 1.501604 1_555
O67 Si0 1.655241 1_555
O68 Si1 1.661990 1_555
O69 Si2 1.644683 1_555
O69 Y5 2.272568 1_555
O70 S1 1.495175 1_455
O70 Y5 2.309147 1_555
O71 Si3 1.647105 1_565
O71 Y5 2.299926 1_555
