# generated using pymatgen
data_NbGeIr
_symmetry_space_group_name_H-M   'P 1'
_cell_length_a   3.89522338
_cell_length_b   6.50627953
_cell_length_c   7.42631907
_cell_angle_alpha   90.00000000
_cell_angle_beta   90.00000000
_cell_angle_gamma   90.00000000
_symmetry_Int_Tables_number   1
_chemical_formula_structural   NbGeIr
_chemical_formula_sum   'Nb4 Ge4 Ir4'
_cell_volume   188.20826489
_cell_formula_units_Z   4
loop_
 _symmetry_equiv_pos_site_id
 _symmetry_equiv_pos_as_xyz
  1  'x, y, z'
loop_
 _atom_site_type_symbol
 _atom_site_label
 _atom_site_symmetry_multiplicity
 _atom_site_fract_x
 _atom_site_fract_y
 _atom_site_fract_z
 _atom_site_occupancy
  Nb  Nb0  1  0.75000000  0.52561644  0.17746823  1
  Nb  Nb1  1  0.25000000  0.97438356  0.67746823  1
  Nb  Nb2  1  0.75000000  0.02561644  0.32253177  1
  Nb  Nb3  1  0.25000000  0.47438356  0.82253177  1
  Ge  Ge0  1  0.25000000  0.23900060  0.12331252  1
  Ge  Ge1  1  0.25000000  0.73900060  0.37668748  1
  Ge  Ge2  1  0.75000000  0.76099940  0.87668748  1
  Ge  Ge3  1  0.75000000  0.26099940  0.62331252  1
  Ir  Ir0  1  0.25000000  0.85662610  0.06234739  1
  Ir  Ir1  1  0.25000000  0.35662610  0.43765261  1
  Ir  Ir2  1  0.75000000  0.64337390  0.56234739  1
  Ir  Ir3  1  0.75000000  0.14337390  0.93765261  1
loop_
_geom_bond_atom_site_label_1
_geom_bond_atom_site_label_2
_geom_bond_distance
_geom_bond_site_symmetry_2
Ge0 Ir1 2.456637 1_555
Ge0 Ir3 2.466029 1_554
Ge0 Ir3 2.466029 1_454
Ge0 Ir0 2.528696 1_545
Ge0 Nb3 2.708280 1_554
Ge0 Nb0 2.726248 1_455
Ge0 Nb0 2.726248 1_555
Ge0 Nb2 2.812382 1_555
Ge0 Nb2 2.812382 1_455
Ge1 Ir0 2.456637 1_555
Ge1 Ir2 2.466029 1_555
Ge1 Ir2 2.466029 1_455
Ge1 Ir1 2.528696 1_555
Ge1 Nb1 2.708280 1_555
Ge1 Nb2 2.726248 1_565
Ge1 Nb2 2.726248 1_465
Ge1 Nb0 2.812382 1_555
Ge1 Nb0 2.812382 1_455
Ge2 Ir2 2.456637 1_555
Ge2 Ir0 2.466029 1_556
Ge2 Ir0 2.466029 1_656
Ge2 Ir3 2.528696 1_565
Ge2 Nb0 2.708280 1_556
Ge2 Nb3 2.726248 1_655
Ge2 Nb3 2.726248 1_555
Ge2 Nb1 2.812382 1_555
Ge2 Nb1 2.812382 1_655
Ge3 Ir3 2.456637 1_555
Ge3 Ir1 2.466029 1_555
Ge3 Ir1 2.466029 1_655
Ge3 Ir2 2.528696 1_555
Ge3 Nb2 2.708280 1_555
Ge3 Nb1 2.726248 1_545
Ge3 Nb1 2.726248 1_645
Ge3 Nb3 2.812382 1_655
Ge3 Nb3 2.812382 1_555
Ir0 Ir3 2.851561 1_464
Ir0 Ir3 2.851561 1_564
Ir0 Nb2 2.955593 1_465
Ir0 Nb2 2.955593 1_565
Ir0 Nb1 2.959141 1_554
Ir0 Nb0 3.026922 1_455
Ir0 Nb0 3.026922 1_555
Ir0 Nb3 3.058893 1_554
Ir1 Ir2 2.851561 1_455
Ir1 Ir2 2.851561 1_555
Ir1 Nb0 2.955593 1_455
Ir1 Nb0 2.955593 1_555
Ir1 Nb3 2.959141 1_555
Ir1 Nb2 3.026922 1_455
Ir1 Nb2 3.026922 1_555
Ir1 Nb1 3.058893 1_545
Ir2 Nb3 2.955593 1_655
Ir2 Nb3 2.955593 1_555
Ir2 Nb0 2.959141 1_555
Ir2 Nb1 3.026922 1_555
Ir2 Nb1 3.026922 1_655
Ir2 Nb2 3.058893 1_565
Ir3 Nb1 2.955593 1_645
Ir3 Nb1 2.955593 1_545
Ir3 Nb2 2.959141 1_556
Ir3 Nb3 3.026922 1_555
Ir3 Nb3 3.026922 1_655
Ir3 Nb0 3.058893 1_556
