# generated using pymatgen
data_MgMn6(OF)6
_symmetry_space_group_name_H-M   'P 1'
_cell_length_a   4.91007291
_cell_length_b   5.04305985
_cell_length_c   9.32940807
_cell_angle_alpha   86.23515147
_cell_angle_beta   88.93118246
_cell_angle_gamma   88.28643763
_symmetry_Int_Tables_number   1
_chemical_formula_structural   MgMn6(OF)6
_chemical_formula_sum   'Mg1 Mn6 O6 F6'
_cell_volume   230.37897380
_cell_formula_units_Z   1
loop_
 _symmetry_equiv_pos_site_id
 _symmetry_equiv_pos_as_xyz
  1  'x, y, z'
loop_
 _atom_site_type_symbol
 _atom_site_label
 _atom_site_symmetry_multiplicity
 _atom_site_fract_x
 _atom_site_fract_y
 _atom_site_fract_z
 _atom_site_occupancy
  Mg  Mg0  1  0.49808400  0.00418000  0.82805100  1
  Mn  Mn0  1  0.96911000  0.93225400  0.01087900  1
  Mn  Mn1  1  0.02681800  0.02913500  0.32549300  1
  Mn  Mn2  1  0.03400600  0.01784000  0.64858800  1
  Mn  Mn3  1  0.45007800  0.51287900  0.83074300  1
  Mn  Mn4  1  0.53116700  0.45864200  0.16580000  1
  Mn  Mn5  1  0.45095300  0.50989700  0.48941300  1
  O  O0  1  0.17615600  0.82530800  0.49330100  1
  O  O1  1  0.16375700  0.80116200  0.81912400  1
  O  O2  1  0.33585300  0.28548700  0.32489500  1
  O  O3  1  0.33464500  0.29668400  0.68486900  1
  O  O4  1  0.63172100  0.69421600  0.97962300  1
  O  O5  1  0.83543100  0.19411600  0.15942300  1
  F  F0  1  0.21117100  0.74214700  0.16905800  1
  F  F1  1  0.33710000  0.21901700  0.98536100  1
  F  F2  1  0.71214000  0.72161200  0.32873100  1
  F  F3  1  0.65914200  0.77556600  0.67635200  1
  F  F4  1  0.82938600  0.24437300  0.50421600  1
  F  F5  1  0.81328000  0.22159500  0.82608300  1
loop_
_geom_bond_atom_site_label_1
_geom_bond_atom_site_label_2
_geom_bond_distance
_geom_bond_site_symmetry_2
Mg0 O1 1.966401 1_545
Mg0 O3 2.077201 1_555
Mg0 O4 2.134631 1_545
Mn0 O5 2.061517 1_565
Mn0 O4 2.110296 1_554
Mn0 O1 2.145834 1_654
Mn1 O5 1.952955 1_455
Mn1 O0 1.957456 1_545
Mn1 O2 2.022343 1_555
Mn2 O0 1.906623 1_545
Mn2 O1 1.974606 1_545
Mn2 O3 2.115746 1_555
Mn3 O3 1.903327 1_555
Mn3 O4 1.955189 1_555
Mn3 O1 1.991119 1_555
Mn4 O2 1.926663 1_555
Mn4 O5 1.975595 1_555
Mn4 O4 2.098605 1_554
Mn5 O0 2.056544 1_555
Mn5 O2 2.062686 1_555
Mn5 O3 2.132554 1_555
F0 Mn0 2.078700 1_455
F0 Mn4 2.093638 1_555
F0 Mn1 2.278984 1_565
F1 Mg0 2.016638 1_555
F1 Mn3 2.079258 1_555
F1 Mn0 2.346873 1_446
F1 Mn4 2.366005 1_556
F2 Mn5 2.198140 1_555
F2 Mn1 2.220088 1_665
F2 Mn4 2.290082 1_555
F3 Mg0 2.018799 1_565
F3 Mn3 2.158464 1_555
F3 Mn2 2.241179 1_665
F3 Mn5 2.517315 1_555
F4 Mn2 1.976984 1_655
F4 Mn1 2.238877 1_655
F4 Mn5 2.258601 1_555
F5 Mg0 1.922359 1_555
F5 Mn2 2.249982 1_655
F5 Mn3 2.277915 1_555
F5 Mn0 2.310622 1_546
