# generated using pymatgen
data_Ga3Te3I
_symmetry_space_group_name_H-M   'P 1'
_cell_length_a   4.13590214
_cell_length_b   11.37809035
_cell_length_c   20.13064028
_cell_angle_alpha   90.00000000
_cell_angle_beta   90.00000000
_cell_angle_gamma   90.00000000
_symmetry_Int_Tables_number   1
_chemical_formula_structural   Ga3Te3I
_chemical_formula_sum   'Ga12 Te12 I4'
_cell_volume   947.32112215
_cell_formula_units_Z   4
loop_
 _symmetry_equiv_pos_site_id
 _symmetry_equiv_pos_as_xyz
  1  'x, y, z'
loop_
 _atom_site_type_symbol
 _atom_site_label
 _atom_site_symmetry_multiplicity
 _atom_site_fract_x
 _atom_site_fract_y
 _atom_site_fract_z
 _atom_site_occupancy
  Ga  Ga0  1  0.75000000  0.33556040  0.86806325  1
  Ga  Ga1  1  0.25000000  0.66443960  0.13193675  1
  Ga  Ga2  1  0.75000000  0.83556040  0.63193675  1
  Ga  Ga3  1  0.25000000  0.16443960  0.36806325  1
  Ga  Ga4  1  0.25000000  0.17131057  0.00473958  1
  Ga  Ga5  1  0.75000000  0.82868943  0.99526042  1
  Ga  Ga6  1  0.25000000  0.67131057  0.49526042  1
  Ga  Ga7  1  0.75000000  0.32868943  0.50473958  1
  Ga  Ga8  1  0.25000000  0.05764200  0.90214389  1
  Ga  Ga9  1  0.75000000  0.94235800  0.09785611  1
  Ga  Ga10  1  0.25000000  0.55764200  0.59785611  1
  Ga  Ga11  1  0.75000000  0.44235800  0.40214389  1
  Te  Te0  1  0.25000000  0.22817201  0.81061759  1
  Te  Te1  1  0.75000000  0.77182799  0.18938241  1
  Te  Te2  1  0.25000000  0.72817201  0.68938241  1
  Te  Te3  1  0.75000000  0.27182799  0.31061759  1
  Te  Te4  1  0.75000000  0.91666677  0.87287857  1
  Te  Te5  1  0.25000000  0.08333323  0.12712143  1
  Te  Te6  1  0.75000000  0.41666677  0.62712143  1
  Te  Te7  1  0.25000000  0.58333323  0.37287857  1
  Te  Te8  1  0.75000000  0.32324104  -0.00066166  1
  Te  Te9  1  0.25000000  0.67675896  0.00066166  1
  Te  Te10  1  0.75000000  0.82324104  0.50066166  1
  Te  Te11  1  0.25000000  0.17675896  0.49933834  1
  I  I0  1  0.75000000  0.54953199  0.83114822  1
  I  I1  1  0.25000000  0.45046801  0.16885178  1
  I  I2  1  0.75000000  0.04953199  0.66885178  1
  I  I3  1  0.25000000  0.95046801  0.33114822  1
loop_
_geom_bond_atom_site_label_1
_geom_bond_atom_site_label_2
_geom_bond_distance
_geom_bond_site_symmetry_2
Ga0 I0 2.545477 1_555
Ga0 Te8 2.646366 1_556
Ga0 Te0 2.665840 1_555
Ga0 Te0 2.665840 1_655
Ga1 I1 2.545477 1_555
Ga1 Te9 2.646366 1_555
Ga1 Te1 2.665840 1_455
Ga1 Te1 2.665840 1_555
Ga2 I2 2.545477 1_565
Ga2 Te10 2.646366 1_555
Ga2 Te2 2.665840 1_555
Ga2 Te2 2.665840 1_655
Ga3 I3 2.545477 1_545
Ga3 Te11 2.646366 1_555
Ga3 Te3 2.665840 1_555
Ga3 Te3 2.665840 1_455
Ga4 Ga8 2.436850 1_554
Ga4 Te5 2.659225 1_555
Ga4 Te8 2.697512 1_455
Ga4 Te8 2.697512 1_555
Ga5 Ga9 2.436850 1_556
Ga5 Te4 2.659225 1_555
Ga5 Te9 2.697512 1_656
Ga5 Te9 2.697512 1_556
Ga6 Te7 2.659225 1_555
Ga6 Te10 2.697512 1_555
Ga6 Te10 2.697512 1_455
Ga7 Te6 2.659225 1_555
Ga7 Te11 2.697512 1_555
Ga7 Te11 2.697512 1_655
Ga8 Te0 2.675730 1_555
Ga8 Te4 2.682611 1_545
Ga8 Te4 2.682611 1_445
Ga9 Te1 2.675730 1_555
Ga9 Te5 2.682611 1_565
Ga9 Te5 2.682611 1_665
Ga10 Ga6 2.436850 1_555
Ga10 Te2 2.675730 1_555
Ga10 Te6 2.682611 1_455
Ga10 Te6 2.682611 1_555
Ga11 Ga7 2.436850 1_555
Ga11 Te3 2.675730 1_555
Ga11 Te7 2.682611 1_655
Ga11 Te7 2.682611 1_555
