# generated using pymatgen
data_Y2Cu2O5
_symmetry_space_group_name_H-M   'P 1'
_cell_length_a   3.54321200
_cell_length_b   10.92873400
_cell_length_c   12.58126500
_cell_angle_alpha   90.00000000
_cell_angle_beta   90.00000000
_cell_angle_gamma   90.00000000
_symmetry_Int_Tables_number   1
_chemical_formula_structural   Y2Cu2O5
_chemical_formula_sum   'Y8 Cu8 O20'
_cell_volume   487.18207826
_cell_formula_units_Z   4
loop_
 _symmetry_equiv_pos_site_id
 _symmetry_equiv_pos_as_xyz
  1  'x, y, z'
loop_
 _atom_site_type_symbol
 _atom_site_label
 _atom_site_symmetry_multiplicity
 _atom_site_fract_x
 _atom_site_fract_y
 _atom_site_fract_z
 _atom_site_occupancy
  Y  Y0  1  0.27723100  0.45738100  0.82763900  1
  Y  Y1  1  0.72276900  0.54261900  0.32763900  1
  Y  Y2  1  0.22276900  0.95738100  0.82763900  1
  Y  Y3  1  0.77723100  0.04261900  0.32763900  1
  Y  Y4  1  0.27851100  0.29246600  0.50056300  1
  Y  Y5  1  0.72148900  0.70753400  0.00056300  1
  Y  Y6  1  0.22148900  0.79246600  0.50056300  1
  Y  Y7  1  0.77851100  0.20753400  0.00056300  1
  Cu  Cu0  1  0.84170700  0.23794300  0.71662500  1
  Cu  Cu1  1  0.15829300  0.76205700  0.21662500  1
  Cu  Cu2  1  0.65829300  0.73794300  0.71662500  1
  Cu  Cu3  1  0.34170700  0.26205700  0.21662500  1
  Cu  Cu4  1  0.66231200  0.01177600  0.61111200  1
  Cu  Cu5  1  0.33768800  0.98822400  0.11111200  1
  Cu  Cu6  1  0.83768800  0.51177600  0.61111200  1
  Cu  Cu7  1  0.16231200  0.48822400  0.11111200  1
  O  O0  1  0.27138400  0.07618000  0.97226100  1
  O  O1  1  0.72861600  0.92382000  0.47226100  1
  O  O2  1  0.22861600  0.57618000  0.97226100  1
  O  O3  1  0.77138400  0.42382000  0.47226100  1
  O  O4  1  0.72582900  0.07199900  0.76154300  1
  O  O5  1  0.27417100  0.92800100  0.26154300  1
  O  O6  1  0.77417100  0.57199900  0.76154300  1
  O  O7  1  0.22582900  0.42800100  0.26154300  1
  O  O8  1  0.14613600  0.37533200  0.66402300  1
  O  O9  1  0.85386400  0.62466800  0.16402300  1
  O  O10  1  0.35386400  0.87533200  0.66402300  1
  O  O11  1  0.64613600  0.12466800  0.16402300  1
  O  O12  1  0.77985000  0.17757700  0.56583700  1
  O  O13  1  0.22015000  0.82242300  0.06583700  1
  O  O14  1  0.72015000  0.67757700  0.56583700  1
  O  O15  1  0.27985000  0.32242300  0.06583700  1
  O  O16  1  0.27355600  0.17400400  0.35539700  1
  O  O17  1  0.72644400  0.82599600  0.85539700  1
  O  O18  1  0.22644400  0.67400400  0.35539700  1
  O  O19  1  0.77355600  0.32599600  0.85539700  1
loop_
_geom_bond_atom_site_label_1
_geom_bond_atom_site_label_2
_geom_bond_distance
_geom_bond_site_symmetry_2
Cu0 O4 1.943434 1_555
Cu0 O8 1.963656 1_655
Cu0 O19 2.008135 1_555
Cu0 O12 2.020464 1_555
Cu1 O5 1.943434 1_555
Cu1 O9 1.963656 1_455
Cu1 O18 2.008135 1_555
Cu1 O13 2.020464 1_555
Cu2 O6 1.943434 1_555
Cu2 O10 1.963656 1_555
Cu2 O17 2.008135 1_555
Cu2 O14 2.020464 1_555
Cu3 O7 1.943434 1_555
Cu3 O11 1.963656 1_555
Cu3 O16 2.008135 1_555
Cu3 O15 2.020464 1_555
Cu4 O12 1.944538 1_555
Cu4 O10 1.964974 1_545
Cu4 O1 2.007716 1_545
Cu4 O4 2.016385 1_555
Cu5 O13 1.944538 1_555
Cu5 O11 1.964974 1_565
Cu5 O0 2.007716 1_564
Cu5 O5 2.016385 1_555
Cu6 O14 1.944538 1_555
Cu6 O8 1.964974 1_655
Cu6 O3 2.007716 1_555
Cu6 O6 2.016385 1_555
Cu7 O15 1.944538 1_555
Cu7 O9 1.964974 1_455
Cu7 O2 2.007716 1_554
Cu7 O7 2.016385 1_555
O0 Y2 2.241873 1_545
O0 Y7 2.288514 1_456
O0 Y7 2.327283 1_556
O1 Y3 2.241873 1_565
O1 Y6 2.288514 1_655
O1 Y6 2.327283 1_555
O2 Y0 2.241873 1_555
O2 Y5 2.288514 1_556
O2 Y5 2.327283 1_456
O3 Y1 2.241873 1_555
O3 Y4 2.288514 1_555
O3 Y4 2.327283 1_655
O4 Y2 2.315358 1_645
O4 Y2 2.331891 1_545
O5 Y3 2.315358 1_465
O5 Y3 2.331891 1_565
O6 Y0 2.315358 1_555
O6 Y0 2.331891 1_655
O7 Y1 2.315358 1_555
O7 Y1 2.331891 1_455
O8 Y0 2.292863 1_555
O8 Y4 2.295533 1_555
O9 Y1 2.292863 1_555
O9 Y5 2.295533 1_555
O10 Y2 2.292863 1_555
O10 Y6 2.295533 1_555
O11 Y3 2.292863 1_555
O11 Y7 2.295533 1_555
O12 Y4 2.317914 1_655
O12 Y4 2.325155 1_555
O13 Y5 2.317914 1_455
O13 Y5 2.325155 1_555
O14 Y6 2.317914 1_555
O14 Y6 2.325155 1_655
O15 Y7 2.317914 1_555
O15 Y7 2.325155 1_455
O16 Y4 2.238757 1_555
O16 Y3 2.297022 1_455
O16 Y3 2.317021 1_555
O17 Y5 2.238757 1_556
O17 Y2 2.297022 1_655
O17 Y2 2.317021 1_555
O18 Y6 2.238757 1_555
O18 Y1 2.297022 1_555
O18 Y1 2.317021 1_455
O19 Y7 2.238757 1_556
O19 Y0 2.297022 1_555
O19 Y0 2.317021 1_655
