# generated using pymatgen
data_MgCo6(OF)6
_symmetry_space_group_name_H-M   'P 1'
_cell_length_a   5.09698287
_cell_length_b   14.28964079
_cell_length_c   3.05857176
_cell_angle_alpha   90.00000000
_cell_angle_beta   90.00000000
_cell_angle_gamma   79.76791647
_symmetry_Int_Tables_number   1
_chemical_formula_structural   MgCo6(OF)6
_chemical_formula_sum   'Mg1 Co6 O6 F6'
_cell_volume   219.22534178
_cell_formula_units_Z   1
loop_
 _symmetry_equiv_pos_site_id
 _symmetry_equiv_pos_as_xyz
  1  'x, y, z'
loop_
 _atom_site_type_symbol
 _atom_site_label
 _atom_site_symmetry_multiplicity
 _atom_site_fract_x
 _atom_site_fract_y
 _atom_site_fract_z
 _atom_site_occupancy
  Mg  Mg0  1  0.50000000  -0.00000000  0.50000000  1
  Co  Co0  1  0.00000000  -0.00000000  -0.00000000  1
  Co  Co1  1  0.14855160  0.34638881  0.00000000  1
  Co  Co2  1  0.85144840  0.65361119  0.00000000  1
  Co  Co3  1  0.77413042  0.20976479  0.50000000  1
  Co  Co4  1  0.50000000  0.50000000  0.50000000  1
  Co  Co5  1  0.22586958  0.79023521  0.50000000  1
  O  O0  1  0.18277329  0.92885988  0.50000000  1
  O  O1  1  0.07611670  0.74484023  0.00000000  1
  O  O2  1  0.38801807  0.43330867  -0.00000000  1
  O  O3  1  0.61198193  0.56669133  -0.00000000  1
  O  O4  1  0.92388330  0.25515977  0.00000000  1
  O  O5  1  0.81722671  0.07114012  0.50000000  1
  F  F0  1  0.38534303  0.26920885  0.50000000  1
  F  F1  1  0.07472830  0.58766794  0.50000000  1
  F  F2  1  0.31645533  0.07499027  -0.00000000  1
  F  F3  1  0.68354467  0.92500973  -0.00000000  1
  F  F4  1  0.92527170  0.41233206  0.50000000  1
  F  F5  1  0.61465697  0.73079115  0.50000000  1
loop_
_geom_bond_atom_site_label_1
_geom_bond_atom_site_label_2
_geom_bond_distance
_geom_bond_site_symmetry_2
Mg0 O5 2.057116 1_555
Mg0 O0 2.057116 1_545
Co0 O5 1.975737 1_454
Co0 O5 1.975737 1_455
Co0 O0 1.975737 1_544
Co0 O0 1.975737 1_545
Co0 F2 2.089023 1_555
Co0 F3 2.089023 1_445
Co1 O4 1.881790 1_455
Co1 O2 1.889721 1_555
Co1 F4 2.034903 1_455
Co1 F4 2.034903 1_454
Co1 F0 2.130448 1_554
Co1 F0 2.130448 1_555
Co2 O1 1.881790 1_655
Co2 O3 1.889721 1_555
Co2 F1 2.034903 1_654
Co2 F1 2.034903 1_655
Co2 F5 2.130448 1_555
Co2 F5 2.130448 1_554
Co3 O4 1.875636 1_556
Co3 O4 1.875636 1_555
Co3 O5 1.953872 1_555
Co3 F0 2.012567 1_555
Co4 O2 1.940603 1_555
Co4 O2 1.940603 1_556
Co4 O3 1.940603 1_556
Co4 O3 1.940603 1_555
Co4 F1 2.302856 1_555
Co4 F4 2.302856 1_555
Co5 O1 1.875636 1_555
Co5 O1 1.875636 1_556
Co5 O0 1.953872 1_555
Co5 F5 2.012567 1_555
F2 Mg0 2.001513 1_554
F2 Mg0 2.001513 1_555
F3 Mg0 2.001513 1_565
F3 Mg0 2.001513 1_564
