# generated using pymatgen
data_K2CoO2
_symmetry_space_group_name_H-M   'P 1'
_cell_length_a   6.34994676
_cell_length_b   6.87188652
_cell_length_c   9.51673787
_cell_angle_alpha   89.99974493
_cell_angle_beta   89.99447010
_cell_angle_gamma   116.60168649
_symmetry_Int_Tables_number   1
_chemical_formula_structural   K2CoO2
_chemical_formula_sum   'K8 Co4 O8'
_cell_volume   371.31304250
_cell_formula_units_Z   4
loop_
 _symmetry_equiv_pos_site_id
 _symmetry_equiv_pos_as_xyz
  1  'x, y, z'
loop_
 _atom_site_type_symbol
 _atom_site_label
 _atom_site_symmetry_multiplicity
 _atom_site_fract_x
 _atom_site_fract_y
 _atom_site_fract_z
 _atom_site_occupancy
  K  K0  1  0.74895864  0.35728154  0.23563471  1
  K  K1  1  0.25102338  0.14264946  0.73563348  1
  K  K2  1  0.74919360  0.85573420  0.26443130  1
  K  K3  1  0.25074753  0.64427225  0.76443129  1
  K  K4  1  0.21257389  0.40461672  0.41308083  1
  K  K5  1  0.78734322  0.09527355  0.91305764  1
  K  K6  1  0.78425897  0.60098673  0.58719417  1
  K  K7  1  0.21578352  0.89903349  0.08720238  1
  Co  Co0  1  0.30709675  0.41573511  0.06853665  1
  Co  Co1  1  0.69288960  0.08424074  0.56853107  1
  Co  Co2  1  0.30896069  0.92468432  0.43148843  1
  Co  Co3  1  0.69117463  0.57544433  0.93148610  1
  O  O0  1  0.49140852  0.20349901  0.48304759  1
  O  O1  1  0.49573929  0.69342028  0.01374230  1
  O  O2  1  0.50866540  0.29662220  0.98307214  1
  O  O3  1  0.50417408  0.80654994  0.51372392  1
  O  O4  1  0.93829203  0.78188878  0.85200561  1
  O  O5  1  0.06171388  0.71814250  0.35197697  1
  O  O6  1  0.05822054  0.21880705  0.15086005  1
  O  O7  1  0.94178483  0.28112380  0.65086436  1
loop_
_geom_bond_atom_site_label_1
_geom_bond_atom_site_label_2
_geom_bond_distance
_geom_bond_site_symmetry_2
K0 O5 2.628557 1_655
K0 O6 2.661984 1_655
K0 O2 2.776730 1_554
K0 O0 2.790486 1_555
K1 O4 2.628038 1_445
K1 O7 2.661947 1_455
K1 O0 2.776820 1_555
K1 O2 2.791362 1_555
K2 O6 2.618919 1_665
K2 O5 2.684595 1_655
K2 O3 2.773410 1_555
K2 O1 2.814108 1_555
K3 O7 2.619256 1_455
K3 O4 2.684311 1_455
K3 O1 2.773762 1_556
K3 O3 2.813880 1_555
K4 O3 2.719367 1_555
K4 O7 2.736798 1_455
K4 O0 2.771308 1_555
K4 O6 2.774562 1_555
K4 O5 2.783207 1_555
K5 O1 2.718986 1_546
K5 O6 2.737510 1_656
K5 O2 2.771725 1_555
K5 O7 2.774313 1_555
K5 O4 2.782560 1_545
K6 O0 2.711610 1_555
K6 O5 2.737151 1_655
K6 O4 2.786530 1_555
K6 O3 2.810286 1_555
K6 O7 2.858036 1_555
K7 O2 2.711946 1_564
K7 O4 2.737395 1_454
K7 O5 2.786046 1_555
K7 O1 2.809746 1_555
K7 O6 2.857569 1_565
Co0 O6 1.739852 1_555
Co0 O1 1.816837 1_555
Co0 O2 1.976833 1_554
Co1 O7 1.739990 1_555
Co1 O3 1.817061 1_545
Co1 O0 1.977246 1_555
Co2 O5 1.748309 1_555
Co2 O0 1.807248 1_565
Co2 O3 1.926009 1_555
Co3 O4 1.747331 1_555
Co3 O2 1.807356 1_555
Co3 O1 1.926396 1_556
