# generated using pymatgen
data_MgTiMn3O8
_symmetry_space_group_name_H-M   'P 1'
_cell_length_a   5.87054909
_cell_length_b   6.06510083
_cell_length_c   6.09396147
_cell_angle_alpha   57.56507214
_cell_angle_beta   61.12889895
_cell_angle_gamma   61.44809111
_symmetry_Int_Tables_number   1
_chemical_formula_structural   MgTiMn3O8
_chemical_formula_sum   'Mg1 Ti1 Mn3 O8'
_cell_volume   153.16759114
_cell_formula_units_Z   1
loop_
 _symmetry_equiv_pos_site_id
 _symmetry_equiv_pos_as_xyz
  1  'x, y, z'
loop_
 _atom_site_type_symbol
 _atom_site_label
 _atom_site_symmetry_multiplicity
 _atom_site_fract_x
 _atom_site_fract_y
 _atom_site_fract_z
 _atom_site_occupancy
  Mg  Mg0  1  0.29791400  0.27398000  0.20804700  1
  Ti  Ti0  1  0.66974700  0.67487200  0.07117200  1
  Mn  Mn0  1  0.66447700  0.15874200  0.58852700  1
  Mn  Mn1  1  0.15929000  0.66125600  0.58419100  1
  Mn  Mn2  1  0.66436900  0.66285200  0.58941300  1
  O  O0  1  0.88992200  0.41159500  0.33582100  1
  O  O1  1  0.43897600  0.40967100  0.34020300  1
  O  O2  1  0.43165900  0.86596300  0.34745100  1
  O  O3  1  0.43683100  0.40911400  0.79248900  1
  O  O4  1  0.87859600  0.92047000  0.39576700  1
  O  O5  1  0.88832300  0.46984600  0.82833500  1
  O  O6  1  0.44714500  0.91465400  0.83762500  1
  O  O7  1  0.88275100  0.91698400  0.83096000  1
loop_
_geom_bond_atom_site_label_1
_geom_bond_atom_site_label_2
_geom_bond_distance
_geom_bond_site_symmetry_2
Mg0 O2 1.998456 1_545
Mg0 O1 2.004526 1_555
Mg0 O0 2.006196 1_455
Mg0 O3 2.041572 1_554
Mn0 O6 1.910079 1_545
Mn0 O7 1.919107 1_545
Mn0 O4 1.925345 1_545
Mn0 O1 1.974054 1_555
Mn0 O0 1.978299 1_555
Mn0 O3 2.029155 1_555
Mn1 O5 1.928409 1_455
Mn1 O4 1.979852 1_455
Mn1 O2 1.981961 1_555
Mn1 O3 2.034143 1_555
Mn1 O1 2.217251 1_555
Mn1 O7 2.245008 1_455
Mn2 O5 1.941088 1_555
Mn2 O4 1.970510 1_555
Mn2 O2 1.986483 1_555
Mn2 O3 2.002480 1_555
Mn2 O6 2.236084 1_555
Mn2 O0 2.255001 1_555
O0 Ti0 2.024625 1_555
O1 Ti0 2.054224 1_555
O2 Ti0 2.098481 1_555
O5 Ti0 1.999423 1_556
O6 Ti0 1.899315 1_556
O7 Ti0 1.882702 1_556
