# generated using pymatgen
data_ZrCo2Sn
_symmetry_space_group_name_H-M   'P 1'
_cell_length_a   4.42898048
_cell_length_b   4.42898035
_cell_length_c   4.42898050
_cell_angle_alpha   59.99999886
_cell_angle_beta   59.99999983
_cell_angle_gamma   60.00000775
_symmetry_Int_Tables_number   1
_chemical_formula_structural   ZrCo2Sn
_chemical_formula_sum   'Zr1 Co2 Sn1'
_cell_volume   61.43223427
_cell_formula_units_Z   1
loop_
 _symmetry_equiv_pos_site_id
 _symmetry_equiv_pos_as_xyz
  1  'x, y, z'
loop_
 _atom_site_type_symbol
 _atom_site_label
 _atom_site_symmetry_multiplicity
 _atom_site_fract_x
 _atom_site_fract_y
 _atom_site_fract_z
 _atom_site_occupancy
  Zr  Zr0  1  -0.00000000  0.00000000  0.00000000  1
  Co  Co0  1  0.25000000  0.25000000  0.25000000  1
  Co  Co1  1  0.75000000  0.75000000  0.75000000  1
  Sn  Sn0  1  0.50000000  0.50000000  0.50000000  1
loop_
_geom_bond_atom_site_label_1
_geom_bond_atom_site_label_2
_geom_bond_distance
_geom_bond_site_symmetry_2
Co0 Zr0 2.712185 1_556
Co0 Sn0 2.712185 1_555
Co0 Sn0 2.712185 1_554
Co0 Zr0 2.712185 1_555
Co0 Sn0 2.712186 1_545
Co0 Zr0 2.712186 1_565
Co0 Zr0 2.712186 1_655
Co0 Sn0 2.712186 1_455
Co1 Sn0 2.712185 1_555
Co1 Sn0 2.712185 1_556
Co1 Zr0 2.712185 1_665
Co1 Zr0 2.712185 1_666
Co1 Zr0 2.712186 1_656
Co1 Sn0 2.712186 1_565
Co1 Sn0 2.712186 1_655
Co1 Zr0 2.712186 1_566
Sn0 Zr0 3.131762 1_556
Sn0 Zr0 3.131762 1_665
Sn0 Zr0 3.131762 1_655
Sn0 Zr0 3.131762 1_565
Sn0 Zr0 3.131762 1_656
Sn0 Zr0 3.131762 1_566
