# generated using pymatgen
data_MgFe4(OF)4
_symmetry_space_group_name_H-M   'P 1'
_cell_length_a   5.73819548
_cell_length_b   5.50474919
_cell_length_c   5.44414335
_cell_angle_alpha   91.39694856
_cell_angle_beta   100.06071402
_cell_angle_gamma   86.03147773
_symmetry_Int_Tables_number   1
_chemical_formula_structural   MgFe4(OF)4
_chemical_formula_sum   'Mg1 Fe4 O4 F4'
_cell_volume   168.90243337
_cell_formula_units_Z   1
loop_
 _symmetry_equiv_pos_site_id
 _symmetry_equiv_pos_as_xyz
  1  'x, y, z'
loop_
 _atom_site_type_symbol
 _atom_site_label
 _atom_site_symmetry_multiplicity
 _atom_site_fract_x
 _atom_site_fract_y
 _atom_site_fract_z
 _atom_site_occupancy
  Mg  Mg0  1  0.93075797  0.02664449  0.53285332  1
  Fe  Fe0  1  0.02758581  0.10374424  0.07445826  1
  Fe  Fe1  1  0.25684867  0.42868197  0.58949637  1
  Fe  Fe2  1  0.50425989  0.90933569  0.93308806  1
  Fe  Fe3  1  0.69978936  0.57563695  0.40186541  1
  O  O0  1  0.23353323  0.14662794  0.79196197  1
  O  O1  1  0.50277967  0.64920177  0.69274452  1
  O  O2  1  0.76797458  0.87773897  0.20759472  1
  O  O3  1  0.97701399  0.32991550  0.35343073  1
  F  F0  1  0.28549082  0.81648686  0.15559355  1
  F  F1  1  0.44709126  0.31633478  0.33087820  1
  F  F2  1  0.72818647  0.12133111  0.77676857  1
  F  F3  1  0.01368828  0.69832173  0.67315632  1
loop_
_geom_bond_atom_site_label_1
_geom_bond_atom_site_label_2
_geom_bond_distance
_geom_bond_site_symmetry_2
Mg0 O3 2.010726 1_555
Mg0 O2 2.034033 1_545
Mg0 O0 2.168349 1_655
Fe0 O3 1.988141 1_455
Fe0 O0 2.123419 1_554
Fe0 O2 2.229372 1_445
Fe1 O1 1.925542 1_555
Fe1 O0 1.951220 1_555
Fe1 O3 1.972676 1_455
Fe2 O1 1.915500 1_555
Fe2 O2 1.933825 1_556
Fe2 O0 2.015169 1_565
Fe3 O3 2.064225 1_555
Fe3 O2 2.087495 1_555
Fe3 O1 2.116734 1_555
F0 Fe2 1.988661 1_554
F0 Fe0 2.089841 1_565
F1 Fe1 1.989372 1_555
F1 Fe3 2.086433 1_555
F2 Mg0 1.951375 1_555
F2 Fe2 2.091693 1_545
F2 Fe0 2.144604 1_656
F3 Mg0 1.974238 1_465
F3 Fe1 2.063942 1_555
F3 Fe3 2.252136 1_455
