# generated using pymatgen
data_MgCr2(AgO4)2
_symmetry_space_group_name_H-M   'P 1'
_cell_length_a   5.55600260
_cell_length_b   5.55600260
_cell_length_c   6.52016700
_cell_angle_alpha   90.00000000
_cell_angle_beta   90.00000000
_cell_angle_gamma   69.93668454
_symmetry_Int_Tables_number   1
_chemical_formula_structural   MgCr2(AgO4)2
_chemical_formula_sum   'Mg1 Cr2 Ag2 O8'
_cell_volume   189.05773002
_cell_formula_units_Z   1
loop_
 _symmetry_equiv_pos_site_id
 _symmetry_equiv_pos_as_xyz
  1  'x, y, z'
loop_
 _atom_site_type_symbol
 _atom_site_label
 _atom_site_symmetry_multiplicity
 _atom_site_fract_x
 _atom_site_fract_y
 _atom_site_fract_z
 _atom_site_occupancy
  Mg  Mg0  1  0.65842200  0.65842200  0.25000000  1
  Cr  Cr0  1  0.36019600  0.36019600  0.25000000  1
  Cr  Cr1  1  0.64168900  0.64168900  0.75000000  1
  Ag  Ag0  1  0.00359400  0.00359400  0.98815800  1
  Ag  Ag1  1  0.00359400  0.00359400  0.51184200  1
  O  O0  1  0.27331200  0.68921600  0.25000000  1
  O  O1  1  0.32640100  0.74517300  0.75000000  1
  O  O2  1  0.74459500  0.74459500  0.52804000  1
  O  O3  1  0.25460700  0.25460700  0.04692600  1
  O  O4  1  0.74459500  0.74459500  0.97196000  1
  O  O5  1  0.25460700  0.25460700  0.45307400  1
  O  O6  1  0.74517300  0.32640100  0.75000000  1
  O  O7  1  0.68921600  0.27331200  0.25000000  1
loop_
_geom_bond_atom_site_label_1
_geom_bond_atom_site_label_2
_geom_bond_distance
_geom_bond_site_symmetry_2
Mg0 O2 1.975404 1_555
Mg0 O4 1.975404 1_554
Mg0 O7 2.087174 1_555
Mg0 O0 2.087174 1_555
Cr0 O5 1.636348 1_555
Cr0 O3 1.636348 1_555
Cr0 O0 1.723161 1_555
Cr0 O7 1.723161 1_555
Cr1 O6 1.645640 1_555
Cr1 O1 1.645640 1_555
Cr1 O2 1.724097 1_555
Cr1 O4 1.724097 1_555
Ag0 O3 2.317605 1_556
Ag0 O4 2.360793 1_445
Ag0 O1 2.433648 1_545
Ag0 O6 2.433648 1_455
Ag0 O0 2.532859 1_546
Ag0 O7 2.532859 1_456
Ag1 O5 2.317605 1_555
Ag1 O2 2.360793 1_445
Ag1 O1 2.433648 1_545
Ag1 O6 2.433648 1_455
Ag1 O0 2.532859 1_545
Ag1 O7 2.532859 1_455
