# generated using pymatgen
data_Sn4OF6
_symmetry_space_group_name_H-M   'P 1'
_cell_length_a   4.92917304
_cell_length_b   10.70789491
_cell_length_c   15.95162214
_cell_angle_alpha   90.00000000
_cell_angle_beta   90.00000000
_cell_angle_gamma   90.00000000
_symmetry_Int_Tables_number   1
_chemical_formula_structural   Sn4OF6
_chemical_formula_sum   'Sn16 O4 F24'
_cell_volume   841.94363542
_cell_formula_units_Z   4
loop_
 _symmetry_equiv_pos_site_id
 _symmetry_equiv_pos_as_xyz
  1  'x, y, z'
loop_
 _atom_site_type_symbol
 _atom_site_label
 _atom_site_symmetry_multiplicity
 _atom_site_fract_x
 _atom_site_fract_y
 _atom_site_fract_z
 _atom_site_occupancy
  Sn  Sn0  1  0.46081900  0.58536070  0.51395702  1
  Sn  Sn1  1  0.96081900  0.91463930  0.48604298  1
  Sn  Sn2  1  0.53918100  0.08536070  0.98604298  1
  Sn  Sn3  1  0.03918100  0.41463930  0.01395702  1
  Sn  Sn4  1  0.46212483  0.47153500  0.19437324  1
  Sn  Sn5  1  0.96212483  0.02846500  0.80562676  1
  Sn  Sn6  1  0.53787517  0.97153500  0.30562676  1
  Sn  Sn7  1  0.03787517  0.52846500  0.69437324  1
  Sn  Sn8  1  0.96070838  0.69721821  0.31942990  1
  Sn  Sn9  1  0.46070838  0.80278179  0.68057010  1
  Sn  Sn10  1  0.03929162  0.19721821  0.18057010  1
  Sn  Sn11  1  0.53929162  0.30278179  0.81942990  1
  Sn  Sn12  1  0.86299293  0.30911427  0.40842289  1
  Sn  Sn13  1  0.36299293  0.19088573  0.59157711  1
  Sn  Sn14  1  0.13700707  0.80911427  0.09157711  1
  Sn  Sn15  1  0.63700707  0.69088573  0.90842289  1
  O  O0  1  0.16868917  0.36772026  0.13362482  1
  O  O1  1  0.66868917  0.13227974  0.86637518  1
  O  O2  1  0.83131083  0.86772026  0.36637518  1
  O  O3  1  0.33131083  0.63227974  0.63362482  1
  F  F0  1  0.65253147  0.47609533  0.07598551  1
  F  F1  1  0.15253147  0.02390467  0.92401449  1
  F  F2  1  0.34746853  0.97609533  0.42401449  1
  F  F3  1  0.84746853  0.52390467  0.57598551  1
  F  F4  1  0.19494922  0.62106104  0.12133339  1
  F  F5  1  0.69494922  0.87893896  0.87866661  1
  F  F6  1  0.80505078  0.12106104  0.37866661  1
  F  F7  1  0.30505078  0.37893896  0.62133339  1
  F  F8  1  0.73561530  0.23391226  0.53523841  1
  F  F9  1  0.23561530  0.26608774  0.46476159  1
  F  F10  1  0.26438470  0.73391226  0.96476159  1
  F  F11  1  0.76438470  0.76608774  0.03523841  1
  F  F12  1  0.35785138  0.71108408  0.79574502  1
  F  F13  1  0.85785138  0.78891592  0.20425498  1
  F  F14  1  0.64214862  0.21108408  0.70425498  1
  F  F15  1  0.14214862  0.28891592  0.29574502  1
  F  F16  1  0.64421082  0.76418560  0.53508817  1
  F  F17  1  0.14421082  0.73581440  0.46491183  1
  F  F18  1  0.35578918  0.26418560  0.96491183  1
  F  F19  1  0.85578918  0.23581440  0.03508817  1
  F  F20  1  0.84396352  0.72201410  0.70458511  1
  F  F21  1  0.34396352  0.77798590  0.29541489  1
  F  F22  1  0.15603648  0.22201410  0.79541489  1
  F  F23  1  0.65603648  0.27798590  0.20458511  1
loop_
_geom_bond_atom_site_label_1
_geom_bond_atom_site_label_2
_geom_bond_distance
_geom_bond_site_symmetry_2
O0 Sn4 2.065630 1_555
O0 Sn10 2.073848 1_555
O0 Sn3 2.074562 1_555
O1 Sn5 2.065630 1_555
O1 Sn11 2.073848 1_555
O1 Sn2 2.074562 1_555
O2 Sn6 2.065630 1_555
O2 Sn8 2.073848 1_555
O2 Sn1 2.074562 1_555
O3 Sn7 2.065630 1_555
O3 Sn9 2.073848 1_555
O3 Sn0 2.074562 1_555
F0 Sn4 2.109407 1_555
F0 Sn3 2.245970 1_655
F1 Sn5 2.109407 1_455
F1 Sn2 2.245970 1_555
F2 Sn6 2.109407 1_555
F2 Sn1 2.245970 1_455
F3 Sn7 2.109407 1_655
F3 Sn0 2.245970 1_555
F4 Sn14 2.088463 1_555
F4 Sn4 2.378106 1_555
F5 Sn15 2.088463 1_555
F5 Sn5 2.378106 1_565
F6 Sn12 2.088463 1_555
F6 Sn6 2.378106 1_545
F7 Sn13 2.088463 1_555
F7 Sn7 2.378106 1_555
F8 Sn13 2.096058 1_555
F8 Sn12 2.266016 1_555
F9 Sn12 2.096058 1_455
F9 Sn13 2.266016 1_555
F10 Sn15 2.096058 1_555
F10 Sn14 2.266016 1_556
F11 Sn14 2.096058 1_655
F11 Sn15 2.266016 1_554
F12 Sn9 2.143959 1_555
F12 Sn15 2.273939 1_555
F13 Sn8 2.143959 1_555
F13 Sn14 2.273939 1_655
F14 Sn11 2.143959 1_555
F14 Sn13 2.273939 1_555
F15 Sn10 2.143959 1_555
F15 Sn12 2.273939 1_455
F16 Sn0 2.144152 1_555
F16 Sn1 2.375511 1_555
F16 Sn9 2.524772 1_555
F17 Sn1 2.144152 1_455
F17 Sn0 2.375511 1_555
F17 Sn8 2.524772 1_455
F18 Sn2 2.144152 1_555
F18 Sn3 2.375511 1_556
F18 Sn11 2.524772 1_555
F19 Sn3 2.144152 1_655
F19 Sn2 2.375511 1_554
F19 Sn10 2.524772 1_655
F20 Sn9 2.112708 1_555
F20 Sn7 2.288101 1_655
F21 Sn8 2.112708 1_455
F21 Sn6 2.288101 1_555
F22 Sn11 2.112708 1_555
F22 Sn5 2.288101 1_455
F23 Sn10 2.112708 1_655
F23 Sn4 2.288101 1_555
