# generated using pymatgen
data_Ba2NdMgNb(CuO4)2
_symmetry_space_group_name_H-M   'P 1'
_cell_length_a   4.41592918
_cell_length_b   4.41592918
_cell_length_c   11.78067854
_cell_angle_alpha   90.00000000
_cell_angle_beta   90.00000000
_cell_angle_gamma   85.96888773
_symmetry_Int_Tables_number   1
_chemical_formula_structural   Ba2NdMgNb(CuO4)2
_chemical_formula_sum   'Ba2 Nd1 Mg1 Nb1 Cu2 O8'
_cell_volume   229.15996123
_cell_formula_units_Z   1
loop_
 _symmetry_equiv_pos_site_id
 _symmetry_equiv_pos_as_xyz
  1  'x, y, z'
loop_
 _atom_site_type_symbol
 _atom_site_label
 _atom_site_symmetry_multiplicity
 _atom_site_fract_x
 _atom_site_fract_y
 _atom_site_fract_z
 _atom_site_occupancy
  Ba  Ba0  1  0.41299165  0.41299165  0.80566697  1
  Ba  Ba1  1  0.41299165  0.41299165  0.19433303  1
  Nd  Nd0  1  0.63875920  0.63875920  0.50000000  1
  Mg  Mg0  1  0.19664970  0.19664970  0.50000000  1
  Nb  Nb0  1  0.92687757  0.92687757  0.00000000  1
  Cu  Cu0  1  0.91483324  0.91483324  0.31429685  1
  Cu  Cu1  1  0.91483324  0.91483324  0.68570315  1
  O  O0  1  0.53983866  0.08284395  0.61447974  1
  O  O1  1  0.08284395  0.53983866  0.61447974  1
  O  O2  1  0.53983866  0.08284395  0.38552026  1
  O  O3  1  0.08284395  0.53983866  0.38552026  1
  O  O4  1  0.98154685  0.49985379  0.00000000  1
  O  O5  1  0.49985379  0.98154685  0.00000000  1
  O  O6  1  0.01098244  0.01098244  0.15918255  1
  O  O7  1  0.01098244  0.01098244  0.84081745  1
loop_
_geom_bond_atom_site_label_1
_geom_bond_atom_site_label_2
_geom_bond_distance
_geom_bond_site_symmetry_2
Ba0 O7 2.630123 1_555
Ba0 O0 2.719811 1_555
Ba0 O1 2.719811 1_555
Ba0 O4 2.985887 1_456
Ba0 O5 2.985887 1_546
Ba0 O7 3.104366 1_565
Ba0 O7 3.104366 1_655
Ba1 O6 2.630123 1_555
Ba1 O2 2.719811 1_555
Ba1 O3 2.719811 1_555
Ba1 O5 2.985887 1_545
Ba1 O4 2.985887 1_455
Ba1 O6 3.104366 1_655
Ba1 O6 3.104366 1_565
Nd0 O3 2.394773 1_655
Nd0 O2 2.394773 1_565
Nd0 O0 2.394773 1_565
Nd0 O1 2.394773 1_655
Nd0 O2 2.861274 1_555
Nd0 O0 2.861274 1_555
Nd0 O3 2.861274 1_555
Nd0 O1 2.861274 1_555
Mg0 O2 2.064236 1_555
Mg0 O3 2.064236 1_555
Mg0 O0 2.064236 1_555
Mg0 O1 2.064236 1_555
Nb0 O5 1.884189 1_555
Nb0 O4 1.884189 1_555
Nb0 O6 1.952419 1_665
Nb0 O7 1.952419 1_664
Nb0 O4 2.558552 1_565
Nb0 O5 2.558552 1_655
Cu0 O6 1.930054 1_665
Cu0 O3 1.955481 1_655
Cu0 O2 1.955481 1_565
Cu1 O7 1.930054 1_665
Cu1 O0 1.955481 1_565
Cu1 O1 1.955481 1_655
