# generated using pymatgen
data_Ba2MgCrMoO6
_symmetry_space_group_name_H-M   'P 1'
_cell_length_a   6.04778736
_cell_length_b   6.64558962
_cell_length_c   6.04646124
_cell_angle_alpha   63.57536078
_cell_angle_beta   60.04472125
_cell_angle_gamma   63.66377584
_symmetry_Int_Tables_number   1
_chemical_formula_structural   Ba2MgCrMoO6
_chemical_formula_sum   'Ba2 Mg1 Cr1 Mo1 O6'
_cell_volume   180.71141454
_cell_formula_units_Z   1
loop_
 _symmetry_equiv_pos_site_id
 _symmetry_equiv_pos_as_xyz
  1  'x, y, z'
loop_
 _atom_site_type_symbol
 _atom_site_label
 _atom_site_symmetry_multiplicity
 _atom_site_fract_x
 _atom_site_fract_y
 _atom_site_fract_z
 _atom_site_occupancy
  Ba  Ba0  1  0.30509722  0.08490630  0.30486830  1
  Ba  Ba1  1  0.72343993  0.82197585  0.72413463  1
  Mg  Mg0  1  0.09548239  0.70816616  0.09576471  1
  Cr  Cr0  1  0.92383273  0.23005871  0.92357707  1
  Mo  Mo0  1  0.50719810  0.47721008  0.50713551  1
  O  O0  1  0.75357598  0.21989984  0.27475170  1
  O  O1  1  0.75081742  0.22674302  0.75068368  1
  O  O2  1  0.73504785  0.71954133  0.27076071  1
  O  O3  1  0.27095893  0.71850467  0.73556034  1
  O  O4  1  0.27385352  0.70926591  0.27379179  1
  O  O5  1  0.27527893  0.21914511  0.75355455  1
loop_
_geom_bond_atom_site_label_1
_geom_bond_atom_site_label_2
_geom_bond_distance
_geom_bond_site_symmetry_2
Ba0 O2 2.647188 1_545
Ba0 O3 2.649274 1_545
Ba0 O4 2.678481 1_545
Ba0 O5 3.116297 1_555
Ba0 O0 3.116870 1_555
Ba0 O5 3.122715 1_554
Ba0 O0 3.125634 1_455
Ba0 O1 3.131442 1_554
Ba0 O1 3.134614 1_455
Ba1 O5 2.816619 1_565
Ba1 O0 2.819061 1_565
Ba1 O1 2.845150 1_565
Ba1 O3 3.066691 1_555
Ba1 O2 3.067479 1_555
Ba1 O4 3.092991 1_556
Ba1 O2 3.095019 1_556
Ba1 O4 3.099602 1_655
Ba1 O3 3.099690 1_655
Ba1 Cr0 3.376995 1_555
Mg0 O4 1.869785 1_555
Mg0 O3 1.870231 1_554
Mg0 O2 1.870448 1_455
Cr0 O1 1.822509 1_555
Cr0 O0 1.823221 1_556
Cr0 O5 1.824069 1_655
Mo0 O4 2.116897 1_555
Mo0 O3 2.118499 1_555
Mo0 O2 2.118646 1_555
Mo0 O5 2.213928 1_555
Mo0 O0 2.214835 1_555
Mo0 O1 2.217897 1_555
