# generated using pymatgen
data_Na3LaHfSi(PO6)2
_symmetry_space_group_name_H-M   'P 1'
_cell_length_a   9.42861844
_cell_length_b   9.42861809
_cell_length_c   22.75682384
_cell_angle_alpha   89.89112072
_cell_angle_beta   90.10887928
_cell_angle_gamma   119.63655196
_symmetry_Int_Tables_number   1
_chemical_formula_structural   Na3LaHfSi(PO6)2
_chemical_formula_sum   'Na18 La6 Hf6 Si6 P12 O72'
_cell_volume   1758.39422788
_cell_formula_units_Z   6
loop_
 _symmetry_equiv_pos_site_id
 _symmetry_equiv_pos_as_xyz
  1  'x, y, z'
loop_
 _atom_site_type_symbol
 _atom_site_label
 _atom_site_symmetry_multiplicity
 _atom_site_fract_x
 _atom_site_fract_y
 _atom_site_fract_z
 _atom_site_occupancy
  Na  Na0  1  0.00253526  0.98799966  0.50129129  1
  Na  Na1  1  0.01200034  0.99746474  0.00129129  1
  Na  Na2  1  0.66576722  0.31614925  0.83498803  1
  Na  Na3  1  0.68385075  0.33423278  0.33498803  1
  Na  Na4  1  0.35059172  0.67881018  0.16784681  1
  Na  Na5  1  0.32118982  0.64940828  0.66784681  1
  Na  Na6  1  0.35899697  0.35563539  0.24588058  1
  Na  Na7  1  0.99849891  0.64224474  0.24386736  1
  Na  Na8  1  0.64436461  0.64100303  0.74588058  1
  Na  Na9  1  0.35775526  0.00150109  0.74386736  1
  Na  Na10  1  0.04254449  0.70187121  0.57606167  1
  Na  Na11  1  0.64978392  0.97308839  0.58439813  1
  Na  Na12  1  0.29812879  0.95745551  0.07606167  1
  Na  Na13  1  0.02691161  0.35021608  0.08439813  1
  Na  Na14  1  0.98428456  0.68471549  0.91766499  1
  Na  Na15  1  0.68541264  0.01879793  0.90868788  1
  Na  Na16  1  0.98120207  0.31458736  0.40868788  1
  Na  Na17  1  0.31528451  0.01571544  0.41766499  1
  La  La0  1  0.97771772  0.98742779  0.34785017  1
  La  La1  1  0.01257221  0.02228228  0.84785017  1
  La  La2  1  0.67117566  0.32664660  0.68229773  1
  La  La3  1  0.67335340  0.32882434  0.18229773  1
  La  La4  1  0.33834652  0.66014473  0.01403072  1
  La  La5  1  0.33985527  0.66165348  0.51403072  1
  Hf  Hf0  1  0.00603819  0.00996465  0.64901348  1
  Hf  Hf1  1  0.99003535  0.99396181  0.14901348  1
  Hf  Hf2  1  0.66209980  0.33916903  0.98245779  1
  Hf  Hf3  1  0.66083097  0.33790020  0.48245779  1
  Hf  Hf4  1  0.33181203  0.66496361  0.31595484  1
  Hf  Hf5  1  0.33503639  0.66818797  0.81595484  1
  Si  Si0  1  0.01901510  0.31516142  0.25275470  1
  Si  Si1  1  0.68483858  0.98098490  0.75275470  1
  Si  Si2  1  0.35609563  0.03715128  0.58398721  1
  Si  Si3  1  0.96284872  0.64390437  0.08398721  1
  Si  Si4  1  0.34784827  0.97568322  0.91957175  1
  Si  Si5  1  0.02431678  0.65215173  0.41957175  1
  P  P0  1  0.28520643  0.98145873  0.25131411  1
  P  P1  1  0.68510732  0.70469606  0.24681512  1
  P  P2  1  0.29530394  0.31489268  0.74681512  1
  P  P3  1  0.01854127  0.71479357  0.75131411  1
  P  P4  1  0.95752624  0.31327879  0.57891480  1
  P  P5  1  0.69142896  0.64733845  0.58714629  1
  P  P6  1  0.68672121  0.04247376  0.07891480  1
  P  P7  1  0.35266155  0.30857104  0.08714629  1
  P  P8  1  0.62924343  0.64883525  0.91177273  1
  P  P9  1  0.01724475  0.37690357  0.91955669  1
  P  P10  1  0.62309643  0.98275525  0.41955669  1
  P  P11  1  0.35116475  0.37075657  0.41177273  1
  O  O0  1  0.21426765  0.99885791  0.30924500  1
  O  O1  1  0.78759123  0.75659757  0.30248555  1
  O  O2  1  0.00954938  0.22872460  0.31484626  1
  O  O3  1  0.24340243  0.21240877  0.80248555  1
  O  O4  1  0.00114209  0.78573235  0.80924500  1
  O  O5  1  0.77127540  0.99045062  0.81484626  1
  O  O6  1  0.80051795  0.97430760  0.69711906  1
  O  O7  1  0.18018694  0.20918380  0.69497601  1
  O  O8  1  0.03944638  0.83669456  0.69953116  1
  O  O9  1  0.79081620  0.81981306  0.19497601  1
  O  O10  1  0.02569240  0.19948205  0.19711906  1
  O  O11  1  0.16330544  0.96055362  0.19953116  1
  O  O12  1  0.89105792  0.34801174  0.63472623  1
  O  O13  1  0.45529788  0.10533035  0.64496704  1
  O  O14  1  0.67219409  0.56588123  0.64647165  1
  O  O15  1  0.89466965  0.54470212  0.14496704  1
  O  O16  1  0.65198826  0.10894208  0.13472623  1
  O  O17  1  0.43411877  0.32780591  0.14647165  1
  O  O18  1  0.46544676  0.30369503  0.03649876  1
  O  O19  1  0.84073481  0.53215019  0.02817019  1
  O  O20  1  0.70237649  0.15829031  0.02609609  1
  O  O21  1  0.46784981  0.15926519  0.52817019  1
  O  O22  1  0.69630497  0.53455324  0.53649876  1
  O  O23  1  0.84170969  0.29762351  0.52609609  1
  O  O24  1  0.56224318  0.68677534  0.96643020  1
  O  O25  1  0.09662421  0.43429926  0.97975958  1
  O  O26  1  0.33064203  0.88173738  0.98096025  1
  O  O27  1  0.56570074  0.90337579  0.47975958  1
  O  O28  1  0.31322466  0.43775682  0.46643020  1
  O  O29  1  0.11826262  0.66935797  0.48096025  1
  O  O30  1  0.14035278  0.63554224  0.36502547  1
  O  O31  1  0.50797325  0.86643738  0.36985898  1
  O  O32  1  0.36751865  0.48238212  0.35746074  1
  O  O33  1  0.13356262  0.49202675  0.86985898  1
  O  O34  1  0.36445776  0.85964722  0.86502547  1
  O  O35  1  0.51761788  0.63248135  0.85746074  1
  O  O36  1  0.01138821  0.81750822  0.41461710  1
  O  O37  1  0.80378123  0.03052605  0.41291115  1
  O  O38  1  0.21230327  0.19273084  0.40543167  1
  O  O39  1  0.96947395  0.19621877  0.91291115  1
  O  O40  1  0.18249178  0.98861179  0.91461710  1
  O  O41  1  0.80726916  0.78769673  0.90543167  1
  O  O42  1  0.94875851  0.14251326  0.58465124  1
  O  O43  1  0.17506307  0.02575092  0.58750747  1
  O  O44  1  0.86034137  0.81053084  0.58595941  1
  O  O45  1  0.97424908  0.82493693  0.08750747  1
  O  O46  1  0.85748674  0.05124149  0.08465124  1
  O  O47  1  0.18946916  0.13965863  0.08595941  1
  O  O48  1  0.64036359  0.12803469  0.75121273  1
  O  O49  1  0.47486970  0.36107897  0.73771136  1
  O  O50  1  0.86773692  0.54623792  0.74354067  1
  O  O51  1  0.63892103  0.52513030  0.23771136  1
  O  O52  1  0.87196531  0.35963641  0.25121273  1
  O  O53  1  0.45376208  0.13226308  0.24354067  1
  O  O54  1  0.63035798  0.48423435  0.91887779  1
  O  O55  1  0.85592269  0.38814566  0.91728443  1
  O  O56  1  0.52241136  0.15181458  0.92101877  1
  O  O57  1  0.61185434  0.14407731  0.41728443  1
  O  O58  1  0.51576565  0.36964202  0.41887779  1
  O  O59  1  0.84818542  0.47758864  0.42101877  1
  O  O60  1  0.30827497  0.44416965  0.07955636  1
  O  O61  1  0.14942198  0.67165939  0.07998267  1
  O  O62  1  0.54864915  0.86627694  0.07282474  1
  O  O63  1  0.32834061  0.85057802  0.57998267  1
  O  O64  1  0.55583035  0.69172503  0.57955636  1
  O  O65  1  0.13372306  0.45135085  0.57282474  1
  O  O66  1  0.29415620  0.81925795  0.25320907  1
  O  O67  1  0.52534518  0.71378790  0.25267365  1
  O  O68  1  0.19784169  0.49273824  0.25227663  1
  O  O69  1  0.28621210  0.47465482  0.75267365  1
  O  O70  1  0.18074205  0.70584380  0.75320907  1
  O  O71  1  0.50726176  0.80215831  0.75227663  1
loop_
_geom_bond_atom_site_label_1
_geom_bond_atom_site_label_2
_geom_bond_distance
_geom_bond_site_symmetry_2
Na0 O43 2.457682 1_565
Na0 O44 2.467531 1_455
Na0 O36 2.574272 1_555
Na0 O42 2.592846 1_465
Na0 O37 2.905758 1_465
Na0 O38 2.936204 1_565
Na1 O45 2.457682 1_455
Na1 O47 2.467531 1_565
Na1 O40 2.574272 1_554
Na1 O46 2.592846 1_465
Na1 O39 2.905758 1_464
Na1 O41 2.936204 1_454
Na2 O55 2.443584 1_555
Na2 O56 2.447027 1_555
Na2 O48 2.535506 1_555
Na2 O54 2.608604 1_555
Na2 O50 2.928422 1_555
Na2 O49 3.009150 1_555
Na3 O57 2.443584 1_555
Na3 O59 2.447027 1_555
Na3 O52 2.535507 1_555
Na3 O58 2.608604 1_555
Na3 O53 2.928422 1_555
Na3 O51 3.009150 1_555
Na4 O67 2.450091 1_555
Na4 O68 2.518443 1_555
Na4 O66 2.553605 1_555
Na4 O61 2.731277 1_555
Na4 O62 2.832638 1_555
Na4 O60 2.869044 1_555
Na5 O69 2.450091 1_555
Na5 O71 2.518443 1_555
Na5 O70 2.553605 1_555
Na5 O63 2.731277 1_555
Na5 O65 2.832638 1_555
Na5 O64 2.869044 1_555
Na6 O51 2.320275 1_555
Na6 O17 2.424949 1_555
Na6 O68 2.438272 1_555
Na6 O53 2.664302 1_555
Na6 O32 2.792485 1_555
Na6 O67 2.941116 1_555
Na6 O10 2.948217 1_555
Na7 O52 2.325185 1_555
Na7 O15 2.445143 1_555
Na7 O66 2.449372 1_655
Na7 O68 2.859061 1_655
Na8 O49 2.320275 1_555
Na8 O14 2.424949 1_555
Na8 O71 2.438272 1_555
Na8 O50 2.664302 1_555
Na8 O35 2.792485 1_555
Na8 O69 2.941116 1_555
Na8 O6 2.948217 1_555
Na9 O48 2.325185 1_555
Na9 O13 2.445143 1_555
Na9 O70 2.449371 1_545
Na9 O71 2.859061 1_545
Na10 O63 2.344785 1_555
Na10 O29 2.347825 1_555
Na10 O44 2.407202 1_455
Na10 O43 2.680031 1_565
Na10 O65 2.886695 1_555
Na11 O64 2.347582 1_555
Na11 O42 2.458583 1_565
Na11 O27 2.492844 1_555
Na11 O63 2.658359 1_555
Na11 O6 2.927487 1_555
Na12 O61 2.344784 1_555
Na12 O26 2.347825 1_554
Na12 O47 2.407202 1_565
Na12 O45 2.680031 1_455
Na12 O62 2.886695 1_555
Na13 O60 2.347582 1_555
Na13 O46 2.458583 1_455
Na13 O25 2.492844 1_554
Na13 O61 2.658359 1_555
Na13 O10 2.927487 1_555
Na14 O41 2.325040 1_555
Na14 O55 2.436575 1_555
Na14 O40 2.532050 1_655
Na14 O4 2.619696 1_655
Na14 O19 2.880754 1_556
Na14 O54 2.910564 1_555
Na14 O33 3.001263 1_655
Na15 O5 2.347358 1_545
Na15 O39 2.355742 1_555
Na15 O56 2.433704 1_555
Na15 O41 2.924093 1_545
Na16 O2 2.347358 1_655
Na16 O37 2.355742 1_555
Na16 O59 2.433704 1_555
Na16 O38 2.924093 1_655
Na17 O38 2.325040 1_555
Na17 O57 2.436575 1_555
Na17 O36 2.532050 1_545
Na17 O0 2.619696 1_545
Na17 O21 2.880754 1_555
Na17 O58 2.910564 1_555
Na17 O31 3.001263 1_545
La0 O2 2.269205 1_665
La0 O1 2.271341 1_555
La0 O36 2.338386 1_655
La0 O0 2.351002 1_655
La0 O37 2.391105 1_565
La0 O38 2.473969 1_665
La1 O5 2.269205 1_445
La1 O3 2.271341 1_555
La1 O40 2.338386 1_545
La1 O4 2.351002 1_545
La1 O39 2.391105 1_455
La1 O41 2.473969 1_445
La2 O13 2.240220 1_555
La2 O12 2.259495 1_555
La2 O48 2.345893 1_555
La2 O14 2.392566 1_555
La2 O49 2.392933 1_555
La2 O50 2.422824 1_555
La3 O15 2.240220 1_555
La3 O16 2.259495 1_555
La3 O52 2.345893 1_555
La3 O17 2.392566 1_555
La3 O51 2.392933 1_555
La3 O53 2.422824 1_555
La4 O26 2.254062 1_554
La4 O24 2.275160 1_554
La4 O25 2.353038 1_554
La4 O61 2.374746 1_555
La4 O62 2.384889 1_555
La4 O60 2.422745 1_555
La5 O29 2.254063 1_555
La5 O28 2.275160 1_555
La5 O27 2.353038 1_555
La5 O63 2.374746 1_555
La5 O65 2.384889 1_555
La5 O64 2.422745 1_555
Hf0 O7 2.066164 1_555
Hf0 O43 2.072231 1_555
Hf0 O6 2.104468 1_445
Hf0 O8 2.142485 1_545
Hf0 O42 2.157868 1_455
Hf0 O44 2.220359 1_445
Hf1 O9 2.066164 1_555
Hf1 O45 2.072231 1_555
Hf1 O10 2.104468 1_665
Hf1 O11 2.142485 1_655
Hf1 O46 2.157868 1_565
Hf1 O47 2.220359 1_665
Hf2 O19 2.049232 1_556
Hf2 O54 2.109380 1_555
Hf2 O18 2.110919 1_556
Hf2 O56 2.124010 1_555
Hf2 O20 2.161379 1_556
Hf2 O55 2.219397 1_555
Hf3 O21 2.049232 1_555
Hf3 O58 2.109380 1_555
Hf3 O22 2.110919 1_555
Hf3 O59 2.124010 1_555
Hf3 O23 2.161379 1_555
Hf3 O57 2.219397 1_555
Hf4 O30 2.023343 1_555
Hf4 O68 2.075034 1_555
Hf4 O32 2.129514 1_555
Hf4 O31 2.180080 1_555
Hf4 O66 2.186854 1_555
Hf4 O67 2.189100 1_555
Hf5 O34 2.023343 1_555
Hf5 O71 2.075034 1_555
Hf5 O35 2.129514 1_555
Hf5 O33 2.180080 1_555
Hf5 O70 2.186854 1_555
Hf5 O69 2.189099 1_555
O0 P0 1.524777 1_555
O1 P1 1.519280 1_555
O2 Si0 1.610252 1_555
O3 P2 1.519280 1_555
O4 P3 1.524777 1_555
O5 Si1 1.610252 1_555
O6 Si1 1.694117 1_555
O7 P2 1.578878 1_555
O8 P3 1.587520 1_555
O9 P1 1.578878 1_555
O10 Si0 1.694117 1_555
O11 P0 1.587520 1_555
O12 P4 1.523390 1_555
O13 Si2 1.617911 1_555
O14 P5 1.518106 1_555
O15 Si3 1.617911 1_555
O16 P6 1.523390 1_555
O17 P7 1.518106 1_555
O18 P7 1.585748 1_555
O19 Si3 1.687915 1_555
O20 P6 1.579644 1_555
O21 Si2 1.687915 1_555
O22 P5 1.585748 1_555
O23 P4 1.579644 1_555
O24 P8 1.517340 1_555
O25 P9 1.525891 1_555
O26 Si4 1.617589 1_555
O27 P10 1.525890 1_555
O28 P11 1.517340 1_555
O29 Si5 1.617589 1_555
O30 Si5 1.713962 1_555
O31 P10 1.575686 1_555
O32 P11 1.579360 1_555
O33 P9 1.575686 1_555
O34 Si4 1.713962 1_555
O35 P8 1.579360 1_555
O36 Si5 1.626515 1_555
O37 P10 1.539436 1_545
O38 P11 1.542476 1_555
O39 P9 1.539436 1_655
O40 Si4 1.626515 1_555
O41 P8 1.542476 1_555
O42 P4 1.576023 1_555
O43 Si2 1.658454 1_555
O44 P5 1.575161 1_555
O45 Si3 1.658454 1_555
O46 P6 1.576023 1_555
O47 P7 1.575161 1_555
O48 Si1 1.635284 1_545
O49 P2 1.539748 1_555
O50 P3 1.531014 1_655
O51 P1 1.539748 1_555
O52 Si0 1.635284 1_655
O53 P0 1.531014 1_545
O54 P8 1.565248 1_555
O55 P9 1.576901 1_655
O56 Si4 1.662732 1_545
O57 P10 1.576901 1_545
O58 P11 1.565248 1_555
O59 Si5 1.662732 1_655
O60 P7 1.538706 1_555
O61 Si3 1.648198 1_455
O62 P6 1.528115 1_565
O63 Si2 1.648198 1_565
O64 P5 1.538706 1_555
O65 P4 1.528115 1_455
O66 P0 1.573275 1_555
O67 P1 1.556498 1_555
O68 Si0 1.689483 1_555
O69 P2 1.556498 1_555
O70 P3 1.573275 1_555
O71 Si1 1.689483 1_555
