# generated using pymatgen
data_YSiRh2
_symmetry_space_group_name_H-M   'P 1'
_cell_length_a   5.52556335
_cell_length_b   5.52557133
_cell_length_c   15.02304043
_cell_angle_alpha   89.99993718
_cell_angle_beta   90.00003989
_cell_angle_gamma   119.99992672
_symmetry_Int_Tables_number   1
_chemical_formula_structural   YSiRh2
_chemical_formula_sum   'Y6 Si6 Rh12'
_cell_volume   397.23045746
_cell_formula_units_Z   6
loop_
 _symmetry_equiv_pos_site_id
 _symmetry_equiv_pos_as_xyz
  1  'x, y, z'
loop_
 _atom_site_type_symbol
 _atom_site_label
 _atom_site_symmetry_multiplicity
 _atom_site_fract_x
 _atom_site_fract_y
 _atom_site_fract_z
 _atom_site_occupancy
  Y  Y0  1  0.66666652  0.33333308  0.96345383  1
  Y  Y1  1  0.66666720  0.33333354  0.53657501  1
  Y  Y2  1  0.33333379  0.66666691  0.03662055  1
  Y  Y3  1  0.66666648  0.33333337  0.74998964  1
  Y  Y4  1  0.33333383  0.66666674  0.46341028  1
  Y  Y5  1  0.33333313  0.66666612  0.24998680  1
  Si  Si0  1  0.66666688  0.33333286  0.24998232  1
  Si  Si1  1  -0.00000001  -0.00000058  0.49997245  1
  Si  Si2  1  0.00000043  0.00000126  0.24998106  1
  Si  Si3  1  0.00000003  0.00000022  0.75000752  1
  Si  Si4  1  0.33333366  0.66666684  0.75000172  1
  Si  Si5  1  -0.00000076  -0.00000099  0.00004642  1
  Rh  Rh0  1  0.16623438  0.33246932  0.86867213  1
  Rh  Rh1  1  0.16623935  0.33247881  0.63136126  1
  Rh  Rh2  1  0.66752867  0.83376383  0.86867193  1
  Rh  Rh3  1  0.33243930  0.16621977  0.36868400  1
  Rh  Rh4  1  0.83378023  0.66756013  0.36868343  1
  Rh  Rh5  1  0.83378062  0.16621978  0.36868402  1
  Rh  Rh6  1  0.83377911  0.16622145  0.13127411  1
  Rh  Rh7  1  0.33244302  0.16622116  0.13127414  1
  Rh  Rh8  1  0.66752104  0.83376045  0.63136141  1
  Rh  Rh9  1  0.16623966  0.83376046  0.63136123  1
  Rh  Rh10  1  0.83377866  0.66755773  0.13127469  1
  Rh  Rh11  1  0.16623576  0.83376573  0.86867205  1
loop_
_geom_bond_atom_site_label_1
_geom_bond_atom_site_label_2
_geom_bond_distance
_geom_bond_site_symmetry_2
Y0 Y3 3.206881 1_555
Y1 Y3 3.206137 1_555
Y2 Y5 3.205410 1_555
Y4 Y5 3.206270 1_555
Si0 Y5 3.190186 1_655
Si0 Y5 3.190188 1_555
Si0 Y5 3.190193 1_545
Si2 Y5 3.190184 1_555
Si2 Y5 3.190191 1_445
Si2 Y5 3.190192 1_545
Si3 Y3 3.190187 1_455
Si3 Y3 3.190187 1_555
Si3 Y3 3.190193 1_445
Si4 Y3 3.190185 1_555
Si4 Y3 3.190190 1_455
Si4 Y3 3.190192 1_565
Rh0 Si3 2.389391 1_555
Rh0 Si4 2.394969 1_555
Rh0 Si5 2.535040 1_556
Rh0 Rh11 2.755626 1_545
Rh0 Rh2 2.755634 1_445
Rh0 Rh2 2.769939 1_555
Rh0 Rh11 2.769945 1_555
Rh0 Y2 2.987233 1_556
Rh0 Y0 3.108134 1_455
Rh0 Y0 3.108134 1_555
Rh0 Y3 3.288154 1_455
Rh0 Y3 3.288157 1_555
Rh1 Si3 2.389214 1_555
Rh1 Si4 2.394606 1_555
Rh1 Si1 2.535239 1_555
Rh1 Rh9 2.755705 1_545
Rh1 Rh8 2.755705 1_445
Rh1 Rh9 2.769867 1_555
Rh1 Rh8 2.769869 1_555
Rh1 Y4 2.987239 1_555
Rh1 Y1 3.108162 1_455
Rh1 Y1 3.108169 1_555
Rh1 Y3 3.287713 1_555
Rh1 Y3 3.287717 1_455
Rh2 Si3 2.389394 1_665
Rh2 Si4 2.394958 1_555
Rh2 Si5 2.535043 1_666
Rh2 Y2 2.987227 1_556
Rh2 Y0 3.108136 1_555
Rh2 Y0 3.108142 1_565
Rh2 Y3 3.288156 1_555
Rh2 Y3 3.288159 1_565
Rh3 Si2 2.389722 1_555
Rh3 Si0 2.395415 1_555
Rh3 Si1 2.533943 1_555
Rh3 Rh5 2.755370 1_455
Rh3 Rh4 2.755379 1_445
Rh3 Rh5 2.770193 1_555
Rh3 Rh4 2.770195 1_555
Rh3 Y1 2.986580 1_555
Rh3 Y4 3.107756 1_555
Rh3 Y4 3.107757 1_545
Rh3 Y5 3.288275 1_555
Rh3 Y5 3.288283 1_545
Rh4 Si2 2.389724 1_665
Rh4 Si0 2.395410 1_555
Rh4 Si1 2.533952 1_665
Rh4 Rh5 2.755378 1_565
Rh4 Rh5 2.770193 1_555
Rh4 Y1 2.986584 1_555
Rh4 Y4 3.107756 1_555
Rh4 Y4 3.107757 1_655
Rh4 Y5 3.288271 1_555
Rh4 Y5 3.288272 1_655
Rh5 Si2 2.389722 1_655
Rh5 Si0 2.395411 1_555
Rh5 Si1 2.533942 1_655
Rh5 Y1 2.986579 1_555
Rh5 Y4 3.107756 1_545
Rh5 Y4 3.107758 1_655
Rh5 Y5 3.288277 1_655
Rh5 Y5 3.288283 1_545
Rh6 Si2 2.389774 1_655
Rh6 Si0 2.395476 1_555
Rh6 Si5 2.533243 1_655
Rh6 Rh7 2.755400 1_655
Rh6 Rh7 2.770164 1_555
Rh6 Y0 2.985672 1_554
Rh6 Y2 3.107257 1_655
Rh6 Y2 3.107257 1_545
Rh6 Y5 3.288404 1_655
Rh6 Y5 3.288409 1_545
Rh7 Si2 2.389779 1_555
Rh7 Si0 2.395475 1_555
Rh7 Si5 2.533246 1_555
Rh7 Y0 2.985672 1_554
Rh7 Y2 3.107256 1_545
Rh7 Y2 3.107257 1_555
Rh7 Y5 3.288404 1_545
Rh7 Y5 3.288406 1_555
Rh8 Si3 2.389213 1_665
Rh8 Si4 2.394600 1_555
Rh8 Si1 2.535238 1_665
Rh8 Rh9 2.755701 1_655
Rh8 Rh9 2.769862 1_555
Rh8 Y4 2.987238 1_555
Rh8 Y1 3.108169 1_565
Rh8 Y1 3.108171 1_555
Rh8 Y3 3.287715 1_555
Rh8 Y3 3.287720 1_565
Rh9 Si3 2.389217 1_565
Rh9 Si4 2.394601 1_555
Rh9 Si1 2.535233 1_565
Rh9 Y4 2.987239 1_555
Rh9 Y1 3.108169 1_455
Rh9 Y1 3.108171 1_565
Rh9 Y3 3.287719 1_565
Rh9 Y3 3.287720 1_455
Rh10 Si2 2.389778 1_665
Rh10 Si0 2.395473 1_555
Rh10 Si5 2.533245 1_665
Rh10 Rh6 2.755401 1_565
Rh10 Rh7 2.755404 1_665
Rh10 Rh7 2.770169 1_555
Rh10 Rh6 2.770171 1_555
Rh10 Y0 2.985684 1_554
Rh10 Y2 3.107253 1_555
Rh10 Y2 3.107260 1_655
Rh10 Y5 3.288397 1_555
Rh10 Y5 3.288397 1_655
Rh11 Si3 2.389390 1_565
Rh11 Si4 2.394966 1_555
Rh11 Si5 2.535040 1_566
Rh11 Rh2 2.755632 1_455
Rh11 Rh2 2.769931 1_555
Rh11 Y2 2.987228 1_556
Rh11 Y0 3.108135 1_565
Rh11 Y0 3.108143 1_455
Rh11 Y3 3.288155 1_565
Rh11 Y3 3.288164 1_455
