# generated using pymatgen
data_NaH2N
_symmetry_space_group_name_H-M   'P 1'
_cell_length_a   6.78030192
_cell_length_b   6.40103256
_cell_length_c   5.95860669
_cell_angle_alpha   66.42778004
_cell_angle_beta   59.91553323
_cell_angle_gamma   53.65668673
_symmetry_Int_Tables_number   1
_chemical_formula_structural   NaH2N
_chemical_formula_sum   'Na4 H8 N4'
_cell_volume   178.27052343
_cell_formula_units_Z   4
loop_
 _symmetry_equiv_pos_site_id
 _symmetry_equiv_pos_as_xyz
  1  'x, y, z'
loop_
 _atom_site_type_symbol
 _atom_site_label
 _atom_site_symmetry_multiplicity
 _atom_site_fract_x
 _atom_site_fract_y
 _atom_site_fract_z
 _atom_site_occupancy
  Na  Na0  1  0.39678402  0.39678402  0.10321598  1
  Na  Na1  1  0.85321598  0.85321598  0.14678402  1
  Na  Na2  1  0.10321598  0.10321598  0.39678402  1
  Na  Na3  1  0.14678402  0.14678402  0.85321598  1
  H  H0  1  0.53723613  0.81914971  0.03142030  1
  H  H1  1  0.81914971  0.53723613  0.61219386  1
  H  H2  1  0.71276387  0.43085029  0.21857970  1
  H  H3  1  0.43085029  0.71276387  0.63780614  1
  H  H4  1  0.03142030  0.61219386  0.53723613  1
  H  H5  1  0.61219386  0.03142030  0.81914971  1
  H  H6  1  0.21857970  0.63780614  0.71276387  1
  H  H7  1  0.63780614  0.21857970  0.43085029  1
  N  N0  1  0.49125265  0.00874735  0.00874735  1
  N  N1  1  0.00874735  0.49125265  0.49125265  1
  N  N2  1  0.75874735  0.24125265  0.24125265  1
  N  N3  1  0.24125265  0.75874735  0.75874735  1
loop_
_geom_bond_atom_site_label_1
_geom_bond_atom_site_label_2
_geom_bond_distance
_geom_bond_site_symmetry_2
H0 N0 1.025158 1_565
H1 N1 1.025158 1_655
H2 N2 1.025158 1_555
H3 N3 1.025158 1_555
H4 N1 1.025158 1_555
H5 N0 1.025158 1_556
H6 N3 1.025158 1_555
H7 N2 1.025158 1_555
N0 Na2 2.401599 1_555
N0 Na0 2.401599 1_555
N0 Na1 2.482691 1_545
N0 Na3 2.482691 1_554
N1 Na2 2.401599 1_555
N1 Na0 2.401599 1_555
N1 Na1 2.482691 1_455
N1 Na3 2.482691 1_555
N2 Na3 2.401599 1_654
N2 Na1 2.401599 1_545
N2 Na2 2.482691 1_655
N2 Na0 2.482691 1_555
N3 Na3 2.401599 1_565
N3 Na1 2.401599 1_456
N3 Na2 2.482691 1_565
N3 Na0 2.482691 1_556
