# generated using pymatgen
data_BaNdFe2O5
_symmetry_space_group_name_H-M   'P 1'
_cell_length_a   4.02731700
_cell_length_b   7.83811200
_cell_length_c   8.02599600
_cell_angle_alpha   90.00059936
_cell_angle_beta   90.00000000
_cell_angle_gamma   90.00000000
_symmetry_Int_Tables_number   1
_chemical_formula_structural   BaNdFe2O5
_chemical_formula_sum   'Ba2 Nd2 Fe4 O10'
_cell_volume   253.35309798
_cell_formula_units_Z   2
loop_
 _symmetry_equiv_pos_site_id
 _symmetry_equiv_pos_as_xyz
  1  'x, y, z'
loop_
 _atom_site_type_symbol
 _atom_site_label
 _atom_site_symmetry_multiplicity
 _atom_site_fract_x
 _atom_site_fract_y
 _atom_site_fract_z
 _atom_site_occupancy
  Ba  Ba0  1  0.00000000  0.00003400  0.00330500  1
  Ba  Ba1  1  0.00000000  0.99997000  0.50330500  1
  Nd  Nd0  1  0.00000000  0.49960500  0.00379300  1
  Nd  Nd1  1  0.00000000  0.50039700  0.50379800  1
  Fe  Fe0  1  0.50000000  0.27214800  0.25375500  1
  Fe  Fe1  1  0.50000000  0.25598900  0.75332800  1
  Fe  Fe2  1  0.50000000  0.74401100  0.25333100  1
  Fe  Fe3  1  0.50000000  0.72786100  0.75376200  1
  O  O0  1  0.00000000  0.69200300  0.75362300  1
  O  O1  1  0.50000000  0.30903200  0.99677000  1
  O  O2  1  0.00000000  0.69247800  0.25336700  1
  O  O3  1  0.00000000  0.30751800  0.75336700  1
  O  O4  1  0.50000000  0.98784300  0.25292200  1
  O  O5  1  0.00000000  0.30799500  0.25362000  1
  O  O6  1  0.50000000  0.69010800  0.00993300  1
  O  O7  1  0.50000000  0.69096200  0.49676800  1
  O  O8  1  0.50000000  0.01216500  0.75291700  1
  O  O9  1  0.50000000  0.30988200  0.50993400  1
loop_
_geom_bond_atom_site_label_1
_geom_bond_atom_site_label_2
_geom_bond_distance
_geom_bond_site_symmetry_2
Ba0 O4 2.842124 1_545
Ba0 O4 2.842124 1_445
Ba0 O8 2.846473 1_454
Ba0 O8 2.846473 1_554
Ba0 O3 3.135713 1_554
Ba0 O2 3.136783 1_545
Ba0 O0 3.137665 1_544
Ba0 O5 3.140490 1_555
Ba0 O1 3.150154 1_454
Ba0 O1 3.150154 1_554
Ba0 O6 3.155762 1_445
Ba0 O6 3.155762 1_545
Ba1 O8 2.842095 1_565
Ba1 O8 2.842095 1_465
Ba1 O4 2.846443 1_455
Ba1 O4 2.846443 1_555
Ba1 O2 3.135729 1_555
Ba1 O3 3.136703 1_565
Ba1 O5 3.137676 1_565
Ba1 O0 3.140574 1_555
Ba1 O7 3.150213 1_455
Ba1 O7 3.150213 1_555
Ba1 O9 3.155677 1_565
Ba1 O9 3.155677 1_465
Nd0 O5 2.505218 1_555
Nd0 O6 2.507358 1_455
Nd0 O6 2.507358 1_555
Nd0 O1 2.507834 1_554
Nd0 O1 2.507834 1_454
Nd0 O2 2.509519 1_555
Nd0 O0 2.511126 1_554
Nd0 O3 2.511282 1_554
Nd1 O0 2.505161 1_555
Nd1 O9 2.507414 1_455
Nd1 O9 2.507414 1_555
Nd1 O7 2.507799 1_455
Nd1 O7 2.507799 1_555
Nd1 O3 2.509540 1_555
Nd1 O5 2.511171 1_555
Nd1 O2 2.511311 1_555
Fe0 O5 2.033167 1_655
Fe0 O5 2.033167 1_555
Fe0 O9 2.077252 1_555
Fe0 O1 2.082726 1_554
Fe0 O4 2.228424 1_545
Fe1 O8 1.911123 1_555
Fe1 O1 1.997604 1_555
Fe1 O9 1.998634 1_555
Fe1 O3 2.053764 1_655
Fe1 O3 2.053764 1_555
Fe2 O4 1.911185 1_555
Fe2 O7 1.997583 1_555
Fe2 O6 1.998673 1_555
Fe2 O2 2.053770 1_555
Fe2 O2 2.053770 1_655
Fe3 O0 2.033179 1_655
Fe3 O0 2.033179 1_555
Fe3 O6 2.077216 1_556
Fe3 O7 2.082808 1_555
Fe3 O8 2.228417 1_565
