# generated using pymatgen
data_Cr9(PO4)8
_symmetry_space_group_name_H-M   'P 1'
_cell_length_a   9.18002500
_cell_length_b   8.65198146
_cell_length_c   8.82697193
_cell_angle_alpha   100.13352124
_cell_angle_beta   103.25298473
_cell_angle_gamma   110.01687957
_symmetry_Int_Tables_number   1
_chemical_formula_structural   Cr9(PO4)8
_chemical_formula_sum   'Cr9 P8 O32'
_cell_volume   615.88215862
_cell_formula_units_Z   1
loop_
 _symmetry_equiv_pos_site_id
 _symmetry_equiv_pos_as_xyz
  1  'x, y, z'
loop_
 _atom_site_type_symbol
 _atom_site_label
 _atom_site_symmetry_multiplicity
 _atom_site_fract_x
 _atom_site_fract_y
 _atom_site_fract_z
 _atom_site_occupancy
  Cr  Cr0  1  0.94270300  0.69422100  0.20217400  1
  Cr  Cr1  1  0.56286100  0.12254800  0.29041700  1
  Cr  Cr2  1  0.50000000  0.50000000  0.00000000  1
  Cr  Cr3  1  0.53230400  0.29591100  0.67158000  1
  Cr  Cr4  1  0.46769600  0.70408900  0.32842000  1
  Cr  Cr5  1  0.43713900  0.87745200  0.70958300  1
  Cr  Cr6  1  0.00000000  0.00000000  0.00000000  1
  Cr  Cr7  1  0.05729700  0.30577900  0.79782600  1
  Cr  Cr8  1  0.00000000  0.50000000  0.50000000  1
  P  P0  1  0.29715600  0.96437700  0.38141000  1
  P  P1  1  0.09689600  0.38567600  0.16257600  1
  P  P2  1  0.27870500  0.47366500  0.66471100  1
  P  P3  1  0.33914800  0.12558600  0.93612100  1
  P  P4  1  0.66085200  0.87441400  0.06387900  1
  P  P5  1  0.72129500  0.52633500  0.33528900  1
  P  P6  1  0.90310400  0.61432400  0.83742400  1
  P  P7  1  0.70284400  0.03562300  0.61859000  1
  O  O0  1  0.44439400  0.26619100  0.86765900  1
  O  O1  1  0.97023100  0.50576300  0.72523600  1
  O  O2  1  0.67509900  0.05088600  0.14942600  1
  O  O3  1  0.71358800  0.09909700  0.47007400  1
  O  O4  1  0.89962300  0.66842800  0.42627500  1
  O  O5  1  0.73955700  0.36645800  0.38090400  1
  O  O6  1  0.92827100  0.78963700  0.80767500  1
  O  O7  1  0.83170600  0.85976300  0.09666700  1
  O  O8  1  0.87442100  0.07740600  0.72540700  1
  O  O9  1  0.12557900  0.92259400  0.27459300  1
  O  O10  1  0.00562300  0.65271300  0.01653900  1
  O  O11  1  0.02976900  0.49423700  0.27476400  1
  O  O12  1  0.32490100  0.94911400  0.85057400  1
  O  O13  1  0.28641200  0.90090300  0.52992600  1
  O  O14  1  0.10037700  0.33157200  0.57372500  1
  O  O15  1  0.26044300  0.63354200  0.61909600  1
  O  O16  1  0.07172900  0.21036300  0.19232500  1
  O  O17  1  0.16829400  0.14023700  0.90333300  1
  O  O18  1  0.28953500  0.48511700  0.84753200  1
  O  O19  1  0.71046500  0.51488300  0.15246800  1
  O  O20  1  0.27692800  0.50008900  0.18950500  1
  O  O21  1  0.58180100  0.82705000  0.87947900  1
  O  O22  1  0.41718500  0.44313600  0.62110000  1
  O  O23  1  0.58325300  0.84097200  0.56703300  1
  O  O24  1  0.39082100  0.88717500  0.27937800  1
  O  O25  1  0.55560600  0.73380900  0.13234100  1
  O  O26  1  0.41674700  0.15902800  0.43296700  1
  O  O27  1  0.58281500  0.55686400  0.37890000  1
  O  O28  1  0.41819900  0.17295000  0.12052100  1
  O  O29  1  0.72307200  0.49991100  0.81049500  1
  O  O30  1  0.60917900  0.11282500  0.72062200  1
  O  O31  1  0.99437700  0.34728700  0.98346100  1
loop_
_geom_bond_atom_site_label_1
_geom_bond_atom_site_label_2
_geom_bond_distance
_geom_bond_site_symmetry_2
Cr0 O10 1.875230 1_655
Cr0 O9 1.980843 1_655
Cr0 O19 2.052363 1_555
Cr0 O4 2.138415 1_555
Cr0 O7 2.233913 1_555
Cr0 O11 2.268313 1_655
Cr1 O2 1.936138 1_555
Cr1 O3 1.941628 1_555
Cr1 O28 1.978938 1_555
Cr1 O5 2.047414 1_555
Cr1 O24 2.075739 1_545
Cr1 O26 2.099046 1_555
Cr2 O25 1.976230 1_555
Cr2 O0 1.976230 1_554
Cr2 O18 2.034019 1_554
Cr2 O19 2.034019 1_555
Cr3 O29 1.955374 1_555
Cr3 O22 1.960426 1_555
Cr3 O30 2.015240 1_555
Cr3 O26 2.049842 1_555
Cr3 O0 2.089970 1_555
Cr4 O20 1.955374 1_555
Cr4 O27 1.960426 1_555
Cr4 O24 2.015240 1_555
Cr4 O23 2.049842 1_555
Cr4 O25 2.089970 1_555
Cr5 O12 1.936138 1_555
Cr5 O13 1.941628 1_555
Cr5 O21 1.978938 1_555
Cr5 O15 2.047414 1_555
Cr5 O30 2.075739 1_565
Cr5 O23 2.099046 1_555
Cr6 O16 2.051327 1_555
Cr6 O6 2.051327 1_444
Cr6 O7 2.067013 1_445
Cr6 O17 2.067013 1_554
Cr7 O31 1.875230 1_455
Cr7 O8 1.980843 1_455
Cr7 O18 2.052363 1_555
Cr7 O14 2.138415 1_555
Cr7 O17 2.233913 1_555
Cr7 O1 2.268313 1_455
Cr8 O11 2.062396 1_555
Cr8 O1 2.062396 1_455
Cr8 O14 2.091447 1_555
Cr8 O4 2.091447 1_455
Cr8 O15 2.164582 1_555
Cr8 O5 2.164582 1_455
O0 P3 1.581239 1_555
O1 P6 1.609768 1_555
O2 P4 1.526708 1_545
O3 P7 1.518368 1_555
O4 P5 1.583762 1_555
O5 P5 1.558013 1_555
O6 P6 1.533329 1_555
O7 P4 1.581371 1_555
O8 P7 1.519836 1_555
O9 P0 1.519836 1_555
O10 P6 1.553937 1_454
O11 P1 1.609768 1_555
O12 P3 1.526708 1_565
O13 P0 1.518368 1_555
O14 P2 1.583762 1_555
O15 P2 1.558013 1_555
O16 P1 1.533329 1_555
O17 P3 1.581371 1_555
O18 P2 1.577130 1_555
O19 P5 1.577130 1_555
O20 P1 1.544310 1_555
O21 P4 1.537550 1_556
O22 P2 1.500835 1_555
O23 P7 1.576105 1_565
O24 P0 1.591604 1_555
O25 P4 1.581239 1_555
O26 P0 1.576105 1_545
O27 P5 1.500835 1_555
O28 P3 1.537550 1_554
O29 P6 1.544310 1_555
O30 P7 1.591604 1_555
O31 P1 1.553937 1_656
