# generated using pymatgen
data_Na5OsO6
_symmetry_space_group_name_H-M   'P 1'
_cell_length_a   5.53045711
_cell_length_b   5.58671794
_cell_length_c   5.58671805
_cell_angle_alpha   119.72196857
_cell_angle_beta   100.07857834
_cell_angle_gamma   100.07857714
_symmetry_Int_Tables_number   1
_chemical_formula_structural   Na5OsO6
_chemical_formula_sum   'Na5 Os1 O6'
_cell_volume   140.50506751
_cell_formula_units_Z   1
loop_
 _symmetry_equiv_pos_site_id
 _symmetry_equiv_pos_as_xyz
  1  'x, y, z'
loop_
 _atom_site_type_symbol
 _atom_site_label
 _atom_site_symmetry_multiplicity
 _atom_site_fract_x
 _atom_site_fract_y
 _atom_site_fract_z
 _atom_site_occupancy
  Na  Na0  1  0.00000000  0.66764006  0.33235994  1
  Na  Na1  1  0.50000000  0.17685743  0.82314257  1
  Na  Na2  1  0.50000000  0.50000000  0.50000000  1
  Na  Na3  1  -0.00000000  0.33235994  0.66764006  1
  Na  Na4  1  0.50000000  0.82314257  0.17685743  1
  Os  Os0  1  0.00000000  -0.00000000  -0.00000000  1
  O  O0  1  0.20573950  0.79720493  0.79720493  1
  O  O1  1  0.79425950  0.20279507  0.20279507  1
  O  O2  1  0.21823964  0.07182284  0.35499201  1
  O  O3  1  0.78176136  0.64500799  0.92817716  1
  O  O4  1  0.78176036  0.92817716  0.64500799  1
  O  O5  1  0.21823864  0.35499201  0.07182284  1
loop_
_geom_bond_atom_site_label_1
_geom_bond_atom_site_label_2
_geom_bond_distance
_geom_bond_site_symmetry_2
Na0 O3 2.298078 1_454
Na0 O2 2.298079 1_565
Na0 O0 2.318699 1_555
Na0 O1 2.318700 1_455
Na0 O5 2.336236 1_555
Na0 O4 2.336240 1_455
Na1 O4 2.297444 1_545
Na1 O5 2.297448 1_556
Na1 O1 2.360656 1_556
Na1 O0 2.360659 1_545
Na1 O2 2.518869 1_555
Na1 O3 2.518871 1_555
Na2 O4 2.266851 1_555
Na2 O2 2.266851 1_555
Na2 O5 2.266853 1_555
Na2 O3 2.266853 1_555
Na2 O1 2.705549 1_555
Na2 O0 2.705554 1_555
Na3 O5 2.298078 1_556
Na3 O4 2.298079 1_445
Na3 O0 2.318699 1_555
Na3 O1 2.318700 1_455
Na3 O3 2.336236 1_455
Na3 O2 2.336240 1_555
Na4 O2 2.297444 1_565
Na4 O3 2.297448 1_554
Na4 O1 2.360656 1_565
Na4 O0 2.360659 1_554
Na4 O4 2.518869 1_555
Na4 O5 2.518871 1_555
O0 Os0 1.868540 1_566
O1 Os0 1.868544 1_655
O2 Os0 1.937688 1_555
O3 Os0 1.937685 1_666
O4 Os0 1.937688 1_666
O5 Os0 1.937685 1_555
