# generated using pymatgen
data_BaV8O16
_symmetry_space_group_name_H-M   'P 1'
_cell_length_a   5.68682696
_cell_length_b   7.25888093
_cell_length_c   7.25928843
_cell_angle_alpha   87.79680739
_cell_angle_beta   78.69388663
_cell_angle_gamma   78.70343041
_symmetry_Int_Tables_number   1
_chemical_formula_structural   BaV8O16
_chemical_formula_sum   'Ba1 V8 O16'
_cell_volume   288.15518092
_cell_formula_units_Z   1
loop_
 _symmetry_equiv_pos_site_id
 _symmetry_equiv_pos_as_xyz
  1  'x, y, z'
loop_
 _atom_site_type_symbol
 _atom_site_label
 _atom_site_symmetry_multiplicity
 _atom_site_fract_x
 _atom_site_fract_y
 _atom_site_fract_z
 _atom_site_occupancy
  Ba  Ba0  1  0.24371364  0.00009975  0.00011482  1
  V  V0  1  0.08017049  0.18619034  0.47692009  1
  V  V1  1  0.58515949  0.18298558  0.46629780  1
  V  V2  1  0.31847912  0.52329299  0.18678440  1
  V  V3  1  0.81803291  0.53358772  0.18240729  1
  V  V4  1  0.17487783  0.47665527  0.81316288  1
  V  V5  1  0.67519215  0.46644103  0.81758269  1
  V  V6  1  0.41316094  0.81374710  0.52295354  1
  V  V7  1  0.90795712  0.81700435  0.53384379  1
  O  O0  1  0.39506278  0.04325126  0.35207556  1
  O  O1  1  0.90022557  0.04252439  0.35434336  1
  O  O2  1  0.07751754  0.37659541  0.29465554  1
  O  O3  1  0.57888061  0.37982327  0.29583571  1
  O  O4  1  0.07679609  0.64785952  0.04244332  1
  O  O5  1  0.57140976  0.64574639  0.04339817  1
  O  O6  1  0.26868615  0.29510604  0.62259291  1
  O  O7  1  0.76579602  0.29558775  0.62087650  1
  O  O8  1  0.22441620  0.70487791  0.37742094  1
  O  O9  1  0.72762567  0.70439567  0.37911199  1
  O  O10  1  0.41628835  0.35222281  0.95746911  1
  O  O11  1  0.92182851  0.35419617  0.95664801  1
  O  O12  1  0.41577181  0.62334332  0.70525358  1
  O  O13  1  0.91436025  0.62031553  0.70428614  1
  O  O14  1  0.59304533  0.95745361  0.64562550  1
  O  O15  1  0.09812166  0.95669782  0.64789636  1
loop_
_geom_bond_atom_site_label_1
_geom_bond_atom_site_label_2
_geom_bond_distance
_geom_bond_site_symmetry_2
Ba0 O4 2.882556 1_545
Ba0 O15 2.883829 1_544
Ba0 O11 2.894440 1_454
Ba0 O1 2.894562 1_455
Ba0 O10 2.897416 1_554
Ba0 O0 2.897632 1_555
Ba0 O5 2.911582 1_545
Ba0 O14 2.912091 1_544
O0 V1 1.931515 1_555
O0 V0 1.952609 1_555
O0 V6 2.036831 1_545
O1 V1 1.920258 1_555
O1 V0 1.942414 1_655
O1 V7 2.051819 1_545
O2 V0 1.876215 1_555
O2 V2 1.926572 1_555
O2 V3 1.970130 1_455
O3 V1 1.853495 1_555
O3 V2 1.922570 1_555
O3 V3 1.964284 1_555
O4 V3 1.926909 1_455
O4 V2 1.951785 1_555
O4 V4 2.036975 1_554
O5 V3 1.921605 1_555
O5 V2 1.945550 1_555
O5 V5 2.052631 1_554
O6 V4 1.873627 1_555
O6 V0 1.932223 1_555
O6 V1 1.971091 1_555
O7 V5 1.854709 1_555
O7 V0 1.921958 1_655
O7 V1 1.958048 1_555
O8 V2 1.874148 1_555
O8 V6 1.932325 1_555
O8 V7 1.971426 1_455
O9 V3 1.854494 1_555
O9 V6 1.921941 1_555
O9 V7 1.957597 1_555
O10 V5 1.927083 1_555
O10 V4 1.950208 1_555
O10 V2 2.036612 1_556
O11 V5 1.922091 1_555
O11 V4 1.946330 1_655
O11 V3 2.052700 1_556
O12 V6 1.876382 1_555
O12 V4 1.926309 1_555
O12 V5 1.969912 1_555
O13 V7 1.852601 1_555
O13 V4 1.922895 1_655
O13 V5 1.964649 1_555
O14 V7 1.919245 1_555
O14 V6 1.942761 1_555
O14 V1 2.051114 1_565
O15 V7 1.930921 1_455
O15 V6 1.953461 1_555
O15 V0 2.037176 1_565
