# generated using pymatgen
data_HoCoO3
_symmetry_space_group_name_H-M   'P 1'
_cell_length_a   5.11319813
_cell_length_b   5.42543382
_cell_length_c   7.33341945
_cell_angle_alpha   90.00000000
_cell_angle_beta   90.00000000
_cell_angle_gamma   90.00000000
_symmetry_Int_Tables_number   1
_chemical_formula_structural   HoCoO3
_chemical_formula_sum   'Ho4 Co4 O12'
_cell_volume   203.43872145
_cell_formula_units_Z   4
loop_
 _symmetry_equiv_pos_site_id
 _symmetry_equiv_pos_as_xyz
  1  'x, y, z'
loop_
 _atom_site_type_symbol
 _atom_site_label
 _atom_site_symmetry_multiplicity
 _atom_site_fract_x
 _atom_site_fract_y
 _atom_site_fract_z
 _atom_site_occupancy
  Ho  Ho0  1  0.01968965  0.92807763  0.75000000  1
  Ho  Ho1  1  0.51968965  0.57192237  0.25000000  1
  Ho  Ho2  1  0.48031035  0.42807763  0.75000000  1
  Ho  Ho3  1  0.98031035  0.07192237  0.25000000  1
  Co  Co0  1  0.50000000  0.00000000  0.50000000  1
  Co  Co1  1  0.00000000  0.50000000  0.50000000  1
  Co  Co2  1  0.00000000  0.50000000  0.00000000  1
  Co  Co3  1  0.50000000  0.00000000  0.00000000  1
  O  O0  1  0.69210812  0.30094327  0.44907185  1
  O  O1  1  0.19210812  0.19905673  0.55092815  1
  O  O2  1  0.80789188  0.80094327  0.05092815  1
  O  O3  1  0.30789188  0.69905673  0.94907185  1
  O  O4  1  0.30789188  0.69905673  0.55092815  1
  O  O5  1  0.80789188  0.80094327  0.44907185  1
  O  O6  1  0.19210812  0.19905673  0.94907185  1
  O  O7  1  0.69210812  0.30094327  0.05092815  1
  O  O8  1  0.10157666  0.47033883  0.25000000  1
  O  O9  1  0.60157666  0.02966117  0.75000000  1
  O  O10  1  0.89842334  0.52966117  0.75000000  1
  O  O11  1  0.39842334  0.97033883  0.25000000  1
loop_
_geom_bond_atom_site_label_1
_geom_bond_atom_site_label_2
_geom_bond_distance
_geom_bond_site_symmetry_2
Ho0 O9 2.207791 1_465
Ho0 O10 2.248757 1_455
Ho0 O6 2.251645 1_565
Ho0 O1 2.251645 1_565
Ho0 O3 2.418004 1_555
Ho0 O4 2.418004 1_555
Ho0 O5 2.553172 1_455
Ho0 O2 2.553172 1_456
Ho1 O8 2.207791 1_555
Ho1 O11 2.248757 1_555
Ho1 O0 2.251645 1_555
Ho1 O7 2.251645 1_555
Ho1 O5 2.418004 1_555
Ho1 O2 2.418004 1_555
Ho1 O3 2.553172 1_554
Ho1 O4 2.553172 1_555
Ho2 O10 2.207791 1_555
Ho2 O9 2.248757 1_555
Ho2 O3 2.251645 1_555
Ho2 O4 2.251645 1_555
Ho2 O6 2.418004 1_555
Ho2 O1 2.418004 1_555
Ho2 O0 2.553172 1_555
Ho2 O7 2.553172 1_556
Ho3 O11 2.207791 1_645
Ho3 O8 2.248757 1_655
Ho3 O2 2.251645 1_545
Ho3 O5 2.251645 1_545
Ho3 O7 2.418004 1_555
Ho3 O0 2.418004 1_555
Ho3 O1 2.553172 1_655
Ho3 O6 2.553172 1_654
Co0 O9 1.912288 1_555
Co0 O11 1.912288 1_545
Co0 O4 1.941710 1_545
Co0 O0 1.941710 1_555
Co0 O1 1.945322 1_555
Co0 O5 1.945322 1_545
Co1 O10 1.912288 1_455
Co1 O8 1.912288 1_555
Co1 O1 1.941710 1_555
Co1 O5 1.941710 1_455
Co1 O4 1.945322 1_555
Co1 O0 1.945322 1_455
Co2 O10 1.912288 1_454
Co2 O8 1.912288 1_555
Co2 O6 1.941710 1_554
Co2 O2 1.941710 1_455
Co2 O3 1.945322 1_554
Co2 O7 1.945322 1_455
Co3 O9 1.912288 1_554
Co3 O11 1.912288 1_545
Co3 O3 1.941710 1_544
Co3 O7 1.941710 1_555
Co3 O6 1.945322 1_554
Co3 O2 1.945322 1_545
