# generated using pymatgen
data_MgCd2(CoO2)4
_symmetry_space_group_name_H-M   'P 1'
_cell_length_a   6.50818410
_cell_length_b   6.36960295
_cell_length_c   6.04879242
_cell_angle_alpha   63.40972157
_cell_angle_beta   85.86723049
_cell_angle_gamma   118.41686029
_symmetry_Int_Tables_number   1
_chemical_formula_structural   MgCd2(CoO2)4
_chemical_formula_sum   'Mg1 Cd2 Co4 O8'
_cell_volume   183.79937909
_cell_formula_units_Z   1
loop_
 _symmetry_equiv_pos_site_id
 _symmetry_equiv_pos_as_xyz
  1  'x, y, z'
loop_
 _atom_site_type_symbol
 _atom_site_label
 _atom_site_symmetry_multiplicity
 _atom_site_fract_x
 _atom_site_fract_y
 _atom_site_fract_z
 _atom_site_occupancy
  Mg  Mg0  1  0.26344836  0.46115487  0.74018261  1
  Cd  Cd0  1  0.91296609  0.85099836  0.09710533  1
  Cd  Cd1  1  0.81291769  0.60582301  0.73207987  1
  Co  Co0  1  0.34960662  0.28045292  0.33752211  1
  Co  Co1  1  0.89688582  0.26367175  0.36807563  1
  Co  Co2  1  0.42433662  0.89351507  0.26295823  1
  Co  Co3  1  0.43992260  0.88897884  0.81479867  1
  O  O0  1  0.12718020  0.23482052  0.12874971  1
  O  O1  1  0.61915376  0.29143256  0.17075979  1
  O  O2  1  0.54039008  0.71690347  0.13130141  1
  O  O3  1  0.15494690  0.71421336  0.13278829  1
  O  O4  1  0.64735300  0.26960953  0.63055890  1
  O  O5  1  0.12237487  0.20767444  0.61184926  1
  O  O6  1  0.20784558  0.78061946  0.61116671  1
  O  O7  1  0.61608880  0.81096483  0.59468648  1
loop_
_geom_bond_atom_site_label_1
_geom_bond_atom_site_label_2
_geom_bond_distance
_geom_bond_site_symmetry_2
Mg0 O0 1.959187 1_556
Mg0 O5 1.966271 1_555
Mg0 O7 2.023064 1_555
Mg0 O6 2.049533 1_555
Cd0 O2 2.109573 1_555
Cd0 O3 2.114815 1_655
Cd0 O0 2.273915 1_665
Cd0 O5 2.478128 1_664
Cd1 O6 2.158055 1_655
Cd1 O7 2.193954 1_555
Cd1 O1 2.235773 1_556
Cd1 O4 2.280517 1_555
Co0 O5 1.860259 1_555
Co0 O1 1.914380 1_555
Co0 O0 1.991567 1_555
Co0 O2 2.052613 1_555
Co0 O6 2.448222 1_545
Co1 O3 2.119834 1_655
Co1 O0 2.136207 1_655
Co1 O7 2.149086 1_545
Co1 O5 2.189604 1_655
Co1 O4 2.213641 1_555
Co1 O1 2.269174 1_555
Co2 O1 1.979083 1_565
Co2 O2 1.998539 1_555
Co2 O3 2.023950 1_555
Co2 O6 2.047092 1_555
Co2 O7 2.429218 1_555
Co3 O4 1.786534 1_565
Co3 O3 1.995663 1_556
Co3 O7 2.061214 1_555
Co3 O2 2.068350 1_556
Co3 O6 2.076501 1_555
