# generated using pymatgen
data_YAgS2
_symmetry_space_group_name_H-M   'P 1'
_cell_length_a   7.64049572
_cell_length_b   7.64332884
_cell_length_c   12.47229520
_cell_angle_alpha   89.99829703
_cell_angle_beta   90.00000000
_cell_angle_gamma   90.00000000
_symmetry_Int_Tables_number   1
_chemical_formula_structural   YAgS2
_chemical_formula_sum   'Y8 Ag8 S16'
_cell_volume   728.36733839
_cell_formula_units_Z   8
loop_
 _symmetry_equiv_pos_site_id
 _symmetry_equiv_pos_as_xyz
  1  'x, y, z'
loop_
 _atom_site_type_symbol
 _atom_site_label
 _atom_site_symmetry_multiplicity
 _atom_site_fract_x
 _atom_site_fract_y
 _atom_site_fract_z
 _atom_site_occupancy
  Y  Y0  1  0.27824009  0.50009692  0.25296672  1
  Y  Y1  1  0.77824009  0.49990308  0.74703328  1
  Y  Y2  1  0.02866102  0.24884334  0.50275664  1
  Y  Y3  1  0.52866102  0.75115666  0.49724336  1
  Y  Y4  1  0.27957204  0.00005401  0.75282777  1
  Y  Y5  1  0.77957204  -0.00005401  0.24717223  1
  Y  Y6  1  0.52902494  0.25123342  0.00271478  1
  Y  Y7  1  0.02902494  0.74876658  0.99728522  1
  Ag  Ag0  1  0.29105159  0.00536672  0.31244449  1
  Ag  Ag1  1  0.79105159  -0.00536672  0.68755551  1
  Ag  Ag2  1  0.51831402  0.26610615  0.56123189  1
  Ag  Ag3  1  0.01831402  0.73389385  0.43876811  1
  Ag  Ag4  1  0.76884521  0.50328044  0.18698511  1
  Ag  Ag5  1  0.26884521  0.49671956  0.81301489  1
  Ag  Ag6  1  0.04155672  0.23222019  0.06096295  1
  Ag  Ag7  1  0.54155672  0.76777981  0.93903705  1
  S  S0  1  0.54981146  0.27065687  0.22370715  1
  S  S1  1  0.04981146  0.72934313  0.77629285  1
  S  S2  1  0.25436958  0.47514091  0.03288516  1
  S  S3  1  0.75436958  0.52485909  0.96711484  1
  S  S4  1  0.30381529  0.02518330  0.53261569  1
  S  S5  1  0.80381529  0.97481670  0.46738431  1
  S  S6  1  0.05464728  0.22410221  0.28234136  1
  S  S7  1  0.55464728  0.77589779  0.71765864  1
  S  S8  1  0.25757102  0.52084465  0.47393827  1
  S  S9  1  0.75757102  0.47915535  0.52606173  1
  S  S10  1  0.00806591  0.22920024  0.72358538  1
  S  S11  1  0.50806591  0.77079976  0.27641462  1
  S  S12  1  0.80031998  0.02095157  0.02603554  1
  S  S13  1  0.30031998  0.97904843  0.97396446  1
  S  S14  1  0.00293386  0.72396420  0.21764540  1
  S  S15  1  0.50293386  0.27603580  0.78235460  1
loop_
_geom_bond_atom_site_label_1
_geom_bond_atom_site_label_2
_geom_bond_distance
_geom_bond_site_symmetry_2
Ag0 S11 2.483075 1_545
Ag0 S6 2.489698 1_555
Ag0 S4 2.751947 1_555
Ag0 S0 3.040574 1_555
Ag1 S10 2.483075 1_655
Ag1 S7 2.489698 1_545
Ag1 S5 2.751947 1_545
Ag1 S1 3.040574 1_645
Ag2 S9 2.487130 1_555
Ag2 S4 2.490841 1_555
Ag2 S15 2.761456 1_555
Ag2 S8 2.990843 1_555
Ag3 S8 2.487130 1_555
Ag3 S5 2.490841 1_455
Ag3 S14 2.761456 1_555
Ag3 S9 2.990843 1_455
Ag4 S0 2.484303 1_555
Ag4 S14 2.488041 1_655
Ag4 S3 2.749463 1_554
Ag4 S11 3.065155 1_555
Ag5 S1 2.484303 1_555
Ag5 S15 2.488041 1_555
Ag5 S2 2.749463 1_556
Ag5 S10 3.065155 1_555
Ag6 S12 2.488904 1_455
Ag6 S2 2.492765 1_555
Ag6 S6 2.763603 1_555
Ag6 S13 2.971677 1_544
Ag7 S13 2.488904 1_555
Ag7 S3 2.492765 1_555
Ag7 S7 2.763603 1_555
Ag7 S12 2.971677 1_566
S0 Y5 2.729222 1_555
S0 Y0 2.741168 1_555
S0 Y6 2.764847 1_555
S1 Y4 2.729222 1_565
S1 Y1 2.741168 1_455
S1 Y7 2.764847 1_555
S2 Y6 2.733905 1_555
S2 Y7 2.745086 1_554
S2 Y0 2.757585 1_555
S3 Y7 2.733905 1_655
S3 Y6 2.745086 1_556
S3 Y1 2.757585 1_555
S4 Y2 2.735104 1_555
S4 Y3 2.744597 1_545
S4 Y4 2.759476 1_555
S5 Y3 2.735104 1_555
S5 Y2 2.744597 1_665
S5 Y5 2.759476 1_565
S6 Y0 2.739113 1_555
S6 Y5 2.746823 1_455
S6 Y2 2.762730 1_555
S7 Y1 2.739113 1_555
S7 Y4 2.746823 1_565
S7 Y3 2.762730 1_555
S8 Y3 2.733766 1_555
S8 Y2 2.740496 1_555
S8 Y0 2.765099 1_555
S9 Y2 2.733766 1_655
S9 Y3 2.740496 1_555
S9 Y1 2.765099 1_555
S10 Y1 2.729486 1_455
S10 Y4 2.739312 1_555
S10 Y2 2.762811 1_555
S11 Y0 2.729486 1_555
S11 Y5 2.739312 1_565
S11 Y3 2.762811 1_555
S12 Y6 2.734815 1_555
S12 Y7 2.740467 1_644
S12 Y5 2.767291 1_555
S13 Y7 2.734815 1_555
S13 Y6 2.740467 1_566
S13 Y4 2.767291 1_565
S14 Y5 2.738208 1_465
S14 Y0 2.747085 1_555
S14 Y7 2.762125 1_554
S15 Y4 2.738208 1_555
S15 Y1 2.747085 1_555
S15 Y6 2.762125 1_556
