# generated using pymatgen
data_Na2Hf3Mg5(SO4)12
_symmetry_space_group_name_H-M   'P 1'
_cell_length_a   17.50096641
_cell_length_b   8.74982548
_cell_length_c   22.72531967
_cell_angle_alpha   90.03537183
_cell_angle_beta   89.96518582
_cell_angle_gamma   120.01627848
_symmetry_Int_Tables_number   1
_chemical_formula_structural   Na2Hf3Mg5(SO4)12
_chemical_formula_sum   'Na6 Hf9 Mg15 S36 O144'
_cell_volume   3013.21891027
_cell_formula_units_Z   3
loop_
 _symmetry_equiv_pos_site_id
 _symmetry_equiv_pos_as_xyz
  1  'x, y, z'
loop_
 _atom_site_type_symbol
 _atom_site_label
 _atom_site_symmetry_multiplicity
 _atom_site_fract_x
 _atom_site_fract_y
 _atom_site_fract_z
 _atom_site_occupancy
  Na  Na0  1  0.00029714  0.00031288  0.50120866  1
  Na  Na1  1  0.50272669  0.00400016  0.99763079  1
  Na  Na2  1  0.33480447  0.33553558  0.83030836  1
  Na  Na3  1  0.83176017  0.33095752  0.83073265  1
  Na  Na4  1  0.33155724  0.33273067  0.33926867  1
  Na  Na5  1  0.83504455  0.33346142  0.33340237  1
  Hf  Hf0  1  0.50223320  0.00011395  0.35630730  1
  Hf  Hf1  1  0.99934766  0.99956746  0.85129344  1
  Hf  Hf2  1  0.49985223  -0.00003799  0.64829909  1
  Hf  Hf3  1  0.99528073  0.99695884  0.14751203  1
  Hf  Hf4  1  0.33427187  0.33344336  0.18724122  1
  Hf  Hf5  1  0.16604694  0.66755398  0.01947045  1
  Hf  Hf6  1  0.66701725  0.66469500  0.02011904  1
  Hf  Hf7  1  0.16412722  0.66437554  0.52340479  1
  Hf  Hf8  1  0.66939249  0.66930534  0.52390760  1
  Mg  Mg0  1  0.99856613  0.00038892  0.35323793  1
  Mg  Mg1  1  0.50064405  0.00052704  0.84970908  1
  Mg  Mg2  1  0.00027351  0.00032789  0.64895114  1
  Mg  Mg3  1  0.50455375  0.00400744  0.14859986  1
  Mg  Mg4  1  0.33224974  0.33097913  0.68596849  1
  Mg  Mg5  1  0.83434627  0.33569839  0.68582695  1
  Mg  Mg6  1  0.83221087  0.33346991  0.18583670  1
  Mg  Mg7  1  0.33511841  0.33561326  0.97870316  1
  Mg  Mg8  1  0.83124392  0.33123297  0.98164530  1
  Mg  Mg9  1  0.33113527  0.33180238  0.48383255  1
  Mg  Mg10  1  0.83564881  0.33478760  0.48312673  1
  Mg  Mg11  1  0.16308203  0.65933027  0.31356174  1
  Mg  Mg12  1  0.67034013  0.67404914  0.31182074  1
  Mg  Mg13  1  0.16806950  0.66726270  0.80858878  1
  Mg  Mg14  1  0.66521116  0.66618644  0.80929458  1
  S  S0  1  0.14362491  0.99511424  0.25160634  1
  S  S1  1  0.64635439  0.99889770  0.24895921  1
  S  S2  1  0.35383489  0.71414482  0.24917400  1
  S  S3  1  0.85316558  0.70460228  0.25256883  1
  S  S4  1  0.99942390  0.29293702  0.25195028  1
  S  S5  1  0.50323221  0.29279137  0.24960959  1
  S  S6  1  0.14699488  0.29432260  0.74873794  1
  S  S7  1  0.64743674  0.29320414  0.75197040  1
  S  S8  1  0.00044397  0.70586845  0.74865323  1
  S  S9  1  0.49892825  0.70527798  0.75196841  1
  S  S10  1  0.35364418  0.00176449  0.75211277  1
  S  S11  1  0.85248790  0.99944259  0.74849258  1
  S  S12  1  0.47534874  0.33191005  0.58313203  1
  S  S13  1  0.97497306  0.32548962  0.58369786  1
  S  S14  1  0.18788800  0.04888035  0.58341018  1
  S  S15  1  0.69057251  0.05049485  0.58343831  1
  S  S16  1  0.33403445  0.61914273  0.58345159  1
  S  S17  1  0.83720965  0.62378162  0.58340222  1
  S  S18  1  0.47728114  0.62665658  0.08175834  1
  S  S19  1  0.97578637  0.61876052  0.08335722  1
  S  S20  1  0.33610670  0.04523045  0.08171373  1
  S  S21  1  0.83269524  0.04881283  0.08316844  1
  S  S22  1  0.18881136  0.33166701  0.08190540  1
  S  S23  1  0.68798794  0.32808282  0.08330199  1
  S  S24  1  0.31304863  0.66634363  0.91520413  1
  S  S25  1  0.81092606  0.66184850  0.91491020  1
  S  S26  1  0.02012095  0.37840312  0.91500333  1
  S  S27  1  0.51991003  0.37340053  0.91507564  1
  S  S28  1  0.16887418  0.96006132  0.91492409  1
  S  S29  1  0.66693865  0.95963499  0.91532060  1
  S  S30  1  0.30969333  0.95846987  0.41511148  1
  S  S31  1  0.81255137  0.96023159  0.41544170  1
  S  S32  1  0.16740172  0.37474158  0.41537318  1
  S  S33  1  0.67021460  0.38230307  0.41538264  1
  S  S34  1  0.01986311  0.66607929  0.41519060  1
  S  S35  1  0.52078522  0.65881816  0.41559984  1
  O  O0  1  0.10653106  0.03389294  0.30270855  1
  O  O1  1  0.60152436  0.02841376  0.30282281  1
  O  O2  1  0.41112667  0.79092084  0.30266348  1
  O  O3  1  0.91111524  0.79064929  0.30285871  1
  O  O4  1  0.48366098  0.17679096  0.30279545  1
  O  O5  1  0.98484558  0.17854208  0.30268664  1
  O  O6  1  0.10313252  0.17693924  0.80323960  1
  O  O7  1  0.60553249  0.17934090  0.80313387  1
  O  O8  1  0.48396195  0.78895026  0.80322944  1
  O  O9  1  0.98551680  0.79377696  0.80321175  1
  O  O10  1  0.41041153  0.03146819  0.80333894  1
  O  O11  1  0.91136542  0.02935301  0.80311778  1
  O  O12  1  0.39734319  0.97577633  0.69770253  1
  O  O13  1  0.89560949  0.97369029  0.69745408  1
  O  O14  1  0.09126867  0.20871905  0.69751628  1
  O  O15  1  0.59056324  0.20505745  0.69759857  1
  O  O16  1  0.01319365  0.81729773  0.69746890  1
  O  O17  1  0.51193373  0.81903231  0.69763455  1
  O  O18  1  0.39581458  0.81740213  0.19684212  1
  O  O19  1  0.89720598  0.81842060  0.19765273  1
  O  O20  1  0.01248598  0.20436753  0.19727581  1
  O  O21  1  0.51206341  0.20885161  0.19697418  1
  O  O22  1  0.09165387  0.97592869  0.19686281  1
  O  O23  1  0.59079921  0.97254296  0.19760233  1
  O  O24  1  0.43879106  0.36484092  0.63578068  1
  O  O25  1  0.93855655  0.36168055  0.63604952  1
  O  O26  1  0.24227037  0.12244932  0.63568886  1
  O  O27  1  0.74359964  0.12276122  0.63608328  1
  O  O28  1  0.31783120  0.51293074  0.63598218  1
  O  O29  1  0.81874441  0.51505736  0.63576765  1
  O  O30  1  0.43636851  0.51342365  0.13589679  1
  O  O31  1  0.93908019  0.51348190  0.13615358  1
  O  O32  1  0.31994785  0.12630691  0.13584519  1
  O  O33  1  0.81802544  0.12280283  0.13632220  1
  O  O34  1  0.24425441  0.36241630  0.13590485  1
  O  O35  1  0.74162522  0.36161027  0.13602425  1
  O  O36  1  0.22919199  0.30335236  0.03054046  1
  O  O37  1  0.72775300  0.30280250  0.03013768  1
  O  O38  1  0.42254794  0.54197636  0.03068982  1
  O  O39  1  0.92383228  0.54496738  0.03023263  1
  O  O40  1  0.34795745  0.15365560  0.03047415  1
  O  O41  1  0.84918896  0.15424107  0.03034538  1
  O  O42  1  0.22767180  0.15238457  0.52983773  1
  O  O43  1  0.72764010  0.15302416  0.53003030  1
  O  O44  1  0.34950184  0.54558393  0.53021424  1
  O  O45  1  0.84802187  0.54388973  0.52962462  1
  O  O46  1  0.42362707  0.30274382  0.52980623  1
  O  O47  1  0.92364315  0.30226097  0.53012194  1
  O  O48  1  0.26880642  0.69145855  0.97035043  1
  O  O49  1  0.77086442  0.69317078  0.96944512  1
  O  O50  1  0.07623592  0.45973675  0.96977141  1
  O  O51  1  0.57606219  0.46091030  0.97000871  1
  O  O52  1  0.15368825  0.84810781  0.96958426  1
  O  O53  1  0.65431290  0.84668444  0.97023049  1
  O  O54  1  0.27134963  0.84835089  0.46873053  1
  O  O55  1  0.76879791  0.84624653  0.46947157  1
  O  O56  1  0.15474697  0.46158878  0.46933102  1
  O  O57  1  0.65277238  0.45910726  0.46900897  1
  O  O58  1  0.07651777  0.69222678  0.46918028  1
  O  O59  1  0.57603898  0.69298796  0.46916775  1
  O  O60  1  0.06167261  0.63981015  0.36336985  1
  O  O61  1  0.56187709  0.63622090  0.36320342  1
  O  O62  1  0.25677486  0.87634591  0.36272525  1
  O  O63  1  0.75761890  0.87635421  0.36388459  1
  O  O64  1  0.18123277  0.48464233  0.36343135  1
  O  O65  1  0.68085551  0.48646981  0.36311622  1
  O  O66  1  0.06272046  0.48837290  0.86420043  1
  O  O67  1  0.56204373  0.48486732  0.86405410  1
  O  O68  1  0.18157869  0.87520296  0.86389987  1
  O  O69  1  0.68026963  0.87511528  0.86422904  1
  O  O70  1  0.25710979  0.63923947  0.86446774  1
  O  O71  1  0.75627769  0.63691942  0.86377512  1
  O  O72  1  0.01288991  0.82691015  0.41064652  1
  O  O73  1  0.51236982  0.82189676  0.40832258  1
  O  O74  1  0.39931527  0.97486610  0.40706981  1
  O  O75  1  0.89998639  0.97431854  0.41123820  1
  O  O76  1  0.08730436  0.19944318  0.41067603  1
  O  O77  1  0.58817392  0.20287452  0.40834838  1
  O  O78  1  0.01306820  0.20177294  0.90929037  1
  O  O79  1  0.51250516  0.19841807  0.91163894  1
  O  O80  1  0.08790613  0.97443160  0.90927931  1
  O  O81  1  0.58663098  0.97421130  0.91178901  1
  O  O82  1  0.40041868  0.82666481  0.91193291  1
  O  O83  1  0.89950887  0.82427129  0.90888662  1
  O  O84  1  0.48887292  0.17741086  0.59195224  1
  O  O85  1  0.98905301  0.17379661  0.58992011  1
  O  O86  1  0.09801464  0.02133493  0.58977814  1
  O  O87  1  0.59968857  0.02279618  0.59208002  1
  O  O88  1  0.41168135  0.80062303  0.59223165  1
  O  O89  1  0.91278018  0.80382557  0.58974088  1
  O  O90  1  0.48761856  0.80165803  0.09081534  1
  O  O91  1  0.98971026  0.80123963  0.09268548  1
  O  O92  1  0.41250732  0.02248507  0.09104983  1
  O  O93  1  0.91115072  0.02292995  0.09180722  1
  O  O94  1  0.10080726  0.17685473  0.09261499  1
  O  O95  1  0.59776755  0.17477777  0.08980008  1
  O  O96  1  0.34582623  0.16018073  0.74284426  1
  O  O97  1  0.84637418  0.16118817  0.74433193  1
  O  O98  1  0.23416198  0.30737201  0.74453343  1
  O  O99  1  0.73443144  0.30858088  0.74261173  1
  O  O100  1  0.41978130  0.53115140  0.74261260  1
  O  O101  1  0.91953528  0.53175165  0.74453989  1
  O  O102  1  0.34608423  0.53220472  0.24275098  1
  O  O103  1  0.84575325  0.53137247  0.24266582  1
  O  O104  1  0.41988018  0.30809599  0.24318484  1
  O  O105  1  0.92029514  0.30831283  0.24222901  1
  O  O106  1  0.23455213  0.15987963  0.24145042  1
  O  O107  1  0.73336612  0.16023451  0.24446680  1
  O  O108  1  0.32072376  0.50790966  0.92474680  1
  O  O109  1  0.82222228  0.50855785  0.92418017  1
  O  O110  1  0.43267573  0.35706559  0.92431024  1
  O  O111  1  0.93247129  0.35693380  0.92462267  1
  O  O112  1  0.24580840  0.13486184  0.92457232  1
  O  O113  1  0.74606620  0.13440708  0.92436627  1
  O  O114  1  0.32285082  0.13658676  0.42317283  1
  O  O115  1  0.82078362  0.13487364  0.42400075  1
  O  O116  1  0.24668231  0.35730256  0.42338374  1
  O  O117  1  0.74574342  0.35594039  0.42370987  1
  O  O118  1  0.43170738  0.50722790  0.42354991  1
  O  O119  1  0.93235508  0.50798485  0.42353168  1
  O  O120  1  0.17914011  0.48988552  0.07548195  1
  O  O121  1  0.67824408  0.48963457  0.07380366  1
  O  O122  1  0.06690116  0.64425148  0.07387088  1
  O  O123  1  0.56542356  0.64118632  0.07575249  1
  O  O124  1  0.25466319  0.86835113  0.07536512  1
  O  O125  1  0.75544273  0.86694778  0.07430728  1
  O  O126  1  0.17892079  0.86801794  0.57349725  1
  O  O127  1  0.67767825  0.86778100  0.57415644  1
  O  O128  1  0.25587307  0.64429191  0.57381998  1
  O  O129  1  0.75547573  0.64266189  0.57392791  1
  O  O130  1  0.06582965  0.48849114  0.57420452  1
  O  O131  1  0.56627778  0.48902458  0.57338123  1
  O  O132  1  0.15612453  0.84440606  0.25752575  1
  O  O133  1  0.65323692  0.84273996  0.25956447  1
  O  O134  1  0.26665272  0.68925358  0.25889420  1
  O  O135  1  0.76740759  0.69198624  0.25762142  1
  O  O136  1  0.07910979  0.46489303  0.25712930  1
  O  O137  1  0.57762232  0.46658048  0.25929257  1
  O  O138  1  0.15402321  0.46387543  0.75971307  1
  O  O139  1  0.65374575  0.46470055  0.75777920  1
  O  O140  1  0.07802915  0.69160451  0.75982997  1
  O  O141  1  0.57848092  0.69283604  0.75754517  1
  O  O142  1  0.26784821  0.84312447  0.75774668  1
  O  O143  1  0.76771344  0.84386094  0.75968568  1
loop_
_geom_bond_atom_site_label_1
_geom_bond_atom_site_label_2
_geom_bond_distance
_geom_bond_site_symmetry_2
Na0 O86 2.588184 1_555
Na0 O85 2.588771 1_455
Na0 O89 2.591425 1_445
Na0 O72 2.629890 1_545
Na0 O75 2.630277 1_445
Na0 O76 2.633151 1_555
Na1 O81 2.531505 1_545
Na1 O79 2.540553 1_555
Na1 O82 2.574335 1_545
Na1 O95 2.626862 1_556
Na1 O90 2.687837 1_546
Na1 O92 2.697629 1_556
Na2 O98 2.555777 1_555
Na2 O100 2.562594 1_555
Na2 O96 2.575652 1_555
Na2 O110 2.685867 1_555
Na2 O108 2.703455 1_555
Na2 O112 2.713355 1_555
Na3 O97 2.550126 1_555
Na3 O101 2.565856 1_555
Na3 O99 2.572942 1_555
Na3 O113 2.674839 1_555
Na3 O109 2.684677 1_555
Na3 O111 2.704437 1_555
Na4 O116 2.494428 1_555
Na4 O114 2.519205 1_555
Na4 O118 2.528779 1_555
Na4 O102 2.735326 1_555
Na4 O104 2.744495 1_555
Na4 O106 2.746381 1_555
Na5 O119 2.612636 1_555
Na5 O107 2.617401 1_555
Na5 O115 2.624968 1_555
Na5 O105 2.625163 1_555
Na5 O103 2.639132 1_555
Na5 O117 2.645024 1_555
Hf0 O1 2.031137 1_555
Hf0 O77 2.034261 1_555
Hf0 O73 2.034620 1_545
Hf0 O74 2.055107 1_545
Hf0 O2 2.111510 1_545
Hf0 O4 2.116549 1_555
Hf1 O11 2.010304 1_565
Hf1 O9 2.014106 1_555
Hf1 O6 2.019810 1_665
Hf1 O83 2.106408 1_555
Hf1 O78 2.120737 1_665
Hf1 O80 2.128560 1_655
Hf2 O12 2.035124 1_545
Hf2 O15 2.035979 1_555
Hf2 O17 2.036002 1_545
Hf2 O88 2.086535 1_545
Hf2 O87 2.091252 1_555
Hf2 O84 2.094887 1_555
Hf3 O19 2.000498 1_555
Hf3 O20 2.028354 1_665
Hf3 O93 2.039453 1_565
Hf3 O91 2.079679 1_555
Hf3 O22 2.109362 1_655
Hf3 O94 2.129783 1_665
Hf4 O106 2.053700 1_555
Hf4 O30 2.053920 1_555
Hf4 O104 2.060409 1_555
Hf4 O32 2.062776 1_555
Hf4 O102 2.072807 1_555
Hf4 O34 2.075894 1_555
Hf5 O48 2.036055 1_554
Hf5 O52 2.042596 1_554
Hf5 O50 2.047606 1_554
Hf5 O122 2.055337 1_555
Hf5 O124 2.092610 1_555
Hf5 O120 2.109171 1_555
Hf6 O51 2.042058 1_554
Hf6 O121 2.043762 1_555
Hf6 O53 2.056016 1_554
Hf6 O49 2.058159 1_554
Hf6 O125 2.074298 1_555
Hf6 O123 2.105625 1_555
Hf7 O130 2.002890 1_555
Hf7 O126 2.018453 1_555
Hf7 O128 2.050945 1_555
Hf7 O58 2.074903 1_555
Hf7 O56 2.095578 1_555
Hf7 O54 2.152621 1_555
Hf8 O129 1.992474 1_555
Hf8 O127 2.021556 1_555
Hf8 O131 2.039762 1_555
Hf8 O55 2.063697 1_555
Hf8 O57 2.118043 1_555
Hf8 O59 2.145031 1_555
Mg0 O5 2.045558 1_555
Mg0 O3 2.051942 1_545
Mg0 O75 2.090378 1_545
Mg0 O0 2.101974 1_655
Mg0 O76 2.107744 1_655
Mg0 O72 2.110091 1_645
Mg1 O7 2.015954 1_555
Mg1 O8 2.021215 1_545
Mg1 O10 2.026717 1_555
Mg1 O81 2.158143 1_545
Mg1 O79 2.158627 1_555
Mg1 O82 2.172655 1_545
Mg2 O14 2.042875 1_555
Mg2 O13 2.048218 1_445
Mg2 O16 2.048497 1_545
Mg2 O85 2.107842 1_455
Mg2 O86 2.109749 1_555
Mg2 O89 2.115899 1_445
Mg3 O23 2.003070 1_545
Mg3 O21 2.049480 1_555
Mg3 O95 2.059252 1_555
Mg3 O18 2.092924 1_545
Mg3 O90 2.102285 1_545
Mg3 O92 2.143593 1_555
Mg4 O26 2.058995 1_555
Mg4 O28 2.072001 1_555
Mg4 O24 2.076141 1_555
Mg4 O96 2.078095 1_555
Mg4 O100 2.094420 1_555
Mg4 O98 2.098477 1_555
Mg5 O25 2.059243 1_555
Mg5 O29 2.064682 1_555
Mg5 O27 2.076208 1_555
Mg5 O99 2.088474 1_555
Mg5 O101 2.094409 1_555
Mg5 O97 2.113753 1_555
Mg6 O35 2.061168 1_555
Mg6 O33 2.065303 1_555
Mg6 O31 2.075096 1_555
Mg6 O103 2.075941 1_555
Mg6 O105 2.099865 1_555
Mg6 O107 2.107513 1_555
Mg7 O110 2.038453 1_555
Mg7 O108 2.054835 1_555
Mg7 O38 2.057347 1_556
Mg7 O112 2.072320 1_555
Mg7 O40 2.080863 1_556
Mg7 O36 2.092426 1_556
Mg8 O37 2.025795 1_556
Mg8 O41 2.052053 1_556
Mg8 O39 2.076062 1_556
Mg8 O113 2.076911 1_555
Mg8 O109 2.094165 1_555
Mg8 O111 2.113596 1_555
Mg9 O42 1.997987 1_555
Mg9 O44 2.027240 1_555
Mg9 O46 2.047074 1_555
Mg9 O116 2.110493 1_555
Mg9 O114 2.142077 1_555
Mg9 O118 2.151150 1_555
Mg10 O47 2.008485 1_555
Mg10 O45 2.027914 1_555
Mg10 O43 2.056813 1_555
Mg10 O119 2.104474 1_555
Mg10 O115 2.115436 1_555
Mg10 O117 2.151142 1_555
Mg11 O60 2.038305 1_555
Mg11 O136 2.048640 1_555
Mg11 O64 2.051806 1_555
Mg11 O134 2.102446 1_555
Mg11 O62 2.104058 1_555
Mg11 O132 2.111604 1_555
Mg12 O133 2.030538 1_555
Mg12 O135 2.039238 1_555
Mg12 O63 2.039821 1_555
Mg12 O65 2.095561 1_555
Mg12 O137 2.099032 1_555
Mg12 O61 2.108419 1_555
Mg13 O138 2.005321 1_555
Mg13 O142 2.015797 1_555
Mg13 O140 2.023483 1_555
Mg13 O70 2.118024 1_555
Mg13 O68 2.124472 1_555
Mg13 O66 2.135129 1_555
Mg14 O141 2.024333 1_555
Mg14 O143 2.028640 1_555
Mg14 O139 2.040263 1_555
Mg14 O67 2.111720 1_555
Mg14 O69 2.117889 1_555
Mg14 O71 2.132980 1_555
O0 S0 1.450582 1_545
O1 S1 1.543293 1_545
O2 S2 1.503593 1_555
O3 S3 1.462163 1_555
O4 S5 1.503853 1_555
O5 S4 1.463538 1_555
O6 S6 1.545903 1_555
O7 S7 1.466863 1_555
O8 S9 1.466996 1_555
O9 S8 1.548100 1_655
O10 S10 1.467125 1_555
O11 S11 1.550034 1_545
O12 S10 1.529048 1_565
O13 S11 1.460936 1_555
O14 S6 1.461705 1_555
O15 S7 1.531200 1_555
O16 S8 1.461781 1_555
O17 S9 1.530237 1_555
O18 S2 1.451394 1_555
O19 S3 1.541339 1_555
O20 S4 1.540239 1_455
O21 S5 1.451333 1_555
O22 S0 1.500501 1_555
O23 S1 1.461965 1_555
O24 S12 1.451536 1_555
O25 S13 1.456844 1_555
O26 S14 1.455721 1_555
O27 S15 1.451099 1_555
O28 S16 1.451369 1_555
O29 S17 1.455658 1_555
O30 S18 1.516130 1_555
O31 S19 1.452295 1_555
O32 S20 1.515165 1_555
O33 S21 1.452274 1_555
O34 S22 1.503210 1_555
O35 S23 1.458822 1_555
O36 S22 1.448160 1_555
O37 S23 1.464785 1_555
O38 S18 1.450383 1_555
O39 S19 1.454008 1_555
O40 S20 1.450232 1_555
O41 S21 1.452527 1_555
O42 S14 1.468540 1_555
O43 S15 1.454949 1_555
O44 S16 1.457459 1_555
O45 S17 1.465956 1_555
O46 S12 1.457012 1_555
O47 S13 1.465955 1_555
O48 S24 1.545014 1_555
O49 S25 1.514388 1_555
O50 S26 1.523531 1_555
O51 S27 1.535556 1_555
O52 S28 1.521123 1_555
O53 S29 1.537978 1_555
O54 S30 1.488965 1_555
O55 S31 1.524777 1_555
O56 S32 1.515579 1_555
O57 S33 1.494571 1_555
O58 S34 1.521505 1_555
O59 S35 1.489339 1_555
O60 S34 1.463541 1_555
O61 S35 1.454312 1_555
O62 S30 1.458011 1_555
O63 S31 1.459461 1_555
O64 S32 1.464512 1_555
O65 S33 1.451708 1_555
O66 S26 1.448167 1_555
O67 S27 1.456087 1_555
O68 S28 1.452262 1_555
O69 S29 1.456249 1_555
O70 S24 1.453551 1_555
O71 S25 1.450856 1_555
O72 S34 1.475772 1_555
O73 S35 1.515152 1_555
O74 S30 1.512823 1_555
O75 S31 1.475451 1_555
O76 S32 1.475753 1_555
O77 S33 1.515442 1_555
O78 S26 1.493160 1_555
O79 S27 1.472552 1_555
O80 S28 1.489533 1_555
O81 S29 1.475643 1_555
O82 S24 1.471512 1_555
O83 S25 1.495836 1_555
O84 S12 1.498060 1_555
O85 S13 1.473058 1_555
O86 S14 1.474261 1_555
O87 S15 1.497057 1_555
O88 S16 1.499653 1_555
O89 S17 1.472099 1_555
O90 S18 1.463647 1_555
O91 S19 1.504666 1_555
O92 S20 1.462549 1_555
O93 S21 1.512143 1_555
O94 S22 1.476097 1_555
O95 S23 1.481601 1_555
O96 S10 1.474631 1_555
O97 S11 1.474783 1_545
O98 S6 1.474758 1_555
O99 S7 1.475132 1_555
O100 S9 1.474336 1_555
O101 S8 1.475281 1_655
O102 S2 1.535475 1_555
O103 S3 1.472347 1_555
O104 S5 1.537172 1_555
O105 S4 1.473590 1_555
O106 S0 1.539040 1_545
O107 S1 1.473559 1_545
O108 S24 1.474286 1_555
O109 S25 1.465657 1_555
O110 S27 1.475320 1_555
O111 S26 1.465412 1_655
O112 S28 1.462817 1_545
O113 S29 1.476385 1_545
O114 S30 1.468377 1_545
O115 S31 1.474125 1_545
O116 S32 1.481115 1_555
O117 S33 1.463441 1_555
O118 S35 1.467458 1_555
O119 S34 1.474891 1_655
O120 S22 1.483640 1_555
O121 S23 1.521638 1_555
O122 S19 1.510883 1_455
O123 S18 1.489259 1_555
O124 S20 1.496868 1_565
O125 S21 1.499366 1_565
O126 S14 1.526715 1_565
O127 S15 1.513274 1_565
O128 S16 1.506340 1_555
O129 S17 1.535121 1_555
O130 S13 1.529725 1_455
O131 S12 1.510815 1_555
O132 S0 1.446964 1_555
O133 S1 1.450729 1_555
O134 S2 1.446165 1_555
O135 S3 1.453259 1_555
O136 S4 1.457109 1_455
O137 S5 1.440459 1_555
O138 S6 1.447511 1_555
O139 S7 1.454413 1_555
O140 S8 1.446983 1_555
O141 S9 1.455384 1_555
O142 S10 1.453420 1_565
O143 S11 1.448562 1_555
