# generated using pymatgen
data_Na42Ca16Nb8Si21(S5O48)3
_symmetry_space_group_name_H-M   'P 1'
_cell_length_a   18.84332704
_cell_length_b   9.44712989
_cell_length_c   22.86032038
_cell_angle_alpha   89.89659198
_cell_angle_beta   90.50819966
_cell_angle_gamma   120.06443870
_symmetry_Int_Tables_number   1
_chemical_formula_structural   Na42Ca16Nb8Si21(S5O48)3
_chemical_formula_sum   'Na42 Ca16 Nb8 Si21 S15 O144'
_cell_volume   3521.83454000
_cell_formula_units_Z   1
loop_
 _symmetry_equiv_pos_site_id
 _symmetry_equiv_pos_as_xyz
  1  'x, y, z'
loop_
 _atom_site_type_symbol
 _atom_site_label
 _atom_site_symmetry_multiplicity
 _atom_site_fract_x
 _atom_site_fract_y
 _atom_site_fract_z
 _atom_site_occupancy
  Na  Na0  1  0.32804661  0.04065397  0.24227834  1
  Na  Na1  1  0.82801143  0.01534901  0.24587459  1
  Na  Na2  1  0.98317931  0.63473959  0.25247768  1
  Na  Na3  1  0.32733115  0.63778551  0.74152819  1
  Na  Na4  1  0.82970004  0.61901901  0.73780613  1
  Na  Na5  1  0.48326178  0.33526135  0.74994173  1
  Na  Na6  1  0.16559454  0.35574253  0.58531887  1
  Na  Na7  1  0.66485456  0.35056828  0.59550879  1
  Na  Na8  1  0.00919654  0.65002475  0.58910683  1
  Na  Na9  1  0.50423256  0.68046918  0.56509727  1
  Na  Na10  1  0.31734006  0.96325256  0.57879972  1
  Na  Na11  1  0.83431435  0.97547281  0.56808265  1
  Na  Na12  1  0.16352105  0.97776935  0.09340037  1
  Na  Na13  1  0.66316618  0.95731323  0.09035638  1
  Na  Na14  1  0.33054080  0.68250658  0.06624766  1
  Na  Na15  1  0.83255560  0.70271813  0.07126653  1
  Na  Na16  1  0.00496941  0.32338268  0.06470552  1
  Na  Na17  1  0.49561935  0.35709592  0.08829474  1
  Na  Na18  1  0.47045320  0.66841840  0.91227303  1
  Na  Na19  1  0.97051951  0.65521364  0.90054583  1
  Na  Na20  1  0.35123815  0.01577924  0.91588771  1
  Na  Na21  1  0.86112744  0.04040835  0.92280497  1
  Na  Na22  1  0.16567455  0.31964294  0.91544361  1
  Na  Na23  1  0.67270779  0.29979380  0.90157717  1
  Na  Na24  1  0.46792596  0.28446323  0.40302850  1
  Na  Na25  1  0.97152007  0.27246265  0.41555151  1
  Na  Na26  1  0.17269206  0.04919619  0.41618337  1
  Na  Na27  1  0.66533941  0.00724990  0.42068610  1
  Na  Na28  1  0.35938130  0.67890487  0.42848883  1
  Na  Na29  1  0.85221296  0.68858327  0.42063634  1
  Na  Na30  1  0.98887979  0.01051986  0.49799880  1
  Na  Na31  1  0.48540459  0.96799634  0.49376972  1
  Na  Na32  1  0.98979407  0.00699404  0.99039973  1
  Na  Na33  1  0.48157806  0.95744800  0.99561995  1
  Na  Na34  1  0.33223675  0.33145862  0.82481721  1
  Na  Na35  1  0.84318727  0.35604453  0.82585797  1
  Na  Na36  1  0.34081729  0.32754721  0.33005538  1
  Na  Na37  1  0.83224513  0.33133506  0.32939724  1
  Na  Na38  1  0.17560467  0.67063017  0.16264817  1
  Na  Na39  1  0.66244224  0.66740938  0.16650817  1
  Na  Na40  1  0.16382811  0.67728627  0.65799313  1
  Na  Na41  1  0.67635763  0.68032685  0.66025348  1
  Ca  Ca0  1  0.99618569  0.99824538  0.34543286  1
  Ca  Ca1  1  0.49922067  0.99801322  0.34911804  1
  Ca  Ca2  1  0.99831085  0.99996912  0.84744415  1
  Ca  Ca3  1  0.49606218  0.99259375  0.84523552  1
  Ca  Ca4  1  0.32936509  0.32401981  0.68054683  1
  Ca  Ca5  1  0.83734910  0.33555427  0.68406075  1
  Ca  Ca6  1  0.33642907  0.33808233  0.18485472  1
  Ca  Ca7  1  0.83225148  0.33252254  0.18270718  1
  Ca  Ca8  1  0.34075328  0.35175035  0.98642363  1
  Ca  Ca9  1  0.84053141  0.33257517  0.97811631  1
  Ca  Ca10  1  0.33202260  0.33614681  0.48352295  1
  Ca  Ca11  1  0.84099216  0.33156219  0.48952107  1
  Ca  Ca12  1  0.16805089  0.66559071  0.01242684  1
  Ca  Ca13  1  0.67028359  0.67437848  0.01847423  1
  Ca  Ca14  1  0.16955018  0.66642693  0.52005766  1
  Ca  Ca15  1  0.66850508  0.67066115  0.51331384  1
  Nb  Nb0  1  0.00251818  0.98534506  0.64606189  1
  Nb  Nb1  1  0.49498706  0.98562890  0.66266423  1
  Nb  Nb2  1  0.99588638  0.00710451  0.16247733  1
  Nb  Nb3  1  0.49726535  0.00776189  0.15004960  1
  Nb  Nb4  1  0.16673338  0.67891898  0.31032588  1
  Nb  Nb5  1  0.66550389  0.66761007  0.31475428  1
  Nb  Nb6  1  0.16518800  0.66060393  0.81269858  1
  Nb  Nb7  1  0.66860799  0.65734717  0.80931002  1
  Si  Si0  1  0.14926182  0.00220617  0.25508972  1
  Si  Si1  1  0.84249405  0.69505072  0.25724322  1
  Si  Si2  1  0.00376991  0.31317069  0.25690163  1
  Si  Si3  1  0.50677893  0.30986268  0.25571125  1
  Si  Si4  1  0.64970672  0.29583211  0.75502062  1
  Si  Si5  1  0.00490433  0.70432867  0.75616720  1
  Si  Si6  1  0.50264268  0.69450768  0.75772320  1
  Si  Si7  1  0.34322563  0.99225856  0.75899950  1
  Si  Si8  1  0.98504960  0.32110586  0.58356815  1
  Si  Si9  1  0.17918410  0.02870303  0.57654552  1
  Si  Si10  1  0.34246577  0.65437848  0.58842158  1
  Si  Si11  1  0.83044559  0.63621551  0.58424632  1
  Si  Si12  1  0.48675845  0.64954353  0.08316858  1
  Si  Si13  1  0.33090690  0.02475039  0.08409434  1
  Si  Si14  1  0.83975979  0.02775233  0.08780525  1
  Si  Si15  1  0.31557708  0.66218565  0.91585176  1
  Si  Si16  1  0.81451325  0.66394231  0.91855083  1
  Si  Si17  1  0.01820135  0.37176490  0.91669977  1
  Si  Si18  1  0.31594080  0.96504921  0.41719139  1
  Si  Si19  1  0.81659458  0.96995982  0.41579199  1
  Si  Si20  1  0.51622561  0.66180127  0.41729758  1
  S  S0  1  0.64845429  0.98921014  0.25200363  1
  S  S1  1  0.34712057  0.71177490  0.24918214  1
  S  S2  1  0.14835119  0.30801095  0.75255393  1
  S  S3  1  0.84438390  0.98388458  0.75143616  1
  S  S4  1  0.48758706  0.32135172  0.58662667  1
  S  S5  1  0.67423853  0.02921626  0.58507858  1
  S  S6  1  0.98592625  0.65250887  0.08606230  1
  S  S7  1  0.17447150  0.31917624  0.08518389  1
  S  S8  1  0.67383383  0.31714543  0.08262575  1
  S  S9  1  0.52164922  0.37915842  0.91411553  1
  S  S10  1  0.17056418  0.96406556  0.91494524  1
  S  S11  1  0.66728472  0.95720309  0.91491962  1
  S  S12  1  0.16755165  0.38165020  0.41273460  1
  S  S13  1  0.67102800  0.37786557  0.41420791  1
  S  S14  1  0.02069332  0.66127454  0.41226370  1
  O  O0  1  0.10680298  0.99705252  0.31533383  1
  O  O1  1  0.61129564  0.00130115  0.30630126  1
  O  O2  1  0.38941827  0.77666884  0.30482638  1
  O  O3  1  0.89369075  0.75878392  0.31698625  1
  O  O4  1  0.49753866  0.20811304  0.31329791  1
  O  O5  1  0.98344940  0.20422055  0.31400530  1
  O  O6  1  0.11203232  0.22232457  0.80732634  1
  O  O7  1  0.60618657  0.21609403  0.81461110  1
  O  O8  1  0.48515315  0.76337045  0.81585051  1
  O  O9  1  0.99574504  0.78458214  0.81472092  1
  O  O10  1  0.39244258  0.02019314  0.81911022  1
  O  O11  1  0.88627555  0.00177237  0.80759197  1
  O  O12  1  0.40631393  0.96982533  0.70558788  1
  O  O13  1  0.88884344  0.96103497  0.70205464  1
  O  O14  1  0.09843827  0.21681563  0.70056143  1
  O  O15  1  0.58546222  0.19790104  0.69738020  1
  O  O16  1  0.01163132  0.83313600  0.70003908  1
  O  O17  1  0.51258061  0.83016363  0.70244118  1
  O  O18  1  0.39713516  0.82694468  0.19989707  1
  O  O19  1  0.90697144  0.84601908  0.20459360  1
  O  O20  1  0.01282482  0.19688382  0.20088723  1
  O  O21  1  0.51387753  0.18986141  0.19817072  1
  O  O22  1  0.08460876  0.97350764  0.19716511  1
  O  O23  1  0.59803817  0.98231054  0.19933388  1
  O  O24  1  0.44925381  0.34474684  0.63879997  1
  O  O25  1  0.93663743  0.37079662  0.62705810  1
  O  O26  1  0.24877861  0.12075672  0.62558588  1
  O  O27  1  0.72996007  0.11536100  0.63402766  1
  O  O28  1  0.33509346  0.55025046  0.64617032  1
  O  O29  1  0.81105912  0.51459148  0.63882838  1
  O  O30  1  0.43435257  0.51117812  0.12932047  1
  O  O31  1  0.94541053  0.55232883  0.13792219  1
  O  O32  1  0.31605028  0.11040768  0.13961078  1
  O  O33  1  0.82709230  0.11433990  0.14455873  1
  O  O34  1  0.22883099  0.34210396  0.13462883  1
  O  O35  1  0.72857391  0.34587121  0.13245598  1
  O  O36  1  0.21003476  0.30154113  0.02922793  1
  O  O37  1  0.70736353  0.29078342  0.02799667  1
  O  O38  1  0.43706102  0.61246558  0.02028742  1
  O  O39  1  0.93633226  0.57482622  0.03235982  1
  O  O40  1  0.35879393  0.13521082  0.02521766  1
  O  O41  1  0.86049680  0.13801452  0.02790297  1
  O  O42  1  0.20260587  0.13375876  0.51602557  1
  O  O43  1  0.70921702  0.11672007  0.52859848  1
  O  O44  1  0.36528317  0.58847100  0.52866318  1
  O  O45  1  0.85367438  0.57685532  0.52346691  1
  O  O46  1  0.43850965  0.30060225  0.53283267  1
  O  O47  1  0.93503111  0.25984722  0.52036288  1
  O  O48  1  0.27333832  0.66895135  0.97626100  1
  O  O49  1  0.77426415  0.67414476  0.97879695  1
  O  O50  1  0.05972622  0.44972031  0.97911086  1
  O  O51  1  0.56469273  0.46495784  0.96790297  1
  O  O52  1  0.15987926  0.87764262  0.97124134  1
  O  O53  1  0.66010939  0.87433540  0.97127674  1
  O  O54  1  0.27339380  0.86435026  0.47502326  1
  O  O55  1  0.77263648  0.87636934  0.47511632  1
  O  O56  1  0.16017778  0.45001837  0.46831787  1
  O  O57  1  0.66035790  0.44521615  0.46933141  1
  O  O58  1  0.06421489  0.65732178  0.46477967  1
  O  O59  1  0.56140553  0.67131044  0.47828191  1
  O  O60  1  0.06841960  0.65825226  0.35774218  1
  O  O61  1  0.58232250  0.66077724  0.36241893  1
  O  O62  1  0.25095847  0.83591145  0.35842814  1
  O  O63  1  0.75413524  0.84272174  0.35910022  1
  O  O64  1  0.16551829  0.48678077  0.36245873  1
  O  O65  1  0.67310032  0.48617417  0.36345229  1
  O  O66  1  0.08290470  0.50225205  0.86337039  1
  O  O67  1  0.56966511  0.48030020  0.86092239  1
  O  O68  1  0.17355273  0.86120815  0.86547361  1
  O  O69  1  0.66777238  0.85267298  0.86525821  1
  O  O70  1  0.25338785  0.66307050  0.86028312  1
  O  O71  1  0.74922660  0.66342462  0.86179593  1
  O  O72  1  0.01392523  0.81024303  0.41217337  1
  O  O73  1  0.51253448  0.83057390  0.41212633  1
  O  O74  1  0.40700652  0.98542564  0.41324677  1
  O  O75  1  0.90716027  0.98519763  0.41592052  1
  O  O76  1  0.09770662  0.21255757  0.40776223  1
  O  O77  1  0.60189065  0.20941720  0.40748500  1
  O  O78  1  0.01242716  0.19346498  0.91242153  1
  O  O79  1  0.51473819  0.21635285  0.91338125  1
  O  O80  1  0.10121627  0.99487439  0.90835066  1
  O  O81  1  0.59681796  0.98601389  0.91057163  1
  O  O82  1  0.40629738  0.82712637  0.91572747  1
  O  O83  1  0.90543651  0.82721738  0.91422560  1
  O  O84  1  0.49424432  0.16831058  0.59275895  1
  O  O85  1  0.98757397  0.15126786  0.60694415  1
  O  O86  1  0.08977582  0.02646889  0.59716268  1
  O  O87  1  0.59320527  0.02543834  0.59216089  1
  O  O88  1  0.42991453  0.84862760  0.59733378  1
  O  O89  1  0.91831283  0.82153810  0.59850590  1
  O  O90  1  0.49785421  0.83516294  0.10480765  1
  O  O91  1  0.99268100  0.81899766  0.09144572  1
  O  O92  1  0.41968466  0.00995688  0.09884853  1
  O  O93  1  0.92775580  0.01276972  0.09689561  1
  O  O94  1  0.09255993  0.16129262  0.09159555  1
  O  O95  1  0.59224129  0.15582883  0.09227242  1
  O  O96  1  0.33838463  0.15192631  0.74407294  1
  O  O97  1  0.82541622  0.11382794  0.74250411  1
  O  O98  1  0.23420385  0.34343173  0.74828028  1
  O  O99  1  0.74240555  0.34117564  0.74892529  1
  O  O100  1  0.43095700  0.51099244  0.74483237  1
  O  O101  1  0.92474946  0.52745429  0.74680667  1
  O  O102  1  0.32889665  0.54593710  0.23837067  1
  O  O103  1  0.83476983  0.52551959  0.23821086  1
  O  O104  1  0.42595941  0.32147513  0.24485254  1
  O  O105  1  0.93133068  0.35188522  0.24352817  1
  O  O106  1  0.24182824  0.14442932  0.24728895  1
  O  O107  1  0.73361006  0.12790382  0.24720039  1
  O  O108  1  0.31639067  0.48962207  0.90832060  1
  O  O109  1  0.81412458  0.49154155  0.90960183  1
  O  O110  1  0.43953549  0.36629822  0.90997891  1
  O  O111  1  0.92963700  0.36265950  0.90696318  1
  O  O112  1  0.24993043  0.12252503  0.91438460  1
  O  O113  1  0.74591312  0.11701723  0.91274608  1
  O  O114  1  0.31545164  0.13556685  0.40762741  1
  O  O115  1  0.81620184  0.14248032  0.40693144  1
  O  O116  1  0.24731995  0.38538933  0.40884113  1
  O  O117  1  0.75025552  0.37987323  0.41274261  1
  O  O118  1  0.42858764  0.49466368  0.40805828  1
  O  O119  1  0.93842877  0.51027817  0.40718851  1
  O  O120  1  0.15835760  0.45880346  0.08337259  1
  O  O121  1  0.65329593  0.44913862  0.07879346  1
  O  O122  1  0.07061588  0.67706932  0.08261882  1
  O  O123  1  0.57977532  0.67752154  0.08229354  1
  O  O124  1  0.25772949  0.83446552  0.08343979  1
  O  O125  1  0.76222674  0.84055936  0.08590491  1
  O  O126  1  0.14931023  0.83478576  0.57703521  1
  O  O127  1  0.65749665  0.85689979  0.58344669  1
  O  O128  1  0.26429521  0.68234715  0.58531661  1
  O  O129  1  0.75688081  0.68077917  0.58325440  1
  O  O130  1  0.08076793  0.46611964  0.58074986  1
  O  O131  1  0.57295729  0.46525178  0.58233355  1
  O  O132  1  0.15166210  0.81759163  0.25590927  1
  O  O133  1  0.65263856  0.83233004  0.25129820  1
  O  O134  1  0.26674528  0.71760310  0.24795578  1
  O  O135  1  0.75785771  0.70822691  0.25413546  1
  O  O136  1  0.09347375  0.49043047  0.25772847  1
  O  O137  1  0.59325966  0.49184384  0.25693815  1
  O  O138  1  0.15222750  0.47487911  0.75280556  1
  O  O139  1  0.65202436  0.48699136  0.75713693  1
  O  O140  1  0.09136709  0.69376642  0.75993541  1
  O  O141  1  0.59283408  0.69620148  0.76064212  1
  O  O142  1  0.25720396  0.81124604  0.75558831  1
  O  O143  1  0.76103241  0.81743952  0.75271165  1
loop_
_geom_bond_atom_site_label_1
_geom_bond_atom_site_label_2
_geom_bond_distance
_geom_bond_site_symmetry_2
Na0 O106 2.283264 1_555
Na0 O104 2.353734 1_555
Na0 O32 2.475494 1_555
Na0 O134 2.671013 1_545
Na1 O107 2.488384 1_555
Na1 O33 2.499388 1_555
Na1 O135 2.522086 1_545
Na1 O105 2.775003 1_555
Na1 O19 2.842254 1_545
Na1 O133 2.864778 1_545
Na1 O5 2.980122 1_555
Na1 O63 3.011841 1_545
Na2 O105 2.349357 1_555
Na2 O103 2.466880 1_555
Na2 O31 2.718410 1_555
Na2 O132 2.751465 1_655
Na2 O60 2.827685 1_655
Na2 O3 2.902018 1_555
Na3 O28 2.364449 1_555
Na3 O98 2.439266 1_555
Na3 O142 2.591124 1_555
Na3 O100 2.755709 1_555
Na3 O12 2.839806 1_555
Na3 O138 2.871881 1_555
Na4 O99 2.310637 1_555
Na4 O101 2.354482 1_555
Na4 O29 2.421372 1_555
Na4 O143 2.782884 1_555
Na5 O100 2.319017 1_555
Na5 O96 2.393192 1_555
Na5 O24 2.627139 1_555
Na5 O139 2.760219 1_555
Na5 O67 2.944309 1_555
Na6 O130 2.306468 1_555
Na6 O128 2.688775 1_555
Na6 O56 2.834644 1_555
Na6 O14 2.940575 1_555
Na7 O131 2.476387 1_555
Na7 O29 2.579063 1_555
Na7 O87 2.665907 1_555
Na7 O129 2.720747 1_555
Na7 O15 2.762135 1_555
Na7 O84 2.784704 1_555
Na7 O57 3.031342 1_555
Na8 O126 2.342503 1_555
Na8 O25 2.445340 1_455
Na8 O130 2.688353 1_555
Na9 O59 2.288845 1_555
Na9 O44 2.447105 1_555
Na9 O127 2.540211 1_555
Na9 O88 2.698045 1_555
Na9 O87 2.885980 1_565
Na9 O131 2.931263 1_555
Na10 O128 2.325335 1_555
Na10 O54 2.526809 1_555
Na10 O26 2.642607 1_565
Na10 O126 2.765390 1_555
Na10 O88 2.852352 1_555
Na11 O55 2.370037 1_555
Na11 O129 2.436269 1_555
Na11 O47 2.631894 1_565
Na11 O85 2.653634 1_565
Na11 O89 2.717885 1_555
Na11 O127 2.959578 1_555
Na12 O122 2.491469 1_555
Na12 O94 2.667805 1_565
Na12 O32 2.699872 1_565
Na12 O124 2.729878 1_555
Na12 O91 2.788319 1_455
Na12 O22 2.800318 1_555
Na12 O52 2.939241 1_554
Na13 O123 2.307568 1_555
Na13 O125 2.603441 1_555
Na13 O90 2.749439 1_555
Na13 O95 2.796033 1_565
Na13 O53 2.826281 1_554
Na13 O23 2.848679 1_555
Na13 O33 2.936819 1_565
Na14 O48 2.287643 1_554
Na14 O124 2.466334 1_555
Na14 O38 2.634616 1_555
Na14 O92 2.779615 1_565
Na14 O90 2.862920 1_555
Na14 O120 2.880232 1_555
Na15 O125 2.302710 1_555
Na15 O49 2.326297 1_554
Na15 O93 2.619878 1_565
Na15 O91 2.679506 1_555
Na15 O39 2.911495 1_555
Na15 O121 3.013214 1_555
Na16 O50 2.260837 1_554
Na16 O41 2.524621 1_455
Na16 O120 2.539303 1_555
Na16 O93 2.646239 1_455
Na16 O94 2.820950 1_555
Na16 O122 2.952456 1_555
Na17 O30 2.457468 1_555
Na17 O123 2.624798 1_555
Na17 O121 2.655790 1_555
Na17 O40 2.765961 1_555
Na17 O92 2.856947 1_555
Na18 O8 2.344106 1_555
Na18 O82 2.352427 1_555
Na18 O108 2.524230 1_555
Na18 O38 2.542065 1_556
Na18 O110 2.611970 1_555
Na18 O81 2.741631 1_555
Na19 O9 2.234911 1_555
Na19 O111 2.474030 1_555
Na19 O83 2.499511 1_555
Na19 O109 2.561748 1_555
Na19 O80 2.910305 1_655
Na20 O10 2.344533 1_555
Na20 O82 2.470932 1_545
Na20 O112 2.567074 1_555
Na20 O79 2.690566 1_555
Na20 O40 2.717131 1_556
Na20 O110 2.869490 1_555
Na21 O78 2.481050 1_655
Na21 O83 2.545807 1_545
Na21 O41 2.577256 1_556
Na21 O113 2.618176 1_555
Na21 O111 2.670641 1_555
Na21 O11 2.737449 1_555
Na22 O108 2.471557 1_555
Na22 O78 2.512432 1_555
Na22 O6 2.647362 1_555
Na22 O80 2.679451 1_545
Na22 O36 2.756261 1_556
Na23 O7 2.262138 1_555
Na23 O109 2.360513 1_555
Na23 O81 2.574908 1_545
Na23 O79 2.686493 1_555
Na23 O113 2.707074 1_555
Na23 O37 2.967670 1_556
Na24 O4 2.338428 1_555
Na24 O118 2.446070 1_555
Na24 O74 2.471094 1_545
Na24 O114 2.489986 1_555
Na25 O75 2.353338 1_545
Na25 O5 2.452513 1_555
Na25 O47 2.484747 1_555
Na25 O115 2.549926 1_555
Na25 O119 2.621619 1_555
Na25 O76 2.713291 1_655
Na26 O42 2.387042 1_555
Na26 O114 2.397916 1_555
Na26 O0 2.537675 1_545
Na26 O76 2.567939 1_555
Na26 O72 2.698853 1_545
Na26 O116 2.760490 1_555
Na27 O115 2.487532 1_555
Na27 O73 2.508136 1_545
Na27 O43 2.637249 1_555
Na27 O77 2.729035 1_555
Na27 O1 2.788143 1_555
Na28 O44 2.463750 1_555
Na28 O73 2.528945 1_555
Na28 O116 2.543722 1_555
Na28 O74 2.590413 1_555
Na28 O118 2.690026 1_555
Na28 O2 2.942836 1_555
Na29 O75 2.455533 1_555
Na29 O3 2.484539 1_555
Na29 O117 2.571171 1_555
Na29 O45 2.580669 1_555
Na29 O72 2.672900 1_655
Na29 O119 2.885116 1_555
Na30 O75 2.351666 1_545
Na30 O76 2.871012 1_655
Na31 O74 2.406725 1_555
Na31 O73 2.474039 1_555
Na31 O88 2.612076 1_555
Na31 O87 2.880761 1_565
Na31 O84 2.902185 1_565
Na31 O77 2.992505 1_565
Na32 O83 2.387509 1_545
Na32 O78 2.390032 1_655
Na32 O93 2.722382 1_556
Na32 O80 2.872439 1_645
Na32 O94 2.886318 1_656
Na32 O91 2.927940 1_546
Na33 O82 2.252985 1_555
Na33 O81 2.837981 1_555
Na34 O108 2.536365 1_555
Na34 O96 2.551302 1_555
Na34 O100 2.562880 1_555
Na34 O98 2.576392 1_555
Na34 O110 2.692976 1_555
Na34 O112 2.732818 1_555
Na35 O101 2.407313 1_555
Na35 O111 2.437220 1_555
Na35 O109 2.516594 1_555
Na35 O99 2.528554 1_555
Na35 O97 2.866324 1_555
Na35 O113 2.881927 1_555
Na36 O118 2.397751 1_555
Na36 O114 2.407770 1_555
Na36 O104 2.553252 1_555
Na36 O106 2.601535 1_555
Na36 O116 2.769625 1_555
Na37 O115 2.423595 1_555
Na37 O119 2.565614 1_555
Na37 O117 2.644337 1_555
Na37 O107 2.655353 1_555
Na37 O105 2.660369 1_555
Na37 O103 2.759251 1_555
Na38 O124 2.389321 1_555
Na38 O134 2.475803 1_555
Na38 O120 2.597222 1_555
Na38 O122 2.705652 1_555
Na38 O132 2.707724 1_555
Na38 O136 2.724728 1_555
Na39 O123 2.497428 1_555
Na39 O133 2.554275 1_555
Na39 O125 2.564235 1_555
Na39 O137 2.567676 1_555
Na39 O135 2.576491 1_555
Na39 O121 2.820491 1_555
Na40 O126 2.470391 1_555
Na40 O128 2.512238 1_555
Na40 O130 2.526402 1_555
Na40 O142 2.717457 1_555
Na40 O140 2.755040 1_555
Na40 O138 2.824290 1_555
Na41 O129 2.332710 1_555
Na41 O127 2.562067 1_555
Na41 O143 2.563266 1_555
Na41 O131 2.661305 1_555
Na41 O139 2.759675 1_555
Na41 O141 2.840419 1_555
Ca0 O5 2.195447 1_565
Ca0 O0 2.206194 1_655
Ca0 O3 2.208173 1_555
Ca0 O75 2.294752 1_555
Ca0 O76 2.422880 1_665
Ca0 O72 2.483952 1_655
Ca1 O4 2.160516 1_565
Ca1 O74 2.240571 1_555
Ca1 O73 2.241160 1_555
Ca1 O2 2.305266 1_555
Ca1 O1 2.321601 1_565
Ca1 O77 2.367347 1_565
Ca2 O9 2.146761 1_555
Ca2 O78 2.265899 1_665
Ca2 O83 2.287692 1_555
Ca2 O11 2.299772 1_565
Ca2 O6 2.315905 1_665
Ca2 O80 2.397153 1_655
Ca3 O10 2.173916 1_565
Ca3 O8 2.177084 1_555
Ca3 O7 2.210159 1_565
Ca3 O82 2.300323 1_555
Ca3 O81 2.430413 1_555
Ca3 O79 2.505192 1_565
Ca4 O26 2.150609 1_555
Ca4 O28 2.227392 1_555
Ca4 O96 2.246107 1_555
Ca4 O100 2.348585 1_555
Ca4 O24 2.376345 1_555
Ca4 O98 2.454865 1_555
Ca5 O25 2.174128 1_555
Ca5 O29 2.235966 1_555
Ca5 O101 2.243300 1_555
Ca5 O27 2.340976 1_555
Ca5 O99 2.354747 1_555
Ca5 O97 2.397192 1_555
Ca6 O30 2.168261 1_555
Ca6 O104 2.230544 1_555
Ca6 O32 2.239844 1_555
Ca6 O106 2.308644 1_555
Ca6 O34 2.338005 1_555
Ca6 O102 2.379850 1_555
Ca7 O33 2.196074 1_555
Ca7 O103 2.203880 1_555
Ca7 O105 2.250545 1_555
Ca7 O35 2.314893 1_555
Ca7 O31 2.345526 1_555
Ca7 O107 2.409058 1_555
Ca8 O38 2.337209 1_556
Ca8 O108 2.381443 1_555
Ca8 O40 2.402442 1_556
Ca8 O36 2.473894 1_556
Ca8 O110 2.517558 1_555
Ca8 O112 2.565157 1_555
Ca9 O111 2.261502 1_555
Ca9 O41 2.343712 1_556
Ca9 O109 2.383804 1_555
Ca9 O39 2.421807 1_556
Ca9 O113 2.425869 1_555
Ca9 O37 2.609468 1_556
Ca10 O42 2.347345 1_555
Ca10 O44 2.374950 1_555
Ca10 O118 2.417816 1_555
Ca10 O46 2.458324 1_555
Ca10 O114 2.471395 1_555
Ca10 O116 2.524148 1_555
Ca11 O47 2.296759 1_555
Ca11 O45 2.340427 1_555
Ca11 O43 2.463004 1_555
Ca11 O115 2.476717 1_555
Ca11 O119 2.589972 1_555
Ca11 O117 2.634017 1_555
Ca12 O48 2.141625 1_554
Ca12 O50 2.170877 1_554
Ca12 O52 2.285385 1_554
Ca12 O124 2.301231 1_555
Ca12 O120 2.473131 1_555
Ca12 O122 2.491948 1_555
Ca13 O49 2.167394 1_554
Ca13 O125 2.253577 1_555
Ca13 O53 2.262988 1_554
Ca13 O123 2.265622 1_555
Ca13 O51 2.287544 1_554
Ca13 O121 2.417950 1_555
Ca14 O54 2.178958 1_555
Ca14 O126 2.235132 1_555
Ca14 O128 2.262758 1_555
Ca14 O130 2.272539 1_555
Ca14 O56 2.291979 1_555
Ca14 O58 2.308419 1_555
Ca15 O55 2.143105 1_555
Ca15 O59 2.167458 1_555
Ca15 O129 2.265509 1_555
Ca15 O57 2.290845 1_555
Ca15 O131 2.456717 1_555
Ca15 O127 2.467953 1_555
Nb0 O86 1.869494 1_565
Nb0 O89 1.899883 1_455
Nb0 O85 1.941326 1_465
Nb0 O16 1.963924 1_555
Nb0 O14 2.368685 1_565
Nb0 O13 2.415381 1_455
Nb1 O12 1.885641 1_555
Nb1 O17 1.889848 1_555
Nb1 O88 1.947695 1_555
Nb1 O15 2.028317 1_565
Nb1 O87 2.348988 1_565
Nb1 O84 2.355054 1_565
Nb2 O20 1.874728 1_655
Nb2 O19 1.875803 1_545
Nb2 O93 1.983203 1_555
Nb2 O22 2.007929 1_645
Nb2 O94 2.334743 1_655
Nb2 O91 2.387363 1_545
Nb3 O92 1.872821 1_555
Nb3 O21 1.931007 1_555
Nb3 O90 1.937252 1_545
Nb3 O95 2.105012 1_555
Nb3 O18 2.139689 1_545
Nb3 O23 2.313331 1_545
Nb4 O62 1.882601 1_555
Nb4 O132 1.924842 1_555
Nb4 O136 2.009370 1_555
Nb4 O60 2.077860 1_555
Nb4 O64 2.160247 1_555
Nb4 O134 2.252497 1_555
Nb5 O61 1.891273 1_555
Nb5 O63 1.939451 1_555
Nb5 O137 2.017037 1_555
Nb5 O65 2.105682 1_555
Nb5 O135 2.113733 1_555
Nb5 O133 2.224460 1_555
Nb6 O66 1.919734 1_555
Nb6 O70 1.968562 1_555
Nb6 O140 1.973199 1_555
Nb6 O142 2.072981 1_555
Nb6 O138 2.141539 1_555
Nb6 O68 2.185749 1_555
Nb7 O139 1.899125 1_555
Nb7 O71 1.905566 1_555
Nb7 O141 1.976539 1_555
Nb7 O143 2.094841 1_555
Nb7 O67 2.138486 1_555
Nb7 O69 2.253680 1_555
O0 Si0 1.587271 1_565
O1 S0 1.462912 1_545
O2 S1 1.457549 1_555
O3 Si1 1.598771 1_555
O4 Si3 1.587182 1_555
O5 Si2 1.587209 1_655
O6 S2 1.465572 1_555
O7 Si4 1.578881 1_555
O8 Si6 1.588480 1_555
O9 Si5 1.592233 1_655
O10 Si7 1.597343 1_545
O11 S3 1.465883 1_545
O12 Si7 1.796696 1_555
O13 S3 1.490525 1_555
O14 S2 1.487115 1_555
O15 Si4 1.706355 1_555
O16 Si5 1.727970 1_555
O17 Si6 1.741396 1_555
O18 S1 1.525909 1_555
O19 Si1 1.800674 1_555
O20 Si2 1.752839 1_555
O21 Si3 1.787120 1_555
O22 Si0 1.718396 1_565
O23 S0 1.508125 1_555
O24 S4 1.472862 1_555
O25 Si8 1.577286 1_555
O26 Si9 1.602380 1_555
O27 S5 1.463963 1_555
O28 Si10 1.609794 1_555
O29 Si11 1.610253 1_555
O30 Si12 1.586541 1_555
O31 S6 1.473806 1_555
O32 Si13 1.606507 1_555
O33 Si14 1.616886 1_555
O34 S7 1.460075 1_555
O35 S8 1.461178 1_555
O36 S7 1.496979 1_555
O37 S8 1.481074 1_555
O38 Si12 1.647815 1_555
O39 S6 1.488214 1_555
O40 Si13 1.623176 1_555
O41 Si14 1.646050 1_555
O42 Si9 1.631220 1_555
O43 S5 1.500064 1_555
O44 Si10 1.649386 1_555
O45 Si11 1.641992 1_555
O46 S4 1.484921 1_555
O47 Si8 1.656295 1_555
O48 Si15 1.617236 1_555
O49 Si16 1.604231 1_555
O50 Si17 1.611464 1_555
O51 S9 1.467640 1_555
O52 S10 1.483057 1_555
O53 S11 1.477962 1_555
O54 Si18 1.595519 1_555
O55 Si19 1.608994 1_555
O56 S12 1.465278 1_555
O57 S13 1.472680 1_555
O58 S14 1.458862 1_555
O59 Si20 1.605987 1_555
O60 S14 1.552030 1_555
O61 Si20 1.779056 1_555
O62 Si18 1.808943 1_555
O63 Si19 1.752358 1_555
O64 S12 1.530375 1_555
O65 S13 1.533373 1_555
O66 Si17 1.734198 1_555
O67 S9 1.536038 1_555
O68 S10 1.512061 1_555
O69 S11 1.509117 1_555
O70 Si15 1.723479 1_555
O71 Si16 1.778336 1_555
O72 S14 1.475346 1_555
O73 Si20 1.634400 1_555
O74 Si18 1.631408 1_555
O75 Si19 1.639159 1_555
O76 S12 1.479319 1_555
O77 S13 1.474235 1_555
O78 Si17 1.635683 1_555
O79 S9 1.477225 1_555
O80 S10 1.480691 1_555
O81 S11 1.485517 1_555
O82 Si15 1.637528 1_555
O83 Si16 1.636762 1_555
O84 S4 1.518685 1_555
O85 Si8 1.713217 1_555
O86 Si9 1.743383 1_555
O87 S5 1.519468 1_555
O88 Si10 1.757841 1_555
O89 Si11 1.732311 1_555
O90 Si12 1.731292 1_555
O91 S6 1.518227 1_555
O92 Si13 1.776472 1_555
O93 Si14 1.744011 1_555
O94 S7 1.524829 1_555
O95 S8 1.546652 1_555
O96 Si7 1.592322 1_545
O97 S3 1.453903 1_545
O98 S2 1.482877 1_555
O99 Si4 1.583812 1_555
O100 Si6 1.601730 1_555
O101 Si5 1.608104 1_655
O102 S1 1.447195 1_555
O103 Si1 1.594797 1_555
O104 Si3 1.597966 1_555
O105 Si2 1.607124 1_655
O106 Si0 1.592484 1_555
O107 S0 1.483132 1_545
O108 Si15 1.647310 1_555
O109 Si16 1.638221 1_555
O110 S9 1.492288 1_555
O111 Si17 1.640621 1_655
O112 S10 1.494944 1_545
O113 S11 1.495617 1_545
O114 Si18 1.629866 1_545
O115 Si19 1.645684 1_545
O116 S12 1.489175 1_555
O117 S13 1.484175 1_555
O118 Si20 1.627050 1_555
O119 S14 1.494355 1_655
O120 S7 1.494911 1_555
O121 S8 1.481508 1_555
O122 S6 1.495957 1_455
O123 Si12 1.636708 1_555
O124 Si13 1.627653 1_565
O125 Si14 1.635294 1_565
O126 Si9 1.624767 1_565
O127 S5 1.495464 1_565
O128 Si10 1.622528 1_555
O129 Si11 1.638125 1_555
O130 Si8 1.630983 1_455
O131 S4 1.502225 1_555
O132 Si0 1.767231 1_565
O133 S0 1.523217 1_555
O134 S1 1.542866 1_555
O135 Si1 1.661593 1_555
O136 Si2 1.680845 1_555
O137 Si3 1.674606 1_555
O138 S2 1.541149 1_555
O139 Si4 1.785162 1_555
O140 Si5 1.682910 1_555
O141 Si6 1.692269 1_555
O142 Si7 1.666956 1_555
O143 S3 1.570470 1_555
