# generated using pymatgen
data_Na10NbAl7(PO4)12
_symmetry_space_group_name_H-M   'P 1'
_cell_length_a   17.14570780
_cell_length_b   8.57756550
_cell_length_c   21.69477110
_cell_angle_alpha   89.99191472
_cell_angle_beta   89.97483240
_cell_angle_gamma   120.02512680
_symmetry_Int_Tables_number   1
_chemical_formula_structural   Na10NbAl7(PO4)12
_chemical_formula_sum   'Na30 Nb3 Al21 P36 O144'
_cell_volume   2762.45408923
_cell_formula_units_Z   3
loop_
 _symmetry_equiv_pos_site_id
 _symmetry_equiv_pos_as_xyz
  1  'x, y, z'
loop_
 _atom_site_type_symbol
 _atom_site_label
 _atom_site_symmetry_multiplicity
 _atom_site_fract_x
 _atom_site_fract_y
 _atom_site_fract_z
 _atom_site_occupancy
  Na  Na0  1  0.31859232  0.99911413  0.25145410  1
  Na  Na1  1  0.68179754  0.36163241  0.25157892  1
  Na  Na2  1  0.31763358  0.63481290  0.75165486  1
  Na  Na3  1  0.81765919  0.63494006  0.75148112  1
  Na  Na4  1  0.15045738  0.33385069  0.58262223  1
  Na  Na5  1  0.65059081  0.33356164  0.58226744  1
  Na  Na6  1  0.01593369  0.69813841  0.58271318  1
  Na  Na7  1  0.51613810  0.69863256  0.58287343  1
  Na  Na8  1  0.33317473  0.96854690  0.58239853  1
  Na  Na9  1  0.83297548  0.96817645  0.58254298  1
  Na  Na10  1  0.15079814  0.96801637  0.08255903  1
  Na  Na11  1  0.65102890  0.96847880  0.08361085  1
  Na  Na12  1  0.33307598  0.69768408  0.08350223  1
  Na  Na13  1  0.83325623  0.69824648  0.08271808  1
  Na  Na14  1  0.01573311  0.33377759  0.08292608  1
  Na  Na15  1  0.51571133  0.33359860  0.08337151  1
  Na  Na16  1  0.66513386  0.03334509  0.41449357  1
  Na  Na17  1  0.35085566  0.66955812  0.41428610  1
  Na  Na18  1  0.00023138  0.99913326  0.49940165  1
  Na  Na19  1  0.49961304  0.01023596  0.49608857  1
  Na  Na20  1  0.00010253  -0.00000318  0.00066209  1
  Na  Na21  1  0.50007731  0.99972128  0.00085168  1
  Na  Na22  1  0.33384713  0.32469572  0.83579131  1
  Na  Na23  1  0.83383658  0.32471998  0.83576428  1
  Na  Na24  1  0.33460071  0.33470580  0.33277095  1
  Na  Na25  1  0.84120007  0.33990061  0.33281380  1
  Na  Na26  1  0.16332978  0.65631898  0.17052489  1
  Na  Na27  1  0.66544732  0.67592044  0.17055182  1
  Na  Na28  1  0.16230787  0.66735334  0.67049157  1
  Na  Na29  1  0.66255597  0.66737204  0.67051143  1
  Nb  Nb0  1  0.00003621  0.99852043  0.35439071  1
  Nb  Nb1  1  0.00055165  0.00186993  0.85727778  1
  Nb  Nb2  1  0.50060382  0.00202887  0.85727826  1
  Al  Al0  1  0.49928862  0.00567087  0.35171381  1
  Al  Al1  1  0.00051877  0.00046742  0.64963776  1
  Al  Al2  1  0.50069854  0.00037164  0.64951720  1
  Al  Al3  1  0.00015109  0.00179456  0.14928385  1
  Al  Al4  1  0.50031349  0.99845141  0.15119197  1
  Al  Al5  1  0.33383758  0.32900405  0.68675434  1
  Al  Al6  1  0.83403277  0.32959793  0.68660146  1
  Al  Al7  1  0.33461320  0.34244628  0.18711038  1
  Al  Al8  1  0.83464892  0.32871764  0.18709614  1
  Al  Al9  1  0.33323486  0.33358189  0.97879115  1
  Al  Al10  1  0.83359194  0.33358301  0.97883337  1
  Al  Al11  1  0.33316445  0.32529532  0.47874561  1
  Al  Al12  1  0.83560926  0.33942803  0.47869723  1
  Al  Al13  1  0.16633723  0.66659503  0.01800089  1
  Al  Al14  1  0.66637506  0.66671606  0.01792904  1
  Al  Al15  1  0.16723906  0.66956567  0.51685671  1
  Al  Al16  1  0.66519774  0.66234862  0.51617416  1
  Al  Al17  1  0.16506952  0.66185104  0.31346537  1
  Al  Al18  1  0.66465352  0.66915820  0.31392194  1
  Al  Al19  1  0.16403174  0.66759268  0.81457402  1
  Al  Al20  1  0.66402432  0.66756519  0.81457581  1
  P  P0  1  0.14730598  -0.00008051  0.24630744  1
  P  P1  1  0.64454755  0.99610141  0.25035896  1
  P  P2  1  0.35563492  0.70761824  0.25090747  1
  P  P3  1  0.85252033  0.70530594  0.24635568  1
  P  P4  1  0.00053640  0.29677848  0.24686689  1
  P  P5  1  0.49974478  0.29194653  0.24966990  1
  P  P6  1  0.14676219  0.29379781  0.74690684  1
  P  P7  1  0.64682582  0.29386742  0.74691295  1
  P  P8  1  0.00207264  0.70550748  0.74707763  1
  P  P9  1  0.50203420  0.70552294  0.74705876  1
  P  P10  1  0.35250630  0.00293202  0.74741213  1
  P  P11  1  0.85250041  0.00304516  0.74739994  1
  P  P12  1  0.47659065  0.33320358  0.58342168  1
  P  P13  1  0.97649228  0.33347252  0.58313703  1
  P  P14  1  0.19009576  0.04717567  0.58321378  1
  P  P15  1  0.68974571  0.04593512  0.58296189  1
  P  P16  1  0.33336085  0.62108784  0.58321877  1
  P  P17  1  0.83326075  0.62073684  0.58369222  1
  P  P18  1  0.47636191  0.61965219  0.08304977  1
  P  P19  1  0.97620357  0.61926926  0.08329336  1
  P  P20  1  0.33343817  0.04683618  0.08368560  1
  P  P21  1  0.83339250  0.04709187  0.08297391  1
  P  P22  1  0.19024420  0.33322241  0.08306864  1
  P  P23  1  0.68995508  0.33317174  0.08352265  1
  P  P24  1  0.30432679  0.65395694  0.91755519  1
  P  P25  1  0.80433404  0.65376491  0.91755579  1
  P  P26  1  0.02265874  0.39185444  0.91819307  1
  P  P27  1  0.52263639  0.39188288  0.91825343  1
  P  P28  1  0.17318874  0.95456746  0.91811074  1
  P  P29  1  0.67318874  0.95466346  0.91809684  1
  P  P30  1  0.31053065  0.95834938  0.41572470  1
  P  P31  1  0.80701385  0.95330933  0.41857117  1
  P  P32  1  0.16956527  0.38568245  0.41864820  1
  P  P33  1  0.66699076  0.38001498  0.41585579  1
  P  P34  1  0.02313589  0.65604389  0.41774775  1
  P  P35  1  0.52146634  0.66167788  0.41662034  1
  O  O0  1  0.10270881  0.03181078  0.30452310  1
  O  O1  1  0.60234445  0.03581296  0.30741667  1
  O  O2  1  0.41371616  0.79592056  0.30869627  1
  O  O3  1  0.91310285  0.79454247  0.30461379  1
  O  O4  1  0.48086609  0.16574528  0.30506859  1
  O  O5  1  0.98485606  0.17265886  0.30477447  1
  O  O6  1  0.10239022  0.17245561  0.80448260  1
  O  O7  1  0.60234728  0.17246471  0.80449986  1
  O  O8  1  0.48213765  0.79370129  0.80387487  1
  O  O9  1  0.98218743  0.79375885  0.80390865  1
  O  O10  1  0.41339714  0.03224714  0.80487314  1
  O  O11  1  0.91342289  0.03238889  0.80485777  1
  O  O12  1  0.39568870  0.96345161  0.69076348  1
  O  O13  1  0.89573091  0.96354884  0.69079806  1
  O  O14  1  0.08753158  0.20650856  0.68977180  1
  O  O15  1  0.58754625  0.20663846  0.68978641  1
  O  O16  1  0.01618476  0.82373532  0.68962995  1
  O  O17  1  0.51612991  0.82372662  0.68959700  1
  O  O18  1  0.39681375  0.83017784  0.19271009  1
  O  O19  1  0.89711916  0.82539267  0.18996069  1
  O  O20  1  0.01601580  0.20817334  0.18988638  1
  O  O21  1  0.51864543  0.20909894  0.19115410  1
  O  O22  1  0.08733858  0.96911949  0.18992212  1
  O  O23  1  0.58720180  0.96781072  0.19147420  1
  O  O24  1  0.43567028  0.37321784  0.63997839  1
  O  O25  1  0.93542594  0.37293066  0.63986075  1
  O  O26  1  0.25075365  0.12897631  0.63989199  1
  O  O27  1  0.75128086  0.13138040  0.63893504  1
  O  O28  1  0.31487538  0.50222489  0.64090614  1
  O  O29  1  0.81453224  0.50365819  0.64197796  1
  O  O30  1  0.43556059  0.49831196  0.13979298  1
  O  O31  1  0.93500746  0.49784884  0.13999996  1
  O  O32  1  0.31441933  0.12594546  0.14198979  1
  O  O33  1  0.81354775  0.12825122  0.13982039  1
  O  O34  1  0.25061980  0.37195634  0.13987462  1
  O  O35  1  0.74848979  0.37130515  0.14190224  1
  O  O36  1  0.23108829  0.29386651  0.02649922  1
  O  O37  1  0.73237647  0.29511523  0.02768377  1
  O  O38  1  0.41576089  0.53805424  0.02653111  1
  O  O39  1  0.91578082  0.53781408  0.02660576  1
  O  O40  1  0.35246926  0.16942557  0.02774775  1
  O  O41  1  0.85317385  0.16833809  0.02649792  1
  O  O42  1  0.23113584  0.16886824  0.52677910  1
  O  O43  1  0.72953055  0.16375994  0.52492209  1
  O  O44  1  0.35179362  0.53862303  0.52596682  1
  O  O45  1  0.85251254  0.53596329  0.52790804  1
  O  O46  1  0.41589324  0.29373211  0.52695534  1
  O  O47  1  0.91551065  0.29369398  0.52670772  1
  O  O48  1  0.26615370  0.69353520  0.97572136  1
  O  O49  1  0.76615362  0.69341873  0.97571326  1
  O  O50  1  0.07955624  0.46505760  0.97698159  1
  O  O51  1  0.57964301  0.46522067  0.97700626  1
  O  O52  1  0.15266134  0.84034479  0.97689472  1
  O  O53  1  0.65258901  0.84042169  0.97687169  1
  O  O54  1  0.27009411  0.83719148  0.47438093  1
  O  O55  1  0.76770821  0.84063661  0.47759746  1
  O  O56  1  0.15229449  0.46450125  0.47750654  1
  O  O57  1  0.65110656  0.46115303  0.47526647  1
  O  O58  1  0.07927157  0.69492145  0.47713476  1
  O  O59  1  0.58074184  0.70207534  0.47555784  1
  O  O60  1  0.06751802  0.63369618  0.36046521  1
  O  O61  1  0.56646577  0.63389725  0.36061751  1
  O  O62  1  0.25265676  0.86998304  0.35809309  1
  O  O63  1  0.74848523  0.86741895  0.36171982  1
  O  O64  1  0.18551606  0.50298548  0.36187774  1
  O  O65  1  0.68223376  0.49597092  0.35820559  1
  O  O66  1  0.06698105  0.50003407  0.86026771  1
  O  O67  1  0.56692478  0.50007855  0.86033274  1
  O  O68  1  0.18365030  0.86649043  0.86029020  1
  O  O69  1  0.68367644  0.86662238  0.86027115  1
  O  O70  1  0.25191765  0.63465686  0.85805061  1
  O  O71  1  0.75193653  0.63455704  0.85806408  1
  O  O72  1  0.01300706  0.82910600  0.41132478  1
  O  O73  1  0.51165421  0.83365743  0.41019452  1
  O  O74  1  0.40475232  0.97289547  0.40944091  1
  O  O75  1  0.90251934  0.97367929  0.41260622  1
  O  O76  1  0.08446476  0.19448704  0.41275702  1
  O  O77  1  0.58307245  0.18725347  0.40919005  1
  O  O78  1  0.01330024  0.19784575  0.91170930  1
  O  O79  1  0.51331490  0.19793917  0.91175215  1
  O  O80  1  0.08558555  0.97325607  0.91126430  1
  O  O81  1  0.58557034  0.97330215  0.91122802  1
  O  O82  1  0.40129996  0.82908732  0.91145299  1
  O  O83  1  0.90129041  0.82896744  0.91145782  1
  O  O84  1  0.48807918  0.16463430  0.59105487  1
  O  O85  1  0.98798773  0.16447675  0.59081270  1
  O  O86  1  0.09398296  0.02331465  0.59053726  1
  O  O87  1  0.59395494  0.02385303  0.59045671  1
  O  O88  1  0.41792500  0.81285458  0.59035470  1
  O  O89  1  0.91786915  0.81268102  0.59051430  1
  O  O90  1  0.48812837  0.81182233  0.09098656  1
  O  O91  1  0.98835939  0.81196480  0.09060960  1
  O  O92  1  0.41785924  0.02312113  0.09087266  1
  O  O93  1  0.91772421  0.02344219  0.09048122  1
  O  O94  1  0.09392212  0.16467689  0.09048497  1
  O  O95  1  0.59373743  0.16410991  0.09053976  1
  O  O96  1  0.34547011  0.17179329  0.74132687  1
  O  O97  1  0.84534579  0.17177420  0.74118133  1
  O  O98  1  0.24118786  0.31496140  0.74108034  1
  O  O99  1  0.74117060  0.31463917  0.74120718  1
  O  O100  1  0.41464331  0.52193103  0.74102393  1
  O  O101  1  0.91471875  0.52189850  0.74115229  1
  O  O102  1  0.34635397  0.52174119  0.24266178  1
  O  O103  1  0.84295272  0.51769018  0.24149332  1
  O  O104  1  0.41404214  0.30563460  0.24192307  1
  O  O105  1  0.91488152  0.30896956  0.24186711  1
  O  O106  1  0.24132947  0.16801436  0.24139069  1
  O  O107  1  0.73788329  0.16998981  0.24267050  1
  O  O108  1  0.31835772  0.49267803  0.92403504  1
  O  O109  1  0.81832830  0.49247642  0.92413927  1
  O  O110  1  0.42772460  0.36273695  0.92466942  1
  O  O111  1  0.92778190  0.36295830  0.92444954  1
  O  O112  1  0.25378446  0.14412378  0.92458963  1
  O  O113  1  0.75365860  0.14435183  0.92461779  1
  O  O114  1  0.31974024  0.14413975  0.42407681  1
  O  O115  1  0.81756332  0.14197524  0.42476567  1
  O  O116  1  0.25366137  0.36550027  0.42497689  1
  O  O117  1  0.75036861  0.35507420  0.42370812  1
  O  O118  1  0.42607320  0.49777955  0.42455616  1
  O  O119  1  0.92811057  0.49353473  0.42428390  1
  O  O120  1  0.17812729  0.50142850  0.07622788  1
  O  O121  1  0.67825175  0.50182627  0.07640753  1
  O  O122  1  0.07254184  0.64345810  0.07647852  1
  O  O123  1  0.57265762  0.64399192  0.07628122  1
  O  O124  1  0.24914846  0.85437686  0.07647678  1
  O  O125  1  0.74926792  0.85450709  0.07618175  1
  O  O126  1  0.17850727  0.85526928  0.57589012  1
  O  O127  1  0.67767394  0.85378743  0.57659629  1
  O  O128  1  0.24903098  0.64457383  0.57667296  1
  O  O129  1  0.74881073  0.64310736  0.57648949  1
  O  O130  1  0.07265514  0.50183738  0.57639061  1
  O  O131  1  0.57263660  0.50166041  0.57594598  1
  O  O132  1  0.15683825  0.83229743  0.25574678  1
  O  O133  1  0.65426409  0.82877409  0.25794482  1
  O  O134  1  0.26178914  0.69373167  0.25747971  1
  O  O135  1  0.75911397  0.68598891  0.25604236  1
  O  O136  1  0.08542808  0.47944803  0.25711057  1
  O  O137  1  0.58583001  0.47721893  0.25717198  1
  O  O138  1  0.15729472  0.48177717  0.75584933  1
  O  O139  1  0.65730581  0.48179182  0.75588840  1
  O  O140  1  0.08598895  0.69044228  0.75648120  1
  O  O141  1  0.58593228  0.69037035  0.75644378  1
  O  O142  1  0.26089737  0.82918852  0.75622306  1
  O  O143  1  0.76093705  0.82928811  0.75620752  1
loop_
_geom_bond_atom_site_label_1
_geom_bond_atom_site_label_2
_geom_bond_distance
_geom_bond_site_symmetry_2
Na0 O134 2.296473 1_555
Na0 O104 2.308075 1_565
Na0 O132 2.403353 1_555
Na0 O106 2.412939 1_565
Na0 O62 2.569253 1_555
Na0 O32 2.627863 1_565
Na0 O4 2.675923 1_565
Na0 O18 2.732510 1_555
Na1 O107 2.290443 1_555
Na1 O137 2.310326 1_555
Na1 O103 2.402586 1_555
Na1 O135 2.411738 1_555
Na1 O65 2.582842 1_555
Na1 O35 2.622717 1_555
Na1 O1 2.705792 1_555
Na1 O21 2.756167 1_555
Na2 O142 2.314951 1_555
Na2 O100 2.317049 1_555
Na2 O138 2.382724 1_555
Na2 O98 2.387333 1_555
Na2 O70 2.567819 1_555
Na2 O28 2.648680 1_555
Na2 O8 2.693068 1_555
Na2 O12 2.775686 1_555
Na3 O143 2.314692 1_555
Na3 O101 2.318264 1_555
Na3 O139 2.383096 1_555
Na3 O99 2.390065 1_555
Na3 O71 2.571095 1_555
Na3 O29 2.618219 1_555
Na3 O9 2.695307 1_555
Na3 O13 2.773333 1_555
Na4 O128 2.338463 1_555
Na4 O86 2.341079 1_555
Na4 O130 2.407845 1_555
Na4 O85 2.418988 1_455
Na4 O56 2.534023 1_555
Na4 O14 2.564866 1_555
Na4 O42 2.709600 1_555
Na4 O28 2.749717 1_555
Na5 O129 2.329479 1_555
Na5 O87 2.334491 1_555
Na5 O131 2.411021 1_555
Na5 O84 2.420489 1_555
Na5 O57 2.564399 1_555
Na5 O15 2.571783 1_555
Na5 O43 2.733655 1_555
Na5 O29 2.758151 1_555
Na6 O130 2.332055 1_555
Na6 O89 2.339660 1_455
Na6 O126 2.418287 1_555
Na6 O86 2.421633 1_565
Na6 O58 2.540533 1_555
Na6 O16 2.556745 1_555
Na6 O45 2.702314 1_455
Na6 O25 2.714380 1_455
Na7 O131 2.335249 1_555
Na7 O88 2.339394 1_555
Na7 O127 2.402391 1_555
Na7 O87 2.421700 1_565
Na7 O17 2.552058 1_555
Na7 O59 2.571625 1_555
Na7 O24 2.715336 1_555
Na7 O44 2.735161 1_555
Na8 O126 2.327710 1_555
Na8 O84 2.334147 1_565
Na8 O128 2.409811 1_555
Na8 O88 2.422179 1_555
Na8 O54 2.591196 1_555
Na8 O12 2.593609 1_555
Na8 O46 2.697598 1_565
Na8 O26 2.718734 1_565
Na9 O85 2.335196 1_565
Na9 O127 2.335666 1_555
Na9 O129 2.418227 1_555
Na9 O89 2.422919 1_555
Na9 O55 2.531905 1_555
Na9 O13 2.592303 1_555
Na9 O47 2.703571 1_565
Na9 O27 2.716569 1_565
Na10 O124 2.335788 1_555
Na10 O94 2.339284 1_565
Na10 O122 2.414540 1_555
Na10 O91 2.418222 1_455
Na10 O52 2.547719 1_554
Na10 O22 2.572411 1_555
Na10 O36 2.707999 1_565
Na10 O32 2.751034 1_565
Na11 O95 2.335137 1_565
Na11 O125 2.338057 1_555
Na11 O123 2.415606 1_555
Na11 O90 2.424028 1_555
Na11 O53 2.568986 1_554
Na11 O23 2.581678 1_555
Na11 O33 2.703994 1_565
Na11 O37 2.711847 1_565
Na12 O120 2.332717 1_555
Na12 O90 2.334119 1_555
Na12 O124 2.415796 1_555
Na12 O92 2.422881 1_565
Na12 O48 2.597487 1_554
Na12 O18 2.619020 1_555
Na12 O34 2.710187 1_555
Na12 O38 2.711799 1_555
Na13 O121 2.332342 1_555
Na13 O91 2.336108 1_555
Na13 O125 2.412892 1_555
Na13 O93 2.421575 1_565
Na13 O19 2.570863 1_555
Na13 O49 2.582483 1_554
Na13 O39 2.706522 1_555
Na13 O35 2.746602 1_555
Na14 O122 2.331255 1_555
Na14 O93 2.336580 1_455
Na14 O120 2.415424 1_555
Na14 O94 2.423654 1_555
Na14 O50 2.551903 1_554
Na14 O20 2.559282 1_555
Na14 O41 2.706681 1_455
Na14 O31 2.716213 1_455
Na15 O92 2.337050 1_555
Na15 O123 2.337455 1_555
Na15 O121 2.418012 1_555
Na15 O95 2.423628 1_555
Na15 O51 2.561174 1_554
Na15 O21 2.581443 1_555
Na15 O30 2.706478 1_555
Na15 O40 2.707794 1_555
Na16 O115 2.304738 1_555
Na16 O73 2.314491 1_545
Na16 O77 2.365309 1_555
Na16 O117 2.399110 1_555
Na16 O1 2.565309 1_555
Na16 O43 2.641393 1_555
Na16 O63 2.722751 1_545
Na16 O59 2.793813 1_545
Na17 O74 2.286586 1_555
Na17 O116 2.298452 1_555
Na17 O73 2.388793 1_555
Na17 O118 2.405355 1_555
Na17 O2 2.532192 1_555
Na17 O44 2.673827 1_555
Na17 O64 2.705628 1_555
Na17 O54 2.770598 1_555
Na18 O76 2.449878 1_565
Na18 O75 2.457027 1_455
Na18 O72 2.479170 1_555
Na18 O89 2.489107 1_455
Na18 O86 2.491045 1_565
Na18 O85 2.507333 1_465
Na19 O77 2.393682 1_555
Na19 O74 2.400649 1_545
Na19 O73 2.474374 1_545
Na19 O84 2.510035 1_555
Na19 O88 2.575632 1_545
Na19 O87 2.575938 1_555
Na20 O94 2.471813 1_555
Na20 O93 2.472738 1_455
Na20 O91 2.474581 1_445
Na20 O78 2.503952 1_554
Na20 O83 2.506808 1_444
Na20 O80 2.509258 1_544
Na21 O95 2.467893 1_565
Na21 O92 2.474369 1_565
Na21 O90 2.476230 1_555
Na21 O79 2.508236 1_564
Na21 O82 2.509004 1_554
Na21 O81 2.512099 1_554
Na22 O112 2.421501 1_555
Na22 O110 2.427443 1_555
Na22 O108 2.488972 1_555
Na22 O96 2.494347 1_555
Na22 O98 2.573530 1_555
Na22 O100 2.580561 1_555
Na23 O113 2.422321 1_555
Na23 O111 2.424481 1_555
Na23 O109 2.490068 1_555
Na23 O97 2.496003 1_555
Na23 O99 2.570113 1_555
Na23 O101 2.577996 1_555
Na24 O102 2.472098 1_555
Na24 O104 2.477836 1_555
Na24 O118 2.487875 1_555
Na24 O114 2.498492 1_555
Na24 O106 2.499459 1_555
Na24 O116 2.522252 1_555
Na25 O105 2.427500 1_555
Na25 O119 2.435816 1_555
Na25 O103 2.490949 1_555
Na25 O115 2.517100 1_555
Na25 O107 2.550833 1_555
Na25 O117 2.555597 1_555
Na26 O136 2.362914 1_555
Na26 O132 2.424446 1_555
Na26 O134 2.443852 1_555
Na26 O120 2.520368 1_555
Na26 O122 2.535574 1_555
Na26 O124 2.590170 1_555
Na27 O133 2.366951 1_555
Na27 O135 2.427014 1_555
Na27 O137 2.442996 1_555
Na27 O123 2.521080 1_555
Na27 O125 2.529212 1_555
Na27 O121 2.603511 1_555
Na28 O140 2.342861 1_555
Na28 O138 2.415061 1_555
Na28 O142 2.428763 1_555
Na28 O130 2.523047 1_555
Na28 O126 2.537310 1_555
Na28 O128 2.584587 1_555
Na29 O141 2.344731 1_555
Na29 O139 2.414209 1_555
Na29 O143 2.426866 1_555
Na29 O127 2.521718 1_555
Na29 O131 2.533140 1_555
Na29 O129 2.587797 1_555
Nb0 O3 1.959890 1_455
Nb0 O0 1.961158 1_565
Nb0 O5 1.961212 1_465
Nb0 O72 2.002485 1_555
Nb0 O75 2.019308 1_455
Nb0 O76 2.022734 1_565
Nb1 O78 1.975113 1_555
Nb1 O80 1.979193 1_545
Nb1 O6 1.985611 1_555
Nb1 O83 1.987310 1_445
Nb1 O11 1.996573 1_455
Nb1 O9 2.016100 1_445
Nb2 O79 1.975418 1_555
Nb2 O81 1.978275 1_545
Nb2 O7 1.984187 1_555
Nb2 O82 1.987701 1_545
Nb2 O10 1.996175 1_555
Nb2 O8 2.017526 1_545
Al0 O4 1.855535 1_555
Al0 O2 1.902771 1_545
Al0 O1 1.911495 1_555
Al0 O77 1.951246 1_555
Al0 O74 1.953678 1_545
Al0 O73 2.035769 1_545
Al1 O14 1.862855 1_555
Al1 O16 1.878907 1_545
Al1 O13 1.885414 1_445
Al1 O86 1.983493 1_555
Al1 O85 1.989007 1_455
Al1 O89 1.991423 1_445
Al2 O15 1.864371 1_555
Al2 O17 1.876934 1_545
Al2 O12 1.889599 1_545
Al2 O87 1.978578 1_555
Al2 O84 1.986328 1_555
Al2 O88 1.991579 1_545
Al3 O20 1.871464 1_555
Al3 O22 1.873745 1_545
Al3 O19 1.874086 1_445
Al3 O94 1.978347 1_555
Al3 O93 1.980751 1_455
Al3 O91 1.995961 1_445
Al4 O23 1.856101 1_555
Al4 O18 1.865119 1_555
Al4 O21 1.883466 1_565
Al4 O90 1.994598 1_555
Al4 O95 2.009012 1_565
Al4 O92 2.014157 1_565
Al5 O96 1.878515 1_555
Al5 O24 1.886213 1_555
Al5 O26 1.887452 1_555
Al5 O98 1.932326 1_555
Al5 O100 1.936939 1_555
Al5 O28 1.945766 1_555
Al6 O97 1.880124 1_555
Al6 O25 1.881577 1_555
Al6 O27 1.887025 1_555
Al6 O99 1.936180 1_555
Al6 O101 1.937407 1_555
Al6 O29 1.943588 1_555
Al7 O30 1.875958 1_555
Al7 O102 1.883895 1_555
Al7 O34 1.885264 1_555
Al7 O106 1.945886 1_555
Al7 O104 1.949388 1_555
Al7 O32 1.970803 1_555
Al8 O33 1.875578 1_555
Al8 O105 1.888807 1_555
Al8 O31 1.899814 1_555
Al8 O107 1.948633 1_555
Al8 O103 1.951952 1_555
Al8 O35 1.954042 1_555
Al9 O36 1.912028 1_556
Al9 O110 1.912767 1_555
Al9 O112 1.914635 1_555
Al9 O38 1.915500 1_556
Al9 O40 1.919390 1_556
Al9 O108 1.920073 1_555
Al10 O111 1.911704 1_555
Al10 O39 1.913133 1_556
Al10 O41 1.914990 1_556
Al10 O37 1.915445 1_556
Al10 O113 1.916262 1_555
Al10 O109 1.921138 1_555
Al11 O114 1.875366 1_555
Al11 O46 1.888047 1_555
Al11 O42 1.896178 1_555
Al11 O118 1.935942 1_555
Al11 O116 1.951800 1_555
Al11 O44 1.978818 1_555
Al12 O119 1.885765 1_555
Al12 O45 1.891438 1_555
Al12 O47 1.911686 1_555
Al12 O117 1.942935 1_555
Al12 O115 1.951833 1_555
Al12 O43 1.959459 1_555
Al13 O52 1.849581 1_554
Al13 O50 1.849789 1_554
Al13 O48 1.851078 1_554
Al13 O122 1.978354 1_555
Al13 O120 1.982431 1_555
Al13 O124 1.983236 1_555
Al14 O51 1.848307 1_554
Al14 O53 1.849743 1_554
Al14 O49 1.850523 1_554
Al14 O123 1.976680 1_555
Al14 O125 1.980611 1_555
Al14 O121 1.984781 1_555
Al15 O58 1.842326 1_555
Al15 O56 1.854166 1_555
Al15 O54 1.867391 1_555
Al15 O126 1.976779 1_555
Al15 O128 1.999756 1_555
Al15 O130 2.007653 1_555
Al16 O57 1.845976 1_555
Al16 O55 1.853846 1_555
Al16 O59 1.866622 1_555
Al16 O131 1.977001 1_555
Al16 O129 2.008252 1_555
Al16 O127 2.027269 1_555
Al17 O60 1.868090 1_555
Al17 O64 1.887038 1_555
Al17 O136 1.916041 1_555
Al17 O62 1.923153 1_555
Al17 O134 1.960709 1_555
Al17 O132 1.982806 1_555
Al18 O61 1.854930 1_555
Al18 O63 1.894438 1_555
Al18 O133 1.903890 1_555
Al18 O65 1.915359 1_555
Al18 O137 1.956565 1_555
Al18 O135 1.996204 1_555
Al19 O66 1.849874 1_555
Al19 O68 1.853083 1_555
Al19 O70 1.915022 1_555
Al19 O140 1.918639 1_555
Al19 O142 1.993989 1_555
Al19 O138 1.998315 1_555
Al20 O67 1.850835 1_555
Al20 O69 1.853815 1_555
Al20 O71 1.915871 1_555
Al20 O141 1.919658 1_555
Al20 O143 1.994922 1_555
Al20 O139 1.997630 1_555
O0 P0 1.569460 1_555
O1 P1 1.554963 1_545
O2 P2 1.543927 1_555
O3 P3 1.570995 1_555
O4 P5 1.539378 1_555
O5 P4 1.580157 1_655
O6 P6 1.558426 1_555
O7 P7 1.559121 1_555
O8 P9 1.570318 1_555
O9 P8 1.570852 1_655
O10 P10 1.563883 1_555
O11 P11 1.564105 1_555
O12 P10 1.556757 1_565
O13 P11 1.556501 1_565
O14 P6 1.539089 1_555
O15 P7 1.539210 1_555
O16 P8 1.547280 1_555
O17 P9 1.547455 1_555
O18 P2 1.566460 1_555
O19 P3 1.534014 1_555
O20 P4 1.542091 1_555
O21 P5 1.565877 1_555
O22 P0 1.533849 1_565
O23 P1 1.555645 1_555
O24 P12 1.534896 1_555
O25 P13 1.537065 1_555
O26 P14 1.535255 1_555
O27 P15 1.533762 1_555
O28 P16 1.543417 1_555
O29 P17 1.545038 1_555
O30 P18 1.535682 1_555
O31 P19 1.536155 1_555
O32 P20 1.545338 1_555
O33 P21 1.535667 1_555
O34 P22 1.535520 1_555
O35 P23 1.546303 1_555
O36 P22 1.531828 1_555
O37 P23 1.529723 1_555
O38 P18 1.531839 1_555
O39 P19 1.533260 1_555
O40 P20 1.529970 1_555
O41 P21 1.531046 1_555
O42 P14 1.532168 1_555
O43 P15 1.543104 1_555
O44 P16 1.538370 1_555
O45 P17 1.530507 1_555
O46 P12 1.531989 1_555
O47 P13 1.533812 1_555
O48 P24 1.535507 1_555
O49 P25 1.535701 1_555
O50 P26 1.536527 1_555
O51 P27 1.536796 1_555
O52 P28 1.537645 1_555
O53 P29 1.537455 1_555
O54 P30 1.567747 1_555
O55 P31 1.541146 1_555
O56 P32 1.541280 1_555
O57 P33 1.552237 1_555
O58 P34 1.541924 1_555
O59 P35 1.560999 1_555
O60 P34 1.518357 1_555
O61 P35 1.520351 1_555
O62 P30 1.539830 1_555
O63 P31 1.527251 1_555
O64 P32 1.525793 1_555
O65 P33 1.536575 1_555
O66 P26 1.520168 1_555
O67 P27 1.520021 1_555
O68 P28 1.520574 1_555
O69 P29 1.520659 1_555
O70 P24 1.534145 1_555
O71 P25 1.533951 1_555
O72 P34 1.584655 1_555
O73 P35 1.572316 1_555
O74 P30 1.562711 1_555
O75 P31 1.562750 1_555
O76 P32 1.562173 1_555
O77 P33 1.563462 1_555
O78 P26 1.596151 1_555
O79 P27 1.595899 1_555
O80 P28 1.595296 1_555
O81 P29 1.595355 1_555
O82 P24 1.593358 1_555
O83 P25 1.593446 1_555
O84 P12 1.562653 1_555
O85 P13 1.566436 1_555
O86 P14 1.563651 1_555
O87 P15 1.564681 1_555
O88 P16 1.563774 1_555
O89 P17 1.564311 1_555
O90 P18 1.566756 1_555
O91 P19 1.567140 1_555
O92 P20 1.567061 1_555
O93 P21 1.565924 1_555
O94 P22 1.566440 1_555
O95 P23 1.566279 1_555
O96 P10 1.518134 1_555
O97 P11 1.518392 1_555
O98 P6 1.541353 1_555
O99 P7 1.541140 1_555
O100 P9 1.543055 1_555
O101 P8 1.542641 1_655
O102 P2 1.531519 1_555
O103 P3 1.537436 1_555
O104 P5 1.540822 1_555
O105 P4 1.527531 1_655
O106 P0 1.537141 1_555
O107 P1 1.557066 1_545
O108 P24 1.524600 1_555
O109 P25 1.524505 1_555
O110 P27 1.524049 1_555
O111 P26 1.523943 1_655
O112 P28 1.524690 1_545
O113 P29 1.524667 1_545
O114 P30 1.531566 1_545
O115 P31 1.541687 1_545
O116 P32 1.542020 1_555
O117 P33 1.557154 1_555
O118 P35 1.542640 1_555
O119 P34 1.531213 1_655
O120 P22 1.564223 1_555
O121 P23 1.564400 1_555
O122 P19 1.565283 1_455
O123 P18 1.563956 1_555
O124 P20 1.565565 1_565
O125 P21 1.564204 1_565
O126 P14 1.564328 1_565
O127 P15 1.561101 1_565
O128 P16 1.563021 1_555
O129 P17 1.560786 1_555
O130 P13 1.562791 1_455
O131 P12 1.563470 1_555
O132 P0 1.539805 1_565
O133 P1 1.534295 1_555
O134 P2 1.559345 1_555
O135 P3 1.539679 1_555
O136 P4 1.530046 1_555
O137 P5 1.543837 1_555
O138 P6 1.542342 1_555
O139 P7 1.542333 1_555
O140 P8 1.521445 1_555
O141 P9 1.521500 1_555
O142 P10 1.543272 1_565
O143 P11 1.542899 1_565
