# generated using pymatgen
data_Re2PCl13
_symmetry_space_group_name_H-M   'P 1'
_cell_length_a   10.76276179
_cell_length_b   8.90366336
_cell_length_c   9.45803689
_cell_angle_alpha   80.62571347
_cell_angle_beta   90.00000000
_cell_angle_gamma   90.00000000
_symmetry_Int_Tables_number   1
_chemical_formula_structural   Re2PCl13
_chemical_formula_sum   'Re4 P2 Cl26'
_cell_volume   894.24092369
_cell_formula_units_Z   2
loop_
 _symmetry_equiv_pos_site_id
 _symmetry_equiv_pos_as_xyz
  1  'x, y, z'
loop_
 _atom_site_type_symbol
 _atom_site_label
 _atom_site_symmetry_multiplicity
 _atom_site_fract_x
 _atom_site_fract_y
 _atom_site_fract_z
 _atom_site_occupancy
  Re  Re0  1  0.25000000  0.83194600  0.09417071  1
  Re  Re1  1  0.75000000  0.16805400  0.90582929  1
  Re  Re2  1  0.25000000  0.68149995  0.86304934  1
  Re  Re3  1  0.75000000  0.31850005  0.13695066  1
  P  P0  1  0.25000000  0.26272517  0.51054014  1
  P  P1  1  0.75000000  0.73727483  0.48945986  1
  Cl  Cl0  1  0.60292431  0.80767601  0.57892905  1
  Cl  Cl1  1  0.10292431  0.19232399  0.42107095  1
  Cl  Cl2  1  0.75000000  0.44439009  0.88941656  1
  Cl  Cl3  1  0.25000000  0.55560991  0.11058344  1
  Cl  Cl4  1  0.91265514  0.14386524  0.08666215  1
  Cl  Cl5  1  0.41265514  0.85613476  0.91333785  1
  Cl  Cl6  1  0.08734486  0.85613476  0.91333785  1
  Cl  Cl7  1  0.58734486  0.14386524  0.08666215  1
  Cl  Cl8  1  0.75000000  0.19497603  0.37339219  1
  Cl  Cl9  1  0.25000000  0.80502397  0.62660781  1
  Cl  Cl10  1  0.90412354  0.48223141  0.18361273  1
  Cl  Cl11  1  0.40412354  0.51776859  0.81638727  1
  Cl  Cl12  1  0.09587646  0.51776859  0.81638727  1
  Cl  Cl13  1  0.59587646  0.48223141  0.18361273  1
  Cl  Cl14  1  0.75000000  0.90603475  0.92694576  1
  Cl  Cl15  1  0.25000000  0.09396525  0.07305424  1
  Cl  Cl16  1  0.90281201  0.19187155  0.73237948  1
  Cl  Cl17  1  0.40281201  0.80812845  0.26762052  1
  Cl  Cl18  1  0.09718799  0.80812845  0.26762052  1
  Cl  Cl19  1  0.59718799  0.19187155  0.73237948  1
  Cl  Cl20  1  0.75000000  0.81407173  0.28609813  1
  Cl  Cl21  1  0.25000000  0.18592827  0.71390187  1
  Cl  Cl22  1  0.75000000  0.51657637  0.51917796  1
  Cl  Cl23  1  0.25000000  0.48342363  0.48082204  1
  Cl  Cl24  1  0.89707569  0.80767601  0.57892905  1
  Cl  Cl25  1  0.39707569  0.19232399  0.42107095  1
loop_
_geom_bond_atom_site_label_1
_geom_bond_atom_site_label_2
_geom_bond_distance
_geom_bond_site_symmetry_2
Cl0 P1 1.946142 1_555
Cl1 P0 1.946142 1_555
Cl2 Re3 2.425419 1_556
Cl2 Re1 2.439931 1_555
Cl3 Re2 2.425419 1_554
Cl3 Re0 2.439931 1_555
Cl4 Re1 2.432336 1_554
Cl4 Re3 2.439158 1_555
Cl5 Re0 2.432336 1_556
Cl5 Re2 2.439158 1_555
Cl6 Re0 2.432336 1_556
Cl6 Re2 2.439158 1_555
Cl7 Re1 2.432336 1_554
Cl7 Re3 2.439158 1_555
Cl8 Re3 2.325789 1_555
Cl9 Re2 2.325789 1_555
Cl10 Re3 2.298080 1_555
Cl11 Re2 2.298080 1_555
Cl12 Re2 2.298080 1_555
Cl13 Re3 2.298080 1_555
Cl14 Re1 2.308825 1_565
Cl15 Re0 2.308825 1_545
Cl16 Re1 2.308210 1_555
Cl17 Re0 2.308210 1_555
Cl18 Re0 2.308210 1_555
Cl19 Re1 2.308210 1_555
Cl20 P1 1.933542 1_555
Cl21 P0 1.933542 1_555
Cl22 P1 1.939175 1_555
Cl23 P0 1.939175 1_555
Cl24 P1 1.946142 1_555
Cl25 P0 1.946142 1_555
