# generated using pymatgen
data_Na10NbAl7Si6(SO8)6
_symmetry_space_group_name_H-M   'P 1'
_cell_length_a   17.34539695
_cell_length_b   8.69278633
_cell_length_c   21.77633529
_cell_angle_alpha   89.78004185
_cell_angle_beta   89.26904428
_cell_angle_gamma   119.79293965
_symmetry_Int_Tables_number   1
_chemical_formula_structural   Na10NbAl7Si6(SO8)6
_chemical_formula_sum   'Na30 Nb3 Al21 Si18 S18 O144'
_cell_volume   2849.02216205
_cell_formula_units_Z   3
loop_
 _symmetry_equiv_pos_site_id
 _symmetry_equiv_pos_as_xyz
  1  'x, y, z'
loop_
 _atom_site_type_symbol
 _atom_site_label
 _atom_site_symmetry_multiplicity
 _atom_site_fract_x
 _atom_site_fract_y
 _atom_site_fract_z
 _atom_site_occupancy
  Na  Na0  1  0.31891558  0.99855823  0.24964311  1
  Na  Na1  1  0.81993640  0.99947953  0.25133205  1
  Na  Na2  1  0.18208172  0.36392583  0.25069715  1
  Na  Na3  1  0.68328288  0.37002322  0.24295020  1
  Na  Na4  1  0.99859195  0.63471467  0.24773204  1
  Na  Na5  1  0.49736790  0.62392545  0.25239591  1
  Na  Na6  1  0.31541003  0.63004253  0.75023601  1
  Na  Na7  1  0.80914322  0.62200975  0.75024034  1
  Na  Na8  1  0.99760160  0.35389838  0.74931934  1
  Na  Na9  1  0.68168976  0.00658871  0.75419094  1
  Na  Na10  1  0.16158535  0.34619075  0.58097312  1
  Na  Na11  1  0.01346319  0.69627128  0.58022309  1
  Na  Na12  1  0.33326037  0.96549541  0.58488239  1
  Na  Na13  1  0.82995100  0.96530052  0.57867305  1
  Na  Na14  1  0.83402594  0.68961449  0.07638012  1
  Na  Na15  1  0.16991418  0.30794269  0.91242474  1
  Na  Na16  1  0.67064458  0.30888347  0.91644812  1
  Na  Na17  1  0.35522075  0.66537364  0.41787661  1
  Na  Na18  1  0.99863968  0.99555096  0.49314221  1
  Na  Na19  1  0.50936274  0.99473766  0.49894885  1
  Na  Na20  1  0.99325515  0.98195633  0.99500031  1
  Na  Na21  1  0.49421766  0.97615900  0.99648384  1
  Na  Na22  1  0.33630668  0.33094866  0.83423423  1
  Na  Na23  1  0.83115983  0.33277754  0.83637399  1
  Na  Na24  1  0.33911996  0.33266062  0.33532033  1
  Na  Na25  1  0.83697071  0.33854070  0.33485042  1
  Na  Na26  1  0.16177534  0.66398410  0.16362630  1
  Na  Na27  1  0.65516404  0.64740701  0.16071228  1
  Na  Na28  1  0.16916373  0.67371593  0.66511859  1
  Na  Na29  1  0.65859563  0.63695495  0.66724980  1
  Nb  Nb0  1  0.99784016  0.00697496  0.64342261  1
  Nb  Nb1  1  0.00117841  0.99296625  0.14835363  1
  Nb  Nb2  1  0.49534505  0.00149811  0.13988543  1
  Al  Al0  1  0.99780908  0.00045783  0.34518348  1
  Al  Al1  1  0.49691116  0.98411735  0.35296492  1
  Al  Al2  1  0.99234898  0.00380192  0.85219671  1
  Al  Al3  1  0.49847119  0.99213293  0.85315986  1
  Al  Al4  1  0.50247003  0.00300544  0.64733528  1
  Al  Al5  1  0.32061553  0.32235325  0.68331108  1
  Al  Al6  1  0.82581489  0.33095052  0.68508807  1
  Al  Al7  1  0.34285820  0.34358391  0.19231270  1
  Al  Al8  1  0.84442819  0.36194854  0.18341113  1
  Al  Al9  1  0.34198275  0.36421333  0.97939552  1
  Al  Al10  1  0.83528232  0.36164557  0.98199642  1
  Al  Al11  1  0.34401898  0.35799150  0.48459465  1
  Al  Al12  1  0.83578542  0.33875581  0.48231671  1
  Al  Al13  1  0.17128838  0.67605886  0.01767209  1
  Al  Al14  1  0.66670687  0.65703592  0.02186476  1
  Al  Al15  1  0.16916946  0.66734682  0.52468524  1
  Al  Al16  1  0.66284309  0.65868553  0.51630303  1
  Al  Al17  1  0.16279999  0.66291871  0.30985567  1
  Al  Al18  1  0.65972623  0.64651587  0.31590988  1
  Al  Al19  1  0.17101613  0.66020191  0.81830634  1
  Al  Al20  1  0.67041970  0.65180988  0.81366968  1
  Si  Si0  1  0.14902333  0.00539074  0.25515455  1
  Si  Si1  1  0.35262266  0.70538210  0.25452893  1
  Si  Si2  1  0.85036591  0.70299190  0.25682652  1
  Si  Si3  1  0.99577385  0.29014751  0.25261345  1
  Si  Si4  1  0.50131842  0.28535059  0.25605828  1
  Si  Si5  1  0.14825032  0.29109465  0.75654993  1
  Si  Si6  1  0.63741855  0.28182555  0.75025055  1
  Si  Si7  1  0.84882501  0.00199270  0.75358370  1
  Si  Si8  1  0.97298172  0.34226916  0.58127925  1
  Si  Si9  1  0.19731179  0.05191361  0.57882779  1
  Si  Si10  1  0.34151537  0.63472649  0.58437873  1
  Si  Si11  1  0.82236081  0.60618038  0.58149380  1
  Si  Si12  1  0.48010885  0.60970770  0.08298802  1
  Si  Si13  1  0.98635228  0.61994674  0.08022986  1
  Si  Si14  1  0.69377075  0.33659457  0.08205582  1
  Si  Si15  1  0.31538246  0.67352910  0.91677283  1
  Si  Si16  1  0.81544023  0.67469647  0.91682851  1
  Si  Si17  1  0.52398267  0.66863798  0.41756546  1
  S  S0  1  0.64515481  0.99922290  0.25169613  1
  S  S1  1  0.00475526  0.71421015  0.75420551  1
  S  S2  1  0.49924557  0.70791577  0.74978471  1
  S  S3  1  0.35639927  0.00675649  0.75077514  1
  S  S4  1  0.47821959  0.33808740  0.58465269  1
  S  S5  1  0.68637167  0.04507128  0.58232072  1
  S  S6  1  0.32742135  0.05092074  0.08026110  1
  S  S7  1  0.83184856  0.05576945  0.08141246  1
  S  S8  1  0.19307271  0.33987332  0.08110362  1
  S  S9  1  0.02023384  0.37994892  0.91778452  1
  S  S10  1  0.52102897  0.37929508  0.91591674  1
  S  S11  1  0.16728444  0.95062196  0.91632580  1
  S  S12  1  0.66691838  0.94842743  0.91575666  1
  S  S13  1  0.30856824  0.95621372  0.41697328  1
  S  S14  1  0.81245774  0.96008877  0.41689060  1
  S  S15  1  0.16250734  0.37544846  0.41673109  1
  S  S16  1  0.66868772  0.37393574  0.41777635  1
  S  S17  1  0.02216505  0.66648991  0.41731846  1
  O  O0  1  0.10342665  0.05450321  0.31075338  1
  O  O1  1  0.60480147  0.03384120  0.30612860  1
  O  O2  1  0.41749881  0.78811329  0.31255088  1
  O  O3  1  0.92226940  0.79545364  0.30987701  1
  O  O4  1  0.48578871  0.15330808  0.31285275  1
  O  O5  1  0.97340191  0.15530418  0.30965373  1
  O  O6  1  0.09842794  0.16744240  0.81543658  1
  O  O7  1  0.59499889  0.15214834  0.81127959  1
  O  O8  1  0.47821077  0.78603086  0.80391954  1
  O  O9  1  0.98899041  0.80320475  0.80534063  1
  O  O10  1  0.41065868  0.02606220  0.80435351  1
  O  O11  1  0.92020949  0.04688170  0.80649266  1
  O  O12  1  0.39205239  0.96491996  0.69406871  1
  O  O13  1  0.89302513  0.95608981  0.69125915  1
  O  O14  1  0.08408483  0.19948615  0.69437056  1
  O  O15  1  0.57806579  0.18144784  0.69125106  1
  O  O16  1  0.01917712  0.81269445  0.69445227  1
  O  O17  1  0.51485378  0.82033534  0.69432236  1
  O  O18  1  0.39693993  0.84214265  0.19512188  1
  O  O19  1  0.89289734  0.83074853  0.19231635  1
  O  O20  1  0.02125232  0.20481052  0.19198284  1
  O  O21  1  0.52272255  0.20127756  0.19407183  1
  O  O22  1  0.08093150  0.95410900  0.19425366  1
  O  O23  1  0.58882103  0.96122420  0.19657438  1
  O  O24  1  0.43664130  0.36518139  0.64002401  1
  O  O25  1  0.93146587  0.37384645  0.64392915  1
  O  O26  1  0.25616753  0.12614463  0.64032396  1
  O  O27  1  0.74232174  0.12155507  0.63790467  1
  O  O28  1  0.31705416  0.50359237  0.64464510  1
  O  O29  1  0.81347115  0.50400738  0.64595067  1
  O  O30  1  0.43623773  0.49856548  0.14639150  1
  O  O31  1  0.94596515  0.52081859  0.14613688  1
  O  O32  1  0.31841713  0.12609209  0.13860653  1
  O  O33  1  0.82310135  0.13462715  0.13978139  1
  O  O34  1  0.24231965  0.35565913  0.13733822  1
  O  O35  1  0.75265090  0.36365937  0.14356709  1
  O  O36  1  0.23293792  0.30871331  0.02489539  1
  O  O37  1  0.73189164  0.29654340  0.01996138  1
  O  O38  1  0.41812608  0.53072253  0.02450458  1
  O  O39  1  0.91780027  0.53409177  0.02519944  1
  O  O40  1  0.33825561  0.16009858  0.02583029  1
  O  O41  1  0.84498905  0.16391978  0.02722326  1
  O  O42  1  0.24282798  0.18785199  0.52195947  1
  O  O43  1  0.72787100  0.15539937  0.52701123  1
  O  O44  1  0.35612212  0.55204035  0.52191618  1
  O  O45  1  0.84838039  0.52502426  0.52366662  1
  O  O46  1  0.42190608  0.30191614  0.52956699  1
  O  O47  1  0.90718699  0.28401675  0.52398090  1
  O  O48  1  0.26345742  0.69765906  0.97499917  1
  O  O49  1  0.76642929  0.69932003  0.97789918  1
  O  O50  1  0.07923856  0.46789397  0.96995125  1
  O  O51  1  0.57667452  0.45813697  0.97028790  1
  O  O52  1  0.15245248  0.84141354  0.97169845  1
  O  O53  1  0.65315411  0.83752290  0.97042360  1
  O  O54  1  0.26506263  0.83780667  0.47172086  1
  O  O55  1  0.77106921  0.85254123  0.47373143  1
  O  O56  1  0.15331199  0.46239561  0.47336427  1
  O  O57  1  0.65653581  0.46183456  0.47180090  1
  O  O58  1  0.07500680  0.68591497  0.47279820  1
  O  O59  1  0.58584574  0.69324082  0.47603136  1
  O  O60  1  0.06573501  0.64486972  0.36164685  1
  O  O61  1  0.56941671  0.64366972  0.35507769  1
  O  O62  1  0.25579041  0.87162358  0.36153940  1
  O  O63  1  0.75954959  0.87544329  0.36196850  1
  O  O64  1  0.17568280  0.48986321  0.36187700  1
  O  O65  1  0.68580574  0.48400795  0.36102890  1
  O  O66  1  0.05996824  0.48787879  0.85981660  1
  O  O67  1  0.56043655  0.49243176  0.86068008  1
  O  O68  1  0.17812689  0.86311387  0.86071232  1
  O  O69  1  0.67366439  0.86311793  0.85828995  1
  O  O70  1  0.25230358  0.63035659  0.85548298  1
  O  O71  1  0.75064767  0.63001589  0.85700274  1
  O  O72  1  0.01349234  0.82792653  0.41307960  1
  O  O73  1  0.51038586  0.84555261  0.41193506  1
  O  O74  1  0.39773433  0.96931686  0.41383901  1
  O  O75  1  0.90260601  0.97741815  0.41266386  1
  O  O76  1  0.08131785  0.19948737  0.41317941  1
  O  O77  1  0.58845590  0.19884608  0.41236908  1
  O  O78  1  0.01721365  0.20475072  0.91295830  1
  O  O79  1  0.51486623  0.20211765  0.90892040  1
  O  O80  1  0.08941670  0.97728805  0.91202727  1
  O  O81  1  0.58764318  0.97669395  0.91249799  1
  O  O82  1  0.41360614  0.84896356  0.90721537  1
  O  O83  1  0.91488406  0.84958739  0.90835830  1
  O  O84  1  0.48614691  0.17463141  0.59034273  1
  O  O85  1  0.98764305  0.16581058  0.58660295  1
  O  O86  1  0.09573193  0.02579623  0.58773345  1
  O  O87  1  0.59752342  0.02673107  0.58961907  1
  O  O88  1  0.42435730  0.83712430  0.59453041  1
  O  O89  1  0.91591146  0.80862854  0.58844509  1
  O  O90  1  0.48719457  0.80973691  0.09210177  1
  O  O91  1  0.99045560  0.82066831  0.08549308  1
  O  O92  1  0.41109667  0.03510847  0.08147801  1
  O  O93  1  0.91320390  0.03098085  0.08438722  1
  O  O94  1  0.10159187  0.17785442  0.08424334  1
  O  O95  1  0.59238262  0.16148109  0.08782824  1
  O  O96  1  0.35120867  0.17056923  0.74383975  1
  O  O97  1  0.84231407  0.17974492  0.74082830  1
  O  O98  1  0.24745757  0.31666436  0.74722610  1
  O  O99  1  0.73936979  0.30830720  0.74378616  1
  O  O100  1  0.42098044  0.52801818  0.74315522  1
  O  O101  1  0.92437936  0.53541707  0.75008569  1
  O  O102  1  0.34069060  0.51037857  0.24388444  1
  O  O103  1  0.83850416  0.50763931  0.24641141  1
  O  O104  1  0.41206416  0.29993511  0.24742608  1
  O  O105  1  0.90624265  0.30277784  0.24197798  1
  O  O106  1  0.24389113  0.17403029  0.23801540  1
  O  O107  1  0.73411925  0.15713674  0.24413966  1
  O  O108  1  0.31913909  0.48559079  0.92184047  1
  O  O109  1  0.82221369  0.49023934  0.92070398  1
  O  O110  1  0.42919112  0.35028853  0.92288400  1
  O  O111  1  0.93034024  0.35199562  0.92389046  1
  O  O112  1  0.24866002  0.12914361  0.92081376  1
  O  O113  1  0.74796098  0.12591311  0.91850807  1
  O  O114  1  0.31777413  0.13254071  0.42323473  1
  O  O115  1  0.81905685  0.13853854  0.42159158  1
  O  O116  1  0.24399994  0.36091217  0.41893587  1
  O  O117  1  0.74920591  0.35261322  0.42368493  1
  O  O118  1  0.42235412  0.48920776  0.42280605  1
  O  O119  1  0.93269365  0.50259603  0.42098790  1
  O  O120  1  0.18345795  0.49896196  0.07547250  1
  O  O121  1  0.68448848  0.51455090  0.07762881  1
  O  O122  1  0.08502220  0.64699366  0.07168688  1
  O  O123  1  0.58062162  0.64778525  0.07275659  1
  O  O124  1  0.25077423  0.87001552  0.07635364  1
  O  O125  1  0.75369970  0.87424932  0.07894209  1
  O  O126  1  0.17818270  0.84977799  0.57125321  1
  O  O127  1  0.67866587  0.86700844  0.57709532  1
  O  O128  1  0.25067457  0.65191935  0.57530660  1
  O  O129  1  0.74150576  0.65039847  0.57196492  1
  O  O130  1  0.07423162  0.50733885  0.57346240  1
  O  O131  1  0.56754539  0.49489317  0.57668519  1
  O  O132  1  0.15612160  0.82802689  0.26172568  1
  O  O133  1  0.65690663  0.84199450  0.25817874  1
  O  O134  1  0.25506127  0.68647793  0.26219445  1
  O  O135  1  0.75541959  0.69532193  0.26433463  1
  O  O136  1  0.08276639  0.48452804  0.26049112  1
  O  O137  1  0.58838462  0.48451600  0.25851786  1
  O  O138  1  0.15397227  0.48861092  0.75813227  1
  O  O139  1  0.64919640  0.48018250  0.75679205  1
  O  O140  1  0.08431540  0.69258926  0.76085865  1
  O  O141  1  0.58057966  0.69797821  0.75803981  1
  O  O142  1  0.26463056  0.84713423  0.75786098  1
  O  O143  1  0.75069339  0.82779544  0.75905022  1
loop_
_geom_bond_atom_site_label_1
_geom_bond_atom_site_label_2
_geom_bond_distance
_geom_bond_site_symmetry_2
Na0 O104 2.294981 1_565
Na0 O134 2.379432 1_555
Na0 O132 2.461413 1_555
Na0 O106 2.462156 1_565
Na0 O18 2.624876 1_555
Na0 O62 2.657923 1_555
Na0 O32 2.658040 1_565
Na0 O4 2.885979 1_565
Na1 O105 2.302098 1_565
Na1 O135 2.317114 1_555
Na1 O133 2.456336 1_555
Na1 O107 2.479919 1_565
Na1 O63 2.618697 1_555
Na1 O5 2.655177 1_565
Na1 O33 2.682280 1_565
Na1 O19 2.687392 1_555
Na2 O106 2.388550 1_555
Na2 O102 2.391474 1_555
Na2 O136 2.428817 1_555
Na2 O134 2.452185 1_555
Na2 O0 2.662186 1_555
Na2 O34 2.683420 1_555
Na2 O64 2.684531 1_555
Na2 O20 2.756860 1_555
Na3 O137 2.330511 1_555
Na3 O103 2.343260 1_555
Na3 O107 2.413425 1_555
Na3 O35 2.476928 1_555
Na3 O135 2.507506 1_555
Na3 O21 2.658717 1_555
Na3 O65 2.752222 1_555
Na3 O1 2.873011 1_555
Na4 O136 2.411454 1_655
Na4 O132 2.417665 1_655
Na4 O31 2.424526 1_555
Na4 O103 2.426057 1_555
Na4 O105 2.514412 1_555
Na4 O22 2.663982 1_655
Na4 O3 2.709854 1_555
Na4 O60 2.736965 1_655
Na5 O102 2.396408 1_555
Na5 O137 2.425707 1_555
Na5 O104 2.449152 1_555
Na5 O133 2.462701 1_555
Na5 O61 2.540115 1_555
Na5 O30 2.563979 1_555
Na5 O2 2.757747 1_555
Na5 O23 2.809351 1_555
Na6 O98 2.372141 1_555
Na6 O100 2.402323 1_555
Na6 O138 2.438689 1_555
Na6 O142 2.452561 1_555
Na6 O70 2.527836 1_555
Na6 O28 2.558341 1_555
Na6 O8 2.733262 1_555
Na6 O12 2.796939 1_555
Na7 O99 2.376633 1_555
Na7 O139 2.413891 1_555
Na7 O101 2.461072 1_555
Na7 O143 2.462634 1_555
Na7 O29 2.511085 1_555
Na7 O71 2.539818 1_555
Na7 O13 2.815159 1_555
Na7 O9 2.979817 1_555
Na8 O97 2.354533 1_555
Na8 O138 2.371389 1_655
Na8 O101 2.468660 1_555
Na8 O140 2.570667 1_655
Na8 O11 2.616570 1_555
Na8 O25 2.622002 1_555
Na8 O66 2.674419 1_655
Na8 O14 2.729690 1_655
Na9 O99 2.305060 1_555
Na9 O141 2.366167 1_545
Na9 O143 2.389534 1_545
Na9 O97 2.433355 1_555
Na9 O69 2.551729 1_545
Na9 O7 2.694942 1_555
Na9 O27 2.717620 1_555
Na9 O17 2.855145 1_545
Na10 O128 2.318986 1_555
Na10 O86 2.431974 1_555
Na10 O130 2.529550 1_555
Na10 O56 2.581980 1_555
Na10 O85 2.620011 1_455
Na10 O42 2.725181 1_555
Na10 O28 2.740437 1_555
Na10 O14 2.778271 1_555
Na11 O89 2.342010 1_455
Na11 O130 2.355459 1_555
Na11 O126 2.485366 1_555
Na11 O86 2.493174 1_565
Na11 O58 2.579434 1_555
Na11 O16 2.673503 1_555
Na11 O25 2.785932 1_455
Na11 O45 2.792889 1_455
Na12 O88 2.354784 1_555
Na12 O84 2.360189 1_565
Na12 O128 2.378543 1_555
Na12 O126 2.381019 1_555
Na12 O12 2.600029 1_555
Na12 O26 2.650162 1_565
Na12 O54 2.737594 1_555
Na12 O46 2.797279 1_565
Na13 O127 2.321981 1_555
Na13 O129 2.388248 1_555
Na13 O85 2.413727 1_565
Na13 O89 2.479319 1_555
Na13 O55 2.511603 1_555
Na13 O47 2.671075 1_565
Na13 O13 2.714446 1_555
Na13 O27 2.798926 1_565
Na14 O121 2.262682 1_555
Na14 O91 2.375530 1_555
Na14 O49 2.478312 1_554
Na14 O93 2.585035 1_565
Na14 O125 2.596397 1_555
Na14 O39 2.665294 1_555
Na14 O19 2.786836 1_555
Na14 O35 2.846498 1_555
Na15 O108 2.273834 1_555
Na15 O78 2.336291 1_555
Na15 O6 2.464064 1_555
Na15 O80 2.494722 1_545
Na15 O112 2.535457 1_555
Na15 O36 2.693474 1_556
Na15 O70 2.717125 1_555
Na15 O50 2.848254 1_555
Na16 O109 2.300948 1_555
Na16 O79 2.389493 1_555
Na16 O81 2.508473 1_545
Na16 O37 2.528584 1_556
Na16 O113 2.539867 1_555
Na16 O7 2.673389 1_555
Na16 O71 2.733313 1_555
Na16 O51 2.789097 1_555
Na17 O118 2.342338 1_555
Na17 O73 2.348209 1_555
Na17 O74 2.364891 1_555
Na17 O116 2.377273 1_555
Na17 O44 2.470394 1_555
Na17 O2 2.517656 1_555
Na18 O72 2.368618 1_655
Na18 O76 2.370159 1_665
Na18 O75 2.384653 1_555
Na18 O89 2.566612 1_555
Na18 O85 2.581240 1_565
Na18 O86 2.607869 1_665
Na19 O73 2.305080 1_555
Na19 O87 2.443950 1_565
Na19 O77 2.464609 1_565
Na19 O88 2.505153 1_555
Na19 O74 2.627241 1_555
Na19 O84 2.682865 1_565
Na20 O83 2.293351 1_555
Na20 O91 2.400008 1_556
Na20 O80 2.457513 1_655
Na20 O78 2.504010 1_665
Na20 O93 2.534556 1_566
Na20 O94 2.673283 1_666
Na21 O82 2.346496 1_555
Na21 O81 2.426472 1_555
Na21 O90 2.497711 1_556
Na21 O92 2.537784 1_566
Na21 O95 2.614638 1_566
Na21 O79 2.622414 1_565
Na22 O98 2.422103 1_555
Na22 O108 2.436843 1_555
Na22 O110 2.482610 1_555
Na22 O112 2.488882 1_555
Na22 O96 2.500295 1_555
Na22 O100 2.534725 1_555
Na23 O109 2.343736 1_555
Na23 O113 2.417826 1_555
Na23 O101 2.512935 1_555
Na23 O99 2.528625 1_555
Na23 O97 2.530388 1_555
Na23 O111 2.533762 1_555
Na24 O104 2.375983 1_555
Na24 O118 2.388182 1_555
Na24 O114 2.478854 1_555
Na24 O102 2.507021 1_555
Na24 O116 2.535223 1_555
Na24 O106 2.639713 1_555
Na25 O103 2.410090 1_555
Na25 O105 2.438150 1_555
Na25 O119 2.460896 1_555
Na25 O115 2.471869 1_555
Na25 O117 2.487247 1_555
Na25 O107 2.624794 1_555
Na26 O122 2.382753 1_555
Na26 O124 2.520730 1_555
Na26 O120 2.534406 1_555
Na26 O136 2.556864 1_555
Na26 O132 2.600695 1_555
Na26 O134 2.653509 1_555
Na27 O123 2.325449 1_555
Na27 O121 2.332852 1_555
Na27 O137 2.483337 1_555
Na27 O125 2.554705 1_555
Na27 O133 2.710231 1_555
Na27 O135 2.770728 1_555
Na28 O128 2.461381 1_555
Na28 O126 2.504960 1_555
Na28 O138 2.510224 1_555
Na28 O130 2.554670 1_555
Na28 O140 2.589180 1_555
Na28 O142 2.592562 1_555
Na29 O139 2.331650 1_555
Na29 O131 2.463479 1_555
Na29 O129 2.478356 1_555
Na29 O141 2.583512 1_555
Na29 O143 2.602640 1_555
Na29 O127 2.689851 1_555
Nb0 O85 1.924527 1_555
Nb0 O13 1.932650 1_545
Nb0 O14 1.959108 1_655
Nb0 O89 2.012461 1_545
Nb0 O86 2.012562 1_655
Nb0 O16 2.200274 1_645
Nb1 O22 1.877190 1_555
Nb1 O19 1.935047 1_455
Nb1 O20 1.949301 1_565
Nb1 O91 1.974100 1_455
Nb1 O94 2.169030 1_565
Nb1 O93 2.220326 1_465
Nb2 O90 1.914239 1_545
Nb2 O95 1.914485 1_555
Nb2 O21 1.960687 1_555
Nb2 O18 1.965799 1_545
Nb2 O92 2.075427 1_555
Nb2 O23 2.210699 1_545
Al0 O5 1.776607 1_555
Al0 O3 1.788724 1_545
Al0 O0 1.801659 1_655
Al0 O75 2.129213 1_545
Al0 O76 2.206345 1_655
Al0 O72 2.215412 1_645
Al1 O4 1.799913 1_565
Al1 O2 1.812486 1_555
Al1 O73 1.852045 1_555
Al1 O1 1.968072 1_565
Al1 O74 2.110373 1_555
Al1 O77 2.191925 1_565
Al2 O11 1.786359 1_555
Al2 O83 1.803813 1_545
Al2 O6 1.844596 1_655
Al2 O9 1.999851 1_545
Al2 O78 2.066822 1_655
Al2 O80 2.241585 1_645
Al3 O7 1.790767 1_565
Al3 O82 1.795937 1_555
Al3 O8 1.970229 1_555
Al3 O10 2.005459 1_565
Al3 O81 2.082308 1_555
Al3 O79 2.096950 1_565
Al4 O15 1.749912 1_555
Al4 O88 1.829832 1_545
Al4 O17 1.986614 1_545
Al4 O87 1.986900 1_555
Al4 O12 2.032486 1_545
Al4 O84 2.064161 1_555
Al5 O26 1.783048 1_555
Al5 O28 1.811837 1_555
Al5 O98 1.855247 1_555
Al5 O24 2.069231 1_555
Al5 O96 2.111895 1_555
Al5 O100 2.215423 1_555
Al6 O29 1.830341 1_555
Al6 O99 1.891234 1_555
Al6 O25 1.891329 1_555
Al6 O97 1.911365 1_555
Al6 O27 1.974601 1_555
Al6 O101 2.268647 1_555
Al7 O30 1.793974 1_555
Al7 O102 1.852155 1_555
Al7 O104 1.873824 1_555
Al7 O106 1.881631 1_555
Al7 O32 2.086878 1_555
Al7 O34 2.172440 1_555
Al8 O31 1.790475 1_555
Al8 O35 1.829182 1_555
Al8 O105 1.902270 1_555
Al8 O103 1.906749 1_555
Al8 O33 2.059441 1_555
Al8 O107 2.260919 1_555
Al9 O38 1.717164 1_556
Al9 O108 1.805291 1_555
Al9 O36 1.957981 1_556
Al9 O110 1.988169 1_555
Al9 O40 2.011334 1_556
Al9 O112 2.282302 1_555
Al10 O39 1.758952 1_556
Al10 O37 1.780426 1_556
Al10 O109 1.824967 1_555
Al10 O41 2.057028 1_556
Al10 O111 2.100413 1_555
Al10 O113 2.322826 1_555
Al11 O44 1.792471 1_555
Al11 O42 1.817925 1_555
Al11 O118 1.832798 1_555
Al11 O46 1.925191 1_555
Al11 O114 2.232153 1_555
Al11 O116 2.271904 1_555
Al12 O45 1.773418 1_555
Al12 O47 1.787298 1_555
Al12 O43 1.992055 1_555
Al12 O117 2.031618 1_555
Al12 O119 2.046121 1_555
Al12 O115 2.094665 1_555
Al13 O48 1.765532 1_554
Al13 O122 1.806512 1_555
Al13 O52 1.907640 1_554
Al13 O50 2.022196 1_554
Al13 O124 2.031746 1_555
Al13 O120 2.076924 1_555
Al14 O123 1.817148 1_555
Al14 O49 1.834918 1_554
Al14 O121 1.865873 1_555
Al14 O51 2.016464 1_554
Al14 O53 2.032585 1_554
Al14 O125 2.149788 1_555
Al15 O126 1.826935 1_555
Al15 O130 1.855407 1_555
Al15 O128 1.859797 1_555
Al15 O54 1.944538 1_555
Al15 O56 2.008706 1_555
Al15 O58 2.068343 1_555
Al16 O59 1.752004 1_555
Al16 O129 1.864213 1_555
Al16 O57 1.925789 1_555
Al16 O55 2.005778 1_555
Al16 O131 2.019883 1_555
Al16 O127 2.154304 1_555
Al17 O134 1.819463 1_555
Al17 O132 1.824453 1_555
Al17 O136 1.843657 1_555
Al17 O60 1.954202 1_555
Al17 O64 1.980831 1_555
Al17 O62 2.076974 1_555
Al18 O61 1.763270 1_555
Al18 O137 1.843269 1_555
Al18 O135 1.856192 1_555
Al18 O65 1.949683 1_555
Al18 O133 2.130279 1_555
Al18 O63 2.144696 1_555
Al19 O70 1.761172 1_555
Al19 O138 1.901589 1_555
Al19 O68 1.943818 1_555
Al19 O66 1.961904 1_555
Al19 O142 2.077679 1_555
Al19 O140 2.090906 1_555
Al20 O71 1.776786 1_555
Al20 O139 1.837250 1_555
Al20 O143 1.876373 1_555
Al20 O67 1.979797 1_555
Al20 O69 2.057598 1_555
Al20 O141 2.173209 1_555
O0 Si0 1.608955 1_555
O1 S0 1.475261 1_545
O2 Si1 1.618331 1_555
O3 Si2 1.607433 1_555
O4 Si4 1.610282 1_555
O5 Si3 1.609953 1_555
O6 Si5 1.607682 1_555
O7 Si6 1.648522 1_555
O8 S2 1.491741 1_555
O9 S1 1.456802 1_655
O10 S3 1.465530 1_555
O11 Si7 1.603929 1_555
O12 S3 1.499011 1_565
O13 Si7 1.694286 1_565
O14 Si5 1.694776 1_555
O15 Si6 1.619137 1_555
O16 S1 1.502982 1_555
O17 S2 1.485489 1_555
O18 Si1 1.653023 1_555
O19 Si2 1.702486 1_555
O20 Si3 1.675480 1_455
O21 Si4 1.660851 1_555
O22 Si0 1.695220 1_565
O23 S0 1.488948 1_555
O24 S4 1.475903 1_555
O25 Si8 1.621547 1_555
O26 Si9 1.624444 1_555
O27 S5 1.497975 1_555
O28 Si10 1.641787 1_555
O29 Si11 1.622227 1_555
O30 Si12 1.628240 1_555
O31 Si13 1.630366 1_555
O32 S6 1.472553 1_555
O33 S7 1.487831 1_555
O34 S8 1.469559 1_555
O35 Si14 1.640484 1_555
O36 S8 1.488887 1_555
O37 Si14 1.611338 1_555
O38 Si12 1.599167 1_555
O39 Si13 1.602589 1_555
O40 S6 1.466090 1_555
O41 S7 1.449128 1_555
O42 Si9 1.609349 1_555
O43 S5 1.473632 1_555
O44 Si10 1.615755 1_555
O45 Si11 1.611163 1_555
O46 S4 1.489801 1_555
O47 Si8 1.607053 1_555
O48 Si15 1.619735 1_555
O49 Si16 1.640517 1_555
O50 S9 1.476896 1_555
O51 S10 1.476892 1_555
O52 S11 1.470370 1_555
O53 S12 1.469286 1_555
O54 S13 1.498666 1_555
O55 S14 1.490973 1_555
O56 S15 1.496517 1_555
O57 S16 1.474084 1_555
O58 S17 1.484666 1_555
O59 Si17 1.620808 1_555
O60 S17 1.481792 1_555
O61 Si17 1.632390 1_555
O62 S13 1.483925 1_555
O63 S14 1.475724 1_555
O64 S15 1.492094 1_555
O65 S16 1.493323 1_555
O66 S9 1.508264 1_555
O67 S10 1.477568 1_555
O68 S11 1.491343 1_555
O69 S12 1.489727 1_555
O70 Si15 1.659024 1_555
O71 Si16 1.648825 1_555
O72 S17 1.486486 1_555
O73 Si17 1.671959 1_555
O74 S13 1.493940 1_555
O75 S14 1.496107 1_555
O76 S15 1.480526 1_555
O77 S16 1.472348 1_555
O78 S9 1.501761 1_555
O79 S10 1.498453 1_555
O80 S11 1.483551 1_555
O81 S12 1.514699 1_555
O82 Si15 1.636540 1_555
O83 Si16 1.644500 1_555
O84 S4 1.498805 1_555
O85 Si8 1.678702 1_555
O86 Si9 1.669439 1_555
O87 S5 1.474819 1_555
O88 Si10 1.645576 1_555
O89 Si11 1.709847 1_555
O90 Si12 1.693771 1_555
O91 Si13 1.714925 1_555
O92 S6 1.524895 1_555
O93 S7 1.531777 1_555
O94 S8 1.510560 1_555
O95 Si14 1.660830 1_555
O96 S3 1.478093 1_555
O97 Si7 1.627375 1_555
O98 Si5 1.631685 1_555
O99 Si6 1.669989 1_555
O100 S2 1.485383 1_555
O101 S1 1.489400 1_655
O102 Si1 1.620375 1_555
O103 Si2 1.623102 1_555
O104 Si4 1.628025 1_555
O105 Si3 1.629655 1_555
O106 Si0 1.605937 1_555
O107 S0 1.476293 1_545
O108 Si15 1.670332 1_555
O109 Si16 1.666849 1_555
O110 S10 1.489472 1_555
O111 S9 1.458049 1_655
O112 S11 1.496023 1_545
O113 S12 1.485814 1_545
O114 S13 1.467114 1_545
O115 S14 1.501650 1_545
O116 S15 1.481720 1_555
O117 S16 1.504362 1_555
O118 Si17 1.677642 1_555
O119 S17 1.497796 1_655
O120 S8 1.477746 1_555
O121 Si14 1.635537 1_555
O122 Si13 1.615762 1_455
O123 Si12 1.617042 1_555
O124 S6 1.474463 1_565
O125 S7 1.485654 1_565
O126 Si9 1.627586 1_565
O127 S5 1.490919 1_565
O128 Si10 1.669081 1_555
O129 Si11 1.643234 1_555
O130 Si8 1.630499 1_455
O131 S4 1.476928 1_555
O132 Si0 1.612493 1_565
O133 S0 1.485126 1_555
O134 Si1 1.623203 1_555
O135 Si2 1.620903 1_555
O136 Si3 1.623747 1_455
O137 Si4 1.638757 1_555
O138 Si5 1.670393 1_555
O139 Si6 1.639430 1_555
O140 S1 1.491091 1_555
O141 S2 1.468848 1_555
O142 S3 1.510003 1_565
O143 Si7 1.623740 1_565
