# generated using pymatgen
data_Rb2MnH2OF5
_symmetry_space_group_name_H-M   'P 1'
_cell_length_a   6.35236083
_cell_length_b   8.53665000
_cell_length_c   6.35236022
_cell_angle_alpha   89.99980848
_cell_angle_beta   99.26346311
_cell_angle_gamma   89.99980170
_symmetry_Int_Tables_number   1
_chemical_formula_structural   Rb2MnH2OF5
_chemical_formula_sum   'Rb4 Mn2 H4 O2 F10'
_cell_volume   339.98258694
_cell_formula_units_Z   2
loop_
 _symmetry_equiv_pos_site_id
 _symmetry_equiv_pos_as_xyz
  1  'x, y, z'
loop_
 _atom_site_type_symbol
 _atom_site_label
 _atom_site_symmetry_multiplicity
 _atom_site_fract_x
 _atom_site_fract_y
 _atom_site_fract_z
 _atom_site_occupancy
  Rb  Rb0  1  0.50178700  0.75000100  0.92042100  1
  Rb  Rb1  1  0.49821300  0.24999800  0.07957900  1
  Rb  Rb2  1  0.92042100  0.75000100  0.50178700  1
  Rb  Rb3  1  0.07957900  0.24999800  0.49821300  1
  Mn  Mn0  1  0.00000000  0.00000600  0.00000200  1
  Mn  Mn1  1  0.00000100  0.50000000  0.00000100  1
  H  H0  1  0.36902000  0.84223800  0.36902000  1
  H  H1  1  0.63097900  0.34223800  0.63097900  1
  H  H2  1  0.36902100  0.65776200  0.36902100  1
  H  H3  1  0.63098000  0.15776100  0.63098000  1
  O  O0  1  0.44143600  0.74999800  0.44143600  1
  O  O1  1  0.55856400  0.25000100  0.55856400  1
  F  F0  1  0.01081800  0.25000500  0.01081800  1
  F  F1  1  0.98918200  0.74999500  0.98918100  1
  F  F2  1  0.80509600  0.00000000  0.19490400  1
  F  F3  1  0.19491000  0.50000000  0.80509000  1
  F  F4  1  0.19490400  0.00000000  0.80509500  1
  F  F5  1  0.80509000  0.50000000  0.19491000  1
  F  F6  1  0.23266600  0.99597300  0.23266600  1
  F  F7  1  0.76732900  0.49597400  0.76732900  1
  F  F8  1  0.23267100  0.50402500  0.23267100  1
  F  F9  1  0.76733400  0.00402600  0.76733400  1
loop_
_geom_bond_atom_site_label_1
_geom_bond_atom_site_label_2
_geom_bond_distance
_geom_bond_site_symmetry_2
H0 O0 0.987482 1_555
H1 O1 0.987462 1_555
H2 O0 0.987455 1_555
H3 O1 0.987482 1_555
O0 Rb0 3.004889 1_555
O0 Rb2 3.004890 1_555
O1 Rb1 3.004889 1_555
O1 Rb3 3.004890 1_555
F0 Mn1 2.135975 1_555
F0 Mn0 2.136010 1_555
F0 Rb3 3.056352 1_555
F0 Rb1 3.056352 1_555
F1 Mn1 2.135976 1_656
F1 Mn0 2.136113 1_666
F1 Rb2 3.056345 1_555
F1 Rb0 3.056352 1_555
F2 Mn0 1.886601 1_655
F2 Rb1 2.903742 1_555
F2 Rb2 2.903749 1_545
F2 Rb3 3.197738 1_655
F2 Rb0 3.197743 1_544
F3 Mn1 1.886668 1_556
F3 Rb0 2.903756 1_555
F3 Rb3 2.903762 1_555
F3 Rb2 3.197736 1_455
F3 Rb1 3.197741 1_556
F4 Mn0 1.886625 1_556
F4 Rb3 2.903738 1_555
F4 Rb0 2.903749 1_545
F4 Rb2 3.197740 1_445
F4 Rb1 3.197740 1_556
F5 Mn1 1.886668 1_655
F5 Rb2 2.903756 1_555
F5 Rb1 2.903762 1_555
F5 Rb0 3.197736 1_554
F5 Rb3 3.197741 1_655
F6 Mn0 1.914868 1_565
F6 Rb3 3.003627 1_565
F6 Rb1 3.003627 1_565
F7 Mn1 1.914925 1_656
F7 Rb0 3.003629 1_555
F7 Rb2 3.003630 1_555
F8 Mn1 1.914909 1_555
F8 Rb1 3.003629 1_555
F8 Rb3 3.003630 1_555
F9 Mn0 1.914883 1_656
F9 Rb2 3.003627 1_545
F9 Rb0 3.003627 1_545
