# generated using pymatgen
data_Ba2PrMgRuO6
_symmetry_space_group_name_H-M   'P 1'
_cell_length_a   6.05318129
_cell_length_b   6.05318178
_cell_length_c   6.72929134
_cell_angle_alpha   63.27147990
_cell_angle_beta   63.27147646
_cell_angle_gamma   60.00000061
_symmetry_Int_Tables_number   1
_chemical_formula_structural   Ba2PrMgRuO6
_chemical_formula_sum   'Ba2 Pr1 Mg1 Ru1 O6'
_cell_volume   182.47909362
_cell_formula_units_Z   1
loop_
 _symmetry_equiv_pos_site_id
 _symmetry_equiv_pos_as_xyz
  1  'x, y, z'
loop_
 _atom_site_type_symbol
 _atom_site_label
 _atom_site_symmetry_multiplicity
 _atom_site_fract_x
 _atom_site_fract_y
 _atom_site_fract_z
 _atom_site_occupancy
  Ba  Ba0  1  0.76866616  0.76866616  0.69400153  1
  Ba  Ba1  1  0.31342892  0.31342892  0.05971325  1
  Pr  Pr0  1  0.96890202  0.96890202  0.09329393  1
  Mg  Mg0  1  0.13584957  0.13584957  0.59245130  1
  Ru  Ru0  1  0.49473815  0.49473815  0.51578556  1
  O  O0  1  0.25032828  0.75570662  0.74363681  1
  O  O1  1  0.24809529  0.71947836  0.31294800  1
  O  O2  1  0.75570662  0.25032828  0.74363682  1
  O  O3  1  0.25032828  0.25032828  0.74363681  1
  O  O4  1  0.71947836  0.24809529  0.31294800  1
  O  O5  1  0.71947836  0.71947836  0.31294800  1
loop_
_geom_bond_atom_site_label_1
_geom_bond_atom_site_label_2
_geom_bond_distance
_geom_bond_site_symmetry_2
Ba0 O1 2.866132 1_655
Ba0 O5 2.866133 1_555
Ba0 O4 2.866133 1_565
Ba0 O0 3.040078 1_655
Ba0 O0 3.040078 1_555
Ba0 O3 3.040079 1_565
Ba0 O3 3.040079 1_655
Ba0 O2 3.040079 1_565
Ba0 O2 3.040079 1_555
Ba1 O2 2.534416 1_554
Ba1 O3 2.534416 1_554
Ba1 O0 2.534416 1_554
Mg0 O3 1.934931 1_555
Mg0 O2 1.934931 1_455
Mg0 O0 1.934931 1_545
O0 Ru0 2.199162 1_555
O0 Pr0 2.651638 1_456
O1 Ru0 2.018537 1_555
O1 Pr0 2.237964 1_455
O2 Ru0 2.199162 1_555
O2 Pr0 2.651638 1_546
O3 Ru0 2.199162 1_555
O3 Pr0 2.651638 1_446
O4 Ru0 2.018537 1_555
O4 Pr0 2.237964 1_545
O5 Ru0 2.018537 1_555
O5 Pr0 2.237963 1_555
