# generated using pymatgen
data_Na3CaTa5Si3(PO6)6
_symmetry_space_group_name_H-M   'P 1'
_cell_length_a   8.86079758
_cell_length_b   8.86079728
_cell_length_c   22.98228535
_cell_angle_alpha   90.00000000
_cell_angle_beta   90.00000000
_cell_angle_gamma   120.00000111
_symmetry_Int_Tables_number   1
_chemical_formula_structural   Na3CaTa5Si3(PO6)6
_chemical_formula_sum   'Na6 Ca2 Ta10 Si6 P12 O72'
_cell_volume   1562.67784816
_cell_formula_units_Z   2
loop_
 _symmetry_equiv_pos_site_id
 _symmetry_equiv_pos_as_xyz
  1  'x, y, z'
loop_
 _atom_site_type_symbol
 _atom_site_label
 _atom_site_symmetry_multiplicity
 _atom_site_fract_x
 _atom_site_fract_y
 _atom_site_fract_z
 _atom_site_occupancy
  Na  Na0  1  -0.00000000  0.00000000  0.49923008  1
  Na  Na1  1  -0.00000000  0.00000000  0.99923008  1
  Na  Na2  1  0.66666700  0.33333300  0.82848708  1
  Na  Na3  1  0.66666700  0.33333300  0.32848708  1
  Na  Na4  1  0.33333300  0.66666700  0.16659296  1
  Na  Na5  1  0.33333300  0.66666700  0.66659296  1
  Ca  Ca0  1  0.66666700  0.33333300  0.68678835  1
  Ca  Ca1  1  0.66666700  0.33333300  0.18678835  1
  Ta  Ta0  1  -0.00000000  0.00000000  0.35701990  1
  Ta  Ta1  1  -0.00000000  0.00000000  0.85701990  1
  Ta  Ta2  1  -0.00000000  0.00000000  0.64612070  1
  Ta  Ta3  1  -0.00000000  0.00000000  0.14612070  1
  Ta  Ta4  1  0.66666700  0.33333300  0.97800519  1
  Ta  Ta5  1  0.66666700  0.33333300  0.47800519  1
  Ta  Ta6  1  0.33333300  0.66666700  0.01750898  1
  Ta  Ta7  1  0.33333300  0.66666700  0.51750898  1
  Ta  Ta8  1  0.33333300  0.66666700  0.31326504  1
  Ta  Ta9  1  0.33333300  0.66666700  0.81326504  1
  Si  Si0  1  0.61955738  0.66523765  0.91611745  1
  Si  Si1  1  0.04567927  0.38044262  0.91611745  1
  Si  Si2  1  0.33476235  0.95432073  0.91611745  1
  Si  Si3  1  0.61955738  0.95432073  0.41611745  1
  Si  Si4  1  0.33476235  0.38044262  0.41611745  1
  Si  Si5  1  0.04567927  0.66523765  0.41611745  1
  P  P0  1  0.28263631  0.99492350  0.25184044  1
  P  P1  1  0.71228719  0.71736369  0.25184044  1
  P  P2  1  0.00507650  0.28771281  0.25184044  1
  P  P3  1  0.28263631  0.28771281  0.75184044  1
  P  P4  1  0.00507650  0.71736369  0.75184044  1
  P  P5  1  0.71228719  0.99492350  0.75184044  1
  P  P6  1  0.96087844  0.33494589  0.58308739  1
  P  P7  1  0.37406845  0.03912156  0.58308739  1
  P  P8  1  0.66505411  0.62593155  0.58308739  1
  P  P9  1  0.96087844  0.62593155  0.08308739  1
  P  P10  1  0.66505411  0.03912156  0.08308739  1
  P  P11  1  0.37406845  0.33494589  0.08308739  1
  O  O0  1  0.18335055  0.00915403  0.30503287  1
  O  O1  1  0.82580348  0.81664945  0.30503287  1
  O  O2  1  0.99084597  0.17419652  0.30503287  1
  O  O3  1  0.18335055  0.17419652  0.80503287  1
  O  O4  1  0.99084597  0.81664945  0.80503287  1
  O  O5  1  0.82580348  0.00915403  0.80503287  1
  O  O6  1  0.80416795  0.97174241  0.69580382  1
  O  O7  1  0.16757446  0.19583205  0.69580382  1
  O  O8  1  0.02825759  0.83242554  0.69580382  1
  O  O9  1  0.80416795  0.83242554  0.19580382  1
  O  O10  1  0.02825759  0.19583205  0.19580382  1
  O  O11  1  0.16757446  0.97174241  0.19580382  1
  O  O12  1  0.89673644  0.37202730  0.63768854  1
  O  O13  1  0.47529187  0.10326356  0.63768854  1
  O  O14  1  0.62797270  0.52470813  0.63768854  1
  O  O15  1  0.89673644  0.52470813  0.13768854  1
  O  O16  1  0.62797270  0.10326356  0.13768854  1
  O  O17  1  0.47529187  0.37202730  0.13768854  1
  O  O18  1  0.46226724  0.30403805  0.02868671  1
  O  O19  1  0.84177181  0.53773276  0.02868671  1
  O  O20  1  0.69596195  0.15822819  0.02868671  1
  O  O21  1  0.46226724  0.15822819  0.52868671  1
  O  O22  1  0.69596195  0.53773276  0.52868671  1
  O  O23  1  0.84177181  0.30403805  0.52868671  1
  O  O24  1  0.53045917  0.69755313  0.97281922  1
  O  O25  1  0.16709295  0.46954083  0.97281922  1
  O  O26  1  0.30244687  0.83290705  0.97281922  1
  O  O27  1  0.53045917  0.83290705  0.47281922  1
  O  O28  1  0.30244687  0.46954083  0.47281922  1
  O  O29  1  0.16709295  0.69755313  0.47281922  1
  O  O30  1  0.13667136  0.63393151  0.35890373  1
  O  O31  1  0.49725914  0.86332864  0.35890373  1
  O  O32  1  0.36606849  0.50274086  0.35890373  1
  O  O33  1  0.13667136  0.50274086  0.85890373  1
  O  O34  1  0.36606849  0.86332864  0.85890373  1
  O  O35  1  0.49725914  0.63393151  0.85890373  1
  O  O36  1  0.02330729  0.83520958  0.40743417  1
  O  O37  1  0.81190230  0.97669271  0.40743417  1
  O  O38  1  0.16479042  0.18809770  0.40743417  1
  O  O39  1  0.02330729  0.18809770  0.90743417  1
  O  O40  1  0.16479042  0.97669271  0.90743417  1
  O  O41  1  0.81190230  0.83520958  0.90743417  1
  O  O42  1  0.97956327  0.16628250  0.58976196  1
  O  O43  1  0.18671923  0.02043673  0.58976196  1
  O  O44  1  0.83371750  0.81328077  0.58976196  1
  O  O45  1  0.97956327  0.81328077  0.08976196  1
  O  O46  1  0.83371750  0.02043673  0.08976196  1
  O  O47  1  0.18671923  0.16628250  0.08976196  1
  O  O48  1  0.69449455  0.15404326  0.75041546  1
  O  O49  1  0.45954971  0.30550545  0.75041546  1
  O  O50  1  0.84595674  0.54045029  0.75041546  1
  O  O51  1  0.69449455  0.54045029  0.25041546  1
  O  O52  1  0.84595674  0.30550545  0.25041546  1
  O  O53  1  0.45954971  0.15404326  0.25041546  1
  O  O54  1  0.64094590  0.49478699  0.92716433  1
  O  O55  1  0.85384208  0.35905410  0.92716433  1
  O  O56  1  0.50521301  0.14615792  0.92716433  1
  O  O57  1  0.64094590  0.14615792  0.42716433  1
  O  O58  1  0.50521301  0.35905410  0.42716433  1
  O  O59  1  0.85384208  0.49478699  0.42716433  1
  O  O60  1  0.34375764  0.49112828  0.07105949  1
  O  O61  1  0.14736964  0.65624236  0.07105949  1
  O  O62  1  0.50887172  0.85263036  0.07105949  1
  O  O63  1  0.34375764  0.85263036  0.57105949  1
  O  O64  1  0.50887172  0.65624236  0.57105949  1
  O  O65  1  0.14736964  0.49112828  0.57105949  1
  O  O66  1  0.29167742  0.82365969  0.25651165  1
  O  O67  1  0.53198127  0.70832258  0.25651165  1
  O  O68  1  0.17634031  0.46801873  0.25651165  1
  O  O69  1  0.29167742  0.46801873  0.75651165  1
  O  O70  1  0.17634031  0.70832258  0.75651165  1
  O  O71  1  0.53198127  0.82365969  0.75651165  1
loop_
_geom_bond_atom_site_label_1
_geom_bond_atom_site_label_2
_geom_bond_distance
_geom_bond_site_symmetry_2
Na0 O44 2.607588 1_445
Na0 O42 2.607588 1_455
Na0 O43 2.607588 1_555
Na0 O38 2.631932 1_555
Na0 O37 2.631932 1_445
Na0 O36 2.631932 1_545
Na1 O45 2.607588 1_446
Na1 O47 2.607588 1_556
Na1 O46 2.607588 1_456
Na1 O39 2.631932 1_555
Na1 O41 2.631932 1_445
Na1 O40 2.631932 1_545
Na2 O50 2.489119 1_555
Na2 O48 2.489119 1_555
Na2 O49 2.489119 1_555
Na2 O56 2.750943 1_555
Na2 O55 2.750943 1_555
Na2 O54 2.750943 1_555
Na3 O51 2.489119 1_555
Na3 O53 2.489119 1_555
Na3 O52 2.489119 1_555
Na3 O57 2.750943 1_555
Na3 O59 2.750943 1_555
Na3 O58 2.750943 1_555
Na4 O68 2.618275 1_555
Na4 O66 2.618275 1_555
Na4 O67 2.618275 1_555
Na4 O62 2.718837 1_555
Na4 O60 2.718837 1_555
Na4 O61 2.718837 1_555
Na5 O69 2.618275 1_555
Na5 O71 2.618275 1_555
Na5 O70 2.618275 1_555
Na5 O63 2.718837 1_555
Na5 O65 2.718837 1_555
Na5 O64 2.718837 1_555
Ca0 O14 2.201778 1_555
Ca0 O13 2.201778 1_555
Ca0 O12 2.201778 1_555
Ca0 O50 2.261557 1_555
Ca0 O48 2.261557 1_555
Ca0 O49 2.261557 1_555
Ca1 O17 2.201778 1_555
Ca1 O15 2.201778 1_555
Ca1 O16 2.201778 1_555
Ca1 O51 2.261557 1_555
Ca1 O53 2.261557 1_555
Ca1 O52 2.261557 1_555
O0 P0 1.547662 1_545
O0 Ta0 1.985380 1_555
O1 P1 1.547662 1_555
O1 Ta0 1.985380 1_665
O2 P2 1.547662 1_655
O2 Ta0 1.985380 1_655
O3 P3 1.547662 1_555
O3 Ta1 1.985380 1_555
O4 P4 1.547662 1_655
O4 Ta1 1.985380 1_665
O5 P5 1.547662 1_545
O5 Ta1 1.985380 1_655
O6 P5 1.590846 1_555
O6 Ta2 1.985702 1_665
O7 P3 1.590846 1_555
O7 Ta2 1.985702 1_555
O8 P4 1.590846 1_555
O8 Ta2 1.985702 1_565
O9 P1 1.590846 1_555
O9 Ta3 1.985702 1_665
O10 P2 1.590846 1_555
O10 Ta3 1.985702 1_555
O11 P0 1.590846 1_555
O11 Ta3 1.985702 1_565
O12 P6 1.480674 1_555
O13 P7 1.480674 1_555
O14 P8 1.480674 1_555
O15 P9 1.480674 1_555
O16 P10 1.480674 1_555
O17 P11 1.480674 1_555
O18 P11 1.569371 1_555
O18 Ta4 2.057717 1_554
O19 P9 1.569371 1_555
O19 Ta4 2.057717 1_554
O20 P10 1.569371 1_555
O20 Ta4 2.057717 1_554
O21 P7 1.569371 1_555
O21 Ta5 2.057717 1_555
O22 P8 1.569371 1_555
O22 Ta5 2.057717 1_555
O23 P6 1.569371 1_555
O23 Ta5 2.057717 1_555
O24 Si0 1.621572 1_555
O24 Ta6 1.924238 1_556
O25 Si1 1.621572 1_555
O25 Ta6 1.924238 1_556
O26 Si2 1.621572 1_555
O26 Ta6 1.924238 1_556
O27 Si3 1.621572 1_555
O27 Ta7 1.924238 1_555
O28 Si4 1.621572 1_555
O28 Ta7 1.924238 1_555
O29 Si5 1.621572 1_555
O29 Ta7 1.924238 1_555
O30 Si5 1.636958 1_555
O30 Ta8 1.927541 1_555
O31 Si3 1.636958 1_555
O31 Ta8 1.927541 1_555
O32 Si4 1.636958 1_555
O32 Ta8 1.927541 1_555
O33 Si1 1.636958 1_555
O33 Ta9 1.927541 1_555
O34 Si2 1.636958 1_555
O34 Ta9 1.927541 1_555
O35 Si0 1.636958 1_555
O35 Ta9 1.927541 1_555
O36 Si5 1.626646 1_555
O36 Ta0 1.954163 1_565
O37 Si3 1.626654 1_555
O37 Ta0 1.954163 1_665
O38 Si4 1.626651 1_555
O38 Ta0 1.954163 1_555
O39 Si1 1.626654 1_555
O39 Ta1 1.954163 1_555
O40 Si2 1.626646 1_555
O40 Ta1 1.954163 1_565
O41 Si0 1.626651 1_555
O41 Ta1 1.954163 1_665
O42 P6 1.591188 1_555
O42 Ta2 2.036707 1_655
O43 P7 1.591197 1_555
O43 Ta2 2.036707 1_555
O44 P8 1.591193 1_555
O44 Ta2 2.036707 1_665
O45 P9 1.591197 1_555
O45 Ta3 2.036707 1_665
O46 P10 1.591188 1_555
O46 Ta3 2.036707 1_655
O47 P11 1.591193 1_555
O47 Ta3 2.036707 1_555
O48 P5 1.495363 1_545
O49 P3 1.495372 1_555
O50 P4 1.495368 1_655
O51 P1 1.495372 1_555
O52 P2 1.495363 1_655
O53 P0 1.495368 1_545
O54 Si0 1.633311 1_555
O54 Ta4 1.946764 1_555
O55 Si1 1.633293 1_655
O55 Ta4 1.946764 1_555
O56 Si2 1.633300 1_545
O56 Ta4 1.946764 1_555
O57 Si3 1.633293 1_545
O57 Ta5 1.946764 1_555
O58 Si4 1.633311 1_555
O58 Ta5 1.946764 1_555
O59 Si5 1.633300 1_655
O59 Ta5 1.946764 1_555
O60 P11 1.560581 1_555
O60 Ta6 2.021428 1_555
O61 P9 1.560564 1_455
O61 Ta6 2.021428 1_555
O62 P10 1.560570 1_565
O62 Ta6 2.021428 1_555
O63 P7 1.560564 1_565
O63 Ta7 2.021428 1_555
O64 P8 1.560581 1_555
O64 Ta7 2.021428 1_555
O65 P6 1.560570 1_455
O65 Ta7 2.021428 1_555
O66 P0 1.562826 1_555
O66 Ta8 2.070277 1_555
O67 P1 1.562835 1_555
O67 Ta8 2.070277 1_555
O68 P2 1.562830 1_555
O68 Ta8 2.070277 1_555
O69 P3 1.562834 1_555
O69 Ta9 2.070277 1_555
O70 P4 1.562826 1_555
O70 Ta9 2.070277 1_555
O71 P5 1.562830 1_555
O71 Ta9 2.070277 1_555
