# generated using pymatgen
data_Na4TaAl3(PO4)6
_symmetry_space_group_name_H-M   'P 1'
_cell_length_a   8.56356837
_cell_length_b   8.55733038
_cell_length_c   21.80444419
_cell_angle_alpha   89.99079463
_cell_angle_beta   90.09096504
_cell_angle_gamma   119.98046576
_symmetry_Int_Tables_number   1
_chemical_formula_structural   Na4TaAl3(PO4)6
_chemical_formula_sum   'Na12 Ta3 Al9 P18 O72'
_cell_volume   1384.05551842
_cell_formula_units_Z   3
loop_
 _symmetry_equiv_pos_site_id
 _symmetry_equiv_pos_as_xyz
  1  'x, y, z'
loop_
 _atom_site_type_symbol
 _atom_site_label
 _atom_site_symmetry_multiplicity
 _atom_site_fract_x
 _atom_site_fract_y
 _atom_site_fract_z
 _atom_site_occupancy
  Na  Na0  1  0.63439221  0.99971756  0.25094393  1
  Na  Na1  1  0.36433089  0.36494235  0.25089971  1
  Na  Na2  1  0.00023409  0.63521957  0.25058716  1
  Na  Na3  1  0.30080854  0.33112609  0.58600889  1
  Na  Na4  1  0.03242790  0.69784312  0.58575428  1
  Na  Na5  1  0.66724800  0.69901808  0.08237178  1
  Na  Na6  1  0.98913043  0.99874672  0.49721695  1
  Na  Na7  1  0.01055908  0.00947059  0.99714717  1
  Na  Na8  1  0.66695335  0.33306499  0.82654839  1
  Na  Na9  1  0.66642123  0.33275040  0.33312159  1
  Na  Na10  1  0.32303428  0.66565118  0.16289989  1
  Na  Na11  1  0.34589452  0.67769968  0.66514908  1
  Ta  Ta0  1  0.66598220  0.33155846  0.97754713  1
  Ta  Ta1  1  0.66766192  0.33281931  0.47688806  1
  Ta  Ta2  1  0.33254473  0.66651630  0.80785756  1
  Al  Al0  1  0.00075046  0.00086062  0.35458008  1
  Al  Al1  1  0.99952959  0.00026598  0.85206630  1
  Al  Al2  1  0.99415485  0.99912904  0.64938851  1
  Al  Al3  1  0.00510514  0.00422317  0.14679503  1
  Al  Al4  1  0.66583101  0.33171797  0.68928036  1
  Al  Al5  1  0.66758947  0.33294448  0.18381347  1
  Al  Al6  1  0.32747238  0.66586901  0.01952100  1
  Al  Al7  1  0.33957858  0.67192104  0.51749759  1
  Al  Al8  1  0.33337617  0.66712850  0.31558310  1
  P  P0  1  0.28571461  0.00022643  0.25019863  1
  P  P1  1  0.71351170  0.71322394  0.24974845  1
  P  P2  1  0.99982429  0.28571854  0.25023896  1
  P  P3  1  0.28666800  0.27429231  0.74860133  1
  P  P4  1  0.98733843  0.71345528  0.74848789  1
  P  P5  1  0.72601560  0.01233226  0.74938573  1
  P  P6  1  0.95585883  0.32970497  0.58661806  1
  P  P7  1  0.37876522  0.03938777  0.58653002  1
  P  P8  1  0.66522268  0.62754770  0.58627720  1
  P  P9  1  0.96461132  0.62700948  0.08661901  1
  P  P10  1  0.66641650  0.04032861  0.08675757  1
  P  P11  1  0.36941383  0.33006741  0.08613233  1
  P  P12  1  0.62629414  0.67927542  0.91873025  1
  P  P13  1  0.05379301  0.37428560  0.91817023  1
  P  P14  1  0.31999716  0.94605519  0.91802042  1
  P  P15  1  0.62180824  0.94359998  0.41462285  1
  P  P16  1  0.32235769  0.37854870  0.41558014  1
  P  P17  1  0.05630564  0.67806489  0.41547560  1
  O  O0  1  0.20482738  0.04079083  0.30650225  1
  O  O1  1  0.83735970  0.79800550  0.30518004  1
  O  O2  1  0.95994099  0.16442698  0.30649048  1
  O  O3  1  0.19853830  0.16574777  0.80595016  1
  O  O4  1  0.96662019  0.80124509  0.80595742  1
  O  O5  1  0.83233669  0.03386261  0.80764233  1
  O  O6  1  0.80068264  0.97049736  0.69197367  1
  O  O7  1  0.17432733  0.20122494  0.68933058  1
  O  O8  1  0.02759105  0.82631063  0.68937656  1
  O  O9  1  0.79171774  0.82982907  0.19156836  1
  O  O10  1  0.03959325  0.20425544  0.19379785  1
  O  O11  1  0.16401550  0.95980970  0.19378068  1
  O  O12  1  0.86817650  0.37138215  0.63986037  1
  O  O13  1  0.49903046  0.13177090  0.64101415  1
  O  O14  1  0.62673563  0.49928116  0.63996033  1
  O  O15  1  0.87485939  0.50945871  0.14388526  1
  O  O16  1  0.63586614  0.12769486  0.14367840  1
  O  O17  1  0.49513445  0.36938134  0.14258115  1
  O  O18  1  0.46333345  0.30203313  0.02908465  1
  O  O19  1  0.83596258  0.53703417  0.03018331  1
  O  O20  1  0.69717678  0.16159107  0.02955088  1
  O  O21  1  0.46353195  0.16297750  0.52805173  1
  O  O22  1  0.70223930  0.53959441  0.52783538  1
  O  O23  1  0.83895083  0.30059270  0.52729662  1
  O  O24  1  0.53881107  0.69881020  0.97723230  1
  O  O25  1  0.16585507  0.46500264  0.97480272  1
  O  O26  1  0.30036317  0.83527533  0.97479362  1
  O  O27  1  0.53296492  0.83385341  0.47203093  1
  O  O28  1  0.30217850  0.46459489  0.47462008  1
  O  O29  1  0.16179750  0.69715398  0.47466700  1
  O  O30  1  0.13367875  0.64020552  0.35750529  1
  O  O31  1  0.50851384  0.86941087  0.35590224  1
  O  O32  1  0.36045443  0.49393491  0.35754574  1
  O  O33  1  0.13243574  0.49403394  0.86029145  1
  O  O34  1  0.36049163  0.86707772  0.86019097  1
  O  O35  1  0.50391790  0.63946191  0.86174983  1
  O  O36  1  0.02990636  0.84073049  0.40883896  1
  O  O37  1  0.81075208  0.97017288  0.40829729  1
  O  O38  1  0.15948624  0.18980072  0.40900123  1
  O  O39  1  0.02851257  0.18769540  0.90952114  1
  O  O40  1  0.15912230  0.97200165  0.90936583  1
  O  O41  1  0.81261118  0.84077383  0.91008572  1
  O  O42  1  0.97921409  0.16391381  0.59123491  1
  O  O43  1  0.18910828  0.02150871  0.59028650  1
  O  O44  1  0.83748124  0.81190325  0.59107576  1
  O  O45  1  0.97361517  0.81104430  0.09215474  1
  O  O46  1  0.83486474  0.02016960  0.09201319  1
  O  O47  1  0.18637471  0.16084372  0.09207809  1
  O  O48  1  0.69708086  0.17378964  0.74225767  1
  O  O49  1  0.47712487  0.30375189  0.74218655  1
  O  O50  1  0.82608390  0.52322788  0.74167403  1
  O  O51  1  0.68975058  0.52051822  0.24265593  1
  O  O52  1  0.83121593  0.30974696  0.24262403  1
  O  O53  1  0.47804899  0.16888564  0.24227642  1
  O  O54  1  0.64213405  0.50372103  0.92395134  1
  O  O55  1  0.86252791  0.35858793  0.92423655  1
  O  O56  1  0.49566661  0.13759387  0.92365196  1
  O  O57  1  0.64022992  0.13720207  0.42181783  1
  O  O58  1  0.49715564  0.35987873  0.42221463  1
  O  O59  1  0.86276022  0.50317716  0.42171103  1
  O  O60  1  0.35937946  0.50345874  0.07716305  1
  O  O61  1  0.14730606  0.64227097  0.07696301  1
  O  O62  1  0.49945563  0.85224061  0.07771301  1
  O  O63  1  0.35401570  0.85053567  0.57619680  1
  O  O64  1  0.49453127  0.64065455  0.57533184  1
  O  O65  1  0.14481677  0.49993680  0.57666061  1
  O  O66  1  0.30996809  0.83179540  0.25730203  1
  O  O67  1  0.52123695  0.68912153  0.25701786  1
  O  O68  1  0.16786161  0.47861893  0.25744001  1
  O  O69  1  0.30719439  0.46964303  0.75494783  1
  O  O70  1  0.16219969  0.69311830  0.75480782  1
  O  O71  1  0.53026826  0.83762309  0.75571735  1
loop_
_geom_bond_atom_site_label_1
_geom_bond_atom_site_label_2
_geom_bond_distance
_geom_bond_site_symmetry_2
Na0 O52 2.333271 1_565
Na0 O67 2.333906 1_555
Na0 O66 2.411211 1_555
Na0 O53 2.420745 1_565
Na0 O31 2.539412 1_555
Na0 O16 2.579776 1_565
Na0 O2 2.699708 1_565
Na0 O9 2.751072 1_555
Na1 O53 2.330664 1_555
Na1 O68 2.331062 1_555
Na1 O67 2.406904 1_555
Na1 O51 2.421645 1_555
Na1 O32 2.581574 1_555
Na1 O17 2.607726 1_555
Na1 O0 2.692118 1_555
Na1 O10 2.709681 1_555
Na2 O66 2.329410 1_555
Na2 O51 2.335202 1_455
Na2 O68 2.408438 1_555
Na2 O52 2.419255 1_455
Na2 O15 2.561632 1_455
Na2 O30 2.585631 1_555
Na2 O1 2.692675 1_455
Na2 O11 2.706938 1_555
Na3 O43 2.326123 1_555
Na3 O64 2.330586 1_555
Na3 O42 2.389044 1_455
Na3 O65 2.416699 1_555
Na3 O7 2.507571 1_555
Na3 O28 2.681296 1_555
Na3 O14 2.687177 1_555
Na3 O21 2.760318 1_555
Na4 O44 2.319981 1_455
Na4 O65 2.337401 1_555
Na4 O63 2.395907 1_555
Na4 O43 2.401452 1_565
Na4 O8 2.522275 1_555
Na4 O29 2.666363 1_555
Na4 O12 2.692905 1_455
Na4 O22 2.754338 1_455
Na5 O45 2.309207 1_555
Na5 O60 2.313866 1_555
Na5 O62 2.382561 1_555
Na5 O46 2.390389 1_565
Na5 O24 2.540742 1_554
Na5 O9 2.618884 1_555
Na5 O19 2.703889 1_555
Na5 O17 2.775374 1_555
Na6 O37 2.402038 1_555
Na6 O38 2.474921 1_665
Na6 O36 2.477638 1_655
Na6 O42 2.515722 1_565
Na6 O44 2.522592 1_555
Na6 O43 2.597033 1_665
Na7 O39 2.401217 1_555
Na7 O40 2.408417 1_545
Na7 O41 2.471057 1_445
Na7 O47 2.504230 1_556
Na7 O46 2.588131 1_456
Na7 O45 2.595927 1_446
Na8 O48 2.378219 1_555
Na8 O49 2.381654 1_555
Na8 O50 2.391809 1_555
Na8 O56 2.643681 1_555
Na8 O54 2.645951 1_555
Na8 O55 2.648209 1_555
Na9 O51 2.488387 1_555
Na9 O52 2.492114 1_555
Na9 O57 2.493184 1_555
Na9 O53 2.494445 1_555
Na9 O59 2.495014 1_555
Na9 O58 2.504829 1_555
Na10 O61 2.346497 1_555
Na10 O62 2.424705 1_555
Na10 O60 2.439768 1_555
Na10 O66 2.536043 1_555
Na10 O68 2.541424 1_555
Na10 O67 2.604055 1_555
Na11 O63 2.418864 1_555
Na11 O64 2.442835 1_555
Na11 O71 2.469221 1_555
Na11 O65 2.524752 1_555
Na11 O69 2.554358 1_555
Na11 O70 2.555611 1_555
Al0 O37 1.914970 1_445
Al0 O2 1.915201 1_455
Al0 O38 1.915458 1_555
Al0 O0 1.918022 1_555
Al0 O36 1.918381 1_545
Al0 O1 1.923467 1_445
Al1 O5 1.864878 1_555
Al1 O4 1.873682 1_545
Al1 O3 1.874530 1_655
Al1 O39 1.950725 1_655
Al1 O40 1.952467 1_645
Al1 O41 1.961604 1_545
Al2 O6 1.807310 1_555
Al2 O8 1.857756 1_655
Al2 O7 1.859943 1_665
Al2 O42 1.947272 1_565
Al2 O44 1.957189 1_555
Al2 O43 2.042504 1_665
Al3 O47 1.885599 1_555
Al3 O11 1.886337 1_545
Al3 O10 1.887326 1_555
Al3 O46 1.940111 1_455
Al3 O45 1.943958 1_445
Al3 O9 1.949146 1_445
Al4 O48 1.895345 1_555
Al4 O49 1.902319 1_555
Al4 O50 1.903176 1_555
Al4 O13 1.904921 1_555
Al4 O12 1.922754 1_555
Al4 O14 1.950065 1_555
Al5 O16 1.856722 1_555
Al5 O15 1.874849 1_555
Al5 O17 1.882136 1_555
Al5 O52 1.979752 1_555
Al5 O51 1.988484 1_555
Al5 O53 1.989758 1_555
Al6 O25 1.854587 1_554
Al6 O26 1.855187 1_554
Al6 O61 1.919538 1_555
Al6 O24 1.923661 1_554
Al6 O60 1.990916 1_555
Al6 O62 1.992445 1_555
Al7 O27 1.832182 1_555
Al7 O28 1.885732 1_555
Al7 O29 1.886949 1_555
Al7 O64 1.942167 1_555
Al7 O63 1.949592 1_555
Al7 O65 2.040811 1_555
Al8 O31 1.849411 1_555
Al8 O30 1.850485 1_555
Al8 O32 1.851986 1_555
Al8 O66 1.980299 1_555
Al8 O68 1.982002 1_555
Al8 O67 1.989488 1_555
O0 P0 1.533172 1_555
O1 P1 1.529459 1_555
O2 P2 1.531329 1_555
O3 P3 1.515923 1_555
O4 P4 1.516676 1_555
O5 P5 1.518297 1_555
O6 P5 1.528257 1_565
O7 P3 1.543314 1_555
O8 P4 1.543057 1_455
O9 P1 1.545288 1_555
O10 P2 1.534718 1_455
O11 P0 1.534564 1_565
O12 P6 1.519631 1_555
O13 P7 1.509871 1_555
O14 P8 1.524074 1_555
O15 P9 1.546518 1_555
O16 P10 1.537721 1_555
O17 P11 1.556014 1_555
O18 P11 1.564546 1_555
O18 Ta0 1.976396 1_554
O19 P9 1.571322 1_555
O19 Ta0 1.991276 1_554
O20 P10 1.558694 1_555
O20 Ta0 1.964540 1_554
O21 P7 1.583206 1_555
O21 Ta1 1.969572 1_555
O22 P8 1.590853 1_555
O22 Ta1 1.982072 1_555
O23 P6 1.576122 1_555
O23 Ta1 1.958273 1_555
O24 P12 1.531218 1_555
O25 P13 1.516709 1_555
O26 P14 1.516687 1_555
O27 P15 1.521926 1_555
O28 P16 1.535396 1_555
O29 P17 1.535387 1_555
O30 P17 1.535915 1_555
O31 P15 1.537670 1_555
O32 P16 1.536754 1_555
O33 P13 1.552054 1_555
O33 Ta2 1.974865 1_555
O34 P14 1.550118 1_555
O34 Ta2 1.973380 1_555
O35 P12 1.548265 1_555
O35 Ta2 1.980450 1_555
O36 P17 1.524467 1_555
O37 P15 1.523729 1_555
O38 P16 1.524047 1_555
O39 P13 1.512094 1_555
O40 P14 1.512525 1_555
O41 P12 1.512723 1_555
O42 P6 1.531798 1_555
O43 P7 1.555643 1_555
O44 P8 1.532827 1_555
O45 P9 1.542508 1_555
O46 P10 1.540103 1_555
O47 P11 1.517510 1_555
O48 P5 1.528545 1_555
O49 P3 1.527428 1_555
O50 P4 1.526992 1_555
O51 P1 1.565026 1_555
O52 P2 1.565442 1_555
O53 P0 1.565493 1_555
O54 P12 1.578528 1_555
O54 Ta0 1.969074 1_555
O55 P13 1.580850 1_655
O55 Ta0 1.963332 1_555
O56 P14 1.581104 1_545
O56 Ta0 1.959334 1_555
O57 P15 1.591544 1_545
O57 Ta1 1.976344 1_555
O58 P16 1.589169 1_555
O58 Ta1 1.984712 1_555
O59 P17 1.589640 1_655
O59 Ta1 1.983853 1_555
O60 P11 1.540933 1_555
O61 P9 1.518532 1_455
O62 P10 1.540469 1_565
O63 P7 1.537861 1_565
O64 P8 1.539129 1_555
O65 P6 1.559749 1_455
O66 P0 1.563182 1_565
O67 P1 1.562123 1_555
O68 P2 1.563847 1_455
O69 P3 1.597150 1_555
O69 Ta2 1.962304 1_555
O70 P4 1.597302 1_455
O70 Ta2 1.960674 1_555
O71 P5 1.600061 1_565
O71 Ta2 1.957355 1_555
