# generated using pymatgen
data_U11Se20
_symmetry_space_group_name_H-M   'P 1'
_cell_length_a   10.84558003
_cell_length_b   10.83622972
_cell_length_c   6.76773236
_cell_angle_alpha   89.98219770
_cell_angle_beta   89.87499507
_cell_angle_gamma   89.90936793
_symmetry_Int_Tables_number   1
_chemical_formula_structural   U11Se20
_chemical_formula_sum   'U11 Se20'
_cell_volume   795.37615095
_cell_formula_units_Z   1
loop_
 _symmetry_equiv_pos_site_id
 _symmetry_equiv_pos_as_xyz
  1  'x, y, z'
loop_
 _atom_site_type_symbol
 _atom_site_label
 _atom_site_symmetry_multiplicity
 _atom_site_fract_x
 _atom_site_fract_y
 _atom_site_fract_z
 _atom_site_occupancy
  U  U0  1  0.83723202  0.64578210  0.24906458  1
  U  U1  1  0.84316315  0.34916021  0.75094354  1
  U  U2  1  0.15287935  0.65333223  0.75009952  1
  U  U3  1  0.16473321  0.35397228  0.24710097  1
  U  U4  1  0.65072592  0.84201029  0.75408476  1
  U  U5  1  0.64567646  0.16114087  0.25135589  1
  U  U6  1  0.35751477  0.83605571  0.24730417  1
  U  U7  1  0.34745427  0.15590109  0.74786676  1
  U  U8  1  0.49907260  0.50036803  0.64182185  1
  U  U9  1  0.00144084  0.99906574  0.85981732  1
  U  U10  1  0.00072178  0.00028896  0.36059732  1
  Se  Se0  1  0.29128411  0.59234692  0.39070381  1
  Se  Se1  1  0.28941801  0.41188363  0.87529856  1
  Se  Se2  1  0.71120037  0.58795798  0.87510552  1
  Se  Se3  1  0.70784466  0.40928785  0.39387831  1
  Se  Se4  1  0.58936255  0.28954052  0.87499920  1
  Se  Se5  1  0.58864187  0.70773465  0.39275410  1
  Se  Se6  1  0.41015972  0.29213523  0.38911710  1
  Se  Se7  1  0.41173663  0.70863656  0.88060206  1
  Se  Se8  1  0.20875331  0.91330448  0.61451996  1
  Se  Se9  1  0.20800047  0.08994683  0.11763087  1
  Se  Se10  1  0.79181526  0.91077507  0.11798064  1
  Se  Se11  1  0.79279572  0.08871059  0.61762203  1
  Se  Se12  1  0.90842047  0.20778785  0.11362658  1
  Se  Se13  1  0.91242154  0.79297345  0.61614711  1
  Se  Se14  1  0.08648212  0.20904049  0.61592075  1
  Se  Se15  1  0.09162492  0.79282583  0.11545938  1
  Se  Se16  1  -0.00024743  0.49909393  0.50047488  1
  Se  Se17  1  0.99947839  0.49937743  0.00086230  1
  Se  Se18  1  0.49951202  0.00027501  0.00136110  1
  Se  Se19  1  0.50068391  -0.00071183  0.49988304  1
loop_
_geom_bond_atom_site_label_1
_geom_bond_atom_site_label_2
_geom_bond_distance
_geom_bond_site_symmetry_2
Se0 U6 2.904042 1_555
Se0 U2 2.930520 1_555
Se0 U8 2.994816 1_555
Se0 U3 3.085326 1_555
Se1 U3 2.922479 1_556
Se1 U8 2.928595 1_555
Se1 U7 2.971195 1_555
Se1 U2 3.122208 1_555
Se2 U4 2.945347 1_555
Se2 U0 2.947035 1_556
Se2 U8 2.951299 1_555
Se2 U1 3.071624 1_555
Se3 U1 2.903351 1_555
Se3 U5 2.936965 1_555
Se3 U8 2.982292 1_555
Se3 U0 3.082368 1_555
Se4 U8 2.943803 1_555
Se4 U1 2.948621 1_555
Se4 U5 2.966218 1_556
Se4 U7 3.121462 1_555
Se5 U4 2.926252 1_555
Se5 U0 2.940845 1_555
Se5 U8 2.971825 1_555
Se5 U6 3.030674 1_555
Se6 U3 2.909130 1_555
Se6 U7 2.920686 1_555
Se6 U8 2.993809 1_555
Se6 U5 3.063930 1_555
Se7 U6 2.899053 1_556
Se7 U8 2.931013 1_555
Se7 U2 3.006242 1_555
Se7 U4 3.088962 1_555
Se8 U9 2.941611 1_555
Se8 U10 2.990211 1_565
Se8 U2 3.024347 1_555
Se8 U6 3.075649 1_555
Se8 U7 3.163541 1_565
Se9 U10 2.948100 1_555
Se9 U7 3.007730 1_554
Se9 U9 3.009665 1_544
Se9 U3 3.028041 1_555
Se9 U6 3.310510 1_545
Se10 U10 2.965563 1_665
Se10 U4 2.997178 1_554
Se10 U9 3.020819 1_654
Se10 U0 3.044856 1_555
Se10 U5 3.266348 1_565
Se11 U9 2.959592 1_645
Se11 U10 3.001050 1_655
Se11 U1 3.014376 1_555
Se11 U5 3.052611 1_555
Se11 U4 3.221632 1_545
Se12 U10 2.974799 1_655
Se12 U1 2.978985 1_554
Se12 U9 3.011898 1_644
Se12 U5 3.039293 1_555
Se12 U3 3.328471 1_655
Se13 U9 2.941965 1_655
Se13 U10 2.992036 1_665
Se13 U4 3.032064 1_555
Se13 U0 3.065333 1_555
Se13 U2 3.147969 1_655
Se14 U9 2.958049 1_545
Se14 U10 2.997345 1_555
Se14 U7 3.024181 1_555
Se14 U3 3.067522 1_555
Se14 U1 3.175235 1_455
Se15 U10 2.960840 1_565
Se15 U2 2.971910 1_554
Se15 U9 2.990428 1_554
Se15 U6 3.057333 1_555
Se15 U0 3.312239 1_455
Se16 U1 2.896856 1_455
Se16 U2 2.903164 1_555
Se16 U0 2.920803 1_455
Se16 U3 2.931625 1_555
Se17 U1 2.899581 1_554
Se17 U0 2.900833 1_555
Se17 U2 2.902757 1_654
Se17 U3 2.911108 1_655
Se18 U6 2.881760 1_545
Se18 U4 2.900400 1_544
Se18 U5 2.904557 1_555
Se18 U7 2.916955 1_554
Se19 U5 2.893661 1_555
Se19 U7 2.905038 1_555
Se19 U6 2.912719 1_545
Se19 U4 2.917877 1_545
