# generated using pymatgen
data_Na3YZrSi(PO6)2
_symmetry_space_group_name_H-M   'P 1'
_cell_length_a   16.05383919
_cell_length_b   9.27126506
_cell_length_c   9.26479715
_cell_angle_alpha   90.00000000
_cell_angle_beta   125.00404674
_cell_angle_gamma   90.00000000
_symmetry_Int_Tables_number   1
_chemical_formula_structural   Na3YZrSi(PO6)2
_chemical_formula_sum   'Na12 Y4 Zr4 Si4 P8 O48'
_cell_volume   1129.52763473
_cell_formula_units_Z   4
loop_
 _symmetry_equiv_pos_site_id
 _symmetry_equiv_pos_as_xyz
  1  'x, y, z'
loop_
 _atom_site_type_symbol
 _atom_site_label
 _atom_site_symmetry_multiplicity
 _atom_site_fract_x
 _atom_site_fract_y
 _atom_site_fract_z
 _atom_site_occupancy
  Na  Na0  1  0.25676870  0.71036241  0.00531023  1
  Na  Na1  1  0.75676870  0.78963759  0.50531023  1
  Na  Na2  1  0.75676870  0.21036241  0.00531023  1
  Na  Na3  1  0.25676870  0.28963759  0.50531023  1
  Na  Na4  1  0.50857116  0.11096078  0.76573792  1
  Na  Na5  1  0.50857116  0.88903922  0.26573792  1
  Na  Na6  1  0.00857116  0.61096078  0.76573792  1
  Na  Na7  1  0.00857116  0.38903922  0.26573792  1
  Na  Na8  1  0.18445707  0.93161609  0.29346115  1
  Na  Na9  1  0.18445707  0.06838391  0.79346115  1
  Na  Na10  1  0.68445707  0.43161609  0.29346115  1
  Na  Na11  1  0.68445707  0.56838391  0.79346115  1
  Y  Y0  1  0.10463296  0.74540803  0.56250026  1
  Y  Y1  1  0.10463296  0.25459197  0.06250026  1
  Y  Y2  1  0.60463296  0.24540803  0.56250026  1
  Y  Y3  1  0.60463296  0.75459197  0.06250026  1
  Zr  Zr0  1  0.89669779  0.75752869  0.94323569  1
  Zr  Zr1  1  0.89669779  0.24247131  0.44323569  1
  Zr  Zr2  1  0.39669779  0.25752869  0.94323569  1
  Zr  Zr3  1  0.39669779  0.74247131  0.44323569  1
  Si  Si0  1  0.64621582  0.88793695  0.73552515  1
  Si  Si1  1  0.64621582  0.11206305  0.23552515  1
  Si  Si2  1  0.14621582  0.38793695  0.73552515  1
  Si  Si3  1  0.14621582  0.61206305  0.23552515  1
  P  P0  1  0.99715014  0.95488275  0.76219260  1
  P  P1  1  0.99715014  0.04511725  0.26219260  1
  P  P2  1  0.49715014  0.45488275  0.76219260  1
  P  P3  1  0.49715014  0.54511725  0.26219260  1
  P  P4  1  0.35266176  0.90876358  0.75223886  1
  P  P5  1  0.35266176  0.09123642  0.25223886  1
  P  P6  1  0.85266176  0.40876358  0.75223886  1
  P  P7  1  0.85266176  0.59123642  0.25223886  1
  O  O0  1  0.15317982  0.56345162  0.75055490  1
  O  O1  1  0.85098959  0.57769992  0.74675435  1
  O  O2  1  0.85098959  0.42230008  0.24675435  1
  O  O3  1  0.15317982  0.43654838  0.25055490  1
  O  O4  1  0.65317982  0.06345162  0.75055490  1
  O  O5  1  0.35098959  0.07769992  0.74675435  1
  O  O6  1  0.35098959  0.92230008  0.24675435  1
  O  O7  1  0.65317982  0.93654838  0.25055490  1
  O  O8  1  0.44319019  0.56370525  0.60344825  1
  O  O9  1  0.55763872  0.53633890  0.93571088  1
  O  O10  1  0.55763872  0.46366110  0.43571088  1
  O  O11  1  0.44319019  0.43629475  0.10344825  1
  O  O12  1  0.94319019  0.06370525  0.60344825  1
  O  O13  1  0.05763872  0.03633890  0.93571088  1
  O  O14  1  0.05763872  0.96366110  0.43571088  1
  O  O15  1  0.94319019  0.93629475  0.10344825  1
  O  O16  1  0.25888966  0.85757206  0.74439011  1
  O  O17  1  0.74346951  0.81019579  0.74914954  1
  O  O18  1  0.74346951  0.18980421  0.24914954  1
  O  O19  1  0.25888966  0.14242794  0.24439011  1
  O  O20  1  0.75888966  0.35757206  0.74439011  1
  O  O21  1  0.24346951  0.31019579  0.74914954  1
  O  O22  1  0.24346951  0.68980421  0.24914954  1
  O  O23  1  0.75888966  0.64242794  0.24439011  1
  O  O24  1  0.35081208  0.85974777  0.58651344  1
  O  O25  1  0.64260764  0.82311680  0.89305023  1
  O  O26  1  0.64260764  0.17688320  0.39305023  1
  O  O27  1  0.35081208  0.14025223  0.08651344  1
  O  O28  1  0.85081208  0.35974777  0.58651344  1
  O  O29  1  0.14260764  0.32311680  0.89305023  1
  O  O30  1  0.14260764  0.67688320  0.39305023  1
  O  O31  1  0.85081208  0.64025223  0.08651344  1
  O  O32  1  0.44950336  0.85454856  0.92144639  1
  O  O33  1  0.53878749  0.83321791  0.54914915  1
  O  O34  1  0.53878749  0.16678209  0.04914915  1
  O  O35  1  0.44950336  0.14545144  0.42144639  1
  O  O36  1  0.94950336  0.35454856  0.92144639  1
  O  O37  1  0.03878749  0.33321791  0.54914915  1
  O  O38  1  0.03878749  0.66678209  0.04914915  1
  O  O39  1  0.94950336  0.64545144  0.42144639  1
  O  O40  1  0.07022665  0.85668028  0.74890626  1
  O  O41  1  0.91354989  0.86026162  0.75072463  1
  O  O42  1  0.91354989  0.13973838  0.25072463  1
  O  O43  1  0.07022665  0.14331972  0.24890626  1
  O  O44  1  0.57022665  0.35668028  0.74890626  1
  O  O45  1  0.41354989  0.36026162  0.75072463  1
  O  O46  1  0.41354989  0.63973838  0.25072463  1
  O  O47  1  0.57022665  0.64331972  0.24890626  1
loop_
_geom_bond_atom_site_label_1
_geom_bond_atom_site_label_2
_geom_bond_distance
_geom_bond_site_symmetry_2
Na0 O46 2.316873 1_555
Na0 O0 2.385038 1_554
Na0 O22 2.395601 1_555
Na0 O6 2.696460 1_555
Na0 O16 2.793208 1_554
Na0 O40 2.879234 1_554
Na1 O41 2.316873 1_555
Na1 O7 2.385038 1_555
Na1 O17 2.395601 1_555
Na1 O1 2.696460 1_555
Na1 O23 2.793208 1_555
Na1 O47 2.879234 1_555
Na2 O42 2.316873 1_555
Na2 O4 2.385038 1_554
Na2 O18 2.395601 1_555
Na2 O2 2.696460 1_555
Na2 O20 2.793208 1_554
Na2 O44 2.879234 1_554
Na3 O45 2.316873 1_555
Na3 O3 2.385038 1_555
Na3 O21 2.395601 1_555
Na3 O5 2.696460 1_555
Na3 O19 2.793208 1_555
Na3 O43 2.879234 1_555
Na4 O34 2.436474 1_556
Na4 O4 2.444981 1_555
Na4 O5 2.452631 1_555
Na4 O44 2.524084 1_555
Na4 O45 2.728589 1_555
Na4 O35 2.775970 1_555
Na5 O33 2.436474 1_555
Na5 O7 2.444981 1_555
Na5 O6 2.452631 1_555
Na5 O47 2.524084 1_555
Na5 O46 2.728589 1_555
Na5 O32 2.775970 1_554
Na6 O38 2.436474 1_556
Na6 O0 2.444981 1_555
Na6 O1 2.452631 1_455
Na6 O40 2.524084 1_555
Na6 O41 2.728589 1_455
Na6 O39 2.775970 1_455
Na7 O37 2.436474 1_555
Na7 O3 2.444981 1_555
Na7 O2 2.452631 1_455
Na7 O43 2.524084 1_555
Na7 O42 2.728589 1_455
Na7 O36 2.775970 1_454
Na8 O19 2.465329 1_565
Na8 O43 2.552902 1_565
Na8 O22 2.557029 1_555
Na8 O24 2.574698 1_555
Na8 O30 2.755266 1_555
Na8 O13 2.886460 1_564
Na8 O6 2.944404 1_555
Na8 O14 3.008066 1_555
Na9 O16 2.465329 1_545
Na9 O40 2.552902 1_545
Na9 O21 2.557029 1_555
Na9 O27 2.574698 1_556
Na9 O29 2.755266 1_555
Na9 O14 2.886460 1_545
Na9 O5 2.944404 1_555
Na9 O13 3.008066 1_555
Na10 O23 2.465329 1_555
Na10 O47 2.552902 1_555
Na10 O18 2.557029 1_555
Na10 O28 2.574698 1_555
Na10 O26 2.755266 1_555
Na10 O9 2.886460 1_554
Na10 O2 2.944404 1_555
Na10 O10 3.008066 1_555
Na11 O20 2.465329 1_555
Na11 O44 2.552902 1_555
Na11 O17 2.557029 1_555
Na11 O31 2.574698 1_556
Na11 O25 2.755266 1_555
Na11 O10 2.886460 1_555
Na11 O1 2.944404 1_555
Na11 O9 3.008066 1_555
O0 Si2 1.631548 1_555
O0 Y0 2.220581 1_555
O1 P6 1.566808 1_555
O1 Zr0 2.258178 1_555
O2 P7 1.566808 1_555
O2 Zr1 2.258178 1_555
O3 Si3 1.631548 1_555
O3 Y1 2.220581 1_555
O4 Si0 1.631548 1_545
O4 Y2 2.220581 1_555
O5 P4 1.566808 1_545
O5 Zr2 2.258178 1_555
O6 P5 1.566808 1_565
O6 Zr3 2.258178 1_555
O7 Si1 1.631548 1_565
O7 Y3 2.220581 1_555
O8 P2 1.571536 1_555
O8 Zr3 2.058212 1_555
O9 P2 1.518788 1_555
O9 Y3 2.242050 1_556
O10 P3 1.518788 1_555
O10 Y2 2.242050 1_555
O11 P3 1.571536 1_555
O11 Zr2 2.058212 1_554
O12 P0 1.571536 1_545
O12 Zr1 2.058212 1_555
O13 P0 1.518788 1_445
O13 Y1 2.242050 1_556
O14 P1 1.518788 1_465
O14 Y0 2.242050 1_555
O15 P1 1.571536 1_565
O15 Zr0 2.058212 1_554
O16 P4 1.539866 1_555
O16 Y0 2.294790 1_555
O17 Si0 1.657398 1_555
O17 Zr0 2.109081 1_555
O18 Si1 1.657398 1_555
O18 Zr1 2.109081 1_555
O19 P5 1.539866 1_555
O19 Y1 2.294790 1_555
O20 P6 1.539866 1_555
O20 Y2 2.294790 1_555
O21 Si2 1.657398 1_555
O21 Zr2 2.109081 1_555
O22 Si3 1.657398 1_555
O22 Zr3 2.109081 1_555
O23 P7 1.539866 1_555
O23 Y3 2.294790 1_555
O24 P4 1.585112 1_555
O24 Zr3 2.146815 1_555
O25 Si0 1.609802 1_555
O25 Y3 2.082778 1_556
O26 Si1 1.609802 1_555
O26 Y2 2.082778 1_555
O27 P5 1.585112 1_555
O27 Zr2 2.146815 1_554
O28 P6 1.585112 1_555
O28 Zr1 2.146815 1_555
O29 Si2 1.609802 1_555
O29 Y1 2.082778 1_556
O30 Si3 1.609802 1_555
O30 Y0 2.082778 1_555
O31 P7 1.585112 1_555
O31 Zr0 2.146815 1_554
O32 P4 1.526801 1_555
O32 Y3 2.243877 1_556
O33 Si0 1.672364 1_555
O33 Zr3 2.075112 1_555
O34 Si1 1.672364 1_555
O34 Zr2 2.075112 1_554
O35 P5 1.526801 1_555
O35 Y2 2.243877 1_555
O36 P6 1.526801 1_555
O36 Y1 2.243877 1_656
O37 Si2 1.672364 1_555
O37 Zr1 2.075112 1_455
O38 Si3 1.672364 1_555
O38 Zr0 2.075112 1_454
O39 P7 1.526801 1_555
O39 Y0 2.243877 1_655
O40 P0 1.544691 1_455
O40 Y0 2.333741 1_555
O41 P0 1.555159 1_555
O41 Zr0 2.171432 1_555
O42 P1 1.555159 1_555
O42 Zr1 2.171432 1_555
O43 P1 1.544691 1_455
O43 Y1 2.333741 1_555
O44 P2 1.544691 1_555
O44 Y2 2.333741 1_555
O45 P2 1.555159 1_555
O45 Zr2 2.171432 1_555
O46 P3 1.555159 1_555
O46 Zr3 2.171432 1_555
O47 P3 1.544691 1_555
O47 Y3 2.333741 1_555
