# generated using pymatgen
data_Mg(CoO2)4
_symmetry_space_group_name_H-M   'P 1'
_cell_length_a   5.78454269
_cell_length_b   5.87413389
_cell_length_c   5.79098582
_cell_angle_alpha   118.57850596
_cell_angle_beta   118.05003531
_cell_angle_gamma   93.30228616
_symmetry_Int_Tables_number   1
_chemical_formula_structural   Mg(CoO2)4
_chemical_formula_sum   'Mg1 Co4 O8'
_cell_volume   142.00513462
_cell_formula_units_Z   1
loop_
 _symmetry_equiv_pos_site_id
 _symmetry_equiv_pos_as_xyz
  1  'x, y, z'
loop_
 _atom_site_type_symbol
 _atom_site_label
 _atom_site_symmetry_multiplicity
 _atom_site_fract_x
 _atom_site_fract_y
 _atom_site_fract_z
 _atom_site_occupancy
  Mg  Mg0  1  0.58882400  0.83885700  0.67760300  1
  Co  Co0  1  0.46398000  0.46819800  0.93784800  1
  Co  Co1  1  0.98030200  0.97513800  0.43750900  1
  Co  Co2  1  0.97386000  0.46962300  0.93786900  1
  Co  Co3  1  0.95726100  0.46246400  0.43763200  1
  O  O0  1  0.73494000  0.69401500  0.95106400  1
  O  O1  1  0.17731800  0.69423800  0.39647600  1
  O  O2  1  0.20906800  0.25876900  0.93126400  1
  O  O3  1  0.22219000  0.67244800  0.93130700  1
  O  O4  1  0.76491900  0.24401700  0.49498800  1
  O  O5  1  0.23004700  0.25095300  0.49495000  1
  O  O6  1  0.71615500  0.25708200  0.95115500  1
  O  O7  1  0.71923900  0.70229500  0.39653000  1
loop_
_geom_bond_atom_site_label_1
_geom_bond_atom_site_label_2
_geom_bond_distance
_geom_bond_site_symmetry_2
Mg0 O7 1.958911 1_555
Mg0 O1 1.958953 1_555
Mg0 O6 2.014509 1_565
Mg0 O0 2.014741 1_555
Co0 O2 1.839140 1_555
Co0 O5 1.855652 1_555
Co0 O3 1.893178 1_555
Co0 O7 1.926024 1_556
Co0 O0 1.942321 1_555
Co0 O6 1.966169 1_555
Co1 O5 1.893525 1_665
Co1 O7 1.981351 1_555
Co1 O1 2.043066 1_655
Co1 O0 2.048431 1_554
Co1 O4 2.066737 1_565
Co1 O2 2.081449 1_665
Co2 O3 1.838987 1_655
Co2 O4 1.855587 1_555
Co2 O2 1.893270 1_655
Co2 O1 1.925677 1_656
Co2 O6 1.942218 1_555
Co2 O0 1.966246 1_555
Co3 O4 1.893577 1_555
Co3 O1 1.981632 1_655
Co3 O7 2.042828 1_555
Co3 O6 2.048508 1_554
Co3 O5 2.066779 1_655
Co3 O3 2.081141 1_655
