# generated using pymatgen
data_Na6TaGa3Si2(PO6)4
_symmetry_space_group_name_H-M   'P 1'
_cell_length_a   15.29561752
_cell_length_b   8.87884066
_cell_length_c   8.85015488
_cell_angle_alpha   90.21198845
_cell_angle_beta   124.79459711
_cell_angle_gamma   90.08832985
_symmetry_Int_Tables_number   1
_chemical_formula_structural   Na6TaGa3Si2(PO6)4
_chemical_formula_sum   'Na12 Ta2 Ga6 Si4 P8 O48'
_cell_volume   987.00060313
_cell_formula_units_Z   2
loop_
 _symmetry_equiv_pos_site_id
 _symmetry_equiv_pos_as_xyz
  1  'x, y, z'
loop_
 _atom_site_type_symbol
 _atom_site_label
 _atom_site_symmetry_multiplicity
 _atom_site_fract_x
 _atom_site_fract_y
 _atom_site_fract_z
 _atom_site_occupancy
  Na  Na0  1  0.25028510  0.75001515  0.99816589  1
  Na  Na1  1  0.74520744  0.75134509  0.48471553  1
  Na  Na2  1  0.75028510  0.25001515  0.99816589  1
  Na  Na3  1  0.24520744  0.25134509  0.48471553  1
  Na  Na4  1  0.49750707  0.09379631  0.73724234  1
  Na  Na5  1  0.50453164  0.89125355  0.25700563  1
  Na  Na6  1  0.99750707  0.59379631  0.73724234  1
  Na  Na7  1  0.00453164  0.39125355  0.25700563  1
  Na  Na8  1  0.18944656  0.92788957  0.28882398  1
  Na  Na9  1  0.81020764  0.07749728  0.70655465  1
  Na  Na10  1  0.68944656  0.42788957  0.28882398  1
  Na  Na11  1  0.31020764  0.57749728  0.70655465  1
  Ta  Ta0  1  0.89523866  0.74948000  0.93664325  1
  Ta  Ta1  1  0.39523866  0.24948000  0.93664325  1
  Ga  Ga0  1  0.10504169  0.75372031  0.56060949  1
  Ga  Ga1  1  0.89470291  0.24504217  0.43790519  1
  Ga  Ga2  1  0.10149256  0.25411795  0.05627191  1
  Ga  Ga3  1  0.60504169  0.25372031  0.56060949  1
  Ga  Ga4  1  0.39470291  0.74504217  0.43790519  1
  Ga  Ga5  1  0.60149256  0.75411795  0.05627191  1
  Si  Si0  1  0.35227829  0.89110440  0.75084657  1
  Si  Si1  1  0.65233898  0.09888877  0.25382895  1
  Si  Si2  1  0.85227829  0.39110440  0.75084657  1
  Si  Si3  1  0.15233898  0.59888877  0.25382895  1
  P  P0  1  0.00564038  0.96237299  0.75394379  1
  P  P1  1  0.99942327  0.04404361  0.25515833  1
  P  P2  1  0.50564038  0.46237299  0.75394379  1
  P  P3  1  0.49942327  0.54404361  0.25515833  1
  P  P4  1  0.64189979  0.89259917  0.74252181  1
  P  P5  1  0.35461772  0.10759647  0.26015223  1
  P  P6  1  0.14189979  0.39259917  0.74252181  1
  P  P7  1  0.85461772  0.60759647  0.26015223  1
  O  O0  1  0.15039455  0.56692359  0.74104875  1
  O  O1  1  0.84739384  0.57999106  0.76391037  1
  O  O2  1  0.85108591  0.43349105  0.24985528  1
  O  O3  1  0.15175821  0.41709288  0.23757068  1
  O  O4  1  0.65039455  0.06692359  0.74104875  1
  O  O5  1  0.34739384  0.07999106  0.76391037  1
  O  O6  1  0.35108591  0.93349105  0.24985528  1
  O  O7  1  0.65175821  0.91709288  0.23757068  1
  O  O8  1  0.43255186  0.56104103  0.58448612  1
  O  O9  1  0.57388264  0.55256076  0.93394894  1
  O  O10  1  0.56469781  0.43937298  0.42064126  1
  O  O11  1  0.43152944  0.44530178  0.07537401  1
  O  O12  1  0.93255186  0.06104103  0.58448612  1
  O  O13  1  0.07388264  0.05256076  0.93394894  1
  O  O14  1  0.06469781  0.93937298  0.42064126  1
  O  O15  1  0.93152944  0.94530178  0.07537401  1
  O  O16  1  0.25188705  0.81518177  0.73785415  1
  O  O17  1  0.74346261  0.83029685  0.75798893  1
  O  O18  1  0.74550525  0.18896201  0.25600306  1
  O  O19  1  0.25528363  0.16850990  0.24204415  1
  O  O20  1  0.75188705  0.31518177  0.73785415  1
  O  O21  1  0.24346261  0.33029685  0.75798893  1
  O  O22  1  0.24550525  0.68896201  0.25600306  1
  O  O23  1  0.75528363  0.66850990  0.24204415  1
  O  O24  1  0.35576285  0.87094442  0.57021901  1
  O  O25  1  0.64323743  0.85376548  0.91198136  1
  O  O26  1  0.64689285  0.13434700  0.42882673  1
  O  O27  1  0.35822070  0.15752763  0.09192828  1
  O  O28  1  0.85576285  0.37094442  0.57021901  1
  O  O29  1  0.14323743  0.35376548  0.91198136  1
  O  O30  1  0.14689285  0.63434700  0.42882673  1
  O  O31  1  0.85822070  0.65752763  0.09192828  1
  O  O32  1  0.45846066  0.82581973  0.93614323  1
  O  O33  1  0.54411929  0.82978356  0.56151088  1
  O  O34  1  0.53814544  0.17367454  0.07167906  1
  O  O35  1  0.45599648  0.16743255  0.43786497  1
  O  O36  1  0.95846066  0.32581973  0.93614323  1
  O  O37  1  0.04411929  0.32978356  0.56151088  1
  O  O38  1  0.03814544  0.67367454  0.07167906  1
  O  O39  1  0.95599648  0.66743255  0.43786497  1
  O  O40  1  0.07517002  0.84537892  0.74045595  1
  O  O41  1  0.92065205  0.86301448  0.76370240  1
  O  O42  1  0.92199003  0.15136869  0.25925012  1
  O  O43  1  0.08205967  0.13745453  0.24532276  1
  O  O44  1  0.57517002  0.34537892  0.74045595  1
  O  O45  1  0.42065205  0.36301448  0.76370240  1
  O  O46  1  0.42199003  0.65136869  0.25925012  1
  O  O47  1  0.58205967  0.63745453  0.24532276  1
loop_
_geom_bond_atom_site_label_1
_geom_bond_atom_site_label_2
_geom_bond_distance
_geom_bond_site_symmetry_2
Na0 O22 2.388659 1_556
Na0 O16 2.391050 1_555
Na0 O6 2.457349 1_556
Na0 O46 2.469831 1_556
Na0 O40 2.478386 1_555
Na0 O0 2.480367 1_555
Na1 O7 2.335638 1_555
Na1 O23 2.354493 1_555
Na1 O47 2.383483 1_555
Na1 O17 2.530314 1_555
Na1 O1 2.547674 1_555
Na1 O41 2.586994 1_555
Na2 O18 2.388659 1_556
Na2 O20 2.391050 1_555
Na2 O2 2.457349 1_556
Na2 O42 2.469831 1_556
Na2 O44 2.478386 1_555
Na2 O4 2.480367 1_555
Na3 O3 2.335638 1_555
Na3 O19 2.354493 1_555
Na3 O43 2.383483 1_555
Na3 O21 2.530314 1_555
Na3 O5 2.547674 1_555
Na3 O45 2.586994 1_555
Na4 O4 2.332072 1_555
Na4 O35 2.438198 1_555
Na4 O5 2.441414 1_555
Na4 O44 2.520794 1_555
Na4 O24 2.666128 1_545
Na4 O45 2.732982 1_555
Na4 O34 2.744685 1_556
Na4 O25 2.829678 1_545
Na5 O6 2.342361 1_555
Na5 O7 2.365190 1_555
Na5 O33 2.465090 1_555
Na5 O46 2.480218 1_555
Na5 O32 2.569175 1_554
Na5 O47 2.577081 1_555
Na5 O26 2.809759 1_565
Na6 O0 2.332072 1_655
Na6 O39 2.438198 1_555
Na6 O1 2.441414 1_555
Na6 O40 2.520794 1_655
Na6 O28 2.666128 1_555
Na6 O41 2.732982 1_555
Na6 O38 2.744685 1_656
Na6 O29 2.829678 1_655
Na7 O2 2.342361 1_455
Na7 O3 2.365190 1_555
Na7 O37 2.465090 1_555
Na7 O42 2.480218 1_455
Na7 O36 2.569175 1_454
Na7 O43 2.577081 1_555
Na7 O30 2.809759 1_555
Na8 O43 2.366725 1_565
Na8 O22 2.367537 1_555
Na8 O24 2.390002 1_555
Na8 O19 2.495104 1_565
Na8 O6 2.684571 1_555
Na8 O14 2.748170 1_555
Na8 O13 2.812417 1_564
Na9 O26 2.354141 1_555
Na9 O20 2.368460 1_555
Na9 O41 2.403770 1_545
Na9 O17 2.568597 1_545
Na9 O4 2.632196 1_555
Na9 O12 2.645232 1_555
Na10 O47 2.366725 1_555
Na10 O18 2.367537 1_555
Na10 O28 2.390002 1_555
Na10 O23 2.495104 1_555
Na10 O2 2.684571 1_555
Na10 O10 2.748170 1_555
Na10 O9 2.812417 1_554
Na11 O30 2.354141 1_555
Na11 O16 2.368460 1_555
Na11 O45 2.403770 1_555
Na11 O21 2.568597 1_555
Na11 O0 2.632196 1_555
Na11 O8 2.645232 1_555
Ga0 O30 1.933500 1_555
Ga0 O16 1.942211 1_555
Ga0 O14 1.943779 1_555
Ga0 O39 2.031338 1_455
Ga0 O40 2.055729 1_555
Ga0 O0 2.130956 1_555
Ga1 O28 1.940096 1_555
Ga1 O18 1.960910 1_555
Ga1 O12 1.961775 1_555
Ga1 O42 2.027409 1_555
Ga1 O37 2.030087 1_655
Ga1 O2 2.184350 1_555
Ga2 O36 1.917466 1_454
Ga2 O29 1.938657 1_554
Ga2 O3 1.957291 1_555
Ga2 O13 2.003629 1_554
Ga2 O19 2.101240 1_555
Ga2 O43 2.130755 1_555
Ga3 O26 1.933500 1_555
Ga3 O20 1.942211 1_555
Ga3 O10 1.943779 1_555
Ga3 O35 2.031338 1_555
Ga3 O44 2.055729 1_555
Ga3 O4 2.130956 1_555
Ga4 O24 1.940096 1_555
Ga4 O22 1.960910 1_555
Ga4 O8 1.961775 1_555
Ga4 O46 2.027409 1_555
Ga4 O33 2.030087 1_555
Ga4 O6 2.184350 1_555
Ga5 O32 1.917466 1_554
Ga5 O25 1.938657 1_554
Ga5 O7 1.957291 1_555
Ga5 O9 2.003629 1_554
Ga5 O23 2.101240 1_555
Ga5 O47 2.130755 1_555
O0 P6 1.553768 1_555
O1 Si2 1.685350 1_555
O1 Ta0 1.959575 1_555
O2 P7 1.547246 1_555
O3 Si3 1.619567 1_555
O4 P4 1.553768 1_545
O5 Si0 1.685350 1_545
O5 Ta1 1.959575 1_555
O6 P5 1.547246 1_565
O7 Si1 1.619567 1_565
O8 P2 1.538091 1_555
O9 P2 1.535853 1_555
O10 P3 1.532830 1_555
O11 P3 1.574745 1_555
O11 Ta1 2.010467 1_554
O12 P0 1.538091 1_645
O13 P0 1.535853 1_545
O14 P1 1.532830 1_465
O15 P1 1.574745 1_565
O15 Ta0 2.010467 1_554
O16 Si0 1.618724 1_555
O17 P4 1.580669 1_555
O17 Ta0 2.056363 1_555
O18 Si1 1.623505 1_555
O19 P5 1.533616 1_555
O20 Si2 1.618724 1_555
O21 P6 1.580669 1_555
O21 Ta1 2.056363 1_555
O22 Si3 1.623505 1_555
O23 P7 1.533616 1_555
O24 Si0 1.638748 1_555
O25 P4 1.528844 1_555
O26 Si1 1.627396 1_555
O27 P5 1.585742 1_555
O27 Ta1 1.941854 1_554
O28 Si2 1.638748 1_555
O29 P6 1.528844 1_555
O30 Si3 1.627396 1_555
O31 P7 1.585742 1_555
O31 Ta0 1.941854 1_554
O32 Si0 1.622753 1_555
O33 P4 1.539691 1_555
O34 Si1 1.699546 1_555
O34 Ta1 1.920507 1_554
O35 P5 1.538935 1_555
O36 Si2 1.622753 1_555
O37 P6 1.539691 1_555
O38 Si3 1.699546 1_555
O38 Ta0 1.920507 1_454
O39 P7 1.538935 1_555
O40 P0 1.540032 1_555
O41 P0 1.612681 1_655
O41 Ta0 2.049163 1_555
O42 P1 1.537636 1_555
O43 P1 1.554333 1_455
O44 P2 1.540032 1_555
O45 P2 1.612681 1_555
O45 Ta1 2.049163 1_555
O46 P3 1.537636 1_555
O47 P3 1.554333 1_555
