# generated using pymatgen
data_K3MgSbS4
_symmetry_space_group_name_H-M   'P 1'
_cell_length_a   6.60024751
_cell_length_b   6.60024798
_cell_length_c   10.17690675
_cell_angle_alpha   120.90710343
_cell_angle_beta   120.90710594
_cell_angle_gamma   95.94478207
_symmetry_Int_Tables_number   1
_chemical_formula_structural   K3MgSbS4
_chemical_formula_sum   'K3 Mg1 Sb1 S4'
_cell_volume   282.81954527
_cell_formula_units_Z   1
loop_
 _symmetry_equiv_pos_site_id
 _symmetry_equiv_pos_as_xyz
  1  'x, y, z'
loop_
 _atom_site_type_symbol
 _atom_site_label
 _atom_site_symmetry_multiplicity
 _atom_site_fract_x
 _atom_site_fract_y
 _atom_site_fract_z
 _atom_site_occupancy
  K  K0  1  0.99900348  0.55986623  0.55294309  1
  K  K1  1  0.55986623  0.99900348  0.55294308  1
  K  K2  1  0.43888030  0.43888030  0.99207042  1
  Mg  Mg0  1  0.99949731  0.99949731  0.28917471  1
  Sb  Sb0  1  -0.00018203  -0.00018203  0.00819928  1
  S  S0  1  0.99977043  0.99977043  0.51538117  1
  S  S1  1  0.99960955  0.63756727  0.02184127  1
  S  S2  1  0.63756727  0.99960955  0.02184128  1
  S  S3  1  0.36135746  0.36135746  0.38356871  1
loop_
_geom_bond_atom_site_label_1
_geom_bond_atom_site_label_2
_geom_bond_distance
_geom_bond_site_symmetry_2
K0 S0 3.116964 1_555
K0 Mg0 3.270690 1_545
K0 S3 3.389041 1_555
K0 S2 3.396422 1_656
K0 S0 3.516592 1_545
K0 S3 3.601624 1_655
K0 S2 3.601842 1_545
K0 Sb0 4.006002 1_666
K1 S0 3.116963 1_555
K1 Mg0 3.270690 1_455
K1 S3 3.389041 1_555
K1 S1 3.396422 1_566
K1 S0 3.516592 1_455
K1 S3 3.601624 1_565
K1 S1 3.601842 1_455
K1 Sb0 4.006002 1_666
K2 S0 3.115518 1_445
K2 Mg0 3.271473 1_556
K2 S1 3.391051 1_456
K2 S2 3.391052 1_546
K2 S0 3.525065 1_556
K2 S1 3.597662 1_556
K2 S2 3.597663 1_556
K2 Sb0 4.007566 1_556
Mg0 S0 2.300231 1_555
Mg0 S2 2.536581 1_555
Mg0 S1 2.536581 1_555
Mg0 S3 2.536900 1_665
S1 Sb0 2.465038 1_665
S2 Sb0 2.465037 1_665
S3 Sb0 2.464343 1_555
