# generated using pymatgen
data_ZnSn(SO4)3
_symmetry_space_group_name_H-M   'P 1'
_cell_length_a   8.72971509
_cell_length_b   8.72971481
_cell_length_c   22.57692818
_cell_angle_alpha   90.00000000
_cell_angle_beta   90.00000000
_cell_angle_gamma   120.00000104
_symmetry_Int_Tables_number   1
_chemical_formula_structural   ZnSn(SO4)3
_chemical_formula_sum   'Zn6 Sn6 S18 O72'
_cell_volume   1490.03203050
_cell_formula_units_Z   6
loop_
 _symmetry_equiv_pos_site_id
 _symmetry_equiv_pos_as_xyz
  1  'x, y, z'
loop_
 _atom_site_type_symbol
 _atom_site_label
 _atom_site_symmetry_multiplicity
 _atom_site_fract_x
 _atom_site_fract_y
 _atom_site_fract_z
 _atom_site_occupancy
  Zn  Zn0  1  -0.00000000  -0.00000000  0.35379494  1
  Zn  Zn1  1  -0.00000000  -0.00000000  0.85379494  1
  Zn  Zn2  1  0.66666700  0.33333300  0.68712794  1
  Zn  Zn3  1  0.66666700  0.33333300  0.18712794  1
  Zn  Zn4  1  0.33333300  0.66666700  0.02046194  1
  Zn  Zn5  1  0.33333300  0.66666700  0.52046194  1
  Sn  Sn0  1  -0.00000000  -0.00000000  0.64751679  1
  Sn  Sn1  1  -0.00000000  -0.00000000  0.14751679  1
  Sn  Sn2  1  0.66666700  0.33333300  0.98084979  1
  Sn  Sn3  1  0.66666700  0.33333300  0.48084979  1
  Sn  Sn4  1  0.33333300  0.66666700  0.31418379  1
  Sn  Sn5  1  0.33333300  0.66666700  0.81418379  1
  S  S0  1  0.29342218  0.00348861  0.25145118  1
  S  S1  1  0.71006644  0.70657782  0.25145118  1
  S  S2  1  0.99651139  0.28993356  0.25145118  1
  S  S3  1  0.29342218  0.28993356  0.75145118  1
  S  S4  1  0.99651139  0.70657782  0.75145118  1
  S  S5  1  0.71006644  0.00348861  0.75145118  1
  S  S6  1  0.96008918  0.33682161  0.58478418  1
  S  S7  1  0.37673344  0.03991082  0.58478418  1
  S  S8  1  0.66317839  0.62326656  0.58478418  1
  S  S9  1  0.96008918  0.62326656  0.08478418  1
  S  S10  1  0.66317839  0.03991082  0.08478418  1
  S  S11  1  0.37673344  0.33682161  0.08478418  1
  S  S12  1  0.62675518  0.67015561  0.91811818  1
  S  S13  1  0.04339944  0.37324482  0.91811818  1
  S  S14  1  0.32984439  0.95660056  0.91811818  1
  S  S15  1  0.62675518  0.95660056  0.41811818  1
  S  S16  1  0.32984439  0.37324482  0.41811818  1
  S  S17  1  0.04339944  0.67015561  0.41811818  1
  O  O0  1  0.21055791  0.02951029  0.30325574  1
  O  O1  1  0.81895238  0.78944209  0.30325574  1
  O  O2  1  0.97048971  0.18104762  0.30325574  1
  O  O3  1  0.21055791  0.18104762  0.80325574  1
  O  O4  1  0.97048971  0.78944209  0.80325574  1
  O  O5  1  0.81895238  0.02951029  0.80325574  1
  O  O6  1  0.78290451  0.96200994  0.69623173  1
  O  O7  1  0.17910544  0.21709549  0.69623173  1
  O  O8  1  0.03799006  0.82089456  0.69623173  1
  O  O9  1  0.78290451  0.82089456  0.19623173  1
  O  O10  1  0.03799006  0.21709549  0.19623173  1
  O  O11  1  0.17910544  0.96200994  0.19623173  1
  O  O12  1  0.87722491  0.36284329  0.63658874  1
  O  O13  1  0.48561938  0.12277509  0.63658874  1
  O  O14  1  0.63715671  0.51438062  0.63658874  1
  O  O15  1  0.87722491  0.51438062  0.13658874  1
  O  O16  1  0.63715671  0.12277509  0.13658874  1
  O  O17  1  0.48561938  0.36284329  0.13658874  1
  O  O18  1  0.44957151  0.29534294  0.02956473  1
  O  O19  1  0.84577244  0.55042849  0.02956473  1
  O  O20  1  0.70465706  0.15422756  0.02956473  1
  O  O21  1  0.44957151  0.15422756  0.52956473  1
  O  O22  1  0.70465706  0.55042849  0.52956473  1
  O  O23  1  0.84577244  0.29534294  0.52956473  1
  O  O24  1  0.54389091  0.69617729  0.96992274  1
  O  O25  1  0.15228538  0.45610909  0.96992274  1
  O  O26  1  0.30382271  0.84771462  0.96992274  1
  O  O27  1  0.54389091  0.84771462  0.46992274  1
  O  O28  1  0.30382271  0.45610909  0.46992274  1
  O  O29  1  0.15228538  0.69617729  0.46992274  1
  O  O30  1  0.11623751  0.62867694  0.36289873  1
  O  O31  1  0.51243844  0.88376249  0.36289873  1
  O  O32  1  0.37132306  0.48756156  0.36289873  1
  O  O33  1  0.11623751  0.48756156  0.86289873  1
  O  O34  1  0.37132306  0.88376249  0.86289873  1
  O  O35  1  0.51243844  0.62867694  0.86289873  1
  O  O36  1  0.02250592  0.82291064  0.40845573  1
  O  O37  1  0.80040471  0.97749408  0.40845573  1
  O  O38  1  0.17708936  0.19959529  0.40845573  1
  O  O39  1  0.02250592  0.19959529  0.90845573  1
  O  O40  1  0.17708936  0.97749408  0.90845573  1
  O  O41  1  0.80040471  0.82291064  0.90845573  1
  O  O42  1  0.97408521  0.17130535  0.59016838  1
  O  O43  1  0.19722014  0.02591479  0.59016838  1
  O  O44  1  0.82869465  0.80277986  0.59016838  1
  O  O45  1  0.97408521  0.80277986  0.09016838  1
  O  O46  1  0.82869465  0.02591479  0.09016838  1
  O  O47  1  0.19722014  0.17130535  0.09016838  1
  O  O48  1  0.68917292  0.15624364  0.74178873  1
  O  O49  1  0.46707171  0.31082708  0.74178873  1
  O  O50  1  0.84375636  0.53292829  0.74178873  1
  O  O51  1  0.68917292  0.53292829  0.24178873  1
  O  O52  1  0.84375636  0.31082708  0.24178873  1
  O  O53  1  0.46707171  0.15624364  0.24178873  1
  O  O54  1  0.64075221  0.50463835  0.92350138  1
  O  O55  1  0.86388714  0.35924779  0.92350138  1
  O  O56  1  0.49536165  0.13611286  0.92350138  1
  O  O57  1  0.64075221  0.13611286  0.42350138  1
  O  O58  1  0.49536165  0.35924779  0.42350138  1
  O  O59  1  0.86388714  0.50463835  0.42350138  1
  O  O60  1  0.35583892  0.48957764  0.07512273  1
  O  O61  1  0.13373771  0.64416108  0.07512273  1
  O  O62  1  0.51042236  0.86626229  0.07512273  1
  O  O63  1  0.35583892  0.86626229  0.57512273  1
  O  O64  1  0.51042236  0.64416108  0.57512273  1
  O  O65  1  0.13373771  0.48957764  0.57512273  1
  O  O66  1  0.30741821  0.83797235  0.25683538  1
  O  O67  1  0.53055314  0.69258179  0.25683538  1
  O  O68  1  0.16202765  0.46944686  0.25683538  1
  O  O69  1  0.30741821  0.46944686  0.75683538  1
  O  O70  1  0.16202765  0.69258179  0.75683538  1
  O  O71  1  0.53055314  0.83797235  0.75683538  1
loop_
_geom_bond_atom_site_label_1
_geom_bond_atom_site_label_2
_geom_bond_distance
_geom_bond_site_symmetry_2
O0 S0 1.451600 1_555
O0 Zn0 2.067224 1_555
O1 S1 1.451600 1_555
O1 Zn0 2.067224 1_665
O2 S2 1.451600 1_555
O2 Zn0 2.067224 1_655
O3 S3 1.451600 1_555
O3 Zn1 2.067224 1_555
O4 S4 1.451600 1_555
O4 Zn1 2.067224 1_665
O5 S5 1.451600 1_555
O5 Zn1 2.067224 1_655
O6 S5 1.523119 1_565
O6 Sn0 2.069496 1_665
O7 S3 1.523119 1_555
O7 Sn0 2.069496 1_555
O8 S4 1.523119 1_455
O8 Sn0 2.069496 1_565
O9 S1 1.523119 1_555
O9 Sn1 2.069496 1_665
O10 S2 1.523119 1_455
O10 Sn1 2.069496 1_555
O11 S0 1.523119 1_565
O11 Sn1 2.069496 1_565
O12 S6 1.451600 1_555
O12 Zn2 2.067224 1_555
O13 S7 1.451600 1_555
O13 Zn2 2.067224 1_555
O14 S8 1.451600 1_555
O14 Zn2 2.067224 1_555
O15 S9 1.451600 1_555
O15 Zn3 2.067224 1_555
O16 S10 1.451600 1_555
O16 Zn3 2.067224 1_555
O17 S11 1.451600 1_555
O17 Zn3 2.067224 1_555
O18 S11 1.523119 1_555
O18 Sn2 2.069496 1_554
O19 S9 1.523119 1_555
O19 Sn2 2.069496 1_554
O20 S10 1.523119 1_555
O20 Sn2 2.069496 1_554
O21 S7 1.523119 1_555
O21 Sn3 2.069496 1_555
O22 S8 1.523119 1_555
O22 Sn3 2.069496 1_555
O23 S6 1.523119 1_555
O23 Sn3 2.069496 1_555
O24 S12 1.451600 1_555
O24 Zn4 2.067224 1_556
O25 S13 1.451600 1_555
O25 Zn4 2.067224 1_556
O26 S14 1.451600 1_555
O26 Zn4 2.067224 1_556
O27 S15 1.451600 1_555
O27 Zn5 2.067224 1_555
O28 S16 1.451600 1_555
O28 Zn5 2.067224 1_555
O29 S17 1.451600 1_555
O29 Zn5 2.067224 1_555
O30 S17 1.523119 1_555
O30 Sn4 2.069496 1_555
O31 S15 1.523119 1_555
O31 Sn4 2.069496 1_555
O32 S16 1.523119 1_555
O32 Sn4 2.069496 1_555
O33 S13 1.523119 1_555
O33 Sn5 2.069496 1_555
O34 S14 1.523119 1_555
O34 Sn5 2.069496 1_555
O35 S12 1.523119 1_555
O35 Sn5 2.069496 1_555
O36 S17 1.449939 1_555
O36 Zn0 2.062813 1_565
O37 S15 1.449948 1_555
O37 Zn0 2.062813 1_665
O38 S16 1.449944 1_555
O38 Zn0 2.062813 1_555
O39 S13 1.449948 1_555
O39 Zn1 2.062813 1_555
O40 S14 1.449939 1_555
O40 Zn1 2.062813 1_565
O41 S12 1.449944 1_555
O41 Zn1 2.062813 1_665
O42 S6 1.514599 1_555
O42 Sn0 2.074183 1_655
O43 S7 1.514608 1_555
O43 Sn0 2.074183 1_555
O44 S8 1.514604 1_555
O44 Sn0 2.074183 1_665
O45 S9 1.514608 1_555
O45 Sn1 2.074183 1_665
O46 S10 1.514599 1_555
O46 Sn1 2.074183 1_655
O47 S11 1.514604 1_555
O47 Sn1 2.074183 1_555
O48 S5 1.449939 1_555
O48 Zn2 2.062813 1_555
O49 S3 1.449948 1_555
O49 Zn2 2.062813 1_555
O50 S4 1.449944 1_555
O50 Zn2 2.062813 1_555
O51 S1 1.449948 1_555
O51 Zn3 2.062813 1_555
O52 S2 1.449939 1_555
O52 Zn3 2.062813 1_555
O53 S0 1.449944 1_555
O53 Zn3 2.062813 1_555
O54 S12 1.514611 1_555
O54 Sn2 2.074183 1_555
O55 S13 1.514593 1_655
O55 Sn2 2.074183 1_555
O56 S14 1.514601 1_545
O56 Sn2 2.074183 1_555
O57 S15 1.514593 1_545
O57 Sn3 2.074183 1_555
O58 S16 1.514611 1_555
O58 Sn3 2.074183 1_555
O59 S17 1.514601 1_655
O59 Sn3 2.074183 1_555
O60 S11 1.449950 1_555
O60 Zn4 2.062813 1_555
O61 S9 1.449932 1_455
O61 Zn4 2.062813 1_555
O62 S10 1.449939 1_565
O62 Zn4 2.062813 1_555
O63 S7 1.449932 1_565
O63 Zn5 2.062813 1_555
O64 S8 1.449950 1_555
O64 Zn5 2.062813 1_555
O65 S6 1.449939 1_455
O65 Zn5 2.062813 1_555
O66 S0 1.514599 1_565
O66 Sn4 2.074183 1_555
O67 S1 1.514608 1_555
O67 Sn4 2.074183 1_555
O68 S2 1.514604 1_455
O68 Sn4 2.074183 1_555
O69 S3 1.514608 1_555
O69 Sn5 2.074183 1_555
O70 S4 1.514599 1_455
O70 Sn5 2.074183 1_555
O71 S5 1.514604 1_565
O71 Sn5 2.074183 1_555
