# generated using pymatgen
data_CeSnPt
_symmetry_space_group_name_H-M   'P 1'
_cell_length_a   4.66504170
_cell_length_b   7.48681279
_cell_length_c   8.03037866
_cell_angle_alpha   90.00000000
_cell_angle_beta   90.00000000
_cell_angle_gamma   90.00000000
_symmetry_Int_Tables_number   1
_chemical_formula_structural   CeSnPt
_chemical_formula_sum   'Ce4 Sn4 Pt4'
_cell_volume   280.47136493
_cell_formula_units_Z   4
loop_
 _symmetry_equiv_pos_site_id
 _symmetry_equiv_pos_as_xyz
  1  'x, y, z'
loop_
 _atom_site_type_symbol
 _atom_site_label
 _atom_site_symmetry_multiplicity
 _atom_site_fract_x
 _atom_site_fract_y
 _atom_site_fract_z
 _atom_site_occupancy
  Ce  Ce0  1  0.75000000  0.48636608  0.19714588  1
  Ce  Ce1  1  0.25000000  0.01363392  0.69714588  1
  Ce  Ce2  1  0.75000000  0.98636608  0.30285412  1
  Ce  Ce3  1  0.25000000  0.51363392  0.80285412  1
  Sn  Sn0  1  0.25000000  0.67583178  0.41587511  1
  Sn  Sn1  1  0.25000000  0.17583178  0.08412489  1
  Sn  Sn2  1  0.75000000  0.32416822  0.58412489  1
  Sn  Sn3  1  0.75000000  0.82416822  0.91587511  1
  Pt  Pt0  1  0.25000000  0.78562289  0.08870106  1
  Pt  Pt1  1  0.25000000  0.28562289  0.41129894  1
  Pt  Pt2  1  0.75000000  0.71437711  0.58870106  1
  Pt  Pt3  1  0.75000000  0.21437711  0.91129894  1
loop_
_geom_bond_atom_site_label_1
_geom_bond_atom_site_label_2
_geom_bond_distance
_geom_bond_site_symmetry_2
Ce0 Pt3 3.068513 1_554
Ce0 Sn0 3.246228 1_555
Ce0 Sn0 3.246228 1_655
Ce0 Pt1 3.264493 1_555
Ce0 Pt1 3.264493 1_655
Ce0 Sn2 3.336426 1_555
Ce0 Pt0 3.349446 1_655
Ce0 Pt0 3.349446 1_555
Ce0 Sn3 3.390859 1_554
Ce0 Sn1 3.416081 1_655
Ce0 Sn1 3.416081 1_555
Ce0 Pt2 3.577843 1_555
Ce1 Pt1 3.068513 1_555
Ce1 Sn3 3.246228 1_445
Ce1 Sn3 3.246228 1_545
Ce1 Pt3 3.264493 1_555
Ce1 Pt3 3.264493 1_455
Ce1 Sn1 3.336426 1_556
Ce1 Pt2 3.349446 1_445
Ce1 Pt2 3.349446 1_545
Ce1 Sn0 3.390859 1_545
Ce1 Sn2 3.416081 1_555
Ce1 Sn2 3.416081 1_455
Ce1 Pt0 3.577843 1_546
Ce2 Pt2 3.068513 1_555
Ce2 Sn1 3.246228 1_665
Ce2 Sn1 3.246228 1_565
Ce2 Pt0 3.264493 1_555
Ce2 Pt0 3.264493 1_655
Ce2 Sn3 3.336426 1_554
Ce2 Pt1 3.349446 1_565
Ce2 Pt1 3.349446 1_665
Ce2 Sn2 3.390859 1_565
Ce2 Sn0 3.416081 1_555
Ce2 Sn0 3.416081 1_655
Ce2 Pt3 3.577843 1_564
Ce3 Pt0 3.068513 1_556
Ce3 Sn2 3.246228 1_555
Ce3 Sn2 3.246228 1_455
Ce3 Pt2 3.264493 1_455
Ce3 Pt2 3.264493 1_555
Ce3 Sn0 3.336426 1_555
Ce3 Pt3 3.349446 1_455
Ce3 Pt3 3.349446 1_555
Ce3 Sn1 3.390859 1_556
Ce3 Sn3 3.416081 1_455
Ce3 Sn3 3.416081 1_555
Ce3 Pt1 3.577843 1_555
Pt0 Sn3 2.729484 1_554
Pt0 Sn3 2.729484 1_454
Pt0 Sn0 2.752913 1_555
Pt0 Sn1 2.921652 1_565
Pt1 Sn2 2.729484 1_455
Pt1 Sn2 2.729484 1_555
Pt1 Sn1 2.752913 1_555
Pt1 Sn0 2.921652 1_555
Pt2 Sn0 2.729484 1_655
Pt2 Sn0 2.729484 1_555
Pt2 Sn3 2.752913 1_555
Pt2 Sn2 2.921652 1_555
Pt3 Sn1 2.729484 1_556
Pt3 Sn1 2.729484 1_656
Pt3 Sn2 2.752913 1_555
Pt3 Sn3 2.921652 1_545
