# generated using pymatgen
data_Li(CuO2)2
_symmetry_space_group_name_H-M   'P 1'
_cell_length_a   5.86949257
_cell_length_b   5.86949257
_cell_length_c   5.86949257
_cell_angle_alpha   60.00000000
_cell_angle_beta   60.00000000
_cell_angle_gamma   60.00000000
_symmetry_Int_Tables_number   1
_chemical_formula_structural   Li(CuO2)2
_chemical_formula_sum   'Li2 Cu4 O8'
_cell_volume   142.98374712
_cell_formula_units_Z   2
loop_
 _symmetry_equiv_pos_site_id
 _symmetry_equiv_pos_as_xyz
  1  'x, y, z'
loop_
 _atom_site_type_symbol
 _atom_site_label
 _atom_site_symmetry_multiplicity
 _atom_site_fract_x
 _atom_site_fract_y
 _atom_site_fract_z
 _atom_site_occupancy
  Li  Li0  1  0.75000000  0.75000000  0.75000000  1
  Li  Li1  1  0.50000000  0.50000000  0.50000000  1
  Cu  Cu0  1  0.12500000  0.12500000  0.12500000  1
  Cu  Cu1  1  0.12500000  0.12500000  0.62500000  1
  Cu  Cu2  1  0.12500000  0.62500000  0.12500000  1
  Cu  Cu3  1  0.62500000  0.12500000  0.12500000  1
  O  O0  1  0.91443300  0.36185600  0.36185600  1
  O  O1  1  0.36185600  0.36185600  0.36185600  1
  O  O2  1  0.33556800  0.88814400  0.88814400  1
  O  O3  1  0.88814400  0.88814400  0.33556700  1
  O  O4  1  0.88814400  0.88814400  0.88814400  1
  O  O5  1  0.88814400  0.33556700  0.88814400  1
  O  O6  1  0.36185600  0.36185600  0.91443300  1
  O  O7  1  0.36185600  0.91443300  0.36185600  1
loop_
_geom_bond_atom_site_label_1
_geom_bond_atom_site_label_2
_geom_bond_distance
_geom_bond_site_symmetry_2
Li0 O4 1.986132 1_555
Li0 O2 1.986132 1_555
Li0 O3 1.986137 1_555
Li0 O5 1.986137 1_555
Li1 O1 1.986132 1_555
Li1 O6 1.986137 1_555
Li1 O7 1.986137 1_555
Li1 O0 1.986137 1_555
Cu0 O2 1.972120 1_544
Cu0 O0 1.972120 1_455
Cu0 O7 1.972120 1_545
Cu0 O6 1.972120 1_554
Cu0 O3 1.972120 1_445
Cu0 O5 1.972120 1_454
Cu1 O5 1.972116 1_455
Cu1 O0 1.972116 1_455
Cu1 O7 1.972116 1_545
Cu1 O2 1.972120 1_545
Cu1 O1 1.972120 1_555
Cu1 O4 1.972120 1_445
Cu2 O3 1.972116 1_455
Cu2 O0 1.972116 1_455
Cu2 O6 1.972116 1_554
Cu2 O2 1.972120 1_554
Cu2 O1 1.972120 1_555
Cu2 O4 1.972120 1_454
Cu3 O3 1.972116 1_545
Cu3 O5 1.972116 1_554
Cu3 O7 1.972116 1_545
Cu3 O6 1.972116 1_554
Cu3 O1 1.972120 1_555
Cu3 O4 1.972120 1_544
