# generated using pymatgen
data_Li3Fe(PO4)2
_symmetry_space_group_name_H-M   'P 1'
_cell_length_a   8.83142500
_cell_length_b   4.92173400
_cell_length_c   7.85390658
_cell_angle_alpha   55.64902970
_cell_angle_beta   90.00000000
_cell_angle_gamma   90.00000000
_symmetry_Int_Tables_number   1
_chemical_formula_structural   Li3Fe(PO4)2
_chemical_formula_sum   'Li6 Fe2 P4 O16'
_cell_volume   281.83996678
_cell_formula_units_Z   2
loop_
 _symmetry_equiv_pos_site_id
 _symmetry_equiv_pos_as_xyz
  1  'x, y, z'
loop_
 _atom_site_type_symbol
 _atom_site_label
 _atom_site_symmetry_multiplicity
 _atom_site_fract_x
 _atom_site_fract_y
 _atom_site_fract_z
 _atom_site_occupancy
  Li  Li0  1  0.13995000  0.32389700  0.69057500  1
  Li  Li1  1  0.86005000  0.67610300  0.30942500  1
  Li  Li2  1  0.36005000  0.32389700  0.19057500  1
  Li  Li3  1  0.50000000  0.00000000  0.00000000  1
  Li  Li4  1  0.63995000  0.67610300  0.80942500  1
  Li  Li5  1  0.00000000  0.00000000  0.50000000  1
  Fe  Fe0  1  0.00000000  0.50000000  0.00000000  1
  Fe  Fe1  1  0.50000000  0.50000000  0.50000000  1
  P  P0  1  0.68109600  0.19301000  0.27882900  1
  P  P1  1  0.31890400  0.80699000  0.72117100  1
  P  P2  1  0.18109600  0.80699000  0.22117100  1
  P  P3  1  0.81890400  0.19301000  0.77882900  1
  O  O0  1  0.35554100  0.52479100  0.69106800  1
  O  O1  1  0.64338900  0.17400200  0.75422900  1
  O  O2  1  0.35661100  0.82599800  0.24577100  1
  O  O3  1  0.09827500  0.74272700  0.41007300  1
  O  O4  1  0.59827500  0.25727300  0.08992700  1
  O  O5  1  0.13154900  0.14488400  0.02406300  1
  O  O6  1  0.64445900  0.47520900  0.30893200  1
  O  O7  1  0.63154900  0.85511600  0.47593700  1
  O  O8  1  0.90172500  0.25727300  0.58992700  1
  O  O9  1  0.85661100  0.17400200  0.25422900  1
  O  O10  1  0.14338900  0.82599800  0.74577100  1
  O  O11  1  0.40172500  0.74272700  0.91007300  1
  O  O12  1  0.36845100  0.14488400  0.52406300  1
  O  O13  1  0.14445900  0.52479100  0.19106800  1
  O  O14  1  0.86845100  0.85511600  0.97593700  1
  O  O15  1  0.85554100  0.47520900  0.80893200  1
loop_
_geom_bond_atom_site_label_1
_geom_bond_atom_site_label_2
_geom_bond_distance
_geom_bond_site_symmetry_2
Li0 O3 2.028091 1_555
Li0 O0 2.146411 1_555
Li0 O10 2.234969 1_545
Li0 O5 2.244473 1_556
Li0 O8 2.334770 1_455
Li1 O8 2.028091 1_555
Li1 O6 2.146411 1_555
Li1 O9 2.234969 1_565
Li1 O14 2.244473 1_554
Li1 O3 2.334770 1_655
Li2 O11 2.028091 1_554
Li2 O13 2.146411 1_555
Li2 O2 2.234969 1_545
Li2 O12 2.244473 1_555
Li2 O4 2.334770 1_555
Li3 O4 1.965879 1_555
Li3 O11 1.965879 1_544
Li3 O2 2.048755 1_545
Li3 O1 2.048755 1_554
Li4 O4 2.028091 1_556
Li4 O15 2.146411 1_555
Li4 O1 2.234969 1_565
Li4 O7 2.244473 1_555
Li4 O11 2.334770 1_555
Li5 O8 1.965879 1_455
Li5 O3 1.965879 1_545
Li5 O10 2.048755 1_545
Li5 O9 2.048755 1_455
Fe0 O14 2.016782 1_454
Fe0 O5 2.016782 1_555
Fe0 O13 2.025098 1_555
Fe0 O15 2.025098 1_454
Fe0 O9 2.132915 1_455
Fe0 O10 2.132915 1_554
Fe1 O7 2.016782 1_555
Fe1 O12 2.016782 1_555
Fe1 O0 2.025098 1_555
Fe1 O6 2.025098 1_555
Fe1 O1 2.132915 1_555
Fe1 O2 2.132915 1_555
O0 P1 1.568512 1_555
O1 P3 1.571345 1_555
O2 P2 1.571345 1_555
O3 P2 1.518747 1_555
O4 P0 1.518747 1_555
O5 P2 1.564699 1_545
O6 P0 1.568512 1_555
O7 P0 1.564699 1_565
O8 P3 1.518747 1_555
O9 P0 1.571345 1_555
O10 P1 1.571345 1_555
O11 P1 1.518747 1_555
O12 P1 1.564699 1_545
O13 P2 1.568512 1_555
O14 P3 1.564699 1_565
O15 P3 1.568512 1_555
