# generated using pymatgen
data_Na2Ca2Hf2SiS5O24
_symmetry_space_group_name_H-M   'P 1'
_cell_length_a   9.02728307
_cell_length_b   9.02560915
_cell_length_c   23.77235270
_cell_angle_alpha   90.08275293
_cell_angle_beta   90.18906504
_cell_angle_gamma   119.89684593
_symmetry_Int_Tables_number   1
_chemical_formula_structural   Na2Ca2Hf2SiS5O24
_chemical_formula_sum   'Na6 Ca6 Hf6 Si3 S15 O72'
_cell_volume   1679.12005162
_cell_formula_units_Z   3
loop_
 _symmetry_equiv_pos_site_id
 _symmetry_equiv_pos_as_xyz
  1  'x, y, z'
loop_
 _atom_site_type_symbol
 _atom_site_label
 _atom_site_symmetry_multiplicity
 _atom_site_fract_x
 _atom_site_fract_y
 _atom_site_fract_z
 _atom_site_occupancy
  Na  Na0  1  0.00704378  0.00349727  0.49821195  1
  Na  Na1  1  0.99727858  0.98881948  0.99617505  1
  Na  Na2  1  0.66950653  0.30747289  0.81961723  1
  Na  Na3  1  0.64216240  0.31573804  0.34034838  1
  Na  Na4  1  0.30848967  0.67423773  0.16366771  1
  Na  Na5  1  0.34379822  0.67802647  0.66084245  1
  Ca  Ca0  1  0.01272992  0.00386889  0.34761797  1
  Ca  Ca1  1  0.99567718  0.00191563  0.85109259  1
  Ca  Ca2  1  0.66532471  0.32607883  0.68331365  1
  Ca  Ca3  1  0.66217097  0.33015428  0.48457674  1
  Ca  Ca4  1  0.32575044  0.66756761  0.02410641  1
  Ca  Ca5  1  0.33506226  0.66869356  0.51919163  1
  Hf  Hf0  1  0.98877595  0.99890736  0.65410463  1
  Hf  Hf1  1  0.00878363  0.98780575  0.14886825  1
  Hf  Hf2  1  0.67121111  0.33544875  0.18631271  1
  Hf  Hf3  1  0.67718939  0.34481970  0.98107411  1
  Hf  Hf4  1  0.33089253  0.67419800  0.31423737  1
  Hf  Hf5  1  0.34361614  0.67664315  0.81151820  1
  Si  Si0  1  0.30281645  0.99962883  0.24990460  1
  Si  Si1  1  0.70096282  0.00189578  0.75380765  1
  Si  Si2  1  0.95515803  0.62664415  0.08582034  1
  S  S0  1  0.70085032  0.70307106  0.24775467  1
  S  S1  1  0.00256433  0.29735537  0.24750034  1
  S  S2  1  0.29064875  0.30120382  0.75163672  1
  S  S3  1  0.00932179  0.70981559  0.75133308  1
  S  S4  1  0.97029359  0.32500576  0.58585553  1
  S  S5  1  0.35099914  0.02990911  0.58592908  1
  S  S6  1  0.67743553  0.64407400  0.58631736  1
  S  S7  1  0.67979228  0.05652507  0.08452256  1
  S  S8  1  0.37812577  0.32334284  0.08489182  1
  S  S9  1  0.61908760  0.65540061  0.91840090  1
  S  S10  1  0.03565458  0.37644029  0.91854479  1
  S  S11  1  0.34430612  0.96535493  0.91730368  1
  S  S12  1  0.62542418  0.95956274  0.41383596  1
  S  S13  1  0.33560471  0.37918230  0.41354494  1
  S  S14  1  0.03744510  0.66180033  0.41458524  1
  O  O0  1  0.23538349  0.04314428  0.30490012  1
  O  O1  1  0.80089271  0.76942569  0.29872388  1
  O  O2  1  0.96355702  0.19646476  0.29855490  1
  O  O3  1  0.22037269  0.20002883  0.80221091  1
  O  O4  1  0.99266752  0.78759792  0.80257352  1
  O  O5  1  0.80087913  0.01311243  0.80983408  1
  O  O6  1  0.80139823  0.97731673  0.69782178  1
  O  O7  1  0.18136446  0.21288001  0.70095882  1
  O  O8  1  0.03649590  0.82166428  0.70089936  1
  O  O9  1  0.78798842  0.81699793  0.19807244  1
  O  O10  1  0.02424010  0.20901566  0.19780397  1
  O  O11  1  0.17267891  0.96792149  0.19427686  1
  O  O12  1  0.88645517  0.34627134  0.63496951  1
  O  O13  1  0.45721455  0.11539396  0.63503196  1
  O  O14  1  0.65916324  0.54165635  0.63579961  1
  O  O15  1  0.84223568  0.51047324  0.13802884  1
  O  O16  1  0.65937410  0.14284378  0.13473860  1
  O  O17  1  0.47955466  0.33200911  0.13520590  1
  O  O18  1  0.45729041  0.29778188  0.03300697  1
  O  O19  1  0.83797031  0.52816104  0.02794777  1
  O  O20  1  0.69170769  0.15733117  0.03274599  1
  O  O21  1  0.42368350  0.12757454  0.53343606  1
  O  O22  1  0.70000763  0.56932199  0.53400641  1
  O  O23  1  0.87071244  0.29616527  0.53351509  1
  O  O24  1  0.53903675  0.67475430  0.96885887  1
  O  O25  1  0.13367527  0.46000644  0.96921359  1
  O  O26  1  0.32580250  0.86626066  0.96782783  1
  O  O27  1  0.54359604  0.86821272  0.46525408  1
  O  O28  1  0.33204265  0.46597598  0.46513002  1
  O  O29  1  0.13207246  0.67331947  0.46572439  1
  O  O30  1  0.14097396  0.65977620  0.36311868  1
  O  O31  1  0.51630055  0.85642908  0.36272196  1
  O  O32  1  0.33754624  0.48255929  0.36238112  1
  O  O33  1  0.11558954  0.47906273  0.86712876  1
  O  O34  1  0.36054153  0.87439003  0.86595339  1
  O  O35  1  0.51313658  0.63702254  0.86693910  1
  O  O36  1  0.01666096  0.81303530  0.41060239  1
  O  O37  1  0.79429040  0.97581397  0.40805685  1
  O  O38  1  0.18042521  0.20996983  0.41137134  1
  O  O39  1  0.00898765  0.20217092  0.91544250  1
  O  O40  1  0.19732706  0.99232508  0.91160729  1
  O  O41  1  0.79538798  0.79634518  0.91340520  1
  O  O42  1  0.98801382  0.16636120  0.59383081  1
  O  O43  1  0.17780397  0.01396988  0.59367217  1
  O  O44  1  0.83912135  0.81828386  0.59301717  1
  O  O45  1  0.96085615  0.81457108  0.09099646  1
  O  O46  1  0.84161127  0.05220667  0.09022794  1
  O  O47  1  0.20350615  0.16835559  0.09061727  1
  O  O48  1  0.66058566  0.15389174  0.74695392  1
  O  O49  1  0.46695336  0.34061982  0.74285463  1
  O  O50  1  0.86169849  0.53889664  0.74306896  1
  O  O51  1  0.67588352  0.52830332  0.23695726  1
  O  O52  1  0.85665910  0.32885746  0.23690832  1
  O  O53  1  0.49323727  0.15721586  0.23424942  1
  O  O54  1  0.62429447  0.48854195  0.92273332  1
  O  O55  1  0.85827900  0.36094397  0.92378247  1
  O  O56  1  0.50601221  0.13636392  0.92140780  1
  O  O57  1  0.63198900  0.12670442  0.41152454  1
  O  O58  1  0.49418661  0.36857453  0.41106305  1
  O  O59  1  0.87213958  0.50073209  0.41163803  1
  O  O60  1  0.36726554  0.47851055  0.08217366  1
  O  O61  1  0.14154419  0.64842304  0.08716814  1
  O  O62  1  0.53114886  0.88498150  0.08148984  1
  O  O63  1  0.32635489  0.85484919  0.58229456  1
  O  O64  1  0.53120592  0.67515436  0.58267065  1
  O  O65  1  0.14576295  0.47234216  0.58191859  1
  O  O66  1  0.31874836  0.82394093  0.25613469  1
  O  O67  1  0.52705330  0.68278046  0.25272152  1
  O  O68  1  0.15970227  0.46908610  0.25370403  1
  O  O69  1  0.29006823  0.46873229  0.75795967  1
  O  O70  1  0.16920355  0.69434177  0.75623934  1
  O  O71  1  0.51047517  0.81537431  0.75785474  1
loop_
_geom_bond_atom_site_label_1
_geom_bond_atom_site_label_2
_geom_bond_distance
_geom_bond_site_symmetry_2
Na0 O38 2.703531 1_555
Na0 O43 2.714035 1_555
Na0 O36 2.727604 1_545
Na0 O42 2.757141 1_455
Na0 O44 2.771102 1_445
Na0 O37 2.799516 1_445
Na1 O41 2.649771 1_555
Na1 O45 2.676234 1_556
Na1 O39 2.685453 1_665
Na1 O40 2.696487 1_655
Na1 O47 2.843722 1_666
Na1 O46 2.849490 1_566
Na2 O48 2.189213 1_555
Na2 O50 2.665259 1_555
Na2 O49 2.699595 1_555
Na2 O56 2.860234 1_555
Na2 O55 2.901302 1_555
Na3 O58 2.342075 1_555
Na3 O57 2.373915 1_555
Na3 O59 2.546180 1_555
Na3 O53 2.875023 1_555
Na4 O61 2.294208 1_555
Na4 O66 2.555671 1_555
Na4 O68 2.713839 1_555
Na4 O62 2.774859 1_555
Na4 O60 2.843709 1_555
Na4 O67 2.863720 1_555
Na5 O63 2.513101 1_555
Na5 O64 2.525967 1_555
Na5 O65 2.611857 1_555
Na5 O71 2.688626 1_555
Na5 O70 2.811187 1_555
Na5 O69 2.870599 1_555
Ca0 O0 2.121572 1_555
Ca0 O38 2.284386 1_555
Ca0 O36 2.297343 1_545
Ca0 O2 2.313165 1_455
Ca0 O1 2.330190 1_445
Ca0 O37 2.353483 1_445
Ca1 O5 2.056836 1_555
Ca1 O4 2.239142 1_545
Ca1 O3 2.251196 1_655
Ca1 O39 2.322856 1_655
Ca1 O40 2.351771 1_645
Ca1 O41 2.363749 1_545
Ca2 O48 2.155639 1_555
Ca2 O13 2.209278 1_555
Ca2 O12 2.234259 1_555
Ca2 O14 2.275643 1_555
Ca2 O50 2.330452 1_555
Ca2 O49 2.340501 1_555
Ca3 O22 2.326402 1_555
Ca3 O21 2.329304 1_555
Ca3 O23 2.356671 1_555
Ca3 O57 2.439438 1_555
Ca3 O58 2.445894 1_555
Ca3 O59 2.467756 1_555
Ca4 O61 2.184760 1_555
Ca4 O25 2.226812 1_554
Ca4 O26 2.238754 1_554
Ca4 O24 2.308401 1_554
Ca4 O62 2.344771 1_555
Ca4 O60 2.366109 1_555
Ca5 O28 2.223350 1_555
Ca5 O29 2.244148 1_555
Ca5 O27 2.252534 1_555
Ca5 O63 2.281362 1_555
Ca5 O65 2.299981 1_555
Ca5 O64 2.301083 1_555
Hf0 O6 1.913854 1_555
Hf0 O42 2.086603 1_565
Hf0 O44 2.091972 1_555
Hf0 O7 2.150996 1_665
Hf0 O8 2.161282 1_655
Hf0 O43 2.186248 1_665
Hf1 O11 1.908190 1_555
Hf1 O45 1.959605 1_455
Hf1 O9 2.162184 1_455
Hf1 O47 2.197731 1_565
Hf1 O10 2.252446 1_565
Hf1 O46 2.328405 1_465
Hf2 O15 1.944788 1_555
Hf2 O53 1.977010 1_555
Hf2 O52 2.083025 1_555
Hf2 O16 2.084309 1_555
Hf2 O51 2.097967 1_555
Hf2 O17 2.098301 1_555
Hf3 O19 1.917357 1_556
Hf3 O55 2.080050 1_555
Hf3 O54 2.110086 1_555
Hf3 O20 2.148398 1_556
Hf3 O18 2.196027 1_556
Hf3 O56 2.240339 1_555
Hf4 O66 1.974472 1_555
Hf4 O31 2.018057 1_555
Hf4 O30 2.024277 1_555
Hf4 O32 2.100954 1_555
Hf4 O68 2.238705 1_555
Hf4 O67 2.271772 1_555
Hf5 O71 1.897701 1_555
Hf5 O69 2.112071 1_555
Hf5 O70 2.114009 1_555
Hf5 O34 2.145590 1_555
Hf5 O35 2.176942 1_555
Hf5 O33 2.351687 1_555
O0 Si0 1.573577 1_545
O1 S0 1.447031 1_555
O2 S1 1.453474 1_655
O3 S2 1.453438 1_555
O4 S3 1.450238 1_655
O5 Si1 1.580621 1_555
O6 Si1 1.688253 1_565
O7 S2 1.505165 1_555
O8 S3 1.508400 1_555
O9 S0 1.508083 1_555
O10 S1 1.491323 1_555
O11 Si0 1.692418 1_555
O12 S4 1.456988 1_555
O13 S5 1.459369 1_555
O14 S6 1.455271 1_555
O15 Si2 1.620341 1_555
O16 S7 1.485902 1_555
O17 S8 1.481963 1_555
O18 S8 1.501541 1_555
O19 Si2 1.688615 1_555
O20 S7 1.503634 1_555
O21 S5 1.482147 1_555
O22 S6 1.476293 1_555
O23 S4 1.477312 1_555
O24 S9 1.456876 1_555
O25 S10 1.458678 1_555
O26 S11 1.458051 1_555
O27 S12 1.456455 1_555
O28 S13 1.463250 1_555
O29 S14 1.456943 1_555
O30 S14 1.547640 1_555
O31 S12 1.545338 1_555
O32 S13 1.528835 1_555
O33 S10 1.488416 1_555
O34 S11 1.517871 1_555
O35 S9 1.507474 1_555
O36 S14 1.470687 1_555
O37 S12 1.463809 1_555
O38 S13 1.471073 1_555
O39 S10 1.469507 1_555
O40 S11 1.469329 1_555
O41 S9 1.465846 1_555
O42 S4 1.529930 1_555
O43 S5 1.508909 1_555
O44 S6 1.529040 1_555
O45 Si2 1.675443 1_555
O46 S7 1.486363 1_555
O47 S8 1.504641 1_555
O48 Si1 1.593776 1_555
O49 S2 1.463269 1_555
O50 S3 1.463660 1_655
O51 S0 1.499623 1_555
O52 S1 1.500137 1_655
O53 Si0 1.638546 1_545
O54 S9 1.533571 1_555
O55 S10 1.541779 1_655
O56 S11 1.508400 1_545
O57 S12 1.481017 1_545
O58 S13 1.482969 1_555
O59 S14 1.477001 1_655
O60 S8 1.453352 1_555
O61 Si2 1.593925 1_455
O62 S7 1.459759 1_565
O63 S5 1.484081 1_565
O64 S6 1.482301 1_555
O65 S4 1.479092 1_455
O66 Si0 1.668807 1_555
O67 S0 1.491252 1_555
O68 S1 1.497508 1_555
O69 S2 1.521891 1_555
O70 S3 1.521873 1_555
O71 Si1 1.707637 1_565
