# generated using pymatgen
data_Na9Mg2Ta4Si6(PO12)3
_symmetry_space_group_name_H-M   'P 1'
_cell_length_a   9.03521775
_cell_length_b   27.04370445
_cell_length_c   22.27037496
_cell_angle_alpha   89.88748474
_cell_angle_beta   90.06314239
_cell_angle_gamma   119.97595713
_symmetry_Int_Tables_number   1
_chemical_formula_structural   Na9Mg2Ta4Si6(PO12)3
_chemical_formula_sum   'Na54 Mg12 Ta24 Si36 P18 O216'
_cell_volume   4713.75808263
_cell_formula_units_Z   6
loop_
 _symmetry_equiv_pos_site_id
 _symmetry_equiv_pos_as_xyz
  1  'x, y, z'
loop_
 _atom_site_type_symbol
 _atom_site_label
 _atom_site_symmetry_multiplicity
 _atom_site_fract_x
 _atom_site_fract_y
 _atom_site_fract_z
 _atom_site_occupancy
  Na  Na0  1  0.01872253  0.99940153  0.49460390  1
  Na  Na1  1  0.00536003  0.32817719  0.50253541  1
  Na  Na2  1  0.99643496  0.66701506  0.49934181  1
  Na  Na3  1  0.98611683  0.00819658  0.00075823  1
  Na  Na4  1  0.01927503  0.34066994  0.00105060  1
  Na  Na5  1  0.00339544  0.66607752  0.00809847  1
  Na  Na6  1  0.68507313  0.11063898  0.83168807  1
  Na  Na7  1  0.64433453  0.44461383  0.84279556  1
  Na  Na8  1  0.68492373  0.77647183  0.82552441  1
  Na  Na9  1  0.65867350  0.10470890  0.32539594  1
  Na  Na10  1  0.67112971  0.44220627  0.33717396  1
  Na  Na11  1  0.66866117  0.78023583  0.33364300  1
  Na  Na12  1  0.32420525  0.21951551  0.16363784  1
  Na  Na13  1  0.31582199  0.55698783  0.17027518  1
  Na  Na14  1  0.33936312  0.89435245  0.16339778  1
  Na  Na15  1  0.32017296  0.21800194  0.66835991  1
  Na  Na16  1  0.34428477  0.55609325  0.67153578  1
  Na  Na17  1  0.28994141  0.88489434  0.66085216  1
  Na  Na18  1  0.62391933  0.66148516  0.25678990  1
  Na  Na19  1  0.37760419  0.12041054  0.24318861  1
  Na  Na20  1  0.36464274  0.45978713  0.25737189  1
  Na  Na21  1  0.34820833  0.78551170  0.23979547  1
  Na  Na22  1  0.99020363  0.20695696  0.24204420  1
  Na  Na23  1  0.02195622  0.54901581  0.25076681  1
  Na  Na24  1  0.60711860  0.20464678  0.74734838  1
  Na  Na25  1  0.62233800  0.54217999  0.76067461  1
  Na  Na26  1  0.62152531  0.86973690  0.74231710  1
  Na  Na27  1  0.99224490  0.12765617  0.74961137  1
  Na  Na28  1  0.01725508  0.46203605  0.75709353  1
  Na  Na29  1  0.38439545  0.00380066  0.74235515  1
  Na  Na30  1  0.37349374  0.32902688  0.75853619  1
  Na  Na31  1  0.38628206  0.66697121  0.74935386  1
  Na  Na32  1  0.31026197  0.78339882  0.57488329  1
  Na  Na33  1  0.01462590  0.56335971  0.57424427  1
  Na  Na34  1  0.67147824  0.32589283  0.57469352  1
  Na  Na35  1  0.65738269  0.98708665  0.57603362  1
  Na  Na36  1  0.31320268  0.32905063  0.07130815  1
  Na  Na37  1  0.30619027  0.98586035  0.07315516  1
  Na  Na38  1  0.66384628  0.22611607  0.08927774  1
  Na  Na39  1  0.67951376  0.57101119  0.08856836  1
  Na  Na40  1  0.65822811  0.90076506  0.07154411  1
  Na  Na41  1  0.05587142  0.77849488  0.08462113  1
  Na  Na42  1  0.95850339  0.55061475  0.92575530  1
  Na  Na43  1  0.98936032  0.89282049  0.92152788  1
  Na  Na44  1  0.69678006  0.34633187  0.92509959  1
  Na  Na45  1  0.34373335  0.10520317  0.91019978  1
  Na  Na46  1  0.32910843  0.77148727  0.92459514  1
  Na  Na47  1  0.96850157  0.09533790  0.40933704  1
  Na  Na48  1  0.95327619  0.43438580  0.42497822  1
  Na  Na49  1  0.99570191  0.77534762  0.42716245  1
  Na  Na50  1  0.31287245  0.00761271  0.41544159  1
  Na  Na51  1  0.34553539  0.34851104  0.42877976  1
  Na  Na52  1  0.69960968  0.55183979  0.42664322  1
  Na  Na53  1  0.71057174  0.89479178  0.40716525  1
  Mg  Mg0  1  0.99612849  0.99732691  0.35122824  1
  Mg  Mg1  1  0.00841476  0.66830677  0.14565005  1
  Mg  Mg2  1  0.67260312  0.11321167  0.68500577  1
  Mg  Mg3  1  0.66801639  0.77560357  0.68904383  1
  Mg  Mg4  1  0.67251663  0.11312475  0.18554091  1
  Mg  Mg5  1  0.65371530  0.44083647  0.98255048  1
  Mg  Mg6  1  0.66368704  0.44334734  0.48333687  1
  Mg  Mg7  1  0.33014131  0.88851950  0.01784247  1
  Mg  Mg8  1  0.32500742  0.88851831  0.51925373  1
  Mg  Mg9  1  0.33857592  0.55925980  0.31424087  1
  Mg  Mg10  1  0.32932744  0.21936231  0.81454166  1
  Mg  Mg11  1  0.33882698  0.55861896  0.81229737  1
  Ta  Ta0  1  0.99107093  0.33303354  0.35466950  1
  Ta  Ta1  1  0.01061559  0.66789861  0.35263136  1
  Ta  Ta2  1  0.99698054  0.00035024  0.85585829  1
  Ta  Ta3  1  0.00795824  0.33480045  0.85601053  1
  Ta  Ta4  1  0.98982275  0.66422365  0.85688173  1
  Ta  Ta5  1  0.00268631  0.99864515  0.64263029  1
  Ta  Ta6  1  0.00115905  0.33232197  0.64391272  1
  Ta  Ta7  1  0.99923166  0.66993800  0.64373413  1
  Ta  Ta8  1  0.99654898  0.99980035  0.14883780  1
  Ta  Ta9  1  0.99347412  0.33223130  0.14559056  1
  Ta  Ta10  1  0.66864355  0.44461627  0.68562897  1
  Ta  Ta11  1  0.66768674  0.44284461  0.18479057  1
  Ta  Ta12  1  0.66456717  0.77569964  0.18927689  1
  Ta  Ta13  1  0.67177837  0.11050998  0.98079551  1
  Ta  Ta14  1  0.66897835  0.77886895  0.97668903  1
  Ta  Ta15  1  0.66689703  0.11335363  0.48296242  1
  Ta  Ta16  1  0.66997316  0.77795922  0.48052184  1
  Ta  Ta17  1  0.33220845  0.22167241  0.01708760  1
  Ta  Ta18  1  0.32809770  0.55486856  0.01981716  1
  Ta  Ta19  1  0.33516688  0.22196307  0.52359813  1
  Ta  Ta20  1  0.33761379  0.55661267  0.52127147  1
  Ta  Ta21  1  0.34002147  0.22152102  0.31234549  1
  Ta  Ta22  1  0.32630858  0.88934974  0.31292228  1
  Ta  Ta23  1  0.33120583  0.88852398  0.81280832  1
  Si  Si0  1  0.28961108  0.33336688  0.25031953  1
  Si  Si1  1  0.29035222  0.66369681  0.24540784  1
  Si  Si2  1  0.70412702  0.23386131  0.24940112  1
  Si  Si3  1  0.70004950  0.90299948  0.25266089  1
  Si  Si4  1  0.99696963  0.43088388  0.25133096  1
  Si  Si5  1  0.99759475  0.76328333  0.24678246  1
  Si  Si6  1  0.29456486  0.43060373  0.75004383  1
  Si  Si7  1  0.28788613  0.76226434  0.75133089  1
  Si  Si8  1  0.00290165  0.57095755  0.74899027  1
  Si  Si9  1  0.99953935  0.90175273  0.75020336  1
  Si  Si10  1  0.71026289  0.00060688  0.74825737  1
  Si  Si11  1  0.70852443  0.33202643  0.74956687  1
  Si  Si12  1  0.95764626  0.11064701  0.58713067  1
  Si  Si13  1  0.95810449  0.44352074  0.57928656  1
  Si  Si14  1  0.37467128  0.34675290  0.58063891  1
  Si  Si15  1  0.37734123  0.68193750  0.58827079  1
  Si  Si16  1  0.66555698  0.20767220  0.59061827  1
  Si  Si17  1  0.66339870  0.54122092  0.58082827  1
  Si  Si18  1  0.96185507  0.20789805  0.08727465  1
  Si  Si19  1  0.96001425  0.87473585  0.08339322  1
  Si  Si20  1  0.66776593  0.34698819  0.07713137  1
  Si  Si21  1  0.66682490  0.68081810  0.08355634  1
  Si  Si22  1  0.37507289  0.11066827  0.08577894  1
  Si  Si23  1  0.37625623  0.44492266  0.08394829  1
  Si  Si24  1  0.62973485  0.22313567  0.91420906  1
  Si  Si25  1  0.62400858  0.89087023  0.91971547  1
  Si  Si26  1  0.03943755  0.12634356  0.90951885  1
  Si  Si27  1  0.04265054  0.79145722  0.92125669  1
  Si  Si28  1  0.33210845  0.65194997  0.91132669  1
  Si  Si29  1  0.33995577  0.98678866  0.91896144  1
  Si  Si30  1  0.62566379  0.32025763  0.41838903  1
  Si  Si31  1  0.62894478  0.65249779  0.41352314  1
  Si  Si32  1  0.33775698  0.12499985  0.41645695  1
  Si  Si33  1  0.33995858  0.79317456  0.41912978  1
  Si  Si34  1  0.04599426  0.22186222  0.41625296  1
  Si  Si35  1  0.04342073  0.89216931  0.42037843  1
  P  P0  1  0.29212489  0.00017988  0.25287976  1
  P  P1  1  0.71449502  0.56989980  0.24712802  1
  P  P2  1  0.99899340  0.09630685  0.25463276  1
  P  P3  1  0.28558266  0.09690756  0.74887260  1
  P  P4  1  0.99406055  0.23609613  0.75181667  1
  P  P5  1  0.71198401  0.66779107  0.74986534  1
  P  P6  1  0.95954357  0.78051898  0.58693682  1
  P  P7  1  0.37596931  0.01335274  0.58670302  1
  P  P8  1  0.66876329  0.87425316  0.58610676  1
  P  P9  1  0.95690230  0.54038650  0.07880162  1
  P  P10  1  0.66720681  0.01530183  0.08746334  1
  P  P11  1  0.37509087  0.77647330  0.08350503  1
  P  P12  1  0.61844343  0.55317713  0.91476535  1
  P  P13  1  0.04522045  0.45913430  0.91201725  1
  P  P14  1  0.33587861  0.32084282  0.91265810  1
  P  P15  1  0.61927193  0.98579539  0.42012618  1
  P  P16  1  0.32950112  0.45928710  0.41366667  1
  P  P17  1  0.04044075  0.55497951  0.41246499  1
  O  O0  1  0.21187040  0.00775407  0.30943673  1
  O  O1  1  0.19871005  0.34533154  0.30850326  1
  O  O2  1  0.18892470  0.67095149  0.30641558  1
  O  O3  1  0.82959962  0.27479156  0.30494792  1
  O  O4  1  0.82851573  0.60038872  0.30425194  1
  O  O5  1  0.80292837  0.92796683  0.31258224  1
  O  O6  1  0.99900375  0.06640569  0.31191451  1
  O  O7  1  0.98009925  0.39542135  0.31430006  1
  O  O8  1  0.97086070  0.72067354  0.30556339  1
  O  O9  1  0.18934134  0.06360125  0.80689024  1
  O  O10  1  0.19966931  0.39156208  0.81058616  1
  O  O11  1  0.17257282  0.72006164  0.80776593  1
  O  O12  1  0.99241876  0.27192092  0.80778800  1
  O  O13  1  0.97145571  0.59889452  0.81059637  1
  O  O14  1  0.99911611  0.94011784  0.80865900  1
  O  O15  1  0.83178221  0.00519989  0.80602059  1
  O  O16  1  0.83621412  0.34156160  0.80819939  1
  O  O17  1  0.81156187  0.66502276  0.80649265  1
  O  O18  1  0.80530266  0.32633709  0.69008322  1
  O  O19  1  0.81940285  0.66776295  0.69452549  1
  O  O20  1  0.80632279  0.99184840  0.68859236  1
  O  O21  1  0.17256825  0.06109646  0.69394426  1
  O  O22  1  0.16903705  0.39249811  0.69499693  1
  O  O23  1  0.17837993  0.73355931  0.68862956  1
  O  O24  1  0.99687854  0.27149278  0.69625056  1
  O  O25  1  0.01300533  0.61211451  0.69199572  1
  O  O26  1  0.02365715  0.94334203  0.69137772  1
  O  O27  1  0.79981856  0.26852230  0.18778350  1
  O  O28  1  0.79035690  0.60508767  0.19057839  1
  O  O29  1  0.80485528  0.94344950  0.19336833  1
  O  O30  1  0.02032195  0.06330500  0.19925489  1
  O  O31  1  0.00126821  0.38955762  0.19788664  1
  O  O32  1  0.03916326  0.74057455  0.18706903  1
  O  O33  1  0.16647183  0.32233756  0.19187287  1
  O  O34  1  0.16820873  0.65464368  0.19062915  1
  O  O35  1  0.17254584  0.99260880  0.19620625  1
  O  O36  1  0.88411244  0.11946999  0.64840534  1
  O  O37  1  0.86506704  0.45437016  0.63897672  1
  O  O38  1  0.86574078  0.78260083  0.64095745  1
  O  O39  1  0.47704983  0.04349324  0.64282527  1
  O  O40  1  0.50267639  0.38083654  0.63930471  1
  O  O41  1  0.46891487  0.70274051  0.65102406  1
  O  O42  1  0.64166433  0.17557539  0.65224035  1
  O  O43  1  0.64170842  0.50237306  0.64180411  1
  O  O44  1  0.64441362  0.83871005  0.64184820  1
  O  O45  1  0.89266593  0.17690973  0.14978410  1
  O  O46  1  0.86597238  0.50298302  0.13723532  1
  O  O47  1  0.84051266  0.83103798  0.13761976  1
  O  O48  1  0.64747128  0.04589111  0.14058553  1
  O  O49  1  0.64333191  0.38316330  0.13425415  1
  O  O50  1  0.64237875  0.70804094  0.14668859  1
  O  O51  1  0.49295987  0.12873203  0.14443712  1
  O  O52  1  0.49751849  0.45767266  0.14571147  1
  O  O53  1  0.47690868  0.77383262  0.13921826  1
  O  O54  1  0.46411879  0.09754351  0.02780844  1
  O  O55  1  0.45386840  0.42635477  0.03079265  1
  O  O56  1  0.48326016  0.78074948  0.02633638  1
  O  O57  1  0.82522281  0.17090491  0.03360105  1
  O  O58  1  0.85305418  0.51017332  0.02316997  1
  O  O59  1  0.84710237  0.84758399  0.02122399  1
  O  O60  1  0.68539815  0.04923067  0.02802837  1
  O  O61  1  0.69385342  0.38009022  0.01617613  1
  O  O62  1  0.68229340  0.72543254  0.02945078  1
  O  O63  1  0.46731235  0.05037982  0.52857187  1
  O  O64  1  0.45181805  0.38207462  0.52073210  1
  O  O65  1  0.48670111  0.72644902  0.53262190  1
  O  O66  1  0.68314848  0.17160871  0.53245885  1
  O  O67  1  0.71055632  0.51721906  0.52297049  1
  O  O68  1  0.68934702  0.84479494  0.52814841  1
  O  O69  1  0.82836456  0.09945257  0.52836104  1
  O  O70  1  0.84028287  0.42899155  0.52135625  1
  O  O71  1  0.85873058  0.77706273  0.52730930  1
  O  O72  1  0.53798463  0.23564411  0.97273532  1
  O  O73  1  0.52033680  0.55809026  0.97084304  1
  O  O74  1  0.54329945  0.89780309  0.97973159  1
  O  O75  1  0.17743276  0.16430546  0.96373107  1
  O  O76  1  0.15377951  0.48979637  0.96935544  1
  O  O77  1  0.15480194  0.81365807  0.98083226  1
  O  O78  1  0.32394438  0.28593127  0.97095342  1
  O  O79  1  0.30520070  0.60742917  0.96743429  1
  O  O80  1  0.28712209  0.94643257  0.97681834  1
  O  O81  1  0.53602131  0.28599883  0.47997684  1
  O  O82  1  0.51966749  0.60842965  0.46944522  1
  O  O83  1  0.54437219  0.95140774  0.47738504  1
  O  O84  1  0.33023753  0.16561646  0.46951781  1
  O  O85  1  0.30463344  0.49031083  0.46916350  1
  O  O86  1  0.29660566  0.81576785  0.47867086  1
  O  O87  1  0.17720406  0.23520157  0.47207054  1
  O  O88  1  0.14614531  0.55942135  0.47021442  1
  O  O89  1  0.16370111  0.90141317  0.47581997  1
  O  O90  1  0.13071069  0.20988492  0.35593702  1
  O  O91  1  0.12541655  0.55000774  0.35575493  1
  O  O92  1  0.13935885  0.88184709  0.36028879  1
  O  O93  1  0.50154410  0.28042924  0.36171341  1
  O  O94  1  0.53415562  0.62931948  0.35181748  1
  O  O95  1  0.49873239  0.95398797  0.36486779  1
  O  O96  1  0.35376063  0.16059464  0.35309551  1
  O  O97  1  0.33836420  0.49113038  0.35631062  1
  O  O98  1  0.36543260  0.83460183  0.36041760  1
  O  O99  1  0.10529577  0.15672859  0.84644657  1
  O  O100  1  0.13373374  0.49279761  0.85561889  1
  O  O101  1  0.14318143  0.83493733  0.86371414  1
  O  O102  1  0.34554937  0.29019140  0.85661801  1
  O  O103  1  0.36019148  0.62978267  0.84911095  1
  O  O104  1  0.36012779  0.95516911  0.85817919  1
  O  O105  1  0.51230736  0.20785113  0.85556656  1
  O  O106  1  0.52522959  0.54940795  0.85673198  1
  O  O107  1  0.50432167  0.88169002  0.85984888  1
  O  O108  1  0.03144566  0.27986939  0.40840984  1
  O  O109  1  0.02174606  0.61023845  0.41217255  1
  O  O110  1  0.00907749  0.94449446  0.41262284  1
  O  O111  1  0.81734410  0.32581445  0.41374616  1
  O  O112  1  0.82133320  0.65755172  0.41471252  1
  O  O113  1  0.79976534  0.99628994  0.41062739  1
  O  O114  1  0.16913438  0.06328237  0.41728224  1
  O  O115  1  0.16407006  0.39765471  0.41562157  1
  O  O116  1  0.17010390  0.72940005  0.40562235  1
  O  O117  1  0.03090861  0.06345435  0.91367109  1
  O  O118  1  0.02763947  0.39770427  0.91304020  1
  O  O119  1  0.01330730  0.72723123  0.90767303  1
  O  O120  1  0.16776169  0.32510198  0.91365080  1
  O  O121  1  0.15205570  0.65620714  0.91431205  1
  O  O122  1  0.17704603  0.99861725  0.90777736  1
  O  O123  1  0.81885372  0.28238365  0.91163464  1
  O  O124  1  0.80056556  0.61008891  0.91607054  1
  O  O125  1  0.82356494  0.94413410  0.91105061  1
  O  O126  1  0.97328298  0.05135015  0.58659121  1
  O  O127  1  0.98494729  0.38857865  0.59135341  1
  O  O128  1  0.97061487  0.72305483  0.58506682  1
  O  O129  1  0.19463222  0.00873474  0.58677668  1
  O  O130  1  0.18159908  0.33589134  0.59286523  1
  O  O131  1  0.18213223  0.67596804  0.58443022  1
  O  O132  1  0.83454515  0.27286528  0.58586574  1
  O  O133  1  0.82916109  0.60628050  0.59205432  1
  O  O134  1  0.83780688  0.93495449  0.58686957  1
  O  O135  1  0.98315881  0.27310594  0.08393443  1
  O  O136  1  0.97283172  0.59879326  0.08486170  1
  O  O137  1  0.96819926  0.93752253  0.09137421  1
  O  O138  1  0.83609068  0.01037241  0.09092874  1
  O  O139  1  0.82684541  0.33546870  0.09043873  1
  O  O140  1  0.83367433  0.67401944  0.08295379  1
  O  O141  1  0.18450761  0.05273071  0.09230304  1
  O  O142  1  0.18269405  0.39025603  0.09586294  1
  O  O143  1  0.19886596  0.72354983  0.07924461  1
  O  O144  1  0.68620834  0.05550191  0.74837368  1
  O  O145  1  0.70416461  0.39267636  0.74424700  1
  O  O146  1  0.69616345  0.72045585  0.75173091  1
  O  O147  1  0.45932412  0.10049778  0.74983226  1
  O  O148  1  0.47912754  0.43150720  0.74584583  1
  O  O149  1  0.47300208  0.76807075  0.75251860  1
  O  O150  1  0.83035616  0.17822621  0.75531430  1
  O  O151  1  0.82459951  0.50820803  0.74392718  1
  O  O152  1  0.82825091  0.84201459  0.74893952  1
  O  O153  1  0.68653865  0.17210502  0.25478699  1
  O  O154  1  0.71295686  0.51088899  0.24522909  1
  O  O155  1  0.66546085  0.83729971  0.23909087  1
  O  O156  1  0.84629519  0.10507252  0.24928595  1
  O  O157  1  0.82365631  0.43635963  0.24351493  1
  O  O158  1  0.82192243  0.76801573  0.24722602  1
  O  O159  1  0.46860979  0.05191592  0.24327584  1
  O  O160  1  0.47765611  0.39142612  0.24190627  1
  O  O161  1  0.47612833  0.72503528  0.24693398  1
  O  O162  1  0.65117778  0.16748605  0.93002717  1
  O  O163  1  0.65459092  0.50382415  0.92168241  1
  O  O164  1  0.64390424  0.83262685  0.91925336  1
  O  O165  1  0.85115487  0.11651467  0.92754799  1
  O  O166  1  0.86492009  0.45108204  0.91588205  1
  O  O167  1  0.85369461  0.78756852  0.92176847  1
  O  O168  1  0.50643911  0.05152506  0.92227019  1
  O  O169  1  0.49374889  0.38032360  0.91584081  1
  O  O170  1  0.48711214  0.71734844  0.92762189  1
  O  O171  1  0.62504477  0.04528544  0.42170125  1
  O  O172  1  0.64382496  0.38235687  0.41317942  1
  O  O173  1  0.66307749  0.71709875  0.43021350  1
  O  O174  1  0.51006776  0.11906325  0.42363199  1
  O  O175  1  0.48894710  0.45339266  0.41954132  1
  O  O176  1  0.51407820  0.78766516  0.42248653  1
  O  O177  1  0.86053404  0.16366846  0.42686473  1
  O  O178  1  0.85875261  0.50321509  0.41698309  1
  O  O179  1  0.85442868  0.83114481  0.42334467  1
  O  O180  1  0.34966212  0.16608634  0.06934882  1
  O  O181  1  0.36379464  0.50325479  0.07563738  1
  O  O182  1  0.36860814  0.83191653  0.08956991  1
  O  O183  1  0.15513115  0.21970794  0.07119193  1
  O  O184  1  0.13769537  0.54459630  0.07659827  1
  O  O185  1  0.14632219  0.88141295  0.08443464  1
  O  O186  1  0.49197867  0.28329929  0.07960939  1
  O  O187  1  0.49319825  0.61744421  0.07213781  1
  O  O188  1  0.51413143  0.95455095  0.08224363  1
  O  O189  1  0.36183158  0.28363975  0.58233704  1
  O  O190  1  0.33942072  0.61695104  0.57012948  1
  O  O191  1  0.35998477  0.95460211  0.58221606  1
  O  O192  1  0.50274690  0.21765698  0.57721371  1
  O  O193  1  0.49047633  0.54735862  0.57605885  1
  O  O194  1  0.51664436  0.88442114  0.57938664  1
  O  O195  1  0.14792263  0.16506690  0.57256994  1
  O  O196  1  0.14310455  0.50283505  0.57426038  1
  O  O197  1  0.14518193  0.82915718  0.58269635  1
  O  O198  1  0.30151132  0.27515816  0.25728136  1
  O  O199  1  0.32501178  0.61131298  0.25225187  1
  O  O200  1  0.30197917  0.94392186  0.25483399  1
  O  O201  1  0.51539926  0.22988113  0.25225304  1
  O  O202  1  0.53202137  0.55805549  0.25580159  1
  O  O203  1  0.50507029  0.89499710  0.25286702  1
  O  O204  1  0.17059754  0.15708417  0.25010675  1
  O  O205  1  0.16552168  0.49258604  0.24913184  1
  O  O206  1  0.16480211  0.82606041  0.26181397  1
  O  O207  1  0.29591784  0.15517091  0.74569530  1
  O  O208  1  0.31941836  0.49344217  0.75121925  1
  O  O209  1  0.30495788  0.82568975  0.75821354  1
  O  O210  1  0.15767100  0.23277981  0.75019671  1
  O  O211  1  0.16810498  0.56361129  0.74815694  1
  O  O212  1  0.18265680  0.90182991  0.75397698  1
  O  O213  1  0.51990099  0.27733652  0.75373028  1
  O  O214  1  0.53967815  0.61189434  0.74695567  1
  O  O215  1  0.52557355  0.94062803  0.75476489  1
loop_
_geom_bond_atom_site_label_1
_geom_bond_atom_site_label_2
_geom_bond_distance
_geom_bond_site_symmetry_2
Na0 O110 2.329559 1_555
Na0 O114 2.333244 1_565
Na0 O129 2.529324 1_565
Na0 O126 2.632205 1_465
Na0 O134 2.660497 1_455
Na0 O113 2.691574 1_455
Na1 O132 2.398319 1_455
Na1 O130 2.507710 1_555
Na1 O108 2.544783 1_555
Na1 O115 2.575399 1_555
Na1 O111 2.585440 1_455
Na1 O127 2.632364 1_455
Na2 O112 2.389853 1_555
Na2 O131 2.460362 1_655
Na2 O128 2.522231 1_555
Na2 O109 2.557752 1_655
Na2 O133 2.599635 1_555
Na2 O116 2.648174 1_655
Na3 O117 2.354669 1_654
Na3 O138 2.441240 1_555
Na3 O125 2.571837 1_544
Na3 O141 2.581539 1_655
Na3 O137 2.725462 1_545
Na3 O122 2.790604 1_644
Na4 O118 2.469501 1_554
Na4 O135 2.498904 1_455
Na4 O120 2.517766 1_554
Na4 O142 2.542150 1_555
Na4 O139 2.601486 1_455
Na4 O123 2.623216 1_454
Na5 O143 2.303450 1_555
Na5 O140 2.347953 1_455
Na5 O136 2.407594 1_455
Na5 O121 2.569927 1_554
Na5 O124 2.661319 1_454
Na5 O119 2.753734 1_554
Na6 O150 2.356289 1_555
Na6 O144 2.385870 1_555
Na6 O165 2.567203 1_555
Na6 O168 2.578050 1_555
Na6 O147 2.644526 1_555
Na6 O162 2.781859 1_555
Na7 O169 2.269424 1_555
Na7 O163 2.349795 1_555
Na7 O166 2.509518 1_555
Na7 O148 2.546111 1_555
Na7 O151 2.766330 1_555
Na7 O145 2.802730 1_555
Na8 O146 2.273728 1_555
Na8 O152 2.329609 1_555
Na8 O149 2.433360 1_555
Na8 O167 2.558807 1_555
Na8 O164 2.716130 1_555
Na8 O170 2.838990 1_555
Na9 O153 2.321463 1_555
Na9 O156 2.395086 1_555
Na9 O159 2.425985 1_555
Na9 O171 2.602847 1_555
Na9 O174 2.696372 1_555
Na9 O177 2.841542 1_555
Na10 O172 2.266461 1_555
Na10 O178 2.442331 1_555
Na10 O157 2.549552 1_555
Na10 O175 2.583083 1_555
Na10 O160 2.654708 1_555
Na10 O154 2.659147 1_555
Na11 O176 2.488765 1_555
Na11 O158 2.489229 1_555
Na11 O161 2.528340 1_555
Na11 O179 2.529368 1_555
Na11 O155 2.616883 1_555
Na11 O173 2.728195 1_555
Na12 O204 2.477233 1_555
Na12 O186 2.481113 1_555
Na12 O201 2.543266 1_555
Na12 O183 2.563845 1_555
Na12 O180 2.625865 1_555
Na12 O198 2.641443 1_555
Na13 O199 2.320908 1_555
Na13 O205 2.364626 1_555
Na13 O184 2.551710 1_555
Na13 O202 2.716651 1_555
Na13 O181 2.717533 1_555
Na13 O187 2.719106 1_555
Na14 O185 2.375456 1_555
Na14 O188 2.415815 1_555
Na14 O182 2.466142 1_555
Na14 O203 2.485860 1_555
Na14 O200 2.553906 1_555
Na14 O206 2.789852 1_555
Na15 O207 2.349204 1_555
Na15 O210 2.496437 1_555
Na15 O189 2.506660 1_555
Na15 O213 2.560639 1_555
Na15 O195 2.607816 1_555
Na15 O192 2.620003 1_555
Na16 O214 2.357195 1_555
Na16 O208 2.383066 1_555
Na16 O211 2.411998 1_555
Na16 O193 2.577137 1_555
Na16 O196 2.731130 1_555
Na16 O190 2.805047 1_555
Na17 O197 2.246670 1_555
Na17 O191 2.412162 1_555
Na17 O212 2.429474 1_555
Na17 O209 2.736087 1_555
Na17 O194 2.742587 1_555
Na17 O215 2.823938 1_555
Na18 O94 2.277006 1_555
Na18 O199 2.341617 1_555
Na18 O202 2.488612 1_555
Na18 O158 2.528644 1_555
Na18 O161 2.660092 1_555
Na18 O50 2.721072 1_555
Na18 O8 2.924660 1_555
Na18 O28 3.011245 1_555
Na19 O159 2.372610 1_555
Na19 O51 2.396311 1_555
Na19 O153 2.431638 1_555
Na19 O204 2.521999 1_555
Na19 O201 2.583396 1_555
Na19 O96 2.732036 1_555
Na20 O202 2.309647 1_555
Na20 O205 2.377079 1_555
Na20 O97 2.416494 1_555
Na20 O160 2.543372 1_555
Na20 O154 2.746187 1_555
Na20 O52 2.775632 1_555
Na20 O1 2.911698 1_555
Na21 O161 2.433822 1_555
Na21 O206 2.451273 1_555
Na21 O155 2.483270 1_555
Na21 O203 2.582521 1_555
Na21 O53 2.616217 1_555
Na21 O32 2.694449 1_555
Na22 O45 2.223865 1_555
Na22 O156 2.393161 1_555
Na22 O153 2.431712 1_555
Na22 O198 2.498952 1_655
Na22 O204 2.589024 1_655
Na22 O90 2.818631 1_655
Na22 O33 2.923290 1_655
Na23 O199 2.393178 1_555
Na23 O205 2.447697 1_555
Na23 O154 2.448691 1_455
Na23 O91 2.512319 1_555
Na23 O157 2.657984 1_455
Na23 O34 2.813667 1_555
Na23 O46 2.860082 1_455
Na23 O4 2.973424 1_455
Na24 O42 2.335606 1_555
Na24 O207 2.436839 1_555
Na24 O147 2.441410 1_555
Na24 O150 2.459496 1_555
Na24 O213 2.460668 1_555
Na24 O105 2.574739 1_555
Na25 O106 2.358286 1_555
Na25 O214 2.368520 1_555
Na25 O208 2.380646 1_555
Na25 O151 2.450188 1_555
Na25 O148 2.621907 1_555
Na25 O43 2.897960 1_555
Na25 O13 2.950064 1_555
Na26 O152 2.338975 1_555
Na26 O149 2.392303 1_555
Na26 O44 2.436171 1_555
Na26 O215 2.483429 1_555
Na26 O209 2.514213 1_555
Na26 O107 2.903201 1_555
Na27 O99 2.347665 1_655
Na27 O36 2.421685 1_555
Na27 O150 2.454788 1_555
Na27 O207 2.459592 1_655
Na27 O144 2.462231 1_555
Na27 O210 2.463822 1_655
Na28 O211 2.387526 1_555
Na28 O100 2.396110 1_555
Na28 O208 2.423891 1_555
Na28 O145 2.510101 1_455
Na28 O151 2.616200 1_455
Na28 O37 2.926195 1_455
Na29 O147 2.357308 1_555
Na29 O144 2.366230 1_555
Na29 O39 2.421369 1_555
Na29 O212 2.443254 1_545
Na29 O215 2.607140 1_545
Na29 O104 2.851502 1_545
Na30 O210 2.353965 1_555
Na30 O213 2.358847 1_555
Na30 O102 2.380180 1_555
Na30 O148 2.454796 1_555
Na30 O145 2.617515 1_555
Na31 O41 2.358422 1_555
Na31 O103 2.399611 1_555
Na31 O146 2.426363 1_555
Na31 O149 2.440114 1_555
Na31 O211 2.488771 1_555
Na31 O214 2.491117 1_555
Na32 O86 2.339359 1_555
Na32 O197 2.373206 1_555
Na32 O194 2.420964 1_555
Na32 O131 2.542336 1_555
Na32 O128 2.669785 1_455
Na32 O23 2.835817 1_555
Na32 O65 2.874306 1_555
Na33 O196 2.434207 1_555
Na33 O133 2.501914 1_455
Na33 O190 2.543768 1_555
Na33 O88 2.631428 1_555
Na33 O67 2.642310 1_455
Na33 O131 2.648103 1_555
Na33 O37 2.932488 1_455
Na33 O25 2.940826 1_555
Na34 O81 2.407307 1_555
Na34 O189 2.442880 1_555
Na34 O127 2.497096 1_555
Na34 O132 2.529487 1_555
Na34 O192 2.536845 1_555
Na34 O70 2.693075 1_555
Na34 O18 2.836306 1_555
Na34 O40 2.980308 1_555
Na35 O191 2.377490 1_555
Na35 O194 2.408873 1_555
Na35 O83 2.412266 1_555
Na35 O126 2.503114 1_565
Na35 O134 2.645332 1_555
Na35 O20 2.816353 1_555
Na35 O69 2.836877 1_565
Na36 O55 2.450557 1_555
Na36 O186 2.483895 1_555
Na36 O142 2.526776 1_555
Na36 O78 2.547151 1_554
Na36 O183 2.561963 1_555
Na36 O135 2.598525 1_455
Na36 O49 2.939507 1_555
Na36 O33 2.960629 1_555
Na37 O80 2.365208 1_554
Na37 O188 2.424030 1_555
Na37 O185 2.459487 1_555
Na37 O141 2.579114 1_565
Na37 O137 2.685295 1_455
Na37 O54 2.804088 1_565
Na38 O27 2.496626 1_555
Na38 O180 2.507147 1_555
Na38 O135 2.507819 1_555
Na38 O139 2.561895 1_555
Na38 O51 2.599432 1_555
Na38 O186 2.692000 1_555
Na38 O57 2.842457 1_555
Na38 O72 2.894753 1_554
Na39 O136 2.367561 1_555
Na39 O140 2.416127 1_555
Na39 O28 2.468660 1_555
Na39 O181 2.520884 1_555
Na39 O187 2.579487 1_555
Na39 O73 2.925301 1_554
Na39 O52 2.944667 1_555
Na40 O74 2.275597 1_554
Na40 O182 2.367725 1_555
Na40 O188 2.400427 1_555
Na40 O137 2.498773 1_555
Na40 O138 2.607441 1_565
Na41 O143 2.410591 1_555
Na41 O182 2.450361 1_555
Na41 O32 2.473218 1_555
Na41 O185 2.478221 1_555
Na41 O77 2.488464 1_554
Na41 O140 2.519291 1_455
Na42 O163 2.382701 1_555
Na42 O166 2.395059 1_555
Na42 O58 2.400924 1_556
Na42 O121 2.507112 1_655
Na42 O124 2.638427 1_555
Na42 O13 2.851424 1_555
Na42 O79 2.867838 1_655
Na43 O167 2.473461 1_555
Na43 O125 2.509863 1_555
Na43 O122 2.510960 1_655
Na43 O59 2.550025 1_556
Na43 O80 2.637833 1_655
Na43 O164 2.705088 1_555
Na43 O14 2.799535 1_555
Na43 O101 2.868023 1_655
Na44 O61 2.231531 1_556
Na44 O169 2.436435 1_555
Na44 O166 2.464333 1_555
Na44 O123 2.491204 1_555
Na44 O118 2.605549 1_655
Na44 O72 2.800650 1_555
Na44 O16 2.924463 1_555
Na45 O162 2.464372 1_555
Na45 O117 2.465920 1_555
Na45 O122 2.498441 1_545
Na45 O168 2.543777 1_555
Na45 O9 2.634374 1_555
Na45 O105 2.696677 1_555
Na45 O54 2.881477 1_556
Na45 O75 2.940229 1_555
Na46 O164 2.477572 1_555
Na46 O170 2.504847 1_555
Na46 O119 2.510548 1_555
Na46 O56 2.604456 1_556
Na46 O77 2.674743 1_555
Na46 O121 2.710963 1_555
Na46 O107 2.956512 1_555
Na46 O11 2.957123 1_555
Na47 O113 2.327913 1_545
Na47 O6 2.370430 1_555
Na47 O114 2.374439 1_655
Na47 O177 2.514714 1_555
Na47 O171 2.709413 1_555
Na47 O90 2.934461 1_655
Na47 O69 2.964991 1_555
Na48 O70 2.350587 1_555
Na48 O178 2.410978 1_555
Na48 O172 2.436157 1_555
Na48 O115 2.559246 1_655
Na48 O111 2.567252 1_555
Na48 O7 2.740670 1_555
Na48 O85 2.921450 1_655
Na49 O179 2.416078 1_555
Na49 O116 2.493549 1_655
Na49 O71 2.563561 1_555
Na49 O173 2.605261 1_555
Na49 O86 2.632601 1_655
Na49 O112 2.773905 1_555
Na49 O92 2.906845 1_655
Na49 O8 3.041864 1_555
Na50 O110 2.402074 1_545
Na50 O114 2.430852 1_555
Na50 O171 2.478117 1_555
Na50 O0 2.530758 1_555
Na50 O174 2.631991 1_555
Na50 O89 2.827352 1_545
Na50 O63 2.832568 1_555
Na50 O95 2.938672 1_545
Na51 O64 2.252008 1_555
Na51 O172 2.399554 1_555
Na51 O175 2.468220 1_555
Na51 O108 2.538017 1_555
Na51 O115 2.591385 1_555
Na51 O87 2.822609 1_555
Na51 O1 2.970060 1_555
Na52 O67 2.360644 1_555
Na52 O175 2.381864 1_555
Na52 O178 2.394630 1_555
Na52 O112 2.511758 1_555
Na52 O109 2.544842 1_655
Na52 O82 2.896465 1_555
Na52 O4 2.995771 1_555
Na53 O5 2.277390 1_555
Na53 O110 2.339437 1_655
Na53 O113 2.445411 1_555
Na53 O176 2.553295 1_555
Na53 O179 2.648416 1_555
Na53 O98 2.895704 1_555
Na53 O68 2.975256 1_555
Mg0 O5 2.009331 1_555
Mg0 O110 2.020789 1_655
Mg0 O0 2.049173 1_665
Mg0 O6 2.049959 1_565
Mg0 O113 2.203119 1_555
Mg0 O114 2.237863 1_665
Mg1 O34 1.937231 1_555
Mg1 O32 2.052221 1_555
Mg1 O28 2.106537 1_455
Mg1 O140 2.168901 1_455
Mg1 O143 2.192736 1_555
Mg1 O136 2.207986 1_455
Mg2 O42 1.980118 1_555
Mg2 O36 2.006184 1_555
Mg2 O39 2.057556 1_555
Mg2 O144 2.150602 1_555
Mg2 O150 2.253071 1_555
Mg2 O147 2.293039 1_555
Mg3 O38 2.009917 1_555
Mg3 O41 2.072894 1_555
Mg3 O44 2.102132 1_555
Mg3 O152 2.123151 1_555
Mg3 O146 2.146623 1_555
Mg3 O149 2.188628 1_555
Mg4 O48 1.988737 1_555
Mg4 O45 2.033624 1_555
Mg4 O51 2.080273 1_555
Mg4 O159 2.176451 1_555
Mg4 O153 2.178463 1_555
Mg4 O156 2.205356 1_555
Mg5 O55 1.965715 1_556
Mg5 O61 1.995249 1_556
Mg5 O58 2.050991 1_556
Mg5 O169 2.148373 1_555
Mg5 O163 2.171801 1_555
Mg5 O166 2.323576 1_555
Mg6 O64 1.982973 1_555
Mg6 O70 2.007052 1_555
Mg6 O67 2.027361 1_555
Mg6 O172 2.215326 1_555
Mg6 O175 2.237659 1_555
Mg6 O178 2.248590 1_555
Mg7 O74 2.003046 1_554
Mg7 O80 2.010132 1_554
Mg7 O77 2.021522 1_554
Mg7 O185 2.163349 1_555
Mg7 O188 2.246732 1_555
Mg7 O182 2.352975 1_555
Mg8 O89 1.919588 1_555
Mg8 O86 2.062884 1_555
Mg8 O83 2.078401 1_555
Mg8 O197 2.145458 1_555
Mg8 O191 2.168967 1_555
Mg8 O194 2.233771 1_555
Mg9 O199 2.016653 1_555
Mg9 O94 2.017442 1_555
Mg9 O91 2.036687 1_555
Mg9 O97 2.064511 1_555
Mg9 O202 2.193585 1_555
Mg9 O205 2.233048 1_555
Mg10 O99 2.010859 1_555
Mg10 O105 2.043227 1_555
Mg10 O102 2.072396 1_555
Mg10 O213 2.134529 1_555
Mg10 O207 2.222908 1_555
Mg10 O210 2.268480 1_555
Mg11 O103 2.011929 1_555
Mg11 O100 2.057738 1_555
Mg11 O106 2.071807 1_555
Mg11 O211 2.154176 1_555
Mg11 O208 2.165142 1_555
Mg11 O214 2.207148 1_555
O0 P0 1.518437 1_555
O1 Si0 1.651613 1_555
O1 Ta0 2.016610 1_455
O2 Si1 1.705211 1_555
O2 Ta1 1.879384 1_555
O3 Si2 1.670051 1_555
O3 Ta0 1.882161 1_555
O4 P1 1.584930 1_555
O4 Ta1 2.050189 1_655
O5 Si3 1.573017 1_555
O6 P2 1.509071 1_555
O7 Si4 1.660925 1_555
O7 Ta0 1.955945 1_555
O8 Si5 1.678245 1_555
O8 Ta1 1.941738 1_655
O9 P3 1.565931 1_555
O9 Ta2 2.040097 1_455
O10 Si6 1.661377 1_555
O10 Ta3 1.928950 1_555
O11 Si7 1.666356 1_555
O11 Ta4 1.925897 1_455
O12 P4 1.584858 1_555
O12 Ta3 1.957803 1_655
O13 Si8 1.659315 1_655
O13 Ta4 1.981223 1_555
O14 Si9 1.667493 1_555
O14 Ta2 1.948537 1_565
O15 Si10 1.654392 1_555
O15 Ta2 1.915292 1_555
O16 Si11 1.674299 1_555
O16 Ta3 1.963213 1_655
O17 P5 1.571597 1_555
O17 Ta4 1.970934 1_555
O18 Si11 1.637362 1_555
O18 Ta6 1.982956 1_655
O19 P5 1.569795 1_555
O19 Ta7 1.957340 1_555
O20 Si10 1.668594 1_565
O20 Ta5 1.976526 1_655
O21 P3 1.578195 1_555
O21 Ta5 1.981820 1_545
O22 Si6 1.638640 1_555
O22 Ta6 1.944276 1_555
O23 Si7 1.662873 1_555
O23 Ta7 1.949421 1_455
O24 P4 1.555443 1_555
O24 Ta6 1.998812 1_655
O25 Si8 1.658751 1_555
O25 Ta7 1.950285 1_455
O26 Si9 1.666947 1_455
O26 Ta5 1.930712 1_555
O27 Si2 1.642239 1_555
O27 Ta9 1.974275 1_555
O28 P1 1.518824 1_555
O29 Si3 1.673006 1_555
O29 Ta8 1.914679 1_555
O30 P2 1.591033 1_455
O30 Ta8 1.973505 1_445
O31 Si4 1.648002 1_455
O31 Ta9 1.913811 1_455
O32 Si5 1.587919 1_455
O33 Si0 1.639445 1_555
O33 Ta9 1.997613 1_455
O34 Si1 1.579344 1_555
O35 P0 1.605985 1_565
O35 Ta8 1.995957 1_455
O36 Si12 1.588144 1_555
O37 Si13 1.676388 1_555
O37 Ta10 1.958028 1_555
O38 P6 1.489638 1_555
O39 P7 1.522581 1_555
O40 Si14 1.682357 1_555
O40 Ta10 1.925362 1_555
O41 Si15 1.577844 1_555
O42 Si16 1.578644 1_555
O43 Si17 1.665962 1_555
O43 Ta10 1.955721 1_555
O44 P8 1.515905 1_555
O45 Si18 1.582688 1_555
O46 P9 1.599501 1_555
O46 Ta11 2.015485 1_555
O47 Si19 1.656194 1_555
O47 Ta12 1.926196 1_555
O48 P10 1.505808 1_555
O49 Si20 1.686864 1_555
O49 Ta11 1.889917 1_555
O50 Si21 1.653725 1_555
O50 Ta12 1.981807 1_555
O51 Si22 1.599739 1_555
O52 Si23 1.682945 1_555
O52 Ta11 1.973309 1_555
O53 P11 1.566416 1_555
O53 Ta12 2.007668 1_555
O54 Si22 1.652113 1_555
O54 Ta13 2.021117 1_554
O55 Si23 1.581549 1_555
O56 P11 1.574399 1_555
O56 Ta14 2.032330 1_554
O57 Si18 1.649540 1_555
O57 Ta13 1.927160 1_554
O58 P9 1.522592 1_555
O59 Si19 1.658070 1_555
O59 Ta14 2.010544 1_554
O60 P10 1.570338 1_555
O60 Ta13 2.016099 1_554
O61 Si20 1.576331 1_555
O62 Si21 1.659318 1_555
O62 Ta14 1.910568 1_554
O63 P7 1.590996 1_555
O63 Ta15 2.027890 1_555
O64 Si14 1.584289 1_555
O65 Si15 1.664198 1_555
O65 Ta16 1.929158 1_555
O66 Si16 1.677617 1_555
O66 Ta15 1.869205 1_555
O67 Si17 1.594994 1_555
O68 P8 1.577315 1_555
O68 Ta16 2.028202 1_555
O69 Si12 1.677472 1_555
O69 Ta15 1.958372 1_555
O70 Si13 1.591559 1_555
O71 P6 1.585734 1_555
O71 Ta16 2.008036 1_555
O72 Si24 1.668782 1_555
O72 Ta17 1.968689 1_556
O73 P12 1.576023 1_555
O73 Ta18 2.016590 1_556
O74 Si25 1.578964 1_555
O75 Si26 1.669916 1_555
O75 Ta17 1.900024 1_556
O76 P13 1.571276 1_555
O76 Ta18 2.018573 1_556
O77 Si27 1.593680 1_555
O78 P14 1.575520 1_555
O78 Ta17 2.050268 1_556
O79 Si28 1.665035 1_555
O79 Ta18 1.926396 1_556
O80 Si29 1.598258 1_555
O81 Si30 1.625800 1_555
O81 Ta19 2.023100 1_555
O82 Si31 1.663503 1_555
O82 Ta20 1.922503 1_555
O83 P15 1.522251 1_555
O84 Si32 1.639322 1_555
O84 Ta19 1.927132 1_555
O85 P16 1.573211 1_555
O85 Ta20 2.030761 1_555
O86 Si33 1.590134 1_555
O87 Si34 1.628487 1_555
O87 Ta19 1.996843 1_555
O88 P17 1.569678 1_555
O88 Ta20 2.101920 1_555
O89 Si35 1.579496 1_555
O90 Si34 1.657369 1_555
O90 Ta21 2.006528 1_555
O91 P17 1.519398 1_555
O92 Si35 1.692914 1_555
O92 Ta22 1.915123 1_555
O93 Si30 1.675142 1_555
O93 Ta21 1.885904 1_555
O94 Si31 1.574544 1_555
O95 P15 1.582895 1_555
O95 Ta22 2.025755 1_555
O96 Si32 1.671741 1_555
O96 Ta21 1.937033 1_555
O97 P16 1.518750 1_555
O98 Si33 1.659835 1_555
O98 Ta22 1.987946 1_555
O99 Si26 1.584624 1_555
O100 P13 1.521883 1_555
O101 Si27 1.667120 1_555
O101 Ta23 1.951691 1_555
O102 P14 1.526114 1_555
O103 Si28 1.581013 1_555
O104 Si29 1.660605 1_555
O104 Ta23 1.968141 1_555
O105 Si24 1.600931 1_555
O106 P12 1.517365 1_555
O107 Si25 1.654829 1_555
O107 Ta23 1.965368 1_555
O108 Si34 1.647310 1_555
O108 Ta0 2.036902 1_455
O109 P17 1.585566 1_555
O109 Ta1 2.085245 1_555
O110 Si35 1.601944 1_555
O111 Si30 1.665209 1_555
O111 Ta0 1.982480 1_555
O112 Si31 1.674357 1_555
O112 Ta1 2.107155 1_655
O113 P15 1.524080 1_555
O114 Si32 1.601937 1_555
O115 P16 1.588867 1_555
O115 Ta0 2.148235 1_455
O116 Si33 1.666252 1_555
O116 Ta1 1.960744 1_555
O117 Si26 1.665982 1_555
O117 Ta2 2.036918 1_455
O118 P13 1.588022 1_555
O118 Ta3 2.060176 1_555
O119 Si27 1.649359 1_555
O119 Ta4 1.968178 1_455
O120 P14 1.579858 1_555
O120 Ta3 2.043122 1_555
O121 Si28 1.688678 1_555
O121 Ta4 2.035622 1_455
O122 Si29 1.673415 1_555
O122 Ta2 2.014414 1_465
O123 Si24 1.659619 1_555
O123 Ta3 2.010177 1_655
O124 P12 1.595837 1_555
O124 Ta4 2.073805 1_555
O125 Si25 1.663566 1_555
O125 Ta2 1.973244 1_565
O126 Si12 1.678730 1_555
O126 Ta5 2.007578 1_645
O127 Si13 1.642297 1_555
O127 Ta6 1.980278 1_655
O128 P6 1.606983 1_555
O128 Ta7 2.049487 1_555
O129 P7 1.579733 1_555
O129 Ta5 2.039595 1_545
O130 Si14 1.640799 1_555
O130 Ta6 1.950913 1_555
O131 Si15 1.690978 1_555
O131 Ta7 2.058271 1_455
O132 Si16 1.661476 1_555
O132 Ta6 2.026785 1_655
O133 Si17 1.664021 1_555
O133 Ta7 2.002495 1_555
O134 P8 1.588234 1_555
O134 Ta5 2.041662 1_655
O135 Si18 1.677114 1_555
O135 Ta9 2.076109 1_555
O136 P9 1.519041 1_555
O137 Si19 1.672091 1_555
O137 Ta8 2.028938 1_555
O138 P10 1.598461 1_555
O138 Ta8 2.062871 1_545
O139 Si20 1.642225 1_555
O139 Ta9 1.977396 1_555
O140 Si21 1.607368 1_555
O141 Si22 1.656663 1_555
O141 Ta8 2.021565 1_445
O142 Si23 1.652408 1_555
O142 Ta9 1.981982 1_455
O143 P11 1.521726 1_555
O144 Si10 1.604247 1_555
O145 Si11 1.664221 1_555
O145 Ta10 2.054892 1_555
O146 P5 1.501443 1_555
O147 P3 1.523732 1_555
O148 Si6 1.658230 1_555
O148 Ta10 2.062214 1_555
O149 Si7 1.600093 1_555
O150 P4 1.526345 1_555
O151 Si8 1.660204 1_655
O151 Ta10 2.052304 1_555
O152 Si9 1.583528 1_555
O153 Si2 1.600931 1_555
O154 P1 1.589618 1_555
O154 Ta11 2.149792 1_555
O155 Si3 1.671206 1_555
O155 Ta12 1.999945 1_555
O156 P2 1.516637 1_555
O157 Si4 1.653893 1_555
O157 Ta11 1.992244 1_555
O158 Si5 1.654941 1_555
O158 Ta12 2.005035 1_555
O159 P0 1.521898 1_555
O160 Si0 1.649518 1_555
O160 Ta11 2.027716 1_555
O161 Si1 1.669742 1_555
O161 Ta12 2.022793 1_555
O162 Si24 1.647940 1_555
O162 Ta13 1.991596 1_555
O163 P12 1.531817 1_555
O164 Si25 1.672250 1_555
O164 Ta14 2.030322 1_555
O165 Si26 1.635571 1_655
O165 Ta13 1.949299 1_555
O166 P13 1.534402 1_655
O167 Si27 1.657270 1_655
O167 Ta14 1.986890 1_555
O168 Si29 1.643719 1_545
O168 Ta13 2.024267 1_555
O169 P14 1.527932 1_555
O170 Si28 1.657512 1_555
O170 Ta14 1.983316 1_555
O171 P15 1.583873 1_545
O171 Ta15 2.169349 1_555
O172 Si30 1.607686 1_555
O173 Si31 1.658118 1_555
O173 Ta16 1.967924 1_555
O174 Si32 1.650533 1_555
O174 Ta15 1.997815 1_555
O175 P16 1.531967 1_555
O176 Si33 1.654297 1_555
O176 Ta16 2.021751 1_555
O177 Si34 1.644596 1_655
O177 Ta15 2.022989 1_555
O178 P17 1.538859 1_655
O179 Si35 1.681543 1_655
O179 Ta16 2.017397 1_555
O180 Si22 1.665603 1_555
O180 Ta17 1.966942 1_555
O181 Si23 1.646751 1_555
O181 Ta18 2.009955 1_555
O182 P11 1.535714 1_555
O183 Si18 1.650280 1_455
O183 Ta17 1.983307 1_555
O184 P9 1.580514 1_455
O184 Ta18 2.040001 1_555
O185 Si19 1.600919 1_455
O186 Si20 1.660861 1_555
O186 Ta17 2.097804 1_555
O187 Si21 1.666476 1_555
O187 Ta18 1.981935 1_555
O188 P10 1.534722 1_565
O189 Si14 1.652269 1_555
O189 Ta19 2.039043 1_555
O190 Si15 1.664364 1_555
O190 Ta20 1.956322 1_555
O191 P7 1.525297 1_565
O192 Si16 1.649723 1_555
O192 Ta19 1.975733 1_555
O193 Si17 1.654875 1_555
O193 Ta20 1.949209 1_555
O194 P8 1.537567 1_555
O195 Si12 1.642482 1_455
O195 Ta19 1.953304 1_555
O196 Si13 1.643160 1_455
O196 Ta20 2.009991 1_555
O197 P6 1.532188 1_455
O198 Si0 1.637614 1_555
O198 Ta21 2.055574 1_555
O199 Si1 1.603297 1_555
O200 P0 1.568327 1_565
O200 Ta22 2.053287 1_555
O201 Si2 1.655329 1_555
O201 Ta21 1.999622 1_555
O202 P1 1.526707 1_555
O203 Si3 1.664154 1_555
O203 Ta22 2.044085 1_555
O204 P2 1.602755 1_455
O204 Ta21 2.154158 1_555
O205 Si4 1.602041 1_455
O206 Si5 1.647680 1_455
O206 Ta22 1.965348 1_555
O207 P3 1.532635 1_555
O208 Si6 1.599328 1_555
O209 Si7 1.651059 1_555
O209 Ta23 2.006695 1_555
O210 P4 1.525516 1_455
O211 Si8 1.601317 1_555
O212 Si9 1.655506 1_455
O212 Ta23 2.030866 1_555
O213 Si11 1.606733 1_555
O214 P5 1.536713 1_555
O215 Si10 1.652721 1_565
O215 Ta23 2.065338 1_555
