# generated using pymatgen
data_Ba2MgMn3Tl2Zn2O10
_symmetry_space_group_name_H-M   'P 1'
_cell_length_a   3.99871416
_cell_length_b   3.79231835
_cell_length_c   21.42550024
_cell_angle_alpha   96.28814425
_cell_angle_beta   105.24912449
_cell_angle_gamma   89.97285532
_symmetry_Int_Tables_number   1
_chemical_formula_structural   Ba2MgMn3Tl2Zn2O10
_chemical_formula_sum   'Ba2 Mg1 Mn3 Tl2 Zn2 O10'
_cell_volume   311.44338445
_cell_formula_units_Z   1
loop_
 _symmetry_equiv_pos_site_id
 _symmetry_equiv_pos_as_xyz
  1  'x, y, z'
loop_
 _atom_site_type_symbol
 _atom_site_label
 _atom_site_symmetry_multiplicity
 _atom_site_fract_x
 _atom_site_fract_y
 _atom_site_fract_z
 _atom_site_occupancy
  Ba  Ba0  1  0.11194727  0.15476878  0.28076727  1
  Ba  Ba1  1  0.75043951  0.84447998  0.73035744  1
  Mg  Mg0  1  0.03228641  0.27988367  0.62482974  1
  Mn  Mn0  1  0.39477767  0.40335257  0.82935023  1
  Mn  Mn1  1  0.47452107  0.59509962  0.18018038  1
  Mn  Mn2  1  0.24586652  0.51374578  0.01808892  1
  Tl  Tl0  1  0.78139004  0.73231023  0.40600370  1
  Tl  Tl1  1  0.32004385  0.30073119  0.50934400  1
  Zn  Zn0  1  0.97715284  0.94207426  0.89464947  1
  Zn  Zn1  1  0.86024369  0.05916350  0.09668552  1
  O  O0  1  0.42760020  0.91557025  0.84930017  1
  O  O1  1  0.25455813  0.33920002  0.72164105  1
  O  O2  1  0.91881099  0.41227529  0.84535006  1
  O  O3  1  0.87663475  0.77298245  0.61265707  1
  O  O4  1  0.78061590  0.52696152  0.04297733  1
  O  O5  1  0.97734611  0.58822766  0.18164320  1
  O  O6  1  0.61577752  0.65679590  0.28223403  1
  O  O7  1  0.41110363  0.06599202  0.13323452  1
  O  O8  1  0.41992132  0.23678429  0.40889402  1
  O  O9  1  0.19147857  0.99423003  0.98610388  1
loop_
_geom_bond_atom_site_label_1
_geom_bond_atom_site_label_2
_geom_bond_distance
_geom_bond_site_symmetry_2
Ba0 O8 2.680357 1_555
Ba0 O6 2.748287 1_445
Ba0 O6 2.752844 1_455
Ba0 O6 2.757229 1_545
Ba0 O6 2.764372 1_555
Ba0 O5 2.768553 1_455
Ba0 O5 2.795794 1_445
Ba1 O3 2.684598 1_555
Ba1 O1 2.713860 1_565
Ba1 O1 2.714570 1_555
Ba1 O1 2.808232 1_655
Ba1 O1 2.810104 1_665
Ba1 O2 3.021039 1_565
Ba1 O2 3.036606 1_555
Ba1 O0 3.132624 1_555
Ba1 O0 3.181099 1_655
Mg0 O3 1.989142 1_445
Mg0 O3 1.993140 1_455
Mg0 O1 2.017721 1_555
Mn0 O0 1.939602 1_555
Mn0 O0 1.940425 1_545
Mn0 O2 2.020308 1_455
Mn0 O2 2.032060 1_555
Mn0 O1 2.212611 1_555
Mn1 O5 1.996760 1_455
Mn1 O5 2.002840 1_555
Mn1 O6 2.095989 1_555
Mn1 O7 2.126940 1_565
Mn1 O7 2.127541 1_555
Mn2 O9 2.006176 1_544
Mn2 O9 2.007964 1_554
Mn2 O4 2.062443 1_555
Mn2 O4 2.064916 1_455
O0 Zn0 2.153797 1_555
O0 Zn0 2.257782 1_455
O2 Zn0 2.147744 1_555
O2 Zn0 2.152283 1_545
O4 Zn1 2.190460 1_565
O4 Zn1 2.196971 1_555
O6 Tl0 2.542202 1_555
O7 Zn1 2.134048 1_455
O7 Zn1 2.138870 1_555
O8 Tl1 2.277711 1_555
O8 Tl0 2.387375 1_555
O8 Tl0 2.402417 1_545
O9 Zn0 1.909182 1_455
