# generated using pymatgen
data_MgV4O5F7
_symmetry_space_group_name_H-M   'P 1'
_cell_length_a   5.33705570
_cell_length_b   7.22145730
_cell_length_c   5.61481443
_cell_angle_alpha   93.52953271
_cell_angle_beta   89.13872918
_cell_angle_gamma   89.85088611
_symmetry_Int_Tables_number   1
_chemical_formula_structural   MgV4O5F7
_chemical_formula_sum   'Mg1 V4 O5 F7'
_cell_volume   215.96613495
_cell_formula_units_Z   1
loop_
 _symmetry_equiv_pos_site_id
 _symmetry_equiv_pos_as_xyz
  1  'x, y, z'
loop_
 _atom_site_type_symbol
 _atom_site_label
 _atom_site_symmetry_multiplicity
 _atom_site_fract_x
 _atom_site_fract_y
 _atom_site_fract_z
 _atom_site_occupancy
  Mg  Mg0  1  0.97862700  0.27922800  0.39574200  1
  V  V0  1  0.49448300  0.50554500  0.50758100  1
  V  V1  1  0.51071400  0.00160300  0.51222900  1
  V  V2  1  0.98947400  0.50516600  0.99040100  1
  V  V3  1  0.97917000  0.98981000  0.96066600  1
  O  O0  1  0.93424700  0.25549400  0.03116300  1
  O  O1  1  0.80970400  0.95995200  0.71260300  1
  O  O2  1  0.61776800  0.26054300  0.50317800  1
  O  O3  1  0.43131200  0.74032800  0.50475400  1
  O  O4  1  0.08650500  0.73445400  0.99561700  1
  F  F0  1  0.82205700  0.54234800  0.32151600  1
  F  F1  1  0.71773600  0.95328000  0.20833600  1
  F  F2  1  0.68025700  0.54550500  0.81933600  1
  F  F3  1  0.28644500  0.43952400  0.22320100  1
  F  F4  1  0.30505200  0.04559100  0.81247400  1
  F  F5  1  0.19067500  0.05874400  0.33171300  1
  F  F6  1  0.16577400  0.42395800  0.66948900  1
loop_
_geom_bond_atom_site_label_1
_geom_bond_atom_site_label_2
_geom_bond_distance
_geom_bond_site_symmetry_2
Mg0 O2 2.016862 1_555
Mg0 O0 2.060935 1_555
O0 V2 1.855155 1_554
O0 V3 1.948469 1_544
O1 V3 1.675231 1_555
O1 V1 1.998929 1_565
O2 V0 1.884658 1_555
O2 V1 1.960110 1_555
O3 V0 1.728889 1_555
O3 V1 1.932939 1_565
O4 V2 1.734831 1_455
O4 V3 1.951820 1_455
F0 V0 2.049453 1_555
F0 V2 2.052863 1_554
F0 Mg0 2.140580 1_555
F1 V3 1.984691 1_554
F1 V1 2.030277 1_565
F2 V2 1.952059 1_555
F2 V0 2.030234 1_555
F3 V0 1.992987 1_555
F3 V2 2.140099 1_454
F3 Mg0 2.253347 1_455
F4 V3 1.970027 1_445
F4 V1 2.006067 1_555
F5 Mg0 1.962927 1_455
F5 V1 2.053034 1_555
F5 V3 2.410052 1_444
F6 V0 2.067522 1_555
F6 V2 2.071716 1_455
F6 Mg0 2.075155 1_455
