# generated using pymatgen
data_TlBiSe2
_symmetry_space_group_name_H-M   'P 1'
_cell_length_a   4.28232943
_cell_length_b   4.28232943
_cell_length_c   7.97776372
_cell_angle_alpha   74.43141754
_cell_angle_beta   74.43141754
_cell_angle_gamma   59.99996840
_symmetry_Int_Tables_number   1
_chemical_formula_structural   TlBiSe2
_chemical_formula_sum   'Tl1 Bi1 Se2'
_cell_volume   120.46062691
_cell_formula_units_Z   1
loop_
 _symmetry_equiv_pos_site_id
 _symmetry_equiv_pos_as_xyz
  1  'x, y, z'
loop_
 _atom_site_type_symbol
 _atom_site_label
 _atom_site_symmetry_multiplicity
 _atom_site_fract_x
 _atom_site_fract_y
 _atom_site_fract_z
 _atom_site_occupancy
  Tl  Tl0  1  0.50000000  0.50000000  0.50000000  1
  Bi  Bi0  1  0.00000000  0.00000000  -0.00000000  1
  Se  Se0  1  0.26119637  0.26119637  0.21641090  1
  Se  Se1  1  0.73880363  0.73880363  0.78358910  1
loop_
_geom_bond_atom_site_label_1
_geom_bond_atom_site_label_2
_geom_bond_distance
_geom_bond_site_symmetry_2
Bi0 Se0 2.967694 1_455
Bi0 Se0 2.967694 1_545
Bi0 Se1 2.967694 1_454
Bi0 Se1 2.967694 1_544
Bi0 Se1 2.967695 1_444
Bi0 Se0 2.967695 1_555
Se0 Tl0 3.277141 1_455
Se0 Tl0 3.277141 1_545
Se0 Tl0 3.277142 1_555
Se1 Tl0 3.277141 1_565
Se1 Tl0 3.277141 1_655
Se1 Tl0 3.277142 1_555
