# generated using pymatgen
data_DyMnSi
_symmetry_space_group_name_H-M   'P 1'
_cell_length_a   4.09981900
_cell_length_b   6.98746700
_cell_length_c   7.55017900
_cell_angle_alpha   90.00000000
_cell_angle_beta   90.00000000
_cell_angle_gamma   90.00000000
_symmetry_Int_Tables_number   1
_chemical_formula_structural   DyMnSi
_chemical_formula_sum   'Dy4 Mn4 Si4'
_cell_volume   216.29262014
_cell_formula_units_Z   4
loop_
 _symmetry_equiv_pos_site_id
 _symmetry_equiv_pos_as_xyz
  1  'x, y, z'
loop_
 _atom_site_type_symbol
 _atom_site_label
 _atom_site_symmetry_multiplicity
 _atom_site_fract_x
 _atom_site_fract_y
 _atom_site_fract_z
 _atom_site_occupancy
  Dy  Dy0  1  0.25000000  0.00758300  0.81401800  1
  Dy  Dy1  1  0.75000000  0.99241700  0.18598200  1
  Dy  Dy2  1  0.25000000  0.50758300  0.68598200  1
  Dy  Dy3  1  0.75000000  0.49241700  0.31401800  1
  Mn  Mn0  1  0.75000000  0.86218900  0.55878100  1
  Mn  Mn1  1  0.25000000  0.13781100  0.44121900  1
  Mn  Mn2  1  0.75000000  0.36218900  0.94121900  1
  Mn  Mn3  1  0.25000000  0.63781100  0.05878100  1
  Si  Si0  1  0.25000000  0.28905000  0.11007500  1
  Si  Si1  1  0.75000000  0.71095000  0.88992500  1
  Si  Si2  1  0.25000000  0.78905000  0.38992500  1
  Si  Si3  1  0.75000000  0.21095000  0.61007500  1
loop_
_geom_bond_atom_site_label_1
_geom_bond_atom_site_label_2
_geom_bond_distance
_geom_bond_site_symmetry_2
Dy0 Si3 2.931285 1_455
Dy0 Si3 2.931285 1_555
Dy0 Mn1 2.958136 1_555
Dy0 Si1 2.970981 1_545
Dy0 Si1 2.970981 1_445
Dy0 Si0 2.977342 1_556
Dy0 Mn0 2.991306 1_445
Dy0 Mn0 2.991306 1_545
Dy0 Mn3 3.176631 1_546
Dy0 Mn2 3.356182 1_455
Dy0 Mn2 3.356182 1_555
Dy1 Si2 2.931285 1_555
Dy1 Si2 2.931285 1_655
Dy1 Mn0 2.958136 1_555
Dy1 Si0 2.970981 1_565
Dy1 Si0 2.970981 1_665
Dy1 Si1 2.977342 1_554
Dy1 Mn1 2.991306 1_565
Dy1 Mn1 2.991306 1_665
Dy1 Mn2 3.176631 1_564
Dy1 Mn3 3.356182 1_555
Dy1 Mn3 3.356182 1_655
Dy2 Si1 2.931285 1_555
Dy2 Si1 2.931285 1_455
Dy2 Mn3 2.958136 1_556
Dy2 Si3 2.970981 1_455
Dy2 Si3 2.970981 1_555
Dy2 Si2 2.977342 1_555
Dy2 Mn2 2.991306 1_455
Dy2 Mn2 2.991306 1_555
Dy2 Mn1 3.176631 1_555
Dy2 Mn0 3.356182 1_455
Dy2 Mn0 3.356182 1_555
Dy3 Si0 2.931285 1_555
Dy3 Si0 2.931285 1_655
Dy3 Mn2 2.958136 1_554
Dy3 Si2 2.970981 1_655
Dy3 Si2 2.970981 1_555
Dy3 Si3 2.977342 1_555
Dy3 Mn3 2.991306 1_555
Dy3 Mn3 2.991306 1_655
Dy3 Mn0 3.176631 1_555
Dy3 Mn1 3.356182 1_655
Dy3 Mn1 3.356182 1_555
Mn0 Si2 2.467521 1_555
Mn0 Si2 2.467521 1_655
Mn0 Si3 2.467537 1_565
Mn0 Si1 2.714362 1_555
Mn1 Si3 2.467521 1_455
Mn1 Si3 2.467521 1_555
Mn1 Si2 2.467537 1_545
Mn1 Si0 2.714362 1_555
Mn2 Si0 2.467521 1_656
Mn2 Si0 2.467521 1_556
Mn2 Si1 2.467537 1_555
Mn2 Si3 2.714362 1_555
Mn3 Si1 2.467521 1_454
Mn3 Si1 2.467521 1_554
Mn3 Si0 2.467537 1_555
Mn3 Si2 2.714362 1_555
