# generated using pymatgen
data_MgMn6Nb4O18
_symmetry_space_group_name_H-M   'P 1'
_cell_length_a   5.32530619
_cell_length_b   5.32641039
_cell_length_c   14.52334696
_cell_angle_alpha   90.31914751
_cell_angle_beta   89.96415914
_cell_angle_gamma   120.26432161
_symmetry_Int_Tables_number   1
_chemical_formula_structural   MgMn6Nb4O18
_chemical_formula_sum   'Mg1 Mn6 Nb4 O18'
_cell_volume   355.79965481
_cell_formula_units_Z   1
loop_
 _symmetry_equiv_pos_site_id
 _symmetry_equiv_pos_as_xyz
  1  'x, y, z'
loop_
 _atom_site_type_symbol
 _atom_site_label
 _atom_site_symmetry_multiplicity
 _atom_site_fract_x
 _atom_site_fract_y
 _atom_site_fract_z
 _atom_site_occupancy
  Mg  Mg0  1  0.33301900  0.66766300  0.30827500  1
  Mn  Mn0  1  0.66117700  0.32890200  0.68369200  1
  Mn  Mn1  1  0.66531700  0.33189700  0.98229800  1
  Mn  Mn2  1  0.66732700  0.33520100  0.47453400  1
  Mn  Mn3  1  0.33310100  0.66836500  0.51918100  1
  Mn  Mn4  1  0.33273700  0.66607700  0.00388300  1
  Mn  Mn5  1  0.66638900  0.33240800  0.19497200  1
  Nb  Nb0  1  0.99767700  0.99733600  0.85888600  1
  Nb  Nb1  1  0.99879900  0.99978900  0.14094600  1
  Nb  Nb2  1  0.99733600  0.00007000  0.64688200  1
  Nb  Nb3  1  0.99948100  0.99918100  0.35388300  1
  O  O0  1  0.33864200  0.31564700  0.08609400  1
  O  O1  1  0.67863600  0.69229300  0.92044000  1
  O  O2  1  0.01164800  0.29039700  0.25072300  1
  O  O3  1  0.27821800  0.98781800  0.25063300  1
  O  O4  1  0.97555300  0.65937000  0.08614300  1
  O  O5  1  0.68819800  0.65289900  0.58308200  1
  O  O6  1  0.76376900  0.06433400  0.74510900  1
  O  O7  1  0.01361600  0.31886900  0.92094800  1
  O  O8  1  0.03858000  0.69307500  0.41221300  1
  O  O9  1  0.35997400  0.04268900  0.58864000  1
  O  O10  1  0.31204200  0.24284400  0.74469700  1
  O  O11  1  0.96081600  0.31891400  0.58785600  1
  O  O12  1  0.70730600  0.71974700  0.25064300  1
  O  O13  1  0.30597300  0.98447700  0.91993400  1
  O  O14  1  0.68176400  0.02113000  0.08637500  1
  O  O15  1  0.65438300  0.96425800  0.41197600  1
  O  O16  1  0.30798500  0.34584200  0.41278400  1
  O  O17  1  0.92887400  0.68767200  0.74315200  1
loop_
_geom_bond_atom_site_label_1
_geom_bond_atom_site_label_2
_geom_bond_distance
_geom_bond_site_symmetry_2
Mg0 O2 2.045027 1_555
Mg0 O12 2.047803 1_555
Mg0 O3 2.052267 1_555
Mg0 O15 2.223586 1_555
Mg0 O8 2.228057 1_555
Mg0 O16 2.249056 1_555
Mn0 O10 1.896137 1_555
Mn0 O17 1.914928 1_555
Mn0 O6 1.967383 1_555
Mn0 O9 2.077767 1_555
Mn0 O11 2.137341 1_555
Mn0 O5 2.216190 1_555
Mn1 O13 2.078636 1_545
Mn1 O7 2.089490 1_655
Mn1 O1 2.092594 1_555
Mn1 O4 2.261768 1_556
Mn1 O0 2.269957 1_556
Mn1 O14 2.281785 1_556
Mn2 O15 2.139342 1_545
Mn2 O8 2.140034 1_655
Mn2 O16 2.140425 1_555
Mn2 O5 2.267614 1_555
Mn2 O11 2.302265 1_555
Mn2 O9 2.303834 1_555
Mn3 O5 2.145699 1_555
Mn3 O11 2.165264 1_455
Mn3 O9 2.168763 1_565
Mn3 O16 2.257407 1_555
Mn3 O8 2.259229 1_555
Mn3 O15 2.267455 1_555
Mn4 O7 2.137478 1_554
Mn4 O1 2.149648 1_554
Mn4 O13 2.156359 1_554
Mn4 O14 2.213808 1_565
Mn4 O4 2.230636 1_455
Mn4 O0 2.234851 1_555
Mn5 O3 2.117876 1_545
Mn5 O12 2.118063 1_555
Mn5 O2 2.122438 1_655
Mn5 O14 2.313163 1_555
Mn5 O4 2.319268 1_555
Mn5 O0 2.323676 1_555
Nb0 O1 1.886117 1_555
Nb0 O7 1.894482 1_665
Nb0 O13 1.897905 1_655
Nb0 O6 2.206049 1_565
Nb0 O17 2.245156 1_555
Nb0 O10 2.253210 1_665
Nb1 O0 1.919484 1_665
Nb1 O14 1.920304 1_565
Nb1 O4 1.922068 1_555
Nb1 O2 2.192815 1_665
Nb1 O3 2.203551 1_655
Nb1 O12 2.205038 1_555
Nb2 O5 1.975471 1_545
Nb2 O11 2.001564 1_555
Nb2 O9 2.013606 1_655
Nb2 O6 2.029995 1_555
Nb2 O17 2.066478 1_545
Nb2 O10 2.072919 1_655
Nb3 O16 1.940795 1_665
Nb3 O8 1.943493 1_655
Nb3 O15 1.943967 1_555
Nb3 O12 2.127936 1_555
Nb3 O3 2.131280 1_655
Nb3 O2 2.139947 1_665
