# generated using pymatgen
data_Na7Mg2SiSn2P5O24
_symmetry_space_group_name_H-M   'P 1'
_cell_length_a   9.01869128
_cell_length_b   9.01667096
_cell_length_c   22.12360970
_cell_angle_alpha   90.09580897
_cell_angle_beta   89.85201980
_cell_angle_gamma   119.98776039
_symmetry_Int_Tables_number   1
_chemical_formula_structural   Na7Mg2SiSn2P5O24
_chemical_formula_sum   'Na21 Mg6 Si3 Sn6 P15 O72'
_cell_volume   1558.21873634
_cell_formula_units_Z   3
loop_
 _symmetry_equiv_pos_site_id
 _symmetry_equiv_pos_as_xyz
  1  'x, y, z'
loop_
 _atom_site_type_symbol
 _atom_site_label
 _atom_site_symmetry_multiplicity
 _atom_site_fract_x
 _atom_site_fract_y
 _atom_site_fract_z
 _atom_site_occupancy
  Na  Na0  1  0.36007495  0.37045519  0.25297985  1
  Na  Na1  1  0.00666701  0.63721367  0.25054501  1
  Na  Na2  1  0.62931553  0.64529439  0.75106939  1
  Na  Na3  1  0.00440769  0.36459543  0.75347152  1
  Na  Na4  1  0.36628685  0.98966117  0.75087147  1
  Na  Na5  1  0.29573280  0.31580792  0.58366926  1
  Na  Na6  1  0.03138695  0.70926492  0.58510566  1
  Na  Na7  1  0.67342199  0.97172770  0.58924332  1
  Na  Na8  1  0.29108930  0.96934559  0.08557969  1
  Na  Na9  1  0.68363486  0.70429154  0.08451971  1
  Na  Na10  1  0.02726981  0.32885522  0.08627296  1
  Na  Na11  1  0.95943581  0.65446865  0.92251281  1
  Na  Na12  1  0.69585793  0.03693117  0.91675654  1
  Na  Na13  1  0.96337497  0.30509469  0.41820615  1
  Na  Na14  1  0.34621301  0.03983259  0.42184159  1
  Na  Na15  1  0.99663389  0.99074455  0.50429877  1
  Na  Na16  1  0.00886833  0.00293860  0.00423259  1
  Na  Na17  1  0.65528517  0.32943204  0.83877895  1
  Na  Na18  1  0.66665820  0.33532516  0.33822432  1
  Na  Na19  1  0.34133053  0.67795966  0.17213944  1
  Na  Na20  1  0.34065124  0.67568557  0.67122094  1
  Mg  Mg0  1  0.99954245  0.99906257  0.64890416  1
  Mg  Mg1  1  0.99776721  0.99646727  0.14921128  1
  Mg  Mg2  1  0.66249951  0.33613413  0.98195398  1
  Mg  Mg3  1  0.66261461  0.33633766  0.48140783  1
  Mg  Mg4  1  0.33991840  0.67322103  0.31525006  1
  Mg  Mg5  1  0.33636189  0.66875965  0.81570045  1
  Si  Si0  1  0.70354939  0.00012798  0.74770253  1
  Si  Si1  1  0.36733238  0.03493396  0.57977026  1
  Si  Si2  1  0.96393293  0.63087146  0.08047302  1
  Sn  Sn0  1  0.99432356  0.99462697  0.34930108  1
  Sn  Sn1  1  0.00253426  0.00502704  0.84974110  1
  Sn  Sn2  1  0.66495032  0.32765565  0.68222068  1
  Sn  Sn3  1  0.66982618  0.33048441  0.18304185  1
  Sn  Sn4  1  0.33151583  0.66454940  0.01544553  1
  Sn  Sn5  1  0.33814381  0.66985944  0.51479468  1
  P  P0  1  0.29720383  0.00177212  0.24840666  1
  P  P1  1  0.70211473  0.70284939  0.24688690  1
  P  P2  1  0.99742744  0.29352084  0.24875780  1
  P  P3  1  0.29523912  0.29495196  0.74758277  1
  P  P4  1  0.99801665  0.70403765  0.74844205  1
  P  P5  1  0.96340943  0.33554621  0.58014439  1
  P  P6  1  0.66643204  0.62510548  0.58201469  1
  P  P7  1  0.66577350  0.03886689  0.08004105  1
  P  P8  1  0.37372132  0.33369315  0.08277634  1
  P  P9  1  0.62872329  0.66507975  0.91404480  1
  P  P10  1  0.03886074  0.36886021  0.91470996  1
  P  P11  1  0.33190155  0.96387717  0.91440534  1
  P  P12  1  0.63097812  0.96202192  0.41523167  1
  P  P13  1  0.33315631  0.37112640  0.41310449  1
  P  P14  1  0.03684729  0.66648737  0.41385841  1
  O  O0  1  0.21957912  0.04062346  0.30716855  1
  O  O1  1  0.82363701  0.78121682  0.30356243  1
  O  O2  1  0.97000109  0.18648131  0.30828024  1
  O  O3  1  0.22015118  0.17266187  0.80399565  1
  O  O4  1  0.96226830  0.78102701  0.80743021  1
  O  O5  1  0.82589647  0.04439826  0.80978930  1
  O  O6  1  0.79258949  0.97103690  0.68983397  1
  O  O7  1  0.18801884  0.21276523  0.69144779  1
  O  O8  1  0.02895346  0.81725224  0.69367921  1
  O  O9  1  0.78646759  0.80648801  0.19036563  1
  O  O10  1  0.02114893  0.20610566  0.19376608  1
  O  O11  1  0.18608278  0.97855838  0.19332869  1
  O  O12  1  0.89201073  0.37982429  0.63920959  1
  O  O13  1  0.48886130  0.11066316  0.64225320  1
  O  O14  1  0.62912999  0.51664088  0.64249196  1
  O  O15  1  0.88736676  0.50710640  0.14257960  1
  O  O16  1  0.61774808  0.11217407  0.13699444  1
  O  O17  1  0.48355642  0.37175286  0.14268573  1
  O  O18  1  0.46038990  0.29963487  0.03021691  1
  O  O19  1  0.84534038  0.54155751  0.02283358  1
  O  O20  1  0.69076250  0.14663475  0.02398757  1
  O  O21  1  0.45657234  0.15377631  0.52213384  1
  O  O22  1  0.69657481  0.53494966  0.52973799  1
  O  O23  1  0.85186550  0.31199697  0.52550727  1
  O  O24  1  0.55232378  0.70371661  0.97320561  1
  O  O25  1  0.14557422  0.44681857  0.97451875  1
  O  O26  1  0.29410022  0.84913630  0.97349822  1
  O  O27  1  0.56134477  0.85764565  0.47630827  1
  O  O28  1  0.29488074  0.44701566  0.47255594  1
  O  O29  1  0.15204754  0.70511872  0.47278561  1
  O  O30  1  0.12474990  0.64276382  0.35866030  1
  O  O31  1  0.51059808  0.86901050  0.36363603  1
  O  O32  1  0.34676508  0.47722952  0.35801473  1
  O  O33  1  0.12755548  0.48107991  0.86017733  1
  O  O34  1  0.35457194  0.87518057  0.85936932  1
  O  O35  1  0.52333791  0.65084644  0.85883965  1
  O  O36  1  0.02914616  0.83769653  0.41070361  1
  O  O37  1  0.81597862  0.98458250  0.41102366  1
  O  O38  1  0.16290713  0.18710239  0.41163969  1
  O  O39  1  0.01932754  0.18532210  0.91346361  1
  O  O40  1  0.16108816  0.97157551  0.91123229  1
  O  O41  1  0.81279452  0.83438516  0.91278744  1
  O  O42  1  0.98217086  0.17690074  0.58772353  1
  O  O43  1  0.17716766  0.01003594  0.58732354  1
  O  O44  1  0.81992424  0.80600984  0.58793328  1
  O  O45  1  0.98965917  0.82166043  0.08767156  1
  O  O46  1  0.82537206  0.02215056  0.08916430  1
  O  O47  1  0.19121581  0.18233335  0.09013473  1
  O  O48  1  0.69269836  0.18110666  0.74694616  1
  O  O49  1  0.48056186  0.31883955  0.74469740  1
  O  O50  1  0.82842649  0.52512169  0.74421559  1
  O  O51  1  0.68727010  0.51864684  0.24538862  1
  O  O52  1  0.83382672  0.31401152  0.24719750  1
  O  O53  1  0.47612316  0.17187602  0.24499841  1
  O  O54  1  0.65449660  0.51097842  0.91984235  1
  O  O55  1  0.85818962  0.34700768  0.92006854  1
  O  O56  1  0.49279446  0.13847127  0.92207938  1
  O  O57  1  0.65483706  0.14341878  0.42062201  1
  O  O58  1  0.48667053  0.34472512  0.41883963  1
  O  O59  1  0.86183894  0.50670756  0.42190460  1
  O  O60  1  0.36505500  0.50401249  0.07731802  1
  O  O61  1  0.15779657  0.64571937  0.07872337  1
  O  O62  1  0.50355318  0.85355838  0.07658911  1
  O  O63  1  0.35337067  0.84170491  0.57806852  1
  O  O64  1  0.49638619  0.63443035  0.57727639  1
  O  O65  1  0.14746001  0.49878465  0.57633463  1
  O  O66  1  0.31062622  0.84048834  0.25614542  1
  O  O67  1  0.52135732  0.67442489  0.25509928  1
  O  O68  1  0.15672999  0.47421529  0.25446750  1
  O  O69  1  0.31125562  0.47129356  0.75662234  1
  O  O70  1  0.15153671  0.67597779  0.75621315  1
  O  O71  1  0.51268318  0.83496008  0.75449192  1
loop_
_geom_bond_atom_site_label_1
_geom_bond_atom_site_label_2
_geom_bond_distance
_geom_bond_site_symmetry_2
Na0 O67 2.375846 1_555
Na0 O68 2.440140 1_555
Na0 O53 2.490741 1_555
Na0 O32 2.539235 1_555
Na0 O51 2.564757 1_555
Na0 O17 2.677214 1_555
Na0 O0 2.850352 1_555
Na0 O10 2.956620 1_555
Na1 O66 2.422383 1_555
Na1 O68 2.447146 1_555
Na1 O51 2.525147 1_455
Na1 O52 2.527219 1_455
Na1 O30 2.610996 1_555
Na1 O15 2.642228 1_455
Na1 O1 2.813165 1_455
Na1 O11 2.952541 1_555
Na2 O71 2.415397 1_555
Na2 O69 2.490957 1_555
Na2 O50 2.522854 1_555
Na2 O49 2.556595 1_555
Na2 O35 2.576123 1_555
Na2 O14 2.665451 1_555
Na2 O6 2.882696 1_555
Na2 O4 2.899999 1_555
Na3 O70 2.433704 1_555
Na3 O69 2.434773 1_555
Na3 O48 2.452135 1_455
Na3 O33 2.597847 1_555
Na3 O50 2.637219 1_455
Na3 O12 2.755020 1_455
Na3 O5 2.799113 1_455
Na3 O7 2.957584 1_555
Na4 O71 2.353135 1_555
Na4 O70 2.507751 1_555
Na4 O48 2.563739 1_565
Na4 O34 2.595453 1_555
Na4 O49 2.614040 1_565
Na4 O13 2.641277 1_565
Na4 O3 2.828501 1_565
Na4 O8 2.925555 1_555
Na5 O43 2.409257 1_555
Na5 O42 2.456082 1_455
Na5 O64 2.520208 1_555
Na5 O7 2.566269 1_555
Na5 O65 2.596900 1_555
Na5 O28 2.731571 1_555
Na5 O21 2.862446 1_555
Na5 O14 2.929692 1_555
Na6 O43 2.349752 1_565
Na6 O44 2.462548 1_455
Na6 O63 2.532707 1_555
Na6 O65 2.592094 1_555
Na6 O8 2.594534 1_555
Na6 O29 2.717870 1_555
Na6 O12 2.847465 1_455
Na6 O22 2.890858 1_455
Na7 O44 2.439764 1_555
Na7 O42 2.455076 1_565
Na7 O6 2.475221 1_555
Na7 O63 2.527275 1_555
Na7 O64 2.648449 1_555
Na7 O27 2.699546 1_555
Na7 O13 2.790105 1_565
Na8 O45 2.355102 1_455
Na8 O47 2.497518 1_565
Na8 O61 2.544787 1_555
Na8 O11 2.579254 1_555
Na8 O62 2.607341 1_555
Na8 O26 2.710034 1_554
Na8 O16 2.802018 1_565
Na8 O18 2.856169 1_565
Na9 O45 2.413115 1_555
Na9 O46 2.489206 1_565
Na9 O9 2.518426 1_555
Na9 O60 2.521192 1_555
Na9 O62 2.582096 1_555
Na9 O24 2.734248 1_554
Na9 O19 2.874798 1_555
Na9 O17 2.914587 1_555
Na10 O47 2.427472 1_555
Na10 O46 2.435920 1_455
Na10 O61 2.492988 1_555
Na10 O10 2.613545 1_555
Na10 O60 2.646212 1_555
Na10 O25 2.691327 1_554
Na10 O15 2.781964 1_455
Na10 O20 2.972917 1_455
Na11 O54 2.384219 1_555
Na11 O19 2.443329 1_556
Na11 O55 2.447754 1_555
Na11 O40 2.519337 1_655
Na11 O41 2.564041 1_555
Na11 O4 2.786649 1_555
Na11 O26 2.859748 1_655
Na12 O55 2.423579 1_555
Na12 O56 2.425001 1_555
Na12 O41 2.525781 1_545
Na12 O39 2.530493 1_655
Na12 O20 2.577899 1_556
Na12 O5 2.624411 1_555
Na12 O24 2.894589 1_545
Na12 O34 2.956248 1_545
Na13 O59 2.411035 1_555
Na13 O57 2.411524 1_555
Na13 O38 2.510613 1_655
Na13 O37 2.510672 1_545
Na13 O23 2.588499 1_555
Na13 O2 2.667631 1_555
Na13 O28 2.865467 1_655
Na13 O30 2.949156 1_655
Na14 O58 2.384476 1_555
Na14 O21 2.439456 1_555
Na14 O57 2.453832 1_555
Na14 O36 2.520273 1_545
Na14 O38 2.597030 1_555
Na14 O0 2.786364 1_555
Na14 O29 2.857149 1_545
Na14 O31 2.914555 1_545
Na15 O43 2.405485 1_665
Na15 O44 2.465652 1_555
Na15 O42 2.539313 1_565
Na15 O36 2.582590 1_655
Na15 O37 2.615814 1_555
Na15 O38 2.632095 1_665
Na16 O45 2.415507 1_445
Na16 O47 2.505884 1_555
Na16 O46 2.562954 1_455
Na16 O40 2.563098 1_544
Na16 O39 2.569216 1_554
Na16 O41 2.617513 1_444
Na17 O54 2.428524 1_555
Na17 O56 2.445995 1_555
Na17 O55 2.516791 1_555
Na17 O48 2.543355 1_555
Na17 O49 2.586570 1_555
Na17 O50 2.677635 1_555
Na18 O58 2.438254 1_555
Na18 O57 2.480671 1_555
Na18 O59 2.490379 1_555
Na18 O52 2.576456 1_555
Na18 O51 2.585995 1_555
Na18 O53 2.618259 1_555
Na19 O66 2.464193 1_555
Na19 O67 2.464349 1_555
Na19 O68 2.530277 1_555
Na19 O61 2.574923 1_555
Na19 O62 2.606845 1_555
Na19 O60 2.688607 1_555
Na20 O71 2.375312 1_555
Na20 O63 2.517660 1_555
Na20 O70 2.536243 1_555
Na20 O69 2.560691 1_555
Na20 O64 2.633512 1_555
Na20 O65 2.686315 1_555
Mg0 O6 1.971799 1_555
Mg0 O8 2.044616 1_655
Mg0 O7 2.053341 1_665
Mg0 O43 2.064668 1_665
Mg0 O44 2.158326 1_555
Mg0 O42 2.165023 1_565
Mg1 O9 2.031722 1_555
Mg1 O11 2.036268 1_655
Mg1 O10 2.045849 1_665
Mg1 O45 2.054612 1_555
Mg1 O46 2.146480 1_565
Mg1 O47 2.152539 1_665
Mg2 O19 1.979090 1_556
Mg2 O18 1.990562 1_556
Mg2 O20 2.071510 1_556
Mg2 O54 2.121402 1_555
Mg2 O56 2.132937 1_555
Mg2 O55 2.194057 1_555
Mg3 O22 1.972590 1_555
Mg3 O21 1.978152 1_555
Mg3 O23 2.072912 1_555
Mg3 O59 2.134606 1_555
Mg3 O58 2.138076 1_555
Mg3 O57 2.170235 1_555
Mg4 O31 1.979307 1_555
Mg4 O32 2.033930 1_555
Mg4 O30 2.054749 1_555
Mg4 O67 2.102303 1_555
Mg4 O66 2.112094 1_555
Mg4 O68 2.190331 1_555
Mg5 O35 2.015338 1_555
Mg5 O34 2.028243 1_555
Mg5 O33 2.046615 1_555
Mg5 O71 2.054674 1_555
Mg5 O69 2.126136 1_555
Mg5 O70 2.152869 1_555
O0 P0 1.594306 1_555
O0 Sn0 2.077782 1_445
O1 P1 1.581971 1_555
O1 Sn0 2.033923 1_555
O2 P2 1.578196 1_555
O2 Sn0 2.061514 1_545
O3 P3 1.576667 1_555
O3 Sn1 2.047004 1_555
O4 P4 1.583499 1_555
O4 Sn1 2.085587 1_665
O5 Si0 1.682050 1_555
O5 Sn1 2.004666 1_655
O6 Si0 1.599015 1_565
O7 P3 1.520973 1_555
O8 P4 1.518372 1_455
O9 P1 1.517886 1_555
O10 P2 1.520257 1_455
O11 P0 1.526013 1_565
O12 P5 1.591377 1_555
O12 Sn2 2.085354 1_555
O13 Si1 1.683737 1_555
O13 Sn2 2.006842 1_555
O14 P6 1.591534 1_555
O14 Sn2 2.082628 1_555
O15 Si2 1.685237 1_555
O15 Sn3 2.014718 1_555
O16 P7 1.578835 1_555
O16 Sn3 2.050542 1_555
O17 P8 1.587817 1_555
O17 Sn3 2.095571 1_555
O18 P8 1.513748 1_555
O19 Si2 1.600372 1_555
O20 P7 1.522019 1_555
O21 Si1 1.599720 1_555
O22 P6 1.512766 1_555
O23 P5 1.519903 1_555
O24 P9 1.594671 1_555
O24 Sn4 2.062075 1_556
O25 P10 1.580627 1_555
O25 Sn4 2.048682 1_556
O26 P11 1.595426 1_555
O26 Sn4 2.076869 1_556
O27 P12 1.585875 1_555
O27 Sn5 2.057391 1_555
O28 P13 1.596280 1_555
O28 Sn5 2.067537 1_555
O29 P14 1.595012 1_555
O29 Sn5 2.079451 1_555
O30 P14 1.526159 1_555
O31 P12 1.509316 1_555
O32 P13 1.517076 1_555
O33 P10 1.519620 1_555
O34 P11 1.524090 1_555
O35 P9 1.514928 1_555
O36 P14 1.581260 1_555
O36 Sn0 2.097392 1_455
O37 P12 1.579177 1_555
O37 Sn0 2.074461 1_555
O38 P13 1.601598 1_555
O38 Sn0 2.142609 1_445
O39 P10 1.574466 1_555
O39 Sn1 2.097734 1_555
O40 P11 1.578098 1_555
O40 Sn1 2.104519 1_565
O41 P9 1.598022 1_555
O41 Sn1 2.145695 1_665
O42 P5 1.531614 1_555
O43 Si1 1.622788 1_555
O44 P6 1.528773 1_555
O45 Si2 1.624454 1_555
O46 P7 1.534182 1_555
O47 P8 1.533659 1_555
O48 Si0 1.682987 1_555
O48 Sn2 2.048885 1_555
O49 P3 1.575937 1_555
O49 Sn2 2.130389 1_555
O50 P4 1.576167 1_555
O50 Sn2 2.145500 1_555
O51 P1 1.598484 1_555
O51 Sn3 2.128907 1_555
O52 P2 1.576423 1_555
O52 Sn3 2.110790 1_555
O53 P0 1.577230 1_555
O53 Sn3 2.114867 1_555
O54 P9 1.524710 1_555
O55 P10 1.544675 1_655
O56 P11 1.526285 1_545
O57 P12 1.543815 1_545
O58 P13 1.523177 1_555
O59 P14 1.524724 1_655
O60 P8 1.581063 1_555
O60 Sn4 2.122958 1_555
O61 Si2 1.685821 1_455
O61 Sn4 2.041278 1_555
O62 P7 1.579427 1_565
O62 Sn4 2.121666 1_555
O63 Si1 1.683249 1_565
O63 Sn5 2.039689 1_555
O64 P6 1.581049 1_555
O64 Sn5 2.125321 1_555
O65 P5 1.576769 1_455
O65 Sn5 2.129239 1_555
O66 P0 1.528301 1_565
O67 P1 1.528792 1_555
O68 P2 1.547551 1_455
O69 P3 1.535742 1_555
O70 P4 1.536911 1_455
O71 Si0 1.624918 1_565
