# generated using pymatgen
data_NaSbF4
_symmetry_space_group_name_H-M   'P 1'
_cell_length_a   5.70780800
_cell_length_b   8.16203700
_cell_length_c   8.63544499
_cell_angle_alpha   89.42292840
_cell_angle_beta   90.00000000
_cell_angle_gamma   90.00000000
_symmetry_Int_Tables_number   1
_chemical_formula_structural   NaSbF4
_chemical_formula_sum   'Na4 Sb4 F16'
_cell_volume   402.28200774
_cell_formula_units_Z   4
loop_
 _symmetry_equiv_pos_site_id
 _symmetry_equiv_pos_as_xyz
  1  'x, y, z'
loop_
 _atom_site_type_symbol
 _atom_site_label
 _atom_site_symmetry_multiplicity
 _atom_site_fract_x
 _atom_site_fract_y
 _atom_site_fract_z
 _atom_site_occupancy
  Na  Na0  1  0.79014300  0.85560300  0.33473800  1
  Na  Na1  1  0.29014300  0.14439700  0.16526200  1
  Na  Na2  1  0.70985700  0.85560300  0.83473800  1
  Na  Na3  1  0.20985700  0.14439700  0.66526200  1
  Sb  Sb0  1  0.28995600  0.67021400  0.14982100  1
  Sb  Sb1  1  0.78995600  0.32978600  0.35017900  1
  Sb  Sb2  1  0.71004400  0.32978600  0.85017900  1
  Sb  Sb3  1  0.21004400  0.67021400  0.64982100  1
  F  F0  1  0.57275800  0.81859500  0.08724400  1
  F  F1  1  0.62413300  0.11271500  0.32592600  1
  F  F2  1  0.00444900  0.40124600  0.70490900  1
  F  F3  1  0.92724200  0.81859500  0.58724400  1
  F  F4  1  0.87586700  0.11271500  0.82592700  1
  F  F5  1  0.99555100  0.59875400  0.29509100  1
  F  F6  1  0.42724200  0.18140500  0.91275600  1
  F  F7  1  0.43527000  0.70852200  0.35754600  1
  F  F8  1  0.06473000  0.70852200  0.85754600  1
  F  F9  1  0.50444900  0.59875400  0.79509100  1
  F  F10  1  0.12413300  0.88728500  0.17407400  1
  F  F11  1  0.93527000  0.29147800  0.14245400  1
  F  F12  1  0.49555100  0.40124600  0.20490900  1
  F  F13  1  0.07275800  0.18140500  0.41275600  1
  F  F14  1  0.37586700  0.88728500  0.67407300  1
  F  F15  1  0.56473000  0.29147800  0.64245400  1
loop_
_geom_bond_atom_site_label_1
_geom_bond_atom_site_label_2
_geom_bond_distance
_geom_bond_site_symmetry_2
F0 Sb0 2.085940 1_555
F0 Na2 2.333436 1_554
F0 Na0 2.492292 1_555
F1 Sb1 2.021445 1_555
F1 Na0 2.303123 1_545
F1 Na1 2.370381 1_555
F2 Sb2 2.173228 1_455
F2 Na3 2.429240 1_555
F2 Sb3 2.530181 1_555
F3 Sb3 2.085940 1_655
F3 Na0 2.333436 1_555
F3 Na2 2.492292 1_555
F4 Sb2 2.021444 1_555
F4 Na2 2.303123 1_545
F4 Na3 2.370386 1_655
F5 Sb0 2.173228 1_655
F5 Na0 2.429240 1_555
F5 Sb1 2.530181 1_555
F6 Sb2 2.085940 1_555
F6 Na1 2.333436 1_556
F6 Na3 2.492292 1_555
F7 Sb0 2.003676 1_555
F7 Na0 2.361784 1_555
F8 Sb3 2.003676 1_555
F8 Na2 2.361784 1_455
F9 Sb3 2.173228 1_555
F9 Na2 2.429240 1_555
F9 Sb2 2.530181 1_555
F10 Sb0 2.021445 1_555
F10 Na1 2.303123 1_565
F10 Na0 2.370381 1_455
F11 Sb1 2.003676 1_555
F11 Na1 2.361784 1_655
F12 Sb1 2.173228 1_555
F12 Na1 2.429240 1_555
F12 Sb0 2.530181 1_555
F13 Sb1 2.085940 1_455
F13 Na3 2.333436 1_555
F13 Na1 2.492292 1_555
F14 Sb3 2.021444 1_555
F14 Na3 2.303123 1_565
F14 Na2 2.370386 1_555
F15 Sb2 2.003676 1_555
F15 Na3 2.361784 1_555
