# generated using pymatgen
data_VFeH2O5
_symmetry_space_group_name_H-M   'P 1'
_cell_length_a   5.56057200
_cell_length_b   5.70972824
_cell_length_c   6.76819061
_cell_angle_alpha   100.49305977
_cell_angle_beta   95.03978208
_cell_angle_gamma   107.19249355
_symmetry_Int_Tables_number   1
_chemical_formula_structural   VFeH2O5
_chemical_formula_sum   'V2 Fe2 H4 O10'
_cell_volume   199.54186410
_cell_formula_units_Z   2
loop_
 _symmetry_equiv_pos_site_id
 _symmetry_equiv_pos_as_xyz
  1  'x, y, z'
loop_
 _atom_site_type_symbol
 _atom_site_label
 _atom_site_symmetry_multiplicity
 _atom_site_fract_x
 _atom_site_fract_y
 _atom_site_fract_z
 _atom_site_occupancy
  V  V0  1  0.25793500  0.62096200  0.75581000  1
  V  V1  1  0.74206500  0.37903800  0.24419000  1
  Fe  Fe0  1  0.63622100  0.21672000  0.69928300  1
  Fe  Fe1  1  0.36377900  0.78328000  0.30071700  1
  H  H0  1  0.08003100  0.11331800  0.70391200  1
  H  H1  1  0.91996900  0.88668200  0.29608800  1
  H  H2  1  0.87398200  0.85032800  0.71180000  1
  H  H3  1  0.12601800  0.14967200  0.28820000  1
  O  O0  1  0.64737200  0.63881200  0.33059300  1
  O  O1  1  0.62349400  0.26224600  0.99379300  1
  O  O2  1  0.37650600  0.73775400  0.00620700  1
  O  O3  1  0.35262800  0.36118800  0.66940700  1
  O  O4  1  0.37782700  0.86160700  0.61793000  1
  O  O5  1  0.90871000  0.03390400  0.73759000  1
  O  O6  1  0.07515000  0.47082900  0.27839400  1
  O  O7  1  0.92485000  0.52917100  0.72160600  1
  O  O8  1  0.09129000  0.96609600  0.26241000  1
  O  O9  1  0.62217300  0.13839300  0.38207000  1
loop_
_geom_bond_atom_site_label_1
_geom_bond_atom_site_label_2
_geom_bond_distance
_geom_bond_site_symmetry_2
Fe0 O1 1.973007 1_555
Fe0 O7 1.986941 1_555
Fe0 O3 1.995430 1_555
Fe0 O4 2.052049 1_545
Fe0 O9 2.101356 1_555
Fe0 O5 2.101704 1_555
Fe1 O2 1.973007 1_555
Fe1 O6 1.986941 1_555
Fe1 O0 1.995430 1_555
Fe1 O9 2.052049 1_565
Fe1 O4 2.101356 1_555
Fe1 O8 2.101704 1_555
H0 O5 0.992735 1_455
H1 O8 0.992735 1_655
H2 O5 0.987014 1_565
H3 O8 0.987014 1_545
O0 V1 1.737555 1_555
O1 V1 1.698133 1_556
O2 V0 1.698133 1_554
O3 V0 1.737555 1_555
O4 V0 1.799458 1_555
O6 V1 1.750809 1_455
O7 V0 1.750809 1_655
O9 V1 1.799458 1_555
