# generated using pymatgen
data_CeCoGe3
_symmetry_space_group_name_H-M   'P 1'
_cell_length_a   4.29728520
_cell_length_b   4.29728629
_cell_length_c   5.75826604
_cell_angle_alpha   111.90945441
_cell_angle_beta   111.90943594
_cell_angle_gamma   89.99999530
_symmetry_Int_Tables_number   1
_chemical_formula_structural   CeCoGe3
_chemical_formula_sum   'Ce1 Co1 Ge3'
_cell_volume   90.32500477
_cell_formula_units_Z   1
loop_
 _symmetry_equiv_pos_site_id
 _symmetry_equiv_pos_as_xyz
  1  'x, y, z'
loop_
 _atom_site_type_symbol
 _atom_site_label
 _atom_site_symmetry_multiplicity
 _atom_site_fract_x
 _atom_site_fract_y
 _atom_site_fract_z
 _atom_site_occupancy
  Ce  Ce0  1  0.33637162  0.33637162  0.67274425  1
  Co  Co0  1  0.00298346  0.00298346  0.00596693  1
  Ge  Ge0  1  0.59618118  0.09618118  0.19236136  1
  Ge  Ge1  1  0.77038156  0.77038156  0.54076311  1
  Ge  Ge2  1  0.09618118  0.59618118  0.19236136  1
loop_
_geom_bond_atom_site_label_1
_geom_bond_atom_site_label_2
_geom_bond_distance
_geom_bond_site_symmetry_2
Ce0 Ge1 3.106453 1_445
Ce0 Ge1 3.106456 1_545
Ce0 Ge1 3.106456 1_455
Ce0 Ge1 3.106459 1_555
Ce0 Ge2 3.183960 1_545
Ce0 Ge0 3.183960 1_455
Ce0 Ge0 3.183966 1_555
Ce0 Ge2 3.183966 1_555
Ce0 Co0 3.261372 1_555
Ce0 Ge2 3.328100 1_556
Ce0 Ge0 3.328101 1_556
Ce0 Ge0 3.328106 1_566
Ce0 Ge2 3.328106 1_656
Ce0 Co0 3.448160 1_556
Ce0 Co0 3.448162 1_566
Ce0 Co0 3.448162 1_656
Ce0 Co0 3.448165 1_666
Co0 Ge1 2.275426 1_444
Co0 Ge0 2.334064 1_455
Co0 Ge2 2.334065 1_545
Co0 Ge0 2.334068 1_555
Co0 Ge2 2.334068 1_555
Ge0 Ge1 2.742385 1_555
Ge0 Ge1 2.742389 1_545
Ge1 Ge2 2.742385 1_555
Ge1 Ge2 2.742389 1_655
