# generated using pymatgen
data_Na8ZrZn3(PO4)6
_symmetry_space_group_name_H-M   'P 1'
_cell_length_a   9.11206735
_cell_length_b   9.11206704
_cell_length_c   22.25220281
_cell_angle_alpha   90.00000000
_cell_angle_beta   90.00000000
_cell_angle_gamma   120.00000118
_symmetry_Int_Tables_number   1
_chemical_formula_structural   Na8ZrZn3(PO4)6
_chemical_formula_sum   'Na24 Zr3 Zn9 P18 O72'
_cell_volume   1600.06440210
_cell_formula_units_Z   3
loop_
 _symmetry_equiv_pos_site_id
 _symmetry_equiv_pos_as_xyz
  1  'x, y, z'
loop_
 _atom_site_type_symbol
 _atom_site_label
 _atom_site_symmetry_multiplicity
 _atom_site_fract_x
 _atom_site_fract_y
 _atom_site_fract_z
 _atom_site_occupancy
  Na  Na0  1  0.63215792  0.99885138  0.25136138  1
  Na  Na1  1  0.36669345  0.36784208  0.25136138  1
  Na  Na2  1  0.00114862  0.63330655  0.25136138  1
  Na  Na3  1  0.64324587  0.63075549  0.74309351  1
  Na  Na4  1  0.98750962  0.35675413  0.74309351  1
  Na  Na5  1  0.36924451  0.01249038  0.74309351  1
  Na  Na6  1  0.29592686  0.33460346  0.58134073  1
  Na  Na7  1  0.03867760  0.70407314  0.58134073  1
  Na  Na8  1  0.66539654  0.96132240  0.58134073  1
  Na  Na9  1  0.29483422  0.96325995  0.09073311  1
  Na  Na10  1  0.66842673  0.70516578  0.09073311  1
  Na  Na11  1  0.03674005  0.33157327  0.09073311  1
  Na  Na12  1  0.97252909  0.67925582  0.91508121  1
  Na  Na13  1  0.70672572  0.02747091  0.91508121  1
  Na  Na14  1  0.32074418  0.29327428  0.91508121  1
  Na  Na15  1  0.97672076  0.29664963  0.40920419  1
  Na  Na16  1  0.31992787  0.02327924  0.40920419  1
  Na  Na17  1  0.70335037  0.68007213  0.40920419  1
  Na  Na18  1  0.00000000  0.00000000  0.49694290  1
  Na  Na19  1  0.00000000  0.00000000  0.00529471  1
  Na  Na20  1  0.66666700  0.33333300  0.82663326  1
  Na  Na21  1  0.66666700  0.33333300  0.32479842  1
  Na  Na22  1  0.33333300  0.66666700  0.17214774  1
  Na  Na23  1  0.33333300  0.66666700  0.65696129  1
  Zr  Zr0  1  0.66666700  0.33333300  0.98512089  1
  Zr  Zr1  1  0.66666700  0.33333300  0.48220162  1
  Zr  Zr2  1  0.33333300  0.66666700  0.81486968  1
  Zn  Zn0  1  0.00000000  0.00000000  0.34197862  1
  Zn  Zn1  1  0.00000000  0.00000000  0.84402557  1
  Zn  Zn2  1  0.00000000  0.00000000  0.65078217  1
  Zn  Zn3  1  0.00000000  0.00000000  0.15974551  1
  Zn  Zn4  1  0.66666700  0.33333300  0.67725797  1
  Zn  Zn5  1  0.66666700  0.33333300  0.18404962  1
  Zn  Zn6  1  0.33333300  0.66666700  0.01797071  1
  Zn  Zn7  1  0.33333300  0.66666700  0.51004746  1
  Zn  Zn8  1  0.33333300  0.66666700  0.31746699  1
  P  P0  1  0.29676953  0.99958399  0.24978742  1
  P  P1  1  0.70281446  0.70323047  0.24978742  1
  P  P2  1  0.00041601  0.29718554  0.24978742  1
  P  P3  1  0.29422858  0.29195902  0.75041700  1
  P  P4  1  0.99773045  0.70577142  0.75041700  1
  P  P5  1  0.70804098  0.00226955  0.75041700  1
  P  P6  1  0.96486897  0.33352368  0.58605308  1
  P  P7  1  0.36865571  0.03513103  0.58605308  1
  P  P8  1  0.66647632  0.63134429  0.58605308  1
  P  P9  1  0.96606812  0.63113760  0.08483910  1
  P  P10  1  0.66507048  0.03393188  0.08483910  1
  P  P11  1  0.36886240  0.33492952  0.08483910  1
  P  P12  1  0.63004476  0.66904567  0.91847509  1
  P  P13  1  0.03899992  0.36995524  0.91847509  1
  P  P14  1  0.33095433  0.96100008  0.91847509  1
  P  P15  1  0.62770203  0.95866899  0.41712912  1
  P  P16  1  0.33096597  0.37229797  0.41712912  1
  P  P17  1  0.04133101  0.66903403  0.41712912  1
  O  O0  1  0.21619545  0.02977958  0.30635948  1
  O  O1  1  0.81358414  0.78380455  0.30635948  1
  O  O2  1  0.97022042  0.18641586  0.30635948  1
  O  O3  1  0.21660831  0.18809690  0.80832554  1
  O  O4  1  0.97148859  0.78339169  0.80832554  1
  O  O5  1  0.81190310  0.02851141  0.80832554  1
  O  O6  1  0.78230088  0.96452391  0.69495402  1
  O  O7  1  0.18222303  0.21769912  0.69495402  1
  O  O8  1  0.03547609  0.81777697  0.69495402  1
  O  O9  1  0.78215309  0.81259896  0.19242232  1
  O  O10  1  0.03044587  0.21784691  0.19242232  1
  O  O11  1  0.18740104  0.96955413  0.19242232  1
  O  O12  1  0.88371646  0.36259969  0.64255202  1
  O  O13  1  0.47888423  0.11628354  0.64255202  1
  O  O14  1  0.63740031  0.52111577  0.64255202  1
  O  O15  1  0.87955516  0.51608137  0.13854410  1
  O  O16  1  0.63652721  0.12044484  0.13854410  1
  O  O17  1  0.48391863  0.36347279  0.13854410  1
  O  O18  1  0.45918675  0.31064261  0.02646418  1
  O  O19  1  0.85145687  0.54081325  0.02646418  1
  O  O20  1  0.68935739  0.14854313  0.02646418  1
  O  O21  1  0.46125178  0.15132119  0.53048335  1
  O  O22  1  0.69007041  0.53874822  0.53048335  1
  O  O23  1  0.84867881  0.30992959  0.53048335  1
  O  O24  1  0.54656622  0.69467957  0.97306626  1
  O  O25  1  0.14811235  0.45343378  0.97306626  1
  O  O26  1  0.30532043  0.85188765  0.97306626  1
  O  O27  1  0.54992369  0.85424208  0.47520216  1
  O  O28  1  0.30431739  0.45007631  0.47520216  1
  O  O29  1  0.14575792  0.69568261  0.47520216  1
  O  O30  1  0.11528901  0.63101800  0.36181988  1
  O  O31  1  0.51572799  0.88471099  0.36181988  1
  O  O32  1  0.36898200  0.48427201  0.36181988  1
  O  O33  1  0.12302266  0.48424944  0.86145359  1
  O  O34  1  0.36122579  0.87697734  0.86145359  1
  O  O35  1  0.51575056  0.63877421  0.86145359  1
  O  O36  1  0.01575460  0.82446344  0.41255675  1
  O  O37  1  0.80870884  0.98424540  0.41255675  1
  O  O38  1  0.17553656  0.19129116  0.41255675  1
  O  O39  1  0.01563910  0.19109855  0.91125861  1
  O  O40  1  0.17545945  0.98436090  0.91125861  1
  O  O41  1  0.80890145  0.82454055  0.91125861  1
  O  O42  1  0.97605070  0.16997022  0.58766141  1
  O  O43  1  0.19391953  0.02394930  0.58766141  1
  O  O44  1  0.83002978  0.80608047  0.58766141  1
  O  O45  1  0.97711755  0.80567969  0.08522122  1
  O  O46  1  0.82856214  0.02288245  0.08522122  1
  O  O47  1  0.19432031  0.17143786  0.08522122  1
  O  O48  1  0.68243217  0.15778302  0.74610608  1
  O  O49  1  0.47535185  0.31756783  0.74610608  1
  O  O50  1  0.84221698  0.52464815  0.74610608  1
  O  O51  1  0.68574183  0.52438836  0.24543288  1
  O  O52  1  0.83864752  0.31425817  0.24543288  1
  O  O53  1  0.47561164  0.16135248  0.24543288  1
  O  O54  1  0.64375260  0.50325124  0.92051241  1
  O  O55  1  0.85949965  0.35624740  0.92051241  1
  O  O56  1  0.49674876  0.14050035  0.92051241  1
  O  O57  1  0.64697763  0.14192946  0.42406125  1
  O  O58  1  0.49495283  0.35302237  0.42406125  1
  O  O59  1  0.85807054  0.50504717  0.42406125  1
  O  O60  1  0.35305786  0.49472127  0.07755948  1
  O  O61  1  0.14166240  0.64694214  0.07755948  1
  O  O62  1  0.50527873  0.85833760  0.07755948  1
  O  O63  1  0.35190314  0.85822998  0.57971128  1
  O  O64  1  0.50632584  0.64809686  0.57971128  1
  O  O65  1  0.14177002  0.49367416  0.57971128  1
  O  O66  1  0.31421855  0.83850381  0.25445061  1
  O  O67  1  0.52428425  0.68578145  0.25445061  1
  O  O68  1  0.16149619  0.47571575  0.25445061  1
  O  O69  1  0.31360254  0.47527047  0.75687447  1
  O  O70  1  0.16166693  0.68639746  0.75687447  1
  O  O71  1  0.52472953  0.83833307  0.75687447  1
loop_
_geom_bond_atom_site_label_1
_geom_bond_atom_site_label_2
_geom_bond_distance
_geom_bond_site_symmetry_2
Na0 O66 2.509922 1_555
Na0 O67 2.510939 1_555
Na0 O53 2.521293 1_565
Na0 O52 2.531790 1_565
Na0 O31 2.673077 1_555
Na0 O16 2.736300 1_565
Na0 O2 2.939923 1_565
Na0 O9 2.964463 1_555
Na1 O67 2.509922 1_555
Na1 O68 2.510948 1_555
Na1 O51 2.521301 1_555
Na1 O53 2.531797 1_555
Na1 O32 2.673079 1_555
Na1 O17 2.736304 1_555
Na1 O0 2.939923 1_555
Na1 O10 2.964463 1_555
Na2 O68 2.509914 1_555
Na2 O66 2.510941 1_555
Na2 O52 2.521300 1_455
Na2 O51 2.531789 1_455
Na2 O30 2.673075 1_555
Na2 O15 2.736302 1_455
Na2 O1 2.939923 1_455
Na2 O11 2.964463 1_555
Na3 O14 2.439895 1_555
Na3 O50 2.445274 1_555
Na3 O49 2.474504 1_555
Na3 O69 2.620703 1_555
Na3 O71 2.623081 1_555
Na3 O6 2.854648 1_555
Na3 O35 2.894242 1_555
Na3 O4 2.971093 1_555
Na4 O12 2.439891 1_555
Na4 O48 2.445267 1_555
Na4 O50 2.474497 1_555
Na4 O70 2.620702 1_655
Na4 O69 2.623072 1_655
Na4 O7 2.854648 1_655
Na4 O33 2.894240 1_655
Na4 O5 2.971093 1_555
Na5 O13 2.439893 1_555
Na5 O49 2.445265 1_555
Na5 O48 2.474505 1_555
Na5 O71 2.620695 1_545
Na5 O70 2.623074 1_545
Na5 O8 2.854648 1_545
Na5 O34 2.894238 1_545
Na5 O3 2.971093 1_555
Na6 O65 2.472134 1_555
Na6 O43 2.503096 1_555
Na6 O64 2.521969 1_555
Na6 O42 2.528510 1_455
Na6 O28 2.571127 1_555
Na6 O7 2.737890 1_555
Na7 O63 2.472118 1_555
Na7 O44 2.503104 1_455
Na7 O65 2.521955 1_555
Na7 O43 2.528510 1_565
Na7 O29 2.571120 1_555
Na7 O8 2.737892 1_555
Na8 O64 2.472118 1_555
Na8 O42 2.503098 1_565
Na8 O63 2.521973 1_555
Na8 O44 2.528503 1_555
Na8 O27 2.571124 1_555
Na8 O6 2.737889 1_555
Na9 O11 2.477511 1_555
Na9 O47 2.487895 1_565
Na9 O45 2.510217 1_455
Na9 O61 2.513718 1_555
Na9 O62 2.551556 1_555
Na9 O26 2.826963 1_554
Na9 O16 2.901367 1_565
Na10 O9 2.477509 1_555
Na10 O45 2.487887 1_555
Na10 O46 2.510217 1_565
Na10 O62 2.513734 1_555
Na10 O60 2.551570 1_555
Na10 O24 2.826970 1_554
Na10 O17 2.901367 1_555
Na11 O10 2.477507 1_555
Na11 O46 2.487889 1_455
Na11 O47 2.510209 1_555
Na11 O60 2.513718 1_555
Na11 O61 2.551573 1_555
Na11 O25 2.826967 1_554
Na11 O15 2.901367 1_455
Na12 O41 2.440629 1_555
Na12 O40 2.452516 1_655
Na12 O4 2.559827 1_555
Na12 O55 2.589760 1_555
Na12 O54 2.599437 1_555
Na12 O19 2.749510 1_556
Na12 O26 2.926560 1_655
Na12 O33 2.983058 1_655
Na13 O39 2.440637 1_655
Na13 O41 2.452523 1_545
Na13 O5 2.559831 1_555
Na13 O56 2.589743 1_555
Na13 O55 2.599436 1_555
Na13 O20 2.749505 1_556
Na13 O24 2.926560 1_545
Na13 O34 2.983057 1_545
Na14 O40 2.440637 1_545
Na14 O39 2.452514 1_555
Na14 O3 2.559829 1_555
Na14 O54 2.589757 1_555
Na14 O56 2.599453 1_555
Na14 O18 2.749513 1_556
Na14 O25 2.926560 1_555
Na14 O35 2.983057 1_555
Na15 O38 2.438940 1_655
Na15 O37 2.468745 1_545
Na15 O2 2.488027 1_555
Na15 O57 2.624644 1_555
Na15 O59 2.633848 1_555
Na15 O30 2.853409 1_655
Na15 O23 2.966515 1_555
Na15 O28 2.974686 1_655
Na16 O36 2.438933 1_545
Na16 O38 2.468737 1_555
Na16 O0 2.488023 1_555
Na16 O58 2.624645 1_555
Na16 O57 2.633865 1_555
Na16 O31 2.853409 1_545
Na16 O21 2.966520 1_555
Na16 O29 2.974686 1_545
Na17 O37 2.438931 1_555
Na17 O36 2.468745 1_655
Na17 O1 2.488025 1_555
Na17 O59 2.624660 1_555
Na17 O58 2.633862 1_555
Na17 O32 2.853409 1_555
Na17 O22 2.966523 1_555
Na17 O27 2.974686 1_555
Na18 O38 2.516879 1_555
Na18 O36 2.516879 1_545
Na18 O37 2.516879 1_445
Na18 O42 2.619050 1_455
Na18 O44 2.619051 1_445
Na18 O43 2.619051 1_555
Na19 O45 2.443916 1_445
Na19 O47 2.443916 1_555
Na19 O46 2.443916 1_455
Na19 O39 2.680093 1_554
Na19 O41 2.680093 1_444
Na19 O40 2.680093 1_544
Na20 O50 2.453600 1_555
Na20 O48 2.453600 1_555
Na20 O49 2.453600 1_555
Na20 O54 2.669855 1_555
Na20 O56 2.669855 1_555
Na20 O55 2.669855 1_555
Na21 O52 2.424324 1_555
Na21 O53 2.424324 1_555
Na21 O51 2.424324 1_555
Na21 O57 2.764050 1_555
Na21 O59 2.764050 1_555
Na21 O58 2.764050 1_555
Na22 O68 2.471608 1_555
Na22 O67 2.471608 1_555
Na22 O66 2.471608 1_555
Na22 O60 2.683073 1_555
Na22 O62 2.683073 1_555
Na22 O61 2.683073 1_555
Na23 O63 2.394799 1_555
Na23 O65 2.394799 1_555
Na23 O64 2.394799 1_555
Na23 O69 2.775497 1_555
Na23 O71 2.775497 1_555
Na23 O70 2.775497 1_555
O0 P0 1.549668 1_545
O0 Zn0 2.012000 1_555
O1 P1 1.549668 1_555
O1 Zn0 2.011999 1_665
O2 P2 1.549668 1_655
O2 Zn0 2.011999 1_655
O3 P3 1.544998 1_555
O3 Zn1 2.020268 1_555
O4 P4 1.544998 1_555
O4 Zn1 2.020268 1_665
O5 P5 1.544998 1_555
O5 Zn1 2.020268 1_655
O6 P5 1.527115 1_565
O6 Zn2 2.089116 1_665
O7 P3 1.527115 1_555
O7 Zn2 2.089116 1_555
O8 P4 1.527115 1_455
O8 Zn2 2.089116 1_565
O9 P1 1.557173 1_555
O9 Zn3 1.998838 1_665
O10 P2 1.557173 1_555
O10 Zn3 1.998838 1_555
O11 P0 1.557173 1_555
O11 Zn3 1.998838 1_565
O12 P6 1.547107 1_555
O12 Zn4 2.012879 1_555
O13 P7 1.547107 1_555
O13 Zn4 2.012879 1_555
O14 P8 1.547107 1_555
O14 Zn4 2.012879 1_555
O15 P9 1.523899 1_555
O15 Zn5 2.081117 1_555
O16 P10 1.523899 1_555
O16 Zn5 2.081117 1_555
O17 P11 1.523899 1_555
O17 Zn5 2.081117 1_555
O18 P11 1.611161 1_555
O18 Zr0 2.018042 1_554
O19 P9 1.611161 1_555
O19 Zr0 2.018042 1_554
O20 P10 1.611161 1_555
O20 Zr0 2.018042 1_554
O21 P7 1.571169 1_555
O21 Zr1 2.074626 1_555
O22 P8 1.571169 1_555
O22 Zr1 2.074626 1_555
O23 P6 1.571169 1_555
O23 Zr1 2.074626 1_555
O24 P12 1.512123 1_555
O24 Zn6 2.083957 1_556
O25 P13 1.512122 1_555
O25 Zn6 2.083957 1_556
O26 P14 1.512122 1_555
O26 Zn6 2.083957 1_556
O27 P15 1.550246 1_555
O27 Zn7 2.011063 1_555
O28 P16 1.550246 1_555
O28 Zn7 2.011063 1_555
O29 P17 1.550246 1_555
O29 Zn7 2.011064 1_555
O30 P17 1.523925 1_555
O30 Zn8 2.093249 1_555
O31 P15 1.523925 1_555
O31 Zn8 2.093249 1_555
O32 P16 1.523925 1_555
O32 Zn8 2.093249 1_555
O33 P13 1.575892 1_555
O33 Zr2 2.079544 1_555
O34 P14 1.575892 1_555
O34 Zr2 2.079544 1_555
O35 P12 1.575892 1_555
O35 Zr2 2.079544 1_555
O36 P17 1.549385 1_555
O36 Zn0 2.296772 1_565
O37 P15 1.549394 1_555
O37 Zn0 2.296772 1_665
O38 P16 1.549391 1_555
O38 Zn0 2.296772 1_555
O39 P13 1.542815 1_555
O39 Zn1 2.245566 1_555
O40 P14 1.542806 1_555
O40 Zn1 2.245566 1_565
O41 P12 1.542812 1_555
O41 Zn1 2.245566 1_665
O42 P6 1.544193 1_555
O42 Zn2 2.181092 1_655
O43 P7 1.544202 1_555
O43 Zn2 2.181092 1_555
O44 P8 1.544198 1_555
O44 Zn2 2.181092 1_665
O45 P9 1.542587 1_555
O45 Zn3 2.357875 1_665
O46 P10 1.542578 1_555
O46 Zn3 2.357875 1_655
O47 P11 1.542583 1_555
O47 Zn3 2.357875 1_555
O48 P5 1.549951 1_555
O48 Zn4 2.270752 1_555
O49 P3 1.549960 1_555
O49 Zn4 2.270752 1_555
O50 P4 1.549957 1_555
O50 Zn4 2.270752 1_555
O51 P1 1.560686 1_555
O51 Zn5 2.150373 1_555
O52 P2 1.560677 1_655
O52 Zn5 2.150373 1_555
O53 P0 1.560682 1_545
O53 Zn5 2.150373 1_555
O54 P12 1.577549 1_555
O54 Zr0 2.197967 1_555
O55 P13 1.577531 1_655
O55 Zr0 2.197967 1_555
O56 P14 1.577539 1_545
O56 Zr0 2.197967 1_555
O57 P15 1.596825 1_545
O57 Zr1 2.105919 1_555
O58 P16 1.596843 1_555
O58 Zr1 2.105919 1_555
O59 P17 1.596833 1_655
O59 Zr1 2.105919 1_555
O60 P11 1.541654 1_555
O60 Zn6 2.127660 1_555
O61 P9 1.541636 1_455
O61 Zn6 2.127660 1_555
O62 P10 1.541644 1_565
O62 Zn6 2.127660 1_555
O63 P7 1.547736 1_565
O63 Zn7 2.276663 1_555
O64 P8 1.547754 1_555
O64 Zn7 2.276663 1_555
O65 P6 1.547743 1_455
O65 Zn7 2.276663 1_555
O66 P0 1.556848 1_555
O66 Zn8 2.172800 1_555
O67 P1 1.556858 1_555
O67 Zn8 2.172800 1_555
O68 P2 1.556854 1_555
O68 Zn8 2.172800 1_555
O69 P3 1.595930 1_555
O69 Zr2 2.103763 1_555
O70 P4 1.595921 1_455
O70 Zr2 2.103763 1_555
O71 P5 1.595926 1_565
O71 Zr2 2.103763 1_555
