# generated using pymatgen
data_Zr6Ga2Co
_symmetry_space_group_name_H-M   'P 1'
_cell_length_a   15.65314070
_cell_length_b   15.65314307
_cell_length_c   6.71200588
_cell_angle_alpha   90.00000000
_cell_angle_beta   90.00000000
_cell_angle_gamma   119.99999941
_symmetry_Int_Tables_number   1
_chemical_formula_structural   Zr6Ga2Co
_chemical_formula_sum   'Zr48 Ga16 Co8'
_cell_volume   1424.24927252
_cell_formula_units_Z   8
loop_
 _symmetry_equiv_pos_site_id
 _symmetry_equiv_pos_as_xyz
  1  'x, y, z'
loop_
 _atom_site_type_symbol
 _atom_site_label
 _atom_site_symmetry_multiplicity
 _atom_site_fract_x
 _atom_site_fract_y
 _atom_site_fract_z
 _atom_site_occupancy
  Zr  Zr0_0  1  0.12417710  0.00000000  0.00000000  1
  Zr  Zr0_1  1  0.12417710  0.00000000  0.50000000  1
  Zr  Zr0_2  1  0.12417710  0.50000000  0.00000000  1
  Zr  Zr0_3  1  0.12417710  0.50000000  0.50000000  1
  Zr  Zr0_4  1  0.62417710  0.00000000  0.00000000  1
  Zr  Zr0_5  1  0.62417710  0.00000000  0.50000000  1
  Zr  Zr0_6  1  0.62417710  0.50000000  0.00000000  1
  Zr  Zr0_7  1  0.62417710  0.50000000  0.50000000  1
  Zr  Zr1_0  1  0.37582290  0.37582290  0.00000000  1
  Zr  Zr1_1  1  0.37582290  0.37582290  0.50000000  1
  Zr  Zr1_2  1  0.37582290  0.87582290  0.00000000  1
  Zr  Zr1_3  1  0.37582290  0.87582290  0.50000000  1
  Zr  Zr1_4  1  0.87582290  0.37582290  0.00000000  1
  Zr  Zr1_5  1  0.87582290  0.37582290  0.50000000  1
  Zr  Zr1_6  1  0.87582290  0.87582290  0.00000000  1
  Zr  Zr1_7  1  0.87582290  0.87582290  0.50000000  1
  Zr  Zr2_0  1  0.00000000  0.12417710  0.00000000  1
  Zr  Zr2_1  1  0.00000000  0.12417710  0.50000000  1
  Zr  Zr2_2  1  0.00000000  0.62417710  0.00000000  1
  Zr  Zr2_3  1  0.00000000  0.62417710  0.50000000  1
  Zr  Zr2_4  1  0.50000000  0.12417710  0.00000000  1
  Zr  Zr2_5  1  0.50000000  0.12417710  0.50000000  1
  Zr  Zr2_6  1  0.50000000  0.62417710  0.00000000  1
  Zr  Zr2_7  1  0.50000000  0.62417710  0.50000000  1
  Zr  Zr3_0  1  0.00000000  0.29742513  0.25000000  1
  Zr  Zr3_1  1  0.00000000  0.29742513  0.75000000  1
  Zr  Zr3_2  1  0.00000000  0.79742513  0.25000000  1
  Zr  Zr3_3  1  0.00000000  0.79742513  0.75000000  1
  Zr  Zr3_4  1  0.50000000  0.29742513  0.25000000  1
  Zr  Zr3_5  1  0.50000000  0.29742513  0.75000000  1
  Zr  Zr3_6  1  0.50000000  0.79742513  0.25000000  1
  Zr  Zr3_7  1  0.50000000  0.79742513  0.75000000  1
  Zr  Zr4_0  1  0.20257487  0.20257487  0.25000000  1
  Zr  Zr4_1  1  0.20257487  0.20257487  0.75000000  1
  Zr  Zr4_2  1  0.20257487  0.70257487  0.25000000  1
  Zr  Zr4_3  1  0.20257487  0.70257487  0.75000000  1
  Zr  Zr4_4  1  0.70257487  0.20257487  0.25000000  1
  Zr  Zr4_5  1  0.70257487  0.20257487  0.75000000  1
  Zr  Zr4_6  1  0.70257487  0.70257487  0.25000000  1
  Zr  Zr4_7  1  0.70257487  0.70257487  0.75000000  1
  Zr  Zr5_0  1  0.29742513  0.00000000  0.25000000  1
  Zr  Zr5_1  1  0.29742513  0.00000000  0.75000000  1
  Zr  Zr5_2  1  0.29742513  0.50000000  0.25000000  1
  Zr  Zr5_3  1  0.29742513  0.50000000  0.75000000  1
  Zr  Zr5_4  1  0.79742513  0.00000000  0.25000000  1
  Zr  Zr5_5  1  0.79742513  0.00000000  0.75000000  1
  Zr  Zr5_6  1  0.79742513  0.50000000  0.25000000  1
  Zr  Zr5_7  1  0.79742513  0.50000000  0.75000000  1
  Ga  Ga0_0  1  0.16666650  0.33333350  0.00000000  1
  Ga  Ga0_1  1  0.16666650  0.33333350  0.50000000  1
  Ga  Ga0_2  1  0.16666650  0.83333350  0.00000000  1
  Ga  Ga0_3  1  0.16666650  0.83333350  0.50000000  1
  Ga  Ga0_4  1  0.66666650  0.33333350  0.00000000  1
  Ga  Ga0_5  1  0.66666650  0.33333350  0.50000000  1
  Ga  Ga0_6  1  0.66666650  0.83333350  0.00000000  1
  Ga  Ga0_7  1  0.66666650  0.83333350  0.50000000  1
  Ga  Ga1_0  1  0.33333350  0.16666650  0.00000000  1
  Ga  Ga1_1  1  0.33333350  0.16666650  0.50000000  1
  Ga  Ga1_2  1  0.33333350  0.66666650  0.00000000  1
  Ga  Ga1_3  1  0.33333350  0.66666650  0.50000000  1
  Ga  Ga1_4  1  0.83333350  0.16666650  0.00000000  1
  Ga  Ga1_5  1  0.83333350  0.16666650  0.50000000  1
  Ga  Ga1_6  1  0.83333350  0.66666650  0.00000000  1
  Ga  Ga1_7  1  0.83333350  0.66666650  0.50000000  1
  Co  Co0_0  1  0.00000000  0.00000000  0.25000000  1
  Co  Co0_1  1  0.00000000  0.00000000  0.75000000  1
  Co  Co0_2  1  0.00000000  0.50000000  0.25000000  1
  Co  Co0_3  1  0.00000000  0.50000000  0.75000000  1
  Co  Co0_4  1  0.50000000  0.00000000  0.25000000  1
  Co  Co0_5  1  0.50000000  0.00000000  0.75000000  1
  Co  Co0_6  1  0.50000000  0.50000000  0.25000000  1
  Co  Co0_7  1  0.50000000  0.50000000  0.75000000  1
loop_
_geom_bond_atom_site_label_1
_geom_bond_atom_site_label_2
_geom_bond_distance
_geom_bond_site_symmetry_2
Zr0_0 Zr5_0 3.189037 1_555
Zr0_0 Zr5_1 3.189037 1_554
Zr0_0 Zr3_3 3.238083 1_544
Zr0_0 Zr3_2 3.238083 1_545
Zr0_0 Zr4_0 3.238083 1_555
Zr0_0 Zr4_1 3.238083 1_554
Zr0_1 Zr5_1 3.189037 1_555
Zr0_1 Zr5_0 3.189037 1_555
Zr0_1 Zr3_3 3.238083 1_545
Zr0_1 Zr3_2 3.238083 1_545
Zr0_1 Zr4_1 3.238083 1_555
Zr0_1 Zr4_0 3.238083 1_555
Zr0_2 Zr5_2 3.189037 1_555
Zr0_2 Zr5_3 3.189037 1_554
Zr0_2 Zr3_1 3.238083 1_554
Zr0_2 Zr3_0 3.238083 1_555
Zr0_2 Zr4_2 3.238083 1_555
Zr0_2 Zr4_3 3.238083 1_554
Zr0_3 Zr5_3 3.189037 1_555
Zr0_3 Zr5_2 3.189037 1_555
Zr0_3 Zr3_1 3.238083 1_555
Zr0_3 Zr3_0 3.238083 1_555
Zr0_3 Zr4_3 3.238083 1_555
Zr0_3 Zr4_2 3.238083 1_555
Zr0_4 Zr5_4 3.189037 1_555
Zr0_4 Zr5_5 3.189037 1_554
Zr0_4 Zr3_6 3.238083 1_545
Zr0_4 Zr3_7 3.238083 1_544
Zr0_4 Zr4_5 3.238083 1_554
Zr0_4 Zr4_4 3.238083 1_555
Zr0_5 Zr5_4 3.189037 1_555
Zr0_5 Zr5_5 3.189037 1_555
Zr0_5 Zr3_6 3.238083 1_545
Zr0_5 Zr3_7 3.238083 1_545
Zr0_5 Zr4_5 3.238083 1_555
Zr0_5 Zr4_4 3.238083 1_555
Zr0_6 Zr5_6 3.189037 1_555
Zr0_6 Zr5_7 3.189037 1_554
Zr0_6 Zr3_4 3.238083 1_555
Zr0_6 Zr3_5 3.238083 1_554
Zr0_6 Zr4_6 3.238083 1_555
Zr0_6 Zr4_7 3.238083 1_554
Zr0_7 Zr5_7 3.189037 1_555
Zr0_7 Zr5_6 3.189037 1_555
Zr0_7 Zr3_5 3.238083 1_555
Zr0_7 Zr3_4 3.238083 1_555
Zr0_7 Zr4_7 3.238083 1_555
Zr0_7 Zr4_6 3.238083 1_555
Zr1_0 Zr4_0 3.189038 1_555
Zr1_0 Zr4_1 3.189038 1_554
Zr1_0 Zr3_4 3.238082 1_555
Zr1_0 Zr3_5 3.238082 1_554
Zr1_0 Zr5_2 3.238082 1_555
Zr1_0 Zr5_3 3.238082 1_554
Zr1_1 Zr4_1 3.189038 1_555
Zr1_1 Zr4_0 3.189038 1_555
Zr1_1 Zr3_5 3.238082 1_555
Zr1_1 Zr3_4 3.238082 1_555
Zr1_1 Zr5_3 3.238082 1_555
Zr1_1 Zr5_2 3.238082 1_555
Zr1_2 Zr4_2 3.189038 1_555
Zr1_2 Zr4_3 3.189038 1_554
Zr1_2 Zr3_6 3.238082 1_555
Zr1_2 Zr3_7 3.238082 1_554
Zr1_2 Zr5_0 3.238082 1_565
Zr1_2 Zr5_1 3.238082 1_564
Zr1_3 Zr4_3 3.189038 1_555
Zr1_3 Zr4_2 3.189038 1_555
Zr1_3 Zr3_7 3.238082 1_555
Zr1_3 Zr3_6 3.238082 1_555
Zr1_3 Zr5_1 3.238082 1_565
Zr1_3 Zr5_0 3.238082 1_565
Zr1_4 Zr4_4 3.189038 1_555
Zr1_4 Zr4_5 3.189038 1_554
Zr1_4 Zr3_0 3.238082 1_655
Zr1_4 Zr3_1 3.238082 1_654
Zr1_4 Zr5_6 3.238082 1_555
Zr1_4 Zr5_7 3.238082 1_554
Zr1_5 Zr4_5 3.189038 1_555
Zr1_5 Zr4_4 3.189038 1_555
Zr1_5 Zr3_1 3.238082 1_655
Zr1_5 Zr3_0 3.238082 1_655
Zr1_5 Zr5_7 3.238082 1_555
Zr1_5 Zr5_6 3.238082 1_555
Zr1_6 Zr4_7 3.189038 1_554
Zr1_6 Zr4_6 3.189038 1_555
Zr1_6 Zr3_3 3.238082 1_654
Zr1_6 Zr3_2 3.238082 1_655
Zr1_6 Zr5_4 3.238082 1_565
Zr1_6 Zr5_5 3.238082 1_564
Zr1_7 Zr4_7 3.189038 1_555
Zr1_7 Zr4_6 3.189038 1_555
Zr1_7 Zr3_3 3.238082 1_655
Zr1_7 Zr3_2 3.238082 1_655
Zr1_7 Zr5_4 3.238082 1_565
Zr1_7 Zr5_5 3.238082 1_565
Zr2_0 Zr3_0 3.189038 1_555
Zr2_0 Zr3_1 3.189038 1_554
Zr2_0 Zr4_1 3.238082 1_554
Zr2_0 Zr4_0 3.238082 1_555
Zr2_0 Zr5_4 3.238082 1_455
Zr2_0 Zr5_5 3.238082 1_454
Zr2_1 Zr3_0 3.189038 1_555
Zr2_1 Zr3_1 3.189038 1_555
Zr2_1 Zr4_1 3.238082 1_555
Zr2_1 Zr4_0 3.238082 1_555
Zr2_1 Zr5_5 3.238082 1_455
Zr2_1 Zr5_4 3.238082 1_455
Zr2_2 Zr3_2 3.189038 1_555
Zr2_2 Zr3_3 3.189038 1_554
Zr2_2 Zr4_2 3.238082 1_555
Zr2_2 Zr4_3 3.238082 1_554
Zr2_2 Zr5_7 3.238082 1_454
Zr2_2 Zr5_6 3.238082 1_455
Zr2_3 Zr3_3 3.189038 1_555
Zr2_3 Zr3_2 3.189038 1_555
Zr2_3 Zr4_2 3.238082 1_555
Zr2_3 Zr4_3 3.238082 1_555
Zr2_3 Zr5_7 3.238082 1_455
Zr2_3 Zr5_6 3.238082 1_455
Zr2_4 Zr3_4 3.189038 1_555
Zr2_4 Zr3_5 3.189038 1_554
Zr2_4 Zr4_4 3.238082 1_555
Zr2_4 Zr4_5 3.238082 1_554
Zr2_4 Zr5_0 3.238082 1_555
Zr2_4 Zr5_1 3.238082 1_554
Zr2_5 Zr3_4 3.189038 1_555
Zr2_5 Zr3_5 3.189038 1_555
Zr2_5 Zr4_5 3.238082 1_555
Zr2_5 Zr4_4 3.238082 1_555
Zr2_5 Zr5_1 3.238082 1_555
Zr2_5 Zr5_0 3.238082 1_555
Zr2_6 Zr3_6 3.189038 1_555
Zr2_6 Zr3_7 3.189038 1_554
Zr2_6 Zr4_6 3.238082 1_555
Zr2_6 Zr4_7 3.238082 1_554
Zr2_6 Zr5_2 3.238082 1_555
Zr2_6 Zr5_3 3.238082 1_554
Zr2_7 Zr3_7 3.189038 1_555
Zr2_7 Zr3_6 3.189038 1_555
Zr2_7 Zr4_7 3.238082 1_555
Zr2_7 Zr4_6 3.238082 1_555
Zr2_7 Zr5_3 3.238082 1_555
Zr2_7 Zr5_2 3.238082 1_555
Zr3_0 Zr3_1 3.356003 1_555
Zr3_0 Zr3_1 3.356003 1_554
Zr3_2 Zr3_3 3.356003 1_555
Zr3_2 Zr3_3 3.356003 1_554
Zr3_4 Zr3_5 3.356003 1_555
Zr3_4 Zr3_5 3.356003 1_554
Zr3_6 Zr3_7 3.356003 1_555
Zr3_6 Zr3_7 3.356003 1_554
Zr4_0 Zr4_1 3.356003 1_555
Zr4_0 Zr4_1 3.356003 1_554
Zr4_2 Zr4_3 3.356003 1_555
Zr4_2 Zr4_3 3.356003 1_554
Zr4_4 Zr4_5 3.356003 1_555
Zr4_4 Zr4_5 3.356003 1_554
Zr4_6 Zr4_7 3.356003 1_555
Zr4_6 Zr4_7 3.356003 1_554
Zr5_0 Zr5_1 3.356003 1_555
Zr5_0 Zr5_1 3.356003 1_554
Zr5_2 Zr5_3 3.356003 1_555
Zr5_2 Zr5_3 3.356003 1_554
Zr5_4 Zr5_5 3.356003 1_555
Zr5_4 Zr5_5 3.356003 1_554
Zr5_6 Zr5_7 3.356003 1_555
Zr5_6 Zr5_7 3.356003 1_554
Ga0_0 Zr3_0 2.910560 1_555
Ga0_0 Zr3_1 2.910560 1_554
Ga0_0 Zr5_3 2.910562 1_554
Ga0_0 Zr5_2 2.910562 1_555
Ga0_0 Zr4_0 2.910567 1_555
Ga0_0 Zr4_1 2.910567 1_554
Ga0_0 Zr0_2 2.997265 1_555
Ga0_0 Zr2_0 2.997271 1_555
Ga0_0 Zr1_0 2.997273 1_555
Ga0_1 Zr3_1 2.910560 1_555
Ga0_1 Zr3_0 2.910560 1_555
Ga0_1 Zr5_3 2.910562 1_555
Ga0_1 Zr5_2 2.910562 1_555
Ga0_1 Zr4_1 2.910567 1_555
Ga0_1 Zr4_0 2.910567 1_555
Ga0_1 Zr0_3 2.997265 1_555
Ga0_1 Zr2_1 2.997271 1_555
Ga0_1 Zr1_1 2.997273 1_555
Ga0_2 Zr3_2 2.910560 1_555
Ga0_2 Zr3_3 2.910560 1_554
Ga0_2 Zr5_0 2.910562 1_565
Ga0_2 Zr5_1 2.910562 1_564
Ga0_2 Zr4_2 2.910567 1_555
Ga0_2 Zr4_3 2.910567 1_554
Ga0_2 Zr0_0 2.997265 1_565
Ga0_2 Zr2_2 2.997271 1_555
Ga0_2 Zr1_2 2.997273 1_555
Ga0_3 Zr3_3 2.910560 1_555
Ga0_3 Zr3_2 2.910560 1_555
Ga0_3 Zr5_1 2.910562 1_565
Ga0_3 Zr5_0 2.910562 1_565
Ga0_3 Zr4_3 2.910567 1_555
Ga0_3 Zr4_2 2.910567 1_555
Ga0_3 Zr0_1 2.997265 1_565
Ga0_3 Zr2_3 2.997271 1_555
Ga0_3 Zr1_3 2.997273 1_555
Ga0_4 Zr3_4 2.910560 1_555
Ga0_4 Zr3_5 2.910560 1_554
Ga0_4 Zr5_6 2.910562 1_555
Ga0_4 Zr5_7 2.910562 1_554
Ga0_4 Zr4_4 2.910567 1_555
Ga0_4 Zr4_5 2.910567 1_554
Ga0_4 Zr0_6 2.997265 1_555
Ga0_4 Zr2_4 2.997271 1_555
Ga0_4 Zr1_4 2.997273 1_555
Ga0_5 Zr3_4 2.910560 1_555
Ga0_5 Zr3_5 2.910560 1_555
Ga0_5 Zr5_7 2.910562 1_555
Ga0_5 Zr5_6 2.910562 1_555
Ga0_5 Zr4_5 2.910567 1_555
Ga0_5 Zr4_4 2.910567 1_555
Ga0_5 Zr0_7 2.997265 1_555
Ga0_5 Zr2_5 2.997271 1_555
Ga0_5 Zr1_5 2.997273 1_555
Ga0_6 Zr3_6 2.910560 1_555
Ga0_6 Zr3_7 2.910560 1_554
Ga0_6 Zr5_4 2.910562 1_565
Ga0_6 Zr5_5 2.910562 1_564
Ga0_6 Zr4_6 2.910567 1_555
Ga0_6 Zr4_7 2.910567 1_554
Ga0_6 Zr0_4 2.997265 1_565
Ga0_6 Zr2_6 2.997271 1_555
Ga0_6 Zr1_6 2.997273 1_555
Ga0_7 Zr3_7 2.910560 1_555
Ga0_7 Zr3_6 2.910560 1_555
Ga0_7 Zr5_5 2.910562 1_565
Ga0_7 Zr5_4 2.910562 1_565
Ga0_7 Zr4_7 2.910567 1_555
Ga0_7 Zr4_6 2.910567 1_555
Ga0_7 Zr0_5 2.997265 1_565
Ga0_7 Zr2_7 2.997271 1_555
Ga0_7 Zr1_7 2.997273 1_555
Ga1_0 Zr5_0 2.910560 1_555
Ga1_0 Zr5_1 2.910560 1_554
Ga1_0 Zr3_4 2.910562 1_555
Ga1_0 Zr3_5 2.910562 1_554
Ga1_0 Zr4_0 2.910566 1_555
Ga1_0 Zr4_1 2.910566 1_554
Ga1_0 Zr2_4 2.997265 1_555
Ga1_0 Zr0_0 2.997270 1_555
Ga1_0 Zr1_0 2.997273 1_555
Ga1_1 Zr5_1 2.910560 1_555
Ga1_1 Zr5_0 2.910560 1_555
Ga1_1 Zr3_4 2.910562 1_555
Ga1_1 Zr3_5 2.910562 1_555
Ga1_1 Zr4_1 2.910566 1_555
Ga1_1 Zr4_0 2.910566 1_555
Ga1_1 Zr2_5 2.997265 1_555
Ga1_1 Zr0_1 2.997270 1_555
Ga1_1 Zr1_1 2.997273 1_555
Ga1_2 Zr5_2 2.910560 1_555
Ga1_2 Zr5_3 2.910560 1_554
Ga1_2 Zr3_6 2.910562 1_555
Ga1_2 Zr3_7 2.910562 1_554
Ga1_2 Zr4_2 2.910566 1_555
Ga1_2 Zr4_3 2.910566 1_554
Ga1_2 Zr2_6 2.997265 1_555
Ga1_2 Zr0_2 2.997270 1_555
Ga1_2 Zr1_2 2.997273 1_555
Ga1_3 Zr5_3 2.910560 1_555
Ga1_3 Zr5_2 2.910560 1_555
Ga1_3 Zr3_7 2.910562 1_555
Ga1_3 Zr3_6 2.910562 1_555
Ga1_3 Zr4_3 2.910566 1_555
Ga1_3 Zr4_2 2.910566 1_555
Ga1_3 Zr2_7 2.997265 1_555
Ga1_3 Zr0_3 2.997270 1_555
Ga1_3 Zr1_3 2.997273 1_555
Ga1_4 Zr5_4 2.910560 1_555
Ga1_4 Zr5_5 2.910560 1_554
Ga1_4 Zr3_0 2.910562 1_655
Ga1_4 Zr3_1 2.910562 1_654
Ga1_4 Zr4_4 2.910566 1_555
Ga1_4 Zr4_5 2.910566 1_554
Ga1_4 Zr2_0 2.997265 1_655
Ga1_4 Zr0_4 2.997270 1_555
Ga1_4 Zr1_4 2.997273 1_555
Ga1_5 Zr5_5 2.910560 1_555
Ga1_5 Zr5_4 2.910560 1_555
Ga1_5 Zr3_1 2.910562 1_655
Ga1_5 Zr3_0 2.910562 1_655
Ga1_5 Zr4_5 2.910566 1_555
Ga1_5 Zr4_4 2.910566 1_555
Ga1_5 Zr2_1 2.997265 1_655
Ga1_5 Zr0_5 2.997270 1_555
Ga1_5 Zr1_5 2.997273 1_555
Ga1_6 Zr5_6 2.910560 1_555
Ga1_6 Zr5_7 2.910560 1_554
Ga1_6 Zr3_3 2.910562 1_654
Ga1_6 Zr3_2 2.910562 1_655
Ga1_6 Zr4_6 2.910566 1_555
Ga1_6 Zr4_7 2.910566 1_554
Ga1_6 Zr2_2 2.997265 1_655
Ga1_6 Zr0_6 2.997270 1_555
Ga1_6 Zr1_6 2.997273 1_555
Ga1_7 Zr5_7 2.910560 1_555
Ga1_7 Zr5_6 2.910560 1_555
Ga1_7 Zr3_3 2.910562 1_655
Ga1_7 Zr3_2 2.910562 1_655
Ga1_7 Zr4_7 2.910566 1_555
Ga1_7 Zr4_6 2.910566 1_555
Ga1_7 Zr2_3 2.997265 1_655
Ga1_7 Zr0_7 2.997270 1_555
Ga1_7 Zr1_7 2.997273 1_555
Co0_0 Zr0_1 2.567859 1_555
Co0_0 Zr0_0 2.567859 1_555
Co0_0 Zr1_6 2.567859 1_445
Co0_0 Zr1_7 2.567859 1_445
Co0_0 Zr2_0 2.567859 1_555
Co0_0 Zr2_1 2.567859 1_555
Co0_0 Zr5_4 3.170933 1_455
Co0_0 Zr4_0 3.170933 1_555
Co0_0 Zr3_2 3.170933 1_545
Co0_1 Zr0_1 2.567859 1_555
Co0_1 Zr0_0 2.567859 1_556
Co0_1 Zr1_7 2.567859 1_445
Co0_1 Zr1_6 2.567859 1_446
Co0_1 Zr2_1 2.567859 1_555
Co0_1 Zr2_0 2.567859 1_556
Co0_1 Zr5_5 3.170933 1_455
Co0_1 Zr4_1 3.170933 1_555
Co0_1 Zr3_3 3.170933 1_545
Co0_2 Zr0_2 2.567859 1_555
Co0_2 Zr0_3 2.567859 1_555
Co0_2 Zr1_4 2.567859 1_455
Co0_2 Zr1_5 2.567859 1_455
Co0_2 Zr2_2 2.567859 1_555
Co0_2 Zr2_3 2.567859 1_555
Co0_2 Zr5_6 3.170933 1_455
Co0_2 Zr4_2 3.170933 1_555
Co0_2 Zr3_0 3.170933 1_555
Co0_3 Zr0_3 2.567859 1_555
Co0_3 Zr0_2 2.567859 1_556
Co0_3 Zr1_5 2.567859 1_455
Co0_3 Zr1_4 2.567859 1_456
Co0_3 Zr2_3 2.567859 1_555
Co0_3 Zr2_2 2.567859 1_556
Co0_3 Zr5_7 3.170933 1_455
Co0_3 Zr4_3 3.170933 1_555
Co0_3 Zr3_1 3.170933 1_555
Co0_4 Zr0_5 2.567859 1_555
Co0_4 Zr0_4 2.567859 1_555
Co0_4 Zr1_3 2.567859 1_545
Co0_4 Zr1_2 2.567859 1_545
Co0_4 Zr2_4 2.567859 1_555
Co0_4 Zr2_5 2.567859 1_555
Co0_4 Zr5_0 3.170933 1_555
Co0_4 Zr4_4 3.170933 1_555
Co0_4 Zr3_6 3.170933 1_545
Co0_5 Zr0_5 2.567859 1_555
Co0_5 Zr0_4 2.567859 1_556
Co0_5 Zr1_3 2.567859 1_545
Co0_5 Zr1_2 2.567859 1_546
Co0_5 Zr2_5 2.567859 1_555
Co0_5 Zr2_4 2.567859 1_556
Co0_5 Zr5_1 3.170933 1_555
Co0_5 Zr4_5 3.170933 1_555
Co0_5 Zr3_7 3.170933 1_545
Co0_6 Zr0_6 2.567859 1_555
Co0_6 Zr0_7 2.567859 1_555
Co0_6 Zr1_0 2.567859 1_555
Co0_6 Zr1_1 2.567859 1_555
Co0_6 Zr2_6 2.567859 1_555
Co0_6 Zr2_7 2.567859 1_555
Co0_6 Zr5_2 3.170933 1_555
Co0_6 Zr4_6 3.170933 1_555
Co0_6 Zr3_4 3.170933 1_555
Co0_7 Zr0_7 2.567859 1_555
Co0_7 Zr0_6 2.567859 1_556
Co0_7 Zr1_1 2.567859 1_555
Co0_7 Zr1_0 2.567859 1_556
Co0_7 Zr2_7 2.567859 1_555
Co0_7 Zr2_6 2.567859 1_556
Co0_7 Zr5_3 3.170933 1_555
Co0_7 Zr4_7 3.170933 1_555
Co0_7 Zr3_5 3.170933 1_555
