# generated using pymatgen
data_Na6MgTi3Si2(PO6)4
_symmetry_space_group_name_H-M   'P 1'
_cell_length_a   8.89561250
_cell_length_b   8.90044484
_cell_length_c   21.88661203
_cell_angle_alpha   89.81689457
_cell_angle_beta   90.34525714
_cell_angle_gamma   119.99823944
_symmetry_Int_Tables_number   1
_chemical_formula_structural   Na6MgTi3Si2(PO6)4
_chemical_formula_sum   'Na18 Mg3 Ti9 Si6 P12 O72'
_cell_volume   1500.70921925
_cell_formula_units_Z   3
loop_
 _symmetry_equiv_pos_site_id
 _symmetry_equiv_pos_as_xyz
  1  'x, y, z'
loop_
 _atom_site_type_symbol
 _atom_site_label
 _atom_site_symmetry_multiplicity
 _atom_site_fract_x
 _atom_site_fract_y
 _atom_site_fract_z
 _atom_site_occupancy
  Na  Na0  1  0.00858326  0.00136484  0.50045797  1
  Na  Na1  1  0.99903671  0.00156259  0.00031746  1
  Na  Na2  1  0.64966374  0.30010089  0.83150983  1
  Na  Na3  1  0.65117964  0.33401355  0.32611328  1
  Na  Na4  1  0.32929047  0.66498137  0.16329581  1
  Na  Na5  1  0.32018211  0.66524636  0.66511940  1
  Na  Na6  1  0.64476620  0.01008756  0.24265851  1
  Na  Na7  1  0.98991896  0.62420589  0.24182903  1
  Na  Na8  1  0.62588019  0.61663254  0.74316149  1
  Na  Na9  1  0.99571050  0.37192399  0.74531478  1
  Na  Na10  1  0.66587680  0.97572254  0.58811239  1
  Na  Na11  1  0.66170006  0.68841736  0.08246712  1
  Na  Na12  1  0.02670728  0.33891777  0.08814140  1
  Na  Na13  1  0.96627691  0.66875202  0.91676185  1
  Na  Na14  1  0.33589144  0.30188605  0.91840147  1
  Na  Na15  1  0.96115592  0.28716411  0.41049170  1
  Na  Na16  1  0.33043298  0.03610230  0.41186976  1
  Na  Na17  1  0.71517679  0.67938397  0.41336230  1
  Mg  Mg0  1  0.00037726  0.00005121  0.35274731  1
  Mg  Mg1  1  0.65872383  0.32813208  0.68602611  1
  Mg  Mg2  1  0.66527711  0.33282053  0.18361835  1
  Ti  Ti0  1  0.99660015  0.00189160  0.85728349  1
  Ti  Ti1  1  0.00384437  0.99315813  0.64393900  1
  Ti  Ti2  1  0.00805129  0.00011555  0.14744845  1
  Ti  Ti3  1  0.67105904  0.33658957  0.97913434  1
  Ti  Ti4  1  0.66864977  0.33660355  0.48445685  1
  Ti  Ti5  1  0.32981771  0.67068207  0.01729866  1
  Ti  Ti6  1  0.33996298  0.66823245  0.52239285  1
  Ti  Ti7  1  0.33813075  0.66912150  0.31125598  1
  Ti  Ti8  1  0.33529395  0.67413210  0.81478471  1
  Si  Si0  1  0.66714545  0.62547932  0.58753490  1
  Si  Si1  1  0.96483882  0.62956694  0.08575845  1
  Si  Si2  1  0.62220766  0.66910689  0.91706962  1
  Si  Si3  1  0.04167842  0.37731169  0.91569660  1
  Si  Si4  1  0.34020667  0.96141051  0.91538578  1
  Si  Si5  1  0.62440579  0.96261717  0.41705661  1
  P  P0  1  0.29367491  0.00065239  0.25424918  1
  P  P1  1  0.70485842  0.70676848  0.25163690  1
  P  P2  1  0.00465187  0.29427144  0.25243718  1
  P  P3  1  0.28608060  0.28526028  0.75129067  1
  P  P4  1  0.00671924  0.71420006  0.75140501  1
  P  P5  1  0.71033476  0.99521700  0.74806074  1
  P  P6  1  0.96333910  0.33725717  0.58637670  1
  P  P7  1  0.37458721  0.04269259  0.58292553  1
  P  P8  1  0.66441330  0.04058790  0.08627875  1
  P  P9  1  0.37411848  0.33180979  0.08264718  1
  P  P10  1  0.33922851  0.38361569  0.41751073  1
  P  P11  1  0.04493774  0.66063580  0.41622144  1
  O  O0  1  0.21301309  0.01146150  0.31400443  1
  O  O1  1  0.80660525  0.79054278  0.31042027  1
  O  O2  1  0.98856195  0.19147818  0.31028612  1
  O  O3  1  0.19235259  0.18750727  0.81069739  1
  O  O4  1  0.99692183  0.80879448  0.80916557  1
  O  O5  1  0.82618050  0.00535832  0.80364030  1
  O  O6  1  0.79846510  0.97794929  0.68890881  1
  O  O7  1  0.16820288  0.18328167  0.69559881  1
  O  O8  1  0.01212261  0.82234981  0.69367085  1
  O  O9  1  0.79969229  0.82696293  0.19493969  1
  O  O10  1  0.01678120  0.19870110  0.19405708  1
  O  O11  1  0.16903338  0.98255299  0.19940006  1
  O  O12  1  0.88452976  0.35768644  0.64471251  1
  O  O13  1  0.49613896  0.11919850  0.63686589  1
  O  O14  1  0.63931515  0.51962363  0.64860410  1
  O  O15  1  0.88748275  0.51320839  0.14562798  1
  O  O16  1  0.64526627  0.11266468  0.14648246  1
  O  O17  1  0.49129132  0.35988707  0.13663079  1
  O  O18  1  0.45018048  0.30863154  0.02191921  1
  O  O19  1  0.83376542  0.53365226  0.02626877  1
  O  O20  1  0.68494812  0.16526196  0.03237919  1
  O  O21  1  0.46147372  0.15167488  0.52321072  1
  O  O22  1  0.68647032  0.52276854  0.52660897  1
  O  O23  1  0.83718671  0.30833282  0.52976104  1
  O  O24  1  0.53236513  0.69309875  0.97775700  1
  O  O25  1  0.16752398  0.46745355  0.97492738  1
  O  O26  1  0.29923570  0.82715773  0.97211442  1
  O  O27  1  0.51884189  0.83960635  0.47559465  1
  O  O28  1  0.31808073  0.47337482  0.47404490  1
  O  O29  1  0.15938033  0.67573642  0.47089590  1
  O  O30  1  0.12639732  0.63530851  0.35672329  1
  O  O31  1  0.49841614  0.86215006  0.35629252  1
  O  O32  1  0.35823297  0.49822484  0.36018235  1
  O  O33  1  0.13254019  0.50170789  0.85531999  1
  O  O34  1  0.36524889  0.86483956  0.85544765  1
  O  O35  1  0.49681613  0.63457604  0.85667226  1
  O  O36  1  0.02484019  0.82254294  0.41454743  1
  O  O37  1  0.81386436  0.98106178  0.41624152  1
  O  O38  1  0.18200036  0.20026985  0.41398100  1
  O  O39  1  0.02452921  0.18622522  0.91056413  1
  O  O40  1  0.16526251  0.97934676  0.91043833  1
  O  O41  1  0.81938157  0.83429299  0.91042160  1
  O  O42  1  0.97572900  0.16833776  0.58605079  1
  O  O43  1  0.19457499  0.02961736  0.58801766  1
  O  O44  1  0.84075873  0.82420837  0.58700936  1
  O  O45  1  0.97572443  0.82110437  0.09162605  1
  O  O46  1  0.83584979  0.02852395  0.08626609  1
  O  O47  1  0.18517424  0.17025627  0.08978321  1
  O  O48  1  0.69794598  0.15964563  0.74825135  1
  O  O49  1  0.46705409  0.30687618  0.75036131  1
  O  O50  1  0.84489222  0.53213515  0.75076136  1
  O  O51  1  0.68225195  0.52669226  0.24495039  1
  O  O52  1  0.84314543  0.31621975  0.24926207  1
  O  O53  1  0.47762293  0.14936564  0.24658266  1
  O  O54  1  0.64143161  0.49514786  0.92190759  1
  O  O55  1  0.85348941  0.36334601  0.92394608  1
  O  O56  1  0.50599614  0.15309206  0.92301293  1
  O  O57  1  0.63640626  0.15333349  0.42048994  1
  O  O58  1  0.50981679  0.37525465  0.41991107  1
  O  O59  1  0.86131876  0.49449718  0.42116703  1
  O  O60  1  0.34857603  0.49304727  0.07904349  1
  O  O61  1  0.15682442  0.65069445  0.07570937  1
  O  O62  1  0.51105940  0.85311255  0.07754226  1
  O  O63  1  0.34416259  0.85584223  0.57414492  1
  O  O64  1  0.50169149  0.66099248  0.57746104  1
  O  O65  1  0.14373184  0.49633375  0.57552534  1
  O  O66  1  0.29561896  0.82325597  0.25160929  1
  O  O67  1  0.52414063  0.70095062  0.25285283  1
  O  O68  1  0.17064534  0.47975479  0.25313323  1
  O  O69  1  0.29625253  0.46640885  0.75019637  1
  O  O70  1  0.17273680  0.69812342  0.74999267  1
  O  O71  1  0.53185889  0.82360144  0.75142532  1
loop_
_geom_bond_atom_site_label_1
_geom_bond_atom_site_label_2
_geom_bond_distance
_geom_bond_site_symmetry_2
Na0 O44 2.442243 1_445
Na0 O43 2.453979 1_555
Na0 O37 2.465982 1_445
Na0 O42 2.502419 1_455
Na0 O36 2.518361 1_545
Na0 O38 2.525678 1_555
Na1 O46 2.467310 1_555
Na1 O39 2.494728 1_654
Na1 O41 2.498661 1_544
Na1 O45 2.503580 1_545
Na1 O47 2.514746 1_655
Na1 O40 2.534793 1_644
Na2 O48 2.372493 1_555
Na2 O56 2.387069 1_555
Na2 O49 2.420599 1_555
Na2 O55 2.576796 1_555
Na2 O50 2.613766 1_555
Na2 O54 2.661646 1_555
Na3 O53 2.358630 1_555
Na3 O51 2.384398 1_555
Na3 O52 2.465173 1_555
Na3 O58 2.535354 1_555
Na3 O57 2.576959 1_555
Na3 O59 2.676726 1_555
Na4 O61 2.411581 1_555
Na4 O60 2.460877 1_555
Na4 O62 2.500004 1_555
Na4 O66 2.501307 1_555
Na4 O68 2.502369 1_555
Na4 O67 2.521317 1_555
Na5 O70 2.381853 1_555
Na5 O65 2.488215 1_555
Na5 O69 2.500306 1_555
Na5 O64 2.527494 1_555
Na5 O71 2.533893 1_555
Na5 O63 2.551369 1_555
Na6 O16 2.290898 1_555
Na6 O53 2.366440 1_555
Na6 O52 2.398023 1_555
Na6 O67 2.412137 1_545
Na6 O66 2.700158 1_545
Na6 O31 2.813908 1_545
Na6 O9 2.814430 1_545
Na7 O15 2.308577 1_555
Na7 O52 2.380394 1_555
Na7 O66 2.399476 1_655
Na7 O51 2.423862 1_555
Na7 O68 2.521667 1_655
Na7 O30 2.766221 1_655
Na7 O11 2.913925 1_655
Na8 O14 2.271644 1_555
Na8 O71 2.381219 1_555
Na8 O49 2.393071 1_555
Na8 O50 2.418544 1_555
Na8 O69 2.548180 1_555
Na8 O35 2.781364 1_555
Na9 O48 2.363676 1_555
Na9 O69 2.369642 1_655
Na9 O12 2.385906 1_555
Na9 O50 2.400727 1_555
Na9 O70 2.519481 1_655
Na9 O33 2.681255 1_655
Na10 O42 2.411290 1_565
Na10 O64 2.437913 1_555
Na10 O6 2.490762 1_555
Na10 O44 2.517489 1_555
Na10 O63 2.521948 1_555
Na10 O13 2.646768 1_565
Na10 O27 2.763836 1_555
Na10 O23 2.864497 1_565
Na11 O62 2.432598 1_555
Na11 O45 2.436010 1_555
Na11 O60 2.437824 1_555
Na11 O24 2.567700 1_554
Na11 O46 2.623164 1_565
Na11 O9 2.748903 1_555
Na11 O17 2.796529 1_555
Na11 O19 2.809796 1_555
Na12 O46 2.413736 1_455
Na12 O61 2.429268 1_555
Na12 O60 2.489393 1_555
Na12 O47 2.521306 1_555
Na12 O10 2.610137 1_555
Na12 O15 2.734169 1_455
Na12 O25 2.757549 1_554
Na12 O20 2.896489 1_455
Na13 O55 2.385854 1_555
Na13 O41 2.412338 1_555
Na13 O40 2.429390 1_655
Na13 O54 2.507700 1_555
Na13 O4 2.612044 1_555
Na13 O19 2.679182 1_556
Na13 O26 2.831986 1_655
Na13 O33 2.905495 1_655
Na14 O54 2.382308 1_555
Na14 O39 2.430018 1_555
Na14 O56 2.460677 1_555
Na14 O18 2.466268 1_556
Na14 O40 2.493651 1_545
Na14 O3 2.627312 1_555
Na14 O25 2.861170 1_555
Na14 O35 2.898572 1_555
Na15 O37 2.363362 1_545
Na15 O2 2.412610 1_555
Na15 O59 2.427495 1_555
Na15 O38 2.445512 1_655
Na15 O57 2.525321 1_555
Na15 O23 2.882954 1_555
Na15 O30 2.930894 1_655
Na16 O0 2.339660 1_555
Na16 O57 2.384921 1_555
Na16 O38 2.410596 1_555
Na16 O36 2.416737 1_545
Na16 O58 2.621584 1_555
Na16 O21 2.671718 1_555
Na16 O31 2.908105 1_545
Na17 O37 2.372255 1_555
Na17 O36 2.387866 1_655
Na17 O58 2.396034 1_555
Na17 O1 2.433060 1_555
Na17 O59 2.561611 1_555
Na17 O22 2.789496 1_555
Mg0 O2 1.986292 1_455
Mg0 O1 2.020968 1_445
Mg0 O0 2.033199 1_555
Mg0 O37 2.111494 1_445
Mg0 O38 2.166167 1_555
Mg0 O36 2.167843 1_545
Mg1 O14 1.972080 1_555
Mg1 O13 2.003048 1_555
Mg1 O12 2.100862 1_555
Mg1 O49 2.151802 1_555
Mg1 O48 2.174794 1_555
Mg1 O50 2.242367 1_555
Mg2 O17 1.965479 1_555
Mg2 O15 2.003527 1_555
Mg2 O16 2.047322 1_555
Mg2 O51 2.134017 1_555
Mg2 O53 2.153971 1_555
Mg2 O52 2.189639 1_555
O0 P0 1.521743 1_555
O1 P1 1.532218 1_555
O2 P2 1.524608 1_655
O3 P3 1.556649 1_555
O3 Ti0 1.983724 1_455
O4 P4 1.547937 1_655
O4 Ti0 2.019750 1_565
O5 P5 1.562832 1_545
O5 Ti0 1.924239 1_555
O6 P5 1.564705 1_555
O6 Ti1 2.024452 1_655
O7 P3 1.564953 1_555
O7 Ti1 1.948812 1_545
O8 P4 1.572343 1_555
O8 Ti1 1.897840 1_555
O9 P1 1.580402 1_555
O9 Ti2 2.011854 1_665
O10 P2 1.571052 1_555
O10 Ti2 2.010974 1_555
O11 P0 1.582089 1_565
O11 Ti2 1.889736 1_565
O12 P6 1.514738 1_555
O13 P7 1.509999 1_555
O14 Si0 1.580556 1_555
O15 Si1 1.597701 1_555
O16 P8 1.514640 1_555
O17 P9 1.507135 1_555
O18 P9 1.555353 1_555
O18 Ti3 2.081156 1_554
O19 Si1 1.666446 1_555
O19 Ti3 1.921075 1_554
O20 P8 1.564572 1_555
O20 Ti3 1.968222 1_554
O21 P7 1.581391 1_555
O21 Ti4 1.949803 1_555
O22 Si0 1.676628 1_555
O22 Ti4 1.834966 1_555
O23 P6 1.599200 1_555
O23 Ti4 1.911001 1_555
O24 Si2 1.622901 1_555
O24 Ti5 1.921828 1_556
O25 Si3 1.633558 1_555
O25 Ti5 1.897221 1_556
O26 Si4 1.631779 1_555
O26 Ti5 1.832601 1_556
O27 Si5 1.643003 1_555
O27 Ti6 1.868248 1_555
O28 P10 1.537545 1_555
O28 Ti6 1.958866 1_555
O29 P11 1.528376 1_555
O29 Ti6 1.985014 1_555
O30 P11 1.564691 1_555
O30 Ti7 2.020465 1_555
O31 Si5 1.676868 1_555
O31 Ti7 1.871000 1_555
O32 P10 1.570158 1_555
O32 Ti7 1.936888 1_555
O33 Si3 1.653487 1_555
O33 Ti8 1.907377 1_555
O34 Si4 1.646672 1_555
O34 Ti8 1.816229 1_555
O35 Si2 1.651691 1_555
O35 Ti8 1.875322 1_555
O36 P11 1.538544 1_555
O37 Si5 1.609769 1_555
O38 P10 1.530480 1_555
O39 Si3 1.634023 1_555
O39 Ti0 1.927297 1_455
O40 Si4 1.644799 1_555
O40 Ti0 1.980731 1_465
O41 Si2 1.637770 1_555
O41 Ti0 1.929388 1_565
O42 P6 1.561524 1_555
O42 Ti1 2.114782 1_645
O43 P7 1.551100 1_555
O43 Ti1 1.988447 1_545
O44 Si0 1.668053 1_555
O44 Ti1 1.930583 1_655
O45 Si1 1.663816 1_555
O45 Ti2 1.914157 1_665
O46 P8 1.581455 1_555
O46 Ti2 2.136351 1_655
O47 P9 1.581778 1_555
O47 Ti2 1.998630 1_555
O48 P5 1.521605 1_545
O49 P3 1.523079 1_555
O50 P4 1.538078 1_655
O51 P1 1.519718 1_555
O52 P2 1.544813 1_655
O53 P0 1.514537 1_555
O54 Si2 1.643540 1_555
O54 Ti3 1.996611 1_555
O55 Si3 1.626634 1_655
O55 Ti3 1.945408 1_555
O56 Si4 1.611339 1_545
O56 Ti3 1.981221 1_555
O57 Si5 1.648616 1_545
O57 Ti4 2.060340 1_555
O58 P10 1.556599 1_555
O58 Ti4 2.137578 1_555
O59 P11 1.565953 1_655
O59 Ti4 2.106869 1_555
O60 P9 1.562829 1_555
O60 Ti5 2.145034 1_555
O61 Si1 1.638154 1_455
O61 Ti5 1.944903 1_555
O62 P8 1.550660 1_565
O62 Ti5 2.084392 1_555
O63 P7 1.557968 1_565
O63 Ti6 2.005448 1_555
O64 Si0 1.666011 1_555
O64 Ti6 1.896809 1_555
O65 P6 1.538395 1_455
O65 Ti6 2.020584 1_555
O66 P0 1.588862 1_565
O66 Ti7 2.056851 1_555
O67 P1 1.582726 1_555
O67 Ti7 2.001638 1_555
O68 P2 1.571095 1_555
O68 Ti7 2.039272 1_555
O69 P3 1.569133 1_555
O69 Ti8 2.214912 1_555
O70 P4 1.553813 1_555
O70 Ti8 2.104686 1_555
O71 P5 1.560427 1_555
O71 Ti8 2.107524 1_555
