# generated using pymatgen
data_Mn3B7IO13
_symmetry_space_group_name_H-M   'P 1'
_cell_length_a   8.80037900
_cell_length_b   8.86348100
_cell_length_c   12.49874600
_cell_angle_alpha   90.00000000
_cell_angle_beta   90.00000000
_cell_angle_gamma   90.00000000
_symmetry_Int_Tables_number   1
_chemical_formula_structural   Mn3B7IO13
_chemical_formula_sum   'Mn12 B28 I4 O52'
_cell_volume   974.92708624
_cell_formula_units_Z   4
loop_
 _symmetry_equiv_pos_site_id
 _symmetry_equiv_pos_as_xyz
  1  'x, y, z'
loop_
 _atom_site_type_symbol
 _atom_site_label
 _atom_site_symmetry_multiplicity
 _atom_site_fract_x
 _atom_site_fract_y
 _atom_site_fract_z
 _atom_site_occupancy
  Mn  Mn0  1  0.74792700  0.24202800  0.24515200  1
  Mn  Mn1  1  0.25207300  0.75797200  0.74515200  1
  Mn  Mn2  1  0.25207300  0.74202800  0.24515200  1
  Mn  Mn3  1  0.74792700  0.25797200  0.74515200  1
  Mn  Mn4  1  0.97946600  0.49898700  0.01372500  1
  Mn  Mn5  1  0.02053400  0.50101300  0.51372500  1
  Mn  Mn6  1  0.02053400  0.99898700  0.01372500  1
  Mn  Mn7  1  0.97946600  0.00101300  0.51372500  1
  Mn  Mn8  1  0.47963400  0.50179600  0.50957200  1
  Mn  Mn9  1  0.52036600  0.00179600  0.50957200  1
  Mn  Mn10  1  0.52036600  0.49820400  0.00957200  1
  Mn  Mn11  1  0.47963400  0.99820400  0.00957200  1
  B  B0  1  0.50347600  0.99871900  0.75774700  1
  B  B1  1  0.09712400  0.25762700  0.17962800  1
  B  B2  1  0.90287600  0.74237300  0.67962800  1
  B  B3  1  0.90287600  0.75762700  0.17962800  1
  B  B4  1  0.09712400  0.24237300  0.67962800  1
  B  B5  1  0.25006500  0.40641600  0.33057200  1
  B  B6  1  0.74993500  0.59358400  0.83057200  1
  B  B7  1  0.74993500  0.90641600  0.33057200  1
  B  B8  1  0.25006500  0.09358400  0.83057200  1
  B  B9  1  0.59906600  0.74271400  0.67901800  1
  B  B10  1  0.40093400  0.25728600  0.17901800  1
  B  B11  1  0.40093400  0.24271400  0.67901800  1
  B  B12  1  0.59906600  0.75728600  0.17901800  1
  B  B13  1  0.75049700  0.94988600  0.85785100  1
  B  B14  1  0.24950300  0.05011400  0.35785100  1
  B  B15  1  0.24950300  0.44988600  0.85785100  1
  B  B16  1  0.50347600  0.50128100  0.25774700  1
  B  B17  1  0.49652400  0.49871900  0.75774700  1
  B  B18  1  0.49652400  0.00128100  0.25774700  1
  B  B19  1  0.75049700  0.55011400  0.35785100  1
  B  B20  1  0.75333000  0.74296800  0.50617000  1
  B  B21  1  0.24667000  0.25703200  0.00617000  1
  B  B22  1  0.24667000  0.24296800  0.50617000  1
  B  B23  1  0.75333000  0.75703200  0.00617000  1
  B  B24  1  0.00283500  0.00157000  0.25979100  1
  B  B25  1  0.99716500  0.99843000  0.75979100  1
  B  B26  1  0.99716500  0.50157000  0.25979100  1
  B  B27  1  0.00283500  0.49843000  0.75979100  1
  I  I0  1  0.74926000  0.24886400  0.50975300  1
  I  I1  1  0.25074000  0.75113600  0.00975300  1
  I  I2  1  0.25074000  0.74886400  0.50975300  1
  I  I3  1  0.74926000  0.25113600  0.00975300  1
  O  O0  1  0.05507400  0.09736900  0.16992700  1
  O  O1  1  0.40642300  0.04377100  0.84831600  1
  O  O2  1  0.59357700  0.95622900  0.34831600  1
  O  O3  1  0.59357700  0.54377100  0.84831600  1
  O  O4  1  0.40642300  0.45622900  0.34831600  1
  O  O5  1  0.09296100  0.46206100  0.85883000  1
  O  O6  1  0.90703900  0.53793900  0.35883000  1
  O  O7  1  0.90703900  0.96206100  0.85883000  1
  O  O8  1  0.09296100  0.03793900  0.35883000  1
  O  O9  1  0.46290300  0.08952900  0.66320200  1
  O  O10  1  0.53709700  0.91047100  0.16320200  1
  O  O11  1  0.53709700  0.58952900  0.66320200  1
  O  O12  1  0.46290300  0.41047100  0.16320200  1
  O  O13  1  0.05507400  0.40263100  0.66992700  1
  O  O14  1  0.94492600  0.59736900  0.16992700  1
  O  O15  1  0.94492600  0.90263100  0.66992700  1
  O  O16  1  0.75031800  0.77486100  0.24616800  1
  O  O17  1  0.24968200  0.22513900  0.74616800  1
  O  O18  1  0.24968200  0.27486100  0.24616800  1
  O  O19  1  0.75031800  0.72513900  0.74616800  1
  O  O20  1  0.66680800  0.46627600  0.28523600  1
  O  O21  1  0.33319200  0.53372400  0.78523600  1
  O  O22  1  0.33319200  0.96627600  0.28523600  1
  O  O23  1  0.66680800  0.03372400  0.78523600  1
  O  O24  1  0.67726400  0.62039600  0.44219800  1
  O  O25  1  0.32273600  0.37960400  0.94219800  1
  O  O26  1  0.32273600  0.12039600  0.44219800  1
  O  O27  1  0.67726400  0.87960400  0.94219800  1
  O  O28  1  0.84154300  0.02993200  0.28460200  1
  O  O29  1  0.15845700  0.97006800  0.78460200  1
  O  O30  1  0.15845700  0.52993200  0.28460200  1
  O  O31  1  0.84154300  0.47006800  0.78460200  1
  O  O32  1  0.63787800  0.68778200  0.07631200  1
  O  O33  1  0.36212200  0.31221800  0.57631200  1
  O  O34  1  0.36212200  0.18778200  0.07631200  1
  O  O35  1  0.63787800  0.81221800  0.57631200  1
  O  O36  1  0.02379300  0.84088600  0.23355000  1
  O  O37  1  0.97620700  0.15911400  0.73355000  1
  O  O38  1  0.97620700  0.34088600  0.23355000  1
  O  O39  1  0.02379300  0.65911400  0.73355000  1
  O  O40  1  0.81688000  0.85812400  0.43295700  1
  O  O41  1  0.18312000  0.14187600  0.93295700  1
  O  O42  1  0.18312000  0.35812400  0.43295700  1
  O  O43  1  0.81688000  0.64187600  0.93295700  1
  O  O44  1  0.87484800  0.67818800  0.57270100  1
  O  O45  1  0.51276200  0.33595900  0.73602100  1
  O  O46  1  0.51276200  0.16404100  0.23602100  1
  O  O47  1  0.48723800  0.83595900  0.73602100  1
  O  O48  1  0.87484800  0.82181200  0.07270100  1
  O  O49  1  0.12515200  0.17818800  0.57270100  1
  O  O50  1  0.12515200  0.32181200  0.07270100  1
  O  O51  1  0.48723800  0.66404100  0.23602100  1
loop_
_geom_bond_atom_site_label_1
_geom_bond_atom_site_label_2
_geom_bond_distance
_geom_bond_site_symmetry_2
Mn0 O28 2.110905 1_555
Mn0 O20 2.170541 1_555
Mn0 O46 2.184910 1_555
Mn0 O38 2.196516 1_555
Mn1 O29 2.110905 1_555
Mn1 O21 2.170541 1_555
Mn1 O47 2.184910 1_555
Mn1 O39 2.196516 1_555
Mn2 O30 2.110905 1_555
Mn2 O22 2.170541 1_555
Mn2 O51 2.184910 1_555
Mn2 O36 2.196516 1_555
Mn3 O31 2.110905 1_555
Mn3 O23 2.170541 1_555
Mn3 O45 2.184910 1_555
Mn3 O37 2.196516 1_555
Mn4 O50 2.157135 1_655
Mn4 O14 2.159718 1_555
Mn4 O43 2.161096 1_554
Mn4 O5 2.202905 1_654
Mn5 O44 2.157135 1_455
Mn5 O13 2.159718 1_555
Mn5 O42 2.161096 1_555
Mn5 O6 2.202905 1_455
Mn6 O48 2.157135 1_455
Mn6 O0 2.159718 1_565
Mn6 O41 2.161096 1_564
Mn6 O7 2.202905 1_454
Mn7 O49 2.157135 1_655
Mn7 O15 2.159718 1_545
Mn7 O40 2.161096 1_545
Mn7 O8 2.202905 1_655
Mn8 O11 2.132492 1_555
Mn8 O33 2.142143 1_555
Mn8 O4 2.154171 1_555
Mn8 O24 2.199782 1_555
Mn9 O9 2.132492 1_555
Mn9 O35 2.142143 1_545
Mn9 O2 2.154171 1_545
Mn9 O26 2.199782 1_555
Mn10 O12 2.132492 1_555
Mn10 O32 2.142143 1_555
Mn10 O3 2.154171 1_554
Mn10 O25 2.199782 1_554
Mn11 O10 2.132492 1_555
Mn11 O34 2.142143 1_565
Mn11 O1 2.154171 1_564
Mn11 O27 2.199782 1_554
B0 O1 1.473217 1_565
B0 O9 1.473684 1_565
B0 O47 1.474894 1_555
B0 O23 1.510093 1_565
B1 O38 1.459847 1_455
B1 O0 1.472856 1_555
B1 O50 1.473295 1_555
B1 O18 1.586661 1_555
B2 O39 1.459847 1_655
B2 O15 1.472856 1_555
B2 O44 1.473295 1_555
B2 O19 1.586661 1_555
B3 O36 1.459847 1_655
B3 O14 1.472856 1_555
B3 O48 1.473295 1_555
B3 O16 1.586661 1_555
B4 O37 1.459847 1_455
B4 O13 1.472856 1_555
B4 O49 1.473295 1_555
B4 O17 1.586661 1_555
B5 O4 1.462028 1_555
B5 O42 1.472377 1_555
B5 O30 1.476011 1_555
B5 O18 1.572437 1_555
B6 O3 1.462028 1_555
B6 O43 1.472377 1_555
B6 O31 1.476011 1_555
B6 O19 1.572437 1_555
B7 O2 1.462028 1_555
B7 O40 1.472377 1_555
B7 O28 1.476011 1_565
B7 O16 1.572437 1_555
B8 O1 1.462028 1_555
B8 O41 1.472377 1_555
B8 O29 1.476011 1_545
B8 O17 1.572437 1_555
B9 O35 1.464259 1_555
B9 O47 1.469414 1_555
B9 O11 1.476474 1_555
B9 O19 1.581277 1_555
B10 O34 1.464259 1_555
B10 O46 1.469414 1_555
B10 O12 1.476474 1_555
B10 O18 1.581277 1_555
B11 O33 1.464259 1_555
B11 O45 1.469414 1_555
B11 O9 1.476474 1_555
B11 O17 1.581277 1_555
B12 O32 1.464259 1_555
B12 O51 1.469414 1_555
B12 O10 1.476474 1_555
B12 O16 1.581277 1_555
B13 O7 1.381903 1_555
B13 O27 1.383768 1_555
B13 O23 1.385045 1_565
B14 O8 1.381903 1_555
B14 O26 1.383768 1_555
B14 O22 1.385045 1_545
B15 O5 1.381903 1_555
B15 O25 1.383768 1_555
B15 O21 1.385045 1_555
B16 O4 1.473217 1_555
B16 O12 1.473684 1_555
B16 O51 1.474894 1_555
B16 O20 1.510093 1_555
B17 O3 1.473217 1_555
B17 O11 1.473684 1_555
B17 O45 1.474894 1_555
B17 O21 1.510093 1_555
B18 O2 1.473217 1_545
B18 O10 1.473684 1_545
B18 O46 1.474894 1_555
B18 O22 1.510093 1_545
B19 O6 1.381903 1_555
B19 O24 1.383768 1_555
B19 O20 1.385045 1_555
B20 O44 1.471321 1_555
B20 O35 1.475678 1_555
B20 O40 1.480515 1_555
B20 O24 1.505894 1_555
B21 O50 1.471321 1_555
B21 O34 1.475678 1_555
B21 O41 1.480515 1_554
B21 O25 1.505894 1_554
B22 O49 1.471321 1_555
B22 O33 1.475678 1_555
B22 O42 1.480515 1_555
B22 O26 1.505894 1_555
B23 O48 1.471321 1_555
B23 O32 1.475678 1_555
B23 O43 1.480515 1_554
B23 O27 1.505894 1_554
B24 O36 1.473088 1_545
B24 O28 1.474498 1_455
B24 O0 1.481178 1_555
B24 O8 1.505090 1_555
B25 O37 1.473088 1_565
B25 O29 1.474498 1_655
B25 O15 1.481178 1_555
B25 O7 1.505090 1_555
B26 O38 1.473088 1_555
B26 O30 1.474498 1_655
B26 O14 1.481178 1_555
B26 O6 1.505090 1_555
B27 O39 1.473088 1_555
B27 O31 1.474498 1_455
B27 O13 1.481178 1_555
B27 O5 1.505090 1_555
I0 Mn3 2.943323 1_555
I0 Mn9 2.975435 1_555
I0 Mn7 2.988773 1_555
I0 Mn8 3.264378 1_555
I0 Mn5 3.270564 1_655
I0 Mn0 3.307756 1_555
I1 Mn2 2.943323 1_555
I1 Mn11 2.975435 1_555
I1 Mn6 2.988773 1_555
I1 Mn10 3.264378 1_555
I1 Mn4 3.270564 1_455
I1 Mn1 3.307756 1_554
I2 Mn1 2.943323 1_555
I2 Mn8 2.975435 1_555
I2 Mn5 2.988773 1_555
I2 Mn9 3.264378 1_565
I2 Mn7 3.270564 1_465
I2 Mn2 3.307756 1_555
I3 Mn0 2.943323 1_555
I3 Mn10 2.975435 1_555
I3 Mn4 2.988773 1_555
I3 Mn11 3.264378 1_545
I3 Mn6 3.270564 1_645
I3 Mn3 3.307756 1_554
