# generated using pymatgen
data_Cs(FeAs)2
_symmetry_space_group_name_H-M   'P 1'
_cell_length_a   3.67167143
_cell_length_b   3.67167160
_cell_length_c   8.41687015
_cell_angle_alpha   102.59827384
_cell_angle_beta   102.59827305
_cell_angle_gamma   90.00000821
_symmetry_Int_Tables_number   1
_chemical_formula_structural   Cs(FeAs)2
_chemical_formula_sum   'Cs1 Fe2 As2'
_cell_volume   107.93622147
_cell_formula_units_Z   1
loop_
 _symmetry_equiv_pos_site_id
 _symmetry_equiv_pos_as_xyz
  1  'x, y, z'
loop_
 _atom_site_type_symbol
 _atom_site_label
 _atom_site_symmetry_multiplicity
 _atom_site_fract_x
 _atom_site_fract_y
 _atom_site_fract_z
 _atom_site_occupancy
  Cs  Cs0  1  -0.00000000  -0.00000000  0.00000000  1
  Fe  Fe0  1  0.25000000  0.75000000  0.50000000  1
  Fe  Fe1  1  0.75000000  0.25000000  0.50000000  1
  As  As0  1  0.65563162  0.65563162  0.31126424  1
  As  As1  1  0.34436838  0.34436838  0.68873576  1
loop_
_geom_bond_atom_site_label_1
_geom_bond_atom_site_label_2
_geom_bond_distance
_geom_bond_site_symmetry_2
As0 Fe0 2.377754 1_555
As0 Fe1 2.377754 1_555
As0 Fe0 2.377757 1_655
As0 Fe1 2.377757 1_565
As0 Cs0 3.598782 1_555
As0 Cs0 3.598784 1_655
As0 Cs0 3.598784 1_565
As0 Cs0 3.598785 1_665
As1 Fe1 2.377754 1_555
As1 Fe0 2.377754 1_555
As1 Fe1 2.377757 1_455
As1 Fe0 2.377757 1_545
As1 Cs0 3.598782 1_666
As1 Cs0 3.598784 1_566
As1 Cs0 3.598784 1_656
As1 Cs0 3.598785 1_556
