# generated using pymatgen
data_GeRh2
_symmetry_space_group_name_H-M   'P 1'
_cell_length_a   4.01262865
_cell_length_b   5.49899679
_cell_length_c   7.58416638
_cell_angle_alpha   90.00000000
_cell_angle_beta   90.00000000
_cell_angle_gamma   90.00000000
_symmetry_Int_Tables_number   1
_chemical_formula_structural   GeRh2
_chemical_formula_sum   'Ge4 Rh8'
_cell_volume   167.34790803
_cell_formula_units_Z   4
loop_
 _symmetry_equiv_pos_site_id
 _symmetry_equiv_pos_as_xyz
  1  'x, y, z'
loop_
 _atom_site_type_symbol
 _atom_site_label
 _atom_site_symmetry_multiplicity
 _atom_site_fract_x
 _atom_site_fract_y
 _atom_site_fract_z
 _atom_site_occupancy
  Ge  Ge0  1  0.75000000  0.28517685  0.60481608  1
  Ge  Ge1  1  0.25000000  0.71482315  0.39518392  1
  Ge  Ge2  1  0.75000000  0.78517685  0.89518392  1
  Ge  Ge3  1  0.25000000  0.21482315  0.10481608  1
  Rh  Rh0  1  0.75000000  0.97007892  0.20339506  1
  Rh  Rh1  1  0.25000000  0.02992108  0.79660494  1
  Rh  Rh2  1  0.75000000  0.47007892  0.29660494  1
  Rh  Rh3  1  0.25000000  0.52992108  0.70339506  1
  Rh  Rh4  1  0.75000000  0.83834029  0.56969689  1
  Rh  Rh5  1  0.25000000  0.16165971  0.43030311  1
  Rh  Rh6  1  0.75000000  0.33834029  0.93030311  1
  Rh  Rh7  1  0.25000000  0.66165971  0.06969689  1
loop_
_geom_bond_atom_site_label_1
_geom_bond_atom_site_label_2
_geom_bond_distance
_geom_bond_site_symmetry_2
Ge0 Rh4 2.471547 1_545
Ge0 Rh6 2.485798 1_555
Ge0 Rh5 2.497676 1_655
Ge0 Rh5 2.497676 1_555
Ge0 Rh3 2.528946 1_555
Ge0 Rh3 2.528946 1_655
Ge0 Rh2 2.549089 1_555
Ge0 Rh1 2.848030 1_655
Ge0 Rh1 2.848030 1_555
Ge0 Rh4 3.053483 1_555
Ge1 Rh5 2.471547 1_565
Ge1 Rh7 2.485798 1_555
Ge1 Rh4 2.497676 1_555
Ge1 Rh4 2.497676 1_455
Ge1 Rh2 2.528946 1_555
Ge1 Rh2 2.528946 1_455
Ge1 Rh3 2.549089 1_555
Ge1 Rh0 2.848030 1_455
Ge1 Rh0 2.848030 1_555
Ge1 Rh5 3.053483 1_555
Ge2 Rh6 2.471547 1_555
Ge2 Rh4 2.485798 1_555
Ge2 Rh7 2.497676 1_556
Ge2 Rh7 2.497676 1_656
Ge2 Rh1 2.528946 1_565
Ge2 Rh1 2.528946 1_665
Ge2 Rh0 2.549089 1_556
Ge2 Rh3 2.848030 1_555
Ge2 Rh3 2.848030 1_655
Ge2 Rh6 3.053483 1_565
Ge3 Rh7 2.471547 1_555
Ge3 Rh5 2.485798 1_555
Ge3 Rh6 2.497676 1_554
Ge3 Rh6 2.497676 1_454
Ge3 Rh0 2.528946 1_445
Ge3 Rh0 2.528946 1_545
Ge3 Rh1 2.549089 1_554
Ge3 Rh2 2.848030 1_555
Ge3 Rh2 2.848030 1_455
Ge3 Rh7 3.053483 1_545
