# generated using pymatgen
data_MgFe6(O5F)2
_symmetry_space_group_name_H-M   'P 1'
_cell_length_a   11.16706531
_cell_length_b   6.79270585
_cell_length_c   2.95691641
_cell_angle_alpha   90.03386316
_cell_angle_beta   90.04760004
_cell_angle_gamma   74.15466664
_symmetry_Int_Tables_number   1
_chemical_formula_structural   MgFe6(O5F)2
_chemical_formula_sum   'Mg1 Fe6 O10 F2'
_cell_volume   215.77286272
_cell_formula_units_Z   1
loop_
 _symmetry_equiv_pos_site_id
 _symmetry_equiv_pos_as_xyz
  1  'x, y, z'
loop_
 _atom_site_type_symbol
 _atom_site_label
 _atom_site_symmetry_multiplicity
 _atom_site_fract_x
 _atom_site_fract_y
 _atom_site_fract_z
 _atom_site_occupancy
  Mg  Mg0  1  0.83179300  0.33446000  0.51100200  1
  Fe  Fe0  1  0.04262700  0.96668200  0.01049100  1
  Fe  Fe1  1  0.04081500  0.49423800  0.50950700  1
  Fe  Fe2  1  0.33122800  0.35000200  0.01342800  1
  Fe  Fe3  1  0.62114600  0.17442900  0.51307800  1
  Fe  Fe4  1  0.33485700  0.81532300  0.51309600  1
  Fe  Fe5  1  0.63762800  0.69411700  0.01328900  1
  O  O0  1  0.97078800  0.32994200  0.01090100  1
  O  O1  1  0.02704400  0.68596100  0.00980100  1
  O  O2  1  0.21623600  0.37003900  0.51230800  1
  O  O3  1  0.44698700  0.29699700  0.51405400  1
  O  O4  1  0.15278600  0.95556700  0.51076500  1
  O  O5  1  0.32367700  0.64219800  0.01290300  1
  O  O6  1  0.69358300  0.32383800  0.01248100  1
  O  O7  1  0.52171800  0.71332000  0.51274200  1
  O  O8  1  0.75199400  0.63612100  0.51332100  1
  O  O9  1  0.63170800  0.98695500  0.01279700  1
  F  F0  1  0.35197400  0.01570300  0.01277900  1
  F  F1  1  0.90266000  0.03410900  0.51042200  1
loop_
_geom_bond_atom_site_label_1
_geom_bond_atom_site_label_2
_geom_bond_distance
_geom_bond_site_symmetry_2
Mg0 O8 1.998945 1_555
Mg0 O0 2.136667 1_556
Mg0 O0 2.138839 1_555
Mg0 O6 2.148749 1_555
Mg0 O6 2.156576 1_556
Fe0 O4 1.911439 1_555
Fe0 O4 1.911698 1_554
Fe0 O1 1.961525 1_555
Fe0 O0 2.377233 1_465
Fe1 O2 1.909645 1_555
Fe1 O1 1.948200 1_555
Fe1 O1 1.948545 1_556
Fe1 O0 2.122119 1_455
Fe1 O0 2.129673 1_456
Fe2 O3 1.931172 1_554
Fe2 O3 1.932687 1_555
Fe2 O2 1.936756 1_555
Fe2 O2 1.940302 1_554
Fe2 O5 1.963456 1_555
Fe3 O3 1.895094 1_555
Fe3 O9 1.933623 1_546
Fe3 O9 1.933892 1_545
Fe3 O6 2.075937 1_556
Fe3 O6 2.080258 1_555
Fe4 O5 1.914124 1_555
Fe4 O5 1.914477 1_556
Fe4 O4 1.995930 1_555
Fe4 O7 2.011173 1_555
Fe5 O8 1.922286 1_555
Fe5 O8 1.923414 1_554
Fe5 O7 1.945309 1_555
Fe5 O7 1.946250 1_554
Fe5 O9 1.972139 1_555
Fe5 O6 2.420416 1_555
F0 Fe4 2.052191 1_544
F0 Fe4 2.054928 1_545
F0 Fe2 2.218760 1_555
F1 Mg0 1.976611 1_555
F1 Fe0 2.108383 1_646
F1 Fe0 2.109538 1_645
