# generated using pymatgen
data_Sr4MgNi2(ClO3)2
_symmetry_space_group_name_H-M   'P 1'
_cell_length_a   3.99102891
_cell_length_b   3.99369121
_cell_length_c   17.73875445
_cell_angle_alpha   90.00000000
_cell_angle_beta   90.00000000
_cell_angle_gamma   90.00000000
_symmetry_Int_Tables_number   1
_chemical_formula_structural   Sr4MgNi2(ClO3)2
_chemical_formula_sum   'Sr4 Mg1 Ni2 Cl2 O6'
_cell_volume   282.73689100
_cell_formula_units_Z   1
loop_
 _symmetry_equiv_pos_site_id
 _symmetry_equiv_pos_as_xyz
  1  'x, y, z'
loop_
 _atom_site_type_symbol
 _atom_site_label
 _atom_site_symmetry_multiplicity
 _atom_site_fract_x
 _atom_site_fract_y
 _atom_site_fract_z
 _atom_site_occupancy
  Sr  Sr0  1  0.25000000  0.25000000  0.92630084  1
  Sr  Sr1  1  0.75000000  0.75000000  0.07369143  1
  Sr  Sr2  1  0.25000000  0.25000000  0.73184363  1
  Sr  Sr3  1  0.75000000  0.75000000  0.26814997  1
  Mg  Mg0  1  0.25000000  0.75000000  0.50000404  1
  Ni  Ni0  1  0.75000000  0.75000000  0.82767380  1
  Ni  Ni1  1  0.25000000  0.25000000  0.17229650  1
  Cl  Cl0  1  0.75000000  0.75000000  0.57989310  1
  Cl  Cl1  1  0.25000000  0.25000000  0.42018339  1
  O  O0  1  0.25000000  0.75000000  0.80162482  1
  O  O1  1  0.75000000  0.25000000  0.80202048  1
  O  O2  1  0.75000000  0.25000000  0.19816105  1
  O  O3  1  0.25000000  0.75000000  0.19816251  1
  O  O4  1  0.75000000  0.75000000  0.93902134  1
  O  O5  1  0.25000000  0.25000000  0.06097311  1
loop_
_geom_bond_atom_site_label_1
_geom_bond_atom_site_label_2
_geom_bond_distance
_geom_bond_site_symmetry_2
Ni0 O4 1.975167 1_555
Ni0 O1 2.048041 1_565
Ni0 O1 2.048041 1_555
Ni0 O0 2.048315 1_555
Ni0 O0 2.048315 1_655
Ni1 O5 1.974738 1_555
Ni1 O2 2.047579 1_555
Ni1 O2 2.047579 1_455
Ni1 O3 2.048882 1_555
Ni1 O3 2.048882 1_545
Cl0 Mg0 2.447518 1_555
Cl0 Mg0 2.447518 1_655
Cl1 Mg0 2.447901 1_545
Cl1 Mg0 2.447901 1_555
O0 Sr2 2.349387 1_565
O0 Sr2 2.349387 1_555
O0 Sr0 2.979690 1_555
O0 Sr0 2.979690 1_565
O1 Sr2 2.351963 1_555
O1 Sr2 2.351963 1_655
O1 Sr0 2.973591 1_555
O1 Sr0 2.973591 1_655
O2 Sr3 2.351330 1_545
O2 Sr3 2.351330 1_555
O2 Sr1 2.976974 1_555
O2 Sr1 2.976974 1_545
O3 Sr3 2.350186 1_555
O3 Sr3 2.350186 1_455
O3 Sr1 2.976100 1_555
O3 Sr1 2.976100 1_455
O4 Sr1 2.388880 1_556
O4 Sr0 2.832029 1_555
O4 Sr0 2.832029 1_565
O4 Sr0 2.832029 1_665
O4 Sr0 2.832029 1_655
O5 Sr0 2.388918 1_554
O5 Sr1 2.832026 1_555
O5 Sr1 2.832026 1_455
O5 Sr1 2.832026 1_445
O5 Sr1 2.832026 1_545
