# generated using pymatgen
data_CoH4(CO3)2
_symmetry_space_group_name_H-M   'P 1'
_cell_length_a   6.85893680
_cell_length_b   8.13115237
_cell_length_c   10.38669023
_cell_angle_alpha   106.31537085
_cell_angle_beta   103.49572195
_cell_angle_gamma   96.89310485
_symmetry_Int_Tables_number   1
_chemical_formula_structural   CoH4(CO3)2
_chemical_formula_sum   'Co4 H16 C8 O24'
_cell_volume   529.80166019
_cell_formula_units_Z   4
loop_
 _symmetry_equiv_pos_site_id
 _symmetry_equiv_pos_as_xyz
  1  'x, y, z'
loop_
 _atom_site_type_symbol
 _atom_site_label
 _atom_site_symmetry_multiplicity
 _atom_site_fract_x
 _atom_site_fract_y
 _atom_site_fract_z
 _atom_site_occupancy
  Co  Co0  1  0.66532600  0.25000000  0.91532600  1
  Co  Co1  1  0.83467400  0.75000000  0.58467400  1
  Co  Co2  1  0.16532600  0.25000000  0.41532600  1
  Co  Co3  1  0.33467400  0.75000000  0.08467400  1
  H  H0  1  0.92158400  0.35908800  0.57970700  1
  H  H1  1  0.42158400  0.35908800  0.07970700  1
  H  H2  1  0.47922400  0.14091200  0.32110200  1
  H  H3  1  0.97922400  0.14091200  0.82110200  1
  H  H4  1  0.52077600  0.85908800  0.67889800  1
  H  H5  1  0.02077600  0.85908800  0.17889800  1
  H  H6  1  0.07841600  0.64091200  0.42029300  1
  H  H7  1  0.57841600  0.64091200  0.92029300  1
  H  H8  1  0.85085700  0.14784900  0.50880100  1
  H  H9  1  0.35085700  0.14784900  0.00880100  1
  H  H10  1  0.51384900  0.35215100  0.35590400  1
  H  H11  1  0.01384900  0.35215100  0.85590400  1
  H  H12  1  0.14914300  0.85215100  0.49119900  1
  H  H13  1  0.64914300  0.85215100  0.99119900  1
  H  H14  1  0.48615100  0.64784900  0.64409600  1
  H  H15  1  0.98615100  0.64784900  0.14409600  1
  C  C0  1  0.11064100  0.85209800  0.85975800  1
  C  C1  1  0.61064100  0.85209800  0.35975800  1
  C  C2  1  0.88935900  0.14790200  0.14024200  1
  C  C3  1  0.38935900  0.14790200  0.64024200  1
  C  C4  1  0.94173200  0.35209800  0.19084900  1
  C  C5  1  0.44173200  0.35209800  0.69084900  1
  C  C6  1  0.05826800  0.64790200  0.80915100  1
  C  C7  1  0.55826800  0.64790200  0.30915100  1
  O  O0  1  0.06281800  0.42739100  0.31202900  1
  O  O1  1  0.56281800  0.42739100  0.81202900  1
  O  O2  1  0.02706000  0.92739100  0.77627200  1
  O  O3  1  0.52706000  0.92739100  0.27627200  1
  O  O4  1  0.97294000  0.07260900  0.22372800  1
  O  O5  1  0.47294000  0.07260900  0.72372800  1
  O  O6  1  0.93718200  0.57260900  0.68797100  1
  O  O7  1  0.43718200  0.57260900  0.18797100  1
  O  O8  1  0.91897300  0.25695900  0.49955000  1
  O  O9  1  0.41897300  0.25695900  0.99955000  1
  O  O10  1  0.41135900  0.24304100  0.33078200  1
  O  O11  1  0.91135900  0.24304100  0.83078200  1
  O  O12  1  0.58864100  0.75695900  0.66921800  1
  O  O13  1  0.08864100  0.75695900  0.16921800  1
  O  O14  1  0.08102700  0.74304100  0.50045000  1
  O  O15  1  0.58102700  0.74304100  0.00045000  1
  O  O16  1  0.26686600  0.07122600  0.51946800  1
  O  O17  1  0.76686600  0.07122600  0.01946800  1
  O  O18  1  0.36015600  0.42877400  0.60755400  1
  O  O19  1  0.86015600  0.42877400  0.10755400  1
  O  O20  1  0.73313400  0.92877400  0.48053200  1
  O  O21  1  0.23313400  0.92877400  0.98053200  1
  O  O22  1  0.63984400  0.57122600  0.39244600  1
  O  O23  1  0.13984400  0.57122600  0.89244600  1
loop_
_geom_bond_atom_site_label_1
_geom_bond_atom_site_label_2
_geom_bond_distance
_geom_bond_site_symmetry_2
Co0 O9 2.075745 1_555
Co0 O11 2.075745 1_555
Co0 O5 2.118208 1_555
Co0 O1 2.118211 1_555
Co0 O19 2.131432 1_556
Co0 O17 2.131432 1_556
Co1 O14 2.075745 1_655
Co1 O12 2.075745 1_555
Co1 O2 2.118208 1_655
Co1 O6 2.118211 1_555
Co1 O22 2.131432 1_555
Co1 O20 2.131432 1_555
Co2 O8 2.075745 1_455
Co2 O10 2.075745 1_555
Co2 O4 2.118208 1_455
Co2 O0 2.118211 1_555
Co2 O18 2.131432 1_555
Co2 O16 2.131432 1_555
Co3 O15 2.075745 1_555
Co3 O13 2.075745 1_555
Co3 O3 2.118208 1_555
Co3 O7 2.118211 1_555
Co3 O23 2.131432 1_554
Co3 O21 2.131432 1_554
H0 O8 0.992024 1_555
H0 O6 1.758578 1_555
H1 O9 0.992024 1_554
H1 O7 1.758578 1_555
H2 O10 0.992023 1_555
H2 O3 1.758577 1_545
H3 O11 0.992023 1_555
H3 O2 1.758577 1_645
H4 O12 0.992023 1_555
H4 O5 1.758577 1_565
H5 O13 0.992023 1_555
H5 O4 1.758577 1_465
H6 O14 0.992024 1_555
H6 O0 1.758578 1_555
H7 O15 0.992024 1_556
H7 O1 1.758578 1_555
H8 O8 0.991954 1_555
H9 O9 0.991954 1_554
H10 O10 0.991957 1_555
H11 O11 0.991957 1_455
H12 O14 0.991954 1_555
H13 O15 0.991954 1_556
H14 O12 0.991957 1_555
H15 O13 0.991957 1_655
C0 O2 1.267237 1_555
C0 O21 1.269307 1_555
C1 O3 1.267237 1_555
C1 O20 1.269307 1_555
C2 O4 1.267237 1_555
C2 O17 1.269307 1_555
C3 O5 1.267237 1_555
C3 O16 1.269307 1_555
C4 O0 1.267240 1_655
C4 O19 1.269302 1_555
C5 O1 1.267240 1_555
C5 O18 1.269302 1_555
C6 O6 1.267240 1_455
C6 O23 1.269302 1_555
C7 O7 1.267240 1_555
C7 O22 1.269302 1_555
