# generated using pymatgen
data_Na6Zr4Ta4Si9(SO16)3
_symmetry_space_group_name_H-M   'P 1'
_cell_length_a   18.05460367
_cell_length_b   9.00195970
_cell_length_c   22.95003591
_cell_angle_alpha   89.97805199
_cell_angle_beta   89.93252975
_cell_angle_gamma   119.83774629
_symmetry_Int_Tables_number   1
_chemical_formula_structural   Na6Zr4Ta4Si9(SO16)3
_chemical_formula_sum   'Na18 Zr12 Ta12 Si27 S9 O144'
_cell_volume   3235.53568937
_cell_formula_units_Z   3
loop_
 _symmetry_equiv_pos_site_id
 _symmetry_equiv_pos_as_xyz
  1  'x, y, z'
loop_
 _atom_site_type_symbol
 _atom_site_label
 _atom_site_symmetry_multiplicity
 _atom_site_fract_x
 _atom_site_fract_y
 _atom_site_fract_z
 _atom_site_occupancy
  Na  Na0  1  0.00439521  0.64997160  0.24168412  1
  Na  Na1  1  0.49868701  0.61366536  0.24620743  1
  Na  Na2  1  0.99839683  0.38405823  0.74655961  1
  Na  Na3  1  0.50531680  0.36733484  0.74450238  1
  Na  Na4  1  0.33297723  0.97575848  0.58962107  1
  Na  Na5  1  0.83142009  0.68986670  0.07973974  1
  Na  Na6  1  0.99653380  0.01582772  0.50352613  1
  Na  Na7  1  0.50705207  0.00214333  0.50468142  1
  Na  Na8  1  0.00703591  0.01776760  0.99834673  1
  Na  Na9  1  0.49722446  0.98075714  0.99572925  1
  Na  Na10  1  0.32508725  0.34412679  0.82836473  1
  Na  Na11  1  0.82497333  0.34474693  0.83150049  1
  Na  Na12  1  0.32794888  0.31027635  0.33381635  1
  Na  Na13  1  0.81500419  0.30190681  0.33373464  1
  Na  Na14  1  0.17540473  0.68917923  0.15730786  1
  Na  Na15  1  0.66004014  0.64495271  0.16858107  1
  Na  Na16  1  0.16334303  0.67984205  0.67156317  1
  Na  Na17  1  0.66446768  0.66038026  0.66614750  1
  Zr  Zr0  1  0.50812527  0.01423350  0.64778250  1
  Zr  Zr1  1  0.00592782  0.98874697  0.14349547  1
  Zr  Zr2  1  0.33520734  0.32499941  0.69117305  1
  Zr  Zr3  1  0.82642013  0.34473954  0.68675960  1
  Zr  Zr4  1  0.32755563  0.30839377  0.18679371  1
  Zr  Zr5  1  0.83011561  0.34252892  0.18863498  1
  Zr  Zr6  1  0.66192066  0.67199161  0.01873818  1
  Zr  Zr7  1  0.16422037  0.65426328  0.52101387  1
  Zr  Zr8  1  0.17779771  0.67877076  0.31673536  1
  Zr  Zr9  1  0.66639837  0.67692809  0.30951133  1
  Zr  Zr10  1  0.16737387  0.65541606  0.80972790  1
  Zr  Zr11  1  0.67205419  0.67912009  0.81451535  1
  Ta  Ta0  1  0.99891382  0.99764799  0.35590452  1
  Ta  Ta1  1  0.50544486  0.01081794  0.35712525  1
  Ta  Ta2  1  0.00396876  0.99891351  0.85630339  1
  Ta  Ta3  1  0.49825572  0.98390384  0.85174674  1
  Ta  Ta4  1  0.00503635  0.99359854  0.63995459  1
  Ta  Ta5  1  0.50499003  0.01614434  0.13891140  1
  Ta  Ta6  1  0.33617057  0.34830642  0.98617430  1
  Ta  Ta7  1  0.83246561  0.34107626  0.97437233  1
  Ta  Ta8  1  0.33293824  0.32712263  0.47581475  1
  Ta  Ta9  1  0.83528719  0.32245645  0.48678025  1
  Ta  Ta10  1  0.16865761  0.65340321  0.02062498  1
  Ta  Ta11  1  0.66811531  0.68358062  0.52197065  1
  Si  Si0  1  0.14655699  -0.00015307  0.25409263  1
  Si  Si1  1  0.64150566  0.00308485  0.24757178  1
  Si  Si2  1  0.85504441  0.71449264  0.24877861  1
  Si  Si3  1  0.49861636  0.28383810  0.25026809  1
  Si  Si4  1  0.14084254  0.27883869  0.74752430  1
  Si  Si5  1  0.64671402  0.28959480  0.75520640  1
  Si  Si6  1  0.99850074  0.71207057  0.75047403  1
  Si  Si7  1  0.50207688  0.70924120  0.74823313  1
  Si  Si8  1  0.35554392  0.99262764  0.74870444  1
  Si  Si9  1  0.47977531  0.33705690  0.58190902  1
  Si  Si10  1  0.97861118  0.33127627  0.59097151  1
  Si  Si11  1  0.19150071  0.04693609  0.58122943  1
  Si  Si12  1  0.68613589  0.04331487  0.58527536  1
  Si  Si13  1  0.83291848  0.62552244  0.57877323  1
  Si  Si14  1  0.47914486  0.62517660  0.09084977  1
  Si  Si15  1  0.97953164  0.61401201  0.08291803  1
  Si  Si16  1  0.33223392  0.03964169  0.07907014  1
  Si  Si17  1  0.18789671  0.33203769  0.08544406  1
  Si  Si18  1  0.68973549  0.33730693  0.08037121  1
  Si  Si19  1  0.31359167  0.66520353  0.91629272  1
  Si  Si20  1  0.81555267  0.67655925  0.91953429  1
  Si  Si21  1  0.02179151  0.37523772  0.91503161  1
  Si  Si22  1  0.66478955  0.96741734  0.91646801  1
  Si  Si23  1  0.31790831  0.96111620  0.42075195  1
  Si  Si24  1  0.81146946  0.96252210  0.41577406  1
  Si  Si25  1  0.16630604  0.36843820  0.41573534  1
  Si  Si26  1  0.52197689  0.66759873  0.41490628  1
  S  S0  1  0.36082281  0.72285814  0.25059085  1
  S  S1  1  0.00098111  0.28617231  0.25193274  1
  S  S2  1  0.86144791  0.99913079  0.75033015  1
  S  S3  1  0.33344146  0.61912002  0.58187680  1
  S  S4  1  0.83337841  0.04752939  0.08295935  1
  S  S5  1  0.51536998  0.36838945  0.91627900  1
  S  S6  1  0.16956824  0.96159298  0.91764428  1
  S  S7  1  0.67001263  0.37780958  0.41722100  1
  S  S8  1  0.01639194  0.66295560  0.41497080  1
  O  O0  1  0.09139607  0.00772036  0.31013688  1
  O  O1  1  0.59267261  0.01785822  0.30645177  1
  O  O2  1  0.41035570  0.81155525  0.30401190  1
  O  O3  1  0.91777832  0.82589827  0.30385373  1
  O  O4  1  0.49281899  0.16982027  0.30848590  1
  O  O5  1  0.99515614  0.18603856  0.30542278  1
  O  O6  1  0.09017224  0.16724887  0.80645116  1
  O  O7  1  0.59220562  0.17057971  0.81090909  1
  O  O8  1  0.49374161  0.80561838  0.80790613  1
  O  O9  1  0.99250601  0.81481717  0.80872855  1
  O  O10  1  0.41690473  0.01000707  0.80465721  1
  O  O11  1  0.91149250  0.01083382  0.80405190  1
  O  O12  1  0.39621543  0.97593556  0.68709910  1
  O  O13  1  0.90139872  0.98197156  0.69712622  1
  O  O14  1  0.07987224  0.17832812  0.69126392  1
  O  O15  1  0.58914938  0.21073954  0.69598171  1
  O  O16  1  0.00129716  0.82232598  0.69199419  1
  O  O17  1  0.51355723  0.82604187  0.69181033  1
  O  O18  1  0.39982551  0.81944663  0.19709294  1
  O  O19  1  0.89777886  0.81702658  0.18813074  1
  O  O20  1  0.01070877  0.20523900  0.19918735  1
  O  O21  1  0.50124441  0.17919772  0.19187949  1
  O  O22  1  0.08804605  0.97053771  0.19552871  1
  O  O23  1  0.58210902  0.98598403  0.19107384  1
  O  O24  1  0.44452237  0.36790762  0.64372649  1
  O  O25  1  0.93539673  0.35554877  0.64912402  1
  O  O26  1  0.25262087  0.13521780  0.63694797  1
  O  O27  1  0.74188447  0.12920616  0.64263408  1
  O  O28  1  0.32637471  0.52262439  0.63502095  1
  O  O29  1  0.81420899  0.51091743  0.63741695  1
  O  O30  1  0.43559231  0.51365468  0.14914481  1
  O  O31  1  0.94420108  0.51631253  0.14584803  1
  O  O32  1  0.31320184  0.11550143  0.13821291  1
  O  O33  1  0.82671978  0.13152865  0.13647559  1
  O  O34  1  0.24222831  0.35645660  0.14367371  1
  O  O35  1  0.75023521  0.36812996  0.13773886  1
  O  O36  1  0.23973257  0.31315860  0.02865980  1
  O  O37  1  0.73666364  0.30986014  0.02436439  1
  O  O38  1  0.41817000  0.52357803  0.03264013  1
  O  O39  1  0.91127422  0.50470965  0.03165266  1
  O  O40  1  0.34749982  0.16709342  0.02348936  1
  O  O41  1  0.83921471  0.14362496  0.03014205  1
  O  O42  1  0.23570475  0.16519202  0.52338100  1
  O  O43  1  0.74023716  0.16405654  0.52785484  1
  O  O44  1  0.33643580  0.53105471  0.52848337  1
  O  O45  1  0.84781420  0.52784880  0.52251256  1
  O  O46  1  0.41259620  0.32024677  0.52972770  1
  O  O47  1  0.91780211  0.31128706  0.53220313  1
  O  O48  1  0.26358536  0.68593990  0.97308479  1
  O  O49  1  0.77354591  0.70104227  0.97903270  1
  O  O50  1  0.08700589  0.48018875  0.96930844  1
  O  O51  1  0.56922387  0.45580152  0.96806603  1
  O  O52  1  0.15571229  0.85559662  0.96977519  1
  O  O53  1  0.64941329  0.84472311  0.97303400  1
  O  O54  1  0.27247522  0.84389607  0.47720771  1
  O  O55  1  0.76483988  0.84253262  0.47253703  1
  O  O56  1  0.14744967  0.45637501  0.47129330  1
  O  O57  1  0.65650124  0.45528876  0.46899943  1
  O  O58  1  0.06959360  0.68776930  0.46645644  1
  O  O59  1  0.58814340  0.69589802  0.46839520  1
  O  O60  1  0.05695088  0.64553615  0.36106064  1
  O  O61  1  0.55646535  0.62684656  0.35491272  1
  O  O62  1  0.25744240  0.87232129  0.36322644  1
  O  O63  1  0.75260278  0.87676805  0.35876969  1
  O  O64  1  0.17687037  0.48472549  0.35810220  1
  O  O65  1  0.67987743  0.47485215  0.36367727  1
  O  O66  1  0.05601836  0.48501588  0.85547979  1
  O  O67  1  0.55469529  0.47027128  0.86293267  1
  O  O68  1  0.17958006  0.88402288  0.86453506  1
  O  O69  1  0.67771018  0.87535342  0.85954847  1
  O  O70  1  0.25305737  0.63068181  0.86016961  1
  O  O71  1  0.75466987  0.64522004  0.86399644  1
  O  O72  1  0.00589485  0.81857614  0.41085609  1
  O  O73  1  0.51457736  0.84313899  0.40753061  1
  O  O74  1  0.41268617  0.98379091  0.40886674  1
  O  O75  1  0.90781432  0.98314206  0.40732705  1
  O  O76  1  0.08182503  0.17584507  0.40697617  1
  O  O77  1  0.59161028  0.19912309  0.41227594  1
  O  O78  1  0.01426659  0.18495645  0.90916650  1
  O  O79  1  0.50485477  0.19568637  0.91299674  1
  O  O80  1  0.09082182  0.98257400  0.91287256  1
  O  O81  1  0.58164056  0.99388296  0.91115314  1
  O  O82  1  0.40786175  0.83726861  0.91089020  1
  O  O83  1  0.91178339  0.84259121  0.90928026  1
  O  O84  1  0.47950906  0.15494395  0.58184812  1
  O  O85  1  0.98342134  0.15430768  0.59218746  1
  O  O86  1  0.09506064  0.02345854  0.58866938  1
  O  O87  1  0.59307324  0.02516092  0.58277426  1
  O  O88  1  0.40922205  0.79275546  0.58237937  1
  O  O89  1  0.91807939  0.81369060  0.58718847  1
  O  O90  1  0.48397080  0.81199384  0.09319019  1
  O  O91  1  0.98040888  0.79980211  0.08385823  1
  O  O92  1  0.41713863  0.02073924  0.08829153  1
  O  O93  1  0.91062546  0.02716567  0.08582579  1
  O  O94  1  0.09234251  0.16633891  0.08561322  1
  O  O95  1  0.59438516  0.16770507  0.08785227  1
  O  O96  1  0.35562073  0.17565055  0.74916584  1
  O  O97  1  0.85605871  0.15760236  0.75021661  1
  O  O98  1  0.23420372  0.29792397  0.74426138  1
  O  O99  1  0.73845334  0.29854665  0.75245610  1
  O  O100  1  0.41636765  0.52184462  0.74781522  1
  O  O101  1  0.91500310  0.52008354  0.74947445  1
  O  O102  1  0.35444699  0.55301737  0.25046860  1
  O  O103  1  0.85811023  0.53294830  0.24938068  1
  O  O104  1  0.41525705  0.31025641  0.24969379  1
  O  O105  1  0.92208040  0.29894332  0.25069130  1
  O  O106  1  0.23883976  0.17004948  0.25288605  1
  O  O107  1  0.73727104  0.16887678  0.24475986  1
  O  O108  1  0.32752857  0.49739167  0.92710065  1
  O  O109  1  0.82973679  0.50783645  0.92457411  1
  O  O110  1  0.42951378  0.35397782  0.92308130  1
  O  O111  1  0.92645644  0.34386492  0.93153311  1
  O  O112  1  0.24443340  0.13743648  0.92413806  1
  O  O113  1  0.75213181  0.15321612  0.92501201  1
  O  O114  1  0.32963527  0.15425888  0.42438209  1
  O  O115  1  0.82790324  0.16048368  0.42507770  1
  O  O116  1  0.25195871  0.35333671  0.42323778  1
  O  O117  1  0.74509161  0.35126878  0.42272358  1
  O  O118  1  0.42593850  0.51044681  0.43014237  1
  O  O119  1  0.93030549  0.51055161  0.42013180  1
  O  O120  1  0.17897233  0.50414349  0.07562322  1
  O  O121  1  0.68252947  0.50924079  0.07615482  1
  O  O122  1  0.07560935  0.64795143  0.07028548  1
  O  O123  1  0.57315086  0.64732744  0.08040124  1
  O  O124  1  0.24825209  0.85270478  0.06833210  1
  O  O125  1  0.75678352  0.87166480  0.08139882  1
  O  O126  1  0.18247520  0.85812243  0.57473349  1
  O  O127  1  0.67774833  0.85346764  0.57562317  1
  O  O128  1  0.25538387  0.63971326  0.58007744  1
  O  O129  1  0.74912428  0.64442617  0.56683224  1
  O  O130  1  0.07184370  0.49811602  0.57916255  1
  O  O131  1  0.57536243  0.49976059  0.56751894  1
  O  O132  1  0.14875195  0.81881898  0.25748152  1
  O  O133  1  0.64339121  0.82326984  0.25021681  1
  O  O134  1  0.27310818  0.70231364  0.25409144  1
  O  O135  1  0.75988309  0.68241290  0.25601102  1
  O  O136  1  0.07540016  0.46261032  0.25656362  1
  O  O137  1  0.58418375  0.47099853  0.25268226  1
  O  O138  1  0.14233945  0.46213918  0.75060858  1
  O  O139  1  0.65420233  0.47746385  0.76072546  1
  O  O140  1  0.08450499  0.69778170  0.75314604  1
  O  O141  1  0.58437428  0.68020292  0.75443705  1
  O  O142  1  0.26062791  0.83045045  0.75625320  1
  O  O143  1  0.77492175  0.84572562  0.75397608  1
loop_
_geom_bond_atom_site_label_1
_geom_bond_atom_site_label_2
_geom_bond_distance
_geom_bond_site_symmetry_2
Na0 O132 2.301121 1_555
Na0 O103 2.312271 1_455
Na0 O31 2.484508 1_455
Na0 O136 2.599403 1_555
Na0 O22 2.717982 1_555
Na0 O105 2.749961 1_455
Na0 O60 2.907167 1_555
Na1 O133 2.342987 1_555
Na1 O104 2.375043 1_555
Na1 O102 2.382024 1_555
Na1 O137 2.455052 1_555
Na1 O30 2.461164 1_555
Na1 O61 2.685039 1_555
Na2 O138 2.332273 1_655
Na2 O97 2.356521 1_555
Na2 O101 2.367539 1_555
Na2 O140 2.459142 1_655
Na2 O25 2.464945 1_555
Na2 O66 2.687729 1_655
Na3 O96 2.377392 1_555
Na3 O139 2.387048 1_555
Na3 O141 2.454085 1_555
Na3 O24 2.562321 1_555
Na3 O100 2.596522 1_555
Na3 O15 2.763766 1_555
Na3 O67 2.868176 1_555
Na4 O84 2.320554 1_565
Na4 O126 2.400153 1_555
Na4 O12 2.512470 1_555
Na4 O88 2.625400 1_555
Na4 O128 2.635475 1_555
Na4 O26 2.723026 1_565
Na4 O54 2.824319 1_555
Na5 O121 2.351165 1_555
Na5 O91 2.361301 1_555
Na5 O49 2.560044 1_554
Na5 O125 2.586494 1_555
Na5 O93 2.638932 1_565
Na5 O19 2.752863 1_555
Na5 O35 2.841941 1_555
Na5 O39 2.909225 1_555
Na6 O85 2.458627 1_555
Na6 O89 2.535776 1_545
Na6 O86 2.621839 1_655
Na6 O75 2.658273 1_545
Na6 O76 2.671770 1_655
Na6 O72 2.829377 1_645
Na7 O87 2.313807 1_555
Na7 O84 2.440514 1_555
Na7 O88 2.555266 1_545
Na7 O73 2.689545 1_545
Na7 O77 2.695934 1_555
Na7 O74 2.737593 1_545
Na8 O94 2.476187 1_556
Na8 O78 2.504513 1_555
Na8 O80 2.589805 1_545
Na8 O83 2.633370 1_445
Na8 O91 2.643592 1_446
Na8 O93 2.684421 1_456
Na9 O81 2.432709 1_555
Na9 O82 2.449104 1_555
Na9 O90 2.646241 1_556
Na9 O79 2.664361 1_565
Na9 O92 2.691488 1_566
Na9 O95 2.730041 1_566
Na10 O98 2.433098 1_555
Na10 O100 2.461653 1_555
Na10 O96 2.596049 1_555
Na10 O108 2.642406 1_555
Na10 O112 2.776112 1_555
Na10 O110 2.851514 1_555
Na11 O99 2.294496 1_555
Na11 O101 2.472793 1_555
Na11 O109 2.569564 1_555
Na11 O113 2.653704 1_555
Na11 O97 2.752064 1_555
Na11 O111 2.941429 1_555
Na12 O106 2.370546 1_555
Na12 O104 2.491016 1_555
Na12 O114 2.516747 1_555
Na12 O116 2.601418 1_555
Na12 O102 2.759899 1_555
Na12 O118 2.846756 1_555
Na13 O107 2.430966 1_555
Na13 O115 2.522638 1_555
Na13 O117 2.552342 1_555
Na13 O103 2.657413 1_555
Na13 O105 2.722679 1_555
Na13 O119 2.813301 1_555
Na14 O124 2.476147 1_555
Na14 O120 2.530196 1_555
Na14 O122 2.591603 1_555
Na14 O132 2.727103 1_555
Na14 O134 2.803787 1_555
Na14 O136 2.988487 1_555
Na15 O137 2.431164 1_555
Na15 O123 2.568606 1_555
Na15 O121 2.578826 1_555
Na15 O133 2.580371 1_555
Na15 O135 2.606424 1_555
Na15 O125 2.767800 1_555
Na16 O140 2.404252 1_555
Na16 O142 2.518203 1_555
Na16 O138 2.555683 1_555
Na16 O126 2.660287 1_555
Na16 O130 2.687719 1_555
Na16 O128 2.808910 1_555
Na17 O141 2.545338 1_555
Na17 O127 2.641250 1_555
Na17 O139 2.673885 1_555
Na17 O131 2.738373 1_555
Na17 O143 2.743114 1_555
Na17 O129 2.786108 1_555
O0 Si0 1.648789 1_555
O0 Ta0 1.935107 1_445
O1 Si1 1.653792 1_555
O1 Ta1 1.932095 1_555
O2 S0 1.494385 1_555
O2 Ta1 2.143129 1_565
O3 Si2 1.661409 1_555
O3 Ta0 1.927447 1_555
O4 Si3 1.655688 1_555
O4 Ta1 1.915933 1_555
O5 S1 1.495024 1_655
O5 Ta0 2.082319 1_545
O6 Si4 1.660268 1_555
O6 Ta2 1.917073 1_545
O7 Si5 1.642373 1_555
O7 Ta3 1.933418 1_545
O8 Si7 1.667699 1_555
O8 Ta3 1.861720 1_555
O9 Si6 1.659769 1_555
O9 Ta2 1.908399 1_655
O10 Si8 1.652813 1_545
O10 Ta3 1.930642 1_545
O11 S2 1.501852 1_545
O11 Ta2 2.102396 1_645
O12 Si8 1.633480 1_555
O12 Zr0 2.077911 1_565
O13 S2 1.464236 1_555
O13 Ta4 2.243417 1_655
O14 Si4 1.646414 1_555
O14 Ta4 1.935706 1_545
O15 Si5 1.643603 1_555
O15 Zr0 1.980663 1_555
O16 Si6 1.654648 1_455
O16 Ta4 1.924285 1_555
O17 Si7 1.614533 1_555
O17 Zr0 2.016137 1_565
O18 S0 1.465330 1_555
O18 Ta5 2.273769 1_565
O19 Si2 1.634740 1_555
O19 Zr1 2.059625 1_655
O20 S1 1.467814 1_555
O20 Zr1 2.296490 1_545
O21 Si3 1.652424 1_555
O21 Ta5 1.933051 1_555
O22 Si0 1.648725 1_565
O22 Zr1 1.974055 1_555
O23 Si1 1.641373 1_565
O23 Ta5 1.955844 1_565
O24 Si9 1.633722 1_555
O24 Zr2 2.113333 1_555
O25 Si10 1.614020 1_555
O25 Zr3 2.105257 1_555
O26 Si11 1.617375 1_555
O26 Zr2 2.040046 1_555
O27 Si12 1.604139 1_555
O27 Zr3 2.043980 1_555
O28 S3 1.465244 1_555
O28 Zr2 2.265409 1_555
O29 Si13 1.625089 1_555
O29 Zr3 1.973890 1_555
O30 Si14 1.620809 1_555
O30 Zr4 2.091360 1_555
O31 Si15 1.644639 1_555
O31 Zr5 2.107560 1_555
O32 Si16 1.630907 1_555
O32 Zr4 1.969702 1_555
O33 S4 1.478352 1_555
O33 Zr5 2.220478 1_555
O34 Si17 1.607852 1_555
O34 Zr4 2.050935 1_555
O35 Si18 1.644868 1_555
O35 Zr5 1.957540 1_555
O36 Si17 1.660917 1_555
O36 Ta6 1.878827 1_554
O37 Si18 1.623899 1_555
O37 Ta7 1.974455 1_554
O38 Si14 1.683911 1_555
O38 Ta6 1.870562 1_554
O39 Si15 1.633641 1_555
O39 Ta7 1.960288 1_554
O40 Si16 1.644015 1_555
O40 Ta6 1.941044 1_554
O41 S4 1.461825 1_555
O41 Ta7 2.241987 1_554
O42 Si11 1.638219 1_555
O42 Ta8 1.961177 1_555
O43 Si12 1.676749 1_555
O43 Ta9 1.851211 1_555
O44 S3 1.475190 1_555
O44 Ta8 2.172947 1_555
O45 Si13 1.657687 1_555
O45 Ta9 1.930720 1_555
O46 Si9 1.658036 1_555
O46 Ta8 1.922463 1_555
O47 Si10 1.692308 1_555
O47 Ta9 1.862495 1_555
O48 Si19 1.647389 1_555
O48 Ta10 1.925980 1_556
O49 Si20 1.628636 1_555
O49 Zr6 2.105095 1_556
O50 Si21 1.651662 1_555
O50 Ta10 1.926056 1_556
O51 S5 1.489710 1_555
O51 Zr6 2.169340 1_556
O52 S6 1.471500 1_555
O52 Ta10 2.269748 1_556
O53 Si22 1.635605 1_555
O53 Zr6 1.979319 1_556
O54 Si23 1.612513 1_555
O54 Zr7 2.102107 1_555
O55 Si24 1.632170 1_555
O55 Ta11 1.972749 1_555
O56 Si25 1.623648 1_555
O56 Zr7 2.008164 1_555
O57 S7 1.458534 1_555
O57 Ta11 2.306276 1_555
O58 S8 1.469036 1_555
O58 Zr7 2.257218 1_555
O59 Si26 1.643103 1_555
O59 Ta11 1.942223 1_555
O60 S8 1.484540 1_555
O60 Zr8 2.286867 1_555
O61 Si26 1.625948 1_555
O61 Zr9 2.081516 1_555
O62 Si23 1.646068 1_555
O62 Zr8 1.937475 1_555
O63 Si24 1.620075 1_555
O63 Zr9 2.038660 1_555
O64 Si25 1.637483 1_555
O64 Zr8 1.980515 1_555
O65 S7 1.465849 1_555
O65 Zr9 2.313675 1_555
O66 Si21 1.617299 1_555
O66 Zr10 2.102972 1_555
O67 S5 1.480970 1_555
O67 Zr11 2.299508 1_555
O68 S6 1.460008 1_555
O68 Zr10 2.327451 1_555
O69 Si22 1.624863 1_555
O69 Zr11 2.005290 1_555
O70 Si19 1.617318 1_555
O70 Zr10 2.032150 1_555
O71 Si20 1.614760 1_555
O71 Zr11 2.015992 1_555
O72 S8 1.507137 1_555
O72 Ta0 2.099022 1_455
O73 Si26 1.659359 1_555
O73 Ta1 1.972451 1_565
O74 Si23 1.641793 1_555
O74 Ta1 1.965607 1_565
O75 Si24 1.666034 1_555
O75 Ta0 1.973992 1_555
O76 Si25 1.655964 1_555
O76 Ta0 1.950364 1_445
O77 S7 1.529293 1_555
O77 Ta1 2.068273 1_555
O78 Si21 1.655073 1_555
O78 Ta2 2.000870 1_545
O79 S5 1.471437 1_555
O79 Ta3 2.324040 1_545
O80 S6 1.528579 1_555
O80 Ta2 2.097670 1_555
O81 Si22 1.637563 1_555
O81 Ta3 2.000923 1_555
O82 Si19 1.639325 1_555
O82 Ta3 2.024354 1_555
O83 Si20 1.650029 1_555
O83 Ta2 1.972787 1_655
O84 Si9 1.636988 1_555
O84 Zr0 2.193795 1_555
O85 Si10 1.638236 1_555
O85 Ta4 2.002150 1_645
O86 Si11 1.654885 1_555
O86 Ta4 1.913074 1_545
O87 Si12 1.606271 1_555
O87 Zr0 2.105274 1_555
O88 S3 1.478924 1_555
O88 Zr0 2.425391 1_565
O89 Si13 1.637039 1_555
O89 Ta4 2.007488 1_655
O90 Si14 1.641016 1_555
O90 Ta5 1.982629 1_565
O91 Si15 1.664800 1_555
O91 Zr1 2.049875 1_655
O92 Si16 1.638257 1_555
O92 Ta5 1.984110 1_555
O93 S4 1.495872 1_555
O93 Zr1 2.330044 1_645
O94 Si17 1.624964 1_555
O94 Zr1 2.065451 1_545
O95 Si18 1.645519 1_555
O95 Ta5 1.908568 1_555
O96 Si8 1.646913 1_545
O96 Zr2 2.051237 1_555
O97 S2 1.477380 1_545
O97 Zr3 2.478334 1_555
O98 Si4 1.608692 1_555
O98 Zr2 2.102749 1_555
O99 Si5 1.618887 1_555
O99 Zr3 2.074918 1_555
O100 Si7 1.625686 1_555
O100 Zr2 2.097480 1_555
O101 Si6 1.633259 1_555
O101 Zr3 2.148498 1_555
O102 S0 1.475014 1_555
O102 Zr4 2.482074 1_555
O103 Si2 1.662541 1_555
O103 Zr5 2.068497 1_555
O104 Si3 1.636466 1_555
O104 Zr4 2.137832 1_555
O105 S1 1.485378 1_655
O105 Zr5 2.364861 1_555
O106 Si0 1.607444 1_555
O106 Zr4 2.103594 1_555
O107 Si1 1.628776 1_555
O107 Zr5 2.073283 1_555
O108 Si19 1.668822 1_555
O108 Ta6 1.967481 1_555
O109 Si20 1.665174 1_555
O109 Ta7 1.906437 1_555
O110 S5 1.497770 1_555
O110 Ta6 2.201818 1_555
O111 Si21 1.643320 1_655
O111 Ta7 1.949512 1_555
O112 S6 1.492129 1_545
O112 Ta6 2.291864 1_555
O113 Si22 1.642869 1_545
O113 Ta7 1.952276 1_555
O114 Si23 1.645769 1_545
O114 Ta8 1.930693 1_555
O115 Si24 1.668410 1_545
O115 Ta9 1.989376 1_555
O116 Si25 1.627685 1_555
O116 Ta8 1.999132 1_555
O117 S7 1.494362 1_555
O117 Ta9 2.303464 1_555
O118 Si26 1.639324 1_555
O118 Ta8 1.969416 1_555
O119 S8 1.479702 1_655
O119 Ta9 2.291501 1_555
O120 Si17 1.650843 1_555
O120 Ta10 1.918710 1_555
O121 Si18 1.619285 1_555
O121 Zr6 2.136211 1_555
O122 Si15 1.630266 1_455
O122 Ta10 2.009225 1_555
O123 Si14 1.624846 1_555
O123 Zr6 2.064214 1_555
O124 Si16 1.629033 1_565
O124 Ta10 1.980488 1_555
O125 S4 1.497189 1_565
O125 Zr6 2.275218 1_555
O126 Si11 1.631679 1_565
O126 Zr7 2.096932 1_555
O127 Si12 1.653939 1_565
O127 Ta11 1.903286 1_555
O128 S3 1.510728 1_555
O128 Zr7 2.187067 1_555
O129 Si13 1.627870 1_555
O129 Ta11 1.959506 1_555
O130 Si10 1.626488 1_455
O130 Zr7 2.049109 1_555
O131 Si9 1.647918 1_555
O131 Ta11 1.967824 1_555
O132 Si0 1.651487 1_565
O132 Zr8 2.090911 1_555
O133 Si1 1.636996 1_565
O133 Zr9 2.074676 1_555
O134 S0 1.502284 1_555
O134 Zr8 2.168872 1_555
O135 Si2 1.602618 1_555
O135 Zr9 2.066623 1_555
O136 S1 1.488670 1_555
O136 Zr8 2.353632 1_555
O137 Si3 1.624358 1_555
O137 Zr9 2.146870 1_555
O138 Si4 1.638343 1_555
O138 Zr10 2.071965 1_555
O139 Si5 1.633133 1_555
O139 Zr11 2.084126 1_555
O140 Si6 1.621843 1_455
O140 Zr10 2.154575 1_555
O141 Si7 1.638081 1_555
O141 Zr11 2.104195 1_555
O142 Si8 1.614808 1_555
O142 Zr10 2.043856 1_555
O143 S2 1.485717 1_555
O143 Zr11 2.202177 1_555
