# generated using pymatgen
data_MgFe6(O5F)2
_symmetry_space_group_name_H-M   'P 1'
_cell_length_a   5.10901286
_cell_length_b   14.29990889
_cell_length_c   2.99083688
_cell_angle_alpha   90.00000000
_cell_angle_beta   90.00000000
_cell_angle_gamma   98.89680786
_symmetry_Int_Tables_number   1
_chemical_formula_structural   MgFe6(O5F)2
_chemical_formula_sum   'Mg1 Fe6 O10 F2'
_cell_volume   215.87685605
_cell_formula_units_Z   1
loop_
 _symmetry_equiv_pos_site_id
 _symmetry_equiv_pos_as_xyz
  1  'x, y, z'
loop_
 _atom_site_type_symbol
 _atom_site_label
 _atom_site_symmetry_multiplicity
 _atom_site_fract_x
 _atom_site_fract_y
 _atom_site_fract_z
 _atom_site_occupancy
  Mg  Mg0  1  0.41957119  0.31459805  0.00000000  1
  Fe  Fe0  1  0.05060610  0.99030894  -0.00000000  1
  Fe  Fe1  1  0.91744159  0.36072672  0.00000000  1
  Fe  Fe2  1  0.00400877  0.66602169  -0.00000000  1
  Fe  Fe3  1  0.61435139  0.12951878  0.50000000  1
  Fe  Fe4  1  0.43945921  0.52705504  0.50000000  1
  Fe  Fe5  1  0.48545729  0.84446859  0.50000000  1
  O  O0  1  0.16183038  0.60593108  0.50000000  1
  O  O1  1  0.19640955  0.92538651  0.50000000  1
  O  O2  1  0.38310233  0.08255285  -0.00000000  1
  O  O3  1  0.32813467  0.76994061  0.00000000  1
  O  O4  1  0.25608691  0.43527454  0.00000000  1
  O  O5  1  0.69956930  0.22988892  0.00000000  1
  O  O6  1  0.66288944  0.57361752  -0.00000000  1
  O  O7  1  0.69681371  0.90214235  -0.00000000  1
  O  O8  1  0.90248008  0.05916780  0.50000000  1
  O  O9  1  0.69694124  0.38720782  0.50000000  1
  F  F0  1  0.17408652  0.27441072  0.50000000  1
  F  F1  1  0.84131633  0.73659648  0.50000000  1
loop_
_geom_bond_atom_site_label_1
_geom_bond_atom_site_label_2
_geom_bond_distance
_geom_bond_site_symmetry_2
Mg0 O5 2.012382 1_555
Mg0 O4 2.030115 1_555
Mg0 O9 2.206217 1_555
Mg0 O9 2.206217 1_554
Fe0 O1 1.966463 1_554
Fe0 O1 1.966463 1_555
Fe0 O2 1.983067 1_565
Fe0 O8 2.002265 1_464
Fe0 O8 2.002265 1_465
Fe0 O7 2.037604 1_455
Fe1 O4 1.886617 1_655
Fe1 O9 1.944406 1_555
Fe1 O9 1.944406 1_554
Fe1 O5 2.023703 1_555
Fe2 O0 1.959363 1_555
Fe2 O0 1.959363 1_554
Fe2 O6 2.017675 1_455
Fe2 O3 2.046790 1_555
Fe3 O8 1.907108 1_555
Fe3 O2 1.959015 1_555
Fe3 O2 1.959015 1_556
Fe3 O5 2.071855 1_555
Fe3 O5 2.071855 1_556
Fe4 O6 1.935862 1_556
Fe4 O6 1.935862 1_555
Fe4 O0 1.943950 1_555
Fe4 O4 2.110966 1_555
Fe4 O4 2.110966 1_556
Fe4 O9 2.558007 1_555
Fe5 O3 1.937308 1_556
Fe5 O3 1.937308 1_555
Fe5 O7 1.951157 1_556
Fe5 O7 1.951157 1_555
Fe5 O1 2.012027 1_555
F0 Mg0 1.979033 1_556
F0 Mg0 1.979033 1_555
F0 Fe1 2.445332 1_456
F0 Fe1 2.445332 1_455
F1 Fe2 2.050645 1_656
F1 Fe2 2.050645 1_655
F1 Fe5 2.559767 1_555
