# generated using pymatgen
data_Sc2Te
_symmetry_space_group_name_H-M   'P 1'
_cell_length_a   3.95195717
_cell_length_b   10.71938608
_cell_length_c   20.25756980
_cell_angle_alpha   90.00000000
_cell_angle_beta   90.00000000
_cell_angle_gamma   90.00000000
_symmetry_Int_Tables_number   1
_chemical_formula_structural   Sc2Te
_chemical_formula_sum   'Sc24 Te12'
_cell_volume   858.16240827
_cell_formula_units_Z   12
loop_
 _symmetry_equiv_pos_site_id
 _symmetry_equiv_pos_as_xyz
  1  'x, y, z'
loop_
 _atom_site_type_symbol
 _atom_site_label
 _atom_site_symmetry_multiplicity
 _atom_site_fract_x
 _atom_site_fract_y
 _atom_site_fract_z
 _atom_site_occupancy
  Sc  Sc0  1  0.25000000  0.89447371  0.49108842  1
  Sc  Sc1  1  0.75000000  0.10552629  0.50891158  1
  Sc  Sc2  1  0.75000000  0.39447371  0.00891158  1
  Sc  Sc3  1  0.25000000  0.60552629  0.99108842  1
  Sc  Sc4  1  0.25000000  0.06858381  0.63609470  1
  Sc  Sc5  1  0.75000000  0.93141619  0.36390530  1
  Sc  Sc6  1  0.75000000  0.56858381  0.86390530  1
  Sc  Sc7  1  0.25000000  0.43141619  0.13609470  1
  Sc  Sc8  1  0.25000000  0.37921076  0.53153499  1
  Sc  Sc9  1  0.75000000  0.62078924  0.46846501  1
  Sc  Sc10  1  0.75000000  0.87921076  0.96846501  1
  Sc  Sc11  1  0.25000000  0.12078924  0.03153499  1
  Sc  Sc12  1  0.75000000  0.65973167  0.10718596  1
  Sc  Sc13  1  0.25000000  0.34026833  0.89281404  1
  Sc  Sc14  1  0.25000000  0.15973167  0.39281404  1
  Sc  Sc15  1  0.75000000  0.84026833  0.60718596  1
  Sc  Sc16  1  0.75000000  0.96625729  0.16439644  1
  Sc  Sc17  1  0.25000000  0.03374271  0.83560356  1
  Sc  Sc18  1  0.25000000  0.46625729  0.33560356  1
  Sc  Sc19  1  0.75000000  0.53374271  0.66439644  1
  Sc  Sc20  1  0.25000000  0.74540529  0.22847212  1
  Sc  Sc21  1  0.75000000  0.25459471  0.77152788  1
  Sc  Sc22  1  0.75000000  0.24540529  0.27152788  1
  Sc  Sc23  1  0.25000000  0.75459471  0.72847212  1
  Te  Te0  1  0.75000000  0.96965440  0.73496136  1
  Te  Te1  1  0.25000000  0.03034560  0.26503864  1
  Te  Te2  1  0.25000000  0.46965440  0.76503864  1
  Te  Te3  1  0.75000000  0.53034560  0.23496136  1
  Te  Te4  1  0.75000000  0.27644634  0.62524557  1
  Te  Te5  1  0.25000000  0.72355366  0.37475443  1
  Te  Te6  1  0.25000000  0.77644634  0.87475443  1
  Te  Te7  1  0.75000000  0.22355366  0.12524557  1
  Te  Te8  1  0.25000000  0.64268216  0.57531894  1
  Te  Te9  1  0.75000000  0.35731784  0.42468106  1
  Te  Te10  1  0.75000000  0.14268216  0.92468106  1
  Te  Te11  1  0.25000000  0.85731784  0.07531894  1
loop_
_geom_bond_atom_site_label_1
_geom_bond_atom_site_label_2
_geom_bond_distance
_geom_bond_site_symmetry_2
Sc0 Te5 2.985058 1_555
Sc0 Te8 3.193173 1_555
Sc1 Te4 2.985058 1_555
Sc1 Te9 3.193173 1_555
Sc2 Te7 2.985058 1_555
Sc2 Te10 3.193173 1_554
Sc3 Te6 2.985058 1_555
Sc3 Te11 3.193173 1_556
Sc4 Te4 2.986216 1_455
Sc4 Te4 2.986216 1_555
Sc4 Te0 3.006705 1_445
Sc4 Te0 3.006705 1_545
Sc5 Te5 2.986216 1_555
Sc5 Te5 2.986216 1_655
Sc5 Te1 3.006705 1_565
Sc5 Te1 3.006705 1_665
Sc6 Te6 2.986216 1_655
Sc6 Te6 2.986216 1_555
Sc6 Te2 3.006705 1_555
Sc6 Te2 3.006705 1_655
Sc7 Te7 2.986216 1_555
Sc7 Te7 2.986216 1_455
Sc7 Te3 3.006705 1_555
Sc7 Te3 3.006705 1_455
Sc8 Te9 2.940249 1_555
Sc8 Te9 2.940249 1_455
Sc8 Te4 2.953249 1_455
Sc8 Te4 2.953249 1_555
Sc8 Te8 2.960252 1_555
Sc9 Te8 2.940249 1_555
Sc9 Te8 2.940249 1_655
Sc9 Te5 2.953249 1_655
Sc9 Te5 2.953249 1_555
Sc9 Te9 2.960252 1_555
Sc10 Te11 2.940249 1_656
Sc10 Te11 2.940249 1_556
Sc10 Te6 2.953249 1_555
Sc10 Te6 2.953249 1_655
Sc10 Te10 2.960252 1_565
Sc11 Te10 2.940249 1_554
Sc11 Te10 2.940249 1_454
Sc11 Te7 2.953249 1_455
Sc11 Te7 2.953249 1_555
Sc11 Te11 2.960252 1_545
Sc12 Te3 2.936582 1_555
Sc12 Te11 2.967686 1_655
Sc12 Te11 2.967686 1_555
Sc13 Te2 2.936582 1_555
Sc13 Te10 2.967686 1_555
Sc13 Te10 2.967686 1_455
Sc14 Te1 2.936582 1_555
Sc14 Te9 2.967686 1_555
Sc14 Te9 2.967686 1_455
Sc15 Te0 2.936582 1_555
Sc15 Te8 2.967686 1_555
Sc15 Te8 2.967686 1_655
Sc16 Te7 2.869826 1_565
Sc16 Te11 2.919651 1_555
Sc16 Te11 2.919651 1_655
Sc16 Te1 2.921132 1_565
Sc16 Te1 2.921132 1_665
Sc17 Te6 2.869826 1_545
Sc17 Te10 2.919651 1_455
Sc17 Te10 2.919651 1_555
Sc17 Te0 2.921132 1_545
Sc17 Te0 2.921132 1_445
Sc18 Te5 2.869826 1_555
Sc18 Te9 2.919651 1_555
Sc18 Te9 2.919651 1_455
Sc18 Te3 2.921132 1_455
Sc18 Te3 2.921132 1_555
Sc19 Te4 2.869826 1_555
Sc19 Te8 2.919651 1_555
Sc19 Te8 2.919651 1_655
Sc19 Te2 2.921132 1_655
Sc19 Te2 2.921132 1_555
Sc20 Te5 2.972567 1_555
Sc20 Te3 3.039114 1_455
Sc20 Te3 3.039114 1_555
Sc20 Te1 3.142925 1_565
Sc20 Te11 3.326364 1_555
Sc21 Te4 2.972567 1_555
Sc21 Te2 3.039114 1_555
Sc21 Te2 3.039114 1_655
Sc21 Te0 3.142925 1_545
Sc21 Te10 3.326364 1_555
Sc22 Te7 2.972567 1_555
Sc22 Te1 3.039114 1_555
Sc22 Te1 3.039114 1_655
Sc22 Te3 3.142925 1_555
Sc22 Te9 3.326364 1_555
Sc23 Te6 2.972567 1_555
Sc23 Te0 3.039114 1_455
Sc23 Te0 3.039114 1_555
Sc23 Te2 3.142925 1_555
Sc23 Te8 3.326364 1_555
