# generated using pymatgen
data_CsSbSI2
_symmetry_space_group_name_H-M   'P 1'
_cell_length_a   6.32170100
_cell_length_b   6.32170100
_cell_length_c   5.08504400
_cell_angle_alpha   90.00000000
_cell_angle_beta   90.00000000
_cell_angle_gamma   90.00000000
_symmetry_Int_Tables_number   1
_chemical_formula_structural   CsSbSI2
_chemical_formula_sum   'Cs1 Sb1 S1 I2'
_cell_volume   203.21820788
_cell_formula_units_Z   1
loop_
 _symmetry_equiv_pos_site_id
 _symmetry_equiv_pos_as_xyz
  1  'x, y, z'
loop_
 _atom_site_type_symbol
 _atom_site_label
 _atom_site_symmetry_multiplicity
 _atom_site_fract_x
 _atom_site_fract_y
 _atom_site_fract_z
 _atom_site_occupancy
  Cs  Cs0  1  0.00000000  0.00000000  0.00000000  1
  Sb  Sb0  1  0.50000000  0.50000000  0.50000000  1
  S  S0  1  0.50000000  0.50000000  0.00000000  1
  I  I0  1  0.00000000  0.50000000  0.50000000  1
  I  I1  1  0.50000000  0.00000000  0.50000000  1
loop_
_geom_bond_atom_site_label_1
_geom_bond_atom_site_label_2
_geom_bond_distance
_geom_bond_site_symmetry_2
Cs0 I1 4.056525 1_554
Cs0 I0 4.056525 1_545
Cs0 I0 4.056525 1_555
Cs0 I0 4.056525 1_544
Cs0 I1 4.056525 1_454
Cs0 I0 4.056525 1_554
Cs0 I1 4.056525 1_455
Cs0 I1 4.056525 1_555
S0 Sb0 2.542522 1_554
S0 Sb0 2.542522 1_555
I0 Sb0 3.160851 1_455
I0 Sb0 3.160851 1_555
I1 Sb0 3.160851 1_545
I1 Sb0 3.160851 1_555
