# generated using pymatgen
data_Er5Mg24
_symmetry_space_group_name_H-M   'P 1'
_cell_length_a   9.67206519
_cell_length_b   9.67207221
_cell_length_c   9.67207221
_cell_angle_alpha   109.47125004
_cell_angle_beta   109.47122063
_cell_angle_gamma   109.47122063
_symmetry_Int_Tables_number   1
_chemical_formula_structural   Er5Mg24
_chemical_formula_sum   'Er5 Mg24'
_cell_volume   696.52422817
_cell_formula_units_Z   1
loop_
 _symmetry_equiv_pos_site_id
 _symmetry_equiv_pos_as_xyz
  1  'x, y, z'
loop_
 _atom_site_type_symbol
 _atom_site_label
 _atom_site_symmetry_multiplicity
 _atom_site_fract_x
 _atom_site_fract_y
 _atom_site_fract_z
 _atom_site_occupancy
  Er  Er0  1  -0.00000000  0.37281177  -0.00000000  1
  Er  Er1  1  0.37281277  -0.00000000  -0.00000000  1
  Er  Er2  1  -0.00000000  -0.00000000  0.37281177  1
  Er  Er3  1  0.62718723  0.62718723  0.62718823  1
  Er  Er4  1  0.00000000  0.00000000  0.00000000  1
  Mg  Mg0  1  0.19037665  0.82070696  0.19037665  1
  Mg  Mg1  1  0.17929304  0.36966969  0.36966969  1
  Mg  Mg2  1  0.36966969  0.36966969  0.17929304  1
  Mg  Mg3  1  0.63033031  0.80962335  0.00000000  1
  Mg  Mg4  1  -0.00000000  0.80962235  0.63033031  1
  Mg  Mg5  1  0.38931093  0.71279016  0.38931093  1
  Mg  Mg6  1  0.32347922  0.00000000  0.61068907  1
  Mg  Mg7  1  0.61068907  0.00000000  0.32347922  1
  Mg  Mg8  1  0.32347922  0.61068907  0.00000000  1
  Mg  Mg9  1  0.67652078  0.67652078  0.28720984  1
  Mg  Mg10  1  0.28720984  0.67652078  0.67652078  1
  Mg  Mg11  1  0.00000000  0.61068907  0.32347922  1
  Mg  Mg12  1  0.00000000  0.32347922  0.61068907  1
  Mg  Mg13  1  0.61068907  0.32347922  0.00000000  1
  Mg  Mg14  1  0.38931093  0.38931093  0.71279016  1
  Mg  Mg15  1  0.71279016  0.38931093  0.38931093  1
  Mg  Mg16  1  0.67652078  0.28720984  0.67652078  1
  Mg  Mg17  1  0.36966969  0.17929304  0.36966969  1
  Mg  Mg18  1  0.80962235  0.00000000  0.63033031  1
  Mg  Mg19  1  0.63033031  0.00000000  0.80962335  1
  Mg  Mg20  1  0.80962335  0.63033031  0.00000000  1
  Mg  Mg21  1  0.19037765  0.19037765  0.82070696  1
  Mg  Mg22  1  0.82070696  0.19037665  0.19037665  1
  Mg  Mg23  1  0.00000000  0.63033031  0.80962335  1
loop_
_geom_bond_atom_site_label_1
_geom_bond_atom_site_label_2
_geom_bond_distance
_geom_bond_site_symmetry_2
Er0 Mg16 3.206775 1_454
Er0 Mg8 3.206775 1_555
Er0 Mg11 3.206776 1_555
Er0 Mg18 3.430180 1_454
Er0 Mg19 3.430181 1_454
Er0 Mg2 3.430181 1_555
Er0 Mg1 3.430183 1_555
Er0 Mg22 3.430183 1_455
Er0 Mg21 3.430185 1_554
Er0 Mg0 3.556939 1_555
Er0 Mg20 3.556939 1_455
Er0 Mg23 3.556940 1_554
Er0 Er4 3.605862 1_555
Er0 Mg13 3.634341 1_455
Er0 Mg5 3.634341 1_555
Er0 Mg12 3.634343 1_554
Er1 Mg10 3.206772 1_544
Er1 Mg13 3.206773 1_555
Er1 Mg7 3.206773 1_555
Er1 Mg4 3.430184 1_544
Er1 Mg23 3.430186 1_544
Er1 Mg2 3.430187 1_555
Er1 Mg17 3.430187 1_555
Er1 Mg0 3.430188 1_545
Er1 Mg21 3.430191 1_554
Er1 Mg22 3.556928 1_555
Er1 Mg19 3.556930 1_554
Er1 Mg3 3.556930 1_545
Er1 Er4 3.605869 1_555
Er1 Mg15 3.634339 1_555
Er1 Mg8 3.634341 1_545
Er1 Mg6 3.634341 1_554
Er2 Mg9 3.206775 1_445
Er2 Mg6 3.206775 1_555
Er2 Mg12 3.206776 1_555
Er2 Mg3 3.430181 1_445
Er2 Mg17 3.430181 1_555
Er2 Mg20 3.430181 1_445
Er2 Mg0 3.430181 1_545
Er2 Mg1 3.430183 1_555
Er2 Mg22 3.430183 1_455
Er2 Mg21 3.556938 1_555
Er2 Mg18 3.556946 1_455
Er2 Mg4 3.556948 1_545
Er2 Er4 3.605862 1_555
Er2 Mg7 3.634341 1_455
Er2 Mg14 3.634341 1_555
Er2 Mg11 3.634343 1_545
Er3 Mg14 3.206766 1_555
Er3 Mg15 3.206778 1_555
Er3 Mg5 3.206778 1_555
Er3 Mg3 3.430179 1_556
Er3 Mg20 3.430179 1_556
Er3 Mg23 3.430184 1_655
Er3 Mg19 3.430185 1_565
Er3 Mg4 3.430189 1_655
Er3 Mg18 3.430191 1_565
Er3 Mg1 3.556929 1_555
Er3 Mg17 3.556930 1_555
Er3 Mg2 3.556937 1_555
Er3 Er4 3.605866 1_666
Er3 Mg10 3.634335 1_555
Er3 Mg16 3.634338 1_555
Er3 Mg9 3.634351 1_555
Er4 Mg19 3.432988 1_454
Er4 Mg3 3.432988 1_445
Er4 Mg17 3.432988 1_555
Er4 Mg2 3.432988 1_555
Er4 Mg1 3.432989 1_555
Er4 Mg22 3.432989 1_455
Er4 Mg23 3.432989 1_544
Er4 Mg20 3.432990 1_445
Er4 Mg0 3.432990 1_545
Er4 Mg4 3.432991 1_544
Er4 Mg18 3.432992 1_454
Er4 Mg21 3.433000 1_554
Mg0 Mg17 2.831830 1_565
Mg0 Mg5 2.950171 1_555
Mg0 Mg20 3.006888 1_455
Mg0 Mg23 3.006889 1_554
Mg0 Mg8 3.162945 1_555
Mg0 Mg11 3.162946 1_555
Mg0 Mg7 3.393219 1_565
Mg0 Mg6 3.393221 1_565
Mg1 Mg22 2.831828 1_455
Mg1 Mg10 2.950171 1_555
Mg1 Mg17 3.006889 1_555
Mg1 Mg2 3.006889 1_555
Mg1 Mg5 3.162946 1_555
Mg1 Mg14 3.162946 1_555
Mg1 Mg11 3.393221 1_555
Mg1 Mg12 3.393221 1_555
Mg2 Mg21 2.831830 1_554
Mg2 Mg9 2.950170 1_555
Mg2 Mg5 3.162946 1_555
Mg2 Mg8 3.393222 1_555
Mg3 Mg8 2.950170 1_555
Mg3 Mg7 3.162946 1_565
Mg3 Mg9 3.393222 1_555
Mg4 Mg6 3.162947 1_565
Mg4 Mg9 3.162948 1_455
Mg5 Mg6 3.290841 1_565
Mg5 Mg7 3.290842 1_565
Mg5 Mg9 3.326053 1_555
Mg5 Mg8 3.326055 1_555
Mg7 Mg8 3.326053 1_545
Mg7 Mg9 3.326055 1_545
Mg8 Mg9 3.290840 1_555
Mg10 Mg3 3.162945 1_556
Mg10 Mg19 3.162945 1_565
Mg10 Mg12 3.290841 1_555
Mg10 Mg11 3.290841 1_555
Mg10 Mg5 3.326055 1_555
Mg10 Mg14 3.326055 1_555
Mg10 Mg8 3.326055 1_556
Mg10 Mg6 3.326055 1_565
Mg10 Mg4 3.393213 1_555
Mg10 Mg23 3.393220 1_555
Mg11 Mg4 2.950168 1_555
Mg11 Mg20 3.162946 1_455
Mg11 Mg15 3.290841 1_455
Mg11 Mg5 3.326052 1_555
Mg11 Mg13 3.326052 1_455
Mg11 Mg9 3.326053 1_455
Mg11 Mg6 3.326053 1_565
Mg11 Mg22 3.393221 1_455
Mg12 Mg23 2.950171 1_555
Mg12 Mg21 3.162943 1_555
Mg12 Mg18 3.162949 1_455
Mg12 Mg15 3.290841 1_455
Mg12 Mg14 3.326052 1_555
Mg12 Mg7 3.326052 1_455
Mg12 Mg16 3.326053 1_455
Mg12 Mg8 3.326053 1_556
Mg12 Mg22 3.393221 1_455
Mg13 Mg20 2.950171 1_555
Mg13 Mg19 3.162946 1_554
Mg13 Mg22 3.162946 1_555
Mg13 Mg9 3.290841 1_555
Mg13 Mg14 3.290842 1_554
Mg13 Mg6 3.326053 1_554
Mg13 Mg16 3.326055 1_554
Mg13 Mg15 3.326055 1_555
Mg13 Mg21 3.393212 1_554
Mg13 Mg2 3.393220 1_555
Mg14 Mg21 2.950161 1_555
Mg14 Mg17 3.162946 1_555
Mg14 Mg8 3.290841 1_556
Mg14 Mg16 3.326053 1_555
Mg14 Mg6 3.326055 1_555
Mg14 Mg20 3.393219 1_556
Mg14 Mg3 3.393220 1_556
Mg15 Mg22 2.950171 1_555
Mg15 Mg17 3.162945 1_555
Mg15 Mg2 3.162945 1_555
Mg15 Mg7 3.326055 1_555
Mg15 Mg16 3.326055 1_555
Mg15 Mg9 3.326055 1_555
Mg15 Mg4 3.393213 1_655
Mg15 Mg23 3.393220 1_655
Mg16 Mg17 2.950170 1_555
Mg16 Mg23 3.162945 1_655
Mg16 Mg20 3.162945 1_556
Mg16 Mg6 3.290840 1_555
Mg16 Mg7 3.290841 1_555
Mg16 Mg18 3.393214 1_555
Mg16 Mg19 3.393222 1_555
Mg17 Mg2 3.006891 1_555
Mg17 Mg7 3.393220 1_555
Mg17 Mg6 3.393222 1_555
Mg18 Mg19 2.831822 1_555
Mg18 Mg7 2.950168 1_555
Mg18 Mg21 3.006903 1_655
Mg18 Mg4 3.006905 1_645
Mg18 Mg9 3.162948 1_545
Mg18 Mg5 3.393212 1_545
Mg19 Mg6 2.950170 1_555
Mg19 Mg22 3.006889 1_556
Mg19 Mg3 3.006891 1_546
Mg19 Mg5 3.393220 1_545
Mg20 Mg3 2.831830 1_555
Mg20 Mg23 3.006889 1_654
Mg20 Mg9 3.393221 1_555
Mg21 Mg4 3.006905 1_545
Mg21 Mg6 3.162942 1_555
Mg21 Mg8 3.393214 1_556
Mg22 Mg3 3.006889 1_545
Mg22 Mg7 3.162946 1_555
Mg23 Mg4 2.831824 1_555
Mg23 Mg8 3.162945 1_556
