# generated using pymatgen
data_Sn5W8O23
_symmetry_space_group_name_H-M   'P 1'
_cell_length_a   8.15596399
_cell_length_b   8.15596399
_cell_length_c   19.49138700
_cell_angle_alpha   90.00000000
_cell_angle_beta   90.00000000
_cell_angle_gamma   119.99999989
_symmetry_Int_Tables_number   1
_chemical_formula_structural   Sn5W8O23
_chemical_formula_sum   'Sn10 W16 O46'
_cell_volume   1122.85577109
_cell_formula_units_Z   2
loop_
 _symmetry_equiv_pos_site_id
 _symmetry_equiv_pos_as_xyz
  1  'x, y, z'
loop_
 _atom_site_type_symbol
 _atom_site_label
 _atom_site_symmetry_multiplicity
 _atom_site_fract_x
 _atom_site_fract_y
 _atom_site_fract_z
 _atom_site_occupancy
  Sn  Sn0  1  0.20034400  0.29579100  0.25000000  1
  Sn  Sn1  1  0.90455300  0.20034400  0.75000000  1
  Sn  Sn2  1  0.29579100  0.09544700  0.75000000  1
  Sn  Sn3  1  0.70420900  0.90455300  0.25000000  1
  Sn  Sn4  1  0.09544700  0.79965600  0.25000000  1
  Sn  Sn5  1  0.79965600  0.70420900  0.75000000  1
  Sn  Sn6  1  0.33333300  0.66666700  0.06038400  1
  Sn  Sn7  1  0.66666700  0.33333300  0.56038400  1
  Sn  Sn8  1  0.66666700  0.33333300  0.93961600  1
  Sn  Sn9  1  0.33333300  0.66666700  0.43961600  1
  W  W0  1  0.74871600  0.94361600  0.56990400  1
  W  W1  1  0.80510000  0.74871600  0.06990400  1
  W  W2  1  0.94361600  0.19490000  0.06990400  1
  W  W3  1  0.05638400  0.80510000  0.56990400  1
  W  W4  1  0.19490000  0.25128400  0.56990400  1
  W  W5  1  0.25128400  0.05638400  0.06990400  1
  W  W6  1  0.74871600  0.94361600  0.93009600  1
  W  W7  1  0.80510000  0.74871600  0.43009600  1
  W  W8  1  0.94361600  0.19490000  0.43009600  1
  W  W9  1  0.05638400  0.80510000  0.93009600  1
  W  W10  1  0.19490000  0.25128400  0.93009600  1
  W  W11  1  0.25128400  0.05638400  0.43009600  1
  W  W12  1  0.33333300  0.66666700  0.67444600  1
  W  W13  1  0.66666700  0.33333300  0.17444600  1
  W  W14  1  0.66666700  0.33333300  0.32555400  1
  W  W15  1  0.33333300  0.66666700  0.82555400  1
  O  O0  1  0.00000000  0.00000000  0.75000000  1
  O  O1  1  0.00000000  0.00000000  0.25000000  1
  O  O2  1  0.17621100  0.22398800  0.37764600  1
  O  O3  1  0.95222300  0.17621100  0.87764600  1
  O  O4  1  0.22398800  0.04777700  0.87764600  1
  O  O5  1  0.77601200  0.95222300  0.37764600  1
  O  O6  1  0.04777700  0.82378900  0.37764600  1
  O  O7  1  0.82378900  0.77601200  0.87764600  1
  O  O8  1  0.82378900  0.77601200  0.62235400  1
  O  O9  1  0.04777700  0.82378900  0.12235400  1
  O  O10  1  0.77601200  0.95222300  0.12235400  1
  O  O11  1  0.22398800  0.04777700  0.62235400  1
  O  O12  1  0.95222300  0.17621100  0.62235400  1
  O  O13  1  0.17621100  0.22398800  0.12235400  1
  O  O14  1  0.00000000  0.00000000  0.50000000  1
  O  O15  1  0.00000000  0.00000000  0.00000000  1
  O  O16  1  0.14543900  0.40478400  0.49605800  1
  O  O17  1  0.74065400  0.14543900  0.50394200  1
  O  O18  1  0.74065400  0.14543900  0.99605800  1
  O  O19  1  0.59521600  0.74065400  0.49605800  1
  O  O20  1  0.25934600  0.85456100  0.49605800  1
  O  O21  1  0.85456100  0.59521600  0.99605800  1
  O  O22  1  0.85456100  0.59521600  0.50394200  1
  O  O23  1  0.25934600  0.85456100  0.00394200  1
  O  O24  1  0.59521600  0.74065400  0.00394200  1
  O  O25  1  0.40478400  0.25934600  0.50394200  1
  O  O26  1  0.46791900  0.29115800  0.25000000  1
  O  O27  1  0.17676100  0.46791900  0.75000000  1
  O  O28  1  0.29115800  0.82323900  0.75000000  1
  O  O29  1  0.70884200  0.17676100  0.25000000  1
  O  O30  1  0.82323900  0.53208100  0.25000000  1
  O  O31  1  0.53208100  0.70884200  0.75000000  1
  O  O32  1  0.48236900  0.12129200  0.12922400  1
  O  O33  1  0.36107700  0.48236900  0.62922400  1
  O  O34  1  0.12129200  0.63892300  0.62922400  1
  O  O35  1  0.87870800  0.36107700  0.12922400  1
  O  O36  1  0.63892300  0.51763100  0.12922400  1
  O  O37  1  0.51763100  0.87870800  0.62922400  1
  O  O38  1  0.51763100  0.87870800  0.87077600  1
  O  O39  1  0.63892300  0.51763100  0.37077600  1
  O  O40  1  0.87870800  0.36107700  0.37077600  1
  O  O41  1  0.12129200  0.63892300  0.87077600  1
  O  O42  1  0.36107700  0.48236900  0.87077600  1
  O  O43  1  0.48236900  0.12129200  0.37077600  1
  O  O44  1  0.14543900  0.40478400  0.00394200  1
  O  O45  1  0.40478400  0.25934600  0.99605800  1
loop_
_geom_bond_atom_site_label_1
_geom_bond_atom_site_label_2
_geom_bond_distance
_geom_bond_site_symmetry_2
O0 Sn1 2.132595 1_455
O0 Sn2 2.132595 1_555
O0 Sn5 2.132595 1_445
O1 Sn4 2.132595 1_545
O1 Sn3 2.132595 1_445
O1 Sn0 2.132595 1_555
O2 W11 2.031169 1_555
O2 W8 2.061582 1_455
O2 Sn0 2.540976 1_555
O3 W10 2.031169 1_655
O3 W6 2.061582 1_545
O3 Sn1 2.540976 1_555
O4 W9 2.031169 1_545
O4 W10 2.061582 1_555
O4 Sn2 2.540976 1_555
O5 W8 2.031169 1_565
O5 W7 2.061582 1_555
O5 Sn3 2.540976 1_555
O6 W7 2.031169 1_455
O6 W11 2.061582 1_565
O6 Sn4 2.540976 1_555
O7 W6 2.031169 1_555
O7 W9 2.061582 1_655
O7 Sn5 2.540976 1_555
O8 W0 2.031169 1_555
O8 W3 2.061582 1_655
O8 Sn5 2.540976 1_555
O9 W1 2.031169 1_455
O9 W5 2.061582 1_565
O9 Sn4 2.540976 1_555
O10 W2 2.031169 1_565
O10 W1 2.061582 1_555
O10 Sn3 2.540976 1_555
O11 W3 2.031169 1_545
O11 W4 2.061582 1_555
O11 Sn2 2.540976 1_555
O12 W4 2.031169 1_655
O12 W0 2.061582 1_545
O12 Sn1 2.540976 1_555
O13 W5 2.031169 1_555
O13 W2 2.061582 1_455
O13 Sn0 2.540976 1_555
O14 W3 2.307764 1_545
O14 W8 2.307764 1_455
O14 W0 2.307764 1_445
O14 W11 2.307764 1_555
O14 W4 2.307764 1_555
O14 W7 2.307764 1_445
O15 W9 2.307764 1_544
O15 W2 2.307764 1_455
O15 W6 2.307764 1_444
O15 W5 2.307764 1_555
O15 W10 2.307764 1_554
O15 W1 2.307764 1_445
O16 W4 2.075303 1_555
O16 W8 2.115434 1_455
O16 Sn9 2.201734 1_555
O17 W8 2.075309 1_555
O17 W0 2.115437 1_545
O17 Sn7 2.201724 1_555
O18 W2 2.075309 1_556
O18 W6 2.115437 1_545
O18 Sn8 2.201724 1_555
O19 W0 2.075307 1_555
O19 W7 2.115431 1_555
O19 Sn9 2.201738 1_555
O20 W3 2.075309 1_555
O20 W11 2.115437 1_565
O20 Sn9 2.201724 1_555
O21 W1 2.075303 1_556
O21 W9 2.115434 1_655
O21 Sn8 2.201734 1_555
O22 W7 2.075303 1_555
O22 W3 2.115434 1_655
O22 Sn7 2.201734 1_555
O23 W9 2.075309 1_554
O23 W5 2.115437 1_565
O23 Sn6 2.201724 1_555
O24 W6 2.075307 1_554
O24 W1 2.115431 1_555
O24 Sn6 2.201738 1_555
O25 W11 2.075307 1_555
O25 W4 2.115431 1_555
O25 Sn7 2.201738 1_555
O26 W14 2.087349 1_555
O26 W13 2.087349 1_555
O26 Sn0 2.201469 1_555
O27 W15 2.087347 1_555
O27 W12 2.087347 1_555
O27 Sn1 2.201469 1_455
O28 W12 2.087343 1_555
O28 W15 2.087343 1_555
O28 Sn2 2.201469 1_565
O29 W13 2.087343 1_555
O29 W14 2.087343 1_555
O29 Sn3 2.201469 1_545
O30 W13 2.087347 1_555
O30 W14 2.087347 1_555
O30 Sn4 2.201469 1_655
O31 W15 2.087349 1_555
O31 W12 2.087349 1_555
O31 Sn5 2.201469 1_555
O32 W13 1.851389 1_555
O32 W5 2.042435 1_555
O33 W12 1.851393 1_555
O33 W4 2.042435 1_555
O34 W12 1.851386 1_555
O34 W3 2.042435 1_555
O35 W13 1.851386 1_555
O35 W2 2.042435 1_555
O36 W13 1.851393 1_555
O36 W1 2.042435 1_555
O37 W12 1.851389 1_555
O37 W0 2.042435 1_555
O38 W15 1.851389 1_555
O38 W6 2.042435 1_555
O39 W14 1.851393 1_555
O39 W7 2.042435 1_555
O40 W14 1.851386 1_555
O40 W8 2.042435 1_555
O41 W15 1.851386 1_555
O41 W9 2.042435 1_555
O42 W15 1.851393 1_555
O42 W10 2.042435 1_555
O43 W14 1.851389 1_555
O43 W11 2.042435 1_555
O44 W10 2.075303 1_554
O44 W2 2.115434 1_455
O44 Sn6 2.201734 1_555
O45 W5 2.075307 1_556
O45 W10 2.115431 1_555
O45 Sn8 2.201738 1_555
