# generated using pymatgen
data_Mg(CoS2)4
_symmetry_space_group_name_H-M   'P 1'
_cell_length_a   6.99781137
_cell_length_b   7.01127784
_cell_length_c   6.98933499
_cell_angle_alpha   60.08125484
_cell_angle_beta   60.08607087
_cell_angle_gamma   60.10922616
_symmetry_Int_Tables_number   1
_chemical_formula_structural   Mg(CoS2)4
_chemical_formula_sum   'Mg1 Co4 S8'
_cell_volume   242.98889527
_cell_formula_units_Z   1
loop_
 _symmetry_equiv_pos_site_id
 _symmetry_equiv_pos_as_xyz
  1  'x, y, z'
loop_
 _atom_site_type_symbol
 _atom_site_label
 _atom_site_symmetry_multiplicity
 _atom_site_fract_x
 _atom_site_fract_y
 _atom_site_fract_z
 _atom_site_occupancy
  Mg  Mg0  1  0.62732300  0.62265700  0.62704300  1
  Co  Co0  1  0.48708800  0.03849900  0.48683400  1
  Co  Co1  1  0.04351300  0.48689100  0.48408500  1
  Co  Co2  1  0.48407500  0.48668800  0.04381200  1
  Co  Co3  1  0.48602000  0.48792000  0.48586500  1
  S  S0  1  0.75536100  0.75693100  0.75561500  1
  S  S1  1  0.26792800  0.26516300  0.70060800  1
  S  S2  1  0.26582900  0.70355600  0.26613900  1
  S  S3  1  0.70075800  0.26501100  0.26804900  1
  S  S4  1  0.26669100  0.26414100  0.26698300  1
  S  S5  1  0.75408600  0.75501400  0.23560200  1
  S  S6  1  0.23637700  0.75456900  0.75408900  1
  S  S7  1  0.75495100  0.23296200  0.75527600  1
loop_
_geom_bond_atom_site_label_1
_geom_bond_atom_site_label_2
_geom_bond_distance
_geom_bond_site_symmetry_2
Mg0 S0 2.232563 1_555
Mg0 S7 2.233742 1_555
Mg0 S5 2.236171 1_555
Mg0 S6 2.236673 1_555
Co0 S4 2.179341 1_555
Co0 S3 2.181730 1_555
Co0 S1 2.182660 1_555
Co0 Mg0 2.383545 1_545
Co0 S5 2.651922 1_545
Co0 S6 2.652008 1_545
Co0 S0 2.659871 1_545
Co1 S2 2.175282 1_555
Co1 S4 2.179450 1_555
Co1 S1 2.182531 1_555
Co1 Mg0 2.381137 1_455
Co1 S5 2.666256 1_455
Co1 S0 2.686024 1_455
Co1 S7 2.690616 1_455
Co2 S2 2.175893 1_555
Co2 S4 2.180147 1_555
Co2 S3 2.182339 1_555
Co2 Mg0 2.380928 1_554
Co2 S6 2.663586 1_554
Co2 S0 2.686137 1_554
Co2 S7 2.688823 1_554
Co3 S2 2.177306 1_555
Co3 S3 2.183874 1_555
Co3 S1 2.184909 1_555
Co3 Mg0 2.382828 1_555
Co3 S6 2.652567 1_555
Co3 S5 2.654512 1_555
Co3 S7 2.665806 1_555
