# generated using pymatgen
data_Na4ZrZnSi2SO12
_symmetry_space_group_name_H-M   'P 1'
_cell_length_a   9.24380482
_cell_length_b   9.26210861
_cell_length_c   22.44983003
_cell_angle_alpha   89.26061559
_cell_angle_beta   90.00000000
_cell_angle_gamma   119.93464930
_symmetry_Int_Tables_number   1
_chemical_formula_structural   Na4ZrZnSi2SO12
_chemical_formula_sum   'Na24 Zr6 Zn6 Si12 S6 O72'
_cell_volume   1665.48905849
_cell_formula_units_Z   6
loop_
 _symmetry_equiv_pos_site_id
 _symmetry_equiv_pos_as_xyz
  1  'x, y, z'
loop_
 _atom_site_type_symbol
 _atom_site_label
 _atom_site_symmetry_multiplicity
 _atom_site_fract_x
 _atom_site_fract_y
 _atom_site_fract_z
 _atom_site_occupancy
  Na  Na0  1  0.64419630  0.02683298  0.25378564  1
  Na  Na1  1  0.36429813  0.35017660  0.24252963  1
  Na  Na2  1  0.98960017  0.61677934  0.23992870  1
  Na  Na3  1  0.62717917  0.61677934  0.73992870  1
  Na  Na4  1  0.98587846  0.35017660  0.74252963  1
  Na  Na5  1  0.38263668  0.02683298  0.75378564  1
  Na  Na6  1  0.31086330  0.36016598  0.58711864  1
  Na  Na7  1  0.03096513  0.68350960  0.57586263  1
  Na  Na8  1  0.65626717  0.95011234  0.57326170  1
  Na  Na9  1  0.29384617  0.95011234  0.07326170  1
  Na  Na10  1  0.65254546  0.68350960  0.07586263  1
  Na  Na11  1  0.04930368  0.36016598  0.08711864  1
  Na  Na12  1  0.97752930  0.69349998  0.92045264  1
  Na  Na13  1  0.69763113  0.01684360  0.90919663  1
  Na  Na14  1  0.32293317  0.28344634  0.90659570  1
  Na  Na15  1  0.96051217  0.28344634  0.40659570  1
  Na  Na16  1  0.31921146  0.01684360  0.40919663  1
  Na  Na17  1  0.71596968  0.69349998  0.42045264  1
  Na  Na18  1  0.98148381  0.98590024  0.49285751  1
  Na  Na19  1  0.00441644  0.98590024  0.99285751  1
  Na  Na20  1  0.64815081  0.31923324  0.82619051  1
  Na  Na21  1  0.67108344  0.31923324  0.32619051  1
  Na  Na22  1  0.31481681  0.65256724  0.15952451  1
  Na  Na23  1  0.33774944  0.65256724  0.65952451  1
  Zr  Zr0  1  0.98865222  0.00620278  0.64836029  1
  Zr  Zr1  1  0.01755056  0.00620278  0.14836029  1
  Zr  Zr2  1  0.65531922  0.33953578  0.98169329  1
  Zr  Zr3  1  0.68421756  0.33953578  0.48169329  1
  Zr  Zr4  1  0.32198522  0.67286978  0.31502729  1
  Zr  Zr5  1  0.35088356  0.67286978  0.81502729  1
  Zn  Zn0  1  0.00187633  0.00280305  0.34799270  1
  Zn  Zn1  1  0.00092672  0.00280305  0.84799270  1
  Zn  Zn2  1  0.66854333  0.33613605  0.68132570  1
  Zn  Zn3  1  0.66759372  0.33613605  0.18132570  1
  Zn  Zn4  1  0.33520933  0.66947005  0.01465970  1
  Zn  Zn5  1  0.33425972  0.66947005  0.51465970  1
  Si  Si0  1  0.30203950  0.00649553  0.25331319  1
  Si  Si1  1  0.99912158  0.29438811  0.25236809  1
  Si  Si2  1  0.29526653  0.29438811  0.75236809  1
  Si  Si3  1  0.70445603  0.00649553  0.75331319  1
  Si  Si4  1  0.96870650  0.33982853  0.58664619  1
  Si  Si5  1  0.66578858  0.62772111  0.58570109  1
  Si  Si6  1  0.96193353  0.62772111  0.08570109  1
  Si  Si7  1  0.37112303  0.33982853  0.08664619  1
  Si  Si8  1  0.63537250  0.67316253  0.91998019  1
  Si  Si9  1  0.33245458  0.96105511  0.91903509  1
  Si  Si10  1  0.62859953  0.96105511  0.41903509  1
  Si  Si11  1  0.03778903  0.67316253  0.41998019  1
  S  S0  1  0.70335173  0.70616179  0.25193641  1
  S  S1  1  0.00281005  0.70616179  0.75193641  1
  S  S2  1  0.37001873  0.03949479  0.58526941  1
  S  S3  1  0.66947705  0.03949479  0.08526941  1
  S  S4  1  0.03668473  0.37282879  0.91860341  1
  S  S5  1  0.33614305  0.37282879  0.41860341  1
  O  O0  1  0.21439324  0.02940261  0.31164341  1
  O  O1  1  0.80110783  0.78504710  0.30561831  1
  O  O2  1  0.97015543  0.18111958  0.31141721  1
  O  O3  1  0.21096414  0.18111958  0.81141721  1
  O  O4  1  0.98393926  0.78504710  0.80561831  1
  O  O5  1  0.81500938  0.02940261  0.81164341  1
  O  O6  1  0.79207153  0.97055087  0.69432383  1
  O  O7  1  0.17749522  0.19901434  0.69323451  1
  O  O8  1  0.02611618  0.81054598  0.69737760  1
  O  O9  1  0.78442980  0.81054598  0.19737760  1
  O  O10  1  0.02151912  0.19901434  0.19323451  1
  O  O11  1  0.17847933  0.97055087  0.19432383  1
  O  O12  1  0.88106024  0.36273561  0.64497641  1
  O  O13  1  0.46777483  0.11838010  0.63895131  1
  O  O14  1  0.63682243  0.51445258  0.64475021  1
  O  O15  1  0.87763114  0.51445258  0.14475021  1
  O  O16  1  0.65060626  0.11838010  0.13895131  1
  O  O17  1  0.48167638  0.36273561  0.14497641  1
  O  O18  1  0.45873853  0.30388387  0.02765683  1
  O  O19  1  0.84416222  0.53234734  0.02656751  1
  O  O20  1  0.69278318  0.14387898  0.03071060  1
  O  O21  1  0.45109680  0.14387898  0.53071060  1
  O  O22  1  0.68818612  0.53234734  0.52656751  1
  O  O23  1  0.84514633  0.30388387  0.52765683  1
  O  O24  1  0.54772624  0.69606961  0.97831041  1
  O  O25  1  0.13444083  0.45171410  0.97228531  1
  O  O26  1  0.30348843  0.84778658  0.97808421  1
  O  O27  1  0.54429714  0.84778658  0.47808421  1
  O  O28  1  0.31727226  0.45171410  0.47228531  1
  O  O29  1  0.14834238  0.69606961  0.47831041  1
  O  O30  1  0.12540453  0.63721787  0.36099083  1
  O  O31  1  0.51082822  0.86568134  0.35990151  1
  O  O32  1  0.35944918  0.47721298  0.36404460  1
  O  O33  1  0.11776280  0.47721298  0.86404460  1
  O  O34  1  0.35485212  0.86568134  0.85990151  1
  O  O35  1  0.51181233  0.63721787  0.86099083  1
  O  O36  1  0.01301649  0.83415829  0.41239743  1
  O  O37  1  0.81707960  0.99007043  0.41389350  1
  O  O38  1  0.18725774  0.20509299  0.41463170  1
  O  O39  1  0.01783526  0.20509299  0.91463170  1
  O  O40  1  0.17299084  0.99007043  0.91389350  1
  O  O41  1  0.82114179  0.83415829  0.91239743  1
  O  O42  1  0.98298251  0.16670060  0.58683706  1
  O  O43  1  0.20023399  0.02240501  0.58799814  1
  O  O44  1  0.84515254  0.81015179  0.58755515  1
  O  O45  1  0.96499925  0.81015179  0.08755515  1
  O  O46  1  0.82217101  0.02240501  0.08799814  1
  O  O47  1  0.18371808  0.16670060  0.08683706  1
  O  O48  1  0.67968349  0.16749129  0.74573043  1
  O  O49  1  0.48374660  0.32340343  0.74722650  1
  O  O50  1  0.85392474  0.53842599  0.74796470  1
  O  O51  1  0.68450226  0.53842599  0.24796470  1
  O  O52  1  0.83965784  0.32340343  0.24722650  1
  O  O53  1  0.48780879  0.16749129  0.24573043  1
  O  O54  1  0.64964951  0.50003360  0.92017006  1
  O  O55  1  0.86690099  0.35573801  0.92133114  1
  O  O56  1  0.51181954  0.14348479  0.92088815  1
  O  O57  1  0.63166625  0.14348479  0.42088815  1
  O  O58  1  0.48883801  0.35573801  0.42133114  1
  O  O59  1  0.85038508  0.50003360  0.42017006  1
  O  O60  1  0.34634949  0.50082529  0.07906443  1
  O  O61  1  0.15041260  0.65673743  0.08056050  1
  O  O62  1  0.52059074  0.87175999  0.08129870  1
  O  O63  1  0.35116826  0.87175999  0.58129870  1
  O  O64  1  0.50632384  0.65673743  0.58056050  1
  O  O65  1  0.15447479  0.50082529  0.57906443  1
  O  O66  1  0.31631551  0.83336760  0.25350406  1
  O  O67  1  0.53356699  0.68907201  0.25466514  1
  O  O68  1  0.17848554  0.47681879  0.25422215  1
  O  O69  1  0.29833225  0.47681879  0.75422215  1
  O  O70  1  0.15550401  0.68907201  0.75466514  1
  O  O71  1  0.51705108  0.83336760  0.75350406  1
loop_
_geom_bond_atom_site_label_1
_geom_bond_atom_site_label_2
_geom_bond_distance
_geom_bond_site_symmetry_2
Na0 O53 2.386066 1_555
Na0 O52 2.422360 1_555
Na0 O66 2.641422 1_545
Na0 O16 2.694821 1_555
Na0 O31 2.737654 1_545
Na0 O67 2.763777 1_545
Na0 O2 2.923234 1_555
Na1 O17 2.419628 1_555
Na1 O53 2.469124 1_555
Na1 O68 2.532520 1_555
Na1 O51 2.582800 1_555
Na1 O67 2.737787 1_555
Na1 O10 2.972766 1_555
Na1 O0 2.987791 1_555
Na1 O32 2.993971 1_555
Na2 O52 2.358231 1_555
Na2 O15 2.368213 1_555
Na2 O51 2.543042 1_555
Na2 O68 2.660870 1_655
Na2 O66 2.684658 1_655
Na2 O30 2.962163 1_655
Na2 O11 3.006151 1_655
Na3 O49 2.358231 1_555
Na3 O14 2.368215 1_555
Na3 O50 2.543051 1_555
Na3 O69 2.660879 1_555
Na3 O71 2.684665 1_555
Na3 O35 2.962167 1_555
Na3 O6 3.006151 1_555
Na4 O12 2.419624 1_555
Na4 O48 2.469116 1_555
Na4 O69 2.532511 1_655
Na4 O50 2.582792 1_555
Na4 O70 2.737787 1_655
Na4 O7 2.972766 1_655
Na4 O5 2.987791 1_555
Na4 O33 2.993969 1_655
Na5 O48 2.386074 1_555
Na5 O49 2.422358 1_555
Na5 O71 2.641414 1_545
Na5 O13 2.694822 1_555
Na5 O34 2.737652 1_545
Na5 O70 2.763779 1_545
Na5 O3 2.923234 1_555
Na6 O65 2.386080 1_555
Na6 O64 2.422364 1_555
Na6 O42 2.641422 1_455
Na6 O28 2.694804 1_555
Na6 O7 2.737654 1_555
Na6 O43 2.763777 1_555
Na6 O14 2.923234 1_555
Na7 O29 2.419602 1_555
Na7 O65 2.469108 1_555
Na7 O44 2.532520 1_455
Na7 O63 2.582795 1_555
Na7 O43 2.737787 1_565
Na7 O22 2.972766 1_455
Na7 O12 2.987791 1_455
Na7 O8 2.993971 1_555
Na8 O64 2.358224 1_555
Na8 O27 2.368193 1_555
Na8 O63 2.543054 1_555
Na8 O44 2.660870 1_555
Na8 O42 2.684658 1_565
Na8 O6 2.962163 1_555
Na8 O23 3.006151 1_565
Na9 O61 2.358224 1_555
Na9 O26 2.368188 1_554
Na9 O62 2.543037 1_555
Na9 O45 2.660879 1_455
Na9 O47 2.684665 1_565
Na9 O11 2.962167 1_555
Na9 O18 3.006151 1_565
Na10 O24 2.419609 1_554
Na10 O60 2.469123 1_555
Na10 O45 2.532511 1_555
Na10 O62 2.582810 1_555
Na10 O46 2.737787 1_565
Na10 O19 2.972766 1_555
Na10 O17 2.987791 1_555
Na10 O9 2.993969 1_555
Na11 O60 2.386064 1_555
Na11 O61 2.422367 1_555
Na11 O47 2.641414 1_555
Na11 O25 2.694801 1_554
Na11 O10 2.737652 1_555
Na11 O46 2.763779 1_455
Na11 O15 2.923234 1_455
Na12 O41 2.386066 1_555
Na12 O40 2.422360 1_655
Na12 O54 2.641416 1_555
Na12 O4 2.694821 1_555
Na12 O19 2.737635 1_556
Na12 O55 2.763788 1_555
Na12 O26 2.923234 1_655
Na13 O5 2.419628 1_555
Na13 O41 2.469124 1_545
Na13 O56 2.532501 1_555
Na13 O39 2.582800 1_655
Na13 O55 2.737776 1_555
Na13 O34 2.972766 1_545
Na13 O24 2.987791 1_545
Na13 O20 2.993945 1_556
Na14 O40 2.358231 1_545
Na14 O3 2.368213 1_555
Na14 O39 2.543042 1_555
Na14 O56 2.660884 1_555
Na14 O54 2.684660 1_555
Na14 O18 2.962148 1_556
Na14 O35 3.006151 1_555
Na15 O37 2.358231 1_545
Na15 O2 2.368215 1_555
Na15 O38 2.543051 1_655
Na15 O57 2.660867 1_555
Na15 O59 2.684646 1_555
Na15 O23 2.962140 1_555
Na15 O30 3.006151 1_655
Na16 O0 2.419624 1_555
Na16 O36 2.469116 1_545
Na16 O57 2.532518 1_555
Na16 O38 2.582792 1_555
Na16 O58 2.737776 1_555
Na16 O31 2.972766 1_545
Na16 O29 2.987791 1_545
Na16 O21 2.993949 1_555
Na17 O36 2.386074 1_655
Na17 O37 2.422358 1_555
Na17 O59 2.641430 1_555
Na17 O1 2.694822 1_555
Na17 O22 2.737639 1_555
Na17 O58 2.763784 1_555
Na17 O27 2.923234 1_555
Na18 O37 2.347429 1_555
Na18 O36 2.407779 1_655
Na18 O44 2.573109 1_555
Na18 O38 2.622553 1_665
Na18 O42 2.706260 1_565
Na18 O43 2.846309 1_665
Na19 O40 2.347429 1_555
Na19 O41 2.407779 1_455
Na19 O45 2.573109 1_456
Na19 O39 2.622553 1_565
Na19 O47 2.706260 1_566
Na19 O46 2.846309 1_466
Na20 O49 2.347429 1_555
Na20 O48 2.407779 1_555
Na20 O56 2.573109 1_555
Na20 O50 2.622553 1_555
Na20 O54 2.706260 1_555
Na20 O55 2.846309 1_555
Na21 O52 2.347429 1_555
Na21 O53 2.407779 1_555
Na21 O57 2.573109 1_555
Na21 O51 2.622553 1_555
Na21 O59 2.706260 1_555
Na21 O58 2.846309 1_555
Na22 O61 2.347429 1_555
Na22 O60 2.407779 1_555
Na22 O68 2.573109 1_555
Na22 O62 2.622553 1_555
Na22 O66 2.706260 1_555
Na22 O67 2.846309 1_555
Na23 O64 2.347429 1_555
Na23 O65 2.407779 1_555
Na23 O69 2.573109 1_555
Na23 O63 2.622553 1_555
Na23 O71 2.706260 1_555
Na23 O70 2.846309 1_555
O0 Si0 1.610882 1_555
O0 Zn0 2.024233 1_555
O1 S0 1.471931 1_555
O1 Zn0 2.175055 1_665
O2 Si1 1.616602 1_555
O2 Zn0 1.984004 1_655
O3 Si2 1.616602 1_555
O3 Zn1 1.984004 1_555
O4 S1 1.471931 1_655
O4 Zn1 2.175055 1_665
O5 Si3 1.610882 1_555
O5 Zn1 2.024233 1_655
O6 Si3 1.673628 1_565
O6 Zr0 1.966773 1_565
O7 Si2 1.672826 1_555
O7 Zr0 2.046098 1_455
O8 S1 1.497643 1_555
O8 Zr0 2.278113 1_465
O9 S0 1.497643 1_555
O9 Zr1 2.278113 1_665
O10 Si1 1.672826 1_455
O10 Zr1 2.046098 1_555
O11 Si0 1.673628 1_565
O11 Zr1 1.966773 1_565
O12 Si4 1.610882 1_555
O12 Zn2 2.024233 1_555
O13 S2 1.471931 1_555
O13 Zn2 2.175055 1_555
O14 Si5 1.616602 1_555
O14 Zn2 1.984004 1_555
O15 Si6 1.616602 1_555
O15 Zn3 1.984004 1_555
O16 S3 1.471931 1_555
O16 Zn3 2.175055 1_555
O17 Si7 1.610882 1_555
O17 Zn3 2.024233 1_555
O18 Si7 1.673628 1_555
O18 Zr2 1.966773 1_554
O19 Si6 1.672826 1_555
O19 Zr2 2.046098 1_554
O20 S3 1.497643 1_555
O20 Zr2 2.278113 1_554
O21 S2 1.497643 1_555
O21 Zr3 2.278113 1_555
O22 Si5 1.672826 1_555
O22 Zr3 2.046098 1_555
O23 Si4 1.673628 1_555
O23 Zr3 1.966773 1_555
O24 Si8 1.610882 1_555
O24 Zn4 2.024233 1_556
O25 S4 1.471931 1_555
O25 Zn4 2.175055 1_556
O26 Si9 1.616602 1_555
O26 Zn4 1.984004 1_556
O27 Si10 1.616602 1_555
O27 Zn5 1.984004 1_555
O28 S5 1.471931 1_555
O28 Zn5 2.175055 1_555
O29 Si11 1.610882 1_555
O29 Zn5 2.024233 1_555
O30 Si11 1.673628 1_555
O30 Zr4 1.966773 1_555
O31 Si10 1.672826 1_555
O31 Zr4 2.046098 1_555
O32 S5 1.497643 1_555
O32 Zr4 2.278113 1_555
O33 S4 1.497643 1_555
O33 Zr5 2.278113 1_555
O34 Si9 1.672826 1_555
O34 Zr5 2.046098 1_555
O35 Si8 1.673628 1_555
O35 Zr5 1.966773 1_555
O36 Si11 1.624566 1_555
O36 Zn0 2.154824 1_565
O37 Si10 1.628792 1_555
O37 Zn0 2.217023 1_665
O38 S5 1.478291 1_555
O38 Zn0 2.356505 1_555
O39 S4 1.478295 1_555
O39 Zn1 2.356505 1_555
O40 Si9 1.628783 1_555
O40 Zn1 2.217023 1_565
O41 Si8 1.624571 1_555
O41 Zn1 2.154824 1_665
O42 Si4 1.673247 1_555
O42 Zr0 2.035930 1_555
O43 S2 1.497938 1_555
O43 Zr0 2.320761 1_455
O44 Si5 1.676785 1_555
O44 Zr0 2.140164 1_565
O45 Si6 1.676789 1_555
O45 Zr1 2.140164 1_665
O46 S3 1.497929 1_555
O46 Zr1 2.320761 1_655
O47 Si7 1.673252 1_555
O47 Zr1 2.035930 1_555
O48 Si3 1.624566 1_555
O48 Zn2 2.154824 1_555
O49 Si2 1.628792 1_555
O49 Zn2 2.217023 1_555
O50 S1 1.478291 1_655
O50 Zn2 2.356505 1_555
O51 S0 1.478295 1_555
O51 Zn3 2.356505 1_555
O52 Si1 1.628783 1_555
O52 Zn3 2.217023 1_555
O53 Si0 1.624571 1_555
O53 Zn3 2.154824 1_555
O54 Si8 1.673261 1_555
O54 Zr2 2.035930 1_555
O55 S4 1.497924 1_655
O55 Zr2 2.320761 1_555
O56 Si9 1.676784 1_545
O56 Zr2 2.140164 1_555
O57 Si10 1.676775 1_545
O57 Zr3 2.140164 1_555
O58 S5 1.497942 1_555
O58 Zr3 2.320761 1_555
O59 Si11 1.673251 1_655
O59 Zr3 2.035930 1_555
O60 Si7 1.624578 1_555
O60 Zn4 2.154824 1_555
O61 Si6 1.628778 1_455
O61 Zn4 2.217023 1_555
O62 S3 1.478287 1_565
O62 Zn4 2.356505 1_555
O63 S2 1.478280 1_565
O63 Zn5 2.356505 1_555
O64 Si5 1.628796 1_555
O64 Zn5 2.217023 1_555
O65 Si4 1.624567 1_455
O65 Zn5 2.154824 1_555
O66 Si0 1.673247 1_565
O66 Zr4 2.035930 1_555
O67 S0 1.497938 1_555
O67 Zr4 2.320761 1_555
O68 Si1 1.676785 1_455
O68 Zr4 2.140164 1_555
O69 Si2 1.676789 1_555
O69 Zr5 2.140164 1_555
O70 S1 1.497929 1_555
O70 Zr5 2.320761 1_555
O71 Si3 1.673252 1_565
O71 Zr5 2.035930 1_555
