# generated using pymatgen
data_HfSiSn(SO6)2
_symmetry_space_group_name_H-M   'P 1'
_cell_length_a   8.88624349
_cell_length_b   8.89492899
_cell_length_c   23.09052944
_cell_angle_alpha   90.19858139
_cell_angle_beta   89.80940722
_cell_angle_gamma   120.07628229
_symmetry_Int_Tables_number   1
_chemical_formula_structural   HfSiSn(SO6)2
_chemical_formula_sum   'Hf6 Si6 Sn6 S12 O72'
_cell_volume   1579.38326841
_cell_formula_units_Z   6
loop_
 _symmetry_equiv_pos_site_id
 _symmetry_equiv_pos_as_xyz
  1  'x, y, z'
loop_
 _atom_site_type_symbol
 _atom_site_label
 _atom_site_symmetry_multiplicity
 _atom_site_fract_x
 _atom_site_fract_y
 _atom_site_fract_z
 _atom_site_occupancy
  Hf  Hf0  1  0.02151357  0.01104195  0.85606896  1
  Hf  Hf1  1  0.66534550  0.33395846  0.18965102  1
  Hf  Hf2  1  0.64816015  0.32494583  0.97742479  1
  Hf  Hf3  1  0.32959578  0.66673590  0.02369038  1
  Hf  Hf4  1  0.33495190  0.66559311  0.52285809  1
  Hf  Hf5  1  0.33393168  0.66795509  0.81018385  1
  Si  Si0  1  0.00529890  0.29615784  0.25139494  1
  Si  Si1  1  0.29709566  0.29104118  0.74846128  1
  Si  Si2  1  0.95292977  0.33225277  0.58482298  1
  Si  Si3  1  0.37467908  0.33169664  0.08506454  1
  Si  Si4  1  0.33361456  0.94964764  0.91689056  1
  Si  Si5  1  0.61859574  0.95156754  0.41583989  1
  Sn  Sn0  1  0.98892286  0.00679678  0.35541511  1
  Sn  Sn1  1  0.00327198  0.01629763  0.64583305  1
  Sn  Sn2  1  0.01187469  0.01903600  0.14611610  1
  Sn  Sn3  1  0.66941392  0.33462013  0.68746582  1
  Sn  Sn4  1  0.67239080  0.31976401  0.47774467  1
  Sn  Sn5  1  0.33392679  0.66691730  0.31363436  1
  S  S0  1  0.28456667  0.99643640  0.25122114  1
  S  S1  1  0.71504366  0.71465540  0.24907893  1
  S  S2  1  0.99829453  0.71411056  0.74900592  1
  S  S3  1  0.71230142  0.99923239  0.75032365  1
  S  S4  1  0.37335646  0.04321924  0.58320603  1
  S  S5  1  0.67114073  0.62359359  0.58305290  1
  S  S6  1  0.95217323  0.62506741  0.08454297  1
  S  S7  1  0.66917177  0.04578788  0.08347610  1
  S  S8  1  0.62175190  0.66944425  0.91632042  1
  S  S9  1  0.04480530  0.38099828  0.91697163  1
  S  S10  1  0.33828370  0.37541588  0.41799883  1
  S  S11  1  0.04226438  0.67052896  0.41634319  1
  O  O0  1  0.20810605  0.02750432  0.30404684  1
  O  O1  1  0.82498146  0.78671687  0.30144926  1
  O  O2  1  0.96679071  0.17396137  0.30804270  1
  O  O3  1  0.20154781  0.16717914  0.80455042  1
  O  O4  1  0.96905487  0.79599703  0.80020947  1
  O  O5  1  0.82013636  0.02484735  0.80122036  1
  O  O6  1  0.78184731  0.96071801  0.69692776  1
  O  O7  1  0.17547590  0.20685312  0.69190759  1
  O  O8  1  0.02729720  0.81774337  0.69545252  1
  O  O9  1  0.79398964  0.82146049  0.19648016  1
  O  O10  1  0.04081125  0.21141434  0.19409189  1
  O  O11  1  0.17425336  0.96020838  0.19913878  1
  O  O12  1  0.86976358  0.37089817  0.64268683  1
  O  O13  1  0.48236985  0.11781082  0.63540030  1
  O  O14  1  0.63288561  0.51365794  0.63535119  1
  O  O15  1  0.87345425  0.51388609  0.13625883  1
  O  O16  1  0.64146284  0.12587668  0.13556570  1
  O  O17  1  0.49770792  0.35887009  0.14067816  1
  O  O18  1  0.47240537  0.30678906  0.02856200  1
  O  O19  1  0.84905895  0.54478230  0.03213624  1
  O  O20  1  0.70166194  0.15667457  0.03203842  1
  O  O21  1  0.44690672  0.15633635  0.53168478  1
  O  O22  1  0.69834311  0.54505342  0.53033244  1
  O  O23  1  0.83308541  0.29900690  0.52786659  1
  O  O24  1  0.53980099  0.69431995  0.96831449  1
  O  O25  1  0.15644897  0.45746043  0.96849572  1
  O  O26  1  0.30700851  0.83120968  0.97328220  1
  O  O27  1  0.52017304  0.83004903  0.47142747  1
  O  O28  1  0.30387651  0.45622830  0.46865283  1
  O  O29  1  0.15056679  0.69511640  0.46771698  1
  O  O30  1  0.11301572  0.63107371  0.36377241  1
  O  O31  1  0.50062665  0.86630524  0.35727542  1
  O  O32  1  0.36855094  0.47927251  0.36478555  1
  O  O33  1  0.12680094  0.48717855  0.86487435  1
  O  O34  1  0.35888247  0.85736948  0.86003200  1
  O  O35  1  0.50996006  0.63384160  0.86464337  1
  O  O36  1  0.03365671  0.83145240  0.40771112  1
  O  O37  1  0.80739324  0.96214653  0.41163884  1
  O  O38  1  0.18608712  0.19886370  0.41101069  1
  O  O39  1  0.02037514  0.20511821  0.90783181  1
  O  O40  1  0.16206249  0.96918488  0.90832521  1
  O  O41  1  0.79237346  0.82463776  0.90630286  1
  O  O42  1  0.96523277  0.15612242  0.58972035  1
  O  O43  1  0.19605490  0.01480567  0.59106508  1
  O  O44  1  0.82782103  0.79602479  0.59244331  1
  O  O45  1  0.96870208  0.79741062  0.09399781  1
  O  O46  1  0.81940449  0.01883005  0.09064779  1
  O  O47  1  0.18696664  0.15261715  0.08832356  1
  O  O48  1  0.69480956  0.15521405  0.74295236  1
  O  O49  1  0.48864027  0.30949826  0.73987467  1
  O  O50  1  0.84173614  0.53930392  0.74372428  1
  O  O51  1  0.69518197  0.54065353  0.24112000  1
  O  O52  1  0.83645844  0.31550239  0.23837404  1
  O  O53  1  0.45733916  0.15250929  0.24236988  1
  O  O54  1  0.64634863  0.51781292  0.92502853  1
  O  O55  1  0.87475894  0.36602273  0.92669651  1
  O  O56  1  0.50494330  0.14109368  0.92526409  1
  O  O57  1  0.63268413  0.14185110  0.42065725  1
  O  O58  1  0.49703559  0.36372814  0.42793851  1
  O  O59  1  0.86378321  0.52101653  0.42436240  1
  O  O60  1  0.35450161  0.49973615  0.07222561  1
  O  O61  1  0.12726229  0.64466478  0.07692275  1
  O  O62  1  0.51255696  0.87352190  0.07517644  1
  O  O63  1  0.35878594  0.87191671  0.57370784  1
  O  O64  1  0.51675628  0.64414792  0.57471683  1
  O  O65  1  0.14220895  0.50124172  0.57233123  1
  O  O66  1  0.30604223  0.84289712  0.25757519  1
  O  O67  1  0.54144596  0.69618815  0.25649412  1
  O  O68  1  0.17763318  0.48829772  0.26123839  1
  O  O69  1  0.31573817  0.47823777  0.76152941  1
  O  O70  1  0.15213339  0.69412270  0.75737647  1
  O  O71  1  0.53730948  0.84541954  0.75787065  1
loop_
_geom_bond_atom_site_label_1
_geom_bond_atom_site_label_2
_geom_bond_distance
_geom_bond_site_symmetry_2
Hf0 O40 1.906216 1_545
Hf0 O3 1.917082 1_555
Hf0 O39 2.100451 1_555
Hf0 O4 2.152431 1_445
Hf0 O41 2.203265 1_445
Hf0 O5 2.248940 1_455
Hf1 O52 1.966622 1_555
Hf1 O17 1.972496 1_555
Hf1 O51 2.088370 1_555
Hf1 O53 2.124106 1_555
Hf1 O15 2.129144 1_555
Hf1 O16 2.149988 1_555
Hf2 O18 1.896257 1_556
Hf2 O56 1.911848 1_555
Hf2 O54 2.109333 1_555
Hf2 O20 2.187901 1_556
Hf2 O55 2.193178 1_555
Hf2 O19 2.259573 1_556
Hf3 O26 1.960374 1_554
Hf3 O60 1.963220 1_555
Hf3 O61 2.101263 1_555
Hf3 O62 2.107182 1_555
Hf3 O25 2.140715 1_554
Hf3 O24 2.170545 1_554
Hf4 O27 1.960868 1_555
Hf4 O65 1.965855 1_555
Hf4 O63 2.094920 1_555
Hf4 O64 2.098482 1_555
Hf4 O28 2.140475 1_555
Hf4 O29 2.195955 1_555
Hf5 O34 1.956141 1_555
Hf5 O69 1.962304 1_555
Hf5 O71 2.087195 1_555
Hf5 O70 2.131386 1_555
Hf5 O33 2.144841 1_555
Hf5 O35 2.147479 1_555
O0 S0 1.485332 1_545
O0 Sn0 2.204760 1_455
O1 S1 1.484052 1_555
O1 Sn0 2.154995 1_565
O2 Si0 1.625892 1_655
O2 Sn0 1.936991 1_555
O3 Si1 1.636176 1_555
O4 S2 1.475667 1_555
O5 S3 1.462232 1_545
O6 S3 1.491186 1_555
O6 Sn1 2.126389 1_665
O7 Si1 1.620329 1_555
O7 Sn1 1.935219 1_555
O8 S2 1.487593 1_455
O8 Sn1 2.207053 1_565
O9 S1 1.484623 1_555
O9 Sn2 2.185953 1_665
O10 Si0 1.627040 1_555
O10 Sn2 1.941447 1_555
O11 S0 1.483099 1_555
O11 Sn2 2.151236 1_565
O12 Si2 1.641460 1_555
O12 Sn3 1.938331 1_555
O13 S4 1.479572 1_555
O13 Sn3 2.170606 1_555
O14 S5 1.484030 1_555
O14 Sn3 2.150252 1_555
O15 S6 1.484109 1_555
O16 S7 1.477395 1_555
O17 Si3 1.626350 1_555
O18 Si3 1.639729 1_555
O19 S6 1.469506 1_555
O20 S7 1.478953 1_555
O21 S4 1.482840 1_555
O21 Sn4 2.180778 1_555
O22 S5 1.479804 1_555
O22 Sn4 2.250599 1_555
O23 Si2 1.625483 1_555
O23 Sn4 1.920772 1_555
O24 S8 1.474620 1_555
O25 S9 1.479253 1_555
O26 Si4 1.618352 1_555
O27 Si5 1.623385 1_555
O28 S10 1.479965 1_555
O29 S11 1.475149 1_555
O30 S11 1.484957 1_555
O30 Sn5 2.157710 1_555
O31 Si5 1.645673 1_555
O31 Sn5 1.928608 1_555
O32 S10 1.480585 1_555
O32 Sn5 2.192337 1_555
O33 S9 1.477264 1_555
O34 Si4 1.619608 1_555
O35 S8 1.483558 1_555
O36 S11 1.485366 1_555
O36 Sn0 2.164819 1_465
O37 Si5 1.635142 1_555
O37 Sn0 1.947510 1_565
O38 S10 1.480631 1_555
O38 Sn0 2.153130 1_455
O39 S9 1.482143 1_555
O40 Si4 1.631273 1_555
O41 S8 1.469688 1_555
O42 Si2 1.628549 1_555
O42 Sn1 1.943029 1_655
O43 S4 1.475957 1_555
O43 Sn1 2.131306 1_555
O44 S5 1.482318 1_555
O44 Sn1 2.173413 1_665
O45 S6 1.480364 1_555
O45 Sn2 2.170306 1_665
O46 S7 1.479784 1_555
O46 Sn2 2.139417 1_655
O47 Si3 1.631635 1_555
O47 Sn2 1.938463 1_555
O48 S3 1.481927 1_545
O48 Sn3 2.148507 1_555
O49 Si1 1.637481 1_555
O49 Sn3 1.929783 1_555
O50 S2 1.483133 1_555
O50 Sn3 2.132976 1_555
O51 S1 1.478124 1_555
O52 Si0 1.622712 1_655
O53 S0 1.479780 1_545
O54 S8 1.484918 1_555
O55 S9 1.465507 1_655
O56 Si4 1.629800 1_545
O57 Si5 1.636828 1_545
O57 Sn4 1.948188 1_555
O58 S10 1.484216 1_555
O58 Sn4 2.128261 1_555
O59 S11 1.484601 1_655
O59 Sn4 2.136880 1_555
O60 Si3 1.620558 1_555
O61 S6 1.486160 1_455
O62 S7 1.477779 1_565
O63 S4 1.478759 1_565
O64 S5 1.485255 1_555
O65 Si2 1.624005 1_455
O66 S0 1.478494 1_555
O66 Sn5 2.142933 1_555
O67 S1 1.476640 1_555
O67 Sn5 2.171208 1_555
O68 Si0 1.641370 1_555
O68 Sn5 1.924350 1_555
O69 Si1 1.615991 1_555
O70 S2 1.477632 1_455
O71 S3 1.479102 1_555
