# generated using pymatgen
data_ZrNiP
_symmetry_space_group_name_H-M   'P 1'
_cell_length_a   4.53598368
_cell_length_b   4.53598368
_cell_length_c   5.21141400
_cell_angle_alpha   90.00000000
_cell_angle_beta   90.00000000
_cell_angle_gamma   119.99999526
_symmetry_Int_Tables_number   1
_chemical_formula_structural   ZrNiP
_chemical_formula_sum   'Zr2 Ni2 P2'
_cell_volume   92.86010994
_cell_formula_units_Z   2
loop_
 _symmetry_equiv_pos_site_id
 _symmetry_equiv_pos_as_xyz
  1  'x, y, z'
loop_
 _atom_site_type_symbol
 _atom_site_label
 _atom_site_symmetry_multiplicity
 _atom_site_fract_x
 _atom_site_fract_y
 _atom_site_fract_z
 _atom_site_occupancy
  Zr  Zr0  1  0.33333300  0.66666700  0.25000000  1
  Zr  Zr1  1  0.66666700  0.33333300  0.75000000  1
  Ni  Ni0  1  0.00000000  0.00000000  0.50000000  1
  Ni  Ni1  1  0.00000000  0.00000000  0.00000000  1
  P  P0  1  0.66666700  0.33333300  0.25000000  1
  P  P1  1  0.33333300  0.66666700  0.75000000  1
loop_
_geom_bond_atom_site_label_1
_geom_bond_atom_site_label_2
_geom_bond_distance
_geom_bond_site_symmetry_2
Ni0 Ni1 2.605707 1_556
Ni0 Ni1 2.605707 1_555
Ni0 Zr1 2.925029 1_455
Ni0 P1 2.925029 1_545
Ni0 Zr0 2.925029 1_545
Ni0 P0 2.925029 1_455
Ni0 Zr1 2.925033 1_555
Ni0 P0 2.925033 1_555
Ni0 P0 2.925033 1_445
Ni0 Zr1 2.925033 1_445
Ni0 P1 2.925033 1_555
Ni0 Zr0 2.925033 1_445
Ni0 P1 2.925033 1_445
Ni0 Zr0 2.925033 1_555
Ni1 P1 2.925029 1_544
Ni1 Zr1 2.925029 1_454
Ni1 Zr0 2.925029 1_545
Ni1 P0 2.925029 1_455
Ni1 P0 2.925033 1_555
Ni1 P0 2.925033 1_445
Ni1 Zr1 2.925033 1_554
Ni1 P1 2.925033 1_444
Ni1 Zr0 2.925033 1_445
Ni1 Zr0 2.925033 1_555
Ni1 Zr1 2.925033 1_444
Ni1 P1 2.925033 1_554
P0 Zr1 2.605707 1_555
P0 Zr1 2.605707 1_554
P0 Zr0 2.618849 1_545
P0 Zr0 2.618849 1_655
P0 Zr0 2.618857 1_555
P1 Zr0 2.605707 1_555
P1 Zr0 2.605707 1_556
P1 Zr1 2.618849 1_455
P1 Zr1 2.618849 1_565
P1 Zr1 2.618857 1_555
