# generated using pymatgen
data_K2Na2La2MgNb2O10
_symmetry_space_group_name_H-M   'P 1'
_cell_length_a   5.98903395
_cell_length_b   5.84626575
_cell_length_c   8.82650705
_cell_angle_alpha   90.00000000
_cell_angle_beta   82.99762779
_cell_angle_gamma   90.00000000
_symmetry_Int_Tables_number   1
_chemical_formula_structural   K2Na2La2MgNb2O10
_chemical_formula_sum   'K2 Na2 La2 Mg1 Nb2 O10'
_cell_volume   306.74161631
_cell_formula_units_Z   1
loop_
 _symmetry_equiv_pos_site_id
 _symmetry_equiv_pos_as_xyz
  1  'x, y, z'
loop_
 _atom_site_type_symbol
 _atom_site_label
 _atom_site_symmetry_multiplicity
 _atom_site_fract_x
 _atom_site_fract_y
 _atom_site_fract_z
 _atom_site_occupancy
  K  K0  1  0.24008602  0.75000000  0.01209964  1
  K  K1  1  0.85368890  0.25000000  0.08602861  1
  Na  Na0  1  0.76188819  0.75000000  0.23654988  1
  Na  Na1  1  0.14837250  0.25000000  0.71666543  1
  La  La0  1  0.76541656  0.25000000  0.48125433  1
  La  La1  1  0.22457549  0.75000000  0.48322687  1
  Mg  Mg0  1  0.51903622  0.25000000  0.84901032  1
  Nb  Nb0  1  0.71611108  0.75000000  0.74770628  1
  Nb  Nb1  1  0.29632470  0.25000000  0.26772742  1
  O  O0  1  0.75083775  0.75000000  0.95560650  1
  O  O1  1  0.30706270  0.25000000  0.03974498  1
  O  O2  1  0.47693791  0.98528095  0.71023723  1
  O  O3  1  0.93282955  0.52850326  0.63646948  1
  O  O4  1  0.50270302  0.01988134  0.33817552  1
  O  O5  1  0.93282955  0.97149674  0.63646948  1
  O  O6  1  0.47693791  0.51471905  0.71023723  1
  O  O7  1  0.50270302  0.48011866  0.33817552  1
  O  O8  1  0.04582947  0.48985831  0.30308864  1
  O  O9  1  0.04582947  0.01014169  0.30308864  1
loop_
_geom_bond_atom_site_label_1
_geom_bond_atom_site_label_2
_geom_bond_distance
_geom_bond_site_symmetry_2
K0 O1 2.964627 1_565
K0 O1 2.964627 1_555
K0 O0 3.031585 1_454
K0 O0 3.038695 1_554
K0 O8 3.087835 1_555
K0 O9 3.087835 1_565
K0 O2 3.175167 1_554
K0 O6 3.175167 1_554
K1 O1 2.696132 1_655
K1 O8 2.738379 1_655
K1 O9 2.738379 1_655
K1 O0 3.228347 1_554
K1 O0 3.228347 1_544
Na0 O7 2.316053 1_555
Na0 O4 2.316053 1_565
Na0 O8 2.406920 1_655
Na0 O9 2.406920 1_665
Na0 O0 2.488684 1_554
Na1 O5 2.245284 1_445
Na1 O3 2.245284 1_455
Na1 O6 2.498662 1_555
Na1 O2 2.498662 1_545
La0 O3 2.422433 1_555
La0 O5 2.422433 1_545
La0 O4 2.522870 1_555
La0 O7 2.522870 1_555
La0 O8 2.572129 1_655
La0 O9 2.572129 1_655
La0 O6 2.934897 1_555
La0 O2 2.934897 1_545
La1 O5 2.446037 1_455
La1 O3 2.446037 1_455
La1 O7 2.526507 1_555
La1 O4 2.526507 1_565
La1 O8 2.530236 1_555
La1 O9 2.530236 1_565
La1 O2 2.988249 1_555
La1 O6 2.988249 1_555
Mg0 O1 1.981113 1_556
Mg0 O6 2.008563 1_555
Mg0 O2 2.008563 1_545
Nb0 O0 1.871805 1_555
Nb0 O3 2.003685 1_555
Nb0 O5 2.003685 1_555
Nb0 O6 2.041749 1_555
Nb0 O2 2.041749 1_555
Nb1 O4 1.977796 1_555
Nb1 O7 1.977796 1_555
Nb1 O1 2.005465 1_555
Nb1 O9 2.049463 1_555
Nb1 O8 2.049463 1_555
