# generated using pymatgen
data_MgTi2(SiO4)2
_symmetry_space_group_name_H-M   'P 1'
_cell_length_a   5.21525616
_cell_length_b   5.21525616
_cell_length_c   7.02620500
_cell_angle_alpha   90.00000000
_cell_angle_beta   90.00000000
_cell_angle_gamma   115.90838002
_symmetry_Int_Tables_number   1
_chemical_formula_structural   MgTi2(SiO4)2
_chemical_formula_sum   'Mg1 Ti2 Si2 O8'
_cell_volume   171.89780109
_cell_formula_units_Z   1
loop_
 _symmetry_equiv_pos_site_id
 _symmetry_equiv_pos_as_xyz
  1  'x, y, z'
loop_
 _atom_site_type_symbol
 _atom_site_label
 _atom_site_symmetry_multiplicity
 _atom_site_fract_x
 _atom_site_fract_y
 _atom_site_fract_z
 _atom_site_occupancy
  Mg  Mg0  1  0.10295400  0.89704600  0.25000000  1
  Ti  Ti0  1  0.97033600  0.02966400  0.56927900  1
  Ti  Ti1  1  0.97033600  0.02966400  0.93072100  1
  Si  Si0  1  0.65154200  0.34845800  0.75000000  1
  Si  Si1  1  0.36626600  0.63373400  0.25000000  1
  O  O0  1  0.76300300  0.23699700  0.56458500  1
  O  O1  1  0.25133700  0.74866300  0.44102100  1
  O  O2  1  0.76300300  0.23699700  0.93541500  1
  O  O3  1  0.25133700  0.74866300  0.05897900  1
  O  O4  1  0.78146000  0.70521900  0.75000000  1
  O  O5  1  0.71402500  0.78315500  0.25000000  1
  O  O6  1  0.21684500  0.28597500  0.25000000  1
  O  O7  1  0.29478100  0.21854000  0.75000000  1
loop_
_geom_bond_atom_site_label_1
_geom_bond_atom_site_label_2
_geom_bond_distance
_geom_bond_site_symmetry_2
Mg0 O5 1.847766 1_455
Mg0 O6 1.847766 1_565
Mg0 O3 1.876804 1_555
Mg0 O1 1.876804 1_555
O0 Si0 1.633491 1_555
O0 Ti0 1.833360 1_555
O1 Si1 1.683402 1_555
O2 Si0 1.633491 1_555
O2 Ti1 1.833360 1_555
O3 Si1 1.683402 1_555
O4 Si0 1.679067 1_555
O4 Ti1 1.997301 1_565
O4 Ti0 1.997301 1_565
O5 Si1 1.631422 1_555
O6 Si1 1.631422 1_555
O7 Si0 1.679067 1_555
O7 Ti1 1.997301 1_455
O7 Ti0 1.997301 1_455
