# generated using pymatgen
data_Hf3(NbGe2)2
_symmetry_space_group_name_H-M   'P 1'
_cell_length_a   6.90153000
_cell_length_b   7.01497700
_cell_length_c   13.33442800
_cell_angle_alpha   90.00000000
_cell_angle_beta   90.00000000
_cell_angle_gamma   90.00000000
_symmetry_Int_Tables_number   1
_chemical_formula_structural   Hf3(NbGe2)2
_chemical_formula_sum   'Hf12 Nb8 Ge16'
_cell_volume   645.57398680
_cell_formula_units_Z   4
loop_
 _symmetry_equiv_pos_site_id
 _symmetry_equiv_pos_as_xyz
  1  'x, y, z'
loop_
 _atom_site_type_symbol
 _atom_site_label
 _atom_site_symmetry_multiplicity
 _atom_site_fract_x
 _atom_site_fract_y
 _atom_site_fract_z
 _atom_site_occupancy
  Hf  Hf0  1  0.98720400  0.82636900  0.59274200  1
  Hf  Hf1  1  0.16981200  0.50592100  0.25000000  1
  Hf  Hf2  1  0.48720400  0.67363100  0.90725800  1
  Hf  Hf3  1  0.51279600  0.32636900  0.09274200  1
  Hf  Hf4  1  0.66981200  0.99407900  0.25000000  1
  Hf  Hf5  1  0.83018800  0.49407900  0.75000000  1
  Hf  Hf6  1  0.33018800  0.00592100  0.75000000  1
  Hf  Hf7  1  0.48720400  0.67363100  0.59274200  1
  Hf  Hf8  1  0.98720400  0.82636900  0.90725800  1
  Hf  Hf9  1  0.51279600  0.32636900  0.40725800  1
  Hf  Hf10  1  0.01279600  0.17363100  0.09274200  1
  Hf  Hf11  1  0.01279600  0.17363100  0.40725800  1
  Nb  Nb0  1  0.65722700  0.17118300  0.62289200  1
  Nb  Nb1  1  0.15722700  0.32881700  0.62289200  1
  Nb  Nb2  1  0.34277300  0.82881700  0.12289200  1
  Nb  Nb3  1  0.84277300  0.67118300  0.12289200  1
  Nb  Nb4  1  0.65722700  0.17118300  0.87710800  1
  Nb  Nb5  1  0.15722700  0.32881700  0.87710800  1
  Nb  Nb6  1  0.34277300  0.82881700  0.37710800  1
  Nb  Nb7  1  0.84277300  0.67118300  0.37710800  1
  Ge  Ge0  1  0.95400600  0.11522400  0.75000000  1
  Ge  Ge1  1  0.81628100  0.46445700  0.96171100  1
  Ge  Ge2  1  0.80921900  0.35456100  0.25000000  1
  Ge  Ge3  1  0.69078100  0.85456100  0.75000000  1
  Ge  Ge4  1  0.54599400  0.61522400  0.25000000  1
  Ge  Ge5  1  0.68371900  0.96445700  0.46171100  1
  Ge  Ge6  1  0.31628100  0.03554300  0.96171100  1
  Ge  Ge7  1  0.81628100  0.46445700  0.53828900  1
  Ge  Ge8  1  0.04599400  0.88477600  0.25000000  1
  Ge  Ge9  1  0.18371900  0.53554300  0.03828900  1
  Ge  Ge10  1  0.31628100  0.03554300  0.53828900  1
  Ge  Ge11  1  0.19078100  0.64543900  0.75000000  1
  Ge  Ge12  1  0.68371900  0.96445700  0.03828900  1
  Ge  Ge13  1  0.30921900  0.14543900  0.25000000  1
  Ge  Ge14  1  0.45400600  0.38477600  0.75000000  1
  Ge  Ge15  1  0.18371900  0.53554300  0.46171100  1
loop_
_geom_bond_atom_site_label_1
_geom_bond_atom_site_label_2
_geom_bond_distance
_geom_bond_site_symmetry_2
Ge0 Ge3 2.577559 1_545
Ge0 Nb5 2.661745 1_655
Ge0 Nb1 2.661745 1_655
Ge0 Nb4 2.687390 1_555
Ge0 Nb0 2.687390 1_555
Ge0 Hf6 2.707090 1_655
Ge0 Hf5 2.791663 1_555
Ge0 Hf8 2.924998 1_545
Ge0 Hf0 2.924998 1_545
Ge1 Nb4 2.590403 1_555
Ge1 Nb3 2.599182 1_556
Ge1 Nb5 2.777570 1_655
Ge1 Ge9 2.778862 1_656
Ge1 Hf2 2.799713 1_555
Ge1 Hf5 2.832309 1_555
Ge1 Hf8 2.892106 1_555
Ge1 Hf3 2.894497 1_556
Ge1 Hf10 3.009049 1_656
Ge2 Ge4 2.577559 1_555
Ge2 Hf4 2.705618 1_545
Ge2 Hf1 2.705686 1_655
Ge2 Nb3 2.803502 1_555
Ge2 Nb7 2.803502 1_555
Ge2 Hf11 2.825262 1_655
Ge2 Hf10 2.825262 1_655
Ge2 Hf9 2.936235 1_555
Ge2 Hf3 2.936235 1_555
Ge3 Hf5 2.705618 1_555
Ge3 Hf6 2.705686 1_565
Ge3 Nb4 2.803502 1_565
Ge3 Nb0 2.803502 1_565
Ge3 Hf2 2.825262 1_555
Ge3 Hf7 2.825262 1_555
Ge3 Hf0 2.936235 1_555
Ge3 Hf8 2.936235 1_555
Ge4 Nb2 2.661745 1_555
Ge4 Nb6 2.661745 1_555
Ge4 Nb3 2.687390 1_555
Ge4 Nb7 2.687390 1_555
Ge4 Hf1 2.707090 1_555
Ge4 Hf4 2.791663 1_555
Ge4 Hf9 2.924998 1_555
Ge4 Hf3 2.924998 1_555
Ge5 Nb7 2.590403 1_555
Ge5 Nb0 2.599182 1_565
Ge5 Nb6 2.777570 1_555
Ge5 Hf11 2.799713 1_665
Ge5 Hf4 2.832309 1_555
Ge5 Hf9 2.892106 1_565
Ge5 Hf0 2.894497 1_555
Ge5 Hf7 3.009049 1_555
Ge6 Nb5 2.590403 1_555
Ge6 Nb2 2.599182 1_546
Ge6 Nb4 2.777570 1_555
Ge6 Hf8 2.799713 1_445
Ge6 Hf6 2.832309 1_555
Ge6 Hf2 2.892106 1_545
Ge6 Hf10 2.894497 1_556
Ge6 Hf3 3.009049 1_556
Ge7 Nb0 2.590403 1_555
Ge7 Nb7 2.599182 1_555
Ge7 Nb1 2.777570 1_655
Ge7 Hf7 2.799713 1_555
Ge7 Hf5 2.832309 1_555
Ge7 Hf0 2.892106 1_555
Ge7 Hf9 2.894497 1_555
Ge7 Hf11 3.009049 1_655
Ge8 Nb7 2.661745 1_455
Ge8 Nb3 2.661745 1_455
Ge8 Nb2 2.687390 1_555
Ge8 Nb6 2.687390 1_555
Ge8 Hf4 2.707090 1_455
Ge8 Hf1 2.791663 1_555
Ge8 Hf10 2.924998 1_565
Ge8 Hf11 2.924998 1_565
Ge9 Nb2 2.590403 1_555
Ge9 Nb5 2.599182 1_554
Ge9 Nb3 2.777570 1_455
Ge9 Hf3 2.799713 1_555
Ge9 Hf1 2.832309 1_555
Ge9 Hf10 2.892106 1_555
Ge9 Hf2 2.894497 1_554
Ge9 Hf8 3.009049 1_454
Ge10 Nb1 2.590403 1_555
Ge10 Nb6 2.599182 1_545
Ge10 Nb0 2.777570 1_555
Ge10 Ge5 2.778862 1_545
Ge10 Hf0 2.799713 1_445
Ge10 Hf6 2.832309 1_555
Ge10 Hf7 2.892106 1_545
Ge10 Hf11 2.894497 1_555
Ge10 Hf9 3.009049 1_555
Ge11 Ge14 2.577559 1_555
Ge11 Hf6 2.705618 1_565
Ge11 Hf5 2.705686 1_455
Ge11 Nb1 2.803502 1_555
Ge11 Nb5 2.803502 1_555
Ge11 Hf8 2.825262 1_455
Ge11 Hf0 2.825262 1_455
Ge11 Hf2 2.936235 1_555
Ge11 Hf7 2.936235 1_555
Ge12 Nb3 2.590403 1_555
Ge12 Nb4 2.599182 1_564
Ge12 Nb2 2.777570 1_555
Ge12 Ge6 2.778862 1_564
Ge12 Hf10 2.799713 1_665
Ge12 Hf4 2.832309 1_555
Ge12 Hf3 2.892106 1_565
Ge12 Hf8 2.894497 1_554
Ge12 Hf2 3.009049 1_554
Ge13 Ge8 2.577559 1_545
Ge13 Hf1 2.705618 1_555
Ge13 Hf4 2.705686 1_545
Ge13 Nb2 2.803502 1_545
Ge13 Nb6 2.803502 1_545
Ge13 Hf3 2.825262 1_555
Ge13 Hf9 2.825262 1_555
Ge13 Hf11 2.936235 1_555
Ge13 Hf10 2.936235 1_555
Ge14 Nb0 2.661745 1_555
Ge14 Nb4 2.661745 1_555
Ge14 Nb1 2.687390 1_555
Ge14 Nb5 2.687390 1_555
Ge14 Hf5 2.707090 1_555
Ge14 Hf6 2.791663 1_555
Ge14 Hf2 2.924998 1_555
Ge14 Hf7 2.924998 1_555
Ge15 Nb6 2.590403 1_555
Ge15 Nb1 2.599182 1_555
Ge15 Nb7 2.777570 1_455
Ge15 Ge7 2.778862 1_455
Ge15 Hf9 2.799713 1_555
Ge15 Hf1 2.832309 1_555
Ge15 Hf11 2.892106 1_555
Ge15 Hf7 2.894497 1_555
Ge15 Hf0 3.009049 1_455
