# generated using pymatgen
data_Ba3MgWO6
_symmetry_space_group_name_H-M   'P 1'
_cell_length_a   7.63445531
_cell_length_b   7.65434027
_cell_length_c   7.65433883
_cell_angle_alpha   46.55444724
_cell_angle_beta   46.60388221
_cell_angle_gamma   46.60393571
_symmetry_Int_Tables_number   1
_chemical_formula_structural   Ba3MgWO6
_chemical_formula_sum   'Ba3 Mg1 W1 O6'
_cell_volume   215.56595950
_cell_formula_units_Z   1
loop_
 _symmetry_equiv_pos_site_id
 _symmetry_equiv_pos_as_xyz
  1  'x, y, z'
loop_
 _atom_site_type_symbol
 _atom_site_label
 _atom_site_symmetry_multiplicity
 _atom_site_fract_x
 _atom_site_fract_y
 _atom_site_fract_z
 _atom_site_occupancy
  Ba  Ba0  1  0.29620086  0.29978056  0.29977977  1
  Ba  Ba1  1  0.50480777  0.50837399  0.50837422  1
  Ba  Ba2  1  0.71086977  0.71191688  0.71191649  1
  Mg  Mg0  1  0.12359534  0.12365319  0.12365329  1
  W  W0  1  0.98893432  0.99005566  0.99005438  1
  O  O0  1  0.25859138  0.78638472  0.78638415  1
  O  O1  1  0.20580857  0.75980079  0.20487490  1
  O  O2  1  0.78556672  0.26040447  0.78539293  1
  O  O3  1  0.20580921  0.20487423  0.75980086  1
  O  O4  1  0.75925177  0.20477785  0.20477899  1
  O  O5  1  0.78556728  0.78539267  0.26040302  1
loop_
_geom_bond_atom_site_label_1
_geom_bond_atom_site_label_2
_geom_bond_distance
_geom_bond_site_symmetry_2
Ba0 O4 2.686533 1_555
Ba0 O1 2.689691 1_555
Ba0 O3 2.689693 1_555
Ba0 O2 3.044247 1_455
Ba0 O5 3.044247 1_455
Ba0 O0 3.057535 1_554
Ba0 O0 3.057536 1_545
Ba0 O2 3.069762 1_554
Ba0 O5 3.069771 1_545
Ba0 Mg0 3.571151 1_555
Ba1 O5 2.795121 1_555
Ba1 O2 2.795124 1_555
Ba1 O0 2.797366 1_555
Ba1 O3 3.067983 1_555
Ba1 O1 3.067985 1_555
Ba1 O4 3.097626 1_555
Ba2 O0 2.758689 1_555
Ba2 O2 2.764956 1_555
Ba2 O5 2.764963 1_555
Ba2 O3 3.034467 1_565
Ba2 O1 3.034469 1_556
Ba2 O4 3.039853 1_565
Ba2 O4 3.039862 1_556
Ba2 O1 3.044763 1_655
Ba2 O3 3.044772 1_655
Mg0 O3 2.071198 1_554
Mg0 O1 2.071199 1_545
Mg0 O4 2.071686 1_455
O0 W0 1.903029 1_455
O1 W0 2.072892 1_454
O2 W0 1.901506 1_545
O3 W0 2.072885 1_445
O4 W0 2.066982 1_544
O5 W0 1.901509 1_554
