# generated using pymatgen
data_Na4In2Si3Ge2(SO8)3
_symmetry_space_group_name_H-M   'P 1'
_cell_length_a   8.91567707
_cell_length_b   8.95561647
_cell_length_c   22.59758608
_cell_angle_alpha   90.47309334
_cell_angle_beta   87.67823027
_cell_angle_gamma   119.71467492
_symmetry_Int_Tables_number   1
_chemical_formula_structural   Na4In2Si3Ge2(SO8)3
_chemical_formula_sum   'Na12 In6 Si9 Ge6 S9 O72'
_cell_volume   1565.62229041
_cell_formula_units_Z   3
loop_
 _symmetry_equiv_pos_site_id
 _symmetry_equiv_pos_as_xyz
  1  'x, y, z'
loop_
 _atom_site_type_symbol
 _atom_site_label
 _atom_site_symmetry_multiplicity
 _atom_site_fract_x
 _atom_site_fract_y
 _atom_site_fract_z
 _atom_site_occupancy
  Na  Na0  1  0.98192845  0.62997277  0.25517265  1
  Na  Na1  1  0.99633090  0.36653374  0.74336558  1
  Na  Na2  1  0.65902135  0.97434591  0.59126048  1
  Na  Na3  1  0.66484580  0.70215930  0.08058020  1
  Na  Na4  1  0.33560398  0.30266844  0.90563073  1
  Na  Na5  1  0.31738564  0.02562217  0.42016818  1
  Na  Na6  1  0.00307832  0.98828133  0.50411408  1
  Na  Na7  1  0.99006881  0.98737370  0.99802626  1
  Na  Na8  1  0.65298755  0.31364147  0.82477542  1
  Na  Na9  1  0.64664546  0.33353229  0.33344595  1
  Na  Na10  1  0.32206635  0.67258746  0.16957517  1
  Na  Na11  1  0.30745135  0.66939187  0.66029092  1
  In  In0  1  0.99737763  0.98771601  0.35146308  1
  In  In1  1  0.99434801  0.98590923  0.84834667  1
  In  In2  1  0.66042884  0.32890910  0.68569105  1
  In  In3  1  0.66234893  0.33334426  0.18765273  1
  In  In4  1  0.33071021  0.67793381  0.01534146  1
  In  In5  1  0.31525998  0.66166261  0.51880638  1
  Si  Si0  1  0.29698205  0.99074375  0.25536731  1
  Si  Si1  1  0.68559122  0.70229061  0.25309118  1
  Si  Si2  1  0.29833530  0.29895356  0.75563498  1
  Si  Si3  1  0.72250312  0.00126995  0.74800348  1
  Si  Si4  1  0.96751183  0.33425938  0.58824051  1
  Si  Si5  1  0.37410937  0.05397778  0.58218438  1
  Si  Si6  1  0.96481162  0.63634286  0.08780669  1
  Si  Si7  1  0.63484908  0.66279623  0.92105845  1
  Si  Si8  1  0.02377986  0.64923054  0.41743315  1
  Ge  Ge0  1  0.03285606  0.05829529  0.64812918  1
  Ge  Ge1  1  0.99114965  0.95302663  0.16234657  1
  Ge  Ge2  1  0.68994205  0.37233896  0.98515162  1
  Ge  Ge3  1  0.69399077  0.34293633  0.49451236  1
  Ge  Ge4  1  0.32746141  0.67508405  0.31570536  1
  Ge  Ge5  1  0.39998153  0.66887536  0.80608227  1
  S  S0  1  0.00965969  0.28355078  0.24674260  1
  S  S1  1  0.01522200  0.70966366  0.74961344  1
  S  S2  1  0.67549670  0.63090549  0.57991123  1
  S  S3  1  0.67764974  0.05770368  0.07723386  1
  S  S4  1  0.36516624  0.31969963  0.08113225  1
  S  S5  1  0.02387667  0.37242858  0.92010497  1
  S  S6  1  0.34513969  0.96893143  0.91430086  1
  S  S7  1  0.61820822  0.96058702  0.41462433  1
  S  S8  1  0.33286193  0.38127739  0.41168855  1
  O  O0  1  0.23360512  0.03557496  0.31695105  1
  O  O1  1  0.82540020  0.79650612  0.30167721  1
  O  O2  1  0.99185802  0.19544259  0.30303537  1
  O  O3  1  0.21889600  0.19593313  0.81737446  1
  O  O4  1  0.99320758  0.77341212  0.80851079  1
  O  O5  1  0.82112415  0.02515853  0.80767310  1
  O  O6  1  0.81962116  0.97354720  0.68697504  1
  O  O7  1  0.16739736  0.21470437  0.69988944  1
  O  O8  1  0.03301620  0.82136666  0.69937100  1
  O  O9  1  0.77134239  0.81757650  0.18783798  1
  O  O10  1  0.02398590  0.18481051  0.19269254  1
  O  O11  1  0.15410373  0.94387843  0.20045411  1
  O  O12  1  0.89311647  0.36843791  0.64909345  1
  O  O13  1  0.49578964  0.12943820  0.63659927  1
  O  O14  1  0.64674143  0.53209425  0.63387518  1
  O  O15  1  0.88169390  0.53033451  0.14816027  1
  O  O16  1  0.65586806  0.13186747  0.13237658  1
  O  O17  1  0.47667878  0.34610439  0.13084638  1
  O  O18  1  0.45245297  0.30218789  0.02294209  1
  O  O19  1  0.82896621  0.54729177  0.03133781  1
  O  O20  1  0.68470149  0.16280013  0.02305527  1
  O  O21  1  0.47289125  0.18134233  0.51887459  1
  O  O22  1  0.69318572  0.53806560  0.52491813  1
  O  O23  1  0.83249205  0.29412382  0.53316879  1
  O  O24  1  0.54335281  0.67533894  0.98256074  1
  O  O25  1  0.12706982  0.46171040  0.97194230  1
  O  O26  1  0.31899625  0.87721306  0.97163996  1
  O  O27  1  0.55172049  0.86051150  0.47026099  1
  O  O28  1  0.33237022  0.46529737  0.46751626  1
  O  O29  1  0.16319140  0.70567858  0.46713252  1
  O  O30  1  0.11465136  0.61898307  0.35329330  1
  O  O31  1  0.50519876  0.86542952  0.36320974  1
  O  O32  1  0.34539722  0.48855868  0.35804440  1
  O  O33  1  0.09700333  0.46619932  0.86429991  1
  O  O34  1  0.35623531  0.87256529  0.86240422  1
  O  O35  1  0.49819961  0.62107067  0.86471396  1
  O  O36  1  0.99711613  0.81702791  0.41462283  1
  O  O37  1  0.79733814  0.99863102  0.40584653  1
  O  O38  1  0.17009581  0.20990851  0.41267851  1
  O  O39  1  0.00400502  0.19840102  0.92069124  1
  O  O40  1  0.19319728  0.99809088  0.91337032  1
  O  O41  1  0.82487864  0.82384505  0.91448646  1
  O  O42  1  0.96422521  0.14609333  0.58922658  1
  O  O43  1  0.17901784  0.03579169  0.59412679  1
  O  O44  1  0.83508291  0.79884502  0.57896235  1
  O  O45  1  0.97100000  0.83044732  0.09377235  1
  O  O46  1  0.83584689  0.04420777  0.07534485  1
  O  O47  1  0.19615756  0.16296162  0.08649042  1
  O  O48  1  0.68863841  0.16124314  0.74565110  1
  O  O49  1  0.49561529  0.34801228  0.74786843  1
  O  O50  1  0.85992060  0.53503940  0.74658106  1
  O  O51  1  0.66859109  0.51363919  0.24812525  1
  O  O52  1  0.85783828  0.30907558  0.24350408  1
  O  O53  1  0.48972585  0.13768601  0.24017597  1
  O  O54  1  0.63698258  0.47514500  0.92556345  1
  O  O55  1  0.84509784  0.35867236  0.92772664  1
  O  O56  1  0.50446050  0.14126234  0.91594018  1
  O  O57  1  0.61414469  0.12457912  0.41738858  1
  O  O58  1  0.48302456  0.35448682  0.40739571  1
  O  O59  1  0.83279582  0.46448054  0.43044612  1
  O  O60  1  0.34870352  0.47713226  0.07808737  1
  O  O61  1  0.15672348  0.66519099  0.07827761  1
  O  O62  1  0.52550798  0.87891740  0.07545131  1
  O  O63  1  0.35876085  0.86685199  0.57366438  1
  O  O64  1  0.52620190  0.65909999  0.57308214  1
  O  O65  1  0.16557187  0.48182553  0.58101660  1
  O  O66  1  0.28617076  0.79964928  0.25957286  1
  O  O67  1  0.49544442  0.68954697  0.26267178  1
  O  O68  1  0.16827149  0.45545807  0.24439385  1
  O  O69  1  0.29367024  0.48593054  0.76146544  1
  O  O70  1  0.17262257  0.68958930  0.75039293  1
  O  O71  1  0.53100821  0.81592456  0.75142317  1
loop_
_geom_bond_atom_site_label_1
_geom_bond_atom_site_label_2
_geom_bond_distance
_geom_bond_site_symmetry_2
Na0 O66 2.368515 1_655
Na0 O51 2.462321 1_555
Na0 O52 2.532108 1_555
Na0 O30 2.580298 1_655
Na0 O15 2.606066 1_555
Na0 O1 2.682332 1_555
Na0 O11 2.722831 1_655
Na0 O68 2.792337 1_655
Na1 O12 2.358045 1_555
Na1 O50 2.360549 1_555
Na1 O69 2.368297 1_655
Na1 O48 2.428682 1_555
Na1 O70 2.524003 1_655
Na1 O7 2.655685 1_655
Na1 O33 2.904284 1_655
Na2 O42 2.369411 1_565
Na2 O63 2.403414 1_555
Na2 O64 2.499509 1_555
Na2 O13 2.637504 1_565
Na2 O6 2.643825 1_555
Na2 O44 2.723011 1_555
Na2 O23 2.797018 1_565
Na2 O27 2.937673 1_555
Na3 O45 2.410552 1_555
Na3 O62 2.454947 1_555
Na3 O24 2.462706 1_554
Na3 O60 2.527622 1_555
Na3 O9 2.648908 1_555
Na3 O46 2.661467 1_565
Na3 O19 2.675329 1_555
Na3 O17 2.979032 1_555
Na4 O3 2.263754 1_555
Na4 O40 2.374750 1_545
Na4 O54 2.404313 1_555
Na4 O56 2.569335 1_555
Na4 O39 2.629670 1_555
Na4 O35 2.631421 1_555
Na4 O18 2.888129 1_556
Na5 O57 2.335074 1_555
Na5 O0 2.493362 1_555
Na5 O36 2.529013 1_445
Na5 O58 2.570211 1_555
Na5 O38 2.578392 1_555
Na5 O21 2.669212 1_555
Na5 O29 2.693162 1_545
Na6 O44 2.303346 1_455
Na6 O42 2.490606 1_465
Na6 O36 2.514222 1_455
Na6 O43 2.522224 1_565
Na6 O38 2.704537 1_565
Na6 O37 2.967555 1_455
Na7 O46 2.384721 1_566
Na7 O41 2.432896 1_555
Na7 O39 2.538758 1_665
Na7 O45 2.543387 1_556
Na7 O40 2.549252 1_655
Na7 O47 2.688212 1_666
Na8 O48 2.346166 1_555
Na8 O49 2.391292 1_555
Na8 O56 2.487096 1_555
Na8 O50 2.573847 1_555
Na8 O54 2.724612 1_555
Na8 O55 2.851535 1_555
Na9 O58 2.241543 1_555
Na9 O51 2.462766 1_555
Na9 O57 2.580795 1_555
Na9 O53 2.687214 1_555
Na9 O59 2.693932 1_555
Na9 O52 2.795664 1_555
Na10 O68 2.396467 1_555
Na10 O66 2.409027 1_555
Na10 O61 2.565393 1_555
Na10 O67 2.619880 1_555
Na10 O62 2.767316 1_555
Na10 O60 2.776168 1_555
Na11 O70 2.373722 1_555
Na11 O65 2.378721 1_555
Na11 O63 2.520133 1_555
Na11 O64 2.749489 1_555
Na11 O71 2.762377 1_555
Na11 O69 2.789424 1_555
In0 O1 2.013466 1_555
In0 O0 2.050668 1_665
In0 O36 2.099040 1_555
In0 O37 2.166547 1_555
In0 O2 2.188504 1_565
In0 O38 2.309514 1_665
In1 O5 2.003013 1_565
In1 O3 2.052024 1_665
In1 O41 2.074154 1_555
In1 O4 2.094109 1_555
In1 O40 2.308840 1_655
In1 O39 2.469618 1_665
In2 O13 2.018951 1_555
In2 O49 2.059280 1_555
In2 O12 2.061763 1_555
In2 O48 2.142291 1_555
In2 O14 2.227993 1_555
In2 O50 2.316437 1_555
In3 O53 2.015093 1_555
In3 O15 2.048782 1_555
In3 O51 2.087643 1_555
In3 O16 2.164383 1_555
In3 O17 2.182500 1_555
In3 O52 2.288277 1_555
In4 O24 2.018201 1_554
In4 O61 2.022469 1_555
In4 O26 2.096053 1_554
In4 O25 2.153001 1_554
In4 O62 2.269995 1_555
In4 O60 2.369940 1_555
In5 O29 2.005691 1_555
In5 O65 2.026273 1_555
In5 O63 2.087759 1_555
In5 O28 2.162677 1_555
In5 O27 2.223115 1_555
In5 O64 2.296078 1_555
Ge0 O7 1.786041 1_555
Ge0 O42 1.823350 1_455
Ge0 O43 1.831777 1_555
Ge0 O6 1.845606 1_445
Ge0 O8 2.426264 1_545
Ge1 O11 1.754869 1_655
Ge1 O9 1.790869 1_555
Ge1 O45 1.854085 1_555
Ge1 O10 2.062784 1_665
Ge2 O19 1.798076 1_556
Ge2 O54 1.840317 1_555
Ge2 O55 1.905851 1_555
Ge2 O18 2.037365 1_556
Ge2 O20 2.047839 1_556
Ge3 O23 1.762903 1_555
Ge3 O59 1.832412 1_555
Ge3 O21 1.838573 1_555
Ge3 O22 1.875667 1_555
Ge3 O57 2.456095 1_555
Ge4 O67 1.833274 1_555
Ge4 O66 1.859385 1_555
Ge4 O30 1.872235 1_555
Ge4 O31 1.999751 1_555
Ge4 O32 2.008723 1_555
Ge4 O68 2.417716 1_555
Ge5 O71 1.734762 1_555
Ge5 O69 1.763483 1_555
Ge5 O35 1.783420 1_555
Ge5 O34 2.392979 1_555
Ge5 O70 2.512048 1_555
O0 Si0 1.602845 1_545
O1 Si1 1.588725 1_555
O2 S0 1.463579 1_655
O3 Si2 1.610190 1_555
O4 S1 1.487692 1_655
O5 Si3 1.594320 1_555
O6 Si3 1.680474 1_565
O7 Si2 1.658082 1_555
O8 S1 1.470297 1_555
O9 Si1 1.725134 1_555
O10 S0 1.539994 1_555
O11 Si0 1.711186 1_555
O12 Si4 1.595318 1_555
O13 Si5 1.585308 1_555
O14 S2 1.450329 1_555
O15 Si6 1.597677 1_555
O16 S3 1.458147 1_555
O17 S4 1.469517 1_555
O18 S4 1.547258 1_555
O19 Si6 1.697674 1_555
O20 S3 1.530644 1_555
O21 Si5 1.747115 1_555
O22 S2 1.535430 1_555
O23 Si4 1.676933 1_555
O24 Si7 1.614319 1_555
O25 S5 1.483419 1_555
O26 S6 1.487019 1_555
O27 S7 1.472026 1_555
O28 S8 1.464551 1_555
O29 Si8 1.594556 1_555
O30 Si8 1.716535 1_555
O31 S7 1.522685 1_555
O32 S8 1.518840 1_555
O33 S5 1.458991 1_555
O34 S6 1.479333 1_555
O35 Si7 1.706344 1_555
O36 Si8 1.635754 1_655
O37 S7 1.463578 1_555
O38 S8 1.500595 1_555
O39 S5 1.478843 1_555
O40 S6 1.502288 1_555
O41 Si7 1.591661 1_555
O42 Si4 1.671130 1_555
O43 Si5 1.675299 1_555
O44 S2 1.470890 1_555
O45 Si6 1.715996 1_555
O46 S3 1.473021 1_555
O47 S4 1.465163 1_555
O48 Si3 1.605576 1_555
O49 Si2 1.589867 1_555
O50 S1 1.492249 1_655
O51 Si1 1.623061 1_555
O52 S0 1.484879 1_655
O53 Si0 1.587587 1_545
O54 Si7 1.693986 1_555
O55 S5 1.539125 1_655
O56 S6 1.493638 1_545
O57 S7 1.487682 1_545
O58 S8 1.472038 1_555
O59 Si8 1.702317 1_655
O60 S4 1.490532 1_555
O61 Si6 1.604231 1_455
O62 S3 1.501827 1_565
O63 Si5 1.622853 1_565
O64 S2 1.486532 1_555
O65 Si4 1.599390 1_455
O66 Si0 1.668986 1_555
O67 Si1 1.647046 1_555
O68 S0 1.486514 1_555
O69 Si2 1.699405 1_555
O70 S1 1.501379 1_555
O71 Si3 1.690579 1_565
