# generated using pymatgen
data_MgCr2(SbO4)2
_symmetry_space_group_name_H-M   'P 1'
_cell_length_a   6.75043514
_cell_length_b   6.47504468
_cell_length_c   6.47503908
_cell_angle_alpha   56.90963665
_cell_angle_beta   55.05196530
_cell_angle_gamma   55.05174484
_symmetry_Int_Tables_number   1
_chemical_formula_structural   MgCr2(SbO4)2
_chemical_formula_sum   'Mg1 Cr2 Sb2 O8'
_cell_volume   179.87913044
_cell_formula_units_Z   1
loop_
 _symmetry_equiv_pos_site_id
 _symmetry_equiv_pos_as_xyz
  1  'x, y, z'
loop_
 _atom_site_type_symbol
 _atom_site_label
 _atom_site_symmetry_multiplicity
 _atom_site_fract_x
 _atom_site_fract_y
 _atom_site_fract_z
 _atom_site_occupancy
  Mg  Mg0  1  0.00000000  0.00000000  0.00000000  1
  Cr  Cr0  1  0.50000000  0.00000000  0.50000000  1
  Cr  Cr1  1  0.50000000  0.50000000  0.00000000  1
  Sb  Sb0  1  0.00000000  0.50000000  0.50000000  1
  Sb  Sb1  1  0.50000000  0.50000000  0.50000000  1
  O  O0  1  0.28138600  0.26832800  0.26832900  1
  O  O1  1  0.22577300  0.25237700  0.72115000  1
  O  O2  1  0.22577300  0.72115100  0.25237500  1
  O  O3  1  0.70206500  0.24270900  0.24270700  1
  O  O4  1  0.29793500  0.75729100  0.75729300  1
  O  O5  1  0.77422700  0.74762300  0.27885000  1
  O  O6  1  0.77422700  0.27884900  0.74762500  1
  O  O7  1  0.71861400  0.73167200  0.73167100  1
loop_
_geom_bond_atom_site_label_1
_geom_bond_atom_site_label_2
_geom_bond_distance
_geom_bond_site_symmetry_2
Mg0 O4 2.106891 1_544
Mg0 O3 2.106891 1_455
Mg0 O2 2.175349 1_545
Mg0 O6 2.175349 1_454
Mg0 O5 2.175367 1_445
Mg0 O1 2.175367 1_554
Cr0 O4 2.024707 1_545
Cr0 O3 2.024707 1_555
Cr0 O7 2.049279 1_545
Cr0 O0 2.049279 1_555
Cr0 O1 2.049443 1_555
Cr0 O5 2.049443 1_545
Cr1 O3 2.024690 1_555
Cr1 O4 2.024690 1_554
Cr1 O7 2.049292 1_554
Cr1 O0 2.049292 1_555
Cr1 O2 2.049439 1_555
Cr1 O6 2.049439 1_554
O0 Sb0 2.009160 1_555
O1 Sb0 2.034145 1_555
O1 Sb1 2.429940 1_555
O2 Sb0 2.034157 1_555
O2 Sb1 2.429940 1_555
O3 Sb1 2.288057 1_555
O4 Sb1 2.288057 1_555
O5 Sb0 2.034145 1_655
O5 Sb1 2.429940 1_555
O6 Sb0 2.034157 1_655
O6 Sb1 2.429940 1_555
O7 Sb0 2.009160 1_655
