# generated using pymatgen
data_Ba2In2S5
_symmetry_space_group_name_H-M   'P 1'
_cell_length_a   11.92852595
_cell_length_b   12.84814138
_cell_length_c   13.32312910
_cell_angle_alpha   90.00000000
_cell_angle_beta   90.00000000
_cell_angle_gamma   90.00000000
_symmetry_Int_Tables_number   1
_chemical_formula_structural   Ba2In2S5
_chemical_formula_sum   'Ba16 In16 S40'
_cell_volume   2041.89461025
_cell_formula_units_Z   8
loop_
 _symmetry_equiv_pos_site_id
 _symmetry_equiv_pos_as_xyz
  1  'x, y, z'
loop_
 _atom_site_type_symbol
 _atom_site_label
 _atom_site_symmetry_multiplicity
 _atom_site_fract_x
 _atom_site_fract_y
 _atom_site_fract_z
 _atom_site_occupancy
  Ba  Ba0  1  0.75091796  0.25401409  0.69196564  1
  Ba  Ba1  1  0.25091796  0.74598591  0.80803436  1
  Ba  Ba2  1  0.74908204  0.75401409  0.30803436  1
  Ba  Ba3  1  0.24908204  0.24598591  0.19196564  1
  Ba  Ba4  1  0.24908204  0.74598591  0.30803436  1
  Ba  Ba5  1  0.74908204  0.25401409  0.19196564  1
  Ba  Ba6  1  0.25091796  0.24598591  0.69196564  1
  Ba  Ba7  1  0.75091796  0.75401409  0.80803436  1
  Ba  Ba8  1  0.50505726  0.47402570  0.80619564  1
  Ba  Ba9  1  0.00505726  0.52597430  0.69380436  1
  Ba  Ba10  1  0.99494274  0.97402570  0.19380436  1
  Ba  Ba11  1  0.49494274  0.02597430  0.30619564  1
  Ba  Ba12  1  0.49494274  0.52597430  0.19380436  1
  Ba  Ba13  1  0.99494274  0.47402570  0.30619564  1
  Ba  Ba14  1  0.00505726  0.02597430  0.80619564  1
  Ba  Ba15  1  0.50505726  0.97402570  0.69380436  1
  In  In0  1  0.55749656  0.29966232  0.45027885  1
  In  In1  1  0.05749656  0.70033768  0.04972115  1
  In  In2  1  0.94250344  0.79966232  0.54972115  1
  In  In3  1  0.44250344  0.20033768  0.95027885  1
  In  In4  1  0.44250344  0.70033768  0.54972115  1
  In  In5  1  0.94250344  0.29966232  0.95027885  1
  In  In6  1  0.05749656  0.20033768  0.45027885  1
  In  In7  1  0.55749656  0.79966232  0.04972115  1
  In  In8  1  0.77479291  0.53487712  0.02733298  1
  In  In9  1  0.27479291  0.46512288  0.47266702  1
  In  In10  1  0.72520709  0.03487712  0.97266702  1
  In  In11  1  0.22520709  0.96512288  0.52733298  1
  In  In12  1  0.22520709  0.46512288  0.97266702  1
  In  In13  1  0.72520709  0.53487712  0.52733298  1
  In  In14  1  0.27479291  0.96512288  0.02733298  1
  In  In15  1  0.77479291  0.03487712  0.47266702  1
  S  S0  1  0.75720425  0.35696176  0.45862999  1
  S  S1  1  0.25720425  0.64303824  0.04137001  1
  S  S2  1  0.74279575  0.85696176  0.54137001  1
  S  S3  1  0.24279575  0.14303824  0.95862999  1
  S  S4  1  0.24279575  0.64303824  0.54137001  1
  S  S5  1  0.74279575  0.35696176  0.95862999  1
  S  S6  1  0.25720425  0.14303824  0.45862999  1
  S  S7  1  0.75720425  0.85696176  0.04137001  1
  S  S8  1  0.24073241  0.48738572  0.79189492  1
  S  S9  1  0.74073241  0.51261428  0.70810508  1
  S  S10  1  0.25926759  0.98738572  0.20810508  1
  S  S11  1  0.75926759  0.01261428  0.29189492  1
  S  S12  1  0.75926759  0.51261428  0.20810508  1
  S  S13  1  0.25926759  0.48738572  0.29189492  1
  S  S14  1  0.74073241  0.01261428  0.79189492  1
  S  S15  1  0.24073241  0.98738572  0.70810508  1
  S  S16  1  0.43109902  0.38940495  0.56972770  1
  S  S17  1  0.00211405  0.22051535  0.27737498  1
  S  S18  1  0.93109902  0.61059505  0.93027230  1
  S  S19  1  0.56890098  0.11059505  0.06972770  1
  S  S20  1  0.56890098  0.61059505  0.43027230  1
  S  S21  1  0.06890098  0.38940495  0.06972770  1
  S  S22  1  0.93109902  0.11059505  0.56972770  1
  S  S23  1  0.43109902  0.88940495  0.93027230  1
  S  S24  1  0.90560591  0.12207181  0.02443003  1
  S  S25  1  0.40560591  0.87792819  0.47556997  1
  S  S26  1  0.59439409  0.62207181  0.97556997  1
  S  S27  1  0.09439409  0.37792819  0.52443003  1
  S  S28  1  0.09439409  0.87792819  0.97556997  1
  S  S29  1  0.59439409  0.12207181  0.52443003  1
  S  S30  1  0.40560591  0.37792819  0.02443003  1
  S  S31  1  0.90560591  0.62207181  0.47556997  1
  S  S32  1  0.00211405  0.72051535  0.22262502  1
  S  S33  1  0.50211405  0.27948465  0.27737498  1
  S  S34  1  0.49788595  0.22051535  0.77737498  1
  S  S35  1  0.99788595  0.77948465  0.72262502  1
  S  S36  1  0.99788595  0.27948465  0.77737498  1
  S  S37  1  0.49788595  0.72051535  0.72262502  1
  S  S38  1  0.50211405  0.77948465  0.22262502  1
  S  S39  1  0.06890098  0.88940495  0.43027230  1
loop_
_geom_bond_atom_site_label_1
_geom_bond_atom_site_label_2
_geom_bond_distance
_geom_bond_site_symmetry_2
Ba0 S36 3.175005 1_555
Ba0 S34 3.254263 1_555
Ba0 S22 3.266069 1_555
Ba0 S9 3.331699 1_555
Ba0 S29 3.367799 1_555
Ba0 S14 3.377403 1_555
Ba0 S0 3.379278 1_555
Ba0 S5 3.792268 1_555
Ba1 S37 3.175005 1_555
Ba1 S35 3.254263 1_455
Ba1 S23 3.266069 1_555
Ba1 S8 3.331699 1_555
Ba1 S28 3.367799 1_555
Ba1 S15 3.377403 1_555
Ba1 S1 3.379278 1_556
Ba1 S4 3.792268 1_555
Ba2 S38 3.175005 1_555
Ba2 S32 3.254263 1_655
Ba2 S20 3.266069 1_555
Ba2 S11 3.331699 1_565
Ba2 S31 3.367799 1_555
Ba2 S12 3.377403 1_555
Ba2 S2 3.379278 1_555
Ba2 S7 3.792268 1_555
Ba3 S17 3.175005 1_555
Ba3 S33 3.254263 1_555
Ba3 S21 3.266069 1_555
Ba3 S10 3.331699 1_545
Ba3 S30 3.367799 1_555
Ba3 S13 3.377403 1_555
Ba3 S3 3.379278 1_554
Ba3 S6 3.792268 1_555
Ba4 S32 3.175005 1_555
Ba4 S38 3.254263 1_555
Ba4 S39 3.266069 1_555
Ba4 S13 3.331699 1_555
Ba4 S25 3.367799 1_555
Ba4 S10 3.377403 1_555
Ba4 S4 3.379278 1_555
Ba4 S1 3.792268 1_555
Ba5 S33 3.175005 1_555
Ba5 S17 3.254263 1_655
Ba5 S19 3.266069 1_555
Ba5 S12 3.331699 1_555
Ba5 S24 3.367799 1_555
Ba5 S11 3.377403 1_555
Ba5 S5 3.379278 1_554
Ba5 S0 3.792268 1_555
Ba6 S34 3.175005 1_555
Ba6 S36 3.254263 1_455
Ba6 S16 3.266069 1_555
Ba6 S15 3.331699 1_545
Ba6 S27 3.367799 1_555
Ba6 S8 3.377403 1_555
Ba6 S6 3.379278 1_555
Ba6 S3 3.792268 1_555
Ba7 S35 3.175005 1_555
Ba7 S37 3.254263 1_555
Ba7 S18 3.266069 1_555
Ba7 S14 3.331699 1_565
Ba7 S26 3.367799 1_555
Ba7 S9 3.377403 1_555
Ba7 S7 3.379278 1_556
Ba7 S2 3.792268 1_555
Ba8 S26 3.137818 1_555
Ba8 S9 3.139569 1_555
Ba8 S8 3.163418 1_555
Ba8 S34 3.280808 1_555
Ba8 S37 3.358050 1_555
Ba8 S30 3.374268 1_556
Ba8 S16 3.447601 1_555
Ba8 S5 3.798539 1_555
Ba9 S27 3.137818 1_555
Ba9 S8 3.139569 1_555
Ba9 S9 3.163418 1_455
Ba9 S35 3.280808 1_455
Ba9 S36 3.358050 1_455
Ba9 S31 3.374268 1_455
Ba9 S18 3.447601 1_455
Ba9 S4 3.798539 1_555
Ba10 S24 3.137818 1_565
Ba10 S11 3.139569 1_565
Ba10 S10 3.163418 1_655
Ba10 S32 3.280808 1_655
Ba10 S17 3.358050 1_665
Ba10 S28 3.374268 1_654
Ba10 S39 3.447601 1_655
Ba10 S7 3.798539 1_555
Ba11 S25 3.137818 1_545
Ba11 S10 3.139569 1_545
Ba11 S11 3.163418 1_555
Ba11 S33 3.280808 1_555
Ba11 S38 3.358050 1_545
Ba11 S29 3.374268 1_555
Ba11 S19 3.447601 1_555
Ba11 S6 3.798539 1_555
Ba12 S30 3.137818 1_555
Ba12 S13 3.139569 1_555
Ba12 S12 3.163418 1_555
Ba12 S38 3.280808 1_555
Ba12 S33 3.358050 1_555
Ba12 S26 3.374268 1_554
Ba12 S20 3.447601 1_555
Ba12 S1 3.798539 1_555
Ba13 S31 3.137818 1_555
Ba13 S12 3.139569 1_555
Ba13 S13 3.163418 1_655
Ba13 S17 3.280808 1_655
Ba13 S32 3.358050 1_655
Ba13 S27 3.374268 1_655
Ba13 S21 3.447601 1_655
Ba13 S0 3.798539 1_555
Ba14 S28 3.137818 1_545
Ba14 S15 3.139569 1_545
Ba14 S14 3.163418 1_455
Ba14 S36 3.280808 1_455
Ba14 S35 3.358050 1_445
Ba14 S24 3.374268 1_456
Ba14 S22 3.447601 1_455
Ba14 S3 3.798539 1_555
Ba15 S29 3.137818 1_565
Ba15 S14 3.139569 1_565
Ba15 S15 3.163418 1_555
Ba15 S37 3.280808 1_555
Ba15 S34 3.358050 1_565
Ba15 S25 3.374268 1_555
Ba15 S23 3.447601 1_555
Ba15 S2 3.798539 1_555
In0 S33 2.410459 1_555
In0 S16 2.476973 1_555
In0 S0 2.495861 1_555
In0 S29 2.525056 1_555
In1 S32 2.410459 1_555
In1 S18 2.476973 1_454
In1 S1 2.495861 1_555
In1 S28 2.525056 1_554
In2 S35 2.410459 1_555
In2 S39 2.476973 1_655
In2 S2 2.495861 1_555
In2 S31 2.525056 1_555
In3 S34 2.410459 1_555
In3 S19 2.476973 1_556
In3 S3 2.495861 1_555
In3 S30 2.525056 1_556
In4 S37 2.410459 1_555
In4 S20 2.476973 1_555
In4 S4 2.495861 1_555
In4 S25 2.525056 1_555
In5 S36 2.410459 1_555
In5 S21 2.476973 1_656
In5 S5 2.495861 1_555
In5 S24 2.525056 1_556
In6 S17 2.410459 1_555
In6 S22 2.476973 1_455
In6 S6 2.495861 1_555
In6 S27 2.525056 1_555
In7 S38 2.410459 1_555
In7 S23 2.476973 1_554
In7 S7 2.495861 1_555
In7 S26 2.525056 1_554
In8 S12 2.432436 1_555
In8 S18 2.468808 1_554
In8 S5 2.491742 1_554
In8 S26 2.522162 1_554
In9 S13 2.432436 1_555
In9 S16 2.468808 1_555
In9 S4 2.491742 1_555
In9 S27 2.522162 1_555
In10 S14 2.432436 1_555
In10 S19 2.468808 1_556
In10 S7 2.491742 1_546
In10 S24 2.522162 1_556
In11 S15 2.432436 1_555
In11 S39 2.468808 1_555
In11 S6 2.491742 1_565
In11 S25 2.522162 1_555
In12 S8 2.432436 1_555
In12 S21 2.468808 1_556
In12 S1 2.491742 1_556
In12 S30 2.522162 1_556
In13 S9 2.432436 1_555
In13 S20 2.468808 1_555
In13 S0 2.491742 1_555
In13 S31 2.522162 1_555
In14 S10 2.432436 1_555
In14 S23 2.468808 1_554
In14 S3 2.491742 1_564
In14 S28 2.522162 1_554
In15 S11 2.432436 1_555
In15 S22 2.468808 1_555
In15 S2 2.491742 1_545
In15 S29 2.522162 1_555
