# generated using pymatgen
data_Rb4YbI6
_symmetry_space_group_name_H-M   'P 1'
_cell_length_a   10.20627003
_cell_length_b   10.20627003
_cell_length_c   10.20627032
_cell_angle_alpha   89.78042939
_cell_angle_beta   89.78042939
_cell_angle_gamma   89.78042853
_symmetry_Int_Tables_number   1
_chemical_formula_structural   Rb4YbI6
_chemical_formula_sum   'Rb8 Yb2 I12'
_cell_volume   1063.14287400
_cell_formula_units_Z   2
loop_
 _symmetry_equiv_pos_site_id
 _symmetry_equiv_pos_as_xyz
  1  'x, y, z'
loop_
 _atom_site_type_symbol
 _atom_site_label
 _atom_site_symmetry_multiplicity
 _atom_site_fract_x
 _atom_site_fract_y
 _atom_site_fract_z
 _atom_site_occupancy
  Rb  Rb0  1  0.25000000  0.25000000  0.25000000  1
  Rb  Rb1  1  0.75000000  0.75000000  0.75000000  1
  Rb  Rb2  1  0.86976600  0.63023400  0.25000000  1
  Rb  Rb3  1  0.63023400  0.25000000  0.86976600  1
  Rb  Rb4  1  0.25000000  0.86976600  0.63023400  1
  Rb  Rb5  1  0.13023400  0.36976600  0.75000000  1
  Rb  Rb6  1  0.36976600  0.75000000  0.13023400  1
  Rb  Rb7  1  0.75000000  0.13023400  0.36976600  1
  Yb  Yb0  1  0.00000000  0.00000000  0.00000000  1
  Yb  Yb1  1  0.50000000  0.50000000  0.50000000  1
  I  I0  1  0.20500600  0.55720200  0.43051200  1
  I  I1  1  0.05720200  0.70500600  0.93051200  1
  I  I2  1  0.93051200  0.05720200  0.70500600  1
  I  I3  1  0.79499400  0.44279800  0.56948800  1
  I  I4  1  0.70500600  0.93051200  0.05720200  1
  I  I5  1  0.44279800  0.56948800  0.79499400  1
  I  I6  1  0.56948800  0.79499400  0.44279800  1
  I  I7  1  0.55720200  0.43051200  0.20500600  1
  I  I8  1  0.06948800  0.94279800  0.29499400  1
  I  I9  1  0.94279800  0.29499400  0.06948800  1
  I  I10  1  0.29499400  0.06948800  0.94279800  1
  I  I11  1  0.43051200  0.20500600  0.55720200  1
loop_
_geom_bond_atom_site_label_1
_geom_bond_atom_site_label_2
_geom_bond_distance
_geom_bond_site_symmetry_2
I0 Yb1 3.147760 1_555
I0 Rb0 3.669136 1_555
I0 Rb4 3.822445 1_555
I0 Rb5 3.849551 1_555
I0 Rb2 3.959181 1_455
I0 Rb6 4.003986 1_555
I1 Yb0 3.147760 1_566
I1 Rb1 3.669136 1_455
I1 Rb6 3.822445 1_556
I1 Rb2 3.849551 1_456
I1 Rb5 3.959181 1_555
I1 Rb4 4.003986 1_555
I2 Yb0 3.147760 1_656
I2 Rb1 3.669136 1_545
I2 Rb5 3.822445 1_655
I2 Rb4 3.849551 1_645
I2 Rb7 3.959181 1_555
I2 Rb3 4.003986 1_555
I3 Yb1 3.147760 1_555
I3 Rb1 3.669136 1_555
I3 Rb7 3.822445 1_555
I3 Rb2 3.849551 1_555
I3 Rb5 3.959181 1_655
I3 Rb3 4.003986 1_555
I4 Yb0 3.147760 1_665
I4 Rb1 3.669136 1_554
I4 Rb7 3.822445 1_565
I4 Rb3 3.849551 1_564
I4 Rb6 3.959181 1_555
I4 Rb2 4.003986 1_555
I5 Yb1 3.147760 1_555
I5 Rb1 3.669136 1_555
I5 Rb5 3.822445 1_555
I5 Rb3 3.849551 1_555
I5 Rb6 3.959181 1_556
I5 Rb4 4.003986 1_555
I6 Yb1 3.147760 1_555
I6 Rb1 3.669136 1_555
I6 Rb6 3.822445 1_555
I6 Rb4 3.849551 1_555
I6 Rb7 3.959181 1_565
I6 Rb2 4.003986 1_555
I7 Yb1 3.147760 1_555
I7 Rb0 3.669136 1_555
I7 Rb2 3.822445 1_555
I7 Rb6 3.849551 1_555
I7 Rb3 3.959181 1_554
I7 Rb7 4.003986 1_555
I8 Yb0 3.147760 1_565
I8 Rb0 3.669136 1_565
I8 Rb2 3.822445 1_455
I8 Rb7 3.849551 1_465
I8 Rb4 3.959181 1_555
I8 Rb6 4.003986 1_555
I9 Yb0 3.147760 1_655
I9 Rb0 3.669136 1_655
I9 Rb3 3.822445 1_554
I9 Rb5 3.849551 1_654
I9 Rb2 3.959181 1_555
I9 Rb7 4.003986 1_555
I10 Yb0 3.147760 1_556
I10 Rb0 3.669136 1_556
I10 Rb4 3.822445 1_545
I10 Rb6 3.849551 1_546
I10 Rb3 3.959181 1_555
I10 Rb5 4.003986 1_555
I11 Yb1 3.147760 1_555
I11 Rb0 3.669136 1_555
I11 Rb3 3.822445 1_555
I11 Rb7 3.849551 1_555
I11 Rb4 3.959181 1_545
I11 Rb5 4.003986 1_555
