# generated using pymatgen
data_BaMg(NiO2)4
_symmetry_space_group_name_H-M   'P 1'
_cell_length_a   6.50949870
_cell_length_b   6.50949839
_cell_length_c   6.41969743
_cell_angle_alpha   53.87301837
_cell_angle_beta   53.87302323
_cell_angle_gamma   57.14020889
_symmetry_Int_Tables_number   1
_chemical_formula_structural   BaMg(NiO2)4
_chemical_formula_sum   'Ba1 Mg1 Ni4 O8'
_cell_volume   169.35764700
_cell_formula_units_Z   1
loop_
 _symmetry_equiv_pos_site_id
 _symmetry_equiv_pos_as_xyz
  1  'x, y, z'
loop_
 _atom_site_type_symbol
 _atom_site_label
 _atom_site_symmetry_multiplicity
 _atom_site_fract_x
 _atom_site_fract_y
 _atom_site_fract_z
 _atom_site_occupancy
  Ba  Ba0  1  0.50000000  0.50000000  0.50000000  1
  Mg  Mg0  1  0.00000000  0.00000000  0.50000000  1
  Ni  Ni0  1  0.00000000  0.00000000  0.00000000  1
  Ni  Ni1  1  0.50000000  0.00000000  0.50000000  1
  Ni  Ni2  1  0.50000000  0.50000000  0.00000000  1
  Ni  Ni3  1  0.00000000  0.50000000  0.50000000  1
  O  O0  1  0.79907000  0.24693500  0.75633500  1
  O  O1  1  0.21602600  0.21602600  0.74471700  1
  O  O2  1  0.20093000  0.75306500  0.24366500  1
  O  O3  1  0.75306500  0.20093000  0.24366500  1
  O  O4  1  0.25811200  0.25811200  0.28937700  1
  O  O5  1  0.74188800  0.74188800  0.71062300  1
  O  O6  1  0.78397400  0.78397400  0.25528300  1
  O  O7  1  0.24693500  0.79907000  0.75633500  1
loop_
_geom_bond_atom_site_label_1
_geom_bond_atom_site_label_2
_geom_bond_distance
_geom_bond_site_symmetry_2
Ba0 O6 2.482261 1_555
Ba0 O1 2.482261 1_555
Ba0 O2 2.512492 1_555
Ba0 O0 2.512492 1_555
Ba0 O3 2.512492 1_555
Ba0 O7 2.512492 1_555
Mg0 O4 2.275971 1_555
Mg0 O5 2.275971 1_445
Mg0 O3 2.302634 1_455
Mg0 O7 2.302634 1_545
Mg0 O0 2.302634 1_455
Mg0 O2 2.302634 1_545
Ni0 O1 1.830766 1_554
Ni0 O6 1.830766 1_445
Ni0 O0 1.976759 1_454
Ni0 O2 1.976759 1_545
Ni0 O3 1.976759 1_455
Ni0 O7 1.976759 1_544
Ni1 O7 1.932898 1_545
Ni1 O3 1.932898 1_555
Ni1 O5 2.022691 1_545
Ni1 O4 2.022691 1_555
Ni1 O1 2.054846 1_555
Ni1 O6 2.054846 1_545
Ni2 O4 2.049826 1_555
Ni2 O5 2.049826 1_554
Ni2 O3 2.217673 1_555
Ni2 O7 2.217673 1_554
Ni2 O2 2.217673 1_555
Ni2 O0 2.217673 1_554
Ni3 O0 1.932898 1_455
Ni3 O2 1.932898 1_555
Ni3 O5 2.022691 1_455
Ni3 O4 2.022691 1_555
Ni3 O1 2.054846 1_555
Ni3 O6 2.054846 1_455
