# generated using pymatgen
data_Na9Nb7Zn5Si9(SO8)9
_symmetry_space_group_name_H-M   'P 1'
_cell_length_a   8.94238503
_cell_length_b   8.94441046
_cell_length_c   22.68220327
_cell_angle_alpha   89.73394934
_cell_angle_beta   89.72141007
_cell_angle_gamma   120.05982611
_symmetry_Int_Tables_number   1
_chemical_formula_structural   Na9Nb7Zn5Si9(SO8)9
_chemical_formula_sum   'Na9 Nb7 Zn5 Si9 S9 O72'
_cell_volume   1570.14285004
_cell_formula_units_Z   1
loop_
 _symmetry_equiv_pos_site_id
 _symmetry_equiv_pos_as_xyz
  1  'x, y, z'
loop_
 _atom_site_type_symbol
 _atom_site_label
 _atom_site_symmetry_multiplicity
 _atom_site_fract_x
 _atom_site_fract_y
 _atom_site_fract_z
 _atom_site_occupancy
  Na  Na0  1  0.98061709  0.35620855  0.74686552  1
  Na  Na1  1  0.64862268  0.96665293  0.58031949  1
  Na  Na2  1  0.32573988  0.02791251  0.40684073  1
  Na  Na3  1  0.99033497  0.00311307  0.49197344  1
  Na  Na4  1  0.98677868  0.99828282  0.99038499  1
  Na  Na5  1  0.65468702  0.32324084  0.82704339  1
  Na  Na6  1  0.66864389  0.33397614  0.32089194  1
  Na  Na7  1  0.32985093  0.68046802  0.16306805  1
  Na  Na8  1  0.31438009  0.66701850  0.65537943  1
  Nb  Nb0  1  0.99438019  0.00095410  0.64430752  1
  Nb  Nb1  1  -0.00010984  0.99175595  0.14372541  1
  Nb  Nb2  1  0.69351020  0.34554344  0.97803793  1
  Nb  Nb3  1  0.66263728  0.31462846  0.48218037  1
  Nb  Nb4  1  0.33413912  0.66382354  0.02093931  1
  Nb  Nb5  1  0.33968617  0.68306583  0.31085102  1
  Nb  Nb6  1  0.34549291  0.66638295  0.81332570  1
  Zn  Zn0  1  0.99451740  0.00382801  0.34830913  1
  Zn  Zn1  1  0.96800746  0.99964330  0.85908376  1
  Zn  Zn2  1  0.67110240  0.31108015  0.68101197  1
  Zn  Zn3  1  0.66356948  0.30767128  0.18265930  1
  Zn  Zn4  1  0.33194734  0.67229793  0.51944601  1
  Si  Si0  1  0.29487526  0.01968271  0.25517505  1
  Si  Si1  1  0.70541538  0.00506065  0.75153461  1
  Si  Si2  1  0.97348716  0.34744256  0.58747527  1
  Si  Si3  1  0.36719422  0.03418607  0.58622142  1
  Si  Si4  1  0.95372860  0.61325729  0.08866034  1
  Si  Si5  1  0.66394677  0.04274257  0.08595720  1
  Si  Si6  1  0.62815298  0.65912490  0.91870074  1
  Si  Si7  1  0.05153414  0.37326676  0.91456831  1
  Si  Si8  1  0.63799299  0.95461249  0.42005767  1
  S  S0  1  0.70793634  0.70846362  0.25105366  1
  S  S1  1  0.00460097  0.29589809  0.25180346  1
  S  S2  1  0.29030603  0.28818235  0.75113272  1
  S  S3  1  0.00245478  0.71546905  0.75276283  1
  S  S4  1  0.67121571  0.61849425  0.58576803  1
  S  S5  1  0.37664393  0.33209771  0.08434038  1
  S  S6  1  0.33676944  0.95629534  0.91650522  1
  S  S7  1  0.34047521  0.38230626  0.41810318  1
  S  S8  1  0.03799258  0.66058094  0.41669918  1
  O  O0  1  0.20299041  0.01747422  0.31605071  1
  O  O1  1  0.80365808  0.79020596  0.30372721  1
  O  O2  1  0.98332695  0.19652710  0.30513106  1
  O  O3  1  0.21565591  0.18809833  0.80415542  1
  O  O4  1  0.99729717  0.80384554  0.80536655  1
  O  O5  1  0.83577201  0.04063965  0.80371885  1
  O  O6  1  0.79836626  0.97294570  0.69059708  1
  O  O7  1  0.17377834  0.20160033  0.69772330  1
  O  O8  1  0.02394081  0.82227323  0.69746973  1
  O  O9  1  0.78700703  0.82110100  0.19648858  1
  O  O10  1  0.02541434  0.21144283  0.19770450  1
  O  O11  1  0.16153985  0.98499494  0.19784134  1
  O  O12  1  0.89988300  0.37432266  0.64804150  1
  O  O13  1  0.49188003  0.13008911  0.63879822  1
  O  O14  1  0.65723206  0.52202984  0.63891410  1
  O  O15  1  0.86482161  0.50248938  0.14501724  1
  O  O16  1  0.60850897  0.09715530  0.14396893  1
  O  O17  1  0.47289789  0.36205012  0.13793424  1
  O  O18  1  0.45437963  0.30717119  0.03065792  1
  O  O19  1  0.83809102  0.53298419  0.02659971  1
  O  O20  1  0.69217486  0.16773629  0.02703969  1
  O  O21  1  0.46068861  0.16046220  0.52340018  1
  O  O22  1  0.69300107  0.53710611  0.53067412  1
  O  O23  1  0.82649458  0.30510684  0.53122345  1
  O  O24  1  0.51734736  0.67674161  0.97329861  1
  O  O25  1  0.16256566  0.49205939  0.97070495  1
  O  O26  1  0.32029346  0.85399982  0.97104968  1
  O  O27  1  0.54681261  0.85362276  0.47927338  1
  O  O28  1  0.32234475  0.46349469  0.47068412  1
  O  O29  1  0.14260047  0.68180636  0.46818721  1
  O  O30  1  0.12343576  0.63639530  0.36158919  1
  O  O31  1  0.49674572  0.85410073  0.36253147  1
  O  O32  1  0.35203694  0.48259400  0.36299716  1
  O  O33  1  0.13455130  0.49415161  0.85447445  1
  O  O34  1  0.36309046  0.86789889  0.86352211  1
  O  O35  1  0.50382178  0.64302957  0.85988113  1
  O  O36  1  0.02016737  0.81417692  0.41062133  1
  O  O37  1  0.82776477  0.98827795  0.40843519  1
  O  O38  1  0.19685947  0.20185817  0.41476884  1
  O  O39  1  0.04387676  0.19334319  0.91621774  1
  O  O40  1  0.18348370  0.96947784  0.91058061  1
  O  O41  1  0.81717345  0.81918604  0.91603017  1
  O  O42  1  0.96047980  0.15061546  0.59028330  1
  O  O43  1  0.17791437  0.02344766  0.59176510  1
  O  O44  1  0.83792393  0.79778850  0.58718691  1
  O  O45  1  0.97712935  0.81291639  0.09365755  1
  O  O46  1  0.84391862  0.03088821  0.09363179  1
  O  O47  1  0.19596918  0.17436689  0.08913747  1
  O  O48  1  0.68046805  0.17127609  0.74811036  1
  O  O49  1  0.46789944  0.33153755  0.74099953  1
  O  O50  1  0.84907880  0.54239069  0.74793152  1
  O  O51  1  0.67957326  0.53590413  0.24357746  1
  O  O52  1  0.86289234  0.33145397  0.24703104  1
  O  O53  1  0.48608247  0.17733805  0.24707384  1
  O  O54  1  0.61829744  0.47114283  0.92429906  1
  O  O55  1  0.85791256  0.36000689  0.92179868  1
  O  O56  1  0.49717896  0.12676302  0.92028234  1
  O  O57  1  0.63608939  0.14668309  0.42244026  1
  O  O58  1  0.50786704  0.37418194  0.41925414  1
  O  O59  1  0.86284262  0.50153267  0.42001150  1
  O  O60  1  0.34426264  0.48204199  0.07659702  1
  O  O61  1  0.15054411  0.65066663  0.07557202  1
  O  O62  1  0.50705191  0.84549668  0.07030041  1
  O  O63  1  0.35190324  0.85065355  0.57726870  1
  O  O64  1  0.52844320  0.65304755  0.58052982  1
  O  O65  1  0.16407295  0.49107711  0.57231677  1
  O  O66  1  0.30398258  0.82790831  0.25957905  1
  O  O67  1  0.52828223  0.69545990  0.25508334  1
  O  O68  1  0.17425112  0.47027066  0.25593423  1
  O  O69  1  0.28719788  0.46093627  0.75312888  1
  O  O70  1  0.16185575  0.69361275  0.75265896  1
  O  O71  1  0.51160472  0.82311575  0.75630434  1
loop_
_geom_bond_atom_site_label_1
_geom_bond_atom_site_label_2
_geom_bond_distance
_geom_bond_site_symmetry_2
Na0 O48 2.343520 1_555
Na0 O12 2.387791 1_555
Na0 O69 2.417870 1_655
Na0 O50 2.473831 1_555
Na0 O70 2.618660 1_655
Na0 O5 2.755899 1_555
Na0 O33 2.780986 1_655
Na0 O7 2.920110 1_655
Na1 O63 2.316503 1_555
Na1 O42 2.438898 1_565
Na1 O64 2.450091 1_555
Na1 O27 2.494738 1_555
Na1 O44 2.780816 1_555
Na1 O13 2.813119 1_565
Na1 O6 2.830430 1_555
Na1 O23 2.839380 1_565
Na2 O0 2.318511 1_555
Na2 O38 2.361813 1_555
Na2 O36 2.427293 1_545
Na2 O57 2.452610 1_555
Na2 O58 2.698796 1_555
Na3 O37 2.357392 1_545
Na3 O38 2.507609 1_655
Na3 O36 2.609166 1_645
Na3 O42 2.675569 1_555
Na3 O44 2.705810 1_545
Na3 O43 2.775840 1_655
Na4 O39 2.281816 1_665
Na4 O41 2.307988 1_555
Na4 O40 2.620018 1_655
Na4 O46 2.748073 1_566
Na4 O45 2.839384 1_556
Na4 O47 2.849405 1_666
Na5 O48 2.332087 1_555
Na5 O50 2.570495 1_555
Na5 O49 2.599813 1_555
Na5 O56 2.646068 1_555
Na5 O54 2.678366 1_555
Na5 O55 2.734219 1_555
Na6 O53 2.277835 1_555
Na6 O52 2.415753 1_555
Na6 O51 2.477712 1_555
Na6 O57 2.768679 1_555
Na6 O58 2.769168 1_555
Na6 O59 2.788981 1_555
Na7 O61 2.487644 1_555
Na7 O62 2.590913 1_555
Na7 O66 2.629113 1_555
Na7 O68 2.687333 1_555
Na7 O60 2.696749 1_555
Na7 O67 2.706089 1_555
Na8 O63 2.316136 1_555
Na8 O65 2.401224 1_555
Na8 O64 2.602361 1_555
Na8 O70 2.661997 1_555
Na8 O69 2.807237 1_555
Na8 O71 2.811115 1_555
Nb0 O6 1.943533 1_545
Nb0 O42 1.944308 1_555
Nb0 O43 1.949977 1_655
Nb0 O7 2.101707 1_655
Nb0 O44 2.104939 1_545
Nb0 O8 2.118155 1_645
Nb1 O45 1.892840 1_455
Nb1 O11 1.924589 1_555
Nb1 O46 1.964605 1_465
Nb1 O47 2.089582 1_565
Nb1 O9 2.106194 1_455
Nb1 O10 2.233388 1_565
Nb2 O19 1.885510 1_556
Nb2 O55 1.896050 1_555
Nb2 O20 1.931125 1_556
Nb2 O54 1.988061 1_555
Nb2 O56 2.287402 1_555
Nb2 O18 2.313264 1_556
Nb3 O21 1.874504 1_555
Nb3 O23 1.879286 1_555
Nb3 O57 1.952889 1_555
Nb3 O22 2.173792 1_555
Nb3 O59 2.223424 1_555
Nb3 O58 2.233191 1_555
Nb4 O24 1.912357 1_554
Nb4 O25 1.919491 1_554
Nb4 O62 1.949750 1_555
Nb4 O61 2.007531 1_555
Nb4 O60 2.091674 1_555
Nb4 O26 2.093750 1_554
Nb5 O66 1.880641 1_555
Nb5 O31 1.888701 1_555
Nb5 O67 2.060892 1_555
Nb5 O30 2.098446 1_555
Nb5 O68 2.140544 1_555
Nb5 O32 2.192345 1_555
Nb6 O35 1.863355 1_555
Nb6 O71 1.929484 1_555
Nb6 O33 1.964913 1_555
Nb6 O34 2.075220 1_555
Nb6 O69 2.140884 1_555
Nb6 O70 2.251457 1_555
O0 Si0 1.598304 1_555
O0 Zn0 1.945156 1_455
O1 S0 1.444224 1_555
O1 Zn0 2.086649 1_565
O2 S1 1.451781 1_655
O2 Zn0 2.024347 1_555
O3 S2 1.441159 1_555
O3 Zn1 2.347739 1_445
O4 S3 1.447542 1_655
O4 Zn1 2.257529 1_555
O5 Si1 1.583175 1_555
O5 Zn1 1.885299 1_545
O6 Si1 1.707509 1_565
O7 S2 1.538089 1_555
O8 S3 1.524830 1_555
O9 S0 1.520861 1_555
O10 S1 1.502746 1_555
O11 Si0 1.690365 1_565
O12 Si2 1.590942 1_555
O12 Zn2 1.971436 1_555
O13 Si3 1.570183 1_555
O13 Zn2 1.880479 1_555
O14 S4 1.447078 1_555
O14 Zn2 2.169362 1_555
O15 Si4 1.561080 1_555
O15 Zn3 1.958012 1_555
O16 Si5 1.566960 1_555
O16 Zn3 1.910187 1_555
O17 S5 1.439646 1_555
O17 Zn3 2.239640 1_555
O18 S5 1.471436 1_555
O19 Si4 1.687041 1_555
O20 Si5 1.673219 1_555
O21 Si3 1.741425 1_555
O22 S4 1.509197 1_555
O23 Si2 1.738193 1_555
O24 Si6 1.639077 1_555
O25 Si7 1.644407 1_555
O26 S6 1.497392 1_555
O27 Si8 1.589035 1_555
O27 Zn4 1.999968 1_555
O28 S7 1.449192 1_555
O28 Zn4 2.139655 1_555
O29 S8 1.452504 1_555
O29 Zn4 2.094869 1_555
O30 S8 1.533605 1_555
O31 Si8 1.730754 1_555
O32 S7 1.507667 1_555
O33 Si7 1.658456 1_555
O34 S6 1.522269 1_555
O35 Si6 1.700794 1_555
O36 S8 1.466168 1_555
O36 Zn0 2.301829 1_465
O37 Si8 1.588398 1_555
O37 Zn0 1.968130 1_565
O38 S7 1.478372 1_555
O38 Zn0 2.350395 1_455
O39 Si7 1.576384 1_555
O39 Zn1 1.998304 1_445
O40 S6 1.440295 1_555
O40 Zn1 2.385329 1_455
O41 Si6 1.576167 1_555
O41 Zn1 1.968664 1_555
O42 Si2 1.706076 1_555
O43 Si3 1.650735 1_555
O44 S4 1.549557 1_555
O45 Si4 1.695161 1_555
O46 Si5 1.674857 1_555
O47 S5 1.525103 1_555
O48 Si1 1.611657 1_555
O48 Zn2 1.993855 1_555
O49 S2 1.450502 1_555
O49 Zn2 2.344811 1_555
O50 S3 1.471612 1_655
O50 Zn2 2.423090 1_555
O51 S0 1.444290 1_555
O51 Zn3 2.415062 1_555
O52 S1 1.457202 1_655
O52 Zn3 2.236626 1_555
O53 Si0 1.588990 1_555
O53 Zn3 2.029978 1_555
O54 Si6 1.643294 1_555
O55 Si7 1.682313 1_655
O56 S6 1.483607 1_545
O57 Si8 1.727640 1_545
O58 S7 1.534911 1_555
O59 S8 1.499422 1_655
O60 S5 1.516832 1_555
O61 Si4 1.643691 1_455
O62 Si5 1.654709 1_565
O63 Si3 1.591617 1_565
O63 Zn4 2.008344 1_555
O64 S4 1.461539 1_555
O64 Zn4 2.315471 1_555
O65 Si2 1.571637 1_455
O65 Zn4 1.961078 1_555
O66 Si0 1.759924 1_565
O67 S0 1.553744 1_555
O68 S1 1.541161 1_555
O69 S2 1.560151 1_555
O70 S3 1.532708 1_555
O71 Si1 1.683688 1_565
