# generated using pymatgen
data_Na8Zr2Al2Si5SO24
_symmetry_space_group_name_H-M   'P 1'
_cell_length_a   9.06909545
_cell_length_b   9.04419050
_cell_length_c   22.17441788
_cell_angle_alpha   89.76897350
_cell_angle_beta   89.77041460
_cell_angle_gamma   119.71152970
_symmetry_Int_Tables_number   1
_chemical_formula_structural   Na8Zr2Al2Si5SO24
_chemical_formula_sum   'Na24 Zr6 Al6 Si15 S3 O72'
_cell_volume   1579.63850168
_cell_formula_units_Z   3
loop_
 _symmetry_equiv_pos_site_id
 _symmetry_equiv_pos_as_xyz
  1  'x, y, z'
loop_
 _atom_site_type_symbol
 _atom_site_label
 _atom_site_symmetry_multiplicity
 _atom_site_fract_x
 _atom_site_fract_y
 _atom_site_fract_z
 _atom_site_occupancy
  Na  Na0  1  0.63845720  0.00184475  0.25257573  1
  Na  Na1  1  0.36138160  0.36324179  0.24711714  1
  Na  Na2  1  0.00006176  0.63546006  0.24991608  1
  Na  Na3  1  0.63394346  0.63557329  0.74776128  1
  Na  Na4  1  0.99952566  0.36383264  0.75052925  1
  Na  Na5  1  0.36659593  0.00263935  0.75045076  1
  Na  Na6  1  0.30335391  0.33785695  0.58433512  1
  Na  Na7  1  0.03524801  0.69887761  0.58181251  1
  Na  Na8  1  0.66424907  0.96481332  0.58210473  1
  Na  Na9  1  0.28807870  0.96505222  0.08187555  1
  Na  Na10  1  0.66831319  0.69380152  0.08616770  1
  Na  Na11  1  0.04129305  0.33536808  0.08663689  1
  Na  Na12  1  0.97396860  0.66807436  0.91682097  1
  Na  Na13  1  0.70202037  0.04151205  0.91193659  1
  Na  Na14  1  0.32270005  0.28724430  0.91854384  1
  Na  Na15  1  0.96180046  0.29419197  0.41132677  1
  Na  Na16  1  0.32845096  0.02245759  0.41507719  1
  Na  Na17  1  0.71391592  0.68055224  0.41661691  1
  Na  Na18  1  0.99392481  0.99226348  0.49884672  1
  Na  Na19  1  0.01375173  0.00524406  0.00022369  1
  Na  Na20  1  0.66684891  0.32619111  0.83447979  1
  Na  Na21  1  0.67429395  0.33123873  0.33202110  1
  Na  Na22  1  0.32653294  0.65739126  0.16446875  1
  Na  Na23  1  0.33496138  0.66679840  0.66335880  1
  Zr  Zr0  1  0.99954739  0.00064014  0.64860983  1
  Zr  Zr1  1  0.66906426  0.33471001  0.68548256  1
  Zr  Zr2  1  0.66903197  0.34457695  0.18632675  1
  Zr  Zr3  1  0.67472718  0.33262273  0.48310086  1
  Zr  Zr4  1  0.32975602  0.67271066  0.31097126  1
  Zr  Zr5  1  0.32317231  0.67036282  0.81663816  1
  Al  Al0  1  0.98667008  0.98383151  0.34798785  1
  Al  Al1  1  0.01559813  0.01376355  0.85002019  1
  Al  Al2  1  0.01400460  0.99883439  0.15151907  1
  Al  Al3  1  0.66336743  0.33339976  0.98329001  1
  Al  Al4  1  0.29273702  0.64216872  0.01682558  1
  Al  Al5  1  0.33833478  0.68759923  0.52169879  1
  Si  Si0  1  0.27961650  0.00328459  0.25106606  1
  Si  Si1  1  0.72147069  0.72320028  0.24821279  1
  Si  Si2  1  0.99926265  0.27292797  0.24958223  1
  Si  Si3  1  0.29230534  0.29184941  0.75309195  1
  Si  Si4  1  0.99647019  0.71409525  0.75514789  1
  Si  Si5  1  0.71355686  0.99892127  0.75542296  1
  Si  Si6  1  0.97782781  0.34365092  0.58162496  1
  Si  Si7  1  0.36961520  0.03267658  0.58176304  1
  Si  Si8  1  0.65665386  0.63114861  0.58064215  1
  Si  Si9  1  0.95883620  0.63047924  0.07913211  1
  Si  Si10  1  0.37015797  0.33747828  0.07851542  1
  Si  Si11  1  0.02656680  0.36077122  0.92017150  1
  Si  Si12  1  0.33614493  0.96556770  0.92242680  1
  Si  Si13  1  0.63042514  0.95537296  0.41780226  1
  Si  Si14  1  0.04439103  0.67566320  0.41851500  1
  S  S0  1  0.66550060  0.03929029  0.08067824  1
  S  S1  1  0.62589079  0.66531149  0.92004967  1
  S  S2  1  0.32990686  0.37333948  0.41755740  1
  O  O0  1  0.19365270  0.03301105  0.31088241  1
  O  O1  1  0.83195781  0.79801729  0.30916273  1
  O  O2  1  0.97196888  0.16100524  0.31084712  1
  O  O3  1  0.20255844  0.16923067  0.81086599  1
  O  O4  1  0.97018925  0.80946981  0.81252297  1
  O  O5  1  0.83726035  0.02691668  0.81215192  1
  O  O6  1  0.78749320  0.96486742  0.69257385  1
  O  O7  1  0.17820108  0.21670825  0.69202115  1
  O  O8  1  0.03523033  0.82375177  0.69257831  1
  O  O9  1  0.80795717  0.83988732  0.18845590  1
  O  O10  1  0.02729342  0.18809432  0.18887711  1
  O  O11  1  0.16818007  0.96687987  0.19026976  1
  O  O12  1  0.88964089  0.37878223  0.64084565  1
  O  O13  1  0.49190171  0.12025382  0.64080603  1
  O  O14  1  0.62465073  0.50993340  0.64071882  1
  O  O15  1  0.88142265  0.50705801  0.13980517  1
  O  O16  1  0.63413643  0.11379198  0.13614180  1
  O  O17  1  0.48995801  0.37259170  0.13955205  1
  O  O18  1  0.47047170  0.30311003  0.02369374  1
  O  O19  1  0.82935063  0.52951990  0.02358270  1
  O  O20  1  0.69242914  0.15253888  0.02817362  1
  O  O21  1  0.45395272  0.15753566  0.52315335  1
  O  O22  1  0.69638193  0.54375667  0.52294750  1
  O  O23  1  0.84774805  0.29881800  0.52455970  1
  O  O24  1  0.54067121  0.69234689  0.97227114  1
  O  O25  1  0.15941539  0.45417911  0.97535803  1
  O  O26  1  0.30773131  0.82989741  0.97724996  1
  O  O27  1  0.53298865  0.83160755  0.47548497  1
  O  O28  1  0.30779508  0.45788728  0.47135444  1
  O  O29  1  0.16797045  0.69933149  0.47549957  1
  O  O30  1  0.12217830  0.62995956  0.35861991  1
  O  O31  1  0.51083779  0.87034147  0.35800568  1
  O  O32  1  0.35842424  0.47808998  0.36242648  1
  O  O33  1  0.11197510  0.48627114  0.86064524  1
  O  O34  1  0.37857118  0.88777996  0.86130566  1
  O  O35  1  0.52181002  0.63609554  0.86453823  1
  O  O36  1  0.02962275  0.84896928  0.41074817  1
  O  O37  1  0.82202094  0.97939419  0.41098608  1
  O  O38  1  0.17778021  0.20376268  0.41330551  1
  O  O39  1  0.01141532  0.17243190  0.91146891  1
  O  O40  1  0.15960374  0.97484889  0.91342048  1
  O  O41  1  0.79633115  0.81825950  0.91424870  1
  O  O42  1  0.98902640  0.17034892  0.58522728  1
  O  O43  1  0.18272611  0.01508824  0.58542051  1
  O  O44  1  0.82896390  0.81597570  0.58545518  1
  O  O45  1  0.97457122  0.81927941  0.08801790  1
  O  O46  1  0.82096609  0.02518953  0.08537522  1
  O  O47  1  0.18104139  0.16603281  0.08767883  1
  O  O48  1  0.69480930  0.17013388  0.75002251  1
  O  O49  1  0.47998684  0.30776691  0.74850356  1
  O  O50  1  0.82887129  0.52437345  0.75037101  1
  O  O51  1  0.69774645  0.52840406  0.24587453  1
  O  O52  1  0.82963179  0.29782870  0.24535030  1
  O  O53  1  0.47430340  0.16732577  0.24602991  1
  O  O54  1  0.64296066  0.50945442  0.92442190  1
  O  O55  1  0.84030924  0.34937863  0.92941784  1
  O  O56  1  0.50660941  0.15621507  0.92901947  1
  O  O57  1  0.64350676  0.14503510  0.41936860  1
  O  O58  1  0.48486516  0.35582329  0.42045327  1
  O  O59  1  0.85101287  0.50641041  0.42007071  1
  O  O60  1  0.35832426  0.51532692  0.07079766  1
  O  O61  1  0.15029154  0.64949180  0.07436691  1
  O  O62  1  0.51438342  0.86773252  0.07491209  1
  O  O63  1  0.35638777  0.84787753  0.57671132  1
  O  O64  1  0.48522168  0.64332414  0.57306936  1
  O  O65  1  0.16107838  0.51144212  0.57133220  1
  O  O66  1  0.30372639  0.83263235  0.25290001  1
  O  O67  1  0.52627081  0.69162373  0.25247811  1
  O  O68  1  0.16869154  0.46653763  0.25328326  1
  O  O69  1  0.31738345  0.48345135  0.75814109  1
  O  O70  1  0.16684950  0.69224678  0.75648633  1
  O  O71  1  0.52407068  0.82949466  0.75843948  1
loop_
_geom_bond_atom_site_label_1
_geom_bond_atom_site_label_2
_geom_bond_distance
_geom_bond_site_symmetry_2
Na0 O52 2.364588 1_555
Na0 O67 2.465260 1_545
Na0 O53 2.585715 1_555
Na0 O31 2.609789 1_545
Na0 O66 2.636693 1_545
Na0 O16 2.776989 1_555
Na0 O2 2.936092 1_555
Na0 O9 2.959972 1_545
Na1 O68 2.358551 1_555
Na1 O53 2.447018 1_555
Na1 O67 2.583166 1_555
Na1 O17 2.633317 1_555
Na1 O51 2.649494 1_555
Na1 O32 2.768745 1_555
Na1 O10 2.940660 1_555
Na1 O0 2.945943 1_555
Na2 O51 2.415324 1_455
Na2 O66 2.429605 1_555
Na2 O68 2.644711 1_555
Na2 O52 2.654983 1_455
Na2 O30 2.667261 1_555
Na2 O15 2.696894 1_455
Na2 O1 2.903971 1_455
Na2 O11 2.912078 1_555
Na3 O71 2.420502 1_555
Na3 O50 2.429554 1_555
Na3 O69 2.502955 1_555
Na3 O49 2.575954 1_555
Na3 O14 2.619299 1_555
Na3 O35 2.779077 1_555
Na3 O6 2.855224 1_555
Na4 O48 2.430533 1_555
Na4 O69 2.534309 1_655
Na4 O70 2.584448 1_655
Na4 O50 2.594431 1_555
Na4 O12 2.660299 1_555
Na4 O33 2.674092 1_655
Na4 O7 2.865998 1_655
Na4 O5 2.970371 1_555
Na5 O49 2.420854 1_555
Na5 O70 2.476735 1_545
Na5 O48 2.585524 1_555
Na5 O71 2.596131 1_545
Na5 O13 2.663256 1_555
Na5 O34 2.688265 1_545
Na5 O3 2.915504 1_555
Na5 O8 2.919519 1_545
Na6 O64 2.426843 1_555
Na6 O42 2.477937 1_455
Na6 O65 2.494010 1_555
Na6 O43 2.559800 1_555
Na6 O7 2.629671 1_555
Na6 O28 2.718538 1_555
Na6 O14 2.832938 1_555
Na6 O21 2.928586 1_555
Na7 O65 2.479647 1_555
Na7 O43 2.487005 1_565
Na7 O63 2.533133 1_555
Na7 O44 2.567397 1_455
Na7 O29 2.641703 1_555
Na7 O8 2.707548 1_555
Na7 O12 2.829210 1_455
Na7 O22 2.981559 1_455
Na8 O63 2.450482 1_555
Na8 O44 2.458129 1_555
Na8 O64 2.541290 1_555
Na8 O42 2.590583 1_565
Na8 O27 2.661199 1_555
Na8 O6 2.696512 1_555
Na8 O13 2.879307 1_565
Na8 O23 2.914039 1_565
Na9 O47 2.452125 1_565
Na9 O45 2.473935 1_455
Na9 O61 2.490938 1_555
Na9 O62 2.607691 1_555
Na9 O11 2.637619 1_555
Na9 O26 2.672810 1_554
Na9 O18 2.947288 1_565
Na9 O16 2.994270 1_565
Na10 O45 2.425030 1_555
Na10 O60 2.477703 1_555
Na10 O62 2.581106 1_555
Na10 O46 2.605009 1_565
Na10 O9 2.623492 1_555
Na10 O24 2.779822 1_554
Na10 O17 2.784980 1_555
Na10 O19 2.901357 1_555
Na11 O47 2.424111 1_555
Na11 O46 2.511531 1_455
Na11 O61 2.515991 1_555
Na11 O60 2.527378 1_555
Na11 O10 2.595341 1_555
Na11 O25 2.684659 1_554
Na11 O15 2.852382 1_455
Na12 O40 2.430032 1_655
Na12 O55 2.526402 1_555
Na12 O41 2.571544 1_555
Na12 O54 2.612119 1_555
Na12 O4 2.646801 1_555
Na12 O19 2.686442 1_556
Na12 O33 2.804598 1_655
Na12 O26 2.959181 1_655
Na13 O39 2.445741 1_655
Na13 O55 2.455014 1_555
Na13 O56 2.486078 1_555
Na13 O41 2.553927 1_545
Na13 O5 2.561001 1_555
Na13 O20 2.786572 1_556
Na13 O34 2.791862 1_545
Na14 O40 2.458610 1_545
Na14 O39 2.484273 1_555
Na14 O56 2.490048 1_555
Na14 O54 2.590534 1_555
Na14 O3 2.629844 1_555
Na14 O18 2.662754 1_556
Na14 O25 2.876829 1_555
Na14 O35 2.992328 1_555
Na15 O38 2.468982 1_655
Na15 O37 2.477008 1_545
Na15 O57 2.513590 1_555
Na15 O2 2.560063 1_555
Na15 O59 2.577602 1_555
Na15 O23 2.720121 1_555
Na15 O30 2.877975 1_655
Na16 O36 2.367264 1_545
Na16 O57 2.503030 1_555
Na16 O38 2.603558 1_555
Na16 O58 2.623262 1_555
Na16 O0 2.641657 1_555
Na16 O21 2.682986 1_555
Na16 O29 2.861905 1_545
Na16 O31 2.912613 1_545
Na17 O37 2.377274 1_555
Na17 O59 2.444020 1_555
Na17 O36 2.491417 1_655
Na17 O1 2.604587 1_555
Na17 O22 2.625590 1_555
Na17 O58 2.626183 1_555
Na18 O36 2.455998 1_655
Na18 O44 2.460963 1_555
Na18 O37 2.466997 1_555
Na18 O43 2.517725 1_665
Na18 O42 2.521936 1_565
Na18 O38 2.611687 1_665
Na19 O40 2.423723 1_544
Na19 O47 2.456945 1_555
Na19 O45 2.473997 1_445
Na19 O39 2.483604 1_554
Na19 O46 2.635069 1_455
Na19 O41 2.670793 1_444
Na20 O48 2.436393 1_555
Na20 O50 2.488095 1_555
Na20 O49 2.506560 1_555
Na20 O56 2.570010 1_555
Na20 O55 2.579465 1_555
Na20 O54 2.674129 1_555
Na21 O57 2.483704 1_555
Na21 O52 2.484855 1_555
Na21 O59 2.534501 1_555
Na21 O51 2.543110 1_555
Na21 O53 2.551162 1_555
Na21 O58 2.683505 1_555
Na22 O68 2.531375 1_555
Na22 O60 2.536193 1_555
Na22 O61 2.542676 1_555
Na22 O67 2.581282 1_555
Na22 O66 2.597436 1_555
Na22 O62 2.682317 1_555
Na23 O63 2.463261 1_555
Na23 O64 2.485742 1_555
Na23 O65 2.545142 1_555
Na23 O69 2.626712 1_555
Na23 O70 2.639757 1_555
Na23 O71 2.665365 1_555
Al0 O1 1.793898 1_555
Al0 O2 1.861646 1_565
Al0 O0 1.885610 1_665
Al0 O36 2.009441 1_655
Al0 O37 2.026378 1_555
Al0 O38 2.384167 1_665
Al1 O3 1.794679 1_555
Al1 O4 1.880350 1_445
Al1 O5 1.880404 1_455
Al1 O39 1.996674 1_555
Al1 O40 2.066959 1_545
Al1 O41 2.362374 1_445
Al2 O11 1.784690 1_555
Al2 O10 1.854301 1_565
Al2 O9 1.882737 1_455
Al2 O45 2.048068 1_455
Al2 O47 2.068888 1_565
Al2 O46 2.388375 1_465
Al3 O18 1.857016 1_556
Al3 O19 1.894009 1_556
Al3 O55 1.943283 1_555
Al3 O56 1.951477 1_555
Al3 O20 2.037646 1_556
Al3 O54 2.133271 1_555
Al4 O25 1.783791 1_554
Al4 O61 1.836733 1_555
Al4 O26 1.851887 1_554
Al4 O60 1.942472 1_555
Al4 O24 2.281452 1_554
Al4 O62 2.416285 1_555
Al5 O63 1.843040 1_555
Al5 O27 1.886392 1_555
Al5 O29 1.903218 1_555
Al5 O65 1.940802 1_555
Al5 O64 1.941584 1_555
Al5 O28 2.256104 1_555
O0 Si0 1.625348 1_555
O1 Si1 1.623165 1_555
O2 Si2 1.633806 1_555
O3 Si3 1.618331 1_555
O4 Si4 1.621642 1_555
O5 Si5 1.624012 1_545
O6 Si5 1.639330 1_555
O6 Zr0 2.029578 1_565
O7 Si3 1.639549 1_555
O7 Zr0 2.063893 1_455
O8 Si4 1.634491 1_455
O8 Zr0 2.029248 1_465
O9 Si1 1.626234 1_555
O10 Si2 1.632243 1_455
O11 Si0 1.622302 1_565
O12 Si6 1.646783 1_555
O12 Zr1 2.081069 1_555
O13 Si7 1.649448 1_555
O13 Zr1 2.064957 1_555
O14 Si8 1.652416 1_555
O14 Zr1 2.069354 1_555
O15 Si9 1.659054 1_555
O15 Zr2 2.024811 1_555
O16 S0 1.497123 1_555
O16 Zr2 2.249880 1_555
O17 Si10 1.669235 1_555
O17 Zr2 2.048599 1_555
O18 Si10 1.636015 1_555
O19 Si9 1.639451 1_555
O20 S0 1.484710 1_555
O21 Si7 1.635021 1_555
O21 Zr3 2.033904 1_555
O22 Si8 1.636461 1_555
O22 Zr3 2.027033 1_555
O23 Si6 1.642943 1_555
O23 Zr3 1.971216 1_555
O24 S1 1.476639 1_555
O25 Si11 1.635235 1_555
O26 Si12 1.649815 1_555
O27 Si13 1.633636 1_555
O28 S2 1.485067 1_555
O29 Si14 1.635332 1_555
O30 Si14 1.648776 1_555
O30 Zr4 2.017192 1_555
O31 Si13 1.648877 1_555
O31 Zr4 2.024501 1_555
O32 S2 1.484644 1_555
O32 Zr4 2.215296 1_555
O33 Si11 1.654936 1_555
O33 Zr5 2.050300 1_555
O34 Si12 1.658838 1_555
O34 Zr5 2.034805 1_555
O35 S1 1.496896 1_555
O35 Zr5 2.244017 1_555
O36 Si14 1.646357 1_555
O37 Si13 1.647036 1_555
O38 S2 1.472838 1_555
O39 Si11 1.651805 1_555
O40 Si12 1.657106 1_555
O41 S1 1.482157 1_555
O42 Si6 1.621793 1_555
O42 Zr0 2.114038 1_555
O43 Si7 1.623624 1_555
O43 Zr0 2.122472 1_455
O44 Si8 1.631276 1_555
O44 Zr0 2.149159 1_565
O45 Si9 1.654174 1_555
O46 S0 1.481326 1_555
O47 Si10 1.657010 1_555
O48 Si5 1.643376 1_545
O48 Zr1 2.155961 1_555
O49 Si3 1.638238 1_555
O49 Zr1 2.125209 1_555
O50 Si4 1.638054 1_555
O50 Zr1 2.164603 1_555
O51 Si1 1.666705 1_555
O51 Zr2 2.041270 1_555
O52 Si2 1.664516 1_555
O52 Zr2 2.152759 1_555
O53 Si0 1.652723 1_555
O53 Zr2 2.144566 1_555
O54 S1 1.495216 1_555
O55 Si11 1.652433 1_655
O56 Si12 1.657077 1_545
O57 Si13 1.660259 1_545
O57 Zr3 2.121820 1_555
O58 S2 1.491813 1_555
O58 Zr3 2.305137 1_555
O59 Si14 1.660735 1_655
O59 Zr3 2.110299 1_555
O60 Si10 1.672457 1_555
O61 Si9 1.660719 1_455
O62 S0 1.482291 1_565
O63 Si7 1.619644 1_565
O64 Si8 1.621473 1_555
O65 Si6 1.615905 1_455
O66 Si0 1.663032 1_565
O66 Zr4 2.032664 1_555
O67 Si1 1.649760 1_555
O67 Zr4 2.136674 1_555
O68 Si2 1.664030 1_455
O68 Zr4 2.140389 1_555
O69 Si3 1.636533 1_555
O69 Zr5 2.115005 1_555
O70 Si4 1.652426 1_455
O70 Zr5 2.029617 1_555
O71 Si5 1.641227 1_555
O71 Zr5 2.103147 1_555
