# generated using pymatgen
data_Na2YNb3Si2(PO6)4
_symmetry_space_group_name_H-M   'P 1'
_cell_length_a   8.92896845
_cell_length_b   8.93350881
_cell_length_c   23.13388798
_cell_angle_alpha   90.05853625
_cell_angle_beta   90.03997042
_cell_angle_gamma   119.98830705
_symmetry_Int_Tables_number   1
_chemical_formula_structural   Na2YNb3Si2(PO6)4
_chemical_formula_sum   'Na6 Y3 Nb9 Si6 P12 O72'
_cell_volume   1598.28096958
_cell_formula_units_Z   3
loop_
 _symmetry_equiv_pos_site_id
 _symmetry_equiv_pos_as_xyz
  1  'x, y, z'
loop_
 _atom_site_type_symbol
 _atom_site_label
 _atom_site_symmetry_multiplicity
 _atom_site_fract_x
 _atom_site_fract_y
 _atom_site_fract_z
 _atom_site_occupancy
  Na  Na0  1  0.99613362  0.99852469  0.49645422  1
  Na  Na1  1  0.99847941  0.99830010  0.00183212  1
  Na  Na2  1  0.66837332  0.33381582  0.83315921  1
  Na  Na3  1  0.66637626  0.33499965  0.32767995  1
  Na  Na4  1  0.33352683  0.66234215  0.16444727  1
  Na  Na5  1  0.32833855  0.66324992  0.66785976  1
  Y  Y0  1  0.99887131  0.00043496  0.35738951  1
  Y  Y1  1  0.66988495  0.33504523  0.68802896  1
  Y  Y2  1  0.66514968  0.33483648  0.18263557  1
  Nb  Nb0  1  0.00045342  0.00012936  0.85853975  1
  Nb  Nb1  1  0.99922965  0.00218207  0.64507572  1
  Nb  Nb2  1  0.00302744  0.00344031  0.14632810  1
  Nb  Nb3  1  0.66133073  0.33175744  0.97826897  1
  Nb  Nb4  1  0.67007950  0.32927147  0.47883141  1
  Nb  Nb5  1  0.33303934  0.66437411  0.01773628  1
  Nb  Nb6  1  0.33597379  0.66744074  0.52064699  1
  Nb  Nb7  1  0.33770658  0.67129292  0.31112078  1
  Nb  Nb8  1  0.33234974  0.66609215  0.81417210  1
  Si  Si0  1  0.96060703  0.33448838  0.58355708  1
  Si  Si1  1  0.37069350  0.33418387  0.08259676  1
  Si  Si2  1  0.61897841  0.66398162  0.91603369  1
  Si  Si3  1  0.04308916  0.38099547  0.91599509  1
  Si  Si4  1  0.33638399  0.95446361  0.91639240  1
  Si  Si5  1  0.61789661  0.95661300  0.41791168  1
  P  P0  1  0.28844857  0.99428746  0.25088363  1
  P  P1  1  0.70743398  0.71128042  0.25061819  1
  P  P2  1  0.00583046  0.29486901  0.25092601  1
  P  P3  1  0.27889633  0.28685810  0.75195845  1
  P  P4  1  0.00780431  0.72122190  0.75176215  1
  P  P5  1  0.71209916  0.99110699  0.75197105  1
  P  P6  1  0.37306955  0.04117003  0.58220023  1
  P  P7  1  0.66817808  0.62578085  0.58236594  1
  P  P8  1  0.96189205  0.62936618  0.08149133  1
  P  P9  1  0.66692629  0.03768526  0.08132863  1
  P  P10  1  0.34398148  0.38875633  0.41797366  1
  P  P11  1  0.04654660  0.65821515  0.41801311  1
  O  O0  1  0.20860340  0.01589846  0.30509260  1
  O  O1  1  0.80765816  0.79352798  0.30508647  1
  O  O2  1  0.98439238  0.19131231  0.30466397  1
  O  O3  1  0.18204036  0.17703348  0.80510487  1
  O  O4  1  0.99560393  0.81866056  0.80526953  1
  O  O5  1  0.82294866  0.00579705  0.80515914  1
  O  O6  1  0.80520842  0.97512773  0.69596717  1
  O  O7  1  0.16992872  0.19381913  0.69585052  1
  O  O8  1  0.02455720  0.82875345  0.69599347  1
  O  O9  1  0.79872583  0.82647329  0.19580073  1
  O  O10  1  0.02583817  0.19741783  0.19569340  1
  O  O11  1  0.17124160  0.97291264  0.19593028  1
  O  O12  1  0.89158343  0.37577952  0.64066065  1
  O  O13  1  0.47872071  0.10866699  0.63665741  1
  O  O14  1  0.62702647  0.52067905  0.63700697  1
  O  O15  1  0.89858250  0.52530681  0.13628955  1
  O  O16  1  0.63126019  0.10465910  0.13625479  1
  O  O17  1  0.47813098  0.37615663  0.14024047  1
  O  O18  1  0.47059297  0.30472800  0.02660613  1
  O  O19  1  0.84186182  0.53599968  0.02874727  1
  O  O20  1  0.69704540  0.15804603  0.02848377  1
  O  O21  1  0.46259538  0.16070591  0.52900112  1
  O  O22  1  0.69517896  0.53573479  0.52924440  1
  O  O23  1  0.83079639  0.30340223  0.52702259  1
  O  O24  1  0.53035880  0.69771072  0.97175531  1
  O  O25  1  0.16730209  0.47043030  0.97138841  1
  O  O26  1  0.30211542  0.83386406  0.97207037  1
  O  O27  1  0.50989778  0.83959012  0.47308482  1
  O  O28  1  0.32654353  0.48272198  0.47166356  1
  O  O29  1  0.15442195  0.66901859  0.47164608  1
  O  O30  1  0.13083298  0.63364513  0.36237668  1
  O  O31  1  0.49718166  0.85896288  0.35963219  1
  O  O32  1  0.36176133  0.49708194  0.36260657  1
  O  O33  1  0.13737283  0.50192410  0.85854545  1
  O  O34  1  0.36419011  0.86186734  0.85866688  1
  O  O35  1  0.49781844  0.63478544  0.85853231  1
  O  O36  1  0.03003365  0.81819860  0.41790237  1
  O  O37  1  0.80543938  0.97990562  0.42045468  1
  O  O38  1  0.18691209  0.21008273  0.41752479  1
  O  O39  1  0.02381506  0.19004066  0.90668575  1
  O  O40  1  0.16771245  0.97858846  0.90677907  1
  O  O41  1  0.81070438  0.83422266  0.90699069  1
  O  O42  1  0.97684714  0.15739954  0.59174701  1
  O  O43  1  0.18976375  0.02176571  0.58978194  1
  O  O44  1  0.83388658  0.80809211  0.59038416  1
  O  O45  1  0.97493150  0.81042640  0.08933741  1
  O  O46  1  0.83164229  0.01856987  0.08905130  1
  O  O47  1  0.17694281  0.15664925  0.09105242  1
  O  O48  1  0.69330182  0.15071284  0.75006077  1
  O  O49  1  0.45648219  0.30423037  0.74991378  1
  O  O50  1  0.84626274  0.54377952  0.75102211  1
  O  O51  1  0.67685965  0.52931693  0.24585486  1
  O  O52  1  0.85477027  0.32488823  0.24429795  1
  O  O53  1  0.47138881  0.14198456  0.24427154  1
  O  O54  1  0.64161455  0.49545975  0.92534017  1
  O  O55  1  0.85384266  0.35985315  0.92561454  1
  O  O56  1  0.50755506  0.14462348  0.92485143  1
  O  O57  1  0.62466939  0.14554330  0.42506585  1
  O  O58  1  0.51245949  0.37967673  0.42513330  1
  O  O59  1  0.86349228  0.49290739  0.42500490  1
  O  O60  1  0.33875621  0.49701190  0.07039894  1
  O  O61  1  0.14676947  0.66094356  0.07036906  1
  O  O62  1  0.50967117  0.85512559  0.07051691  1
  O  O63  1  0.34250036  0.85606410  0.57119767  1
  O  O64  1  0.51505728  0.65933406  0.57147386  1
  O  O65  1  0.15537602  0.49387804  0.57047706  1
  O  O66  1  0.29296600  0.81875166  0.25552374  1
  O  O67  1  0.52381457  0.70027080  0.25614800  1
  O  O68  1  0.17881612  0.47393084  0.25557131  1
  O  O69  1  0.28975459  0.46609408  0.75522112  1
  O  O70  1  0.17531959  0.70797520  0.75577189  1
  O  O71  1  0.53286998  0.82264788  0.75522599  1
loop_
_geom_bond_atom_site_label_1
_geom_bond_atom_site_label_2
_geom_bond_distance
_geom_bond_site_symmetry_2
Na0 O37 2.393766 1_555
Na0 O36 2.543865 1_655
Na0 O38 2.569210 1_665
Na0 O42 2.672518 1_565
Na0 O44 2.694984 1_555
Na0 O43 2.707162 1_665
Na1 O47 2.556671 1_665
Na1 O46 2.568315 1_565
Na1 O45 2.571741 1_555
Na1 O41 2.702790 1_554
Na1 O40 2.723889 1_654
Na1 O39 2.729681 1_664
Na2 O50 2.585538 1_555
Na2 O48 2.603642 1_555
Na2 O49 2.617647 1_555
Na2 O55 2.642019 1_555
Na2 O56 2.646411 1_555
Na2 O54 2.651274 1_555
Na3 O51 2.539675 1_555
Na3 O52 2.591284 1_555
Na3 O53 2.591358 1_555
Na3 O57 2.730895 1_555
Na3 O59 2.768218 1_555
Na3 O58 2.771555 1_555
Na4 O68 2.621495 1_555
Na4 O67 2.630584 1_555
Na4 O60 2.641941 1_555
Na4 O66 2.650234 1_555
Na4 O62 2.732440 1_555
Na4 O61 2.737084 1_555
Na5 O69 2.589785 1_555
Na5 O70 2.590462 1_555
Na5 O71 2.614803 1_555
Na5 O65 2.720671 1_555
Na5 O63 2.788191 1_555
Na5 O64 2.795720 1_555
Nb0 O40 1.948898 1_545
Nb0 O39 1.950507 1_555
Nb0 O41 1.954322 1_445
Nb0 O4 2.018505 1_445
Nb0 O3 2.024809 1_555
Nb0 O5 2.029083 1_455
Nb1 O42 1.940334 1_555
Nb1 O7 2.004665 1_655
Nb1 O6 2.007636 1_545
Nb1 O8 2.047602 1_645
Nb1 O44 2.054457 1_545
Nb1 O43 2.065708 1_655
Nb2 O47 1.949776 1_555
Nb2 O10 1.997854 1_555
Nb2 O11 2.013644 1_545
Nb2 O9 2.064128 1_445
Nb2 O46 2.078480 1_455
Nb2 O45 2.082502 1_445
Nb3 O18 1.949710 1_556
Nb3 O56 1.976352 1_555
Nb3 O54 1.982349 1_555
Nb3 O55 2.018355 1_555
Nb3 O19 2.084254 1_556
Nb3 O20 2.087408 1_556
Nb4 O23 1.919751 1_555
Nb4 O57 1.932692 1_555
Nb4 O59 2.037901 1_555
Nb4 O21 2.065103 1_555
Nb4 O58 2.087796 1_555
Nb4 O22 2.096271 1_555
Nb5 O25 1.942269 1_554
Nb5 O60 1.949920 1_555
Nb5 O24 1.950149 1_554
Nb5 O26 1.976285 1_554
Nb5 O62 2.046605 1_555
Nb5 O61 2.049797 1_555
Nb6 O27 1.898912 1_555
Nb6 O65 1.959628 1_555
Nb6 O28 1.967598 1_555
Nb6 O29 1.983277 1_555
Nb6 O64 2.014452 1_555
Nb6 O63 2.026855 1_555
Nb7 O31 1.924932 1_555
Nb7 O67 2.004827 1_555
Nb7 O66 2.019404 1_555
Nb7 O32 2.055352 1_555
Nb7 O68 2.065225 1_555
Nb7 O30 2.077013 1_555
Nb8 O33 1.920614 1_555
Nb8 O34 1.923039 1_555
Nb8 O35 1.930233 1_555
Nb8 O70 2.110455 1_555
Nb8 O69 2.124089 1_555
Nb8 O71 2.127293 1_555
O0 P0 1.502189 1_545
O0 Y0 2.175923 1_455
O1 P1 1.505890 1_555
O1 Y0 2.152544 1_565
O2 P2 1.504534 1_655
O2 Y0 2.153282 1_555
O3 P3 1.542043 1_555
O4 P4 1.547448 1_655
O5 P5 1.542399 1_545
O6 P5 1.584254 1_555
O7 P3 1.584271 1_555
O8 P4 1.571250 1_555
O9 P1 1.580253 1_555
O10 P2 1.604985 1_555
O11 P0 1.595540 1_555
O12 Si0 1.577473 1_555
O12 Y1 2.129682 1_555
O13 P6 1.506248 1_555
O13 Y1 2.226498 1_555
O14 P7 1.507528 1_555
O14 Y1 2.219814 1_555
O15 P8 1.506281 1_555
O15 Y2 2.202438 1_555
O16 P9 1.504474 1_555
O16 Y2 2.200952 1_555
O17 Si1 1.573774 1_555
O17 Y2 2.121631 1_555
O18 Si1 1.666799 1_555
O19 P8 1.560658 1_555
O20 P9 1.561114 1_555
O21 P6 1.563557 1_555
O22 P7 1.551678 1_555
O23 Si0 1.675247 1_555
O24 Si2 1.617889 1_555
O25 Si3 1.618855 1_555
O26 Si4 1.608502 1_555
O27 Si5 1.627458 1_555
O28 P10 1.549325 1_555
O29 P11 1.543273 1_555
O30 P11 1.561112 1_555
O31 Si5 1.672166 1_555
O32 P10 1.565737 1_555
O33 Si3 1.654534 1_555
O34 Si4 1.653108 1_555
O35 Si2 1.650188 1_555
O36 P11 1.508330 1_555
O36 Y0 2.268148 1_465
O37 Si5 1.581908 1_555
O37 Y0 2.198319 1_565
O38 P10 1.508961 1_555
O38 Y0 2.260543 1_455
O39 Si3 1.640671 1_555
O40 Si4 1.639584 1_555
O41 Si2 1.638874 1_555
O42 Si0 1.670217 1_555
O43 P6 1.567336 1_555
O44 P7 1.570441 1_555
O45 P8 1.572873 1_555
O46 P9 1.573191 1_555
O47 Si1 1.674770 1_555
O48 P5 1.517396 1_545
O48 Y1 2.272309 1_555
O49 P3 1.514845 1_555
O49 Y1 2.288322 1_555
O50 P4 1.519166 1_655
O50 Y1 2.266421 1_555
O51 P1 1.511664 1_555
O51 Y2 2.231904 1_555
O52 P2 1.508678 1_655
O52 Y2 2.248716 1_555
O53 P0 1.509573 1_545
O53 Y2 2.241287 1_555
O54 Si2 1.630487 1_555
O55 Si3 1.619292 1_655
O56 Si4 1.632043 1_545
O57 Si5 1.666474 1_545
O58 P10 1.555215 1_555
O59 P11 1.570515 1_655
O60 Si1 1.640815 1_555
O61 P8 1.551140 1_455
O62 P9 1.550309 1_565
O63 P6 1.556172 1_565
O64 P7 1.559472 1_555
O65 Si0 1.633918 1_455
O66 P0 1.592424 1_555
O67 P1 1.597881 1_555
O68 P2 1.576599 1_555
O69 P3 1.556764 1_555
O70 P4 1.560966 1_555
O71 P5 1.557052 1_555
