# generated using pymatgen
data_Na6Ca6Hf2SiS11O48
_symmetry_space_group_name_H-M   'P 1'
_cell_length_a   18.31683915
_cell_length_b   9.14304780
_cell_length_c   23.93492345
_cell_angle_alpha   90.16794455
_cell_angle_beta   89.85370339
_cell_angle_gamma   119.96268390
_symmetry_Int_Tables_number   1
_chemical_formula_structural   Na6Ca6Hf2SiS11O48
_chemical_formula_sum   'Na18 Ca18 Hf6 Si3 S33 O144'
_cell_volume   3472.68322175
_cell_formula_units_Z   3
loop_
 _symmetry_equiv_pos_site_id
 _symmetry_equiv_pos_as_xyz
  1  'x, y, z'
loop_
 _atom_site_type_symbol
 _atom_site_label
 _atom_site_symmetry_multiplicity
 _atom_site_fract_x
 _atom_site_fract_y
 _atom_site_fract_z
 _atom_site_occupancy
  Na  Na0  1  0.68864898  0.36659582  0.24354870  1
  Na  Na1  1  0.98994356  0.63549770  0.25519469  1
  Na  Na2  1  0.33580329  0.96163975  0.59567044  1
  Na  Na3  1  0.83691846  0.96324203  0.59588991  1
  Na  Na4  1  0.33380957  0.69480831  0.08165194  1
  Na  Na5  1  0.34520393  0.66421917  0.41395345  1
  Na  Na6  1  0.00879143  0.99473499  0.49517221  1
  Na  Na7  1  0.51252303  0.01565813  0.50088949  1
  Na  Na8  1  0.00175322  0.00030454  0.99773414  1
  Na  Na9  1  0.51212845  0.01771837  0.00153910  1
  Na  Na10  1  0.33295688  0.32212529  0.83864324  1
  Na  Na11  1  0.83200115  0.32209745  0.83867835  1
  Na  Na12  1  0.32920256  0.32033365  0.32967265  1
  Na  Na13  1  0.83795518  0.34384829  0.33395056  1
  Na  Na14  1  0.16852971  0.67030115  0.16534931  1
  Na  Na15  1  0.66837328  0.67542707  0.15615312  1
  Na  Na16  1  0.17270071  0.67552928  0.67845656  1
  Na  Na17  1  0.67411963  0.67640925  0.67921743  1
  Ca  Ca0  1  0.99875545  0.99766979  0.35074191  1
  Ca  Ca1  1  0.49860164  0.00082900  0.34854563  1
  Ca  Ca2  1  0.00002188  0.99821227  0.65200213  1
  Ca  Ca3  1  0.50044353  0.99792267  0.65231633  1
  Ca  Ca4  1  0.50456021  0.00770912  0.15256504  1
  Ca  Ca5  1  0.33496333  0.33197366  0.18181992  1
  Ca  Ca6  1  0.83172331  0.32938621  0.17923857  1
  Ca  Ca7  1  0.33049090  0.32454042  0.98375010  1
  Ca  Ca8  1  0.83456503  0.33305603  0.98522435  1
  Ca  Ca9  1  0.33432729  0.33029030  0.48169602  1
  Ca  Ca10  1  0.83250142  0.33752083  0.47832465  1
  Ca  Ca11  1  0.16184471  0.66885832  0.01046398  1
  Ca  Ca12  1  0.66703456  0.66800162  0.01113720  1
  Ca  Ca13  1  0.15941565  0.65826884  0.51997826  1
  Ca  Ca14  1  0.66183815  0.65886123  0.52110764  1
  Ca  Ca15  1  0.16712757  0.66639072  0.31547649  1
  Ca  Ca16  1  0.17088061  0.67576909  0.81603065  1
  Ca  Ca17  1  0.67112144  0.67641695  0.81617095  1
  Hf  Hf0  1  0.99379511  0.00086068  0.84500949  1
  Hf  Hf1  1  0.49438927  0.00146693  0.84577125  1
  Hf  Hf2  1  0.99125336  0.98997522  0.15247636  1
  Hf  Hf3  1  0.33392693  0.32941705  0.69042069  1
  Hf  Hf4  1  0.83402570  0.33028579  0.69012830  1
  Hf  Hf5  1  0.67266068  0.67448276  0.31561034  1
  Si  Si0  1  0.85026961  0.70035547  0.25213488  1
  Si  Si1  1  0.34979239  0.99858490  0.74356842  1
  Si  Si2  1  0.84933575  0.99920676  0.74342598  1
  S  S0  1  0.14395809  0.99885553  0.24705283  1
  S  S1  1  0.64991169  0.99330856  0.25321506  1
  S  S2  1  0.34813241  0.69556806  0.25000029  1
  S  S3  1  0.00105869  0.29537616  0.24737875  1
  S  S4  1  0.50453595  0.31185185  0.25431485  1
  S  S5  1  0.14958976  0.29019381  0.74984998  1
  S  S6  1  0.64949401  0.29007739  0.74991811  1
  S  S7  1  0.99506176  0.69926727  0.74993192  1
  S  S8  1  0.49499694  0.69912176  0.74995214  1
  S  S9  1  0.47693379  0.33364910  0.58675872  1
  S  S10  1  0.97546761  0.33314510  0.58609395  1
  S  S11  1  0.19120302  0.04669657  0.58660986  1
  S  S12  1  0.69185410  0.04900624  0.58536709  1
  S  S13  1  0.33404828  0.62693531  0.58351273  1
  S  S14  1  0.83325944  0.62438235  0.58550759  1
  S  S15  1  0.48310661  0.63438533  0.08334878  1
  S  S16  1  0.98640076  0.64654245  0.08763590  1
  S  S17  1  0.33256207  0.02431428  0.08352448  1
  S  S18  1  0.83719985  0.02861433  0.08502587  1
  S  S19  1  0.17874737  0.32806851  0.08573771  1
  S  S20  1  0.68079263  0.33535328  0.08450448  1
  S  S21  1  0.32338467  0.67539488  0.91548098  1
  S  S22  1  0.82326848  0.67489468  0.91362961  1
  S  S23  1  0.01560102  0.35551327  0.91310696  1
  S  S24  1  0.51596654  0.35653776  0.91291455  1
  S  S25  1  0.16025793  0.97117006  0.91307769  1
  S  S26  1  0.66109846  0.97096408  0.91385214  1
  S  S27  1  0.31706931  0.96245844  0.41906038  1
  S  S28  1  0.81076333  0.95782818  0.41723995  1
  S  S29  1  0.16868973  0.36969324  0.41760665  1
  S  S30  1  0.66637049  0.37712396  0.41304687  1
  S  S31  1  0.01598788  0.66724266  0.41504278  1
  S  S32  1  0.52029658  0.66730464  0.41416237  1
  O  O0  1  0.10906671  0.01979910  0.29911158  1
  O  O1  1  0.60868214  0.02171374  0.30149468  1
  O  O2  1  0.39532355  0.77987087  0.30202017  1
  O  O3  1  0.91202358  0.78315359  0.30350293  1
  O  O4  1  0.49357772  0.20754873  0.30344671  1
  O  O5  1  0.99580579  0.20581325  0.29851230  1
  O  O6  1  0.10712253  0.17758602  0.79938148  1
  O  O7  1  0.60671282  0.17728442  0.79943095  1
  O  O8  1  0.48441275  0.78763201  0.79961064  1
  O  O9  1  0.98468087  0.78835326  0.79961866  1
  O  O10  1  0.41567250  0.02044534  0.79710166  1
  O  O11  1  0.91512760  0.02090326  0.79703870  1
  O  O12  1  0.38875066  0.98718102  0.68474569  1
  O  O13  1  0.88864664  0.98722785  0.68490213  1
  O  O14  1  0.10280089  0.21423835  0.69876944  1
  O  O15  1  0.60277639  0.21432312  0.69880292  1
  O  O16  1  0.00899423  0.79789179  0.69930877  1
  O  O17  1  0.50883603  0.79724480  0.69922823  1
  O  O18  1  0.39299278  0.79565026  0.19988760  1
  O  O19  1  0.89820069  0.82118099  0.19579693  1
  O  O20  1  0.00553536  0.19789874  0.19749626  1
  O  O21  1  0.52422945  0.24384530  0.20396424  1
  O  O22  1  0.08864310  0.99079392  0.19844606  1
  O  O23  1  0.60052441  0.95990266  0.20188268  1
  O  O24  1  0.42772107  0.34143011  0.63652252  1
  O  O25  1  0.92667479  0.34177905  0.63638656  1
  O  O26  1  0.24505267  0.14774651  0.63610023  1
  O  O27  1  0.74460770  0.14820861  0.63530533  1
  O  O28  1  0.33097936  0.52138493  0.63216879  1
  O  O29  1  0.82989685  0.52339542  0.63581399  1
  O  O30  1  0.44292105  0.53684309  0.13445967  1
  O  O31  1  0.94751444  0.55016168  0.13927137  1
  O  O32  1  0.32561717  0.10702559  0.13443939  1
  O  O33  1  0.82747953  0.10858336  0.13554092  1
  O  O34  1  0.23350670  0.35419306  0.13428871  1
  O  O35  1  0.72344061  0.34431955  0.13868177  1
  O  O36  1  0.21390986  0.29810375  0.03433673  1
  O  O37  1  0.72889785  0.32363160  0.03699423  1
  O  O38  1  0.43054839  0.54698764  0.03384273  1
  O  O39  1  0.93425196  0.56988868  0.03806267  1
  O  O40  1  0.33876983  0.12106596  0.03307444  1
  O  O41  1  0.85111139  0.13047210  0.03474022  1
  O  O42  1  0.22978652  0.13835779  0.53496342  1
  O  O43  1  0.73071265  0.14104016  0.53386850  1
  O  O44  1  0.33820418  0.54945806  0.53025044  1
  O  O45  1  0.83623121  0.54041877  0.53413736  1
  O  O46  1  0.42938889  0.31815107  0.53571156  1
  O  O47  1  0.92700222  0.31645930  0.53541571  1
  O  O48  1  0.29143003  0.70471722  0.96914257  1
  O  O49  1  0.78954366  0.70754285  0.96514332  1
  O  O50  1  0.06428041  0.42493628  0.96509412  1
  O  O51  1  0.56458647  0.42622948  0.96466933  1
  O  O52  1  0.14677091  0.87440733  0.96531641  1
  O  O53  1  0.64747544  0.87238029  0.96559572  1
  O  O54  1  0.27592173  0.86797638  0.47097237  1
  O  O55  1  0.77098260  0.86769416  0.46927389  1
  O  O56  1  0.16332987  0.45482092  0.46871691  1
  O  O57  1  0.66015459  0.46038800  0.46366445  1
  O  O58  1  0.06651815  0.67265187  0.46387484  1
  O  O59  1  0.56570254  0.67969272  0.46583308  1
  O  O60  1  0.05592885  0.65851013  0.36170397  1
  O  O61  1  0.56906633  0.66076330  0.36459240  1
  O  O62  1  0.26690359  0.87493127  0.36915726  1
  O  O63  1  0.75626141  0.85154202  0.36821153  1
  O  O64  1  0.17653559  0.47117388  0.36743241  1
  O  O65  1  0.66914095  0.48012136  0.36212570  1
  O  O66  1  0.05789586  0.45957080  0.86448291  1
  O  O67  1  0.55822009  0.45994537  0.86403425  1
  O  O68  1  0.17122562  0.88518735  0.86502553  1
  O  O69  1  0.67197064  0.88626521  0.86516705  1
  O  O70  1  0.26806359  0.65450364  0.86882040  1
  O  O71  1  0.77058726  0.65185234  0.86498013  1
  O  O72  1  0.00853380  0.82146487  0.41721939  1
  O  O73  1  0.50822354  0.81669038  0.41044207  1
  O  O74  1  0.40046944  0.96691508  0.41623860  1
  O  O75  1  0.89473193  0.97731956  0.41166584  1
  O  O76  1  0.09530530  0.19798891  0.41511320  1
  O  O77  1  0.59089538  0.20816703  0.40875163  1
  O  O78  1  0.00822820  0.18183362  0.90470616  1
  O  O79  1  0.50893963  0.18266281  0.90447568  1
  O  O80  1  0.08282264  0.98763546  0.90428723  1
  O  O81  1  0.58339624  0.98727719  0.90478786  1
  O  O82  1  0.40941581  0.83263730  0.90493161  1
  O  O83  1  0.91014059  0.83297523  0.90403912  1
  O  O84  1  0.48422697  0.17910170  0.58959217  1
  O  O85  1  0.98324120  0.17958351  0.58987336  1
  O  O86  1  0.10575648  0.02013578  0.59173699  1
  O  O87  1  0.60598264  0.02224132  0.59000035  1
  O  O88  1  0.40999918  0.79903666  0.58609544  1
  O  O89  1  0.90909072  0.79636346  0.58719402  1
  O  O90  1  0.48595464  0.80153055  0.08678343  1
  O  O91  1  0.99543130  0.82153284  0.09465714  1
  O  O92  1  0.40838009  0.00212405  0.08655708  1
  O  O93  1  0.91707334  0.01572458  0.09218246  1
  O  O94  1  0.09225070  0.17816766  0.09525957  1
  O  O95  1  0.59566232  0.18089207  0.08450925  1
  O  O96  1  0.34723123  0.18287857  0.74166927  1
  O  O97  1  0.84698308  0.18312772  0.74163540  1
  O  O98  1  0.23607804  0.30573220  0.74459923  1
  O  O99  1  0.73576926  0.30516883  0.74485602  1
  O  O100  1  0.41247882  0.53270612  0.74390755  1
  O  O101  1  0.91271359  0.53294708  0.74420174  1
  O  O102  1  0.33948531  0.52520633  0.24821050  1
  O  O103  1  0.83219198  0.50785929  0.24361234  1
  O  O104  1  0.43181008  0.33626413  0.24811817  1
  O  O105  1  0.92598000  0.31628554  0.24210897  1
  O  O106  1  0.23008435  0.14016204  0.23978372  1
  O  O107  1  0.73502615  0.14275275  0.24788579  1
  O  O108  1  0.33675512  0.52896240  0.91937623  1
  O  O109  1  0.83737813  0.52981413  0.91932284  1
  O  O110  1  0.42902192  0.32741674  0.91784486  1
  O  O111  1  0.92906425  0.32805135  0.91861017  1
  O  O112  1  0.23491422  0.14355969  0.91781361  1
  O  O113  1  0.73564688  0.14335722  0.91927416  1
  O  O114  1  0.33083508  0.13607947  0.41988935  1
  O  O115  1  0.81291863  0.12125278  0.41324555  1
  O  O116  1  0.24954638  0.36332761  0.41891827  1
  O  O117  1  0.74436357  0.36754803  0.41111933  1
  O  O118  1  0.43486218  0.51380391  0.41292886  1
  O  O119  1  0.93104097  0.51263830  0.41663804  1
  O  O120  1  0.17302833  0.48526349  0.07982177  1
  O  O121  1  0.67309908  0.48935443  0.08061742  1
  O  O122  1  0.07196780  0.67047910  0.08164242  1
  O  O123  1  0.56929028  0.65937561  0.07871877  1
  O  O124  1  0.25712346  0.84880804  0.08034189  1
  O  O125  1  0.76461418  0.85601360  0.07977018  1
  O  O126  1  0.19166004  0.88367771  0.58759798  1
  O  O127  1  0.69195051  0.88549192  0.58625232  1
  O  O128  1  0.25771817  0.64635408  0.58531405  1
  O  O129  1  0.75692993  0.64496196  0.58652231  1
  O  O130  1  0.05885760  0.48765201  0.58732180  1
  O  O131  1  0.56016155  0.48778679  0.58759810  1
  O  O132  1  0.14157540  0.83242845  0.24564607  1
  O  O133  1  0.65861719  0.83982670  0.26380378  1
  O  O134  1  0.26366311  0.68189289  0.25113482  1
  O  O135  1  0.75453221  0.68162062  0.26013363  1
  O  O136  1  0.07749302  0.46669841  0.24556274  1
  O  O137  1  0.58349280  0.48330366  0.26328654  1
  O  O138  1  0.16097961  0.45845901  0.75831217  1
  O  O139  1  0.66068050  0.45836108  0.75831654  1
  O  O140  1  0.06333733  0.66327403  0.75851944  1
  O  O141  1  0.56312516  0.66254288  0.75843605  1
  O  O142  1  0.25610971  0.84415498  0.75232058  1
  O  O143  1  0.75566765  0.84464626  0.75213289  1
loop_
_geom_bond_atom_site_label_1
_geom_bond_atom_site_label_2
_geom_bond_distance
_geom_bond_site_symmetry_2
Na0 O103 2.277961 1_555
Na0 O135 2.536482 1_555
Na0 O107 2.580561 1_555
Na0 O35 2.620323 1_555
Na0 O137 2.667802 1_555
Na0 O21 2.803463 1_555
Na1 O132 2.451976 1_655
Na1 O103 2.534157 1_555
Na1 O105 2.563157 1_555
Na1 O3 2.665257 1_555
Na1 O136 2.734018 1_655
Na1 O60 2.786135 1_655
Na1 O31 2.881645 1_555
Na2 O12 2.306942 1_555
Na2 O126 2.374504 1_555
Na2 O84 2.442500 1_565
Na2 O88 2.474738 1_555
Na2 O128 2.509221 1_555
Na3 O13 2.298889 1_555
Na3 O127 2.392935 1_555
Na3 O85 2.412647 1_565
Na3 O89 2.475966 1_555
Na3 O129 2.530678 1_555
Na4 O124 2.435691 1_555
Na4 O92 2.437163 1_565
Na4 O90 2.453240 1_555
Na4 O120 2.590332 1_555
Na4 O48 2.818664 1_554
Na4 O38 2.940852 1_555
Na4 O34 2.992875 1_555
Na4 O18 3.005983 1_555
Na5 O116 2.416303 1_555
Na5 O74 2.426543 1_555
Na5 O73 2.590004 1_555
Na5 O118 2.616199 1_555
Na5 O2 2.858839 1_555
Na5 O64 2.908467 1_555
Na5 O44 2.957452 1_555
Na6 O72 2.442582 1_555
Na6 O76 2.588498 1_565
Na6 O75 2.841161 1_455
Na6 O86 2.855909 1_565
Na6 O89 2.858348 1_455
Na6 O85 2.995888 1_465
Na7 O87 2.719971 1_555
Na7 O77 2.739509 1_555
Na7 O74 2.760188 1_545
Na7 O84 2.785450 1_555
Na7 O73 2.799438 1_545
Na7 O88 2.810224 1_545
Na8 O80 2.715578 1_545
Na8 O78 2.747778 1_555
Na8 O83 2.760504 1_445
Na8 O93 2.781136 1_456
Na8 O91 2.810433 1_446
Na8 O94 2.854115 1_556
Na9 O95 2.495725 1_555
Na9 O90 2.715111 1_545
Na9 O92 2.735645 1_555
Na9 O81 2.736395 1_544
Na9 O79 2.790030 1_554
Na9 O82 2.927288 1_544
Na10 O112 2.559965 1_555
Na10 O110 2.573644 1_555
Na10 O108 2.676370 1_555
Na10 O96 2.718210 1_555
Na10 O98 2.826806 1_555
Na10 O100 2.859649 1_555
Na11 O113 2.574284 1_555
Na11 O111 2.596946 1_555
Na11 O109 2.671126 1_555
Na11 O97 2.722589 1_555
Na11 O99 2.814153 1_555
Na11 O101 2.859575 1_555
Na12 O102 2.648210 1_555
Na12 O104 2.659573 1_555
Na12 O116 2.719978 1_555
Na12 O118 2.724891 1_555
Na12 O114 2.752018 1_555
Na12 O106 2.765951 1_555
Na13 O119 2.564505 1_555
Na13 O117 2.598044 1_555
Na13 O115 2.653371 1_555
Na13 O103 2.667095 1_555
Na13 O107 2.777329 1_555
Na13 O105 2.807103 1_555
Na14 O124 2.606523 1_555
Na14 O136 2.614560 1_555
Na14 O132 2.616152 1_555
Na14 O134 2.663856 1_555
Na14 O122 2.676454 1_555
Na14 O120 2.679121 1_555
Na15 O125 2.504000 1_555
Na15 O121 2.509728 1_555
Na15 O123 2.549495 1_555
Na15 O135 2.935594 1_555
Na16 O142 2.341306 1_555
Na16 O138 2.689387 1_555
Na16 O140 2.730382 1_555
Na16 O126 2.798566 1_555
Na16 O128 2.803559 1_555
Na16 O130 2.912113 1_555
Na17 O143 2.312049 1_555
Na17 O139 2.673762 1_555
Na17 O141 2.732922 1_555
Na17 O129 2.778586 1_555
Na17 O127 2.847769 1_555
Na17 O131 2.923268 1_555
Ca0 O3 2.129049 1_555
Ca0 O0 2.287150 1_665
Ca0 O5 2.303118 1_565
Ca0 O75 2.329111 1_555
Ca0 O72 2.337515 1_655
Ca0 O76 2.370202 1_665
Ca1 O4 2.220842 1_555
Ca1 O1 2.230550 1_555
Ca1 O2 2.253928 1_545
Ca1 O77 2.307257 1_555
Ca1 O73 2.317903 1_545
Ca1 O74 2.320244 1_545
Ca2 O13 2.139990 1_455
Ca2 O16 2.231004 1_555
Ca2 O14 2.232022 1_565
Ca2 O86 2.339096 1_565
Ca2 O89 2.347817 1_455
Ca2 O85 2.362545 1_465
Ca3 O12 2.142266 1_555
Ca3 O17 2.223870 1_555
Ca3 O15 2.226974 1_565
Ca3 O88 2.356010 1_555
Ca3 O87 2.359876 1_565
Ca3 O84 2.365283 1_565
Ca4 O18 2.293818 1_545
Ca4 O95 2.303714 1_555
Ca4 O23 2.335641 1_545
Ca4 O90 2.343578 1_545
Ca4 O21 2.348256 1_555
Ca4 O92 2.350787 1_555
Ca5 O30 2.237195 1_555
Ca5 O34 2.275590 1_555
Ca5 O32 2.276194 1_555
Ca5 O106 2.307865 1_555
Ca5 O102 2.343363 1_555
Ca5 O104 2.368740 1_555
Ca6 O33 2.237595 1_555
Ca6 O103 2.237889 1_555
Ca6 O35 2.275065 1_555
Ca6 O31 2.283111 1_555
Ca6 O105 2.341026 1_555
Ca6 O107 2.393992 1_555
Ca7 O40 2.274498 1_556
Ca7 O38 2.281796 1_556
Ca7 O112 2.323530 1_555
Ca7 O36 2.357391 1_556
Ca7 O108 2.383748 1_555
Ca7 O110 2.384222 1_555
Ca8 O37 2.260690 1_556
Ca8 O41 2.345777 1_556
Ca8 O111 2.367472 1_555
Ca8 O113 2.375363 1_555
Ca8 O109 2.377099 1_555
Ca8 O39 2.380900 1_556
Ca9 O46 2.218345 1_555
Ca9 O42 2.239604 1_555
Ca9 O44 2.283795 1_555
Ca9 O114 2.284118 1_555
Ca9 O116 2.289906 1_555
Ca9 O118 2.414507 1_555
Ca10 O45 2.256099 1_555
Ca10 O119 2.261613 1_555
Ca10 O43 2.264179 1_555
Ca10 O47 2.290655 1_555
Ca10 O117 2.393261 1_555
Ca10 O115 2.396084 1_555
Ca11 O52 2.303826 1_554
Ca11 O50 2.315449 1_554
Ca11 O122 2.371227 1_555
Ca11 O124 2.383421 1_555
Ca11 O48 2.435609 1_554
Ca11 O120 2.444812 1_555
Ca12 O53 2.343287 1_554
Ca12 O51 2.344698 1_554
Ca12 O49 2.357416 1_554
Ca12 O121 2.375701 1_555
Ca12 O123 2.381816 1_555
Ca12 O125 2.403660 1_555
Ca13 O58 2.225334 1_555
Ca13 O56 2.256102 1_555
Ca13 O54 2.349357 1_555
Ca13 O130 2.356631 1_555
Ca13 O128 2.431213 1_555
Ca13 O126 2.446462 1_555
Ca14 O57 2.261404 1_555
Ca14 O59 2.288174 1_555
Ca14 O55 2.317315 1_555
Ca14 O131 2.353177 1_555
Ca14 O129 2.395317 1_555
Ca14 O127 2.423398 1_555
Ca15 O64 2.254610 1_555
Ca15 O62 2.267882 1_555
Ca15 O60 2.284816 1_555
Ca15 O134 2.292463 1_555
Ca15 O136 2.414784 1_555
Ca15 O132 2.458816 1_555
Ca16 O142 2.175670 1_555
Ca16 O68 2.239684 1_555
Ca16 O70 2.271921 1_555
Ca16 O66 2.334560 1_555
Ca16 O138 2.348263 1_555
Ca16 O140 2.361426 1_555
Ca17 O143 2.176185 1_555
Ca17 O69 2.239158 1_555
Ca17 O71 2.270615 1_555
Ca17 O67 2.327897 1_555
Ca17 O139 2.352279 1_555
Ca17 O141 2.366653 1_555
Hf0 O11 1.923964 1_555
Hf0 O83 2.086278 1_545
Hf0 O78 2.097721 1_655
Hf0 O9 2.155889 1_545
Hf0 O6 2.181955 1_655
Hf0 O80 2.212829 1_645
Hf1 O10 1.930204 1_555
Hf1 O79 2.082577 1_555
Hf1 O82 2.100486 1_545
Hf1 O8 2.169796 1_545
Hf1 O7 2.177721 1_555
Hf1 O81 2.212290 1_545
Hf2 O19 1.932572 1_555
Hf2 O93 2.077442 1_565
Hf2 O20 2.082361 1_665
Hf2 O22 2.095116 1_655
Hf2 O91 2.097035 1_555
Hf2 O94 2.253838 1_665
Hf3 O96 1.922600 1_555
Hf3 O26 2.096825 1_555
Hf3 O24 2.104491 1_555
Hf3 O100 2.118488 1_555
Hf3 O98 2.131396 1_555
Hf3 O28 2.266467 1_555
Hf4 O97 1.927864 1_555
Hf4 O25 2.087361 1_555
Hf4 O27 2.109597 1_555
Hf4 O101 2.124536 1_555
Hf4 O99 2.141159 1_555
Hf4 O29 2.227209 1_555
Hf5 O135 1.977083 1_555
Hf5 O63 2.018024 1_555
Hf5 O133 2.071271 1_555
Hf5 O65 2.073260 1_555
Hf5 O137 2.106491 1_555
Hf5 O61 2.177740 1_555
O0 S0 1.454120 1_545
O1 S1 1.470647 1_545
O2 S2 1.491944 1_555
O3 Si0 1.584462 1_555
O4 S4 1.465197 1_555
O5 S3 1.450610 1_655
O6 S5 1.507671 1_555
O7 S6 1.509045 1_555
O8 S8 1.501691 1_555
O9 S7 1.503919 1_555
O10 Si1 1.703923 1_545
O11 Si2 1.704663 1_545
O12 Si1 1.603323 1_555
O13 Si2 1.601665 1_555
O14 S5 1.455134 1_555
O15 S6 1.455040 1_555
O16 S7 1.456479 1_455
O17 S8 1.456280 1_555
O18 S2 1.483756 1_555
O19 Si0 1.686234 1_555
O20 S3 1.514190 1_555
O21 S4 1.478690 1_555
O22 S0 1.521978 1_555
O23 S1 1.465831 1_555
O24 S9 1.514728 1_555
O25 S10 1.522636 1_555
O26 S11 1.522804 1_555
O27 S12 1.519584 1_555
O28 S13 1.497597 1_555
O29 S14 1.501822 1_555
O30 S15 1.476415 1_555
O31 S16 1.478591 1_555
O32 S17 1.470735 1_555
O33 S18 1.466938 1_555
O34 S19 1.475977 1_555
O35 S20 1.496344 1_555
O36 S19 1.474347 1_555
O37 S20 1.472922 1_555
O38 S15 1.483655 1_555
O39 S16 1.464128 1_555
O40 S17 1.469232 1_555
O41 S18 1.465882 1_555
O42 S11 1.462835 1_555
O43 S12 1.461974 1_555
O44 S13 1.476772 1_555
O45 S14 1.462853 1_555
O46 S9 1.467131 1_555
O47 S10 1.466901 1_555
O48 S21 1.488285 1_555
O49 S22 1.472776 1_555
O50 S23 1.477142 1_555
O51 S24 1.472344 1_555
O52 S25 1.481099 1_555
O53 S26 1.479473 1_555
O54 S27 1.486368 1_555
O55 S28 1.470628 1_555
O56 S29 1.477185 1_555
O57 S30 1.463143 1_555
O58 S31 1.478051 1_555
O59 S32 1.464374 1_555
O60 S31 1.491456 1_555
O61 S32 1.502260 1_555
O62 S27 1.475433 1_555
O63 S28 1.532419 1_555
O64 S29 1.481960 1_555
O65 S30 1.527590 1_555
O66 S23 1.457896 1_555
O67 S24 1.460348 1_555
O68 S25 1.460288 1_555
O69 S26 1.464512 1_555
O70 S21 1.456624 1_555
O71 S22 1.460354 1_555
O72 S31 1.483734 1_555
O73 S32 1.491599 1_555
O74 S27 1.509032 1_555
O75 S28 1.463021 1_555
O76 S29 1.472064 1_555
O77 S30 1.474695 1_555
O78 S23 1.537644 1_555
O79 S24 1.542246 1_555
O80 S25 1.514497 1_555
O81 S26 1.519470 1_555
O82 S21 1.533299 1_555
O83 S22 1.541591 1_555
O84 S9 1.486025 1_555
O85 S10 1.483318 1_555
O86 S11 1.463949 1_555
O87 S12 1.470025 1_555
O88 S13 1.492808 1_555
O89 S14 1.490553 1_555
O90 S15 1.504852 1_555
O91 S16 1.532855 1_555
O92 S17 1.502361 1_555
O93 S18 1.535354 1_555
O94 S19 1.507154 1_555
O95 S20 1.492064 1_555
O96 Si1 1.709658 1_545
O97 Si2 1.704195 1_545
O98 S5 1.523129 1_555
O99 S6 1.520641 1_555
O100 S8 1.524214 1_555
O101 S7 1.521547 1_555
O102 S2 1.485373 1_555
O103 Si0 1.632476 1_555
O104 S4 1.464420 1_555
O105 S3 1.485692 1_655
O106 S0 1.467042 1_545
O107 S1 1.478517 1_545
O108 S21 1.479705 1_555
O109 S22 1.479385 1_555
O110 S24 1.482131 1_555
O111 S23 1.481371 1_655
O112 S25 1.487930 1_545
O113 S26 1.488509 1_545
O114 S27 1.477809 1_545
O115 S28 1.478251 1_545
O116 S29 1.511356 1_555
O117 S30 1.474866 1_555
O118 S32 1.491866 1_555
O119 S31 1.491196 1_655
O120 S19 1.499447 1_555
O121 S20 1.486649 1_555
O122 S16 1.476946 1_455
O123 S15 1.481713 1_555
O124 S17 1.508347 1_565
O125 S18 1.475739 1_565
O126 S11 1.494944 1_565
O127 S12 1.496114 1_565
O128 S13 1.495239 1_555
O129 S14 1.501097 1_555
O130 S10 1.474523 1_455
O131 S9 1.471225 1_555
O132 S0 1.500610 1_555
O133 S1 1.511519 1_555
O134 S2 1.488893 1_555
O135 Si0 1.685101 1_555
O136 S3 1.491696 1_555
O137 S4 1.526474 1_555
O138 S5 1.459173 1_555
O139 S6 1.460564 1_555
O140 S7 1.458536 1_455
O141 S8 1.459073 1_555
O142 Si1 1.600568 1_555
O143 Si2 1.600674 1_555
