# generated using pymatgen
data_Sr3NiPbO6
_symmetry_space_group_name_H-M   'P 1'
_cell_length_a   9.52352087
_cell_length_b   9.52352088
_cell_length_c   9.52352059
_cell_angle_alpha   118.00287258
_cell_angle_beta   61.99712501
_cell_angle_gamma   118.00287379
_symmetry_Int_Tables_number   1
_chemical_formula_structural   Sr3NiPbO6
_chemical_formula_sum   'Sr12 Ni4 Pb4 O24'
_cell_volume   638.05404955
_cell_formula_units_Z   4
loop_
 _symmetry_equiv_pos_site_id
 _symmetry_equiv_pos_as_xyz
  1  'x, y, z'
loop_
 _atom_site_type_symbol
 _atom_site_label
 _atom_site_symmetry_multiplicity
 _atom_site_fract_x
 _atom_site_fract_y
 _atom_site_fract_z
 _atom_site_occupancy
  Sr  Sr0  1  0.24632500  0.12500000  0.50367500  1
  Sr  Sr1  1  0.74632500  0.62500000  0.00367500  1
  Sr  Sr2  1  0.99632500  0.74632500  0.62500000  1
  Sr  Sr3  1  0.49632500  0.24632500  0.12500000  1
  Sr  Sr4  1  0.62500000  0.00367500  0.25367500  1
  Sr  Sr5  1  0.12500000  0.50367500  0.75367500  1
  Sr  Sr6  1  0.25367500  0.37500000  0.99632500  1
  Sr  Sr7  1  0.75367500  0.87500000  0.49632500  1
  Sr  Sr8  1  0.50367500  0.75367500  0.87500000  1
  Sr  Sr9  1  0.00367500  0.25367500  0.37500000  1
  Sr  Sr10  1  0.87500000  0.49632500  0.24632500  1
  Sr  Sr11  1  0.37500000  0.99632500  0.74632500  1
  Ni  Ni0  1  0.75000000  0.25000000  0.75000000  1
  Ni  Ni1  1  0.50000000  0.50000000  0.50000000  1
  Ni  Ni2  1  0.25000000  0.75000000  0.25000000  1
  Ni  Ni3  1  0.00000000  0.00000000  0.00000000  1
  Pb  Pb0  1  0.37500000  0.62500000  0.37500000  1
  Pb  Pb1  1  0.87500000  0.12500000  0.87500000  1
  Pb  Pb2  1  0.12500000  0.87500000  0.12500000  1
  Pb  Pb3  1  0.62500000  0.37500000  0.62500000  1
  O  O0  1  0.13087500  0.53477700  0.32786100  1
  O  O1  1  0.63087500  0.03477700  0.82786100  1
  O  O2  1  0.32786100  0.86912500  0.46522300  1
  O  O3  1  0.82786100  0.36912500  0.96522300  1
  O  O4  1  0.46522300  0.67213900  0.13087500  1
  O  O5  1  0.96522300  0.17213900  0.63087500  1
  O  O6  1  0.78477700  0.88087500  0.92213900  1
  O  O7  1  0.28477700  0.38087500  0.42213900  1
  O  O8  1  0.92213900  0.21522300  0.11912500  1
  O  O9  1  0.42213900  0.71522300  0.61912500  1
  O  O10  1  0.11912500  0.07786100  0.78477700  1
  O  O11  1  0.61912500  0.57786100  0.28477700  1
  O  O12  1  0.36912500  0.96522300  0.17213900  1
  O  O13  1  0.86912500  0.46522300  0.67213900  1
  O  O14  1  0.17213900  0.63087500  0.03477700  1
  O  O15  1  0.67213900  0.13087500  0.53477700  1
  O  O16  1  0.03477700  0.82786100  0.36912500  1
  O  O17  1  0.53477700  0.32786100  0.86912500  1
  O  O18  1  0.71522300  0.61912500  0.57786100  1
  O  O19  1  0.21522300  0.11912500  0.07786100  1
  O  O20  1  0.38087500  0.42213900  0.71522300  1
  O  O21  1  0.88087500  0.92213900  0.21522300  1
  O  O22  1  0.57786100  0.28477700  0.38087500  1
  O  O23  1  0.07786100  0.78477700  0.88087500  1
loop_
_geom_bond_atom_site_label_1
_geom_bond_atom_site_label_2
_geom_bond_distance
_geom_bond_site_symmetry_2
Ni0 O1 2.119381 1_555
Ni0 O13 2.119381 1_555
Ni0 O3 2.119381 1_555
Ni0 O15 2.119381 1_555
Ni0 O17 2.119381 1_555
Ni0 O5 2.119381 1_555
Ni1 O11 2.119381 1_555
Ni1 O20 2.119381 1_555
Ni1 O18 2.119381 1_555
Ni1 O7 2.119381 1_555
Ni1 O22 2.119381 1_555
Ni1 O9 2.119381 1_555
Ni2 O0 2.119381 1_555
Ni2 O12 2.119381 1_555
Ni2 O2 2.119381 1_555
Ni2 O14 2.119381 1_555
Ni2 O4 2.119381 1_555
Ni2 O16 2.119381 1_555
Ni3 O21 2.119381 1_445
Ni3 O10 2.119381 1_554
Ni3 O6 2.119381 1_444
Ni3 O19 2.119381 1_555
Ni3 O8 2.119381 1_455
Ni3 O23 2.119381 1_544
O0 Pb0 2.255465 1_555
O0 Sr9 2.531476 1_555
O0 Sr6 2.710046 1_554
O0 Sr10 2.710552 1_455
O0 Sr2 2.715572 1_455
O1 Pb1 2.255465 1_555
O1 Sr8 2.531476 1_545
O1 Sr7 2.710046 1_545
O1 Sr11 2.710552 1_545
O1 Sr3 2.715572 1_556
O2 Pb0 2.255465 1_555
O2 Sr11 2.531476 1_555
O2 Sr2 2.710046 1_455
O2 Sr0 2.710552 1_565
O2 Sr4 2.715572 1_565
O3 Pb1 2.255465 1_555
O3 Sr10 2.531476 1_556
O3 Sr3 2.710046 1_556
O3 Sr1 2.710552 1_556
O3 Sr5 2.715572 1_655
O4 Pb0 2.255465 1_555
O4 Sr1 2.531476 1_555
O4 Sr4 2.710046 1_565
O4 Sr8 2.710552 1_554
O4 Sr6 2.715572 1_554
O5 Pb1 2.255465 1_555
O5 Sr0 2.531476 1_655
O5 Sr5 2.710046 1_655
O5 Sr9 2.710552 1_655
O5 Sr7 2.715572 1_545
O6 Pb1 2.255465 1_565
O6 Sr8 2.531476 1_555
O6 Sr4 2.710046 1_566
O6 Sr1 2.710552 1_556
O6 Sr2 2.715572 1_555
O7 Pb0 2.255465 1_555
O7 Sr9 2.531476 1_555
O7 Sr5 2.710046 1_555
O7 Sr0 2.710552 1_555
O7 Sr3 2.715572 1_555
O8 Pb1 2.255465 1_554
O8 Sr10 2.531476 1_555
O8 Sr6 2.710046 1_654
O8 Sr9 2.710552 1_655
O8 Sr4 2.715572 1_555
O9 Pb0 2.255465 1_555
O9 Sr11 2.531476 1_555
O9 Sr7 2.710046 1_555
O9 Sr8 2.710552 1_555
O9 Sr5 2.715572 1_555
O10 Pb1 2.255465 1_455
O10 Sr0 2.531476 1_555
O10 Sr2 2.710046 1_445
O10 Sr11 2.710552 1_545
O10 Sr6 2.715572 1_555
O11 Pb0 2.255465 1_555
O11 Sr1 2.531476 1_555
O11 Sr3 2.710046 1_555
O11 Sr10 2.710552 1_555
O11 Sr7 2.715572 1_555
O12 Pb2 2.255465 1_555
O12 Sr3 2.531476 1_565
O12 Sr0 2.710046 1_565
O12 Sr4 2.710552 1_565
O12 Sr8 2.715572 1_554
O13 Pb3 2.255465 1_555
O13 Sr2 2.531476 1_555
O13 Sr1 2.710046 1_556
O13 Sr5 2.710552 1_655
O13 Sr9 2.715572 1_655
O14 Pb2 2.255465 1_555
O14 Sr5 2.531476 1_554
O14 Sr8 2.710046 1_554
O14 Sr6 2.710552 1_554
O14 Sr10 2.715572 1_455
O15 Pb3 2.255465 1_555
O15 Sr4 2.531476 1_555
O15 Sr9 2.710046 1_655
O15 Sr7 2.710552 1_545
O15 Sr11 2.715572 1_545
O16 Pb2 2.255465 1_555
O16 Sr7 2.531476 1_455
O16 Sr10 2.710046 1_455
O16 Sr2 2.710552 1_455
O16 Sr0 2.715572 1_565
O17 Pb3 2.255465 1_555
O17 Sr6 2.531476 1_555
O17 Sr11 2.710046 1_545
O17 Sr3 2.710552 1_556
O17 Sr1 2.715572 1_556
O18 Pb3 2.255465 1_555
O18 Sr2 2.531476 1_555
O18 Sr10 2.710046 1_555
O18 Sr7 2.710552 1_555
O18 Sr8 2.715572 1_555
O19 Pb2 2.255465 1_545
O19 Sr3 2.531476 1_555
O19 Sr11 2.710046 1_544
O19 Sr6 2.710552 1_554
O19 Sr9 2.715572 1_555
O20 Pb3 2.255465 1_555
O20 Sr6 2.531476 1_555
O20 Sr8 2.710046 1_555
O20 Sr5 2.710552 1_555
O20 Sr0 2.715572 1_555
O21 Pb2 2.255465 1_655
O21 Sr7 2.531476 1_555
O21 Sr9 2.710046 1_665
O21 Sr4 2.710552 1_565
O21 Sr1 2.715572 1_555
O22 Pb3 2.255465 1_555
O22 Sr4 2.531476 1_555
O22 Sr0 2.710046 1_555
O22 Sr3 2.710552 1_555
O22 Sr10 2.715572 1_555
O23 Pb2 2.255465 1_556
O23 Sr5 2.531476 1_555
O23 Sr1 2.710046 1_456
O23 Sr2 2.710552 1_455
O23 Sr11 2.715572 1_555
