# generated using pymatgen
data_Np(SiIr)2
_symmetry_space_group_name_H-M   'P 1'
_cell_length_a   4.12303876
_cell_length_b   4.12303876
_cell_length_c   9.85519290
_cell_angle_alpha   90.00000000
_cell_angle_beta   90.00000000
_cell_angle_gamma   90.00000000
_symmetry_Int_Tables_number   1
_chemical_formula_structural   Np(SiIr)2
_chemical_formula_sum   'Np2 Si4 Ir4'
_cell_volume   167.53284531
_cell_formula_units_Z   2
loop_
 _symmetry_equiv_pos_site_id
 _symmetry_equiv_pos_as_xyz
  1  'x, y, z'
loop_
 _atom_site_type_symbol
 _atom_site_label
 _atom_site_symmetry_multiplicity
 _atom_site_fract_x
 _atom_site_fract_y
 _atom_site_fract_z
 _atom_site_occupancy
  Np  Np0  1  0.75000000  0.75000000  0.25652461  1
  Np  Np1  1  0.25000000  0.25000000  0.74347539  1
  Si  Si0  1  0.75000000  0.25000000  0.50000000  1
  Si  Si1  1  0.25000000  0.75000000  0.50000000  1
  Si  Si2  1  0.75000000  0.75000000  0.86982953  1
  Si  Si3  1  0.25000000  0.25000000  0.13017047  1
  Ir  Ir0  1  0.25000000  0.75000000  -0.00000000  1
  Ir  Ir1  1  0.75000000  0.25000000  -0.00000000  1
  Ir  Ir2  1  0.75000000  0.75000000  0.62874266  1
  Ir  Ir3  1  0.25000000  0.25000000  0.37125734  1
loop_
_geom_bond_atom_site_label_1
_geom_bond_atom_site_label_2
_geom_bond_distance
_geom_bond_site_symmetry_2
Np0 Si0 3.163455 1_555
Np0 Si1 3.163455 1_555
Np0 Si1 3.163455 1_655
Np0 Si0 3.163455 1_565
Np0 Si3 3.170230 1_565
Np0 Si3 3.170230 1_665
Np0 Si3 3.170230 1_555
Np0 Si3 3.170230 1_655
Np1 Si0 3.163455 1_555
Np1 Si1 3.163455 1_555
Np1 Si1 3.163455 1_545
Np1 Si0 3.163455 1_455
Np1 Si2 3.170230 1_545
Np1 Si2 3.170230 1_555
Np1 Si2 3.170230 1_445
Np1 Si2 3.170230 1_455
Ir0 Si3 2.428081 1_565
Ir0 Si3 2.428081 1_555
Ir0 Si2 2.428081 1_554
Ir0 Si2 2.428081 1_454
Ir0 Np0 3.262077 1_555
Ir0 Np0 3.262077 1_455
Ir0 Np1 3.262077 1_564
Ir0 Np1 3.262077 1_554
Ir1 Si3 2.428081 1_655
Ir1 Si3 2.428081 1_555
Ir1 Si2 2.428081 1_554
Ir1 Si2 2.428081 1_544
Ir1 Np0 3.262077 1_555
Ir1 Np0 3.262077 1_545
Ir1 Np1 3.262077 1_654
Ir1 Np1 3.262077 1_554
Ir2 Si2 2.375958 1_555
Ir2 Si1 2.420676 1_555
Ir2 Si1 2.420676 1_655
Ir2 Si0 2.420676 1_565
Ir2 Si0 2.420676 1_555
Ir2 Np1 3.127017 1_655
Ir2 Np1 3.127017 1_555
Ir2 Np1 3.127017 1_565
Ir2 Np1 3.127017 1_665
Ir3 Si3 2.375958 1_555
Ir3 Si1 2.420676 1_555
Ir3 Si1 2.420676 1_545
Ir3 Si0 2.420676 1_455
Ir3 Si0 2.420676 1_555
Ir3 Np0 3.127017 1_555
Ir3 Np0 3.127017 1_545
Ir3 Np0 3.127017 1_455
Ir3 Np0 3.127017 1_445
