# generated using pymatgen
data_Na2MgZrSi(SO6)2
_symmetry_space_group_name_H-M   'P 1'
_cell_length_a   9.01481792
_cell_length_b   8.99399485
_cell_length_c   22.85048694
_cell_angle_alpha   89.87165511
_cell_angle_beta   90.00000000
_cell_angle_gamma   120.07661643
_symmetry_Int_Tables_number   1
_chemical_formula_structural   Na2MgZrSi(SO6)2
_chemical_formula_sum   'Na12 Mg6 Zr6 Si6 S12 O72'
_cell_volume   1603.23955849
_cell_formula_units_Z   6
loop_
 _symmetry_equiv_pos_site_id
 _symmetry_equiv_pos_as_xyz
  1  'x, y, z'
loop_
 _atom_site_type_symbol
 _atom_site_label
 _atom_site_symmetry_multiplicity
 _atom_site_fract_x
 _atom_site_fract_y
 _atom_site_fract_z
 _atom_site_occupancy
  Na  Na0  1  0.99925116  0.63571579  0.23883312  1
  Na  Na1  1  0.63646463  0.63571579  0.73883312  1
  Na  Na2  1  0.65343696  0.95305712  0.57518082  1
  Na  Na3  1  0.29962116  0.95305712  0.07518082  1
  Na  Na4  1  0.69208404  0.02738671  0.90676780  1
  Na  Na5  1  0.33530167  0.02738671  0.40676780  1
  Na  Na6  1  0.97357540  0.98553397  0.49178949  1
  Na  Na7  1  0.01195857  0.98553397  0.99178949  1
  Na  Na8  1  0.65425649  0.30554442  0.82572268  1
  Na  Na9  1  0.65128893  0.30554442  0.32572268  1
  Na  Na10  1  0.32502828  0.65683138  0.16001003  1
  Na  Na11  1  0.33180210  0.65683138  0.66001003  1
  Mg  Mg0  1  0.99762086  0.00645326  0.35120410  1
  Mg  Mg1  1  0.00883240  0.00645326  0.85120410  1
  Mg  Mg2  1  0.66412578  0.32710501  0.68487905  1
  Mg  Mg3  1  0.66298023  0.32710501  0.18487905  1
  Mg  Mg4  1  0.31365052  0.66573484  0.01801654  1
  Mg  Mg5  1  0.35208332  0.66573484  0.51801654  1
  Zr  Zr0  1  0.98964882  0.99195904  0.64752510  1
  Zr  Zr1  1  0.00231022  0.99195904  0.14752510  1
  Zr  Zr2  1  0.67149812  0.34329212  0.98081829  1
  Zr  Zr3  1  0.67179499  0.34329212  0.48081829  1
  Zr  Zr4  1  0.34710626  0.68603062  0.31405265  1
  Zr  Zr5  1  0.33892336  0.68603062  0.81405265  1
  Si  Si0  1  0.30136750  0.01257413  0.25447255  1
  Si  Si1  1  0.71120663  0.01257413  0.75447255  1
  Si  Si2  1  0.65685577  0.62085877  0.58955704  1
  Si  Si3  1  0.96400400  0.62085877  0.08955704  1
  Si  Si4  1  0.32508840  0.96666917  0.92155029  1
  Si  Si5  1  0.64157977  0.96666917  0.42155029  1
  S  S0  1  0.70907414  0.70594191  0.25172171  1
  S  S1  1  0.99758352  0.29094472  0.25136627  1
  S  S2  1  0.29336120  0.29094472  0.75136627  1
  S  S3  1  0.99686777  0.70594191  0.75172171  1
  S  S4  1  0.96313273  0.34098243  0.58433271  1
  S  S5  1  0.37378897  0.04083501  0.58334918  1
  S  S6  1  0.66704704  0.04083501  0.08334918  1
  S  S7  1  0.37785070  0.34098243  0.08433271  1
  S  S8  1  0.62138581  0.66752365  0.91782831  1
  S  S9  1  0.04453430  0.37314732  0.91820589  1
  S  S10  1  0.32861203  0.37314732  0.41820589  1
  S  S11  1  0.04613684  0.66752365  0.41782831  1
  O  O0  1  0.20555370  0.01969495  0.31285288  1
  O  O1  1  0.81425265  0.79336337  0.30266477  1
  O  O2  1  0.97794672  0.18781803  0.30296870  1
  O  O3  1  0.20987130  0.18781803  0.80296870  1
  O  O4  1  0.97911072  0.79336337  0.80266477  1
  O  O5  1  0.81414125  0.01969495  0.81285288  1
  O  O6  1  0.80280747  0.97443647  0.69604711  1
  O  O7  1  0.19264354  0.20926027  0.69709053  1
  O  O8  1  0.02968820  0.81346506  0.69736416  1
  O  O9  1  0.78377686  0.81346506  0.19736416  1
  O  O10  1  0.01661673  0.20926027  0.19709053  1
  O  O11  1  0.17162900  0.97443647  0.19604711  1
  O  O12  1  0.87996896  0.35830484  0.63641366  1
  O  O13  1  0.48693124  0.12388426  0.63322381  1
  O  O14  1  0.64936925  0.52033406  0.64847895  1
  O  O15  1  0.87096581  0.52033406  0.14847895  1
  O  O16  1  0.63695402  0.12388426  0.13322381  1
  O  O17  1  0.47833688  0.35830484  0.13641366  1
  O  O18  1  0.45371084  0.30241672  0.03131967  1
  O  O19  1  0.84157154  0.52569818  0.03134912  1
  O  O20  1  0.68897474  0.14218456  0.02806945  1
  O  O21  1  0.45321081  0.14218456  0.52806945  1
  O  O22  1  0.68412764  0.52569818  0.53134912  1
  O  O23  1  0.84870687  0.30241672  0.53131967  1
  O  O24  1  0.53073136  0.68263764  0.96830763  1
  O  O25  1  0.14612437  0.45496583  0.97021706  1
  O  O26  1  0.31465493  0.86169119  0.97993450  1
  O  O27  1  0.54703527  0.86169119  0.47993450  1
  O  O28  1  0.30884046  0.45496583  0.47021706  1
  O  O29  1  0.15190527  0.68263764  0.46830763  1
  O  O30  1  0.11981573  0.63986514  0.36233918  1
  O  O31  1  0.50608889  0.86912714  0.36429001  1
  O  O32  1  0.35100749  0.47599861  0.36443152  1
  O  O33  1  0.12499012  0.47599861  0.86443152  1
  O  O34  1  0.36303725  0.86912714  0.86429001  1
  O  O35  1  0.52004842  0.63986514  0.86233918  1
  O  O36  1  0.03112119  0.82306136  0.41270110  1
  O  O37  1  0.82638996  0.98789204  0.41018583  1
  O  O38  1  0.18325383  0.19626948  0.41320373  1
  O  O39  1  0.01301565  0.19626948  0.91320373  1
  O  O40  1  0.16150208  0.98789204  0.91018583  1
  O  O41  1  0.79194017  0.82306136  0.91270110  1
  O  O42  1  0.97880883  0.18046178  0.58875237  1
  O  O43  1  0.20492552  0.03278516  0.58914320  1
  O  O44  1  0.83590894  0.82060497  0.58835376  1
  O  O45  1  0.98469603  0.82060497  0.08835376  1
  O  O46  1  0.82785964  0.03278516  0.08914320  1
  O  O47  1  0.20165295  0.18046178  0.08875237  1
  O  O48  1  0.68193564  0.17146998  0.74358811  1
  O  O49  1  0.46943231  0.31898628  0.74663202  1
  O  O50  1  0.84197354  0.53699339  0.74550871  1
  O  O51  1  0.69502085  0.53699339  0.24550871  1
  O  O52  1  0.84955497  0.31898628  0.24663202  1
  O  O53  1  0.48953534  0.17146998  0.24358811  1
  O  O54  1  0.64257951  0.51261614  0.92155321  1
  O  O55  1  0.86796926  0.35724308  0.92201325  1
  O  O56  1  0.51378218  0.15385607  0.92234231  1
  O  O57  1  0.64007489  0.15385607  0.42234231  1
  O  O58  1  0.48927482  0.35724308  0.42201325  1
  O  O59  1  0.87003764  0.51261614  0.42155321  1
  O  O60  1  0.35959511  0.49136434  0.07474103  1
  O  O61  1  0.15795868  0.65483700  0.08304271  1
  O  O62  1  0.51908026  0.86545869  0.07747175  1
  O  O63  1  0.34637743  0.86545869  0.57747175  1
  O  O64  1  0.49687732  0.65483700  0.58304271  1
  O  O65  1  0.13176823  0.49136434  0.57474103  1
  O  O66  1  0.30135760  0.82276015  0.25526576  1
  O  O67  1  0.53217102  0.68233058  0.25576876  1
  O  O68  1  0.15733198  0.46644181  0.25518606  1
  O  O69  1  0.30910883  0.46644181  0.75518606  1
  O  O70  1  0.15015856  0.68233058  0.75576876  1
  O  O71  1  0.52140155  0.82276015  0.75526576  1
loop_
_geom_bond_atom_site_label_1
_geom_bond_atom_site_label_2
_geom_bond_distance
_geom_bond_site_symmetry_2
Na0 O15 2.341743 1_555
Na0 O66 2.408069 1_655
Na0 O51 2.427343 1_555
Na0 O52 2.472317 1_555
Na0 O68 2.580771 1_655
Na0 O11 2.809476 1_655
Na1 O14 2.341745 1_555
Na1 O71 2.408076 1_555
Na1 O50 2.427352 1_555
Na1 O49 2.472316 1_555
Na1 O69 2.580778 1_555
Na1 O6 2.809476 1_555
Na2 O64 2.328496 1_555
Na2 O27 2.355868 1_555
Na2 O63 2.469750 1_555
Na2 O44 2.485583 1_555
Na2 O42 2.621567 1_565
Na2 O23 2.901410 1_565
Na2 O13 2.948457 1_565
Na2 O6 3.036587 1_555
Na3 O61 2.328496 1_555
Na3 O26 2.355864 1_554
Na3 O62 2.469733 1_555
Na3 O45 2.485591 1_455
Na3 O47 2.621574 1_565
Na3 O18 2.901410 1_565
Na3 O16 2.948457 1_565
Na3 O11 3.036590 1_555
Na4 O56 2.416287 1_555
Na4 O41 2.421331 1_545
Na4 O5 2.428535 1_555
Na4 O39 2.509061 1_655
Na4 O55 2.593578 1_555
Na4 O34 2.746145 1_545
Na5 O57 2.416303 1_555
Na5 O36 2.421324 1_545
Na5 O0 2.428531 1_555
Na5 O38 2.509053 1_555
Na5 O58 2.593577 1_555
Na5 O31 2.746145 1_545
Na6 O37 2.294788 1_555
Na6 O36 2.538129 1_655
Na6 O44 2.597988 1_555
Na6 O38 2.604559 1_665
Na6 O42 2.814154 1_565
Na6 O43 2.931699 1_665
Na7 O40 2.294788 1_555
Na7 O41 2.538129 1_455
Na7 O45 2.597988 1_456
Na7 O39 2.604559 1_565
Na7 O47 2.814154 1_566
Na7 O46 2.931699 1_466
Na8 O48 2.313122 1_555
Na8 O49 2.501560 1_555
Na8 O56 2.567910 1_555
Na8 O50 2.647388 1_555
Na8 O55 2.806399 1_555
Na8 O54 2.913676 1_555
Na9 O53 2.313122 1_555
Na9 O52 2.501560 1_555
Na9 O57 2.567910 1_555
Na9 O51 2.647388 1_555
Na9 O58 2.806399 1_555
Na9 O59 2.913676 1_555
Na10 O61 2.309740 1_555
Na10 O60 2.566339 1_555
Na10 O62 2.613865 1_555
Na10 O68 2.708518 1_555
Na10 O66 2.710015 1_555
Na10 O67 2.810789 1_555
Na11 O64 2.309740 1_555
Na11 O65 2.566339 1_555
Na11 O63 2.613865 1_555
Na11 O69 2.708518 1_555
Na11 O71 2.710015 1_555
Na11 O70 2.810789 1_555
Mg0 O37 1.991929 1_545
Mg0 O0 2.017820 1_655
Mg0 O2 2.046710 1_555
Mg0 O1 2.114216 1_545
Mg0 O38 2.206667 1_655
Mg0 O36 2.296822 1_645
Mg1 O40 1.991929 1_545
Mg1 O5 2.017820 1_455
Mg1 O3 2.046710 1_555
Mg1 O4 2.114216 1_445
Mg1 O39 2.206667 1_555
Mg1 O41 2.296822 1_445
Mg2 O14 1.988736 1_555
Mg2 O48 2.000428 1_555
Mg2 O13 2.090176 1_555
Mg2 O12 2.131344 1_555
Mg2 O49 2.224420 1_555
Mg2 O50 2.243112 1_555
Mg3 O15 1.988736 1_555
Mg3 O53 2.000428 1_555
Mg3 O16 2.090176 1_555
Mg3 O17 2.131344 1_555
Mg3 O52 2.224420 1_555
Mg3 O51 2.243112 1_555
Mg4 O26 1.959748 1_554
Mg4 O61 2.012166 1_555
Mg4 O25 2.051110 1_554
Mg4 O24 2.200905 1_554
Mg4 O60 2.225559 1_555
Mg4 O62 2.275671 1_555
Mg5 O27 1.959748 1_555
Mg5 O64 2.012166 1_555
Mg5 O28 2.051110 1_555
Mg5 O29 2.200906 1_555
Mg5 O65 2.225559 1_555
Mg5 O63 2.275671 1_555
O0 Si0 1.607977 1_555
O1 S0 1.459166 1_555
O2 S1 1.453456 1_555
O3 S2 1.453456 1_555
O4 S3 1.459166 1_555
O5 Si1 1.607977 1_555
O6 Si1 1.693474 1_565
O6 Zr0 1.955588 1_555
O7 S2 1.495918 1_555
O7 Zr0 2.208252 1_445
O8 S3 1.507775 1_455
O8 Zr0 2.139413 1_455
O9 S0 1.507775 1_555
O9 Zr1 2.139413 1_655
O10 S1 1.495918 1_455
O10 Zr1 2.208252 1_545
O11 Si0 1.693474 1_565
O11 Zr1 1.955588 1_555
O12 S4 1.456199 1_555
O13 S5 1.461937 1_555
O14 Si2 1.602545 1_555
O15 Si3 1.602545 1_555
O16 S6 1.461937 1_555
O17 S7 1.456199 1_555
O18 S7 1.514941 1_555
O18 Zr2 2.143845 1_554
O19 Si3 1.666757 1_555
O19 Zr2 1.965374 1_554
O20 S6 1.509903 1_555
O20 Zr2 2.176945 1_554
O21 S5 1.509903 1_555
O21 Zr3 2.176945 1_555
O22 Si2 1.666757 1_555
O22 Zr3 1.965374 1_555
O23 S4 1.514941 1_555
O23 Zr3 2.143845 1_555
O24 S8 1.459078 1_555
O25 S9 1.456416 1_555
O26 Si4 1.607948 1_555
O27 Si5 1.607948 1_555
O28 S10 1.456416 1_555
O29 S11 1.459078 1_555
O30 S11 1.509230 1_555
O30 Zr4 2.175632 1_555
O31 Si5 1.704293 1_555
O31 Zr4 1.930428 1_555
O32 S10 1.487972 1_555
O32 Zr4 2.225247 1_555
O33 S9 1.487972 1_555
O33 Zr5 2.225247 1_555
O34 Si4 1.704293 1_555
O34 Zr5 1.930428 1_555
O35 S8 1.509230 1_555
O35 Zr5 2.175632 1_555
O36 S11 1.475822 1_555
O37 Si5 1.600175 1_555
O38 S10 1.473876 1_555
O39 S9 1.473879 1_555
O40 Si4 1.600166 1_555
O41 S8 1.475827 1_555
O42 S4 1.522611 1_555
O42 Zr0 2.200767 1_545
O43 S5 1.493176 1_555
O43 Zr0 2.228077 1_445
O44 Si2 1.710818 1_555
O44 Zr0 1.998146 1_555
O45 Si3 1.710822 1_555
O45 Zr1 1.998146 1_655
O46 S6 1.493167 1_555
O46 Zr1 2.228077 1_645
O47 S7 1.522616 1_555
O47 Zr1 2.200767 1_545
O48 Si1 1.596941 1_555
O49 S2 1.480982 1_555
O50 S3 1.467364 1_555
O51 S0 1.467368 1_555
O52 S1 1.480973 1_555
O53 Si0 1.596947 1_555
O54 S8 1.500377 1_555
O54 Zr2 2.147052 1_555
O55 S9 1.527508 1_655
O55 Zr2 2.175962 1_555
O56 Si4 1.690544 1_545
O56 Zr2 2.071708 1_555
O57 Si5 1.690535 1_545
O57 Zr3 2.071708 1_555
O58 S10 1.527526 1_555
O58 Zr3 2.175962 1_555
O59 S11 1.500366 1_655
O59 Zr3 2.147052 1_555
O60 S7 1.458165 1_555
O61 Si3 1.623857 1_455
O62 S6 1.475593 1_565
O63 S5 1.475586 1_565
O64 Si2 1.623875 1_555
O65 S4 1.458154 1_455
O66 Si0 1.707197 1_565
O66 Zr4 1.996942 1_555
O67 S0 1.502445 1_555
O67 Zr4 2.148021 1_555
O68 S1 1.514989 1_455
O68 Zr4 2.293908 1_555
O69 S2 1.514993 1_555
O69 Zr5 2.293908 1_555
O70 S3 1.502436 1_455
O70 Zr5 2.148021 1_555
O71 Si1 1.707201 1_565
O71 Zr5 1.996942 1_555
