# generated using pymatgen
data_Na7Zr2Si5Sn2PO24
_symmetry_space_group_name_H-M   'P 1'
_cell_length_a   9.14803989
_cell_length_b   9.14322539
_cell_length_c   22.97927137
_cell_angle_alpha   90.05357538
_cell_angle_beta   89.86559653
_cell_angle_gamma   119.97353394
_symmetry_Int_Tables_number   1
_chemical_formula_structural   Na7Zr2Si5Sn2PO24
_chemical_formula_sum   'Na21 Zr6 Si15 Sn6 P3 O72'
_cell_volume   1664.97957391
_cell_formula_units_Z   3
loop_
 _symmetry_equiv_pos_site_id
 _symmetry_equiv_pos_as_xyz
  1  'x, y, z'
loop_
 _atom_site_type_symbol
 _atom_site_label
 _atom_site_symmetry_multiplicity
 _atom_site_fract_x
 _atom_site_fract_y
 _atom_site_fract_z
 _atom_site_occupancy
  Na  Na0  1  0.63567184  0.00039880  0.25061718  1
  Na  Na1  1  0.36516133  0.36547489  0.24922889  1
  Na  Na2  1  0.99983808  0.63388369  0.25021648  1
  Na  Na3  1  0.63427683  0.63364510  0.74905347  1
  Na  Na4  1  0.99898851  0.36501318  0.74974731  1
  Na  Na5  1  0.36709591  0.00147613  0.74988794  1
  Na  Na6  1  0.30011058  0.33250316  0.58409412  1
  Na  Na7  1  0.03193163  0.69959578  0.58364015  1
  Na  Na8  1  0.66841108  0.96824454  0.58360645  1
  Na  Na9  1  0.29769292  0.96816202  0.08308423  1
  Na  Na10  1  0.03425548  0.33471274  0.08421720  1
  Na  Na11  1  0.97040052  0.66802557  0.91666738  1
  Na  Na12  1  0.33093868  0.29802419  0.91676957  1
  Na  Na13  1  0.33270111  0.03043241  0.41668602  1
  Na  Na14  1  0.70137049  0.66816804  0.41707700  1
  Na  Na15  1  0.99787113  0.00242334  0.49961614  1
  Na  Na16  1  0.99472678  0.99705460  0.00001088  1
  Na  Na17  1  0.66710493  0.32693521  0.83321936  1
  Na  Na18  1  0.67289148  0.33245448  0.33437181  1
  Na  Na19  1  0.33651341  0.66459381  0.16634213  1
  Na  Na20  1  0.33369839  0.66634258  0.66668327  1
  Zr  Zr0  1  0.66779843  0.33896389  0.18540875  1
  Zr  Zr1  1  0.66664891  0.32955672  0.98205540  1
  Zr  Zr2  1  0.33103022  0.66248251  0.01789767  1
  Zr  Zr3  1  0.33398135  0.67049645  0.51817791  1
  Zr  Zr4  1  0.33077044  0.66941908  0.31521772  1
  Zr  Zr5  1  0.33109918  0.66943454  0.81459051  1
  Si  Si0  1  0.28867406  0.00060761  0.25047512  1
  Si  Si1  1  0.71138329  0.71236143  0.25014013  1
  Si  Si2  1  0.00003933  0.28754943  0.24957111  1
  Si  Si3  1  0.29175495  0.28944021  0.74927843  1
  Si  Si4  1  0.99723984  0.70955351  0.74965397  1
  Si  Si5  1  0.71149710  0.00186962  0.74931921  1
  Si  Si6  1  0.95687537  0.33119917  0.58452831  1
  Si  Si7  1  0.37648296  0.04588879  0.58353823  1
  Si  Si8  1  0.66816926  0.62349135  0.58365578  1
  Si  Si9  1  0.95784176  0.63053841  0.08333761  1
  Si  Si10  1  0.37214836  0.33383315  0.08391489  1
  Si  Si11  1  0.03688533  0.36813491  0.91576747  1
  Si  Si12  1  0.33329006  0.96157072  0.91629365  1
  Si  Si13  1  0.63235879  0.96603149  0.41666921  1
  Si  Si14  1  0.03518671  0.66426154  0.41668237  1
  Sn  Sn0  1  0.99663142  0.00026535  0.35137549  1
  Sn  Sn1  1  0.99927375  0.00296657  0.85089916  1
  Sn  Sn2  1  0.99973445  0.00000288  0.64838146  1
  Sn  Sn3  1  0.99878546  0.99625070  0.14875143  1
  Sn  Sn4  1  0.66705941  0.33320892  0.68494207  1
  Sn  Sn5  1  0.67409527  0.33248310  0.48253624  1
  P  P0  1  0.66828380  0.03963939  0.08429913  1
  P  P1  1  0.62788760  0.67056126  0.91604469  1
  P  P2  1  0.33141957  0.37142132  0.41677490  1
  O  O0  1  0.20965959  0.03965003  0.30851316  1
  O  O1  1  0.82828338  0.78751128  0.30835349  1
  O  O2  1  0.96107266  0.16680683  0.30619758  1
  O  O3  1  0.21269675  0.17185779  0.80737794  1
  O  O4  1  0.95979214  0.78929085  0.80797427  1
  O  O5  1  0.83265019  0.04029696  0.80579182  1
  O  O6  1  0.78863927  0.96075446  0.69111269  1
  O  O7  1  0.17212646  0.21066681  0.69172822  1
  O  O8  1  0.03872267  0.82859538  0.69186059  1
  O  O9  1  0.79218825  0.83412068  0.19373478  1
  O  O10  1  0.03797379  0.20948479  0.19082712  1
  O  O11  1  0.17196807  0.96064860  0.19243778  1
  O  O12  1  0.87917271  0.37335769  0.64234126  1
  O  O13  1  0.49509355  0.12299781  0.64135843  1
  O  O14  1  0.62827768  0.50488523  0.64157230  1
  O  O15  1  0.87663735  0.50691204  0.14006230  1
  O  O16  1  0.63503924  0.11994679  0.13855369  1
  O  O17  1  0.48823418  0.36022129  0.14111553  1
  O  O18  1  0.45698185  0.29643513  0.02701561  1
  O  O19  1  0.84297012  0.53905420  0.02603199  1
  O  O20  1  0.70000011  0.15636962  0.03103463  1
  O  O21  1  0.45642781  0.16373905  0.52537440  1
  O  O22  1  0.70442957  0.54249789  0.52538247  1
  O  O23  1  0.83525468  0.29065172  0.52822001  1
  O  O24  1  0.54209562  0.69647015  0.96959892  1
  O  O25  1  0.15998262  0.45683208  0.97257652  1
  O  O26  1  0.29901860  0.84059987  0.97327946  1
  O  O27  1  0.54365798  0.84132481  0.47307701  1
  O  O28  1  0.30476052  0.45475366  0.47125466  1
  O  O29  1  0.15833817  0.70114531  0.47314847  1
  O  O30  1  0.12410056  0.63546201  0.35943051  1
  O  O31  1  0.50907738  0.87583720  0.36018652  1
  O  O32  1  0.36516474  0.48530004  0.36263338  1
  O  O33  1  0.12628449  0.49165228  0.85957628  1
  O  O34  1  0.36309673  0.87388740  0.85900967  1
  O  O35  1  0.51501372  0.63529767  0.86167392  1
  O  O36  1  0.02539081  0.84010617  0.41072010  1
  O  O37  1  0.81385364  0.97192663  0.41084880  1
  O  O38  1  0.17595684  0.19229772  0.41076886  1
  O  O39  1  0.02944982  0.18578849  0.91061308  1
  O  O40  1  0.15838835  0.97321018  0.91041570  1
  O  O41  1  0.80774781  0.82510407  0.91030662  1
  O  O42  1  0.97622151  0.16193814  0.58965918  1
  O  O43  1  0.18735457  0.02470942  0.58921161  1
  O  O44  1  0.83755438  0.81204470  0.58913965  1
  O  O45  1  0.98406828  0.82047184  0.08912446  1
  O  O46  1  0.83216035  0.03042910  0.08958941  1
  O  O47  1  0.18311035  0.16224601  0.08931289  1
  O  O48  1  0.69121906  0.17073866  0.74395250  1
  O  O49  1  0.48032505  0.30856750  0.74388341  1
  O  O50  1  0.82888952  0.52071981  0.74425975  1
  O  O51  1  0.69144514  0.52377911  0.24411223  1
  O  O52  1  0.83201788  0.30745754  0.24361505  1
  O  O53  1  0.47754619  0.16606009  0.24402194  1
  O  O54  1  0.64311963  0.50874074  0.92290036  1
  O  O55  1  0.85693909  0.36259643  0.92315732  1
  O  O56  1  0.49568010  0.15132245  0.92270311  1
  O  O57  1  0.63371813  0.14579883  0.42277100  1
  O  O58  1  0.49414179  0.35705880  0.42264758  1
  O  O59  1  0.84430366  0.50098585  0.42247366  1
  O  O60  1  0.34869070  0.49854290  0.07742367  1
  O  O61  1  0.14624285  0.64712355  0.07691893  1
  O  O62  1  0.50684083  0.86730548  0.07648089  1
  O  O63  1  0.35709359  0.85741857  0.57711847  1
  O  O64  1  0.49929514  0.64201265  0.57710509  1
  O  O65  1  0.14449799  0.49899100  0.57697663  1
  O  O66  1  0.30897066  0.83205672  0.25605655  1
  O  O67  1  0.52217035  0.68846613  0.25680200  1
  O  O68  1  0.16860128  0.47534655  0.25600464  1
  O  O69  1  0.31238463  0.47747610  0.75627401  1
  O  O70  1  0.16606336  0.69002683  0.75565900  1
  O  O71  1  0.52435295  0.83280450  0.75587248  1
loop_
_geom_bond_atom_site_label_1
_geom_bond_atom_site_label_2
_geom_bond_distance
_geom_bond_site_symmetry_2
Na0 O52 2.468803 1_555
Na0 O67 2.504734 1_545
Na0 O53 2.569133 1_555
Na0 O66 2.592115 1_545
Na0 O31 2.766132 1_545
Na0 O16 2.799605 1_555
Na0 O9 2.869252 1_545
Na0 O2 2.880290 1_555
Na1 O68 2.463749 1_555
Na1 O53 2.503549 1_555
Na1 O67 2.564464 1_555
Na1 O51 2.588438 1_555
Na1 O17 2.735447 1_555
Na1 O32 2.825939 1_555
Na1 O0 2.918647 1_555
Na1 O10 2.922972 1_555
Na2 O51 2.481129 1_555
Na2 O66 2.485924 1_655
Na2 O52 2.590288 1_555
Na2 O68 2.596103 1_655
Na2 O30 2.754585 1_655
Na2 O15 2.779532 1_555
Na2 O1 2.900020 1_555
Na2 O11 2.909540 1_655
Na3 O50 2.466441 1_555
Na3 O71 2.485971 1_555
Na3 O69 2.556245 1_555
Na3 O49 2.578638 1_555
Na3 O14 2.723921 1_555
Na3 O35 2.809115 1_555
Na3 O6 2.913844 1_555
Na3 O4 2.916646 1_555
Na4 O48 2.470649 1_555
Na4 O69 2.520986 1_655
Na4 O70 2.578226 1_655
Na4 O50 2.584352 1_555
Na4 O12 2.719448 1_555
Na4 O33 2.779808 1_655
Na4 O5 2.876205 1_555
Na4 O7 2.915083 1_655
Na5 O49 2.463682 1_555
Na5 O70 2.505113 1_545
Na5 O48 2.572709 1_555
Na5 O71 2.585538 1_545
Na5 O13 2.741679 1_555
Na5 O34 2.759053 1_545
Na5 O3 2.890177 1_555
Na5 O8 2.927585 1_545
Na6 O43 2.469250 1_555
Na6 O64 2.490284 1_555
Na6 O65 2.556805 1_555
Na6 O42 2.570806 1_455
Na6 O7 2.723521 1_555
Na6 O28 2.816396 1_555
Na6 O21 2.904899 1_555
Na6 O14 2.920283 1_555
Na7 O44 2.461789 1_455
Na7 O65 2.516752 1_555
Na7 O43 2.579007 1_565
Na7 O63 2.581149 1_555
Na7 O8 2.738859 1_555
Na7 O29 2.784589 1_555
Na7 O12 2.916082 1_455
Na7 O22 2.923465 1_455
Na8 O42 2.470492 1_565
Na8 O63 2.505591 1_555
Na8 O44 2.580583 1_555
Na8 O64 2.588868 1_555
Na8 O6 2.721331 1_555
Na8 O27 2.790144 1_555
Na8 O23 2.853321 1_565
Na8 O13 2.916394 1_565
Na9 O47 2.475014 1_565
Na9 O45 2.490285 1_455
Na9 O62 2.509064 1_555
Na9 O61 2.548006 1_555
Na9 O11 2.747697 1_555
Na9 O26 2.781306 1_554
Na9 O18 2.901806 1_565
Na9 O16 2.968200 1_565
Na10 O46 2.456344 1_455
Na10 O60 2.497049 1_555
Na10 O61 2.512573 1_555
Na10 O47 2.549771 1_555
Na10 O10 2.712621 1_555
Na10 O25 2.803441 1_554
Na10 O15 2.908731 1_455
Na10 O20 2.921333 1_455
Na11 O40 2.443158 1_655
Na11 O55 2.449903 1_555
Na11 O41 2.536683 1_555
Na11 O54 2.597492 1_555
Na11 O4 2.755183 1_555
Na11 O19 2.771913 1_556
Na11 O26 2.914486 1_655
Na11 O33 2.939439 1_655
Na12 O39 2.419375 1_555
Na12 O56 2.471868 1_555
Na12 O54 2.528087 1_555
Na12 O40 2.578583 1_545
Na12 O3 2.753213 1_555
Na12 O18 2.788947 1_556
Na12 O25 2.907723 1_555
Na12 O35 2.959180 1_555
Na13 O57 2.411292 1_555
Na13 O36 2.462417 1_545
Na13 O38 2.527174 1_555
Na13 O58 2.590708 1_555
Na13 O0 2.749769 1_555
Na13 O21 2.762918 1_555
Na13 O29 2.913992 1_545
Na13 O31 2.924478 1_545
Na14 O37 2.436671 1_555
Na14 O59 2.461684 1_555
Na14 O58 2.512564 1_555
Na14 O36 2.573171 1_655
Na14 O1 2.739742 1_555
Na14 O22 2.748252 1_555
Na14 O27 2.917862 1_555
Na14 O32 2.948906 1_555
Na15 O37 2.572631 1_545
Na15 O42 2.593977 1_555
Na15 O36 2.608462 1_645
Na15 O44 2.618123 1_545
Na15 O43 2.635916 1_655
Na15 O38 2.646001 1_655
Na16 O45 2.580218 1_555
Na16 O39 2.598984 1_664
Na16 O40 2.615095 1_654
Na16 O47 2.621493 1_665
Na16 O41 2.640091 1_554
Na16 O46 2.641949 1_565
Na17 O48 2.569673 1_555
Na17 O56 2.596291 1_555
Na17 O55 2.615953 1_555
Na17 O50 2.623166 1_555
Na17 O49 2.625098 1_555
Na17 O54 2.722899 1_555
Na18 O59 2.554739 1_555
Na18 O57 2.561127 1_555
Na18 O52 2.614956 1_555
Na18 O51 2.664449 1_555
Na18 O53 2.667113 1_555
Na18 O58 2.681517 1_555
Na19 O60 2.579649 1_555
Na19 O67 2.626499 1_555
Na19 O68 2.633391 1_555
Na19 O61 2.648792 1_555
Na19 O66 2.652382 1_555
Na19 O62 2.689520 1_555
Na20 O70 2.625886 1_555
Na20 O64 2.627315 1_555
Na20 O71 2.630095 1_555
Na20 O69 2.631868 1_555
Na20 O65 2.636465 1_555
Na20 O63 2.639121 1_555
O0 Si0 1.637376 1_555
O0 Sn0 2.046467 1_455
O1 Si1 1.635841 1_555
O1 Sn0 2.035509 1_565
O2 Si2 1.626757 1_655
O2 Sn0 2.000438 1_555
O3 Si3 1.637852 1_555
O3 Sn1 2.043979 1_455
O4 Si4 1.640267 1_555
O4 Sn1 2.052630 1_565
O5 Si5 1.628690 1_555
O5 Sn1 2.010536 1_555
O6 Si5 1.639531 1_565
O6 Sn2 2.030140 1_565
O7 Si3 1.637902 1_555
O7 Sn2 2.039088 1_455
O8 Si4 1.637078 1_455
O8 Sn2 2.035865 1_465
O9 Si1 1.625343 1_555
O9 Sn3 2.008038 1_555
O10 Si2 1.641827 1_555
O10 Sn3 2.040637 1_445
O11 Si0 1.633394 1_565
O11 Sn3 2.036433 1_455
O12 Si6 1.639256 1_555
O12 Sn4 2.034287 1_555
O13 Si7 1.637190 1_555
O13 Sn4 2.038274 1_555
O14 Si8 1.638725 1_555
O14 Sn4 2.035680 1_555
O15 Si9 1.639453 1_555
O15 Zr0 2.038639 1_555
O16 P0 1.551005 1_555
O16 Zr0 2.158013 1_555
O17 Si10 1.632063 1_555
O17 Zr0 2.024675 1_555
O18 Si10 1.639608 1_555
O18 Zr1 2.061286 1_554
O19 Si9 1.632227 1_555
O19 Zr1 2.051553 1_554
O20 P0 1.553311 1_555
O20 Zr1 2.086855 1_554
O21 Si7 1.641045 1_555
O21 Sn5 2.058727 1_555
O22 Si8 1.641059 1_555
O22 Sn5 2.049128 1_555
O23 Si6 1.625808 1_555
O23 Sn5 1.998325 1_555
O24 P1 1.538582 1_555
O24 Zr2 2.108923 1_556
O25 Si11 1.649951 1_555
O25 Zr2 2.032914 1_556
O26 Si12 1.640345 1_555
O26 Zr2 2.066466 1_556
O27 Si13 1.646830 1_555
O27 Zr3 2.047693 1_555
O28 P2 1.545874 1_555
O28 Zr3 2.143757 1_555
O29 Si14 1.641034 1_555
O29 Zr3 2.046766 1_555
O30 Si14 1.634043 1_555
O30 Zr4 2.026850 1_555
O31 Si13 1.646864 1_555
O31 Zr4 2.053945 1_555
O32 P2 1.551371 1_555
O32 Zr4 2.157417 1_555
O33 Si11 1.639039 1_555
O33 Zr5 2.042625 1_555
O34 Si12 1.632366 1_555
O34 Zr5 2.018201 1_555
O35 P1 1.550422 1_555
O35 Zr5 2.152339 1_555
O36 Si14 1.660185 1_555
O36 Sn0 2.112733 1_465
O37 Si13 1.639212 1_555
O37 Sn0 2.070677 1_565
O38 P2 1.548253 1_555
O38 Sn0 2.182817 1_455
O39 Si11 1.638499 1_555
O39 Sn1 2.071156 1_455
O40 Si12 1.661558 1_555
O40 Sn1 2.113989 1_465
O41 P1 1.548387 1_555
O41 Sn1 2.173468 1_565
O42 Si6 1.647536 1_555
O42 Sn2 2.093481 1_555
O43 Si7 1.646859 1_555
O43 Sn2 2.108994 1_455
O44 Si8 1.649347 1_555
O44 Sn2 2.113111 1_565
O45 Si9 1.635372 1_555
O45 Sn3 2.063763 1_555
O46 P0 1.548011 1_555
O46 Sn3 2.180790 1_545
O47 Si10 1.660041 1_555
O47 Sn3 2.109095 1_445
O48 Si5 1.649313 1_555
O48 Sn4 2.104180 1_555
O49 Si3 1.649040 1_555
O49 Sn4 2.099647 1_555
O50 Si4 1.646747 1_555
O50 Sn4 2.111398 1_555
O51 Si1 1.646488 1_555
O51 Zr0 2.086577 1_555
O52 Si2 1.641656 1_655
O52 Zr0 2.138088 1_555
O53 Si0 1.638084 1_555
O53 Zr0 2.141541 1_555
O54 P1 1.562011 1_555
O54 Zr1 2.221739 1_555
O55 Si11 1.629920 1_655
O55 Zr1 2.101815 1_555
O56 Si12 1.632129 1_545
O56 Zr1 2.102651 1_555
O57 Si13 1.643340 1_545
O57 Sn5 2.074626 1_555
O58 P2 1.564498 1_555
O58 Sn5 2.243942 1_555
O59 Si14 1.640156 1_655
O59 Sn5 2.073629 1_555
O60 Si10 1.630875 1_555
O60 Zr2 2.095426 1_555
O61 Si9 1.659189 1_455
O61 Zr2 2.114042 1_555
O62 P0 1.540042 1_565
O62 Zr2 2.214046 1_555
O63 Si7 1.648322 1_565
O63 Zr3 2.106183 1_555
O64 Si8 1.643318 1_555
O64 Zr3 2.142958 1_555
O65 Si6 1.642475 1_455
O65 Zr3 2.136879 1_555
O66 Si0 1.646908 1_565
O66 Zr4 2.097759 1_555
O67 Si1 1.639581 1_555
O67 Zr4 2.140731 1_555
O68 Si2 1.644068 1_555
O68 Zr4 2.139060 1_555
O69 Si3 1.640951 1_555
O69 Zr5 2.145223 1_555
O70 Si4 1.647015 1_455
O70 Zr5 2.107788 1_555
O71 Si5 1.642576 1_565
O71 Zr5 2.128665 1_555
