# generated using pymatgen
data_NbSeCl9
_symmetry_space_group_name_H-M   'P 1'
_cell_length_a   19.74334300
_cell_length_b   12.57725400
_cell_length_c   13.01837111
_cell_angle_alpha   61.12923625
_cell_angle_beta   90.00000000
_cell_angle_gamma   90.00000000
_symmetry_Int_Tables_number   1
_chemical_formula_structural   NbSeCl9
_chemical_formula_sum   'Nb8 Se8 Cl72'
_cell_volume   2830.89644575
_cell_formula_units_Z   8
loop_
 _symmetry_equiv_pos_site_id
 _symmetry_equiv_pos_as_xyz
  1  'x, y, z'
loop_
 _atom_site_type_symbol
 _atom_site_label
 _atom_site_symmetry_multiplicity
 _atom_site_fract_x
 _atom_site_fract_y
 _atom_site_fract_z
 _atom_site_occupancy
  Nb  Nb0  1  0.33553600  0.41151800  0.17178000  1
  Nb  Nb1  1  0.83553600  0.58848200  0.32822000  1
  Nb  Nb2  1  0.66446400  0.58848200  0.82822000  1
  Nb  Nb3  1  0.16446400  0.41151800  0.67178000  1
  Nb  Nb4  1  0.50162800  0.16455800  0.66881700  1
  Nb  Nb5  1  0.00162800  0.83544200  0.83118300  1
  Nb  Nb6  1  0.49837200  0.83544200  0.33118300  1
  Nb  Nb7  1  0.99837200  0.16455800  0.16881700  1
  Se  Se0  1  0.34630100  0.59700600  0.81438900  1
  Se  Se1  1  0.84630100  0.40299400  0.68561100  1
  Se  Se2  1  0.65369900  0.40299400  0.18561100  1
  Se  Se3  1  0.15369900  0.59700600  0.31438900  1
  Se  Se4  1  0.32853700  0.06301300  0.85767100  1
  Se  Se5  1  0.82853700  0.93698700  0.64232900  1
  Se  Se6  1  0.67146300  0.93698700  0.14232900  1
  Se  Se7  1  0.17146300  0.06301300  0.35767100  1
  Cl  Cl0  1  0.29000700  0.75835000  0.68626200  1
  Cl  Cl1  1  0.79000700  0.24165000  0.81373800  1
  Cl  Cl2  1  0.70999300  0.24165000  0.31373800  1
  Cl  Cl3  1  0.20999300  0.75835000  0.18626200  1
  Cl  Cl4  1  0.43307500  0.69170200  0.83344100  1
  Cl  Cl5  1  0.93307500  0.30829800  0.66655900  1
  Cl  Cl6  1  0.56692500  0.30829800  0.16655900  1
  Cl  Cl7  1  0.06692500  0.69170200  0.33344100  1
  Cl  Cl8  1  0.39116100  0.54255500  0.69254500  1
  Cl  Cl9  1  0.89116100  0.45744500  0.80745500  1
  Cl  Cl10  1  0.60883900  0.45744500  0.30745500  1
  Cl  Cl11  1  0.10883900  0.54255500  0.19254500  1
  Cl  Cl12  1  0.23621300  0.97421700  0.83574900  1
  Cl  Cl13  1  0.73621300  0.02578300  0.66425100  1
  Cl  Cl14  1  0.76378700  0.02578300  0.16425100  1
  Cl  Cl15  1  0.26378700  0.97421700  0.33574900  1
  Cl  Cl16  1  0.28624400  0.10983600  0.98905200  1
  Cl  Cl17  1  0.78624400  0.89016400  0.51094800  1
  Cl  Cl18  1  0.71375600  0.89016400  0.01094800  1
  Cl  Cl19  1  0.21375600  0.10983600  0.48905200  1
  Cl  Cl20  1  0.37954500  0.89678800  0.98244900  1
  Cl  Cl21  1  0.87954500  0.10321200  0.51755100  1
  Cl  Cl22  1  0.62045500  0.10321200  0.01755100  1
  Cl  Cl23  1  0.12045500  0.89678800  0.48244900  1
  Cl  Cl24  1  0.42712900  0.53354300  0.16053900  1
  Cl  Cl25  1  0.92712900  0.46645700  0.33946100  1
  Cl  Cl26  1  0.57287100  0.46645700  0.83946100  1
  Cl  Cl27  1  0.07287100  0.53354300  0.66053900  1
  Cl  Cl28  1  0.23646400  0.30570600  0.16209500  1
  Cl  Cl29  1  0.73646400  0.69429400  0.33790500  1
  Cl  Cl30  1  0.76353600  0.69429400  0.83790500  1
  Cl  Cl31  1  0.26353600  0.30570600  0.66209500  1
  Cl  Cl32  1  0.38564800  0.38305500  0.01243000  1
  Cl  Cl33  1  0.88564800  0.61694500  0.48757000  1
  Cl  Cl34  1  0.61435200  0.61694500  0.98757000  1
  Cl  Cl35  1  0.11435200  0.38305500  0.51243000  1
  Cl  Cl36  1  0.38662100  0.23347100  0.30555600  1
  Cl  Cl37  1  0.88662100  0.76652900  0.19444400  1
  Cl  Cl38  1  0.61337900  0.76652900  0.69444400  1
  Cl  Cl39  1  0.11337900  0.23347100  0.80555600  1
  Cl  Cl40  1  0.28272600  0.44956500  0.31329100  1
  Cl  Cl41  1  0.78272600  0.55043500  0.18670900  1
  Cl  Cl42  1  0.71727400  0.55043500  0.68670900  1
  Cl  Cl43  1  0.21727400  0.44956500  0.81329100  1
  Cl  Cl44  1  0.28224900  0.59427800  0.00874000  1
  Cl  Cl45  1  0.78224900  0.40572200  0.49126000  1
  Cl  Cl46  1  0.71775100  0.40572200  0.99126000  1
  Cl  Cl47  1  0.21775100  0.59427800  0.50874000  1
  Cl  Cl48  1  0.59660300  0.26488300  0.68245600  1
  Cl  Cl49  1  0.09660300  0.73511700  0.81754400  1
  Cl  Cl50  1  0.40339700  0.73511700  0.31754400  1
  Cl  Cl51  1  0.90339700  0.26488300  0.18245600  1
  Cl  Cl52  1  0.44508600  0.19122400  0.82888800  1
  Cl  Cl53  1  0.94508600  0.80877600  0.67111200  1
  Cl  Cl54  1  0.55491400  0.80877600  0.17111200  1
  Cl  Cl55  1  0.05491400  0.19122400  0.32888800  1
  Cl  Cl56  1  0.39159300  0.05826400  0.67450400  1
  Cl  Cl57  1  0.89159300  0.94173600  0.82549600  1
  Cl  Cl58  1  0.60840700  0.94173600  0.32549600  1
  Cl  Cl59  1  0.10840700  0.05826400  0.17450400  1
  Cl  Cl60  1  0.44842300  0.34588100  0.53557400  1
  Cl  Cl61  1  0.94842300  0.65411900  0.96442600  1
  Cl  Cl62  1  0.55157700  0.65411900  0.46442600  1
  Cl  Cl63  1  0.05157700  0.34588100  0.03557400  1
  Cl  Cl64  1  0.53978300  0.12572500  0.52233900  1
  Cl  Cl65  1  0.03978300  0.87427500  0.97766100  1
  Cl  Cl66  1  0.46021700  0.87427500  0.47766100  1
  Cl  Cl67  1  0.96021700  0.12572500  0.02233900  1
  Cl  Cl68  1  0.53988800  0.97555500  0.81732100  1
  Cl  Cl69  1  0.03988800  0.02444500  0.68267900  1
  Cl  Cl70  1  0.46011200  0.02444500  0.18267900  1
  Cl  Cl71  1  0.96011200  0.97555500  0.31732100  1
loop_
_geom_bond_atom_site_label_1
_geom_bond_atom_site_label_2
_geom_bond_distance
_geom_bond_site_symmetry_2
Cl0 Se0 2.206085 1_555
Cl1 Se1 2.206085 1_555
Cl2 Se2 2.206085 1_555
Cl3 Se3 2.206085 1_555
Cl4 Se0 2.168036 1_555
Cl5 Se1 2.168036 1_555
Cl6 Se2 2.168036 1_555
Cl7 Se3 2.168036 1_555
Cl8 Se0 2.195115 1_555
Cl9 Se1 2.195115 1_555
Cl10 Se2 2.195115 1_555
Cl11 Se3 2.195115 1_555
Cl12 Se4 2.226890 1_565
Cl13 Se5 2.226890 1_545
Cl14 Se6 2.226890 1_545
Cl15 Se7 2.226890 1_565
Cl16 Se4 2.223075 1_555
Cl17 Se5 2.223075 1_555
Cl18 Se6 2.223075 1_555
Cl19 Se7 2.223075 1_555
Cl20 Se4 2.178125 1_565
Cl21 Se5 2.178125 1_545
Cl22 Se6 2.178125 1_545
Cl23 Se7 2.178125 1_565
Cl24 Nb0 2.330256 1_555
Cl25 Nb1 2.330256 1_555
Cl26 Nb2 2.330256 1_555
Cl27 Nb3 2.330256 1_555
Cl28 Nb0 2.403125 1_555
Cl29 Nb1 2.403125 1_555
Cl30 Nb2 2.403125 1_555
Cl31 Nb3 2.403125 1_555
Cl32 Nb0 2.475403 1_555
Cl32 Se0 2.791415 1_554
Cl33 Nb1 2.475403 1_555
Cl33 Se1 2.791415 1_555
Cl34 Nb2 2.475403 1_555
Cl34 Se2 2.791415 1_556
Cl35 Nb3 2.475403 1_555
Cl35 Se3 2.791415 1_555
Cl36 Nb0 2.301923 1_555
Cl37 Nb1 2.301923 1_555
Cl38 Nb2 2.301923 1_555
Cl39 Nb3 2.301923 1_555
Cl40 Nb0 2.358232 1_555
Cl41 Nb1 2.358232 1_555
Cl42 Nb2 2.358232 1_555
Cl43 Nb3 2.358232 1_555
Cl44 Nb0 2.486803 1_555
Cl44 Se0 2.813918 1_554
Cl45 Nb1 2.486803 1_555
Cl45 Se1 2.813918 1_555
Cl46 Nb2 2.486803 1_555
Cl46 Se2 2.813918 1_556
Cl47 Nb3 2.486803 1_555
Cl47 Se3 2.813918 1_555
Cl48 Nb4 2.314334 1_555
Cl49 Nb5 2.314334 1_555
Cl50 Nb6 2.314334 1_555
Cl51 Nb7 2.314334 1_555
Cl52 Nb4 2.525087 1_555
Cl52 Se4 2.729857 1_555
Cl53 Nb5 2.525087 1_655
Cl53 Se5 2.729857 1_555
Cl54 Nb6 2.525087 1_555
Cl54 Se6 2.729857 1_555
Cl55 Nb7 2.525087 1_455
Cl55 Se7 2.729857 1_555
Cl56 Nb4 2.533129 1_555
Cl56 Se4 2.716060 1_555
Cl57 Nb5 2.533129 1_655
Cl57 Se5 2.716060 1_555
Cl58 Nb6 2.533129 1_555
Cl58 Se6 2.716060 1_555
Cl59 Nb7 2.533129 1_455
Cl59 Se7 2.716060 1_555
Cl60 Nb4 2.343743 1_555
Cl61 Nb5 2.343743 1_655
Cl62 Nb6 2.343743 1_555
Cl63 Nb7 2.343743 1_455
Cl64 Nb4 2.311209 1_555
Cl65 Nb5 2.311209 1_555
Cl66 Nb6 2.311209 1_555
Cl67 Nb7 2.311209 1_555
Cl68 Nb4 2.349691 1_565
Cl69 Nb5 2.349691 1_545
Cl70 Nb6 2.349691 1_545
Cl71 Nb7 2.349691 1_565
