# generated using pymatgen
data_HfSiMo
_symmetry_space_group_name_H-M   'P 1'
_cell_length_a   3.47997824
_cell_length_b   6.93491418
_cell_length_c   8.16778268
_cell_angle_alpha   90.00000000
_cell_angle_beta   90.00000000
_cell_angle_gamma   90.00000000
_symmetry_Int_Tables_number   1
_chemical_formula_structural   HfSiMo
_chemical_formula_sum   'Hf4 Si4 Mo4'
_cell_volume   197.11596176
_cell_formula_units_Z   4
loop_
 _symmetry_equiv_pos_site_id
 _symmetry_equiv_pos_as_xyz
  1  'x, y, z'
loop_
 _atom_site_type_symbol
 _atom_site_label
 _atom_site_symmetry_multiplicity
 _atom_site_fract_x
 _atom_site_fract_y
 _atom_site_fract_z
 _atom_site_occupancy
  Hf  Hf0  1  0.25000000  0.54480105  0.83256260  1
  Hf  Hf1  1  0.75000000  0.45519895  0.16743740  1
  Hf  Hf2  1  0.25000000  0.04480105  0.66743740  1
  Hf  Hf3  1  0.75000000  0.95519895  0.33256260  1
  Si  Si0  1  0.25000000  0.75557378  0.13678926  1
  Si  Si1  1  0.75000000  0.24442622  0.86321074  1
  Si  Si2  1  0.25000000  0.25557378  0.36321074  1
  Si  Si3  1  0.75000000  0.74442622  0.63678926  1
  Mo  Mo0  1  0.75000000  0.86630653  0.93745097  1
  Mo  Mo1  1  0.25000000  0.13369347  0.06254903  1
  Mo  Mo2  1  0.75000000  0.36630653  0.56254903  1
  Mo  Mo3  1  0.25000000  0.63369347  0.43745097  1
loop_
_geom_bond_atom_site_label_1
_geom_bond_atom_site_label_2
_geom_bond_distance
_geom_bond_site_symmetry_2
Hf0 Si1 2.725697 1_555
Hf0 Si1 2.725697 1_455
Hf0 Si3 2.738793 1_455
Hf0 Si3 2.738793 1_555
Hf0 Si0 2.882890 1_556
Hf0 Mo0 2.955111 1_455
Hf0 Mo0 2.955111 1_555
Hf0 Mo2 3.069799 1_555
Hf0 Mo2 3.069799 1_455
Hf1 Si0 2.725697 1_655
Hf1 Si0 2.725697 1_555
Hf1 Si2 2.738793 1_555
Hf1 Si2 2.738793 1_655
Hf1 Si1 2.882890 1_554
Hf1 Mo1 2.955111 1_555
Hf1 Mo1 2.955111 1_655
Hf1 Mo3 3.069799 1_655
Hf1 Mo3 3.069799 1_555
Hf2 Si3 2.725697 1_545
Hf2 Si3 2.725697 1_445
Hf2 Si1 2.738793 1_455
Hf2 Si1 2.738793 1_555
Hf2 Si2 2.882890 1_555
Hf2 Mo2 2.955111 1_455
Hf2 Mo2 2.955111 1_555
Hf2 Mo0 3.069799 1_545
Hf2 Mo0 3.069799 1_445
Hf3 Si2 2.725697 1_665
Hf3 Si2 2.725697 1_565
Hf3 Si0 2.738793 1_555
Hf3 Si0 2.738793 1_655
Hf3 Si3 2.882890 1_555
Hf3 Mo3 2.955111 1_555
Hf3 Mo3 2.955111 1_655
Hf3 Mo1 3.069799 1_665
Hf3 Mo1 3.069799 1_565
Mo0 Si0 2.503626 1_556
Mo0 Si0 2.503626 1_656
Mo0 Si3 2.597127 1_555
Mo0 Si1 2.691426 1_565
Mo1 Si1 2.503626 1_554
Mo1 Si1 2.503626 1_454
Mo1 Si2 2.597127 1_555
Mo1 Si0 2.691426 1_545
Mo2 Si2 2.503626 1_555
Mo2 Si2 2.503626 1_655
Mo2 Si1 2.597127 1_555
Mo2 Si3 2.691426 1_555
Mo3 Si3 2.503626 1_455
Mo3 Si3 2.503626 1_555
Mo3 Si0 2.597127 1_555
Mo3 Si2 2.691426 1_555
