# generated using pymatgen
data_Na14Ca5Zr3(PO4)12
_symmetry_space_group_name_H-M   'P 1'
_cell_length_a   18.67580380
_cell_length_b   9.34694029
_cell_length_c   22.74036201
_cell_angle_alpha   90.05708691
_cell_angle_beta   89.98335507
_cell_angle_gamma   119.85851903
_symmetry_Int_Tables_number   1
_chemical_formula_structural   Na14Ca5Zr3(PO4)12
_chemical_formula_sum   'Na42 Ca15 Zr9 P36 O144'
_cell_volume   3442.65846752
_cell_formula_units_Z   3
loop_
 _symmetry_equiv_pos_site_id
 _symmetry_equiv_pos_as_xyz
  1  'x, y, z'
loop_
 _atom_site_type_symbol
 _atom_site_label
 _atom_site_symmetry_multiplicity
 _atom_site_fract_x
 _atom_site_fract_y
 _atom_site_fract_z
 _atom_site_occupancy
  Na  Na0  1  0.18553318  0.35674760  0.24372316  1
  Na  Na1  1  0.68621603  0.35850112  0.24438427  1
  Na  Na2  1  0.99313892  0.63602990  0.24519277  1
  Na  Na3  1  0.49355011  0.63569325  0.24390972  1
  Na  Na4  1  0.32034505  0.62692621  0.74435500  1
  Na  Na5  1  0.82123362  0.62852522  0.74556452  1
  Na  Na6  1  0.18109853  0.01377283  0.74497614  1
  Na  Na7  1  0.68096229  0.01296045  0.74382364  1
  Na  Na8  1  0.16020967  0.34413820  0.57758174  1
  Na  Na9  1  0.66069614  0.34508797  0.57740577  1
  Na  Na10  1  0.01163590  0.68007381  0.57816531  1
  Na  Na11  1  0.51171854  0.67948282  0.57804802  1
  Na  Na12  1  0.32687953  0.97309280  0.57720716  1
  Na  Na13  1  0.82732734  0.97288684  0.57816360  1
  Na  Na14  1  0.15618871  0.97261439  0.07718677  1
  Na  Na15  1  0.65752014  0.96815550  0.07946500  1
  Na  Na16  1  0.32771580  0.67704151  0.07795276  1
  Na  Na17  1  0.01555675  0.34856343  0.07975272  1
  Na  Na18  1  0.51427441  0.34876800  0.07580445  1
  Na  Na19  1  0.48202429  0.67096596  0.91670101  1
  Na  Na20  1  0.99197354  0.68088615  0.91104000  1
  Na  Na21  1  0.35293100  0.03690260  0.91620598  1
  Na  Na22  1  0.16481679  0.28958019  0.91612376  1
  Na  Na23  1  0.66163468  0.29747041  0.91129332  1
  Na  Na24  1  0.48211666  0.29470217  0.41661226  1
  Na  Na25  1  0.98203212  0.29449930  0.41631640  1
  Na  Na26  1  0.16423980  0.03726774  0.41594323  1
  Na  Na27  1  0.66449406  0.03760162  0.41600547  1
  Na  Na28  1  0.35339280  0.66724804  0.41578574  1
  Na  Na29  1  0.85355094  0.66754595  0.41535528  1
  Na  Na30  1  0.99970777  0.00057626  0.49389798  1
  Na  Na31  1  0.49986256  0.00081383  0.49377822  1
  Na  Na32  1  0.98156912  0.98429804  0.99394248  1
  Na  Na33  1  0.49952010  0.99987258  0.99512244  1
  Na  Na34  1  0.34122838  0.33280480  0.83201931  1
  Na  Na35  1  0.84404769  0.31902046  0.82783140  1
  Na  Na36  1  0.33331506  0.31682472  0.33212557  1
  Na  Na37  1  0.83370663  0.31669248  0.33226700  1
  Na  Na38  1  0.17411136  0.67987074  0.16375789  1
  Na  Na39  1  0.68234409  0.68253747  0.16026043  1
  Na  Na40  1  0.15944579  0.65361532  0.66264803  1
  Na  Na41  1  0.65991833  0.65341130  0.66318415  1
  Ca  Ca0  1  0.99740294  0.00090660  0.34608778  1
  Ca  Ca1  1  0.49768769  0.00106160  0.34648661  1
  Ca  Ca2  1  0.99560506  0.00403941  0.85002223  1
  Ca  Ca3  1  0.49969537  0.00457409  0.84701870  1
  Ca  Ca4  1  0.33728291  0.33216172  0.68277045  1
  Ca  Ca5  1  0.83744451  0.33357537  0.68192046  1
  Ca  Ca6  1  0.33353808  0.32443611  0.18232262  1
  Ca  Ca7  1  0.83368266  0.33037833  0.18335096  1
  Ca  Ca8  1  0.33305551  0.33216059  0.98506179  1
  Ca  Ca9  1  0.33389717  0.33355986  0.48506684  1
  Ca  Ca10  1  0.83387454  0.33348230  0.48496570  1
  Ca  Ca11  1  0.16746449  0.66755988  0.01522443  1
  Ca  Ca12  1  0.67083779  0.66681595  0.01614018  1
  Ca  Ca13  1  0.16726716  0.66796649  0.51472092  1
  Ca  Ca14  1  0.66742652  0.66826008  0.51476021  1
  Zr  Zr0  1  0.99927241  0.00471553  0.65393115  1
  Zr  Zr1  1  0.50018003  0.00506861  0.65460065  1
  Zr  Zr2  1  0.99302227  0.99380250  0.15038558  1
  Zr  Zr3  1  0.49983093  0.00074230  0.15275656  1
  Zr  Zr4  1  0.83312533  0.33209764  0.98284642  1
  Zr  Zr5  1  0.16913561  0.67147409  0.31451919  1
  Zr  Zr6  1  0.66942497  0.67234730  0.31508114  1
  Zr  Zr7  1  0.16230752  0.66039293  0.81585532  1
  Zr  Zr8  1  0.66841383  0.66696370  0.81696114  1
  P  P0  1  0.14592451  0.99120512  0.25060214  1
  P  P1  1  0.64909070  0.99404096  0.25326955  1
  P  P2  1  0.34735901  0.69880844  0.25158389  1
  P  P3  1  0.84676333  0.69924100  0.25321179  1
  P  P4  1  0.00487174  0.30900869  0.25202831  1
  P  P5  1  0.50590618  0.31155660  0.25221591  1
  P  P6  1  0.14993727  0.30443245  0.75341073  1
  P  P7  1  0.65197319  0.30948573  0.75288028  1
  P  P8  1  0.00307392  0.70428709  0.75328577  1
  P  P9  1  0.50442761  0.70341974  0.75401462  1
  P  P10  1  0.34346956  0.98849022  0.75379784  1
  P  P11  1  0.84458986  0.99061885  0.75061241  1
  P  P12  1  0.48685560  0.32652978  0.58182597  1
  P  P13  1  0.98707009  0.32696298  0.58164302  1
  P  P14  1  0.17550048  0.02686556  0.58618007  1
  P  P15  1  0.67553310  0.02684170  0.58618325  1
  P  P16  1  0.33728784  0.64762857  0.58677358  1
  P  P17  1  0.83729756  0.64752040  0.58640352  1
  P  P18  1  0.48627517  0.64564540  0.08594339  1
  P  P19  1  0.98123484  0.64039513  0.08459413  1
  P  P20  1  0.33746844  0.02733845  0.08169639  1
  P  P21  1  0.83650172  0.04049348  0.08396912  1
  P  P22  1  0.17617550  0.32391573  0.08663270  1
  P  P23  1  0.67978750  0.32306302  0.08611062  1
  P  P24  1  0.31490234  0.66225850  0.91580243  1
  P  P25  1  0.81532856  0.65484138  0.91580062  1
  P  P26  1  0.01489067  0.37066922  0.92080298  1
  P  P27  1  0.51744277  0.37302187  0.91849402  1
  P  P28  1  0.16853285  0.96900061  0.91550492  1
  P  P29  1  0.67000090  0.96921233  0.91873812  1
  P  P30  1  0.31546559  0.96699318  0.41795389  1
  P  P31  1  0.81579518  0.96762546  0.41821410  1
  P  P32  1  0.16831736  0.36957612  0.41545994  1
  P  P33  1  0.66829773  0.36955010  0.41561637  1
  P  P34  1  0.01665921  0.66451869  0.41539033  1
  P  P35  1  0.51643952  0.66420808  0.41552309  1
  O  O0  1  0.10861810  0.00871579  0.30783881  1
  O  O1  1  0.61003588  0.00947384  0.30998487  1
  O  O2  1  0.39490192  0.77096394  0.30832923  1
  O  O3  1  0.89297795  0.76856214  0.31067411  1
  O  O4  1  0.49700318  0.22036030  0.30939289  1
  O  O5  1  0.99698543  0.22097348  0.30977437  1
  O  O6  1  0.11284964  0.20649099  0.80923458  1
  O  O7  1  0.61509767  0.21225789  0.80928884  1
  O  O8  1  0.49491770  0.77890877  0.81089275  1
  O  O9  1  0.99627426  0.78346731  0.80987375  1
  O  O10  1  0.38892241  0.00594455  0.81111889  1
  O  O11  1  0.89471150  0.00806902  0.80479264  1
  O  O12  1  0.39525264  0.97473415  0.70082945  1
  O  O13  1  0.89110695  0.97524275  0.69458382  1
  O  O14  1  0.09365182  0.20799231  0.69897193  1
  O  O15  1  0.59451130  0.21074815  0.69925013  1
  O  O16  1  0.01280125  0.82351471  0.70023774  1
  O  O17  1  0.51563202  0.82536393  0.70132686  1
  O  O18  1  0.39773939  0.81413746  0.19815287  1
  O  O19  1  0.89782412  0.81768479  0.20092815  1
  O  O20  1  0.00979636  0.20332778  0.19898137  1
  O  O21  1  0.51365814  0.20915242  0.19880503  1
  O  O22  1  0.08482024  0.96847839  0.19784338  1
  O  O23  1  0.58896532  0.97424986  0.20021697  1
  O  O24  1  0.44094617  0.35590142  0.63119562  1
  O  O25  1  0.94139958  0.35587266  0.63119677  1
  O  O26  1  0.22910528  0.11062577  0.64019865  1
  O  O27  1  0.72901487  0.11078685  0.64014592  1
  O  O28  1  0.32510723  0.53973279  0.64064882  1
  O  O29  1  0.82526385  0.54057993  0.64046782  1
  O  O30  1  0.44381599  0.53925559  0.13983756  1
  O  O31  1  0.94464282  0.54175152  0.14043556  1
  O  O32  1  0.32295544  0.11845608  0.13120622  1
  O  O33  1  0.82576923  0.11942755  0.13864040  1
  O  O34  1  0.23039479  0.34998197  0.14049389  1
  O  O35  1  0.72540179  0.34008276  0.14316331  1
  O  O36  1  0.21278715  0.29282211  0.03031386  1
  O  O37  1  0.72961462  0.30528260  0.03209472  1
  O  O38  1  0.43389160  0.57330964  0.02959902  1
  O  O39  1  0.92541619  0.54198867  0.02976514  1
  O  O40  1  0.35410217  0.12187380  0.02299724  1
  O  O41  1  0.84891993  0.16063935  0.03020644  1
  O  O42  1  0.21273480  0.13136302  0.53003582  1
  O  O43  1  0.71238450  0.13123276  0.52997980  1
  O  O44  1  0.35390886  0.57565172  0.53046771  1
  O  O45  1  0.85326310  0.57413192  0.53017450  1
  O  O46  1  0.43864303  0.29051658  0.52329750  1
  O  O47  1  0.93868685  0.29134077  0.52322374  1
  O  O48  1  0.27648501  0.67472591  0.97372507  1
  O  O49  1  0.77249458  0.67088411  0.96936005  1
  O  O50  1  0.05992442  0.44585123  0.97844572  1
  O  O51  1  0.55987966  0.44604818  0.97704808  1
  O  O52  1  0.16146677  0.87538664  0.97259633  1
  O  O53  1  0.65752957  0.87029027  0.97451183  1
  O  O54  1  0.27846125  0.88134651  0.47651481  1
  O  O55  1  0.77861019  0.88166072  0.47668969  1
  O  O56  1  0.16302126  0.44918071  0.47298150  1
  O  O57  1  0.66288612  0.44911813  0.47310144  1
  O  O58  1  0.06262001  0.67691958  0.47264037  1
  O  O59  1  0.56238180  0.67688419  0.47282438  1
  O  O60  1  0.07058709  0.66172968  0.36125642  1
  O  O61  1  0.57034839  0.66155350  0.36155784  1
  O  O62  1  0.25797464  0.85253869  0.36616990  1
  O  O63  1  0.75832939  0.85327679  0.36649845  1
  O  O64  1  0.16977873  0.48102179  0.36183833  1
  O  O65  1  0.66968657  0.48047948  0.36197801  1
  O  O66  1  0.06537997  0.49139220  0.86824671  1
  O  O67  1  0.57605616  0.49145606  0.86767358  1
  O  O68  1  0.16955039  0.86006969  0.86159785  1
  O  O69  1  0.67914227  0.87469386  0.86370980  1
  O  O70  1  0.25710590  0.65705898  0.86308219  1
  O  O71  1  0.76277881  0.64016477  0.85869583  1
  O  O72  1  0.00568350  0.81760785  0.41262500  1
  O  O73  1  0.50496885  0.81681118  0.41279539  1
  O  O74  1  0.40261941  0.98831401  0.41359650  1
  O  O75  1  0.90297159  0.98918488  0.41384363  1
  O  O76  1  0.09181437  0.19503426  0.41246953  1
  O  O77  1  0.59157650  0.19502915  0.41270315  1
  O  O78  1  0.00660090  0.20197118  0.91375924  1
  O  O79  1  0.50755066  0.19929577  0.91298242  1
  O  O80  1  0.09253708  0.99192774  0.91225742  1
  O  O81  1  0.59498192  0.99580870  0.91239009  1
  O  O82  1  0.40210922  0.81587798  0.91201945  1
  O  O83  1  0.90497158  0.79373960  0.91234972  1
  O  O84  1  0.49347801  0.16595628  0.59360065  1
  O  O85  1  0.99442707  0.16707662  0.59269700  1
  O  O86  1  0.08740253  0.01175540  0.59299182  1
  O  O87  1  0.58739479  0.01188920  0.59328712  1
  O  O88  1  0.41706242  0.82403805  0.59466078  1
  O  O89  1  0.91756297  0.82334247  0.59343553  1
  O  O90  1  0.49337539  0.82147130  0.09310745  1
  O  O91  1  0.98754021  0.81486059  0.08672358  1
  O  O92  1  0.41898548  0.01652902  0.09254192  1
  O  O93  1  0.91969439  0.03598951  0.08654031  1
  O  O94  1  0.08848348  0.16273950  0.09440214  1
  O  O95  1  0.59461695  0.15316345  0.08652128  1
  O  O96  1  0.32470157  0.12859636  0.74674444  1
  O  O97  1  0.82483243  0.13006326  0.74595210  1
  O  O98  1  0.23763241  0.33100802  0.74601239  1
  O  O99  1  0.73882917  0.33289212  0.74563016  1
  O  O100  1  0.42849979  0.53460539  0.74543024  1
  O  O101  1  0.92678869  0.53472229  0.74647084  1
  O  O102  1  0.33488628  0.52466370  0.24428523  1
  O  O103  1  0.83508527  0.52611424  0.24529414  1
  O  O104  1  0.43531107  0.34786024  0.24548258  1
  O  O105  1  0.93558781  0.34965393  0.24599892  1
  O  O106  1  0.23054355  0.14361890  0.24307063  1
  O  O107  1  0.73346056  0.14669451  0.24634653  1
  O  O108  1  0.31824849  0.50099968  0.91127542  1
  O  O109  1  0.81487790  0.48364373  0.91868102  1
  O  O110  1  0.43408713  0.36788942  0.91198789  1
  O  O111  1  0.92980868  0.36917627  0.92053128  1
  O  O112  1  0.25010701  0.13492174  0.91149956  1
  O  O113  1  0.75001579  0.14500563  0.92177736  1
  O  O114  1  0.31703025  0.13295306  0.41223296  1
  O  O115  1  0.81721654  0.13345605  0.41244190  1
  O  O116  1  0.24931330  0.36310917  0.41128310  1
  O  O117  1  0.74915108  0.36266234  0.41145165  1
  O  O118  1  0.43272511  0.50201213  0.41154869  1
  O  O119  1  0.93295540  0.50250809  0.41139161  1
  O  O120  1  0.16278806  0.47451415  0.08299843  1
  O  O121  1  0.66008640  0.46234737  0.07940041  1
  O  O122  1  0.07003346  0.66979078  0.07845425  1
  O  O123  1  0.57460775  0.67194993  0.08278512  1
  O  O124  1  0.26403366  0.84807978  0.08123323  1
  O  O125  1  0.76153333  0.86990758  0.07661626  1
  O  O126  1  0.16160169  0.84947287  0.58280186  1
  O  O127  1  0.66135745  0.84931080  0.58285202  1
  O  O128  1  0.26203978  0.67404716  0.58286166  1
  O  O129  1  0.76211695  0.67419177  0.58271001  1
  O  O130  1  0.07630780  0.47460557  0.58053319  1
  O  O131  1  0.57607719  0.47380954  0.58060769  1
  O  O132  1  0.14943956  0.82551758  0.25085548  1
  O  O133  1  0.65139394  0.82774260  0.25239137  1
  O  O134  1  0.26013709  0.68593511  0.25180799  1
  O  O135  1  0.75964625  0.68577417  0.25248898  1
  O  O136  1  0.09065093  0.47770717  0.25017884  1
  O  O137  1  0.59055561  0.48058253  0.25110893  1
  O  O138  1  0.15603931  0.47854210  0.75468044  1
  O  O139  1  0.65867501  0.48372269  0.75387872  1
  O  O140  1  0.08590185  0.69736549  0.75241022  1
  O  O141  1  0.58794646  0.69948993  0.75501384  1
  O  O142  1  0.25889796  0.81842570  0.75245512  1
  O  O143  1  0.75986709  0.82068588  0.75199383  1
loop_
_geom_bond_atom_site_label_1
_geom_bond_atom_site_label_2
_geom_bond_distance
_geom_bond_site_symmetry_2
Na0 O102 2.425811 1_555
Na0 O34 2.503575 1_555
Na0 O106 2.518460 1_555
Na0 O136 2.536568 1_555
Na0 O134 2.678192 1_555
Na1 O103 2.418173 1_555
Na1 O35 2.446871 1_555
Na1 O107 2.537596 1_555
Na1 O137 2.558620 1_555
Na1 O135 2.663470 1_555
Na1 O65 2.981613 1_555
Na1 O21 2.988000 1_555
Na2 O105 2.335786 1_555
Na2 O31 2.544438 1_555
Na2 O132 2.554637 1_655
Na2 O103 2.597865 1_555
Na2 O136 2.864104 1_655
Na2 O22 2.907699 1_655
Na2 O60 2.961562 1_655
Na3 O104 2.347085 1_555
Na3 O30 2.537633 1_555
Na3 O133 2.584576 1_555
Na3 O102 2.606818 1_555
Na3 O137 2.833163 1_555
Na4 O98 2.404958 1_555
Na4 O28 2.510378 1_555
Na4 O100 2.561391 1_555
Na4 O142 2.568897 1_555
Na4 O138 2.675303 1_555
Na4 O12 2.997085 1_555
Na4 O70 3.015210 1_555
Na5 O99 2.402018 1_555
Na5 O101 2.525141 1_555
Na5 O29 2.539836 1_555
Na5 O143 2.570976 1_555
Na5 O139 2.644455 1_555
Na5 O71 2.817483 1_555
Na6 O96 2.340946 1_555
Na6 O26 2.548608 1_555
Na6 O140 2.588675 1_545
Na6 O98 2.605797 1_555
Na6 O142 2.848915 1_545
Na7 O97 2.343370 1_555
Na7 O27 2.527064 1_555
Na7 O141 2.569137 1_545
Na7 O99 2.625621 1_555
Na7 O143 2.841431 1_545
Na7 O17 2.854766 1_545
Na7 O69 3.011157 1_545
Na8 O130 2.418538 1_555
Na8 O56 2.564751 1_555
Na8 O128 2.701868 1_555
Na8 O85 2.709522 1_455
Na8 O86 2.723831 1_555
Na8 O42 2.832711 1_555
Na9 O131 2.417293 1_555
Na9 O57 2.556971 1_555
Na9 O129 2.694905 1_555
Na9 O87 2.731415 1_555
Na9 O84 2.736026 1_555
Na9 O43 2.829657 1_555
Na10 O126 2.438544 1_555
Na10 O58 2.586971 1_555
Na10 O89 2.709581 1_455
Na10 O86 2.712447 1_565
Na10 O130 2.731280 1_555
Na10 O45 2.828991 1_455
Na10 O25 2.899323 1_455
Na11 O127 2.433995 1_555
Na11 O59 2.577382 1_555
Na11 O87 2.719684 1_565
Na11 O131 2.728511 1_555
Na11 O88 2.733179 1_555
Na11 O44 2.819649 1_555
Na11 O24 2.895021 1_555
Na12 O128 2.434375 1_555
Na12 O54 2.453838 1_555
Na12 O88 2.696878 1_555
Na12 O126 2.706980 1_555
Na12 O84 2.735644 1_565
Na12 O46 2.915783 1_565
Na13 O129 2.429696 1_555
Na13 O55 2.470726 1_555
Na13 O89 2.694658 1_555
Na13 O127 2.718145 1_555
Na13 O85 2.738966 1_565
Na13 O13 2.898933 1_555
Na13 O47 2.930539 1_565
Na14 O122 2.463067 1_555
Na14 O52 2.564616 1_554
Na14 O94 2.673178 1_565
Na14 O91 2.741791 1_455
Na14 O124 2.784725 1_555
Na14 O36 2.840228 1_565
Na14 O32 2.973019 1_565
Na14 O22 3.041891 1_555
Na15 O123 2.408374 1_555
Na15 O125 2.529221 1_555
Na15 O95 2.533433 1_565
Na15 O53 2.555145 1_554
Na15 O90 2.681196 1_555
Na16 O124 2.422548 1_555
Na16 O48 2.552296 1_554
Na16 O120 2.697858 1_555
Na16 O90 2.711814 1_555
Na16 O92 2.774367 1_565
Na16 O38 2.827029 1_555
Na17 O120 2.393485 1_555
Na17 O50 2.464466 1_554
Na17 O93 2.560737 1_455
Na17 O122 2.647534 1_555
Na17 O94 2.709163 1_555
Na17 O41 2.931706 1_455
Na17 O20 3.011198 1_555
Na17 O31 3.048611 1_455
Na18 O121 2.381318 1_555
Na18 O51 2.414010 1_554
Na18 O123 2.651381 1_555
Na18 O92 2.730325 1_555
Na18 O95 2.895882 1_555
Na18 O40 2.927127 1_555
Na19 O82 2.467127 1_555
Na19 O110 2.512394 1_555
Na19 O8 2.574477 1_555
Na19 O108 2.656285 1_555
Na19 O81 2.702140 1_555
Na19 O38 2.723747 1_556
Na20 O83 2.336695 1_555
Na20 O9 2.479104 1_555
Na20 O111 2.552679 1_555
Na20 O80 2.558009 1_655
Na20 O109 2.880425 1_555
Na21 O79 2.506710 1_555
Na21 O112 2.508109 1_555
Na21 O10 2.537253 1_555
Na21 O40 2.551006 1_556
Na21 O82 2.647529 1_545
Na21 O110 2.684967 1_555
Na22 O80 2.414603 1_545
Na22 O108 2.547561 1_555
Na22 O6 2.588526 1_555
Na22 O112 2.632555 1_555
Na22 O78 2.644822 1_555
Na22 O36 2.742384 1_556
Na23 O81 2.450645 1_545
Na23 O7 2.465480 1_555
Na23 O109 2.507560 1_555
Na23 O79 2.548537 1_555
Na23 O113 2.674919 1_555
Na24 O74 2.485223 1_545
Na24 O118 2.529648 1_555
Na24 O46 2.552236 1_555
Na24 O4 2.587196 1_555
Na24 O77 2.636454 1_555
Na24 O114 2.675791 1_555
Na25 O75 2.476152 1_545
Na25 O119 2.531314 1_555
Na25 O47 2.557671 1_555
Na25 O5 2.570537 1_555
Na25 O76 2.640700 1_655
Na25 O115 2.671045 1_555
Na26 O76 2.448811 1_555
Na26 O114 2.531454 1_555
Na26 O0 2.630177 1_555
Na26 O72 2.633580 1_545
Na26 O116 2.644560 1_555
Na26 O42 2.743889 1_555
Na27 O77 2.453746 1_555
Na27 O115 2.529809 1_555
Na27 O1 2.578777 1_555
Na27 O117 2.638030 1_555
Na27 O73 2.649159 1_545
Na27 O43 2.738760 1_555
Na28 O73 2.456020 1_555
Na28 O116 2.523401 1_555
Na28 O2 2.601394 1_555
Na28 O118 2.620650 1_555
Na28 O74 2.665843 1_555
Na28 O44 2.747171 1_555
Na29 O72 2.464875 1_655
Na29 O117 2.529324 1_555
Na29 O3 2.532114 1_555
Na29 O119 2.619980 1_555
Na29 O75 2.669913 1_555
Na29 O45 2.753132 1_555
Na30 O75 2.529687 1_545
Na30 O72 2.556678 1_645
Na30 O76 2.565759 1_655
Na30 O86 2.757251 1_655
Na30 O85 2.761377 1_555
Na30 O89 2.774215 1_545
Na31 O74 2.535097 1_545
Na31 O73 2.552514 1_545
Na31 O77 2.556780 1_555
Na31 O87 2.763481 1_555
Na31 O84 2.779543 1_555
Na31 O88 2.801008 1_545
Na32 O83 2.473750 1_555
Na32 O93 2.560323 1_566
Na32 O78 2.596662 1_665
Na32 O91 2.674852 1_556
Na32 O80 2.757053 1_655
Na32 O94 2.943911 1_666
Na33 O79 2.591220 1_565
Na33 O82 2.592064 1_555
Na33 O81 2.604761 1_555
Na33 O95 2.643764 1_566
Na33 O92 2.724836 1_566
Na33 O90 2.752345 1_556
Na34 O110 2.419999 1_555
Na34 O112 2.540574 1_555
Na34 O108 2.563153 1_555
Na34 O96 2.627790 1_555
Na34 O100 2.652530 1_555
Na34 O98 2.745640 1_555
Na35 O97 2.465318 1_555
Na35 O111 2.545821 1_555
Na35 O101 2.603736 1_555
Na35 O113 2.730232 1_555
Na35 O99 2.762016 1_555
Na35 O109 2.785728 1_555
Na36 O114 2.418710 1_555
Na36 O118 2.549682 1_555
Na36 O116 2.561473 1_555
Na36 O104 2.653947 1_555
Na36 O106 2.703288 1_555
Na36 O102 2.777735 1_555
Na37 O115 2.415153 1_555
Na37 O119 2.545572 1_555
Na37 O117 2.567726 1_555
Na37 O107 2.623218 1_555
Na37 O105 2.641800 1_555
Na37 O103 2.775150 1_555
Na38 O124 2.487766 1_555
Na38 O134 2.550394 1_555
Na38 O132 2.570440 1_555
Na38 O120 2.586656 1_555
Na38 O136 2.633484 1_555
Na38 O122 2.714670 1_555
Na39 O125 2.509656 1_555
Na39 O135 2.538106 1_555
Na39 O121 2.632635 1_555
Na39 O123 2.639249 1_555
Na39 O133 2.709306 1_555
Na39 O137 2.748377 1_555
Na40 O130 2.471013 1_555
Na40 O126 2.565743 1_555
Na40 O128 2.575634 1_555
Na40 O140 2.603127 1_555
Na40 O138 2.639121 1_555
Na40 O142 2.672182 1_555
Na41 O131 2.484790 1_555
Na41 O127 2.578424 1_555
Na41 O129 2.580527 1_555
Na41 O139 2.596070 1_555
Na41 O141 2.631719 1_555
Na41 O143 2.664092 1_555
Ca0 O0 2.219021 1_655
Ca0 O5 2.220897 1_555
Ca0 O3 2.224515 1_545
Ca0 O75 2.302743 1_545
Ca0 O76 2.343178 1_655
Ca0 O72 2.348997 1_645
Ca1 O1 2.220911 1_555
Ca1 O4 2.223242 1_555
Ca1 O2 2.224808 1_545
Ca1 O74 2.298619 1_545
Ca1 O77 2.336590 1_555
Ca1 O73 2.344479 1_545
Ca2 O11 2.163711 1_555
Ca2 O9 2.259670 1_545
Ca2 O6 2.261022 1_655
Ca2 O78 2.276441 1_655
Ca2 O83 2.330020 1_545
Ca2 O80 2.344940 1_645
Ca3 O8 2.222860 1_545
Ca3 O10 2.230212 1_555
Ca3 O7 2.232903 1_555
Ca3 O79 2.305005 1_555
Ca3 O82 2.328120 1_545
Ca3 O81 2.351672 1_545
Ca4 O24 2.178141 1_555
Ca4 O26 2.266762 1_555
Ca4 O28 2.275196 1_555
Ca4 O100 2.302020 1_555
Ca4 O96 2.313461 1_555
Ca4 O98 2.347422 1_555
Ca5 O25 2.177025 1_555
Ca5 O29 2.264076 1_555
Ca5 O27 2.266676 1_555
Ca5 O101 2.312126 1_555
Ca5 O97 2.313726 1_555
Ca5 O99 2.340449 1_555
Ca6 O32 2.171118 1_555
Ca6 O30 2.256504 1_555
Ca6 O34 2.265362 1_555
Ca6 O106 2.287084 1_555
Ca6 O104 2.304358 1_555
Ca6 O102 2.331625 1_555
Ca7 O33 2.156224 1_555
Ca7 O31 2.253018 1_555
Ca7 O35 2.262016 1_555
Ca7 O103 2.297656 1_555
Ca7 O107 2.303647 1_555
Ca7 O105 2.311648 1_555
Ca8 O36 2.327275 1_556
Ca8 O38 2.328671 1_556
Ca8 O40 2.352633 1_556
Ca8 O112 2.397623 1_555
Ca8 O110 2.409338 1_555
Ca8 O108 2.412984 1_555
Ca9 O44 2.340819 1_555
Ca9 O42 2.341390 1_555
Ca9 O46 2.351553 1_555
Ca9 O114 2.400895 1_555
Ca9 O118 2.406347 1_555
Ca9 O116 2.413252 1_555
Ca10 O45 2.330701 1_555
Ca10 O43 2.345458 1_555
Ca10 O47 2.347996 1_555
Ca10 O115 2.393163 1_555
Ca10 O117 2.409326 1_555
Ca10 O119 2.410781 1_555
Ca11 O50 2.209279 1_554
Ca11 O48 2.214447 1_554
Ca11 O52 2.224004 1_554
Ca11 O124 2.306365 1_555
Ca11 O122 2.327027 1_555
Ca11 O120 2.342499 1_555
Ca12 O49 2.159750 1_554
Ca12 O53 2.247083 1_554
Ca12 O51 2.254355 1_554
Ca12 O125 2.271204 1_555
Ca12 O121 2.320668 1_555
Ca12 O123 2.369200 1_555
Ca13 O58 2.215032 1_555
Ca13 O54 2.218894 1_555
Ca13 O56 2.218976 1_555
Ca13 O130 2.310591 1_555
Ca13 O128 2.332019 1_555
Ca13 O126 2.336598 1_555
Ca14 O55 2.217675 1_555
Ca14 O59 2.218842 1_555
Ca14 O57 2.218881 1_555
Ca14 O131 2.317878 1_555
Ca14 O129 2.328481 1_555
Ca14 O127 2.336650 1_555
O0 P0 1.522803 1_545
O1 P1 1.523169 1_545
O2 P2 1.520214 1_555
O3 P3 1.521312 1_555
O4 P5 1.518482 1_555
O5 P4 1.518079 1_655
O6 P6 1.516496 1_555
O7 P7 1.524547 1_555
O8 P9 1.524858 1_555
O9 P8 1.520325 1_655
O10 P10 1.519419 1_545
O11 P11 1.506346 1_545
O12 P10 1.589180 1_555
O12 Zr1 2.114650 1_565
O13 P11 1.588094 1_555
O13 Zr0 2.111050 1_565
O14 P6 1.582753 1_555
O14 Zr0 2.104388 1_455
O15 P7 1.582113 1_555
O15 Zr1 2.110749 1_555
O16 P8 1.590950 1_555
O16 Zr0 2.114483 1_465
O17 P9 1.594857 1_555
O17 Zr1 2.126046 1_565
O18 P2 1.586083 1_555
O18 Zr3 2.105779 1_565
O19 P3 1.580936 1_555
O19 Zr2 2.068864 1_555
O20 P4 1.589777 1_555
O20 Zr2 2.130672 1_445
O21 P5 1.596214 1_555
O21 Zr3 2.110243 1_555
O22 P0 1.595530 1_555
O22 Zr2 2.136712 1_455
O23 P1 1.595023 1_555
O23 Zr3 2.099818 1_565
O24 P12 1.517933 1_555
O25 P13 1.516138 1_555
O26 P14 1.530527 1_555
O27 P15 1.528912 1_555
O28 P16 1.530899 1_555
O29 P17 1.529632 1_555
O30 P18 1.528525 1_555
O31 P19 1.517924 1_555
O32 P20 1.514647 1_555
O33 P21 1.508458 1_555
O34 P22 1.529498 1_555
O35 P23 1.516426 1_555
O36 P22 1.545581 1_555
O37 P23 1.598532 1_555
O37 Zr4 2.137980 1_554
O38 P18 1.548001 1_555
O39 P19 1.590930 1_555
O39 Zr4 2.141948 1_554
O40 P20 1.545273 1_555
O41 P21 1.597766 1_555
O41 Zr4 2.071135 1_554
O42 P14 1.547030 1_555
O43 P15 1.546786 1_555
O44 P16 1.547392 1_555
O45 P17 1.547941 1_555
O46 P12 1.547096 1_555
O47 P13 1.546751 1_555
O48 P24 1.531572 1_555
O49 P25 1.504779 1_555
O50 P26 1.526344 1_555
O51 P27 1.525509 1_555
O52 P28 1.534850 1_555
O53 P29 1.518394 1_555
O54 P30 1.530552 1_555
O55 P31 1.530401 1_555
O56 P32 1.531566 1_555
O57 P33 1.531343 1_555
O58 P34 1.531796 1_555
O59 P35 1.532084 1_555
O60 P34 1.598688 1_555
O60 Zr5 2.087431 1_555
O61 P35 1.595097 1_555
O61 Zr6 2.089054 1_555
O62 P30 1.593267 1_555
O62 Zr5 2.048855 1_555
O63 P31 1.591628 1_555
O63 Zr6 2.045774 1_555
O64 P32 1.595905 1_555
O64 Zr5 2.086162 1_555
O65 P33 1.593505 1_555
O65 Zr6 2.089517 1_555
O66 P26 1.591651 1_555
O66 Zr7 2.084896 1_555
O67 P27 1.598285 1_555
O67 Zr8 2.044826 1_555
O68 P28 1.598920 1_555
O68 Zr7 2.080500 1_555
O69 P29 1.588525 1_555
O69 Zr8 2.132816 1_555
O70 P24 1.597862 1_555
O70 Zr7 2.084443 1_555
O71 P25 1.592053 1_555
O71 Zr8 2.123750 1_555
O72 P34 1.544581 1_555
O73 P35 1.545547 1_555
O74 P30 1.541363 1_555
O75 P31 1.540918 1_555
O76 P32 1.544808 1_555
O77 P33 1.546248 1_555
O78 P26 1.514065 1_555
O79 P27 1.545152 1_555
O80 P28 1.539052 1_555
O81 P29 1.546784 1_555
O82 P24 1.547025 1_555
O83 P25 1.526560 1_555
O84 P12 1.589106 1_555
O84 Zr1 2.095948 1_555
O85 P13 1.587660 1_555
O85 Zr0 2.095538 1_555
O86 P14 1.587284 1_555
O86 Zr0 2.127141 1_455
O87 P15 1.589322 1_555
O87 Zr1 2.120515 1_555
O88 P16 1.588756 1_555
O88 Zr1 2.124131 1_565
O89 P17 1.587471 1_555
O89 Zr0 2.125046 1_565
O90 P18 1.589808 1_555
O90 Zr3 2.111075 1_565
O91 P19 1.576100 1_555
O91 Zr2 2.174515 1_555
O92 P20 1.594412 1_555
O92 Zr3 2.097585 1_555
O93 P21 1.576175 1_555
O93 Zr2 2.163053 1_545
O94 P22 1.589524 1_555
O94 Zr2 2.119468 1_445
O95 P23 1.592768 1_555
O95 Zr3 2.218909 1_555
O96 P10 1.523495 1_545
O97 P11 1.524908 1_545
O98 P6 1.538558 1_555
O99 P7 1.533892 1_555
O100 P9 1.519958 1_555
O101 P8 1.522169 1_655
O102 P2 1.534024 1_555
O103 P3 1.531862 1_555
O104 P5 1.523976 1_555
O105 P4 1.525474 1_655
O106 P0 1.521476 1_545
O107 P1 1.518257 1_545
O108 P24 1.542680 1_555
O109 P25 1.597410 1_555
O109 Zr4 2.176407 1_555
O110 P27 1.540574 1_555
O111 P26 1.582087 1_655
O111 Zr4 2.182869 1_555
O112 P28 1.543383 1_545
O113 P29 1.578814 1_545
O113 Zr4 2.165535 1_555
O114 P30 1.542504 1_545
O115 P31 1.542691 1_545
O116 P32 1.546537 1_555
O117 P33 1.545937 1_555
O118 P35 1.546153 1_555
O119 P34 1.545256 1_655
O120 P22 1.549662 1_555
O121 P23 1.526743 1_555
O122 P19 1.546436 1_455
O123 P18 1.543748 1_555
O124 P20 1.549282 1_565
O125 P21 1.518975 1_565
O126 P14 1.547163 1_565
O127 P15 1.546504 1_565
O128 P16 1.545787 1_555
O129 P17 1.545710 1_555
O130 P13 1.546788 1_455
O131 P12 1.545437 1_555
O132 P0 1.582395 1_555
O132 Zr5 2.199135 1_555
O133 P1 1.576344 1_555
O133 Zr6 2.178713 1_555
O134 P2 1.572507 1_555
O134 Zr5 2.170389 1_555
O135 P3 1.568208 1_555
O135 Zr6 2.160835 1_555
O136 P4 1.593536 1_555
O136 Zr5 2.218562 1_555
O137 P5 1.583982 1_555
O137 Zr6 2.205865 1_555
O138 P6 1.573998 1_555
O138 Zr7 2.152992 1_555
O139 P7 1.570167 1_555
O139 Zr8 2.170134 1_555
O140 P8 1.580203 1_555
O140 Zr7 2.174936 1_555
O141 P9 1.578561 1_555
O141 Zr8 2.189125 1_555
O142 P10 1.588196 1_555
O142 Zr7 2.205479 1_555
O143 P11 1.589040 1_555
O143 Zr8 2.173359 1_555
