# generated using pymatgen
data_Na2MgNb2(CuS2)4
_symmetry_space_group_name_H-M   'P 1'
_cell_length_a   5.73710030
_cell_length_b   7.58141900
_cell_length_c   9.74018210
_cell_angle_alpha   90.00000000
_cell_angle_beta   107.19744732
_cell_angle_gamma   90.00000000
_symmetry_Int_Tables_number   1
_chemical_formula_structural   Na2MgNb2(CuS2)4
_chemical_formula_sum   'Na2 Mg1 Nb2 Cu4 S8'
_cell_volume   404.71187555
_cell_formula_units_Z   1
loop_
 _symmetry_equiv_pos_site_id
 _symmetry_equiv_pos_as_xyz
  1  'x, y, z'
loop_
 _atom_site_type_symbol
 _atom_site_label
 _atom_site_symmetry_multiplicity
 _atom_site_fract_x
 _atom_site_fract_y
 _atom_site_fract_z
 _atom_site_occupancy
  Na  Na0  1  0.66304400  0.75000000  0.65631800  1
  Na  Na1  1  0.01691500  0.25000000  0.36262200  1
  Mg  Mg0  1  0.45922400  0.25000000  0.04957200  1
  Nb  Nb0  1  0.89363200  0.75000000  0.22293200  1
  Nb  Nb1  1  0.65727700  0.25000000  0.78234000  1
  Cu  Cu0  1  0.76830800  0.99573000  0.99943700  1
  Cu  Cu1  1  0.76830800  0.50427000  0.99943700  1
  Cu  Cu2  1  0.37925700  0.75000000  0.20873600  1
  Cu  Cu3  1  0.16116000  0.25000000  0.77137200  1
  S  S0  1  0.24401200  0.75000000  0.41099600  1
  S  S1  1  0.81541700  0.25000000  0.58821900  1
  S  S2  1  0.63413600  0.99797500  0.21225200  1
  S  S3  1  0.41824100  0.00252900  0.78934200  1
  S  S4  1  0.01216900  0.25000000  0.99270400  1
  S  S5  1  0.01300600  0.75000000  0.00768000  1
  S  S6  1  0.41824100  0.49747100  0.78934200  1
  S  S7  1  0.63413600  0.50202500  0.21225200  1
loop_
_geom_bond_atom_site_label_1
_geom_bond_atom_site_label_2
_geom_bond_distance
_geom_bond_site_symmetry_2
Na0 S0 2.844669 1_555
Na0 S3 2.897027 1_565
Na0 S6 2.897027 1_555
Na1 S1 2.768903 1_455
Na1 S7 2.952388 1_455
Na1 S2 2.952388 1_445
Mg0 S4 2.458644 1_554
Mg0 S7 2.495653 1_555
Mg0 S2 2.495653 1_545
Nb0 S0 2.284467 1_655
Nb0 S2 2.381185 1_555
Nb0 S7 2.381185 1_555
Nb0 S5 2.390359 1_655
Nb1 S1 2.326488 1_555
Nb1 S3 2.336810 1_555
Nb1 S6 2.336810 1_555
Nb1 S4 2.424232 1_655
Cu0 S5 2.319766 1_656
Cu0 S4 2.394169 1_665
Cu0 S3 2.406974 1_565
Cu0 S2 2.415177 1_556
Cu1 S5 2.319766 1_656
Cu1 S4 2.394169 1_655
Cu1 S6 2.406974 1_555
Cu1 S7 2.415177 1_556
Cu2 S0 2.321000 1_555
Cu2 S2 2.375751 1_555
Cu2 S7 2.375751 1_555
Cu2 S5 2.411825 1_555
Cu3 S1 2.241542 1_455
Cu3 S3 2.360798 1_555
Cu3 S6 2.360798 1_555
Cu3 S4 2.543196 1_555
Cu3 Mg0 2.743486 1_556
