# generated using pymatgen
data_Ba3MgNb2ZnO9
_symmetry_space_group_name_H-M   'P 1'
_cell_length_a   5.86911748
_cell_length_b   5.86911778
_cell_length_c   9.48781061
_cell_angle_alpha   88.98710613
_cell_angle_beta   91.01289379
_cell_angle_gamma   119.87546161
_symmetry_Int_Tables_number   1
_chemical_formula_structural   Ba3MgNb2ZnO9
_chemical_formula_sum   'Ba3 Mg1 Nb2 Zn1 O9'
_cell_volume   283.33178756
_cell_formula_units_Z   1
loop_
 _symmetry_equiv_pos_site_id
 _symmetry_equiv_pos_as_xyz
  1  'x, y, z'
loop_
 _atom_site_type_symbol
 _atom_site_label
 _atom_site_symmetry_multiplicity
 _atom_site_fract_x
 _atom_site_fract_y
 _atom_site_fract_z
 _atom_site_occupancy
  Ba  Ba0  1  0.67286239  0.32713761  0.22519322  1
  Ba  Ba1  1  0.32804678  0.67195322  0.73699502  1
  Ba  Ba2  1  0.00039317  -0.00039317  0.98058366  1
  Mg  Mg0  1  0.00751191  0.99248809  0.33715336  1
  Nb  Nb0  1  0.33727117  0.66272883  0.12523716  1
  Nb  Nb1  1  0.66362020  0.33637980  0.84388589  1
  Zn  Zn0  1  0.99247415  0.00752585  0.61219439  1
  O  O0  1  0.82759405  0.17240595  0.74493464  1
  O  O1  1  0.82752172  0.66689560  0.74459037  1
  O  O2  1  0.33310440  0.17247828  0.74459037  1
  O  O3  1  0.66994589  0.82176225  0.22906236  1
  O  O4  1  0.17823775  0.33005411  0.22906236  1
  O  O5  1  0.17788101  0.82211899  0.23608925  1
  O  O6  1  0.49909762  -0.00166966  0.98886577  1
  O  O7  1  0.00166966  0.50090238  0.98886577  1
  O  O8  1  0.50012913  0.49987087  0.98578241  1
loop_
_geom_bond_atom_site_label_1
_geom_bond_atom_site_label_2
_geom_bond_distance
_geom_bond_site_symmetry_2
Ba0 O7 2.811278 1_654
Ba0 O6 2.811278 1_554
Ba0 O8 2.841876 1_554
Ba0 O4 2.912456 1_555
Ba0 O3 2.912457 1_555
Ba0 O5 2.942303 1_655
Ba0 O5 2.942303 1_545
Ba0 O4 2.957199 1_655
Ba0 O3 2.957199 1_545
Ba1 O8 2.908509 1_555
Ba1 O7 2.923877 1_555
Ba1 O6 2.923877 1_565
Ba1 O1 2.925123 1_455
Ba1 O2 2.925123 1_565
Ba1 O0 2.941052 1_455
Ba1 O0 2.941052 1_565
Ba1 O1 2.945976 1_555
Ba1 O2 2.945977 1_555
Ba2 O0 2.814291 1_455
Ba2 O2 2.820712 1_555
Ba2 O1 2.820712 1_445
Ba2 O3 2.909762 1_446
Ba2 O4 2.909762 1_556
Ba2 O6 2.930357 1_555
Ba2 O7 2.930357 1_545
Ba2 O8 2.940497 1_445
Ba2 O8 2.940497 1_555
Ba2 O6 2.940875 1_455
Ba2 O7 2.940875 1_555
Ba2 O5 2.991561 1_546
Mg0 O3 1.991924 1_455
Mg0 O4 1.991924 1_565
Mg0 O5 1.995739 1_555
Mg0 Zn0 2.617118 1_465
Nb0 O5 1.948796 1_555
Nb0 O3 1.950075 1_555
Nb0 O4 1.950075 1_555
Nb0 O7 2.132007 1_554
Nb0 O6 2.132007 1_564
Nb0 O8 2.139504 1_554
Nb1 O2 1.919451 1_555
Nb1 O1 1.919451 1_555
Nb1 O0 1.928818 1_555
Nb1 O8 2.159297 1_555
Nb1 O7 2.191540 1_655
Nb1 O6 2.191540 1_555
O0 Zn0 2.116154 1_555
O1 Zn0 2.130257 1_565
O2 Zn0 2.130257 1_455
