# generated using pymatgen
data_Ce2MgV2O8
_symmetry_space_group_name_H-M   'P 1'
_cell_length_a   5.13770607
_cell_length_b   5.32443600
_cell_length_c   7.93024752
_cell_angle_alpha   105.73494333
_cell_angle_beta   104.67324004
_cell_angle_gamma   101.92640053
_symmetry_Int_Tables_number   1
_chemical_formula_structural   Ce2MgV2O8
_chemical_formula_sum   'Ce2 Mg1 V2 O8'
_cell_volume   192.96185327
_cell_formula_units_Z   1
loop_
 _symmetry_equiv_pos_site_id
 _symmetry_equiv_pos_as_xyz
  1  'x, y, z'
loop_
 _atom_site_type_symbol
 _atom_site_label
 _atom_site_symmetry_multiplicity
 _atom_site_fract_x
 _atom_site_fract_y
 _atom_site_fract_z
 _atom_site_occupancy
  Ce  Ce0  1  0.59923205  0.85079540  0.19976378  1
  Ce  Ce1  1  0.41957612  0.16908302  0.83829531  1
  Mg  Mg0  1  0.26919189  0.51745918  0.53589615  1
  V  V0  1  0.06844184  0.31949163  0.13744202  1
  V  V1  1  0.93621628  0.68590701  0.87191497  1
  O  O0  1  0.37394329  0.63733134  0.34002421  1
  O  O1  1  0.96597606  0.20397072  0.33937234  1
  O  O2  1  0.20563871  0.47974349  0.94880168  1
  O  O3  1  0.74312289  0.96910924  0.94843585  1
  O  O4  1  0.57613153  0.40975216  0.68348753  1
  O  O5  1  0.10888757  0.77213152  0.68417144  1
  O  O6  1  0.79144556  0.52804039  0.07125180  1
  O  O7  1  0.27969620  0.04468489  0.07114290  1
loop_
_geom_bond_atom_site_label_1
_geom_bond_atom_site_label_2
_geom_bond_distance
_geom_bond_site_symmetry_2
Ce0 O1 2.159099 1_565
Ce0 O0 2.159382 1_555
Ce0 O7 2.285722 1_565
Ce0 O6 2.286580 1_555
Ce0 O2 2.475994 1_554
Ce0 O3 2.480069 1_554
Ce1 O4 2.173401 1_555
Ce1 O5 2.173709 1_545
Ce1 O3 2.271600 1_545
Ce1 O2 2.272739 1_555
Ce1 O6 2.345975 1_556
Ce1 O7 2.346018 1_556
Mg0 O1 1.981458 1_455
Mg0 O0 1.982180 1_555
Mg0 O5 1.996764 1_555
Mg0 O4 1.997093 1_555
O0 V0 2.014585 1_555
O1 V0 2.011787 1_655
O2 V1 2.014005 1_455
O2 V0 2.107305 1_556
O3 V1 2.013238 1_555
O3 V0 2.108561 1_666
O4 V1 2.025076 1_555
O5 V1 2.021384 1_455
O6 V0 2.030917 1_655
O6 V1 2.194671 1_554
O7 V0 2.030664 1_555
O7 V1 2.194721 1_444
