# generated using pymatgen
data_Na7Nb3Zn(SiO4)6
_symmetry_space_group_name_H-M   'P 1'
_cell_length_a   9.13772168
_cell_length_b   9.13772136
_cell_length_c   22.47513332
_cell_angle_alpha   90.00000000
_cell_angle_beta   90.00000000
_cell_angle_gamma   120.00000115
_symmetry_Int_Tables_number   1
_chemical_formula_structural   Na7Nb3Zn(SiO4)6
_chemical_formula_sum   'Na21 Nb9 Zn3 Si18 O72'
_cell_volume   1625.20720935
_cell_formula_units_Z   3
loop_
 _symmetry_equiv_pos_site_id
 _symmetry_equiv_pos_as_xyz
  1  'x, y, z'
loop_
 _atom_site_type_symbol
 _atom_site_label
 _atom_site_symmetry_multiplicity
 _atom_site_fract_x
 _atom_site_fract_y
 _atom_site_fract_z
 _atom_site_occupancy
  Na  Na0  1  0.64037539  0.02349954  0.24382078  1
  Na  Na1  1  0.38312415  0.35962461  0.24382078  1
  Na  Na2  1  0.97650046  0.61687585  0.24382078  1
  Na  Na3  1  0.63086721  0.61061522  0.74533214  1
  Na  Na4  1  0.97974801  0.36913279  0.74533214  1
  Na  Na5  1  0.38938478  0.02025199  0.74533214  1
  Na  Na6  1  0.30964189  0.33576148  0.58600428  1
  Na  Na7  1  0.02612059  0.69035811  0.58600428  1
  Na  Na8  1  0.66423852  0.97387941  0.58600428  1
  Na  Na9  1  0.31241286  0.97649114  0.08647628  1
  Na  Na10  1  0.66407928  0.68758714  0.08647628  1
  Na  Na11  1  0.02350886  0.33592072  0.08647628  1
  Na  Na12  1  0.96447694  0.27820475  0.40635406  1
  Na  Na13  1  0.31372681  0.03552306  0.40635406  1
  Na  Na14  1  0.72179525  0.68627319  0.40635406  1
  Na  Na15  1  0.00000000  0.00000000  0.49105797  1
  Na  Na16  1  0.00000000  0.00000000  0.99804315  1
  Na  Na17  1  0.66666700  0.33333300  0.83065654  1
  Na  Na18  1  0.66666700  0.33333300  0.32037812  1
  Na  Na19  1  0.33333300  0.66666700  0.16585390  1
  Na  Na20  1  0.33333300  0.66666700  0.66848852  1
  Nb  Nb0  1  0.00000000  0.00000000  0.85752902  1
  Nb  Nb1  1  0.00000000  -0.00000000  0.64666072  1
  Nb  Nb2  1  0.00000000  -0.00000000  0.14908924  1
  Nb  Nb3  1  0.66666700  0.33333300  0.97795032  1
  Nb  Nb4  1  0.66666700  0.33333300  0.47941040  1
  Nb  Nb5  1  0.33333300  0.66666700  0.01771346  1
  Nb  Nb6  1  0.33333300  0.66666700  0.51935334  1
  Nb  Nb7  1  0.33333300  0.66666700  0.30998326  1
  Nb  Nb8  1  0.33333300  0.66666700  0.81404843  1
  Zn  Zn0  1  0.00000000  -0.00000000  0.34811967  1
  Zn  Zn1  1  0.66666700  0.33333300  0.68470913  1
  Zn  Zn2  1  0.66666700  0.33333300  0.18130608  1
  Si  Si0  1  0.29266830  0.00161700  0.25399192  1
  Si  Si1  1  0.70894870  0.70733170  0.25399192  1
  Si  Si2  1  0.99838300  0.29105130  0.25399192  1
  Si  Si3  1  0.28904598  0.29109646  0.75148477  1
  Si  Si4  1  0.00205048  0.71095402  0.75148477  1
  Si  Si5  1  0.70890354  0.99794952  0.75148477  1
  Si  Si6  1  0.95771601  0.33451128  0.58605407  1
  Si  Si7  1  0.37679627  0.04228399  0.58605407  1
  Si  Si8  1  0.66548872  0.62320373  0.58605407  1
  Si  Si9  1  0.95837769  0.62429332  0.08470286  1
  Si  Si10  1  0.66591663  0.04162231  0.08470286  1
  Si  Si11  1  0.37570668  0.33408337  0.08470286  1
  Si  Si12  1  0.62574954  0.66428462  0.91621496  1
  Si  Si13  1  0.03853408  0.37425046  0.91621496  1
  Si  Si14  1  0.33571538  0.96146592  0.91621496  1
  Si  Si15  1  0.62270408  0.95970040  0.41640324  1
  Si  Si16  1  0.33699532  0.37729592  0.41640324  1
  Si  Si17  1  0.04029960  0.66300468  0.41640324  1
  O  O0  1  0.21168907  0.02933884  0.31319118  1
  O  O1  1  0.81764977  0.78831093  0.31319118  1
  O  O2  1  0.97066116  0.18235023  0.31319118  1
  O  O3  1  0.18365730  0.16878129  0.80700302  1
  O  O4  1  0.98512400  0.81634270  0.80700302  1
  O  O5  1  0.83121871  0.01487600  0.80700302  1
  O  O6  1  0.80174039  0.97044985  0.69063472  1
  O  O7  1  0.16870946  0.19825961  0.69063472  1
  O  O8  1  0.02955015  0.83129054  0.69063472  1
  O  O9  1  0.80475858  0.83283310  0.19395151  1
  O  O10  1  0.02807451  0.19524142  0.19395151  1
  O  O11  1  0.16716690  0.97192549  0.19395151  1
  O  O12  1  0.88898312  0.38089786  0.64444079  1
  O  O13  1  0.49191574  0.11101688  0.64444079  1
  O  O14  1  0.61910214  0.50808426  0.64444079  1
  O  O15  1  0.89339214  0.51215608  0.14395304  1
  O  O16  1  0.61876494  0.10660786  0.14395304  1
  O  O17  1  0.48784392  0.38123506  0.14395304  1
  O  O18  1  0.47232634  0.30257465  0.02792078  1
  O  O19  1  0.83024930  0.52767366  0.02792078  1
  O  O20  1  0.69742535  0.16975070  0.02792078  1
  O  O21  1  0.47046098  0.16630177  0.52743439  1
  O  O22  1  0.69584178  0.52953902  0.52743439  1
  O  O23  1  0.83369823  0.30415822  0.52743439  1
  O  O24  1  0.52827622  0.68657207  0.97411539  1
  O  O25  1  0.15829485  0.47172378  0.97411539  1
  O  O26  1  0.31342793  0.84170515  0.97411539  1
  O  O27  1  0.51894378  0.84386657  0.47540209  1
  O  O28  1  0.32492179  0.48105622  0.47540209  1
  O  O29  1  0.15613343  0.67507821  0.47540209  1
  O  O30  1  0.13455659  0.63312261  0.35875205  1
  O  O31  1  0.49856503  0.86544341  0.35875205  1
  O  O32  1  0.36687739  0.50143497  0.35875205  1
  O  O33  1  0.13758418  0.49517416  0.85734323  1
  O  O34  1  0.35758898  0.86241582  0.85734323  1
  O  O35  1  0.50482584  0.64241102  0.85734323  1
  O  O36  1  0.02250759  0.82833963  0.41810423  1
  O  O37  1  0.80583204  0.97749241  0.41810423  1
  O  O38  1  0.17166037  0.19416796  0.41810423  1
  O  O39  1  0.02323400  0.18860020  0.91113705  1
  O  O40  1  0.16536620  0.97676600  0.91113705  1
  O  O41  1  0.81139980  0.83463380  0.91113705  1
  O  O42  1  0.97307176  0.16069291  0.58814350  1
  O  O43  1  0.18762115  0.02692824  0.58814350  1
  O  O44  1  0.83930709  0.81237885  0.58814350  1
  O  O45  1  0.97579854  0.81425895  0.08856161  1
  O  O46  1  0.83846041  0.02420146  0.08856161  1
  O  O47  1  0.18574105  0.16153959  0.08856161  1
  O  O48  1  0.69085264  0.16384433  0.74927524  1
  O  O49  1  0.47299269  0.30914736  0.74927524  1
  O  O50  1  0.83615567  0.52700731  0.74927524  1
  O  O51  1  0.67888520  0.51963557  0.24587400  1
  O  O52  1  0.84075137  0.32111480  0.24587400  1
  O  O53  1  0.48036443  0.15924863  0.24587400  1
  O  O54  1  0.63979864  0.49411299  0.92249531  1
  O  O55  1  0.85431535  0.36020136  0.92249531  1
  O  O56  1  0.50588701  0.14568465  0.92249531  1
  O  O57  1  0.63078598  0.14460042  0.42271438  1
  O  O58  1  0.51381543  0.36921402  0.42271438  1
  O  O59  1  0.85539958  0.48618457  0.42271438  1
  O  O60  1  0.34319519  0.49655104  0.07426858  1
  O  O61  1  0.15335485  0.65680481  0.07426858  1
  O  O62  1  0.50344896  0.84664515  0.07426858  1
  O  O63  1  0.34213673  0.84725354  0.57635556  1
  O  O64  1  0.50511581  0.65786327  0.57635556  1
  O  O65  1  0.15274646  0.49488419  0.57635556  1
  O  O66  1  0.29587572  0.81887550  0.25484680  1
  O  O67  1  0.52299878  0.70412428  0.25484680  1
  O  O68  1  0.18112450  0.47700122  0.25484680  1
  O  O69  1  0.29717307  0.47691572  0.75379147  1
  O  O70  1  0.17974165  0.70282693  0.75379147  1
  O  O71  1  0.52308428  0.82025835  0.75379147  1
loop_
_geom_bond_atom_site_label_1
_geom_bond_atom_site_label_2
_geom_bond_distance
_geom_bond_site_symmetry_2
Na0 O53 2.343575 1_555
Na0 O52 2.402299 1_555
Na0 O16 2.409075 1_555
Na0 O67 2.568758 1_545
Na0 O66 2.753376 1_545
Na0 O31 2.926763 1_545
Na1 O51 2.343582 1_555
Na1 O53 2.402306 1_555
Na1 O17 2.409078 1_555
Na1 O68 2.568767 1_555
Na1 O67 2.753377 1_555
Na1 O32 2.926766 1_555
Na2 O52 2.343583 1_555
Na2 O51 2.402297 1_555
Na2 O15 2.409077 1_555
Na2 O66 2.568760 1_655
Na2 O68 2.753368 1_655
Na2 O30 2.926761 1_655
Na3 O50 2.354474 1_555
Na3 O49 2.388203 1_555
Na3 O14 2.435238 1_555
Na3 O71 2.561763 1_555
Na3 O69 2.664794 1_555
Na3 O35 2.843088 1_555
Na4 O48 2.354468 1_555
Na4 O50 2.388195 1_555
Na4 O12 2.435234 1_555
Na4 O69 2.561754 1_655
Na4 O70 2.664793 1_655
Na4 O33 2.843085 1_655
Na5 O49 2.354465 1_555
Na5 O48 2.388203 1_555
Na5 O13 2.435236 1_555
Na5 O70 2.561756 1_545
Na5 O71 2.664785 1_545
Na5 O34 2.843084 1_545
Na6 O43 2.462284 1_555
Na6 O65 2.510215 1_555
Na6 O64 2.577426 1_555
Na6 O42 2.664602 1_455
Na6 O7 2.673759 1_555
Na6 O14 2.783515 1_555
Na6 O28 2.788549 1_555
Na6 O21 2.926705 1_555
Na7 O44 2.462292 1_455
Na7 O63 2.510199 1_555
Na7 O65 2.577411 1_555
Na7 O43 2.664603 1_565
Na7 O8 2.673761 1_555
Na7 O12 2.783515 1_455
Na7 O29 2.788541 1_555
Na7 O22 2.926705 1_455
Na8 O42 2.462285 1_565
Na8 O64 2.510199 1_555
Na8 O63 2.577428 1_555
Na8 O44 2.664595 1_555
Na8 O6 2.673757 1_555
Na8 O13 2.783515 1_565
Na8 O27 2.788546 1_555
Na8 O23 2.926705 1_565
Na9 O47 2.481618 1_565
Na9 O61 2.544682 1_555
Na9 O62 2.569335 1_555
Na9 O45 2.664788 1_455
Na9 O11 2.746382 1_555
Na9 O16 2.755078 1_565
Na9 O26 2.811710 1_554
Na9 O18 2.896820 1_565
Na10 O45 2.481609 1_555
Na10 O62 2.544698 1_555
Na10 O60 2.569350 1_555
Na10 O46 2.664787 1_565
Na10 O9 2.746380 1_555
Na10 O17 2.755078 1_555
Na10 O24 2.811718 1_554
Na10 O19 2.896820 1_555
Na11 O46 2.481610 1_455
Na11 O60 2.544682 1_555
Na11 O61 2.569352 1_555
Na11 O47 2.664780 1_555
Na11 O10 2.746377 1_555
Na11 O15 2.755078 1_455
Na11 O25 2.811714 1_554
Na11 O20 2.896820 1_455
Na12 O2 2.281244 1_555
Na12 O38 2.386913 1_655
Na12 O37 2.395493 1_545
Na12 O59 2.575778 1_555
Na12 O57 2.683387 1_555
Na13 O0 2.281241 1_555
Na13 O36 2.386906 1_545
Na13 O38 2.395485 1_555
Na13 O57 2.575795 1_555
Na13 O58 2.683389 1_555
Na14 O1 2.281243 1_555
Na14 O37 2.386904 1_555
Na14 O36 2.395493 1_655
Na14 O58 2.575791 1_555
Na14 O59 2.683404 1_555
Na15 O38 2.348148 1_555
Na15 O36 2.348148 1_545
Na15 O37 2.348148 1_445
Na15 O44 2.709082 1_445
Na15 O42 2.709082 1_455
Na15 O43 2.709082 1_555
Na16 O39 2.542500 1_555
Na16 O41 2.542500 1_445
Na16 O40 2.542501 1_545
Na16 O45 2.587096 1_446
Na16 O47 2.587096 1_556
Na16 O46 2.587096 1_456
Na17 O50 2.476925 1_555
Na17 O48 2.476925 1_555
Na17 O49 2.476925 1_555
Na17 O56 2.615317 1_555
Na17 O54 2.615317 1_555
Na17 O55 2.615317 1_555
Na18 O51 2.350408 1_555
Na18 O53 2.350408 1_555
Na18 O52 2.350408 1_555
Na18 O57 2.793985 1_555
Na18 O59 2.793985 1_555
Na18 O58 2.793985 1_555
Na19 O68 2.555023 1_555
Na19 O66 2.555023 1_555
Na19 O67 2.555023 1_555
Na19 O62 2.607982 1_555
Na19 O60 2.607982 1_555
Na19 O61 2.607982 1_555
Na20 O69 2.493650 1_555
Na20 O71 2.493650 1_555
Na20 O70 2.493650 1_555
Na20 O63 2.623836 1_555
Na20 O65 2.623836 1_555
Na20 O64 2.623836 1_555
Nb0 O5 1.973899 1_455
Nb0 O3 1.973899 1_555
Nb0 O4 1.973899 1_445
Nb0 O39 2.025061 1_555
Nb0 O41 2.025061 1_445
Nb0 O40 2.025061 1_545
Nb1 O7 1.960243 1_555
Nb1 O8 1.960243 1_545
Nb1 O6 1.960243 1_445
Nb1 O44 2.075491 1_445
Nb1 O42 2.075491 1_455
Nb1 O43 2.075491 1_555
Nb2 O11 1.951320 1_545
Nb2 O9 1.951320 1_445
Nb2 O10 1.951320 1_555
Nb2 O45 2.098766 1_445
Nb2 O47 2.098766 1_555
Nb2 O46 2.098766 1_455
Nb3 O20 1.998697 1_556
Nb3 O19 1.998697 1_556
Nb3 O18 1.998697 1_556
Nb3 O56 2.032936 1_555
Nb3 O54 2.032936 1_555
Nb3 O55 2.032936 1_555
Nb4 O23 1.993112 1_555
Nb4 O21 1.993112 1_555
Nb4 O22 1.993112 1_555
Nb4 O57 2.034691 1_555
Nb4 O59 2.034691 1_555
Nb4 O58 2.034691 1_555
Nb5 O25 1.960202 1_554
Nb5 O26 1.960202 1_554
Nb5 O24 1.960202 1_554
Nb5 O62 2.044565 1_555
Nb5 O60 2.044565 1_555
Nb5 O61 2.044565 1_555
Nb6 O28 1.930787 1_555
Nb6 O27 1.930787 1_555
Nb6 O29 1.930787 1_555
Nb6 O63 2.058645 1_555
Nb6 O65 2.058645 1_555
Nb6 O64 2.058645 1_555
Nb7 O31 2.009423 1_555
Nb7 O30 2.009423 1_555
Nb7 O32 2.009423 1_555
Nb7 O68 2.015750 1_555
Nb7 O66 2.015750 1_555
Nb7 O67 2.015750 1_555
Nb8 O34 1.949090 1_555
Nb8 O33 1.949090 1_555
Nb8 O35 1.949090 1_555
Nb8 O69 2.092065 1_555
Nb8 O71 2.092065 1_555
Nb8 O70 2.092065 1_555
O0 Si0 1.602942 1_555
O0 Zn0 1.977696 1_555
O1 Si1 1.602942 1_555
O1 Zn0 1.977696 1_665
O2 Si2 1.602942 1_555
O2 Zn0 1.977696 1_655
O3 Si3 1.630098 1_555
O4 Si4 1.630098 1_655
O5 Si5 1.630098 1_545
O6 Si5 1.693021 1_555
O7 Si3 1.693021 1_555
O8 Si4 1.693021 1_555
O9 Si1 1.702509 1_555
O10 Si2 1.702509 1_455
O11 Si0 1.702509 1_565
O12 Si6 1.600731 1_555
O12 Zn1 2.062012 1_555
O13 Si7 1.600731 1_555
O13 Zn1 2.062012 1_555
O14 Si8 1.600731 1_555
O14 Zn1 2.062012 1_555
O15 Si9 1.602317 1_555
O15 Zn2 2.069226 1_555
O16 Si10 1.602317 1_555
O16 Zn2 2.069226 1_555
O17 Si11 1.602317 1_555
O17 Zn2 2.069226 1_555
O18 Si11 1.656872 1_555
O19 Si9 1.656872 1_555
O20 Si10 1.656872 1_555
O21 Si7 1.668117 1_555
O22 Si8 1.668117 1_555
O23 Si6 1.668117 1_555
O24 Si12 1.646093 1_555
O25 Si13 1.646093 1_555
O26 Si14 1.646093 1_555
O27 Si15 1.665540 1_555
O28 Si16 1.665540 1_555
O29 Si17 1.665540 1_555
O30 Si17 1.652408 1_555
O31 Si15 1.652408 1_555
O32 Si16 1.652408 1_555
O33 Si13 1.670561 1_555
O34 Si14 1.670561 1_555
O35 Si12 1.670561 1_555
O36 Si17 1.598745 1_555
O36 Zn0 2.302046 1_565
O37 Si15 1.598754 1_555
O37 Zn0 2.302047 1_665
O38 Si16 1.598750 1_555
O38 Zn0 2.302046 1_555
O39 Si13 1.635005 1_555
O40 Si14 1.634996 1_555
O41 Si12 1.635001 1_555
O42 Si6 1.663571 1_555
O43 Si7 1.663580 1_555
O44 Si8 1.663576 1_555
O45 Si9 1.664248 1_555
O46 Si10 1.664239 1_555
O47 Si11 1.664244 1_555
O48 Si5 1.605511 1_545
O48 Zn1 2.212577 1_555
O49 Si3 1.605520 1_555
O49 Zn1 2.212577 1_555
O50 Si4 1.605516 1_655
O50 Zn1 2.212577 1_555
O51 Si1 1.605992 1_555
O51 Zn2 2.196908 1_555
O52 Si2 1.605984 1_555
O52 Zn2 2.196908 1_555
O53 Si0 1.605989 1_555
O53 Zn2 2.196908 1_555
O54 Si12 1.629108 1_555
O55 Si13 1.629090 1_655
O56 Si14 1.629098 1_545
O57 Si15 1.659948 1_545
O58 Si16 1.659966 1_555
O59 Si17 1.659957 1_655
O60 Si11 1.669816 1_555
O61 Si9 1.669798 1_455
O62 Si10 1.669805 1_565
O63 Si7 1.661144 1_565
O64 Si8 1.661162 1_555
O65 Si6 1.661151 1_455
O66 Si0 1.684796 1_565
O67 Si1 1.684805 1_555
O68 Si2 1.684801 1_455
O69 Si3 1.662886 1_555
O70 Si4 1.662877 1_555
O71 Si5 1.662882 1_555
