# generated using pymatgen
data_MgVPbO3
_symmetry_space_group_name_H-M   'P 1'
_cell_length_a   4.04409200
_cell_length_b   4.04409200
_cell_length_c   6.27939500
_cell_angle_alpha   90.00000000
_cell_angle_beta   90.00000000
_cell_angle_gamma   90.00000000
_symmetry_Int_Tables_number   1
_chemical_formula_structural   MgVPbO3
_chemical_formula_sum   'Mg1 V1 Pb1 O3'
_cell_volume   102.69749647
_cell_formula_units_Z   1
loop_
 _symmetry_equiv_pos_site_id
 _symmetry_equiv_pos_as_xyz
  1  'x, y, z'
loop_
 _atom_site_type_symbol
 _atom_site_label
 _atom_site_symmetry_multiplicity
 _atom_site_fract_x
 _atom_site_fract_y
 _atom_site_fract_z
 _atom_site_occupancy
  Mg  Mg0  1  0.50000000  0.50000000  0.87958600  1
  V  V0  1  0.50000000  0.50000000  0.47487200  1
  Pb  Pb0  1  0.00000000  0.00000000  0.98456000  1
  O  O0  1  0.50000000  0.50000000  0.18389400  1
  O  O1  1  0.00000000  0.50000000  0.76814400  1
  O  O2  1  0.50000000  0.00000000  0.76814400  1
loop_
_geom_bond_atom_site_label_1
_geom_bond_atom_site_label_2
_geom_bond_distance
_geom_bond_site_symmetry_2
Mg0 O0 1.910870 1_556
Mg0 O2 2.139713 1_565
Mg0 O1 2.139713 1_555
Mg0 O2 2.139713 1_555
Mg0 O1 2.139713 1_655
O0 V0 1.827166 1_555
O1 Pb0 2.436277 1_555
O1 Pb0 2.436277 1_565
O1 V0 2.734969 1_555
O1 V0 2.734969 1_455
O2 Pb0 2.436277 1_555
O2 Pb0 2.436277 1_655
O2 V0 2.734969 1_545
O2 V0 2.734969 1_555
