# generated using pymatgen
data_Na6Ti4Si7Sn4S5O48
_symmetry_space_group_name_H-M   'P 1'
_cell_length_a   17.64683092
_cell_length_b   8.82564985
_cell_length_c   22.66286741
_cell_angle_alpha   89.90467578
_cell_angle_beta   90.02221399
_cell_angle_gamma   120.10912312
_symmetry_Int_Tables_number   1
_chemical_formula_structural   Na6Ti4Si7Sn4S5O48
_chemical_formula_sum   'Na18 Ti12 Si21 Sn12 S15 O144'
_cell_volume   3053.37150381
_cell_formula_units_Z   3
loop_
 _symmetry_equiv_pos_site_id
 _symmetry_equiv_pos_as_xyz
  1  'x, y, z'
loop_
 _atom_site_type_symbol
 _atom_site_label
 _atom_site_symmetry_multiplicity
 _atom_site_fract_x
 _atom_site_fract_y
 _atom_site_fract_z
 _atom_site_occupancy
  Na  Na0  1  0.00106028  0.63327870  0.25200415  1
  Na  Na1  1  0.49586910  0.64521903  0.24535909  1
  Na  Na2  1  0.99753019  0.34824071  0.75137144  1
  Na  Na3  1  0.50011401  0.37157515  0.75347053  1
  Na  Na4  1  0.66193255  0.30670287  0.91809999  1
  Na  Na5  1  0.16340340  0.01926343  0.41416595  1
  Na  Na6  1  0.99740449  0.98139843  0.50029925  1
  Na  Na7  1  0.49204519  0.98542440  0.49521293  1
  Na  Na8  1  0.99337253  0.00047542  0.99716631  1
  Na  Na9  1  0.49565690  0.99794960  0.00563321  1
  Na  Na10  1  0.33343240  0.33767525  0.83213345  1
  Na  Na11  1  0.83327845  0.32574998  0.83651538  1
  Na  Na12  1  0.33118950  0.33938789  0.32878859  1
  Na  Na13  1  0.83413096  0.32912696  0.32907504  1
  Na  Na14  1  0.17636214  0.67316817  0.17179942  1
  Na  Na15  1  0.67208023  0.66736600  0.16137348  1
  Na  Na16  1  0.17914645  0.68716948  0.66641078  1
  Na  Na17  1  0.67382713  0.67797237  0.67352252  1
  Ti  Ti0  1  0.00031060  0.99231541  0.34498051  1
  Ti  Ti1  1  0.49898047  0.00478609  0.84635429  1
  Ti  Ti2  1  0.32609876  0.32143170  0.69454491  1
  Ti  Ti3  1  0.82246885  0.33267238  0.69004129  1
  Ti  Ti4  1  0.33231303  0.32763514  0.18439888  1
  Ti  Ti5  1  0.82685685  0.32966159  0.19415220  1
  Ti  Ti6  1  0.83254316  0.34282977  0.97687883  1
  Ti  Ti7  1  0.33281644  0.32217171  0.47531074  1
  Ti  Ti8  1  0.16723409  0.68088021  0.30836977  1
  Ti  Ti9  1  0.66348125  0.67572797  0.31067695  1
  Ti  Ti10  1  0.16643631  0.65187462  0.81344724  1
  Ti  Ti11  1  0.66715867  0.65619887  0.81048527  1
  Si  Si0  1  0.14867110  0.00896903  0.24820996  1
  Si  Si1  1  0.64329994  0.00579804  0.25144420  1
  Si  Si2  1  0.35088096  0.70305506  0.24834984  1
  Si  Si3  1  0.84976013  0.70730696  0.25004643  1
  Si  Si4  1  0.00108887  0.29094753  0.25062790  1
  Si  Si5  1  0.14278642  0.28250323  0.75079707  1
  Si  Si6  1  0.64366857  0.28773235  0.74943694  1
  Si  Si7  1  0.50112197  0.71109156  0.75012041  1
  Si  Si8  1  0.34942903  0.99183401  0.75049115  1
  Si  Si9  1  0.85167808  0.99846303  0.74698147  1
  Si  Si10  1  0.19157615  0.05006714  0.58434663  1
  Si  Si11  1  0.83201890  0.62546491  0.58444808  1
  Si  Si12  1  0.47976156  0.62197486  0.08301798  1
  Si  Si13  1  0.33075017  0.03821251  0.08432392  1
  Si  Si14  1  0.69282472  0.33325485  0.08498954  1
  Si  Si15  1  0.81206011  0.67364888  0.91679506  1
  Si  Si16  1  0.02251630  0.38263020  0.91951720  1
  Si  Si17  1  0.51797941  0.36841789  0.91228797  1
  Si  Si18  1  0.31503935  0.95560242  0.41472329  1
  Si  Si19  1  0.01879417  0.66674276  0.41311498  1
  Si  Si20  1  0.52329051  0.66471692  0.41924741  1
  Sn  Sn0  1  0.49664947  0.97738474  0.35270429  1
  Sn  Sn1  1  0.99597511  0.01554316  0.85433985  1
  Sn  Sn2  1  0.99992457  0.00025732  0.64542587  1
  Sn  Sn3  1  0.49377515  0.98968708  0.65276360  1
  Sn  Sn4  1  0.99570010  0.00070285  0.15251276  1
  Sn  Sn5  1  0.49768468  0.98810592  0.14273512  1
  Sn  Sn6  1  0.34298425  0.33233587  0.98077545  1
  Sn  Sn7  1  0.83849505  0.34931175  0.47890799  1
  Sn  Sn8  1  0.16832213  0.67286282  0.02145319  1
  Sn  Sn9  1  0.66392661  0.64635416  0.02137458  1
  Sn  Sn10  1  0.17090032  0.68976284  0.51752877  1
  Sn  Sn11  1  0.66778753  0.66208961  0.52080412  1
  S  S0  1  0.50111215  0.29183984  0.25117335  1
  S  S1  1  0.00088525  0.70664358  0.75078512  1
  S  S2  1  0.47652134  0.32731150  0.58368716  1
  S  S3  1  0.98000688  0.33654835  0.58328602  1
  S  S4  1  0.68726936  0.04561916  0.58300840  1
  S  S5  1  0.33381561  0.62026595  0.58269112  1
  S  S6  1  0.97643406  0.62549876  0.08364998  1
  S  S7  1  0.83618821  0.05113518  0.08300978  1
  S  S8  1  0.18614959  0.32718184  0.08227992  1
  S  S9  1  0.31237893  0.66536638  0.91630638  1
  S  S10  1  0.16653624  0.95925810  0.91519344  1
  S  S11  1  0.66562367  0.95346513  0.91720558  1
  S  S12  1  0.81250094  0.95841437  0.41710720  1
  S  S13  1  0.16576425  0.37931763  0.41807426  1
  S  S14  1  0.66635970  0.37421708  0.41523478  1
  O  O0  1  0.10180460  0.03368114  0.30820002  1
  O  O1  1  0.60846952  0.05270889  0.31080879  1
  O  O2  1  0.41631800  0.76830845  0.30653101  1
  O  O3  1  0.91894238  0.80033228  0.30509397  1
  O  O4  1  0.48797484  0.18810013  0.30514243  1
  O  O5  1  0.98357671  0.15850454  0.30672427  1
  O  O6  1  0.10511879  0.15995821  0.80856984  1
  O  O7  1  0.60146930  0.16885966  0.80833452  1
  O  O8  1  0.48306838  0.80723626  0.80559406  1
  O  O9  1  0.98441449  0.78179207  0.80328780  1
  O  O10  1  0.41900782  0.03682861  0.80452059  1
  O  O11  1  0.91823733  0.06677884  0.80411823  1
  O  O12  1  0.38272658  0.94764300  0.68928075  1
  O  O13  1  0.89312930  0.95577597  0.68986345  1
  O  O14  1  0.07864012  0.21508840  0.69358874  1
  O  O15  1  0.58241720  0.21236010  0.69066961  1
  O  O16  1  0.01757022  0.81306765  0.69678139  1
  O  O17  1  0.52511654  0.82732886  0.68927139  1
  O  O18  1  0.39216135  0.83444187  0.19281742  1
  O  O19  1  0.88424223  0.82057050  0.18959107  1
  O  O20  1  0.02468420  0.22285119  0.19031755  1
  O  O21  1  0.51743141  0.21803036  0.19813828  1
  O  O22  1  0.08187640  0.95101636  0.19165076  1
  O  O23  1  0.57828727  0.94498653  0.19573723  1
  O  O24  1  0.43926712  0.35017199  0.63849367  1
  O  O25  1  0.93898330  0.35900007  0.63607652  1
  O  O26  1  0.25350375  0.15398107  0.64112800  1
  O  O27  1  0.74068696  0.13114587  0.63589998  1
  O  O28  1  0.32758869  0.52510209  0.63713129  1
  O  O29  1  0.81994609  0.49690512  0.64081711  1
  O  O30  1  0.43064004  0.49906596  0.14158045  1
  O  O31  1  0.93920011  0.52805712  0.13853837  1
  O  O32  1  0.31500361  0.13657112  0.14035321  1
  O  O33  1  0.83055879  0.13589904  0.13727763  1
  O  O34  1  0.23908444  0.34940422  0.13533572  1
  O  O35  1  0.75525363  0.34973431  0.14120912  1
  O  O36  1  0.22537848  0.30678965  0.02706197  1
  O  O37  1  0.74195279  0.31381859  0.02485960  1
  O  O38  1  0.41911768  0.54454610  0.02367337  1
  O  O39  1  0.92431760  0.53753669  0.03026362  1
  O  O40  1  0.33997353  0.13575716  0.02156146  1
  O  O41  1  0.84776751  0.15582090  0.02911492  1
  O  O42  1  0.24054341  0.16378257  0.52437011  1
  O  O43  1  0.72918998  0.14661770  0.52793218  1
  O  O44  1  0.34510307  0.54013543  0.52905886  1
  O  O45  1  0.84546481  0.54192713  0.52416837  1
  O  O46  1  0.42465256  0.31081963  0.53048696  1
  O  O47  1  0.92598880  0.30718915  0.52863620  1
  O  O48  1  0.27587251  0.69718855  0.97109483  1
  O  O49  1  0.77344358  0.71462645  0.97556144  1
  O  O50  1  0.08509086  0.47356093  0.97641559  1
  O  O51  1  0.57949078  0.44480673  0.97112946  1
  O  O52  1  0.15551352  0.85992415  0.97109302  1
  O  O53  1  0.65313597  0.85316028  0.97197775  1
  O  O54  1  0.28131176  0.84263973  0.47589236  1
  O  O55  1  0.77637114  0.85451786  0.47289013  1
  O  O56  1  0.15226946  0.45370122  0.47423897  1
  O  O57  1  0.65652896  0.44985972  0.47221151  1
  O  O58  1  0.07762070  0.70656686  0.47401397  1
  O  O59  1  0.58478197  0.69945636  0.47748166  1
  O  O60  1  0.06722170  0.64492653  0.35614077  1
  O  O61  1  0.56952476  0.63635279  0.36040432  1
  O  O62  1  0.24749537  0.86602512  0.36075711  1
  O  O63  1  0.75630540  0.87199650  0.36572895  1
  O  O64  1  0.17938390  0.48668872  0.36696040  1
  O  O65  1  0.68052671  0.48667105  0.36490350  1
  O  O66  1  0.06956205  0.50159297  0.85952451  1
  O  O67  1  0.56731489  0.48913794  0.85458698  1
  O  O68  1  0.18038886  0.87372036  0.86398974  1
  O  O69  1  0.67944524  0.87331751  0.86460320  1
  O  O70  1  0.25582208  0.64500263  0.86419388  1
  O  O71  1  0.74794613  0.63316866  0.85999577  1
  O  O72  1  0.01099271  0.84519851  0.40843275  1
  O  O73  1  0.51594456  0.84061066  0.41640947  1
  O  O74  1  0.41560001  0.00114285  0.40842212  1
  O  O75  1  0.90083157  0.98453844  0.41086441  1
  O  O76  1  0.08872009  0.19800443  0.41371808  1
  O  O77  1  0.58625898  0.20101087  0.41158346  1
  O  O78  1  0.01638502  0.19274132  0.91645114  1
  O  O79  1  0.51023206  0.17423476  0.90585795  1
  O  O80  1  0.08586373  0.96936654  0.91049684  1
  O  O81  1  0.58891616  0.98027319  0.91145801  1
  O  O82  1  0.40009701  0.81755836  0.90888250  1
  O  O83  1  0.91319445  0.83053774  0.90941346  1
  O  O84  1  0.48617295  0.16703434  0.58508223  1
  O  O85  1  0.98792316  0.17728623  0.58500588  1
  O  O86  1  0.09523762  0.03369586  0.58789394  1
  O  O87  1  0.59950738  0.02990701  0.58590790  1
  O  O88  1  0.41378322  0.80444030  0.58464003  1
  O  O89  1  0.91851859  0.81738908  0.58787630  1
  O  O90  1  0.48820377  0.81212101  0.08432487  1
  O  O91  1  0.98572149  0.80422124  0.08475442  1
  O  O92  1  0.41913866  0.02941298  0.08889195  1
  O  O93  1  0.91726023  0.03094539  0.08484822  1
  O  O94  1  0.09724668  0.16735634  0.08609330  1
  O  O95  1  0.59628714  0.16306661  0.08856628  1
  O  O96  1  0.34691881  0.17458490  0.74427988  1
  O  O97  1  0.84709913  0.17970715  0.73363087  1
  O  O98  1  0.24146910  0.31726703  0.74224433  1
  O  O99  1  0.74122159  0.30713570  0.74373517  1
  O  O100  1  0.41569308  0.51477960  0.73973257  1
  O  O101  1  0.92355964  0.52516354  0.74315470  1
  O  O102  1  0.34505133  0.51302212  0.23776306  1
  O  O103  1  0.84721447  0.51990320  0.24413747  1
  O  O104  1  0.42350918  0.31620557  0.24593592  1
  O  O105  1  0.91638789  0.31767574  0.24130047  1
  O  O106  1  0.24459704  0.18007856  0.24308344  1
  O  O107  1  0.74259565  0.16669303  0.24321049  1
  O  O108  1  0.31310391  0.49781830  0.91948609  1
  O  O109  1  0.81568565  0.48804372  0.92479742  1
  O  O110  1  0.42138705  0.35324485  0.91347261  1
  O  O111  1  0.92564650  0.36249539  0.92680832  1
  O  O112  1  0.24424393  0.13947851  0.91968020  1
  O  O113  1  0.74598180  0.13595483  0.92174407  1
  O  O114  1  0.31724995  0.14681111  0.42427136  1
  O  O115  1  0.81530625  0.13137259  0.42314355  1
  O  O116  1  0.24570987  0.35735668  0.42392776  1
  O  O117  1  0.74467476  0.34956505  0.41972773  1
  O  O118  1  0.42594998  0.49072177  0.42881801  1
  O  O119  1  0.92241417  0.48462166  0.41553500  1
  O  O120  1  0.17760207  0.48778550  0.08002623  1
  O  O121  1  0.69166029  0.51649657  0.08356569  1
  O  O122  1  0.06563132  0.64454659  0.07882276  1
  O  O123  1  0.57730920  0.64094592  0.08020778  1
  O  O124  1  0.24085689  0.84064773  0.08212933  1
  O  O125  1  0.75640388  0.87595480  0.07952222  1
  O  O126  1  0.18249724  0.85420189  0.58352691  1
  O  O127  1  0.67979685  0.86967954  0.58064215  1
  O  O128  1  0.25193268  0.63346638  0.57948195  1
  O  O129  1  0.74175640  0.63905099  0.58125582  1
  O  O130  1  0.06889049  0.49461730  0.57754817  1
  O  O131  1  0.56632983  0.48684629  0.57917691  1
  O  O132  1  0.15467282  0.83089797  0.25597348  1
  O  O133  1  0.65195765  0.82676113  0.26203910  1
  O  O134  1  0.25533409  0.67950079  0.26151459  1
  O  O135  1  0.75392972  0.68121728  0.26577390  1
  O  O136  1  0.08371042  0.48635079  0.26147315  1
  O  O137  1  0.57951384  0.47379964  0.25717293  1
  O  O138  1  0.15195417  0.47820993  0.76140371  1
  O  O139  1  0.65442102  0.48022322  0.75563443  1
  O  O140  1  0.07857595  0.68278871  0.75692530  1
  O  O141  1  0.58370640  0.68150236  0.76080498  1
  O  O142  1  0.25286257  0.82683816  0.76462703  1
  O  O143  1  0.75589833  0.83432733  0.75975993  1
loop_
_geom_bond_atom_site_label_1
_geom_bond_atom_site_label_2
_geom_bond_distance
_geom_bond_site_symmetry_2
Na0 O132 2.378061 1_555
Na0 O103 2.382929 1_455
Na0 O136 2.398166 1_555
Na0 O105 2.424095 1_455
Na0 O60 2.611844 1_555
Na0 O31 2.766793 1_455
Na0 O22 2.782947 1_555
Na0 O3 2.805728 1_455
Na1 O102 2.314977 1_555
Na1 O133 2.422911 1_555
Na1 O104 2.518392 1_555
Na1 O23 2.551516 1_555
Na1 O2 2.570869 1_555
Na1 O137 2.603480 1_555
Na1 O30 2.653052 1_555
Na1 O61 2.931227 1_555
Na2 O97 2.336819 1_555
Na2 O138 2.378615 1_655
Na2 O11 2.462041 1_555
Na2 O101 2.494106 1_555
Na2 O140 2.558035 1_655
Na2 O14 2.615093 1_655
Na2 O66 2.781691 1_655
Na2 O25 2.828300 1_555
Na3 O141 2.374582 1_555
Na3 O96 2.378999 1_555
Na3 O139 2.391051 1_555
Na3 O100 2.408548 1_555
Na3 O67 2.550599 1_555
Na3 O24 2.788244 1_555
Na3 O10 2.804060 1_555
Na3 O15 2.857525 1_555
Na4 O79 2.338960 1_555
Na4 O109 2.364313 1_555
Na4 O81 2.501945 1_545
Na4 O113 2.592226 1_555
Na4 O51 2.613770 1_555
Na4 O7 2.740859 1_555
Na4 O37 2.785811 1_556
Na4 O71 2.817934 1_555
Na5 O72 2.337869 1_545
Na5 O114 2.371601 1_555
Na5 O76 2.512244 1_555
Na5 O116 2.591500 1_555
Na5 O0 2.664716 1_555
Na5 O62 2.741651 1_545
Na5 O58 2.746833 1_545
Na5 O42 2.825525 1_555
Na6 O89 2.437880 1_555
Na6 O72 2.476870 1_655
Na6 O86 2.517015 1_665
Na6 O76 2.645877 1_665
Na6 O85 2.646433 1_565
Na6 O75 2.656638 1_555
Na7 O73 2.355804 1_555
Na7 O74 2.427486 1_565
Na7 O88 2.518786 1_555
Na7 O77 2.606364 1_565
Na7 O84 2.627849 1_565
Na7 O87 2.688448 1_565
Na8 O78 2.385221 1_655
Na8 O83 2.466795 1_545
Na8 O93 2.488219 1_556
Na8 O91 2.590879 1_546
Na8 O94 2.624736 1_656
Na8 O80 2.655421 1_645
Na9 O90 2.379403 1_555
Na9 O92 2.416747 1_565
Na9 O95 2.493953 1_565
Na9 O79 2.680862 1_564
Na9 O82 2.738840 1_554
Na9 O81 2.747606 1_554
Na10 O110 2.368680 1_555
Na10 O96 2.538933 1_555
Na10 O98 2.553717 1_555
Na10 O108 2.562012 1_555
Na10 O100 2.578861 1_555
Na10 O112 2.588843 1_555
Na11 O113 2.512447 1_555
Na11 O111 2.533511 1_555
Na11 O109 2.570422 1_555
Na11 O99 2.611125 1_555
Na11 O101 2.699891 1_555
Na11 O97 2.735556 1_555
Na12 O106 2.436334 1_555
Na12 O102 2.505499 1_555
Na12 O104 2.561199 1_555
Na12 O116 2.681996 1_555
Na12 O114 2.683362 1_555
Na12 O118 2.735983 1_555
Na13 O119 2.451803 1_555
Na13 O107 2.476810 1_555
Na13 O103 2.488598 1_555
Na13 O105 2.494872 1_555
Na13 O117 2.652315 1_555
Na13 O115 2.666040 1_555
Na14 O124 2.431849 1_555
Na14 O134 2.449328 1_555
Na14 O132 2.503468 1_555
Na14 O136 2.609330 1_555
Na14 O120 2.655259 1_555
Na14 O122 2.797393 1_555
Na15 O121 2.339147 1_555
Na15 O123 2.417164 1_555
Na15 O125 2.507315 1_555
Na15 O137 2.736976 1_555
Na15 O135 2.742329 1_555
Na15 O133 2.796826 1_555
Na16 O126 2.368211 1_555
Na16 O128 2.524168 1_555
Na16 O142 2.562075 1_555
Na16 O140 2.700529 1_555
Na16 O138 2.713977 1_555
Na16 O130 2.724019 1_555
Na17 O143 2.413099 1_555
Na17 O139 2.452791 1_555
Na17 O129 2.518894 1_555
Na17 O141 2.548585 1_555
Na17 O127 2.667210 1_555
Na17 O131 2.795352 1_555
O0 Si0 1.662159 1_555
O0 Ti0 1.838493 1_545
O1 Si1 1.617726 1_555
O1 Sn0 1.980014 1_545
O2 Si2 1.654640 1_555
O2 Sn0 1.972388 1_555
O3 Si3 1.648473 1_555
O3 Ti0 1.820147 1_655
O4 S0 1.473604 1_555
O4 Sn0 2.218690 1_545
O5 Si4 1.646504 1_655
O5 Ti0 1.849404 1_645
O6 Si5 1.612609 1_555
O6 Sn1 1.986022 1_455
O7 Si6 1.627621 1_555
O7 Ti1 1.865420 1_555
O8 Si7 1.636196 1_555
O8 Ti1 1.867065 1_565
O9 S1 1.461655 1_655
O9 Sn1 2.285110 1_565
O10 Si8 1.635807 1_545
O10 Ti1 1.835474 1_555
O11 Si9 1.646433 1_545
O11 Sn1 2.000311 1_555
O12 Si8 1.629132 1_555
O12 Sn3 1.983308 1_555
O13 Si9 1.622180 1_555
O13 Sn2 1.994470 1_565
O14 Si5 1.625425 1_555
O14 Sn2 2.019688 1_455
O15 Si6 1.632501 1_555
O15 Sn3 1.991816 1_545
O16 S1 1.478437 1_555
O16 Sn2 2.165718 1_465
O17 Si7 1.641130 1_555
O17 Sn3 1.958191 1_555
O18 Si2 1.614781 1_555
O18 Sn5 2.014413 1_555
O19 Si3 1.622493 1_555
O19 Sn4 1.990413 1_565
O20 Si4 1.630021 1_555
O20 Sn4 1.959275 1_455
O21 S0 1.463897 1_555
O21 Sn5 2.261508 1_545
O22 Si0 1.640155 1_565
O22 Sn4 1.989573 1_465
O23 Si1 1.606701 1_565
O23 Sn5 2.037414 1_555
O24 S2 1.466354 1_555
O24 Ti2 2.271317 1_555
O25 S3 1.462896 1_555
O25 Ti3 2.301950 1_555
O26 Si10 1.639688 1_555
O26 Ti2 1.842820 1_555
O27 S4 1.477643 1_555
O27 Ti3 2.045070 1_555
O28 S5 1.464148 1_555
O28 Ti2 2.206721 1_555
O29 Si11 1.648511 1_555
O29 Ti3 1.845729 1_555
O30 Si12 1.655969 1_555
O30 Ti4 1.898435 1_555
O31 S6 1.465882 1_555
O31 Ti5 2.257562 1_555
O32 Si13 1.639843 1_555
O32 Ti4 1.849806 1_555
O33 S7 1.469627 1_555
O33 Ti5 2.170137 1_555
O34 S8 1.474085 1_555
O34 Ti4 2.072415 1_555
O35 Si14 1.642233 1_555
O35 Ti5 1.813923 1_555
O36 S8 1.484601 1_555
O36 Sn6 2.233786 1_554
O37 Si14 1.670010 1_555
O37 Ti6 1.842102 1_554
O38 Si12 1.639901 1_555
O38 Sn6 1.933495 1_554
O39 S6 1.482656 1_555
O39 Ti6 2.062224 1_554
O40 Si13 1.626748 1_555
O40 Sn6 1.941501 1_554
O41 S7 1.481301 1_555
O41 Ti6 2.153093 1_554
O42 Si10 1.651588 1_555
O42 Ti7 1.885260 1_555
O43 S4 1.495059 1_555
O43 Sn7 2.165237 1_555
O44 S5 1.470217 1_555
O44 Ti7 2.195537 1_555
O45 Si11 1.626423 1_555
O45 Sn7 1.937274 1_555
O46 S2 1.476041 1_555
O46 Ti7 2.088296 1_555
O47 S3 1.504026 1_555
O47 Sn7 2.089339 1_555
O48 S9 1.489609 1_555
O48 Sn8 2.131372 1_556
O49 Si15 1.618172 1_555
O49 Sn9 2.001806 1_556
O50 Si16 1.624621 1_555
O50 Sn8 1.925050 1_556
O51 Si17 1.636674 1_555
O51 Sn9 2.006774 1_556
O52 S10 1.495565 1_555
O52 Sn8 2.108836 1_556
O53 S11 1.474409 1_555
O53 Sn9 2.227682 1_556
O54 Si18 1.634207 1_555
O54 Sn10 1.966414 1_555
O55 S12 1.501907 1_555
O55 Sn11 2.113181 1_555
O56 S13 1.505890 1_555
O56 Sn10 2.174962 1_555
O57 S14 1.504115 1_555
O57 Sn11 2.096170 1_555
O58 Si19 1.655423 1_555
O58 Sn10 1.986787 1_555
O59 Si20 1.636980 1_555
O59 Sn11 1.923739 1_555
O60 Si19 1.612875 1_555
O60 Ti8 1.956045 1_555
O61 Si20 1.647293 1_555
O61 Ti9 1.887313 1_555
O62 Si18 1.611889 1_555
O62 Ti8 1.941344 1_555
O63 S12 1.471094 1_555
O63 Ti9 2.097413 1_555
O64 S13 1.437242 1_555
O64 Ti8 2.259939 1_555
O65 S14 1.447797 1_555
O65 Ti9 2.209355 1_555
O66 Si16 1.661840 1_555
O66 Ti10 1.869218 1_555
O67 Si17 1.633623 1_555
O67 Ti11 1.915025 1_555
O68 S10 1.471238 1_555
O68 Ti10 2.174794 1_555
O69 S11 1.468714 1_555
O69 Ti11 2.194055 1_555
O70 S9 1.497677 1_555
O70 Ti10 1.977065 1_555
O71 Si15 1.630814 1_555
O71 Ti11 1.903022 1_555
O72 Si19 1.651599 1_555
O72 Ti0 2.007086 1_555
O73 Si20 1.622460 1_555
O73 Sn0 2.015853 1_555
O74 Si18 1.617241 1_545
O74 Sn0 1.996816 1_545
O75 S12 1.463688 1_555
O75 Ti0 2.279618 1_655
O76 S13 1.495497 1_555
O76 Ti0 2.306993 1_545
O77 S14 1.474484 1_555
O77 Sn0 2.247726 1_545
O78 Si16 1.625917 1_555
O78 Sn1 1.999668 1_455
O79 Si17 1.656125 1_555
O79 Ti1 1.950136 1_555
O80 S10 1.474192 1_555
O80 Sn1 2.224249 1_465
O81 S11 1.492108 1_555
O81 Ti1 2.254805 1_565
O82 S9 1.463563 1_555
O82 Ti1 2.210133 1_565
O83 Si15 1.628042 1_555
O83 Sn1 1.989818 1_565
O84 S2 1.507491 1_555
O84 Sn3 2.241226 1_545
O85 S3 1.481061 1_555
O85 Sn2 2.164609 1_555
O86 Si10 1.634379 1_555
O86 Sn2 2.029416 1_455
O87 S4 1.485484 1_555
O87 Sn3 2.288868 1_545
O88 S5 1.527842 1_555
O88 Sn3 2.177243 1_555
O89 Si11 1.616002 1_555
O89 Sn2 2.012191 1_565
O90 Si12 1.608923 1_555
O90 Sn5 1.984594 1_555
O91 S6 1.502084 1_555
O91 Sn4 2.257960 1_565
O92 Si13 1.603445 1_555
O92 Sn5 2.011796 1_545
O93 S7 1.528393 1_555
O93 Sn4 2.169447 1_555
O94 S8 1.495961 1_555
O94 Sn4 2.233976 1_455
O95 Si14 1.611608 1_555
O95 Sn5 2.053960 1_545
O96 Si8 1.641381 1_545
O96 Ti2 1.886172 1_555
O97 Si9 1.668783 1_545
O97 Ti3 1.889785 1_555
O98 Si5 1.621207 1_555
O98 Ti2 1.829303 1_555
O99 Si6 1.647397 1_555
O99 Ti3 1.806497 1_555
O100 Si7 1.646354 1_555
O100 Ti2 1.938574 1_555
O101 S1 1.505072 1_655
O101 Ti3 2.117058 1_555
O102 Si2 1.645977 1_555
O102 Ti4 1.956408 1_555
O103 Si3 1.637596 1_555
O103 Ti5 1.905839 1_555
O104 S0 1.493642 1_555
O104 Ti4 2.169259 1_555
O105 Si4 1.639455 1_655
O105 Ti5 1.953233 1_555
O106 Si0 1.610703 1_555
O106 Ti4 1.958093 1_555
O107 Si1 1.620057 1_555
O107 Ti5 1.834681 1_555
O108 S9 1.486808 1_555
O108 Sn6 2.259579 1_555
O109 Si15 1.680613 1_555
O109 Ti6 1.871192 1_555
O110 Si17 1.641692 1_555
O110 Sn6 2.004819 1_555
O111 Si16 1.635980 1_655
O111 Ti6 1.931795 1_555
O112 S10 1.494251 1_545
O112 Sn6 2.209239 1_555
O113 S11 1.524623 1_545
O113 Ti6 2.106215 1_555
O114 Si18 1.682647 1_545
O114 Ti7 1.840615 1_555
O115 S12 1.508690 1_545
O115 Sn7 2.163856 1_555
O116 S13 1.523021 1_555
O116 Ti7 2.071622 1_555
O117 S14 1.506372 1_555
O117 Sn7 2.131174 1_555
O118 Si20 1.645757 1_555
O118 Ti7 1.888759 1_555
O119 Si19 1.654168 1_655
O119 Sn7 1.975732 1_555
O120 S8 1.499577 1_555
O120 Sn8 2.172090 1_555
O121 Si14 1.627899 1_555
O121 Sn9 2.023944 1_555
O122 S6 1.500815 1_455
O122 Sn8 2.140840 1_555
O123 Si12 1.645057 1_555
O123 Sn9 2.011118 1_555
O124 Si13 1.668626 1_565
O124 Sn8 1.955971 1_555
O125 S7 1.481642 1_565
O125 Sn9 2.279338 1_555
O126 Si10 1.654220 1_565
O126 Sn10 2.023423 1_555
O127 S4 1.492056 1_565
O127 Sn11 2.204328 1_555
O128 S5 1.508510 1_555
O128 Sn10 2.229782 1_555
O129 Si11 1.657793 1_555
O129 Sn11 1.971317 1_555
O130 S3 1.492484 1_455
O130 Sn10 2.222722 1_555
O131 S2 1.505143 1_555
O131 Sn11 2.136465 1_555
O132 Si0 1.636503 1_565
O132 Ti8 1.871144 1_555
O133 Si1 1.678893 1_565
O133 Ti9 1.816605 1_555
O134 Si2 1.619777 1_555
O134 Ti8 1.888143 1_555
O135 Si3 1.627701 1_555
O135 Ti9 1.873249 1_555
O136 Si4 1.624416 1_555
O136 Ti8 1.927590 1_555
O137 S0 1.510973 1_555
O137 Ti9 2.048982 1_555
O138 Si5 1.669821 1_555
O138 Ti10 1.848890 1_555
O139 Si6 1.618396 1_555
O139 Ti11 1.914115 1_555
O140 S1 1.494210 1_555
O140 Ti10 2.130939 1_555
O141 Si7 1.622362 1_555
O141 Ti11 1.952974 1_555
O142 Si8 1.623658 1_555
O142 Ti10 1.888767 1_555
O143 Si9 1.606734 1_555
O143 Ti11 1.941831 1_555
