# generated using pymatgen
data_Ba4NaMgCu(CO5)2
_symmetry_space_group_name_H-M   'P 1'
_cell_length_a   5.78783829
_cell_length_b   5.78783699
_cell_length_c   10.69855021
_cell_angle_alpha   105.69382176
_cell_angle_beta   105.69380943
_cell_angle_gamma   89.99999408
_symmetry_Int_Tables_number   1
_chemical_formula_structural   Ba4NaMgCu(CO5)2
_chemical_formula_sum   'Ba4 Na1 Mg1 Cu1 C2 O10'
_cell_volume   331.13181153
_cell_formula_units_Z   1
loop_
 _symmetry_equiv_pos_site_id
 _symmetry_equiv_pos_as_xyz
  1  'x, y, z'
loop_
 _atom_site_type_symbol
 _atom_site_label
 _atom_site_symmetry_multiplicity
 _atom_site_fract_x
 _atom_site_fract_y
 _atom_site_fract_z
 _atom_site_occupancy
  Ba  Ba0  1  0.06537119  0.56537119  0.13074138  1
  Ba  Ba1  1  0.43462881  0.93462881  0.86925862  1
  Ba  Ba2  1  0.86942037  0.36942037  0.73884174  1
  Ba  Ba3  1  0.63057963  0.13057963  0.26115826  1
  Na  Na0  1  -0.00000000  -0.00000000  -0.00000000  1
  Mg  Mg0  1  0.25000000  0.75000000  0.50000000  1
  Cu  Cu0  1  0.50000000  0.50000000  -0.00000000  1
  C  C0  1  0.26408830  0.26408830  0.52817760  1
  C  C1  1  0.73591170  0.73591170  0.47182240  1
  O  O0  1  0.50834809  0.72777269  0.40250507  1
  O  O1  1  0.27222731  0.10584301  0.59749493  1
  O  O2  1  0.80087352  0.80087352  0.60174604  1
  O  O3  1  0.19912648  0.19912648  0.39825396  1
  O  O4  1  0.32526762  0.49165191  0.59749493  1
  O  O5  1  0.89415699  0.67473238  0.40250507  1
  O  O6  1  0.76067345  0.27944039  0.92469186  1
  O  O7  1  0.35474853  0.23932655  0.07530814  1
  O  O8  1  0.72055961  0.83598159  0.07530814  1
  O  O9  1  0.16401841  0.64525147  0.92469186  1
loop_
_geom_bond_atom_site_label_1
_geom_bond_atom_site_label_2
_geom_bond_distance
_geom_bond_site_symmetry_2
Ba0 O9 2.575177 1_554
Ba0 O6 2.575182 1_454
Ba0 O7 2.578746 1_555
Ba0 O8 2.578747 1_455
Ba0 O0 3.224771 1_555
Ba0 O5 3.224774 1_455
Ba1 O7 2.575179 1_566
Ba1 O8 2.575180 1_556
Ba1 O9 2.578743 1_555
Ba1 O6 2.578750 1_565
Ba1 O4 3.224771 1_555
Ba1 O1 3.224774 1_565
Ba2 O6 2.420342 1_555
Ba2 O9 2.420347 1_655
Ba3 O8 2.420345 1_545
Ba3 O7 2.420345 1_555
Na0 O9 2.298891 1_544
Na0 O6 2.298891 1_454
Na0 O7 2.298892 1_555
Na0 O8 2.298892 1_445
Mg0 O1 2.027691 1_565
Mg0 O4 2.027692 1_555
Mg0 O5 2.027692 1_455
Mg0 O0 2.027692 1_555
Cu0 O8 2.157829 1_555
Cu0 O6 2.157829 1_554
Cu0 O9 2.157829 1_554
Cu0 O7 2.157829 1_555
C0 O3 1.284270 1_555
C0 O1 1.318942 1_555
C0 O4 1.318947 1_555
C1 O2 1.284270 1_555
C1 O5 1.318943 1_555
C1 O0 1.318947 1_555
