# generated using pymatgen
data_Cr(PO3)4
_symmetry_space_group_name_H-M   'P 1'
_cell_length_a   7.01677604
_cell_length_b   7.01677604
_cell_length_c   9.49338510
_cell_angle_alpha   88.52600967
_cell_angle_beta   88.52600967
_cell_angle_gamma   108.84445198
_symmetry_Int_Tables_number   1
_chemical_formula_structural   Cr(PO3)4
_chemical_formula_sum   'Cr2 P8 O24'
_cell_volume   441.92207457
_cell_formula_units_Z   2
loop_
 _symmetry_equiv_pos_site_id
 _symmetry_equiv_pos_as_xyz
  1  'x, y, z'
loop_
 _atom_site_type_symbol
 _atom_site_label
 _atom_site_symmetry_multiplicity
 _atom_site_fract_x
 _atom_site_fract_y
 _atom_site_fract_z
 _atom_site_occupancy
  Cr  Cr0  1  0.39159900  0.60840100  0.25000000  1
  Cr  Cr1  1  0.60840100  0.39159900  0.75000000  1
  P  P0  1  0.29783500  0.22326300  0.02886200  1
  P  P1  1  0.13255300  0.77648800  0.03309100  1
  P  P2  1  0.86744700  0.22351200  0.96690900  1
  P  P3  1  0.22326300  0.29783500  0.52886200  1
  P  P4  1  0.70216500  0.77673700  0.97113800  1
  P  P5  1  0.77648800  0.13255300  0.53309100  1
  P  P6  1  0.77673700  0.70216500  0.47113800  1
  P  P7  1  0.22351200  0.86744700  0.46690900  1
  O  O0  1  0.10478600  0.26883000  0.96968800  1
  O  O1  1  0.36162300  0.38489800  0.64502200  1
  O  O2  1  0.38489800  0.36162300  0.14502200  1
  O  O3  1  0.61510200  0.63837700  0.85497800  1
  O  O4  1  0.62896100  0.15747300  0.64565200  1
  O  O5  1  0.63837700  0.61510200  0.35497800  1
  O  O6  1  0.22902600  0.76628000  0.89277800  1
  O  O7  1  0.37103900  0.84252700  0.35434800  1
  O  O8  1  0.21823200  0.43141000  0.40337300  1
  O  O9  1  0.23372000  0.77097400  0.60722200  1
  O  O10  1  0.26883000  0.10478600  0.46968800  1
  O  O11  1  0.89521400  0.73117000  0.03031200  1
  O  O12  1  0.73117000  0.89521400  0.53031200  1
  O  O13  1  0.77097400  0.23372000  0.10722200  1
  O  O14  1  0.79339200  0.00001600  0.90207300  1
  O  O15  1  0.43141000  0.21823200  0.90337300  1
  O  O16  1  0.00001600  0.79339200  0.40207300  1
  O  O17  1  0.99998400  0.20660800  0.59792700  1
  O  O18  1  0.84252700  0.37103900  0.85434800  1
  O  O19  1  0.20660800  0.99998400  0.09792700  1
  O  O20  1  0.76628000  0.22902600  0.39277800  1
  O  O21  1  0.78176800  0.56859000  0.59662700  1
  O  O22  1  0.56859000  0.78176800  0.09662700  1
  O  O23  1  0.15747300  0.62896100  0.14565200  1
loop_
_geom_bond_atom_site_label_1
_geom_bond_atom_site_label_2
_geom_bond_distance
_geom_bond_site_symmetry_2
Cr0 O23 1.982531 1_555
Cr0 O7 1.982531 1_555
Cr0 O8 1.995513 1_555
Cr0 O22 1.995513 1_555
Cr0 O5 2.008084 1_555
Cr0 O2 2.008084 1_555
Cr1 O4 1.982531 1_555
Cr1 O18 1.982531 1_555
Cr1 O15 1.995513 1_555
Cr1 O21 1.995513 1_555
Cr1 O1 2.008084 1_555
Cr1 O3 2.008084 1_555
O0 P2 1.592424 1_455
O0 P0 1.600747 1_556
O1 P3 1.496127 1_555
O2 P0 1.496127 1_555
O3 P4 1.496127 1_555
O4 P5 1.521068 1_555
O5 P6 1.496127 1_555
O6 P1 1.492498 1_556
O7 P7 1.521068 1_555
O8 P3 1.505005 1_555
O9 P7 1.492498 1_555
O10 P7 1.592424 1_545
O10 P3 1.600747 1_555
O11 P1 1.592424 1_655
O11 P4 1.600747 1_554
O12 P5 1.592424 1_565
O12 P6 1.600747 1_555
O13 P2 1.492498 1_554
O14 P4 1.603712 1_545
O14 P2 1.627231 1_555
O15 P0 1.505005 1_556
O16 P6 1.603712 1_455
O16 P7 1.627231 1_555
O17 P3 1.603712 1_655
O17 P5 1.627231 1_555
O18 P2 1.521068 1_555
O19 P0 1.603712 1_565
O19 P1 1.627231 1_555
O20 P5 1.492498 1_555
O21 P6 1.505005 1_555
O22 P4 1.505005 1_554
O23 P1 1.521068 1_555
