# generated using pymatgen
data_Na9Ca10Nb2P3(S5O24)3
_symmetry_space_group_name_H-M   'P 1'
_cell_length_a   9.22213212
_cell_length_b   9.18585973
_cell_length_c   23.90826106
_cell_angle_alpha   89.74308680
_cell_angle_beta   90.05024578
_cell_angle_gamma   119.93762472
_symmetry_Int_Tables_number   1
_chemical_formula_structural   Na9Ca10Nb2P3(S5O24)3
_chemical_formula_sum   'Na9 Ca10 Nb2 P3 S15 O72'
_cell_volume   1755.08233356
_cell_formula_units_Z   1
loop_
 _symmetry_equiv_pos_site_id
 _symmetry_equiv_pos_as_xyz
  1  'x, y, z'
loop_
 _atom_site_type_symbol
 _atom_site_label
 _atom_site_symmetry_multiplicity
 _atom_site_fract_x
 _atom_site_fract_y
 _atom_site_fract_z
 _atom_site_occupancy
  Na  Na0  1  0.66625155  0.97138837  0.58931417  1
  Na  Na1  1  0.30430257  0.97091259  0.08888454  1
  Na  Na2  1  0.33144526  0.04493688  0.41125347  1
  Na  Na3  1  0.01020454  0.01405674  0.50275296  1
  Na  Na4  1  0.98547474  0.00244850  0.00345414  1
  Na  Na5  1  0.66956583  0.32203972  0.82997647  1
  Na  Na6  1  0.65817356  0.33523806  0.32940793  1
  Na  Na7  1  0.33187159  0.65771649  0.16236251  1
  Na  Na8  1  0.32175739  0.65378178  0.66142407  1
  Ca  Ca0  1  0.00021054  0.00380386  0.34808391  1
  Ca  Ca1  1  0.99645417  0.00169965  0.84943179  1
  Ca  Ca2  1  0.00154647  0.99878147  0.65564391  1
  Ca  Ca3  1  0.99878597  0.99771638  0.15556544  1
  Ca  Ca4  1  0.66516809  0.33326977  0.68509082  1
  Ca  Ca5  1  0.66525973  0.33110580  0.18504965  1
  Ca  Ca6  1  0.67312203  0.33855351  0.97995049  1
  Ca  Ca7  1  0.67007982  0.34880283  0.48055607  1
  Ca  Ca8  1  0.33204179  0.65786010  0.01791347  1
  Ca  Ca9  1  0.32543978  0.64969836  0.51787785  1
  Nb  Nb0  1  0.33321488  0.66099189  0.31499757  1
  Nb  Nb1  1  0.34017363  0.67313843  0.81478360  1
  P  P0  1  0.30561787  0.99555374  0.25380144  1
  P  P1  1  0.69594509  -0.00006104  0.75106870  1
  P  P2  1  0.33386669  0.37085626  0.41450986  1
  S  S0  1  0.69114157  0.69814224  0.25378630  1
  S  S1  1  0.00701920  0.31074617  0.25287056  1
  S  S2  1  0.30167317  0.31037629  0.75393083  1
  S  S3  1  0.00888730  0.69886089  0.75429970  1
  S  S4  1  0.96071700  0.32863057  0.58403282  1
  S  S5  1  0.36765066  0.03449683  0.58093646  1
  S  S6  1  0.67061858  0.64014000  0.58423609  1
  S  S7  1  0.96779804  0.63706985  0.08332522  1
  S  S8  1  0.66668836  0.03475759  0.08263126  1
  S  S9  1  0.36741057  0.32850424  0.08354240  1
  S  S10  1  0.62071006  0.66434545  0.91397603  1
  S  S11  1  0.04475194  0.37927846  0.91355605  1
  S  S12  1  0.33446113  0.95596450  0.91501663  1
  S  S13  1  0.61908918  0.95317727  0.41545967  1
  S  S14  1  0.04735778  0.66614490  0.41355103  1
  O  O0  1  0.21806377  0.01256862  0.30554517  1
  O  O1  1  0.79161557  0.77992938  0.30317179  1
  O  O2  1  0.98343880  0.20787631  0.30234205  1
  O  O3  1  0.22153147  0.20536944  0.80283649  1
  O  O4  1  0.98911057  0.78197062  0.80315310  1
  O  O5  1  0.80522489  0.01455936  0.80010710  1
  O  O6  1  0.74682207  0.95613920  0.69545331  1
  O  O7  1  0.20277971  0.24623723  0.70252179  1
  O  O8  1  0.04554219  0.79846242  0.70269890  1
  O  O9  1  0.75577345  0.79826528  0.20250393  1
  O  O10  1  0.04057760  0.24387838  0.20186839  1
  O  O11  1  0.20470281  0.95674710  0.19931846  1
  O  O12  1  0.87655657  0.34166617  0.63463006  1
  O  O13  1  0.47428672  0.12461907  0.62950983  1
  O  O14  1  0.65655034  0.54212278  0.63468645  1
  O  O15  1  0.88506119  0.54008537  0.13399515  1
  O  O16  1  0.64870650  0.11846311  0.13275638  1
  O  O17  1  0.46482447  0.34377490  0.13429106  1
  O  O18  1  0.45118427  0.31257071  0.03274946  1
  O  O19  1  0.87311160  0.55432859  0.03213321  1
  O  O20  1  0.68275054  0.13252674  0.03121666  1
  O  O21  1  0.44436890  0.12671716  0.52769007  1
  O  O22  1  0.68241442  0.55780186  0.53291632  1
  O  O23  1  0.86228327  0.31360864  0.53295705  1
  O  O24  1  0.54270928  0.67902211  0.96482608  1
  O  O25  1  0.13432901  0.45716328  0.96515834  1
  O  O26  1  0.32097384  0.86627898  0.96722361  1
  O  O27  1  0.54463799  0.86488093  0.46798490  1
  O  O28  1  0.32209142  0.45579126  0.46657823  1
  O  O29  1  0.14404173  0.68749292  0.46423166  1
  O  O30  1  0.14480809  0.65555479  0.36330181  1
  O  O31  1  0.50680873  0.85165107  0.36618522  1
  O  O32  1  0.33794827  0.48833148  0.36194616  1
  O  O33  1  0.14656941  0.48734210  0.86381180  1
  O  O34  1  0.34247700  0.85043192  0.86550394  1
  O  O35  1  0.51060424  0.65714489  0.86369536  1
  O  O36  1  0.03297725  0.81905217  0.40717871  1
  O  O37  1  0.78655043  0.97495633  0.40828507  1
  O  O38  1  0.18025741  0.19263276  0.41012555  1
  O  O39  1  0.02663208  0.21057312  0.90909252  1
  O  O40  1  0.18498383  0.97187133  0.90767543  1
  O  O41  1  0.78769248  0.81334468  0.90786578  1
  O  O42  1  0.97030143  0.16979594  0.58704301  1
  O  O43  1  0.19762211  0.01250362  0.58636205  1
  O  O44  1  0.82184112  0.81308618  0.58637098  1
  O  O45  1  0.99035012  0.81102158  0.08558365  1
  O  O46  1  0.81386727  0.01062453  0.08698573  1
  O  O47  1  0.20005593  0.16940348  0.08694462  1
  O  O48  1  0.65681896  0.14244039  0.74854429  1
  O  O49  1  0.47400543  0.34200564  0.74811558  1
  O  O50  1  0.86535381  0.52763946  0.74883570  1
  O  O51  1  0.66355254  0.52690730  0.24855320  1
  O  O52  1  0.86763342  0.34358419  0.24731781  1
  O  O53  1  0.48511961  0.14203326  0.24949685  1
  O  O54  1  0.62722424  0.50714339  0.91150594  1
  O  O55  1  0.87942697  0.36992891  0.91125923  1
  O  O56  1  0.49066429  0.11987906  0.91190716  1
  O  O57  1  0.62139800  0.11663558  0.41330963  1
  O  O58  1  0.49409856  0.35712975  0.40986373  1
  O  O59  1  0.88247506  0.51209661  0.41302705  1
  O  O60  1  0.34341946  0.47629962  0.08051288  1
  O  O61  1  0.14208254  0.66175426  0.08104150  1
  O  O62  1  0.50697802  0.86767991  0.07987371  1
  O  O63  1  0.36015063  0.86734002  0.57962651  1
  O  O64  1  0.52127062  0.66491466  0.58229043  1
  O  O65  1  0.13131875  0.47709453  0.58188344  1
  O  O66  1  0.32190333  0.82749503  0.26741680  1
  O  O67  1  0.51611479  0.68139064  0.26299417  1
  O  O68  1  0.16703709  0.48534787  0.26166931  1
  O  O69  1  0.31720149  0.48532993  0.76366240  1
  O  O70  1  0.16618329  0.68074739  0.76423413  1
  O  O71  1  0.50957583  0.83005029  0.76707328  1
loop_
_geom_bond_atom_site_label_1
_geom_bond_atom_site_label_2
_geom_bond_distance
_geom_bond_site_symmetry_2
Na0 O64 2.447089 1_555
Na0 O42 2.466899 1_565
Na0 O63 2.498760 1_555
Na0 O44 2.502396 1_555
Na0 O6 2.666183 1_555
Na1 O47 2.449407 1_565
Na1 O61 2.470214 1_555
Na1 O62 2.492149 1_555
Na1 O45 2.510468 1_455
Na1 O11 2.777334 1_555
Na2 O38 2.381821 1_555
Na2 O57 2.414256 1_555
Na2 O58 2.486133 1_555
Na2 O36 2.488375 1_545
Na2 O0 2.694582 1_555
Na2 O21 2.937889 1_555
Na3 O42 2.606873 1_455
Na3 O43 2.646058 1_555
Na3 O44 2.682243 1_445
Na3 O38 2.731366 1_555
Na3 O37 2.957023 1_445
Na3 O36 2.981129 1_545
Na4 O46 2.573739 1_555
Na4 O45 2.645275 1_545
Na4 O47 2.691443 1_655
Na4 O39 2.850832 1_654
Na4 O41 2.903970 1_544
Na4 O40 3.039201 1_644
Na5 O48 2.522069 1_555
Na5 O55 2.620495 1_555
Na5 O56 2.631070 1_555
Na5 O50 2.675818 1_555
Na5 O49 2.727153 1_555
Na5 O54 2.745334 1_555
Na6 O58 2.518398 1_555
Na6 O53 2.558300 1_555
Na6 O51 2.592618 1_555
Na6 O52 2.728850 1_555
Na6 O57 2.730646 1_555
Na6 O59 2.753650 1_555
Na7 O60 2.612394 1_555
Na7 O61 2.627365 1_555
Na7 O62 2.660796 1_555
Na7 O68 2.832866 1_555
Na7 O67 2.889895 1_555
Na7 O66 2.987939 1_555
Na8 O65 2.551816 1_555
Na8 O64 2.606119 1_555
Na8 O63 2.659276 1_555
Na8 O69 2.876162 1_555
Na8 O70 2.920268 1_555
Na8 O71 3.038373 1_555
Ca0 O0 2.217790 1_555
Ca0 O2 2.237112 1_455
Ca0 O38 2.260524 1_555
Ca0 O1 2.269425 1_445
Ca0 O36 2.336073 1_545
Ca0 O37 2.346211 1_445
Ca1 O5 2.172036 1_555
Ca1 O3 2.271351 1_655
Ca1 O4 2.277323 1_545
Ca1 O39 2.298748 1_655
Ca1 O41 2.304377 1_545
Ca1 O40 2.346242 1_645
Ca2 O8 2.354156 1_555
Ca2 O44 2.366032 1_455
Ca2 O6 2.379022 1_455
Ca2 O42 2.380900 1_465
Ca2 O7 2.382398 1_565
Ca2 O43 2.409394 1_565
Ca3 O9 2.350812 1_555
Ca3 O11 2.355492 1_655
Ca3 O45 2.374628 1_555
Ca3 O10 2.374650 1_665
Ca3 O47 2.384200 1_665
Ca3 O46 2.409522 1_565
Ca4 O12 2.261637 1_555
Ca4 O13 2.277999 1_555
Ca4 O48 2.285130 1_555
Ca4 O14 2.295744 1_555
Ca4 O49 2.351974 1_555
Ca4 O50 2.376600 1_555
Ca5 O17 2.261081 1_555
Ca5 O16 2.264013 1_555
Ca5 O53 2.291519 1_555
Ca5 O15 2.320202 1_555
Ca5 O52 2.344293 1_555
Ca5 O51 2.364981 1_555
Ca6 O20 2.288800 1_556
Ca6 O19 2.292623 1_556
Ca6 O18 2.313836 1_556
Ca6 O55 2.419480 1_555
Ca6 O54 2.426016 1_555
Ca6 O56 2.482665 1_555
Ca7 O22 2.251477 1_555
Ca7 O23 2.319556 1_555
Ca7 O21 2.347242 1_555
Ca7 O58 2.369431 1_555
Ca7 O59 2.396774 1_555
Ca7 O57 2.531493 1_555
Ca8 O25 2.230662 1_554
Ca8 O24 2.246858 1_554
Ca8 O60 2.276944 1_555
Ca8 O26 2.306186 1_554
Ca8 O61 2.327184 1_555
Ca8 O62 2.330186 1_555
Ca9 O28 2.154653 1_555
Ca9 O29 2.266276 1_555
Ca9 O65 2.282632 1_555
Ca9 O64 2.323310 1_555
Ca9 O27 2.326210 1_555
Ca9 O63 2.380278 1_555
Nb0 O66 1.946198 1_555
Nb0 O32 1.957135 1_555
Nb0 O67 2.027833 1_555
Nb0 O68 2.030873 1_555
Nb0 O30 2.066774 1_555
Nb0 O31 2.084513 1_555
Nb1 O71 1.886836 1_555
Nb1 O35 2.021169 1_555
Nb1 O34 2.026422 1_555
Nb1 O70 2.036634 1_555
Nb1 O69 2.041719 1_555
Nb1 O33 2.102117 1_555
O0 P0 1.528480 1_545
O1 S0 1.458873 1_555
O2 S1 1.457568 1_655
O3 S2 1.457271 1_555
O4 S3 1.458652 1_655
O5 P1 1.507483 1_555
O6 P1 1.531125 1_565
O7 S2 1.468940 1_555
O8 S3 1.468077 1_555
O9 S0 1.465746 1_555
O10 S1 1.468691 1_555
O11 P0 1.536505 1_555
O12 S4 1.475057 1_555
O13 S5 1.481587 1_555
O14 S6 1.468440 1_555
O15 S7 1.468637 1_555
O16 S8 1.480126 1_555
O17 S9 1.474007 1_555
O18 S9 1.486300 1_555
O19 S7 1.477217 1_555
O20 S8 1.482284 1_555
O21 S5 1.494148 1_555
O22 S6 1.476489 1_555
O23 S4 1.486200 1_555
O24 S10 1.453764 1_555
O25 S11 1.460333 1_555
O26 S12 1.463182 1_555
O27 S13 1.463834 1_555
O28 P2 1.504561 1_555
O29 S14 1.458548 1_555
O30 S14 1.533173 1_555
O31 S13 1.540661 1_555
O32 P2 1.640911 1_555
O33 S11 1.530530 1_555
O34 S12 1.558358 1_555
O35 S10 1.553084 1_555
O36 S14 1.482439 1_555
O37 S13 1.465006 1_555
O38 P2 1.544166 1_555
O39 S11 1.477793 1_555
O40 S12 1.467244 1_555
O41 S10 1.470010 1_555
O42 S4 1.506497 1_555
O43 S5 1.483335 1_555
O44 S6 1.503524 1_555
O45 S7 1.506153 1_555
O46 S8 1.483955 1_555
O47 S9 1.507424 1_555
O48 P1 1.522497 1_555
O49 S2 1.472641 1_555
O50 S3 1.471907 1_655
O51 S0 1.468601 1_555
O52 S1 1.465370 1_655
O53 P0 1.528806 1_545
O54 S10 1.476379 1_555
O55 S11 1.484636 1_655
O56 S12 1.477174 1_545
O57 S13 1.491648 1_545
O58 P2 1.548598 1_555
O59 S14 1.472134 1_655
O60 S9 1.481974 1_555
O61 S7 1.507983 1_455
O62 S8 1.507868 1_565
O63 S5 1.502626 1_565
O64 S6 1.504517 1_555
O65 S4 1.481804 1_455
O66 P0 1.654856 1_555
O67 S0 1.558825 1_555
O68 S1 1.560275 1_555
O69 S2 1.559165 1_555
O70 S3 1.558301 1_555
O71 P1 1.689519 1_565
