# generated using pymatgen
data_Sr3MgMn4O12
_symmetry_space_group_name_H-M   'P 1'
_cell_length_a   5.66960634
_cell_length_b   5.67203873
_cell_length_c   9.56509056
_cell_angle_alpha   91.71862891
_cell_angle_beta   88.30692839
_cell_angle_gamma   121.06470323
_symmetry_Int_Tables_number   1
_chemical_formula_structural   Sr3MgMn4O12
_chemical_formula_sum   'Sr3 Mg1 Mn4 O12'
_cell_volume   263.32837422
_cell_formula_units_Z   1
loop_
 _symmetry_equiv_pos_site_id
 _symmetry_equiv_pos_as_xyz
  1  'x, y, z'
loop_
 _atom_site_type_symbol
 _atom_site_label
 _atom_site_symmetry_multiplicity
 _atom_site_fract_x
 _atom_site_fract_y
 _atom_site_fract_z
 _atom_site_occupancy
  Sr  Sr0  1  0.02575198  0.97390941  0.53781618  1
  Sr  Sr1  1  0.24385176  0.75735371  0.18403797  1
  Sr  Sr2  1  0.66970435  0.33085331  0.77196145  1
  Mg  Mg0  1  0.45174322  0.54845840  0.36750361  1
  Mn  Mn0  1  0.32689427  0.67403051  0.88949702  1
  Mn  Mn1  1  0.35831151  0.64170161  0.61963948  1
  Mn  Mn2  1  0.71068208  0.28984855  0.38267512  1
  Mn  Mn3  1  0.64313568  0.35761263  0.10237528  1
  O  O0  1  0.08102473  0.43923343  0.46361054  1
  O  O1  1  0.19466341  0.80422622  0.72033156  1
  O  O2  1  0.55890858  0.91859478  0.46310705  1
  O  O3  1  0.18458685  0.36668121  0.75553423  1
  O  O4  1  0.63404734  0.81747579  0.75516867  1
  O  O5  1  0.45661510  0.54645140  0.03056277  1
  O  O6  1  0.56004333  0.44010306  0.53887907  1
  O  O7  1  0.37265455  0.19426630  0.28221338  1
  O  O8  1  0.44720384  0.04525016  0.98182847  1
  O  O9  1  0.80758925  0.62865441  0.28331683  1
  O  O10  1  0.80478966  0.19623136  0.20950831  1
  O  O11  1  0.95589351  0.55287375  0.98186200  1
loop_
_geom_bond_atom_site_label_1
_geom_bond_atom_site_label_2
_geom_bond_distance
_geom_bond_site_symmetry_2
Mg0 O7 1.973902 1_555
Mg0 O9 1.975996 1_555
Mg0 O6 1.987751 1_555
Mg0 O2 2.052863 1_555
Mg0 O0 2.054926 1_555
Mn0 O5 1.884579 1_556
Mn0 O3 1.951279 1_555
Mn0 O4 1.952874 1_555
Mn0 O11 2.027818 1_455
Mn0 O8 2.029908 1_565
Mn0 O1 2.107200 1_555
Mn1 O1 1.847943 1_555
Mn1 O4 1.884725 1_555
Mn1 O3 1.885055 1_555
Mn1 O0 2.047030 1_555
Mn1 O2 2.049120 1_555
Mn1 O6 2.111141 1_555
Mn2 O10 1.870178 1_555
Mn2 O9 1.971582 1_555
Mn2 O7 1.973704 1_555
Mn2 O0 1.986614 1_655
Mn2 O2 1.988626 1_545
Mn2 O6 2.070626 1_555
Mn3 O8 1.903824 1_554
Mn3 O11 1.904919 1_554
Mn3 O10 1.924975 1_555
Mn3 O5 1.998345 1_555
Mn3 O7 2.154646 1_555
Mn3 O9 2.164411 1_555
O0 Sr0 2.610314 1_545
O1 Sr0 2.458036 1_555
O1 Sr2 2.838482 1_455
O1 Sr2 2.847413 1_565
O2 Sr0 2.618404 1_655
O3 Sr0 2.805885 1_545
O3 Sr2 2.819610 1_455
O3 Sr2 2.869687 1_555
O4 Sr0 2.801026 1_655
O4 Sr2 2.812856 1_565
O4 Sr2 2.879135 1_555
O5 Sr1 2.514039 1_555
O6 Sr2 2.510655 1_555
O6 Sr0 2.808735 1_655
O6 Sr0 2.811078 1_545
O7 Sr1 2.364274 1_545
O7 Sr0 2.961428 1_545
O8 Sr1 2.418981 1_546
O8 Sr2 2.486301 1_555
O9 Sr1 2.364729 1_655
O9 Sr0 2.946683 1_655
O11 Sr1 2.418301 1_656
O11 Sr2 2.486294 1_555
