# generated using pymatgen
data_K6Sn3As5
_symmetry_space_group_name_H-M   'P 1'
_cell_length_a   10.76960902
_cell_length_b   10.99539044
_cell_length_c   14.87310834
_cell_angle_alpha   90.00000000
_cell_angle_beta   90.00000000
_cell_angle_gamma   90.00000000
_symmetry_Int_Tables_number   1
_chemical_formula_structural   K6Sn3As5
_chemical_formula_sum   'K24 Sn12 As20'
_cell_volume   1761.21483099
_cell_formula_units_Z   4
loop_
 _symmetry_equiv_pos_site_id
 _symmetry_equiv_pos_as_xyz
  1  'x, y, z'
loop_
 _atom_site_type_symbol
 _atom_site_label
 _atom_site_symmetry_multiplicity
 _atom_site_fract_x
 _atom_site_fract_y
 _atom_site_fract_z
 _atom_site_occupancy
  K  K0  1  0.79200168  0.89512664  0.85269131  1
  K  K1  1  0.29200168  0.10487336  0.64730869  1
  K  K2  1  0.20799832  0.89512664  0.14730869  1
  K  K3  1  0.70799832  0.10487336  0.35269131  1
  K  K4  1  0.70799832  0.10487336  0.64730869  1
  K  K5  1  0.20799832  0.89512664  0.85269131  1
  K  K6  1  0.29200168  0.10487336  0.35269131  1
  K  K7  1  0.79200168  0.89512664  0.14730869  1
  K  K8  1  -0.00000000  0.58850030  0.78050755  1
  K  K9  1  0.50000000  0.41149970  0.71949245  1
  K  K10  1  -0.00000000  0.58850030  0.21949245  1
  K  K11  1  0.50000000  0.41149970  0.28050755  1
  K  K12  1  0.79781961  0.29979533  0.14863121  1
  K  K13  1  0.29781961  0.70020467  0.35136879  1
  K  K14  1  0.20218039  0.29979533  0.85136879  1
  K  K15  1  0.70218039  0.70020467  0.64863121  1
  K  K16  1  0.70218039  0.70020467  0.35136879  1
  K  K17  1  0.20218039  0.29979533  0.14863121  1
  K  K18  1  0.29781961  0.70020467  0.64863121  1
  K  K19  1  0.79781961  0.29979533  0.85136879  1
  K  K20  1  -0.00000000  0.09898415  -0.00000000  1
  K  K21  1  0.50000000  0.90101585  0.50000000  1
  K  K22  1  0.50000000  0.41725112  -0.00000000  1
  K  K23  1  -0.00000000  0.58274888  0.50000000  1
  Sn  Sn0  1  0.50000000  0.73255994  0.89769946  1
  Sn  Sn1  1  -0.00000000  0.26744006  0.60230054  1
  Sn  Sn2  1  0.50000000  0.73255994  0.10230054  1
  Sn  Sn3  1  -0.00000000  0.26744006  0.39769946  1
  Sn  Sn4  1  0.50000000  0.11973446  0.87416332  1
  Sn  Sn5  1  -0.00000000  0.88026554  0.62583668  1
  Sn  Sn6  1  0.50000000  0.11973446  0.12583668  1
  Sn  Sn7  1  0.66937243  0.39610467  0.50000000  1
  Sn  Sn8  1  0.16937243  0.60389533  -0.00000000  1
  Sn  Sn9  1  0.33062757  0.39610467  0.50000000  1
  Sn  Sn10  1  0.83062757  0.60389533  -0.00000000  1
  Sn  Sn11  1  -0.00000000  0.88026554  0.37416332  1
  As  As0  1  -0.00000000  0.09007135  0.72621474  1
  As  As1  1  0.50000000  0.90992865  0.22621474  1
  As  As2  1  -0.00000000  0.09007135  0.27378526  1
  As  As3  1  0.69231002  0.59204710  0.85621275  1
  As  As4  1  0.50000000  0.90992865  0.77378526  1
  As  As5  1  0.19231002  0.40795290  0.64378725  1
  As  As6  1  0.30768998  0.59204710  0.14378725  1
  As  As7  1  0.80768998  0.40795290  0.35621275  1
  As  As8  1  0.80768998  0.40795290  0.64378725  1
  As  As9  1  0.30768998  0.59204710  0.85621275  1
  As  As10  1  0.19231002  0.40795290  0.35621275  1
  As  As11  1  0.69231002  0.59204710  0.14378725  1
  As  As12  1  0.68140267  0.10076178  -0.00000000  1
  As  As13  1  0.18140267  0.89923822  0.50000000  1
  As  As14  1  0.31859733  0.10076178  -0.00000000  1
  As  As15  1  0.81859733  0.89923822  0.50000000  1
  As  As16  1  -0.00000000  0.78173253  -0.00000000  1
  As  As17  1  0.50000000  0.21826747  0.50000000  1
  As  As18  1  -0.00000000  0.42583489  -0.00000000  1
  As  As19  1  0.50000000  0.57416511  0.50000000  1
loop_
_geom_bond_atom_site_label_1
_geom_bond_atom_site_label_2
_geom_bond_distance
_geom_bond_site_symmetry_2
K12 Sn6 3.784458 1_555
K13 Sn11 3.784458 1_555
K14 Sn4 3.784458 1_555
K15 Sn5 3.784458 1_655
K16 Sn11 3.784458 1_655
K17 Sn6 3.784458 1_555
K18 Sn5 3.784458 1_555
K19 Sn4 3.784458 1_555
K22 Sn4 3.768860 1_554
K22 Sn6 3.768860 1_555
K22 Sn0 3.786125 1_554
K22 Sn2 3.786125 1_555
K23 Sn11 3.768860 1_555
K23 Sn5 3.768860 1_555
K23 Sn1 3.786125 1_555
K23 Sn3 3.786125 1_555
As0 Sn1 2.683289 1_555
As0 Sn5 2.747840 1_545
As0 K4 3.360534 1_455
As0 K1 3.360534 1_555
As0 K0 3.626427 1_445
As0 K5 3.626427 1_545
As0 K19 3.677449 1_455
As0 K14 3.677449 1_555
As1 Sn2 2.683289 1_555
As1 Sn6 2.747840 1_565
As1 K2 3.360534 1_555
As1 K7 3.360534 1_555
As1 K6 3.626427 1_565
As1 K3 3.626427 1_565
As1 K16 3.677449 1_555
As1 K13 3.677449 1_555
As2 Sn3 2.683289 1_555
As2 Sn11 2.747840 1_545
As2 K3 3.360534 1_455
As2 K6 3.360534 1_555
As2 K7 3.626427 1_445
As2 K2 3.626427 1_545
As2 K12 3.677449 1_455
As2 K17 3.677449 1_555
As3 Sn10 2.609485 1_556
As3 Sn0 2.656541 1_555
As3 K15 3.310213 1_555
As3 K19 3.409171 1_555
As3 K8 3.499992 1_655
As3 K0 3.501550 1_555
As3 K9 3.516446 1_555
As3 K22 3.543560 1_556
As4 Sn0 2.683289 1_555
As4 Sn4 2.747840 1_565
As4 K5 3.360534 1_555
As4 K0 3.360534 1_555
As4 K1 3.626427 1_565
As4 K4 3.626427 1_565
As4 K15 3.677449 1_555
As4 K18 3.677449 1_555
As5 Sn9 2.609485 1_555
As5 Sn1 2.656541 1_555
As5 K14 3.310213 1_555
As5 K18 3.409171 1_555
As5 K9 3.499992 1_555
As5 K1 3.501550 1_555
As5 K8 3.516446 1_555
As5 K23 3.543560 1_555
As6 Sn8 2.609485 1_555
As6 Sn2 2.656541 1_555
As6 K13 3.310213 1_555
As6 K17 3.409171 1_555
As6 K10 3.499992 1_555
As6 K2 3.501550 1_555
As6 K11 3.516446 1_555
As6 K22 3.543560 1_555
As7 Sn7 2.609485 1_555
As7 Sn3 2.656541 1_655
As7 K12 3.310213 1_555
As7 K16 3.409171 1_555
As7 K11 3.499992 1_555
As7 K3 3.501550 1_555
As7 K10 3.516446 1_655
As7 K23 3.543560 1_655
As8 Sn7 2.609485 1_555
As8 Sn1 2.656541 1_655
As8 K19 3.310213 1_555
As8 K15 3.409171 1_555
As8 K9 3.499992 1_555
As8 K4 3.501550 1_555
As8 K8 3.516446 1_655
As8 K23 3.543560 1_655
As9 Sn8 2.609485 1_556
As9 Sn0 2.656541 1_555
As9 K18 3.310213 1_555
As9 K14 3.409171 1_555
As9 K8 3.499992 1_555
As9 K5 3.501550 1_555
As9 K9 3.516446 1_555
As9 K22 3.543560 1_556
As10 Sn9 2.609485 1_555
As10 Sn3 2.656541 1_555
As10 K17 3.310213 1_555
As10 K13 3.409171 1_555
As10 K11 3.499992 1_555
As10 K6 3.501550 1_555
As10 K10 3.516446 1_555
As10 K23 3.543560 1_555
As11 Sn10 2.609485 1_555
As11 Sn2 2.656541 1_555
As11 K16 3.310213 1_555
As11 K12 3.409171 1_555
As11 K10 3.499992 1_655
As11 K7 3.501550 1_555
As11 K11 3.516446 1_555
As11 K22 3.543560 1_555
As12 Sn4 2.713491 1_554
As12 Sn6 2.713491 1_555
As12 K19 3.353809 1_554
As12 K12 3.353809 1_555
As12 K0 3.366191 1_544
As12 K7 3.366191 1_545
As12 K20 3.431224 1_655
As13 Sn11 2.713491 1_555
As13 Sn5 2.713491 1_555
As13 K18 3.353809 1_555
As13 K13 3.353809 1_555
As13 K1 3.366191 1_565
As13 K6 3.366191 1_565
As13 K21 3.431224 1_555
As14 Sn4 2.713491 1_554
As14 Sn6 2.713491 1_555
As14 K14 3.353809 1_554
As14 K17 3.353809 1_555
As14 K2 3.366191 1_545
As14 K5 3.366191 1_544
As14 K20 3.431224 1_555
As15 Sn11 2.713491 1_655
As15 Sn5 2.713491 1_655
As15 K15 3.353809 1_555
As15 K16 3.353809 1_555
As15 K3 3.366191 1_565
As15 K4 3.366191 1_565
As15 K21 3.431224 1_555
As16 Sn10 2.674097 1_455
As16 Sn8 2.674097 1_555
As16 K7 3.372332 1_455
As16 K5 3.372332 1_554
As16 K2 3.372332 1_555
As16 K0 3.372332 1_454
As16 K20 3.488305 1_565
As17 Sn9 2.674097 1_555
As17 Sn7 2.674097 1_555
As17 K6 3.372332 1_555
As17 K1 3.372332 1_555
As17 K3 3.372332 1_555
As17 K4 3.372332 1_555
As17 K21 3.488305 1_545
As18 Sn10 2.675893 1_455
As18 Sn8 2.675893 1_555
As18 K19 3.398304 1_454
As18 K12 3.398304 1_455
As18 K14 3.398304 1_554
As18 K17 3.398304 1_555
As18 K20 3.593852 1_555
As18 K8 3.722388 1_554
As18 K10 3.722388 1_555
As19 Sn7 2.675893 1_555
As19 Sn9 2.675893 1_555
As19 K15 3.398304 1_555
As19 K18 3.398304 1_555
As19 K16 3.398304 1_555
As19 K13 3.398304 1_555
As19 K21 3.593852 1_555
As19 K11 3.722388 1_555
As19 K9 3.722388 1_555
