# generated using pymatgen
data_V4Cu3S8
_symmetry_space_group_name_H-M   'P 1'
_cell_length_a   7.32773755
_cell_length_b   7.32773755
_cell_length_c   7.32773822
_cell_angle_alpha   54.02912913
_cell_angle_beta   54.02912913
_cell_angle_gamma   54.02913250
_symmetry_Int_Tables_number   1
_chemical_formula_structural   V4Cu3S8
_chemical_formula_sum   'V4 Cu3 S8'
_cell_volume   239.42579584
_cell_formula_units_Z   1
loop_
 _symmetry_equiv_pos_site_id
 _symmetry_equiv_pos_as_xyz
  1  'x, y, z'
loop_
 _atom_site_type_symbol
 _atom_site_label
 _atom_site_symmetry_multiplicity
 _atom_site_fract_x
 _atom_site_fract_y
 _atom_site_fract_z
 _atom_site_occupancy
  V  V0  1  0.99970100  0.99970100  0.99970100  1
  V  V1  1  0.47076300  0.47076300  0.05483100  1
  V  V2  1  0.47076300  0.05483100  0.47076300  1
  V  V3  1  0.05483100  0.47076300  0.47076300  1
  Cu  Cu0  1  0.66261000  0.66261000  0.10729900  1
  Cu  Cu1  1  0.10729900  0.66261000  0.66261000  1
  Cu  Cu2  1  0.66261000  0.10729900  0.66261000  1
  S  S0  1  0.76098700  0.26399800  0.76098700  1
  S  S1  1  0.26399800  0.76098700  0.76098700  1
  S  S2  1  0.75166000  0.24542900  0.24542900  1
  S  S3  1  0.24542900  0.75166000  0.24542900  1
  S  S4  1  0.76098700  0.76098700  0.26399800  1
  S  S5  1  0.72680000  0.72680000  0.72680000  1
  S  S6  1  0.24518100  0.24518100  0.24518100  1
  S  S7  1  0.24542900  0.24542900  0.75166000  1
loop_
_geom_bond_atom_site_label_1
_geom_bond_atom_site_label_2
_geom_bond_distance
_geom_bond_site_symmetry_2
Cu0 S4 2.216550 1_555
Cu0 S5 2.322742 1_554
Cu0 S3 2.364973 1_555
Cu0 S2 2.364973 1_555
Cu1 S1 2.216549 1_555
Cu1 S5 2.322742 1_455
Cu1 S7 2.364973 1_555
Cu1 S3 2.364974 1_555
Cu2 S0 2.216549 1_555
Cu2 S5 2.322742 1_545
Cu2 S7 2.364973 1_555
Cu2 S2 2.364974 1_555
S0 V0 2.346375 1_545
S0 V3 2.474369 1_655
S0 V1 2.474369 1_556
S1 V0 2.346375 1_455
S1 V2 2.474369 1_565
S1 V1 2.474369 1_556
S2 V2 2.364153 1_555
S2 V1 2.364153 1_555
S2 V0 2.430552 1_544
S3 V3 2.364153 1_555
S3 V1 2.364153 1_555
S3 V0 2.430552 1_454
S4 V0 2.346375 1_554
S4 V3 2.474369 1_655
S4 V2 2.474369 1_565
S5 V1 2.521372 1_556
S5 V3 2.521372 1_655
S5 V2 2.521372 1_565
S6 V1 2.281046 1_555
S6 V2 2.281046 1_555
S6 V3 2.281046 1_555
S7 V3 2.364153 1_555
S7 V2 2.364153 1_555
S7 V0 2.430551 1_445
