# generated using pymatgen
data_UNi3P2
_symmetry_space_group_name_H-M   'P 1'
_cell_length_a   3.76234266
_cell_length_b   10.44156886
_cell_length_c   12.37015592
_cell_angle_alpha   90.00000000
_cell_angle_beta   90.00000000
_cell_angle_gamma   90.00000000
_symmetry_Int_Tables_number   1
_chemical_formula_structural   UNi3P2
_chemical_formula_sum   'U6 Ni18 P12'
_cell_volume   485.95860598
_cell_formula_units_Z   6
loop_
 _symmetry_equiv_pos_site_id
 _symmetry_equiv_pos_as_xyz
  1  'x, y, z'
loop_
 _atom_site_type_symbol
 _atom_site_label
 _atom_site_symmetry_multiplicity
 _atom_site_fract_x
 _atom_site_fract_y
 _atom_site_fract_z
 _atom_site_occupancy
  U  U0  1  0.75098661  -0.00000000  0.48088282  1
  U  U1  1  0.25098661  0.50000000  0.51911718  1
  U  U2  1  0.25083926  0.68487639  0.79450644  1
  U  U3  1  0.25083926  0.31512361  0.79450644  1
  U  U4  1  0.75083926  0.81512361  0.20549356  1
  U  U5  1  0.75083926  0.18487639  0.20549356  1
  Ni  Ni0  1  0.74911141  -0.00000000  0.01369271  1
  Ni  Ni1  1  0.24911141  0.50000000  0.98630729  1
  Ni  Ni2  1  0.25488985  0.19483138  0.57389224  1
  Ni  Ni3  1  0.25488985  0.80516862  0.57389224  1
  Ni  Ni4  1  0.75488985  0.30516862  0.42610776  1
  Ni  Ni5  1  0.75488985  0.69483138  0.42610776  1
  Ni  Ni6  1  0.25433066  0.62151166  0.29039018  1
  Ni  Ni7  1  0.25433066  0.37848834  0.29039018  1
  Ni  Ni8  1  0.75433066  0.87848834  0.70960982  1
  Ni  Ni9  1  0.75433066  0.12151166  0.70960982  1
  Ni  Ni10  1  0.24911226  0.16701624  0.00313930  1
  Ni  Ni11  1  0.24911226  0.83298376  0.00313930  1
  Ni  Ni12  1  0.74911226  0.33298376  0.99686070  1
  Ni  Ni13  1  0.74911226  0.66701624  0.99686070  1
  Ni  Ni14  1  0.25158377  -0.00000000  0.84155691  1
  Ni  Ni15  1  0.75158377  0.50000000  0.15844309  1
  Ni  Ni16  1  0.25903802  -0.00000000  0.30209681  1
  Ni  Ni17  1  0.75903802  0.50000000  0.69790319  1
  P  P0  1  0.25163226  0.18964885  0.38942903  1
  P  P1  1  0.25163226  0.81035115  0.38942903  1
  P  P2  1  0.75163226  0.31035115  0.61057097  1
  P  P3  1  0.75163226  0.68964885  0.61057097  1
  P  P4  1  0.24956213  -0.00000000  0.12115267  1
  P  P5  1  0.74956213  0.50000000  0.87884733  1
  P  P6  1  0.24878327  0.65314445  0.10688282  1
  P  P7  1  0.24878327  0.34685555  0.10688282  1
  P  P8  1  0.74878327  0.84685555  0.89311718  1
  P  P9  1  0.74878327  0.15314445  0.89311718  1
  P  P10  1  0.25334494  -0.00000000  0.66041051  1
  P  P11  1  0.75334494  0.50000000  0.33958949  1
loop_
_geom_bond_atom_site_label_1
_geom_bond_atom_site_label_2
_geom_bond_distance
_geom_bond_site_symmetry_2
Ni0 P9 2.186711 1_554
Ni0 P8 2.186711 1_544
Ni0 P4 2.302055 1_555
Ni0 P4 2.304825 1_655
Ni0 U4 3.058716 1_545
Ni0 U5 3.058716 1_555
Ni1 P6 2.186711 1_556
Ni1 P7 2.186711 1_556
Ni1 P5 2.302055 1_455
Ni1 P5 2.304825 1_555
Ni1 U3 3.058716 1_555
Ni1 U2 3.058716 1_555
Ni2 P2 2.270164 1_555
Ni2 P0 2.282513 1_555
Ni2 P2 2.290386 1_455
Ni2 P10 2.298699 1_555
Ni2 U0 2.990999 1_555
Ni2 U3 3.004244 1_555
Ni2 U0 3.009415 1_455
Ni2 U1 3.257717 1_555
Ni3 P3 2.270164 1_555
Ni3 P1 2.282513 1_555
Ni3 P3 2.290386 1_455
Ni3 P10 2.298699 1_565
Ni3 U0 2.990999 1_565
Ni3 U2 3.004244 1_555
Ni3 U0 3.009415 1_465
Ni3 U1 3.257717 1_555
Ni4 P0 2.270164 1_655
Ni4 P2 2.282513 1_555
Ni4 P0 2.290386 1_555
Ni4 P11 2.298699 1_555
Ni4 U1 2.990999 1_655
Ni4 U5 3.004244 1_555
Ni4 U1 3.009415 1_555
Ni4 U0 3.257717 1_555
Ni5 P1 2.270164 1_655
Ni5 P3 2.282513 1_555
Ni5 P1 2.290386 1_555
Ni5 P11 2.298699 1_555
Ni5 U1 2.990999 1_655
Ni5 U4 3.004244 1_555
Ni5 U1 3.009415 1_555
Ni5 U0 3.257717 1_565
Ni6 P6 2.294013 1_555
Ni6 P1 2.321412 1_555
Ni6 P11 2.346284 1_555
Ni6 P11 2.352223 1_455
Ni6 U4 2.946076 1_555
Ni6 U4 2.962803 1_455
Ni6 U1 3.100868 1_555
Ni7 P7 2.294013 1_555
Ni7 P0 2.321412 1_555
Ni7 P11 2.346284 1_555
Ni7 P11 2.352223 1_455
Ni7 U5 2.946076 1_555
Ni7 U5 2.962803 1_455
Ni7 U1 3.100868 1_555
Ni8 P8 2.294013 1_555
Ni8 P3 2.321412 1_555
Ni8 P10 2.346284 1_665
Ni8 P10 2.352223 1_565
Ni8 U2 2.946076 1_655
Ni8 U2 2.962803 1_555
Ni8 U0 3.100868 1_565
Ni9 P9 2.294013 1_555
Ni9 P2 2.321412 1_555
Ni9 P10 2.346284 1_655
Ni9 P10 2.352223 1_555
Ni9 U3 2.946076 1_655
Ni9 U3 2.962803 1_555
Ni9 U0 3.100868 1_555
Ni10 P4 2.274285 1_555
Ni10 P7 2.274439 1_555
Ni10 P9 2.325387 1_554
Ni10 P9 2.327389 1_454
Ni10 U3 3.008697 1_554
Ni10 U5 3.132883 1_455
Ni10 U5 3.140677 1_555
Ni11 P4 2.274285 1_565
Ni11 P6 2.274439 1_555
Ni11 P8 2.325387 1_554
Ni11 P8 2.327389 1_454
Ni11 U2 3.008697 1_554
Ni11 U4 3.132883 1_455
Ni11 U4 3.140677 1_555
Ni12 P5 2.274285 1_555
Ni12 P9 2.274439 1_555
Ni12 P7 2.325387 1_656
Ni12 P7 2.327389 1_556
Ni12 U5 3.008697 1_556
Ni12 U3 3.132883 1_555
Ni12 U3 3.140677 1_655
Ni13 P5 2.274285 1_555
Ni13 P8 2.274439 1_555
Ni13 P6 2.325387 1_656
Ni13 P6 2.327389 1_556
Ni13 U4 3.008697 1_556
Ni13 U2 3.132883 1_555
Ni13 U2 3.140677 1_655
Ni14 P10 2.240819 1_555
Ni14 P8 2.542262 1_545
Ni14 P9 2.542262 1_555
Ni14 P9 2.557807 1_455
Ni14 P8 2.557807 1_445
Ni14 U3 3.341465 1_555
Ni14 U2 3.341465 1_545
Ni15 P11 2.240819 1_555
Ni15 P7 2.542262 1_655
Ni15 P6 2.542262 1_655
Ni15 P7 2.557807 1_555
Ni15 P6 2.557807 1_555
Ni15 U5 3.341465 1_555
Ni15 U4 3.341465 1_555
Ni16 P4 2.238591 1_555
Ni16 P0 2.255919 1_555
Ni16 P1 2.255919 1_545
Ni16 U0 2.883917 1_555
Ni16 U0 2.923169 1_455
Ni16 U5 2.928850 1_555
Ni16 U4 2.928850 1_545
Ni16 U4 2.968210 1_445
Ni16 U5 2.968210 1_455
Ni17 P5 2.238591 1_555
Ni17 P2 2.255919 1_555
Ni17 P3 2.255919 1_555
Ni17 U1 2.883917 1_655
Ni17 U1 2.923169 1_555
Ni17 U2 2.928850 1_655
Ni17 U3 2.928850 1_655
Ni17 U2 2.968210 1_555
Ni17 U3 2.968210 1_555
P0 U5 2.950781 1_555
P0 U5 2.954583 1_455
P0 U0 2.954797 1_555
P0 U0 2.957888 1_455
P1 U4 2.950781 1_555
P1 U4 2.954583 1_455
P1 U0 2.954797 1_565
P1 U0 2.957888 1_465
P2 U3 2.950781 1_655
P2 U3 2.954583 1_555
P2 U1 2.954797 1_655
P2 U1 2.957888 1_555
P3 U2 2.950781 1_655
P3 U2 2.954583 1_555
P3 U1 2.954797 1_655
P3 U1 2.957888 1_555
P4 U4 2.887159 1_445
P4 U5 2.887159 1_455
P4 U4 2.893414 1_545
P4 U5 2.893414 1_555
P5 U3 2.887159 1_555
P5 U2 2.887159 1_555
P5 U2 2.893414 1_655
P5 U3 2.893414 1_655
P6 U4 2.803266 1_455
P6 U4 2.813629 1_555
P7 U5 2.803266 1_455
P7 U5 2.813629 1_555
P8 U2 2.803266 1_555
P8 U2 2.813629 1_655
P9 U3 2.803266 1_555
P9 U3 2.813629 1_655
P10 U0 2.904719 1_555
P10 U0 2.916188 1_455
P11 U1 2.904719 1_655
P11 U1 2.916188 1_555
