# generated using pymatgen
data_Na2Zr4Si5Sn4S7O48
_symmetry_space_group_name_H-M   'P 1'
_cell_length_a   17.87062869
_cell_length_b   8.92815024
_cell_length_c   23.35332040
_cell_angle_alpha   89.99883242
_cell_angle_beta   90.51215996
_cell_angle_gamma   120.14140156
_symmetry_Int_Tables_number   1
_chemical_formula_structural   Na2Zr4Si5Sn4S7O48
_chemical_formula_sum   'Na6 Zr12 Si15 Sn12 S21 O144'
_cell_volume   3222.08409050
_cell_formula_units_Z   3
loop_
 _symmetry_equiv_pos_site_id
 _symmetry_equiv_pos_as_xyz
  1  'x, y, z'
loop_
 _atom_site_type_symbol
 _atom_site_label
 _atom_site_symmetry_multiplicity
 _atom_site_fract_x
 _atom_site_fract_y
 _atom_site_fract_z
 _atom_site_occupancy
  Na  Na0  1  0.99369691  0.99941204  0.49960002  1
  Na  Na1  1  0.49318318  0.99138939  0.99328577  1
  Na  Na2  1  0.34198291  0.35167931  0.83382468  1
  Na  Na3  1  0.83443876  0.34345069  0.82959313  1
  Na  Na4  1  0.33713789  0.32965062  0.33100502  1
  Na  Na5  1  0.83533833  0.33063073  0.33787018  1
  Zr  Zr0  1  0.00043739  0.98764442  0.35724232  1
  Zr  Zr1  1  0.49834109  0.99944869  0.85222404  1
  Zr  Zr2  1  0.00048529  0.99682067  0.64785533  1
  Zr  Zr3  1  0.49948215  0.00463238  0.14628978  1
  Zr  Zr4  1  0.83998202  0.34917547  0.68963953  1
  Zr  Zr5  1  0.34142888  0.33107997  0.18869634  1
  Zr  Zr6  1  0.34078069  0.35841119  0.97536062  1
  Zr  Zr7  1  0.84151518  0.32519231  0.97828267  1
  Zr  Zr8  1  0.34243939  0.35851992  0.48131200  1
  Zr  Zr9  1  0.83881112  0.32032999  0.47776963  1
  Zr  Zr10  1  0.16093952  0.67800814  0.30977432  1
  Zr  Zr11  1  0.65489654  0.64198457  0.80633480  1
  Si  Si0  1  0.14302130  0.00972806  0.24787729  1
  Si  Si1  1  0.50568079  0.29302769  0.25384981  1
  Si  Si2  1  0.64286436  0.27688437  0.74750182  1
  Si  Si3  1  0.00574332  0.71769594  0.75389892  1
  Si  Si4  1  0.49599010  0.70720867  0.74967700  1
  Si  Si5  1  0.97996845  0.33015772  0.58479389  1
  Si  Si6  1  0.33515553  0.63672518  0.58503048  1
  Si  Si7  1  0.48108454  0.62915120  0.08415814  1
  Si  Si8  1  0.83421927  0.03473479  0.08448813  1
  Si  Si9  1  0.30991718  0.67254372  0.91476158  1
  Si  Si10  1  0.02351570  0.37128648  0.91401864  1
  Si  Si11  1  0.52511408  0.37579927  0.91875699  1
  Si  Si12  1  0.80807360  0.94692593  0.41460653  1
  Si  Si13  1  0.02442371  0.66426465  0.41958915  1
  Si  Si14  1  0.52208074  0.67363003  0.41468807  1
  Sn  Sn0  1  0.49941612  0.00221623  0.35529883  1
  Sn  Sn1  1  0.99842230  0.99548646  0.85509274  1
  Sn  Sn2  1  0.50211767  0.99135917  0.64847758  1
  Sn  Sn3  1  0.00227682  0.00265797  0.14468116  1
  Sn  Sn4  1  0.33809853  0.35129722  0.68418741  1
  Sn  Sn5  1  0.83279575  0.32612971  0.18088887  1
  Sn  Sn6  1  0.16715240  0.65344197  0.01448839  1
  Sn  Sn7  1  0.66217575  0.66688969  0.02249462  1
  Sn  Sn8  1  0.16258743  0.66076886  0.52543122  1
  Sn  Sn9  1  0.66638159  0.68078331  0.51686034  1
  Sn  Sn10  1  0.65997826  0.66266087  0.31537862  1
  Sn  Sn11  1  0.16224490  0.65925306  0.81382768  1
  S  S0  1  0.64786626  0.00368214  0.25018628  1
  S  S1  1  0.35507078  0.71008290  0.25118142  1
  S  S2  1  0.85221928  0.70359015  0.24813223  1
  S  S3  1  0.99792848  0.28871169  0.24935624  1
  S  S4  1  0.14701321  0.29043887  0.75063650  1
  S  S5  1  0.35076114  0.00068323  0.74815041  1
  S  S6  1  0.85549489  -0.00049204  0.75136932  1
  S  S7  1  0.48280079  0.33474691  0.58325244  1
  S  S8  1  0.19127839  0.04704380  0.58364592  1
  S  S9  1  0.68744786  0.04142825  0.58318971  1
  S  S10  1  0.82825049  0.62153806  0.58115322  1
  S  S11  1  0.98218801  0.62758039  0.08294187  1
  S  S12  1  0.32770649  0.03427656  0.08130362  1
  S  S13  1  0.18762566  0.33519378  0.08372043  1
  S  S14  1  0.68961548  0.33631994  0.08238134  1
  S  S15  1  0.81154981  0.66894111  0.91753623  1
  S  S16  1  0.16537804  0.95438782  0.91725607  1
  S  S17  1  0.66718555  0.95607634  0.91635445  1
  S  S18  1  0.31145889  0.95461163  0.41753624  1
  S  S19  1  0.16775130  0.37950836  0.41615543  1
  S  S20  1  0.66586245  0.37727256  0.41724686  1
  O  O0  1  0.09599109  0.03230074  0.30380865  1
  O  O1  1  0.60986986  0.03315595  0.30215526  1
  O  O2  1  0.41009132  0.78616323  0.30324741  1
  O  O3  1  0.90750377  0.78112052  0.29983977  1
  O  O4  1  0.48407008  0.16574679  0.30959590  1
  O  O5  1  0.98240708  0.18203765  0.30038351  1
  O  O6  1  0.10787341  0.18454768  0.80250267  1
  O  O7  1  0.59867463  0.16465985  0.80450404  1
  O  O8  1  0.47811627  0.79146605  0.80562553  1
  O  O9  1  0.98427783  0.80190818  0.80944520  1
  O  O10  1  0.40598146  0.03754482  0.79981315  1
  O  O11  1  0.91213709  0.03767909  0.80315527  1
  O  O12  1  0.38898703  0.97339586  0.69632585  1
  O  O13  1  0.89826551  0.97786482  0.69985413  1
  O  O14  1  0.09232048  0.20778095  0.69876026  1
  O  O15  1  0.58252237  0.20309729  0.68951924  1
  O  O16  1  0.01433667  0.83256074  0.69693216  1
  O  O17  1  0.51272779  0.81482977  0.69117316  1
  O  O18  1  0.39605556  0.81761723  0.20007926  1
  O  O19  1  0.89115114  0.80875645  0.19657246  1
  O  O20  1  0.00999626  0.21223285  0.19699127  1
  O  O21  1  0.51448091  0.19569453  0.19726036  1
  O  O22  1  0.08109143  0.96390918  0.19088716  1
  O  O23  1  0.59447705  0.98012885  0.19853810  1
  O  O24  1  0.44392337  0.36732595  0.63474717  1
  O  O25  1  0.93046459  0.35401115  0.63876384  1
  O  O26  1  0.24371462  0.12546311  0.63683746  1
  O  O27  1  0.74152227  0.12269878  0.63421508  1
  O  O28  1  0.31115272  0.50205481  0.63869205  1
  O  O29  1  0.81719696  0.52016645  0.63348740  1
  O  O30  1  0.43150970  0.50711988  0.13922779  1
  O  O31  1  0.94391712  0.51984233  0.13608599  1
  O  O32  1  0.31695093  0.11385516  0.13409719  1
  O  O33  1  0.81376966  0.11755321  0.14175353  1
  O  O34  1  0.24068462  0.36015907  0.13534087  1
  O  O35  1  0.74161950  0.36425573  0.13707542  1
  O  O36  1  0.22503778  0.30491718  0.03217897  1
  O  O37  1  0.73081576  0.30757559  0.03290829  1
  O  O38  1  0.41831142  0.54071515  0.02830070  1
  O  O39  1  0.92512928  0.54375965  0.03285039  1
  O  O40  1  0.34230886  0.14228187  0.03086028  1
  O  O41  1  0.85092019  0.16626250  0.03077697  1
  O  O42  1  0.23116176  0.15436490  0.53244621  1
  O  O43  1  0.72770895  0.14596843  0.53105375  1
  O  O44  1  0.35052592  0.53863663  0.52963028  1
  O  O45  1  0.84234404  0.54218060  0.53019143  1
  O  O46  1  0.42607027  0.30705678  0.53190436  1
  O  O47  1  0.91920715  0.29681421  0.52739512  1
  O  O48  1  0.27321036  0.70990458  0.97455565  1
  O  O49  1  0.77418442  0.69808032  0.96979011  1
  O  O50  1  0.07511670  0.44985348  0.97482902  1
  O  O51  1  0.58568137  0.46380621  0.97588729  1
  O  O52  1  0.14927579  0.84655217  0.96975322  1
  O  O53  1  0.65674218  0.85723826  0.96972235  1
  O  O54  1  0.27292070  0.84886480  0.46865476  1
  O  O55  1  0.77198053  0.83370749  0.47334060  1
  O  O56  1  0.15599900  0.45795123  0.46815795  1
  O  O57  1  0.65057588  0.45410523  0.46906018  1
  O  O58  1  0.08785418  0.70562993  0.47443741  1
  O  O59  1  0.57671015  0.70058682  0.47381440  1
  O  O60  1  0.06729663  0.63468702  0.36193748  1
  O  O61  1  0.55879189  0.62887266  0.35820907  1
  O  O62  1  0.25846713  0.87192714  0.36482067  1
  O  O63  1  0.75161308  0.86247866  0.35610233  1
  O  O64  1  0.18161613  0.48339871  0.36434319  1
  O  O65  1  0.68256976  0.48348007  0.36509034  1
  O  O66  1  0.06108519  0.49278056  0.85855732  1
  O  O67  1  0.56664245  0.49811149  0.86327499  1
  O  O68  1  0.18193598  0.88054891  0.86574693  1
  O  O69  1  0.68357164  0.88267775  0.86587149  1
  O  O70  1  0.25070169  0.63997888  0.85753339  1
  O  O71  1  0.76001261  0.64404790  0.86579255  1
  O  O72  1  0.01504937  0.83711519  0.41260758  1
  O  O73  1  0.51077980  0.84281162  0.40559922  1
  O  O74  1  0.39822761  0.97385085  0.41039914  1
  O  O75  1  0.90606555  0.98027039  0.40728006  1
  O  O76  1  0.08858584  0.20618814  0.41041066  1
  O  O77  1  0.58746784  0.20424270  0.40991801  1
  O  O78  1  0.01108169  0.17897897  0.90569049  1
  O  O79  1  0.51399382  0.18482858  0.91297130  1
  O  O80  1  0.08735096  0.97081476  0.91003976  1
  O  O81  1  0.58959328  0.97355623  0.91208935  1
  O  O82  1  0.40660238  0.83644170  0.91124147  1
  O  O83  1  0.90004420  0.82349677  0.91178878  1
  O  O84  1  0.48898970  0.17897340  0.58972599  1
  O  O85  1  0.98987429  0.15767989  0.59114948  1
  O  O86  1  0.10391946  0.02900088  0.58991985  1
  O  O87  1  0.60095575  0.02235658  0.58758207  1
  O  O88  1  0.41971849  0.82597809  0.59256807  1
  O  O89  1  0.90659100  0.79802146  0.58854950  1
  O  O90  1  0.49021749  0.82051163  0.09304930  1
  O  O91  1  0.98816642  0.79708641  0.08980694  1
  O  O92  1  0.40579805  0.01460812  0.08952776  1
  O  O93  1  0.92122101  0.02227982  0.09494892  1
  O  O94  1  0.09927681  0.18121574  0.09016741  1
  O  O95  1  0.60302546  0.17863360  0.08970915  1
  O  O96  1  0.34040033  0.15823814  0.74062391  1
  O  O97  1  0.84675175  0.15500495  0.74400519  1
  O  O98  1  0.23231429  0.29991991  0.74400657  1
  O  O99  1  0.73847763  0.29745721  0.73995733  1
  O  O100  1  0.41075673  0.50651163  0.74630831  1
  O  O101  1  0.91899567  0.52624422  0.74654896  1
  O  O102  1  0.34494496  0.53659222  0.24406299  1
  O  O103  1  0.84495252  0.52498593  0.24142124  1
  O  O104  1  0.41909792  0.31130638  0.24666966  1
  O  O105  1  0.92016748  0.31434339  0.24335685  1
  O  O106  1  0.23854070  0.17666098  0.24076734  1
  O  O107  1  0.73601636  0.16671713  0.24450221  1
  O  O108  1  0.31225163  0.49084142  0.92010731  1
  O  O109  1  0.82095946  0.51228437  0.92557725  1
  O  O110  1  0.42734498  0.35153239  0.92477139  1
  O  O111  1  0.92686269  0.35253853  0.92159879  1
  O  O112  1  0.24174747  0.12707213  0.92580844  1
  O  O113  1  0.74396412  0.13617065  0.92430061  1
  O  O114  1  0.31920294  0.12760720  0.42314895  1
  O  O115  1  0.81317835  0.13531659  0.41969158  1
  O  O116  1  0.24325114  0.35209958  0.42300626  1
  O  O117  1  0.74214352  0.35667098  0.42475366  1
  O  O118  1  0.42538297  0.49909385  0.42155939  1
  O  O119  1  0.92623379  0.49973888  0.42344156  1
  O  O120  1  0.17826308  0.49273227  0.07814935  1
  O  O121  1  0.68141536  0.48974084  0.07723424  1
  O  O122  1  0.06866677  0.64725397  0.07522485  1
  O  O123  1  0.57439822  0.64713463  0.07714571  1
  O  O124  1  0.24915887  0.85978634  0.07555419  1
  O  O125  1  0.75307812  0.84681079  0.07107815  1
  O  O126  1  0.18207750  0.87556975  0.57770193  1
  O  O127  1  0.67953549  0.86566982  0.57764301  1
  O  O128  1  0.25156509  0.65428115  0.57087407  1
  O  O129  1  0.74984013  0.63853100  0.57484100  1
  O  O130  1  0.07252558  0.50107007  0.57689057  1
  O  O131  1  0.56932281  0.49150734  0.57442108  1
  O  O132  1  0.15379742  0.83898038  0.25780852  1
  O  O133  1  0.65729282  0.85062650  0.25527057  1
  O  O134  1  0.26987643  0.69373145  0.25923437  1
  O  O135  1  0.76688763  0.68352524  0.25660142  1
  O  O136  1  0.07641344  0.45999646  0.25657590  1
  O  O137  1  0.59305456  0.48034423  0.25941979  1
  O  O138  1  0.15674054  0.46297421  0.75520723  1
  O  O139  1  0.65814672  0.47089188  0.75664454  1
  O  O140  1  0.09256950  0.70499793  0.75922853  1
  O  O141  1  0.58241852  0.69336374  0.75742752  1
  O  O142  1  0.26501300  0.84697026  0.75701752  1
  O  O143  1  0.77253911  0.84665194  0.75887859  1
loop_
_geom_bond_atom_site_label_1
_geom_bond_atom_site_label_2
_geom_bond_distance
_geom_bond_site_symmetry_2
Na0 O85 2.583021 1_565
Na0 O75 2.607828 1_555
Na0 O72 2.634718 1_655
Na0 O89 2.686618 1_555
Na0 O76 2.746106 1_665
Na0 O86 2.793182 1_665
Na1 O82 2.403406 1_555
Na1 O79 2.450763 1_565
Na1 O81 2.631211 1_555
Na1 O90 2.771138 1_556
Na1 O92 2.814445 1_566
Na1 O95 2.888615 1_566
Na2 O100 2.436622 1_555
Na2 O108 2.562884 1_555
Na2 O110 2.604255 1_555
Na2 O98 2.733363 1_555
Na2 O96 2.769645 1_555
Na2 O112 2.881947 1_555
Na3 O101 2.506703 1_555
Na3 O99 2.592294 1_555
Na3 O111 2.674552 1_555
Na3 O97 2.693320 1_555
Na3 O109 2.780140 1_555
Na3 O113 2.826583 1_555
Na4 O104 2.518644 1_555
Na4 O118 2.606202 1_555
Na4 O106 2.632107 1_555
Na4 O102 2.702150 1_555
Na4 O114 2.723741 1_555
Na4 O116 2.805996 1_555
Na5 O115 2.483683 1_555
Na5 O119 2.527990 1_555
Na5 O107 2.714551 1_555
Na5 O117 2.719187 1_555
Na5 O105 2.733532 1_555
Na5 O103 2.796645 1_555
O0 Si0 1.625682 1_555
O0 Zr0 1.996587 1_545
O1 S0 1.482379 1_555
O1 Sn0 2.238074 1_555
O2 S1 1.488135 1_555
O2 Sn0 2.149350 1_565
O3 S2 1.485024 1_555
O3 Zr0 2.200015 1_655
O4 Si1 1.644241 1_555
O4 Sn0 1.934648 1_555
O5 S3 1.464449 1_555
O5 Zr0 2.330894 1_645
O6 S4 1.483631 1_555
O6 Sn1 2.215972 1_445
O7 Si2 1.619792 1_555
O7 Zr1 2.003041 1_545
O8 Si4 1.619846 1_555
O8 Zr1 2.020396 1_555
O9 Si3 1.641258 1_655
O9 Sn1 1.934898 1_555
O10 S5 1.479979 1_555
O10 Zr1 2.205827 1_545
O11 S6 1.495003 1_555
O11 Sn1 2.130874 1_545
O12 S5 1.474009 1_565
O12 Sn2 2.253093 1_555
O13 S6 1.494543 1_565
O13 Zr2 2.137614 1_655
O14 S4 1.490669 1_555
O14 Zr2 2.124868 1_545
O15 Si2 1.640390 1_555
O15 Sn2 1.950519 1_545
O16 Si3 1.640304 1_555
O16 Zr2 1.971038 1_555
O17 Si4 1.611831 1_555
O17 Sn2 1.952135 1_555
O18 S1 1.480475 1_555
O18 Zr3 2.173519 1_565
O19 S2 1.474578 1_555
O19 Sn3 2.235978 1_665
O20 S3 1.469984 1_455
O20 Sn3 2.179519 1_555
O21 Si1 1.633221 1_555
O21 Zr3 1.983380 1_555
O22 Si0 1.637841 1_565
O22 Sn3 1.931322 1_565
O23 S0 1.478947 1_565
O23 Zr3 2.180487 1_565
O24 S7 1.493782 1_555
O24 Sn4 2.167320 1_555
O25 Si5 1.620399 1_555
O25 Zr4 1.998085 1_555
O26 S8 1.493886 1_555
O26 Sn4 2.164359 1_555
O27 S9 1.468171 1_555
O27 Zr4 2.290466 1_555
O28 Si6 1.640642 1_555
O28 Sn4 1.952973 1_555
O29 S10 1.475330 1_555
O29 Zr4 2.197877 1_555
O30 Si7 1.636099 1_555
O30 Zr5 1.971946 1_555
O31 S11 1.512536 1_555
O31 Sn5 2.148786 1_555
O32 S12 1.484322 1_555
O32 Zr5 2.171779 1_555
O33 Si8 1.657983 1_555
O33 Sn5 1.943537 1_555
O34 S13 1.472867 1_555
O34 Zr5 2.300128 1_555
O35 S14 1.517684 1_555
O35 Sn5 2.084427 1_555
O36 S13 1.471316 1_555
O36 Zr6 2.307375 1_554
O37 S14 1.465537 1_555
O37 Zr7 2.301803 1_554
O38 Si7 1.633345 1_555
O38 Zr6 1.949892 1_554
O39 S11 1.476681 1_555
O39 Zr7 2.168501 1_554
O40 S12 1.462333 1_555
O40 Zr6 2.335873 1_554
O41 Si8 1.641970 1_555
O41 Zr7 1.944296 1_554
O42 S8 1.478209 1_555
O42 Zr8 2.259441 1_555
O43 S9 1.487428 1_555
O43 Zr9 2.203172 1_555
O44 Si6 1.662596 1_555
O44 Zr8 1.908912 1_555
O45 S10 1.471881 1_555
O45 Zr9 2.301971 1_555
O46 S7 1.501152 1_555
O46 Zr8 2.121022 1_555
O47 Si5 1.647377 1_555
O47 Zr9 1.929901 1_555
O48 Si9 1.651548 1_555
O48 Sn6 1.946303 1_556
O49 S15 1.480453 1_555
O49 Sn7 2.254635 1_556
O50 Si10 1.638952 1_555
O50 Sn6 1.958918 1_556
O51 Si11 1.639846 1_555
O51 Sn7 1.955821 1_556
O52 S16 1.496930 1_555
O52 Sn6 2.170985 1_556
O53 S17 1.485113 1_555
O53 Sn7 2.140076 1_556
O54 S18 1.467127 1_555
O54 Sn8 2.277556 1_555
O55 Si12 1.637125 1_555
O55 Sn9 1.976097 1_555
O56 S19 1.470290 1_555
O56 Sn8 2.205662 1_555
O57 S20 1.484405 1_555
O57 Sn9 2.200476 1_555
O58 Si13 1.617290 1_555
O58 Sn8 1.967484 1_555
O59 Si14 1.630202 1_555
O59 Sn9 1.966091 1_555
O60 Si13 1.640448 1_555
O60 Zr10 1.954592 1_555
O61 Si14 1.615098 1_555
O61 Sn10 1.961068 1_555
O62 S18 1.494809 1_555
O62 Zr10 2.148800 1_555
O63 Si12 1.632362 1_555
O63 Sn10 1.951176 1_555
O64 S19 1.469802 1_555
O64 Zr10 2.327166 1_555
O65 S20 1.481222 1_555
O65 Sn10 2.170284 1_555
O66 Si10 1.609051 1_555
O66 Sn11 1.975763 1_555
O67 Si11 1.620287 1_555
O67 Zr11 1.976995 1_555
O68 S16 1.473585 1_555
O68 Sn11 2.189026 1_555
O69 S17 1.450522 1_555
O69 Zr11 2.386459 1_555
O70 Si9 1.629801 1_555
O70 Sn11 1.953096 1_555
O71 S15 1.460269 1_555
O71 Zr11 2.318559 1_555
O72 Si13 1.641755 1_555
O72 Zr0 1.972933 1_555
O73 Si14 1.634918 1_555
O73 Sn0 1.931967 1_565
O74 S18 1.482840 1_555
O74 Sn0 2.138121 1_565
O75 Si12 1.632887 1_555
O75 Zr0 2.034155 1_655
O76 S19 1.487304 1_555
O76 Zr0 2.169950 1_545
O77 S20 1.483485 1_555
O77 Sn0 2.114309 1_555
O78 Si10 1.628256 1_555
O78 Sn1 1.937620 1_445
O79 Si11 1.619900 1_555
O79 Zr1 2.087635 1_545
O80 S16 1.481694 1_555
O80 Sn1 2.129739 1_455
O81 S17 1.473721 1_555
O81 Zr1 2.237210 1_555
O82 Si9 1.611459 1_555
O82 Zr1 2.085553 1_555
O83 S15 1.495106 1_555
O83 Sn1 2.128901 1_555
O84 S7 1.457222 1_555
O84 Sn2 2.265422 1_545
O85 Si5 1.642550 1_555
O85 Zr2 2.030069 1_645
O86 S8 1.495380 1_555
O86 Zr2 2.200268 1_545
O87 S9 1.472117 1_555
O87 Sn2 2.184670 1_545
O88 Si6 1.612645 1_555
O88 Sn2 1.958435 1_555
O89 S10 1.500964 1_555
O89 Zr2 2.202643 1_655
O90 Si7 1.645624 1_555
O90 Zr3 1.999664 1_565
O91 S11 1.471309 1_555
O91 Sn3 2.145680 1_665
O92 S12 1.502194 1_555
O92 Zr3 2.162890 1_555
O93 Si8 1.629789 1_555
O93 Sn3 1.924198 1_655
O94 S13 1.493253 1_555
O94 Sn3 2.105026 1_555
O95 S14 1.490876 1_555
O95 Zr3 2.177160 1_555
O96 S5 1.518183 1_555
O96 Sn4 2.186301 1_555
O97 S6 1.482808 1_555
O97 Zr4 2.199924 1_555
O98 S4 1.493156 1_555
O98 Sn4 2.216306 1_555
O99 Si2 1.635398 1_555
O99 Zr4 2.020239 1_555
O100 Si4 1.671492 1_555
O100 Sn4 1.967313 1_555
O101 Si3 1.639675 1_655
O101 Zr4 1.996018 1_555
O102 S1 1.475674 1_555
O102 Zr5 2.219301 1_555
O103 S2 1.541388 1_555
O103 Sn5 2.192012 1_555
O104 Si1 1.642500 1_555
O104 Zr5 2.000785 1_555
O105 S3 1.522819 1_555
O105 Sn5 2.168290 1_555
O106 Si0 1.616408 1_555
O106 Zr5 2.062607 1_555
O107 S0 1.522790 1_555
O107 Sn5 2.190346 1_555
O108 Si9 1.648313 1_555
O108 Zr6 1.979003 1_555
O109 S15 1.501798 1_555
O109 Zr7 2.246814 1_555
O110 Si11 1.656377 1_555
O110 Zr6 1.980078 1_555
O111 Si10 1.660681 1_655
O111 Zr7 1.949443 1_555
O112 S16 1.470204 1_545
O112 Zr6 2.242716 1_555
O113 S17 1.510718 1_545
O113 Zr7 2.117218 1_555
O114 S18 1.485574 1_545
O114 Zr8 2.323357 1_555
O115 Si12 1.642316 1_545
O115 Zr9 2.001762 1_555
O116 S19 1.494530 1_555
O116 Zr8 2.203202 1_555
O117 S20 1.473224 1_555
O117 Zr9 2.268722 1_555
O118 Si14 1.655539 1_555
O118 Zr8 1.971827 1_555
O119 Si13 1.630677 1_655
O119 Zr9 2.034306 1_555
O120 S13 1.503058 1_555
O120 Sn6 2.142242 1_555
O121 S14 1.453768 1_555
O121 Sn7 2.189080 1_555
O122 S11 1.477853 1_455
O122 Sn6 2.249329 1_555
O123 Si7 1.602933 1_555
O123 Sn7 1.969409 1_555
O124 S12 1.488583 1_565
O124 Sn6 2.196989 1_555
O125 Si8 1.601364 1_565
O125 Sn7 1.962932 1_555
O126 S8 1.461814 1_565
O126 Sn8 2.147312 1_555
O127 S9 1.508643 1_565
O127 Sn9 2.097477 1_555
O128 Si6 1.609862 1_555
O128 Sn8 1.928805 1_555
O129 S10 1.489306 1_555
O129 Sn9 2.174646 1_555
O130 Si5 1.602847 1_455
O130 Sn8 1.948697 1_555
O131 S7 1.491481 1_555
O131 Sn9 2.183835 1_555
O132 Si0 1.645865 1_565
O132 Zr10 1.932855 1_555
O133 S0 1.463088 1_565
O133 Sn10 2.206497 1_555
O134 S1 1.468509 1_555
O134 Zr10 2.229191 1_555
O135 S2 1.458652 1_555
O135 Sn10 2.293133 1_555
O136 S3 1.475125 1_455
O136 Zr10 2.151192 1_555
O137 Si1 1.620422 1_555
O137 Sn10 1.950588 1_555
O138 S4 1.464672 1_555
O138 Sn11 2.186160 1_555
O139 Si2 1.626143 1_555
O139 Zr11 1.942612 1_555
O140 Si3 1.615281 1_555
O140 Sn11 1.955837 1_555
O141 Si4 1.618749 1_555
O141 Zr11 1.939783 1_555
O142 S5 1.472463 1_565
O142 Sn11 2.212287 1_555
O143 S6 1.436585 1_565
O143 Zr11 2.273911 1_555
