# generated using pymatgen
data_Ba2MgCuWO6
_symmetry_space_group_name_H-M   'P 1'
_cell_length_a   5.86872267
_cell_length_b   5.88629170
_cell_length_c   6.67247380
_cell_angle_alpha   112.71447582
_cell_angle_beta   112.62252733
_cell_angle_gamma   97.17774892
_symmetry_Int_Tables_number   1
_chemical_formula_structural   Ba2MgCuWO6
_chemical_formula_sum   'Ba2 Mg1 Cu1 W1 O6'
_cell_volume   185.86493177
_cell_formula_units_Z   1
loop_
 _symmetry_equiv_pos_site_id
 _symmetry_equiv_pos_as_xyz
  1  'x, y, z'
loop_
 _atom_site_type_symbol
 _atom_site_label
 _atom_site_symmetry_multiplicity
 _atom_site_fract_x
 _atom_site_fract_y
 _atom_site_fract_z
 _atom_site_occupancy
  Ba  Ba0  1  0.17759411  0.67760272  0.35523120  1
  Ba  Ba1  1  0.82236291  0.32237152  0.64476880  1
  Mg  Mg0  1  0.49998405  -0.00000937  0.00000000  1
  Cu  Cu0  1  0.00005542  0.00006274  -0.00000000  1
  W  W0  1  0.50000056  0.49999988  1.00000000  1
  O  O0  1  0.73784839  0.78443314  0.00000000  1
  O  O1  1  0.25815923  0.72235171  0.00000000  1
  O  O2  1  0.74180827  0.27761634  1.00000000  1
  O  O3  1  0.26222452  0.21560991  1.00000000  1
  O  O4  1  0.31910722  0.31910617  0.63825191  1
  O  O5  1  0.68085631  0.68085526  0.36174809  1
loop_
_geom_bond_atom_site_label_1
_geom_bond_atom_site_label_2
_geom_bond_distance
_geom_bond_site_symmetry_2
Ba0 O2 2.687796 1_454
Ba0 O1 2.687812 1_555
Ba0 O5 2.934548 1_455
Ba0 O5 2.934601 1_555
Ba0 O0 3.086185 1_455
Ba0 O3 3.086326 1_554
Ba0 O4 3.319250 1_565
Ba0 O4 3.319325 1_555
Ba1 O2 2.687797 1_555
Ba1 O1 2.687812 1_656
Ba1 O4 2.934553 1_555
Ba1 O4 2.934595 1_655
Ba1 O0 3.086186 1_556
Ba1 O3 3.086326 1_655
Ba1 O5 3.319254 1_555
Ba1 O5 3.319321 1_545
Mg0 O3 2.000102 1_554
Mg0 O0 2.000318 1_545
Mg0 O2 2.026110 1_554
Mg0 O1 2.026168 1_545
Cu0 O3 1.867951 1_554
Cu0 O0 1.868395 1_445
Cu0 O2 2.363245 1_454
Cu0 O1 2.363348 1_545
O0 W0 2.041459 1_554
O1 W0 2.047353 1_554
O2 W0 2.047336 1_555
O3 W0 2.041027 1_555
O4 W0 1.961712 1_555
O5 W0 1.961712 1_554
