# generated using pymatgen
data_ZrBr2
_symmetry_space_group_name_H-M   'P 1'
_cell_length_a   8.49999463
_cell_length_b   8.49999244
_cell_length_c   8.50000734
_cell_angle_alpha   106.96906815
_cell_angle_beta   106.96911760
_cell_angle_gamma   106.96912355
_symmetry_Int_Tables_number   1
_chemical_formula_structural   ZrBr2
_chemical_formula_sum   'Zr6 Br12'
_cell_volume   511.87929605
_cell_formula_units_Z   6
loop_
 _symmetry_equiv_pos_site_id
 _symmetry_equiv_pos_as_xyz
  1  'x, y, z'
loop_
 _atom_site_type_symbol
 _atom_site_label
 _atom_site_symmetry_multiplicity
 _atom_site_fract_x
 _atom_site_fract_y
 _atom_site_fract_z
 _atom_site_occupancy
  Zr  Zr0  1  0.96651703  0.90083983  0.71009682  1
  Zr  Zr1  1  0.90084083  0.71009882  0.96651703  1
  Zr  Zr2  1  0.71009782  0.96651703  0.90083983  1
  Zr  Zr3  1  0.03348297  0.09916017  0.28990318  1
  Zr  Zr4  1  0.09915917  0.28990118  0.03348297  1
  Zr  Zr5  1  0.28990218  0.03348297  0.09916017  1
  Br  Br0  1  0.62614343  0.85462087  0.54847644  1
  Br  Br1  1  0.85462087  0.54847644  0.62614343  1
  Br  Br2  1  0.54847644  0.62614343  0.85462087  1
  Br  Br3  1  0.37385657  0.14537913  0.45152356  1
  Br  Br4  1  0.14537913  0.45152356  0.37385657  1
  Br  Br5  1  0.45152356  0.37385657  0.14537913  1
  Br  Br6  1  0.31230193  0.92208239  0.77386556  1
  Br  Br7  1  0.77386456  0.31230193  0.92208239  1
  Br  Br8  1  0.92208239  0.77386556  0.31230193  1
  Br  Br9  1  0.68769807  0.07791761  0.22613444  1
  Br  Br10  1  0.22613544  0.68769807  0.07791761  1
  Br  Br11  1  0.07791761  0.22613444  0.68769807  1
loop_
_geom_bond_atom_site_label_1
_geom_bond_atom_site_label_2
_geom_bond_distance
_geom_bond_site_symmetry_2
Br0 Zr2 2.660425 1_555
Br0 Zr0 2.667126 1_555
Br1 Zr0 2.660421 1_555
Br1 Zr1 2.667130 1_555
Br2 Zr1 2.660427 1_555
Br2 Zr2 2.667126 1_555
Br3 Zr5 2.660425 1_555
Br3 Zr3 2.667126 1_555
Br4 Zr3 2.660421 1_555
Br4 Zr4 2.667130 1_555
Br5 Zr4 2.660427 1_555
Br5 Zr5 2.667126 1_555
Br6 Zr5 2.731740 1_566
Br6 Zr0 2.769167 1_455
Br6 Zr2 3.102722 1_555
Br7 Zr4 2.731739 1_656
Br7 Zr2 2.769169 1_545
Br7 Zr1 3.102730 1_555
Br8 Zr3 2.731731 1_665
Br8 Zr1 2.769177 1_554
Br8 Zr0 3.102720 1_555
Br9 Zr2 2.731740 1_544
Br9 Zr3 2.769167 1_655
Br9 Zr5 3.102722 1_555
Br10 Zr1 2.731739 1_454
Br10 Zr5 2.769169 1_565
Br10 Zr4 3.102730 1_555
Br11 Zr0 2.731731 1_445
Br11 Zr4 2.769177 1_556
Br11 Zr3 3.102720 1_555
