# generated using pymatgen
data_DyCuPb
_symmetry_space_group_name_H-M   'P 1'
_cell_length_a   4.56803666
_cell_length_b   4.56803666
_cell_length_c   7.37203942
_cell_angle_alpha   90.00000000
_cell_angle_beta   90.00000000
_cell_angle_gamma   119.99998400
_symmetry_Int_Tables_number   1
_chemical_formula_structural   DyCuPb
_chemical_formula_sum   'Dy2 Cu2 Pb2'
_cell_volume   133.22247904
_cell_formula_units_Z   2
loop_
 _symmetry_equiv_pos_site_id
 _symmetry_equiv_pos_as_xyz
  1  'x, y, z'
loop_
 _atom_site_type_symbol
 _atom_site_label
 _atom_site_symmetry_multiplicity
 _atom_site_fract_x
 _atom_site_fract_y
 _atom_site_fract_z
 _atom_site_occupancy
  Dy  Dy0  1  0.00000000  -0.00000000  0.99449392  1
  Dy  Dy1  1  -0.00000000  -0.00000000  0.49449392  1
  Cu  Cu0  1  0.33333300  0.66666700  0.82453057  1
  Cu  Cu1  1  0.66666700  0.33333300  0.32453057  1
  Pb  Pb0  1  0.66666700  0.33333300  0.72407551  1
  Pb  Pb1  1  0.33333300  0.66666700  0.22407551  1
loop_
_geom_bond_atom_site_label_1
_geom_bond_atom_site_label_2
_geom_bond_distance
_geom_bond_site_symmetry_2
Dy0 Pb1 3.133711 1_546
Dy0 Pb1 3.133714 1_556
Dy0 Pb1 3.133714 1_446
Dy0 Pb0 3.306028 1_455
Dy0 Pb0 3.306032 1_555
Dy0 Pb0 3.306032 1_445
Dy1 Pb0 3.133711 1_455
Dy1 Pb0 3.133714 1_555
Dy1 Pb0 3.133714 1_445
Dy1 Pb1 3.306028 1_545
Dy1 Pb1 3.306032 1_445
Dy1 Pb1 3.306032 1_555
Cu0 Pb0 2.739355 1_455
Cu0 Pb0 2.739355 1_565
Cu0 Pb0 2.739362 1_555
Cu0 Dy0 2.919861 1_565
Cu0 Dy0 2.919865 1_665
Cu0 Dy0 2.919865 1_555
Cu0 Pb1 2.945461 1_556
Cu1 Pb1 2.739355 1_655
Cu1 Pb1 2.739355 1_545
Cu1 Pb1 2.739362 1_555
Cu1 Dy1 2.919861 1_655
Cu1 Dy1 2.919865 1_555
Cu1 Dy1 2.919865 1_665
Cu1 Pb0 2.945461 1_555
