# generated using pymatgen
data_CaVO3
_symmetry_space_group_name_H-M   'P 1'
_cell_length_a   5.31108468
_cell_length_b   5.35410723
_cell_length_c   7.55177219
_cell_angle_alpha   90.05243750
_cell_angle_beta   90.00000000
_cell_angle_gamma   90.00000000
_symmetry_Int_Tables_number   1
_chemical_formula_structural   CaVO3
_chemical_formula_sum   'Ca4 V4 O12'
_cell_volume   214.74298675
_cell_formula_units_Z   4
loop_
 _symmetry_equiv_pos_site_id
 _symmetry_equiv_pos_as_xyz
  1  'x, y, z'
loop_
 _atom_site_type_symbol
 _atom_site_label
 _atom_site_symmetry_multiplicity
 _atom_site_fract_x
 _atom_site_fract_y
 _atom_site_fract_z
 _atom_site_occupancy
  Ca  Ca0  1  0.99448591  0.03464724  0.74978708  1
  Ca  Ca1  1  0.49448591  0.46535276  0.25021292  1
  Ca  Ca2  1  0.50551409  0.53464724  0.74978708  1
  Ca  Ca3  1  0.00551409  0.96535276  0.25021292  1
  V  V0  1  0.50000000  0.00000000  0.50000000  1
  V  V1  1  -0.00000000  0.50000000  0.50000000  1
  V  V2  1  -0.00000000  0.50000000  -0.00000000  1
  V  V3  1  0.50000000  0.00000000  -0.00000000  1
  O  O0  1  0.93678797  0.51165966  0.25017256  1
  O  O1  1  0.43678797  0.98834034  0.74982744  1
  O  O2  1  0.56321203  0.01165966  0.25017256  1
  O  O3  1  0.06321203  0.48834034  0.74982744  1
  O  O4  1  0.71454028  0.28743109  0.96732967  1
  O  O5  1  0.21454028  0.21256891  0.03267033  1
  O  O6  1  0.78794825  0.78502267  0.53279492  1
  O  O7  1  0.28794825  0.71497733  0.46720508  1
  O  O8  1  0.71205175  0.28502267  0.53279492  1
  O  O9  1  0.21205175  0.21497733  0.46720508  1
  O  O10  1  0.28545972  0.71256891  0.03267033  1
  O  O11  1  0.78545972  0.78743109  0.96732967  1
loop_
_geom_bond_atom_site_label_1
_geom_bond_atom_site_label_2
_geom_bond_distance
_geom_bond_site_symmetry_2
Ca0 O1 2.362151 1_645
Ca0 O6 2.381344 1_545
Ca0 O11 2.384806 1_545
Ca0 O3 2.456392 1_655
Ca0 O8 2.595460 1_555
Ca0 O4 2.595616 1_555
Ca0 O9 2.612492 1_655
Ca0 O5 2.614061 1_656
Ca1 O0 2.362151 1_555
Ca1 O7 2.381344 1_555
Ca1 O10 2.384806 1_555
Ca1 O2 2.456392 1_555
Ca1 O9 2.595460 1_555
Ca1 O5 2.595616 1_555
Ca1 O8 2.612492 1_555
Ca1 O4 2.614061 1_554
Ca2 O3 2.362151 1_555
Ca2 O8 2.381344 1_555
Ca2 O4 2.384806 1_555
Ca2 O1 2.456392 1_555
Ca2 O6 2.595460 1_555
Ca2 O11 2.595616 1_555
Ca2 O7 2.612492 1_555
Ca2 O10 2.614061 1_556
Ca3 O2 2.362151 1_465
Ca3 O9 2.381344 1_565
Ca3 O5 2.384806 1_565
Ca3 O0 2.456392 1_455
Ca3 O7 2.595460 1_555
Ca3 O10 2.595616 1_555
Ca3 O6 2.612492 1_455
Ca3 O11 2.614061 1_454
O0 V1 1.917351 1_655
O0 V2 1.919803 1_655
O1 V0 1.917351 1_565
O1 V3 1.919803 1_566
O2 V0 1.917351 1_555
O2 V3 1.919803 1_555
O3 V1 1.917351 1_555
O3 V2 1.919803 1_556
O4 V2 1.911603 1_656
O4 V3 1.930860 1_556
O5 V3 1.911603 1_555
O5 V2 1.930860 1_555
O6 V1 1.912545 1_655
O6 V0 1.930155 1_565
O7 V0 1.912545 1_565
O7 V1 1.930155 1_555
O8 V0 1.912545 1_555
O8 V1 1.930155 1_655
O9 V1 1.912545 1_555
O9 V0 1.930155 1_555
O10 V2 1.911603 1_555
O10 V3 1.930860 1_565
O11 V3 1.911603 1_566
O11 V2 1.930860 1_656
