# generated using pymatgen
data_MgCr4(PbO4)4
_symmetry_space_group_name_H-M   'P 1'
_cell_length_a   7.17927947
_cell_length_b   7.55066464
_cell_length_c   7.60861963
_cell_angle_alpha   90.55873214
_cell_angle_beta   90.13919543
_cell_angle_gamma   103.11401137
_symmetry_Int_Tables_number   1
_chemical_formula_structural   MgCr4(PbO4)4
_chemical_formula_sum   'Mg1 Cr4 Pb4 O16'
_cell_volume   401.67041393
_cell_formula_units_Z   1
loop_
 _symmetry_equiv_pos_site_id
 _symmetry_equiv_pos_as_xyz
  1  'x, y, z'
loop_
 _atom_site_type_symbol
 _atom_site_label
 _atom_site_symmetry_multiplicity
 _atom_site_fract_x
 _atom_site_fract_y
 _atom_site_fract_z
 _atom_site_occupancy
  Mg  Mg0  1  0.64832100  0.02821100  0.42160800  1
  Cr  Cr0  1  0.38190100  0.68545700  0.32620400  1
  Cr  Cr1  1  0.88167400  0.22623900  0.16178100  1
  Cr  Cr2  1  0.11693500  0.80778000  0.84267700  1
  Cr  Cr3  1  0.61416500  0.30138400  0.65433900  1
  Pb  Pb0  1  0.91638500  0.68440400  0.38755300  1
  Pb  Pb1  1  0.61610000  0.83945500  0.89622600  1
  Pb  Pb2  1  0.06327000  0.27423700  0.64553800  1
  Pb  Pb3  1  0.39120500  0.22716100  0.10304800  1
  O  O0  1  0.29130200  0.86336000  0.29235000  1
  O  O1  1  0.18087800  0.61679200  0.80417200  1
  O  O2  1  0.71760500  0.11164600  0.69782300  1
  O  O3  1  0.80758500  0.41869400  0.18672700  1
  O  O4  1  0.20765200  0.52486800  0.41014300  1
  O  O5  1  0.32191900  0.96149700  0.90554600  1
  O  O6  1  0.82808900  0.45902900  0.60258000  1
  O  O7  1  0.66141500  0.05042000  0.13673000  1
  O  O8  1  0.05419900  0.21478600  0.01536700  1
  O  O9  1  0.49295600  0.22361800  0.46590700  1
  O  O10  1  0.94788700  0.78448200  0.99525200  1
  O  O11  1  0.57885800  0.75761900  0.46079500  1
  O  O12  1  0.92709100  0.14094000  0.37131200  1
  O  O13  1  0.49734900  0.36116200  0.82768600  1
  O  O14  1  0.02903800  0.87948800  0.65833400  1
  O  O15  1  0.45584900  0.61283100  0.13863500  1
loop_
_geom_bond_atom_site_label_1
_geom_bond_atom_site_label_2
_geom_bond_distance
_geom_bond_site_symmetry_2
Mg0 O11 2.015515 1_545
Mg0 O12 2.028171 1_555
Mg0 O9 2.067276 1_555
Mg0 O7 2.176250 1_555
Mg0 O2 2.210880 1_555
Cr0 O0 1.642024 1_555
Cr0 O15 1.655240 1_555
Cr0 O4 1.665468 1_555
Cr0 O11 1.725531 1_555
Cr1 O3 1.666280 1_555
Cr1 O8 1.684063 1_655
Cr1 O12 1.782004 1_555
Cr1 O7 1.827631 1_555
Cr2 O1 1.633709 1_555
Cr2 O10 1.662972 1_455
Cr2 O14 1.680535 1_555
Cr2 O5 1.718237 1_555
Cr3 O13 1.676958 1_555
Cr3 O9 1.703876 1_555
Cr3 O6 1.764433 1_555
Cr3 O2 1.790048 1_555
O0 Pb0 2.823754 1_455
O2 Pb1 2.533778 1_545
O2 Pb2 2.540813 1_655
O3 Pb0 2.488656 1_555
O4 Pb0 2.645484 1_455
O4 Pb2 2.654906 1_555
O5 Pb3 2.452383 1_566
O5 Pb1 2.489451 1_555
O6 Pb0 2.354621 1_555
O6 Pb2 2.445354 1_655
O7 Pb1 2.386817 1_544
O7 Pb3 2.605547 1_555
O8 Pb3 2.489164 1_555
O10 Pb1 2.619143 1_555
O11 Pb0 2.663925 1_555
O12 Pb2 2.413473 1_655
O13 Pb3 2.386044 1_556
O14 Pb0 2.541791 1_455
O15 Pb1 2.613813 1_554
