# generated using pymatgen
data_Na7La2Nb2Si5PO24
_symmetry_space_group_name_H-M   'P 1'
_cell_length_a   9.50532398
_cell_length_b   9.51746358
_cell_length_c   22.39103455
_cell_angle_alpha   90.37916989
_cell_angle_beta   89.66962005
_cell_angle_gamma   120.01050051
_symmetry_Int_Tables_number   1
_chemical_formula_structural   Na7La2Nb2Si5PO24
_chemical_formula_sum   'Na21 La6 Nb6 Si15 P3 O72'
_cell_volume   1754.02476033
_cell_formula_units_Z   3
loop_
 _symmetry_equiv_pos_site_id
 _symmetry_equiv_pos_as_xyz
  1  'x, y, z'
loop_
 _atom_site_type_symbol
 _atom_site_label
 _atom_site_symmetry_multiplicity
 _atom_site_fract_x
 _atom_site_fract_y
 _atom_site_fract_z
 _atom_site_occupancy
  Na  Na0  1  0.66454457  0.02127530  0.24768988  1
  Na  Na1  1  0.36445588  0.35643844  0.24723435  1
  Na  Na2  1  0.98510122  0.63753414  0.24470191  1
  Na  Na3  1  0.63941258  0.63073495  0.74795735  1
  Na  Na4  1  0.98354291  0.34293695  0.74599945  1
  Na  Na5  1  0.35905585  0.01792016  0.74468433  1
  Na  Na6  1  0.31888234  0.34207478  0.57894901  1
  Na  Na7  1  0.03061107  0.69240878  0.57746755  1
  Na  Na8  1  0.65385312  0.96543942  0.57857804  1
  Na  Na9  1  0.30427725  0.96936726  0.07239947  1
  Na  Na10  1  0.02671602  0.34662257  0.07825480  1
  Na  Na11  1  0.99471284  0.68043735  0.91174019  1
  Na  Na12  1  0.31503077  0.29325576  0.91006303  1
  Na  Na13  1  0.32351861  0.01633852  0.41125536  1
  Na  Na14  1  0.70479782  0.68008206  0.40977498  1
  Na  Na15  1  0.98693113  0.00258340  0.49869381  1
  Na  Na16  1  0.97880447  0.99952569  0.00017178  1
  Na  Na17  1  0.66875357  0.31803827  0.83233172  1
  Na  Na18  1  0.68006082  0.33237398  0.33285022  1
  Na  Na19  1  0.34005900  0.64957239  0.16457424  1
  Na  Na20  1  0.33713754  0.66576746  0.66221266  1
  La  La0  1  0.00007500  0.00905306  0.34749852  1
  La  La1  1  0.99065547  0.00039492  0.84969380  1
  La  La2  1  0.66714755  0.33474136  0.67545769  1
  La  La3  1  0.66402036  0.34004736  0.17412918  1
  La  La4  1  0.34230125  0.66734141  0.01451507  1
  La  La5  1  0.32891064  0.66246461  0.50758676  1
  Nb  Nb0  1  0.99812306  0.99764304  0.64768812  1
  Nb  Nb1  1  0.00488426  0.99654616  0.14922600  1
  Nb  Nb2  1  0.66503339  0.33418610  0.98231515  1
  Nb  Nb3  1  0.67639886  0.33213617  0.48335762  1
  Nb  Nb4  1  0.32726552  0.66898794  0.31476892  1
  Nb  Nb5  1  0.32871406  0.67133687  0.81291743  1
  Si  Si0  1  0.29963422  0.98610443  0.25173865  1
  Si  Si1  1  0.69068922  0.70751636  0.25232355  1
  Si  Si2  1  0.01110979  0.30994484  0.24635752  1
  Si  Si3  1  0.29260187  0.30877917  0.75143605  1
  Si  Si4  1  0.01364677  0.70491478  0.75162924  1
  Si  Si5  1  0.68794087  0.98692218  0.74768505  1
  Si  Si6  1  0.96764239  0.31593943  0.58574336  1
  Si  Si7  1  0.35327142  0.03447726  0.58369759  1
  Si  Si8  1  0.68087930  0.64493875  0.58449267  1
  Si  Si9  1  0.96260006  0.64808952  0.08431208  1
  Si  Si10  1  0.34771396  0.31406392  0.08667559  1
  Si  Si11  1  0.02230793  0.37666507  0.92022193  1
  Si  Si12  1  0.35253804  0.97737106  0.91927248  1
  Si  Si13  1  0.62614918  0.97927015  0.42025894  1
  Si  Si14  1  0.01829152  0.64915852  0.41938196  1
  P  P0  1  0.69161416  0.04837069  0.08429633  1
  P  P1  1  0.62256679  0.63694430  0.91347256  1
  P  P2  1  0.36202806  0.37621096  0.41631992  1
  O  O0  1  0.23554684  0.01799562  0.31349613  1
  O  O1  1  0.78752283  0.76818088  0.31401999  1
  O  O2  1  0.95950662  0.19214704  0.30260076  1
  O  O3  1  0.22695829  0.20897926  0.81224704  1
  O  O4  1  0.99314934  0.77429492  0.81402380  1
  O  O5  1  0.80568560  0.03655828  0.80384438  1
  O  O6  1  0.79777089  0.96572887  0.68992880  1
  O  O7  1  0.15789930  0.19032542  0.69573214  1
  O  O8  1  0.02870051  0.83621931  0.69622351  1
  O  O9  1  0.81398966  0.84614468  0.19915781  1
  O  O10  1  0.03349528  0.20083135  0.18890815  1
  O  O11  1  0.16417998  0.96954948  0.19693825  1
  O  O12  1  0.90723769  0.34890396  0.64835611  1
  O  O13  1  0.44505612  0.09903514  0.64630899  1
  O  O14  1  0.65095467  0.55647463  0.64784176  1
  O  O15  1  0.90348190  0.55459926  0.14675616  1
  O  O16  1  0.67816865  0.10816800  0.14625718  1
  O  O17  1  0.42400379  0.32165693  0.15094704  1
  O  O18  1  0.47553685  0.30721384  0.03228762  1
  O  O19  1  0.82937957  0.52646994  0.02957879  1
  O  O20  1  0.69868945  0.17775066  0.03588704  1
  O  O21  1  0.47458990  0.17028551  0.52950751  1
  O  O22  1  0.69386956  0.52116464  0.53058259  1
  O  O23  1  0.82918735  0.30515593  0.53259466  1
  O  O24  1  0.55528025  0.65846259  0.97199956  1
  O  O25  1  0.10737475  0.45424926  0.98260018  1
  O  O26  1  0.32326966  0.88034245  0.97994751  1
  O  O27  1  0.55343354  0.89844323  0.48372055  1
  O  O28  1  0.34636769  0.43563757  0.47814349  1
  O  O29  1  0.10639988  0.67445371  0.48235464  1
  O  O30  1  0.13910691  0.63675503  0.36406151  1
  O  O31  1  0.48684803  0.85352880  0.36619157  1
  O  O32  1  0.36127743  0.49442187  0.36584941  1
  O  O33  1  0.14527332  0.51218026  0.86456248  1
  O  O34  1  0.36615224  0.85985264  0.86256260  1
  O  O35  1  0.51281512  0.63011364  0.85918997  1
  O  O36  1  0.99125283  0.80264406  0.41180979  1
  O  O37  1  0.80106605  0.99303956  0.41406506  1
  O  O38  1  0.22451865  0.20012896  0.40983965  1
  O  O39  1  0.00902894  0.20175720  0.91518534  1
  O  O40  1  0.20110736  0.00832657  0.91199298  1
  O  O41  1  0.80182065  0.76812745  0.90891613  1
  O  O42  1  0.95168830  0.13391161  0.58495215  1
  O  O43  1  0.18197952  0.04474916  0.58594032  1
  O  O44  1  0.86280611  0.81402084  0.58523913  1
  O  O45  1  0.95868512  0.82199554  0.08871194  1
  O  O46  1  0.85687553  0.05199683  0.07954104  1
  O  O47  1  0.17653361  0.13246857  0.08361994  1
  O  O48  1  0.64095251  0.12738417  0.74208306  1
  O  O49  1  0.47673390  0.34600652  0.74305901  1
  O  O50  1  0.86965883  0.51947451  0.74508745  1
  O  O51  1  0.65070508  0.52271266  0.24269958  1
  O  O52  1  0.87060812  0.35717110  0.24058345  1
  O  O53  1  0.48618953  0.12379770  0.24188284  1
  O  O54  1  0.61167938  0.46447748  0.91586287  1
  O  O55  1  0.84715425  0.37899988  0.91993746  1
  O  O56  1  0.52583211  0.15512903  0.92458051  1
  O  O57  1  0.62159989  0.15284449  0.41920718  1
  O  O58  1  0.53186267  0.38668327  0.41273052  1
  O  O59  1  0.84229261  0.47484009  0.42171626  1
  O  O60  1  0.30844361  0.45984363  0.08169011  1
  O  O61  1  0.14846442  0.68836544  0.07715894  1
  O  O62  1  0.54316820  0.88175568  0.07507299  1
  O  O63  1  0.31423660  0.84897246  0.57722027  1
  O  O64  1  0.53371254  0.68129837  0.57550562  1
  O  O65  1  0.15300459  0.45863748  0.57599453  1
  O  O66  1  0.28389587  0.80100106  0.25535532  1
  O  O67  1  0.51799665  0.71494944  0.25584667  1
  O  O68  1  0.19464278  0.47819100  0.25581949  1
  O  O69  1  0.28451266  0.48075664  0.75463239  1
  O  O70  1  0.19695832  0.71394910  0.75366795  1
  O  O71  1  0.51982537  0.80406283  0.75486151  1
loop_
_geom_bond_atom_site_label_1
_geom_bond_atom_site_label_2
_geom_bond_distance
_geom_bond_site_symmetry_2
Na0 O53 2.345652 1_555
Na0 O16 2.402770 1_555
Na0 O67 2.532832 1_545
Na0 O2 2.733037 1_555
Na0 O52 2.796654 1_555
Na0 O9 2.881613 1_545
Na1 O17 2.289562 1_555
Na1 O51 2.368466 1_555
Na1 O68 2.418595 1_555
Na2 O52 2.325078 1_555
Na2 O15 2.327830 1_555
Na2 O66 2.475200 1_655
Na2 O51 2.797451 1_555
Na3 O49 2.356476 1_555
Na3 O14 2.364424 1_555
Na3 O71 2.430577 1_555
Na3 O35 2.758578 1_555
Na3 O50 2.868968 1_555
Na4 O12 2.317432 1_555
Na4 O50 2.411508 1_555
Na4 O69 2.488270 1_655
Na4 O5 2.851650 1_555
Na4 O48 2.852881 1_555
Na4 O7 2.913422 1_655
Na5 O48 2.339903 1_555
Na5 O13 2.342369 1_555
Na5 O70 2.515809 1_545
Na5 O49 2.740434 1_555
Na5 O8 2.934425 1_545
Na6 O65 2.339459 1_555
Na6 O28 2.396450 1_555
Na6 O43 2.458764 1_555
Na6 O64 2.829479 1_555
Na7 O29 2.276913 1_555
Na7 O63 2.338805 1_555
Na7 O44 2.398954 1_455
Na7 O43 2.918849 1_565
Na8 O27 2.285937 1_555
Na8 O64 2.351873 1_555
Na8 O42 2.463103 1_565
Na8 O63 2.841110 1_555
Na9 O26 2.271843 1_554
Na9 O61 2.323177 1_555
Na9 O47 2.413293 1_565
Na9 O62 2.784129 1_555
Na10 O25 2.334290 1_554
Na10 O60 2.335168 1_555
Na10 O46 2.437664 1_455
Na10 O61 2.855572 1_555
Na10 O10 2.864434 1_555
Na10 O20 2.864622 1_455
Na11 O41 2.365377 1_555
Na11 O4 2.371692 1_555
Na11 O55 2.492078 1_555
Na11 O40 2.731876 1_665
Na11 O33 2.825087 1_655
Na12 O3 2.338242 1_555
Na12 O40 2.364719 1_555
Na12 O54 2.455262 1_555
Na12 O39 2.587557 1_555
Na13 O0 2.350671 1_555
Na13 O38 2.365156 1_555
Na13 O57 2.463338 1_555
Na13 O36 2.772336 1_445
Na14 O1 2.294154 1_555
Na14 O36 2.366479 1_555
Na14 O58 2.431788 1_555
Na14 O37 2.643708 1_555
Na14 O59 2.856565 1_555
Na15 O42 2.405055 1_555
Na15 O44 2.503912 1_545
Na15 O37 2.568278 1_545
Na15 O43 2.588784 1_655
Na15 O36 2.726852 1_545
Na15 O38 2.888535 1_655
Na16 O46 2.300951 1_565
Na16 O47 2.501004 1_665
Na16 O45 2.557050 1_555
Na16 O39 2.626275 1_664
Na16 O41 2.851210 1_554
Na16 O40 2.854362 1_664
Na17 O55 2.469643 1_555
Na17 O56 2.533583 1_555
Na17 O54 2.538730 1_555
Na17 O48 2.631319 1_555
Na17 O50 2.735454 1_555
Na17 O49 2.816558 1_555
Na18 O57 2.459425 1_555
Na18 O59 2.466554 1_555
Na18 O58 2.477436 1_555
Na18 O52 2.672086 1_555
Na18 O53 2.795680 1_555
Na18 O51 2.827489 1_555
Na19 O60 2.492884 1_555
Na19 O67 2.528791 1_555
Na19 O68 2.549804 1_555
Na19 O66 2.685562 1_555
Na19 O61 2.829727 1_555
Na19 O62 2.893609 1_555
Na20 O70 2.597386 1_555
Na20 O71 2.602021 1_555
Na20 O69 2.605431 1_555
Na20 O64 2.639721 1_555
Na20 O63 2.671653 1_555
Na20 O65 2.685818 1_555
La0 O2 2.212646 1_455
La0 O1 2.293671 1_445
La0 O0 2.321044 1_555
La0 O37 2.346320 1_445
La0 O36 2.410622 1_445
La0 O38 2.434515 1_555
La1 O5 2.212350 1_555
La1 O3 2.286708 1_655
La1 O4 2.301563 1_545
La1 O39 2.341935 1_655
La1 O40 2.415150 1_655
La1 O41 2.430874 1_545
La2 O13 2.274699 1_555
La2 O14 2.280979 1_555
La2 O12 2.296073 1_555
La2 O48 2.392779 1_555
La2 O49 2.395609 1_555
La2 O50 2.416651 1_555
La3 O15 2.253306 1_555
La3 O17 2.262305 1_555
La3 O16 2.357049 1_555
La3 O51 2.361845 1_555
La3 O52 2.409783 1_555
La3 O53 2.434423 1_555
La4 O25 2.253730 1_554
La4 O26 2.265104 1_554
La4 O24 2.271465 1_554
La4 O60 2.379907 1_555
La4 O61 2.395309 1_555
La4 O62 2.396696 1_555
La5 O29 2.249810 1_555
La5 O27 2.256641 1_555
La5 O28 2.336857 1_555
La5 O65 2.381242 1_555
La5 O63 2.410373 1_555
La5 O64 2.411645 1_555
Nb0 O6 2.004496 1_555
Nb0 O7 2.008360 1_665
Nb0 O8 2.024424 1_655
Nb0 O43 2.088855 1_665
Nb0 O44 2.098485 1_555
Nb0 O42 2.110444 1_565
Nb1 O11 1.977744 1_555
Nb1 O9 1.997763 1_455
Nb1 O45 2.008967 1_455
Nb1 O10 2.023522 1_565
Nb1 O47 2.092761 1_565
Nb1 O46 2.339086 1_465
Nb2 O19 2.010745 1_556
Nb2 O56 2.015211 1_555
Nb2 O18 2.019989 1_556
Nb2 O20 2.064574 1_556
Nb2 O55 2.090664 1_555
Nb2 O54 2.161265 1_555
Nb3 O23 1.945718 1_555
Nb3 O22 2.015032 1_555
Nb3 O59 2.023247 1_555
Nb3 O21 2.040280 1_555
Nb3 O57 2.081689 1_555
Nb3 O58 2.325355 1_555
Nb4 O30 1.985932 1_555
Nb4 O31 2.009928 1_555
Nb4 O66 2.016162 1_555
Nb4 O68 2.080020 1_555
Nb4 O67 2.098942 1_555
Nb4 O32 2.177091 1_555
Nb5 O34 1.980129 1_555
Nb5 O70 2.006817 1_555
Nb5 O33 2.007476 1_555
Nb5 O71 2.069910 1_555
Nb5 O69 2.093418 1_555
Nb5 O35 2.236691 1_555
O0 Si0 1.595330 1_545
O1 Si1 1.600456 1_555
O2 Si2 1.595292 1_655
O3 Si3 1.600002 1_555
O4 Si4 1.593475 1_655
O5 Si5 1.592633 1_545
O6 Si5 1.730492 1_555
O7 Si3 1.738369 1_555
O8 Si4 1.720714 1_555
O9 Si1 1.728990 1_555
O10 Si2 1.725870 1_555
O11 Si0 1.732319 1_555
O12 Si6 1.599592 1_555
O13 Si7 1.603302 1_555
O14 Si8 1.604179 1_555
O15 Si9 1.603019 1_555
O16 P0 1.524888 1_555
O17 Si10 1.600105 1_555
O18 Si10 1.739148 1_555
O19 Si9 1.725743 1_555
O20 P0 1.621632 1_555
O21 Si7 1.728114 1_555
O22 Si8 1.727723 1_555
O23 Si6 1.743591 1_555
O24 P1 1.512010 1_555
O25 Si11 1.597493 1_555
O26 Si12 1.590965 1_555
O27 Si13 1.599980 1_555
O28 P2 1.526368 1_555
O29 Si14 1.598426 1_555
O30 Si14 1.727524 1_555
O31 Si13 1.750784 1_555
O32 P2 1.602459 1_555
O33 Si11 1.754800 1_555
O34 Si12 1.733264 1_555
O35 P1 1.586059 1_555
O36 Si14 1.614948 1_655
O37 Si13 1.606365 1_555
O38 P2 1.531597 1_555
O39 Si11 1.608509 1_555
O40 Si12 1.616410 1_545
O41 P1 1.531037 1_555
O42 Si6 1.661773 1_555
O43 Si7 1.679668 1_555
O44 Si8 1.672300 1_555
O45 Si9 1.676307 1_555
O46 P0 1.556929 1_555
O47 Si10 1.681057 1_555
O48 Si5 1.613229 1_545
O49 Si3 1.612703 1_555
O50 Si4 1.610022 1_655
O51 Si1 1.616082 1_555
O52 Si2 1.614178 1_655
O53 Si0 1.607885 1_545
O54 P1 1.593454 1_555
O55 Si11 1.676166 1_655
O56 Si12 1.673796 1_545
O57 Si13 1.674357 1_545
O58 P2 1.568478 1_555
O59 Si14 1.666638 1_655
O60 Si10 1.611652 1_555
O61 Si9 1.616768 1_455
O62 P0 1.519551 1_565
O63 Si7 1.617950 1_565
O64 Si8 1.614149 1_555
O65 Si6 1.613180 1_455
O66 Si0 1.694312 1_555
O67 Si1 1.679387 1_555
O68 Si2 1.690499 1_555
O69 Si3 1.677615 1_555
O70 Si4 1.701927 1_555
O71 Si5 1.681375 1_555
