# generated using pymatgen
data_Na9CaTa5(SiO4)9
_symmetry_space_group_name_H-M   'P 1'
_cell_length_a   9.13431277
_cell_length_b   27.31989719
_cell_length_c   22.41908654
_cell_angle_alpha   89.98233911
_cell_angle_beta   89.97221225
_cell_angle_gamma   120.12264873
_symmetry_Int_Tables_number   1
_chemical_formula_structural   Na9CaTa5(SiO4)9
_chemical_formula_sum   'Na54 Ca6 Ta30 Si54 O216'
_cell_volume   4839.10757313
_cell_formula_units_Z   6
loop_
 _symmetry_equiv_pos_site_id
 _symmetry_equiv_pos_as_xyz
  1  'x, y, z'
loop_
 _atom_site_type_symbol
 _atom_site_label
 _atom_site_symmetry_multiplicity
 _atom_site_fract_x
 _atom_site_fract_y
 _atom_site_fract_z
 _atom_site_occupancy
  Na  Na0  1  0.00226141  0.00296909  0.49798426  1
  Na  Na1  1  0.98582872  0.32754710  0.49998076  1
  Na  Na2  1  0.00362900  0.66941886  0.50232009  1
  Na  Na3  1  0.98209804  0.99515143  0.00059432  1
  Na  Na4  1  0.99571876  0.32725332  0.00045740  1
  Na  Na5  1  0.01677579  0.66886328  0.00521612  1
  Na  Na6  1  0.66500379  0.10935477  0.83434754  1
  Na  Na7  1  0.67339595  0.44249644  0.83251919  1
  Na  Na8  1  0.67042018  0.79036357  0.83058139  1
  Na  Na9  1  0.66076166  0.10828736  0.33303717  1
  Na  Na10  1  0.65738775  0.44367516  0.33270764  1
  Na  Na11  1  0.68645783  0.78476038  0.33161899  1
  Na  Na12  1  0.34359338  0.22562702  0.16649952  1
  Na  Na13  1  0.34624857  0.55200674  0.16995184  1
  Na  Na14  1  0.33369823  0.88921601  0.16709560  1
  Na  Na15  1  0.33478935  0.22611256  0.66669825  1
  Na  Na16  1  0.31174383  0.55173411  0.66795535  1
  Na  Na17  1  0.34610212  0.88588526  0.66916973  1
  Na  Na18  1  0.62098250  0.00358759  0.24527568  1
  Na  Na19  1  0.65689971  0.66509400  0.24808056  1
  Na  Na20  1  0.38192849  0.12374329  0.24485603  1
  Na  Na21  1  0.35330884  0.78796237  0.24475215  1
  Na  Na22  1  0.98781942  0.20329523  0.24542050  1
  Na  Na23  1  0.00867177  0.55100695  0.24295546  1
  Na  Na24  1  0.62356312  0.20399767  0.74530385  1
  Na  Na25  1  0.64141790  0.55025752  0.73961503  1
  Na  Na26  1  0.98901490  0.12439010  0.74679956  1
  Na  Na27  1  0.01068699  0.78917641  0.74502915  1
  Na  Na28  1  0.39114068  0.00408473  0.74553098  1
  Na  Na29  1  0.33896686  0.66452592  0.74387071  1
  Na  Na30  1  0.32742047  0.11376139  0.58765086  1
  Na  Na31  1  0.32401439  0.44088501  0.57135811  1
  Na  Na32  1  0.28038749  0.77440817  0.58621546  1
  Na  Na33  1  0.01686826  0.22566552  0.59254015  1
  Na  Na34  1  0.03270564  0.57277273  0.58840723  1
  Na  Na35  1  0.02526069  0.89880721  0.57551814  1
  Na  Na36  1  0.67453096  0.32865213  0.57183912  1
  Na  Na37  1  0.67847748  0.65380036  0.59513408  1
  Na  Na38  1  0.65789556  0.99355965  0.58736174  1
  Na  Na39  1  0.31136111  0.32832267  0.07297163  1
  Na  Na40  1  0.28933156  0.65530031  0.09608024  1
  Na  Na41  1  0.31688141  0.99208425  0.08835079  1
  Na  Na42  1  0.66013820  0.22515762  0.09309881  1
  Na  Na43  1  0.68623360  0.57299836  0.09031150  1
  Na  Na44  1  0.01560800  0.11301230  0.09071757  1
  Na  Na45  1  0.99753683  0.44062389  0.07380971  1
  Na  Na46  1  0.04594531  0.77561769  0.08733002  1
  Na  Na47  1  0.94555220  0.55048999  0.92646319  1
  Na  Na48  1  0.70180918  0.34680554  0.92036896  1
  Na  Na49  1  0.70249859  0.68016511  0.91980302  1
  Na  Na50  1  0.34468689  0.43131243  0.92016559  1
  Na  Na51  1  0.95174648  0.43247888  0.42003188  1
  Na  Na52  1  0.34036895  0.34779770  0.41983587  1
  Na  Na53  1  0.70909472  0.55131877  0.42588268  1
  Ca  Ca0  1  0.00659731  0.66818460  0.65018406  1
  Ca  Ca1  1  0.00114099  0.66892238  0.15069396  1
  Ca  Ca2  1  0.67131642  0.11201011  0.68677409  1
  Ca  Ca3  1  0.66402106  0.11126695  0.18630826  1
  Ca  Ca4  1  0.65751291  0.43945368  0.97929771  1
  Ca  Ca5  1  0.66348403  0.44022151  0.47853370  1
  Ta  Ta0  1  0.99632200  0.99702581  0.35897216  1
  Ta  Ta1  1  -0.00032751  0.33471044  0.35655687  1
  Ta  Ta2  1  0.00620452  0.66763484  0.35197893  1
  Ta  Ta3  1  0.99641089  0.99780718  0.85981454  1
  Ta  Ta4  1  0.00380257  0.33431997  0.85678175  1
  Ta  Ta5  1  0.99892022  0.66780887  0.85113495  1
  Ta  Ta6  1  0.99584973  0.99907871  0.64702034  1
  Ta  Ta7  1  0.00157664  0.33300465  0.65158246  1
  Ta  Ta8  1  0.99651677  0.99756488  0.14578429  1
  Ta  Ta9  1  0.99743744  0.33288534  0.15171473  1
  Ta  Ta10  1  0.66027396  0.44140304  0.68491410  1
  Ta  Ta11  1  0.66878118  0.77986792  0.68782967  1
  Ta  Ta12  1  0.66391420  0.44158571  0.18518383  1
  Ta  Ta13  1  0.67105926  0.78079294  0.18775808  1
  Ta  Ta14  1  0.66827505  0.11163256  0.98125434  1
  Ta  Ta15  1  0.67034979  0.78288934  0.97520630  1
  Ta  Ta16  1  0.66717480  0.11215985  0.48064645  1
  Ta  Ta17  1  0.67210823  0.77995654  0.47330700  1
  Ta  Ta18  1  0.33035389  0.22243019  0.01489739  1
  Ta  Ta19  1  0.33263554  0.55695143  0.02253568  1
  Ta  Ta20  1  0.33621288  0.88714429  0.02006040  1
  Ta  Ta21  1  0.33776216  0.22281581  0.51476201  1
  Ta  Ta22  1  0.33697393  0.55722330  0.52141425  1
  Ta  Ta23  1  0.32657691  0.88678168  0.51852320  1
  Ta  Ta24  1  0.33152388  0.21847567  0.31024154  1
  Ta  Ta25  1  0.33334613  0.55488839  0.31446127  1
  Ta  Ta26  1  0.33469248  0.89318490  0.31417244  1
  Ta  Ta27  1  0.32397107  0.21845895  0.81047842  1
  Ta  Ta28  1  0.33043408  0.55393370  0.81420145  1
  Ta  Ta29  1  0.34519728  0.89363962  0.81428121  1
  Si  Si0  1  0.27854407  0.99632313  0.25308993  1
  Si  Si1  1  0.29172815  0.33360833  0.25200621  1
  Si  Si2  1  0.30528975  0.66630575  0.24980553  1
  Si  Si3  1  0.70707087  0.23665632  0.25370203  1
  Si  Si4  1  0.69889810  0.56528700  0.24913100  1
  Si  Si5  1  0.70790820  0.90397449  0.25311126  1
  Si  Si6  1  0.00286133  0.09398908  0.25126562  1
  Si  Si7  1  0.99580665  0.43094419  0.25528694  1
  Si  Si8  1  0.00243211  0.76785643  0.24859761  1
  Si  Si9  1  0.28116192  0.09472642  0.75225051  1
  Si  Si10  1  0.29645674  0.43057863  0.75557852  1
  Si  Si11  1  0.30156760  0.76867841  0.74764564  1
  Si  Si12  1  0.00378421  0.23691074  0.75347252  1
  Si  Si13  1  0.99547364  0.56493028  0.74900362  1
  Si  Si14  1  0.00464349  0.90422362  0.75187631  1
  Si  Si15  1  0.71033647  0.99699035  0.75450236  1
  Si  Si16  1  0.70925726  0.33368594  0.75214507  1
  Si  Si17  1  0.69313156  0.66630365  0.75026257  1
  Si  Si18  1  0.96887463  0.11244097  0.58432511  1
  Si  Si19  1  0.96409191  0.44354535  0.58237033  1
  Si  Si20  1  0.95762372  0.78074471  0.58008256  1
  Si  Si21  1  0.36960866  0.01239124  0.58531341  1
  Si  Si22  1  0.36097076  0.34201081  0.58039855  1
  Si  Si23  1  0.38861958  0.68333877  0.58161683  1
  Si  Si24  1  0.66788975  0.21195158  0.58522932  1
  Si  Si25  1  0.66011725  0.54152529  0.58061481  1
  Si  Si26  1  0.66021188  0.87379283  0.58027168  1
  Si  Si27  1  0.96781812  0.21175568  0.08508643  1
  Si  Si28  1  0.96399439  0.54172369  0.08102255  1
  Si  Si29  1  0.96096322  0.87485532  0.08061292  1
  Si  Si30  1  0.66750359  0.01188434  0.08520340  1
  Si  Si31  1  0.66503816  0.34176097  0.08058220  1
  Si  Si32  1  0.66425796  0.68390589  0.08027401  1
  Si  Si33  1  0.36794185  0.11230248  0.08429979  1
  Si  Si34  1  0.36652346  0.44332545  0.08219450  1
  Si  Si35  1  0.38747870  0.78251042  0.08188243  1
  Si  Si36  1  0.61901208  0.21955635  0.91463389  1
  Si  Si37  1  0.62733500  0.55958053  0.91339398  1
  Si  Si38  1  0.62736316  0.88950205  0.91691134  1
  Si  Si39  1  0.03249806  0.12327945  0.91224017  1
  Si  Si40  1  0.05003939  0.45670860  0.92004832  1
  Si  Si41  1  0.04503434  0.79478186  0.91457458  1
  Si  Si42  1  0.32764607  0.31741655  0.91241726  1
  Si  Si43  1  0.32603149  0.65294402  0.91685483  1
  Si  Si44  1  0.33245377  0.98618349  0.91920940  1
  Si  Si45  1  0.62539113  0.31771216  0.41198993  1
  Si  Si46  1  0.63199951  0.65298091  0.41644014  1
  Si  Si47  1  0.62689479  0.98689134  0.41793487  1
  Si  Si48  1  0.33693769  0.12339531  0.41214697  1
  Si  Si49  1  0.32148407  0.45714350  0.41976786  1
  Si  Si50  1  0.33777677  0.79380886  0.41366233  1
  Si  Si51  1  0.04088688  0.22013181  0.41474048  1
  Si  Si52  1  0.05406139  0.56110211  0.41358666  1
  Si  Si53  1  0.03842165  0.88940078  0.41768516  1
  O  O0  1  0.15852914  0.99023587  0.30996003  1
  O  O1  1  0.19837461  0.34346835  0.31021051  1
  O  O2  1  0.19563333  0.67273030  0.30560531  1
  O  O3  1  0.83206407  0.28041121  0.30579225  1
  O  O4  1  0.83523722  0.59992704  0.30414720  1
  O  O5  1  0.80899596  0.93457735  0.31399283  1
  O  O6  1  0.00611476  0.05465285  0.30588580  1
  O  O7  1  0.99172161  0.39902890  0.31806512  1
  O  O8  1  0.96543031  0.71786956  0.29874957  1
  O  O9  1  0.15866272  0.05577517  0.80643869  1
  O  O10  1  0.20549422  0.39927467  0.81850765  1
  O  O11  1  0.18353331  0.71927132  0.79843639  1
  O  O12  1  0.01009504  0.28070766  0.80546017  1
  O  O13  1  0.96392809  0.60103099  0.80338751  1
  O  O14  1  0.99560973  0.93608337  0.81153221  1
  O  O15  1  0.81279238  0.99112737  0.81064233  1
  O  O16  1  0.83219134  0.34350562  0.81031096  1
  O  O17  1  0.81459279  0.67241152  0.80876637  1
  O  O18  1  0.80117860  0.32359010  0.69364628  1
  O  O19  1  0.76112841  0.64981026  0.69262144  1
  O  O20  1  0.80686748  0.99264581  0.69237259  1
  O  O21  1  0.17189729  0.06364951  0.68957406  1
  O  O22  1  0.16594345  0.39179329  0.70226685  1
  O  O23  1  0.20507978  0.75327394  0.68497450  1
  O  O24  1  0.00200177  0.26895575  0.69102008  1
  O  O25  1  0.07221460  0.60398167  0.69053204  1
  O  O26  1  0.01944432  0.94239589  0.69201384  1
  O  O27  1  0.80561870  0.26909848  0.19141734  1
  O  O28  1  0.74187053  0.60441512  0.19056527  1
  O  O29  1  0.81397799  0.94449102  0.19572869  1
  O  O30  1  0.02287167  0.06450223  0.18872804  1
  O  O31  1  0.01020409  0.39211894  0.20193167  1
  O  O32  1  0.05863323  0.75382045  0.18626101  1
  O  O33  1  0.17003696  0.32357675  0.19345961  1
  O  O34  1  0.19016665  0.64920925  0.19143350  1
  O  O35  1  0.17118718  0.99212926  0.19120058  1
  O  O36  1  0.92546447  0.13329605  0.64529720  1
  O  O37  1  0.85206384  0.45052292  0.63668595  1
  O  O38  1  0.85959717  0.78624707  0.64090598  1
  O  O39  1  0.47253016  0.02922424  0.64667826  1
  O  O40  1  0.49761231  0.37950095  0.63361767  1
  O  O41  1  0.49685378  0.71223268  0.64485013  1
  O  O42  1  0.61184874  0.17641209  0.64611640  1
  O  O43  1  0.63361075  0.49875446  0.63916040  1
  O  O44  1  0.64168406  0.83295987  0.63801108  1
  O  O45  1  0.91693061  0.17638050  0.14601323  1
  O  O46  1  0.86307115  0.49877850  0.13908868  1
  O  O47  1  0.85375302  0.83377650  0.13740657  1
  O  O48  1  0.61388831  0.02837612  0.14676053  1
  O  O49  1  0.64063258  0.37956227  0.13328491  1
  O  O50  1  0.64056253  0.71420141  0.14140758  1
  O  O51  1  0.47753825  0.13438967  0.14453436  1
  O  O52  1  0.49948403  0.45065819  0.13634500  1
  O  O53  1  0.49512602  0.78628525  0.14320764  1
  O  O54  1  0.47771213  0.10333674  0.03155127  1
  O  O55  1  0.40576603  0.41961962  0.02229105  1
  O  O56  1  0.50952927  0.78719492  0.02552234  1
  O  O57  1  0.83009030  0.17814146  0.03147589  1
  O  O58  1  0.86964953  0.51180814  0.02052977  1
  O  O59  1  0.85791548  0.84264714  0.01988465  1
  O  O60  1  0.70637423  0.06055284  0.03368203  1
  O  O61  1  0.71605022  0.37442214  0.01803722  1
  O  O62  1  0.66557093  0.72146571  0.02266754  1
  O  O63  1  0.47367115  0.06038239  0.53346734  1
  O  O64  1  0.40967285  0.37457269  0.51796403  1
  O  O65  1  0.51024629  0.72436997  0.52827393  1
  O  O66  1  0.70395131  0.17783554  0.53190820  1
  O  O67  1  0.66464184  0.51154549  0.52046780  1
  O  O68  1  0.67923582  0.84388615  0.52062266  1
  O  O69  1  0.83052005  0.10240967  0.53201022  1
  O  O70  1  0.85326896  0.41971648  0.52273706  1
  O  O71  1  0.85837541  0.78870373  0.52386378  1
  O  O72  1  0.53190195  0.23214395  0.97285469  1
  O  O73  1  0.52084618  0.56692797  0.97029154  1
  O  O74  1  0.51357519  0.88789029  0.97410244  1
  O  O75  1  0.16530468  0.16418263  0.96475211  1
  O  O76  1  0.15537558  0.48830649  0.98248269  1
  O  O77  1  0.15115403  0.82177025  0.97644799  1
  O  O78  1  0.33370955  0.28745278  0.97571642  1
  O  O79  1  0.29979419  0.61215928  0.97583769  1
  O  O80  1  0.30492541  0.94276549  0.97452928  1
  O  O81  1  0.52852200  0.28737342  0.47537066  1
  O  O82  1  0.53290151  0.61156000  0.47487120  1
  O  O83  1  0.51920439  0.94355205  0.47390734  1
  O  O84  1  0.32691380  0.16387761  0.46538241  1
  O  O85  1  0.30880007  0.48811631  0.48250375  1
  O  O86  1  0.31033760  0.82225342  0.47532060  1
  O  O87  1  0.16452384  0.23208570  0.47328350  1
  O  O88  1  0.17470397  0.56554555  0.47211483  1
  O  O89  1  0.14247547  0.88874176  0.47789828  1
  O  O90  1  0.13488350  0.21032586  0.35711864  1
  O  O91  1  0.15696923  0.56345881  0.35275311  1
  O  O92  1  0.16006367  0.89120899  0.36296949  1
  O  O93  1  0.49911787  0.27389569  0.36078681  1
  O  O94  1  0.51820519  0.61908776  0.35814108  1
  O  O95  1  0.51853552  0.95898164  0.35647122  1
  O  O96  1  0.34799190  0.15629883  0.34939202  1
  O  O97  1  0.29829960  0.49604964  0.36871727  1
  O  O98  1  0.37193958  0.83768541  0.35866111  1
  O  O99  1  0.12080559  0.15582150  0.84907930  1
  O  O100  1  0.19113795  0.49548384  0.86881283  1
  O  O101  1  0.14341848  0.83709235  0.85849105  1
  O  O102  1  0.32208933  0.27356973  0.86100811  1
  O  O103  1  0.34317018  0.61851230  0.85985278  1
  O  O104  1  0.35843705  0.95819122  0.85736329  1
  O  O105  1  0.49588889  0.21012244  0.85678952  1
  O  O106  1  0.53546578  0.56325427  0.85189980  1
  O  O107  1  0.51614175  0.89011011  0.85980316  1
  O  O108  1  0.03165468  0.27860850  0.40696988  1
  O  O109  1  0.02434590  0.61592803  0.41295825  1
  O  O110  1  0.01585794  0.94476245  0.41892466  1
  O  O111  1  0.81432804  0.32376459  0.41351529  1
  O  O112  1  0.81484396  0.65591474  0.40937130  1
  O  O113  1  0.81632914  0.99519770  0.41437522  1
  O  O114  1  0.16918754  0.06025179  0.41253797  1
  O  O115  1  0.15175131  0.39290915  0.42012684  1
  O  O116  1  0.16459417  0.73341761  0.40119897  1
  O  O117  1  0.01102061  0.06011079  0.91274809  1
  O  O118  1  0.02697573  0.39258994  0.92061575  1
  O  O119  1  0.02725322  0.73218078  0.90225771  1
  O  O120  1  0.15704953  0.32361567  0.91338392  1
  O  O121  1  0.15189338  0.65586124  0.90837310  1
  O  O122  1  0.16830560  0.99473330  0.91317217  1
  O  O123  1  0.80391795  0.27822735  0.90655515  1
  O  O124  1  0.81884852  0.61691981  0.91381064  1
  O  O125  1  0.81670792  0.94417976  0.91765786  1
  O  O126  1  0.97228547  0.05217273  0.58844186  1
  O  O127  1  0.01548065  0.39476893  0.59914687  1
  O  O128  1  0.96375640  0.72356055  0.57666221  1
  O  O129  1  0.17701752  0.00489508  0.58727775  1
  O  O130  1  0.17372121  0.33342731  0.59674896  1
  O  O131  1  0.20715230  0.67838938  0.57781887  1
  O  O132  1  0.83649617  0.27638138  0.58821032  1
  O  O133  1  0.82768815  0.60301680  0.58434101  1
  O  O134  1  0.83111788  0.93645478  0.58841434  1
  O  O135  1  0.99328628  0.27639855  0.08829288  1
  O  O136  1  0.98343830  0.60343462  0.08426614  1
  O  O137  1  0.98428691  0.93811251  0.08729982  1
  O  O138  1  0.84153078  0.00742160  0.08787498  1
  O  O139  1  0.82630077  0.33314154  0.09707539  1
  O  O140  1  0.83047395  0.67863354  0.07685303  1
  O  O141  1  0.18549409  0.05239744  0.08888476  1
  O  O142  1  0.16864379  0.39490735  0.09888176  1
  O  O143  1  0.21183392  0.72434609  0.07687036  1
  O  O144  1  0.70858969  0.05516568  0.75723856  1
  O  O145  1  0.68402344  0.38788111  0.74046236  1
  O  O146  1  0.69838797  0.72773874  0.74660543  1
  O  O147  1  0.46103934  0.09853748  0.75603136  1
  O  O148  1  0.47986281  0.43539176  0.74362580  1
  O  O149  1  0.48443067  0.77000293  0.74652081  1
  O  O150  1  0.83401030  0.17749017  0.76204452  1
  O  O151  1  0.81478233  0.50609155  0.74061070  1
  O  O152  1  0.83741733  0.84069342  0.74376425  1
  O  O153  1  0.69809655  0.17716981  0.26192534  1
  O  O154  1  0.70177373  0.50599654  0.23991738  1
  O  O155  1  0.68480124  0.84062540  0.24461066  1
  O  O156  1  0.83461513  0.09811143  0.25567783  1
  O  O157  1  0.82549859  0.43504190  0.24331212  1
  O  O158  1  0.82496448  0.77023625  0.24524477  1
  O  O159  1  0.45502805  0.05465089  0.25700550  1
  O  O160  1  0.47947250  0.38775437  0.24020877  1
  O  O161  1  0.48578017  0.72727905  0.24646723  1
  O  O162  1  0.64290315  0.16539541  0.92624055  1
  O  O163  1  0.63394929  0.50241020  0.91366894  1
  O  O164  1  0.64499934  0.83266334  0.91586239  1
  O  O165  1  0.85085695  0.11961635  0.92494634  1
  O  O166  1  0.87516804  0.45484079  0.90864486  1
  O  O167  1  0.84794146  0.78137371  0.91877030  1
  O  O168  1  0.50284890  0.04746563  0.93126502  1
  O  O169  1  0.49517336  0.37733555  0.90245588  1
  O  O170  1  0.49688254  0.71502455  0.92234911  1
  O  O171  1  0.63984556  0.04799322  0.43099870  1
  O  O172  1  0.63802893  0.37762261  0.40231262  1
  O  O173  1  0.65496985  0.71596686  0.42385499  1
  O  O174  1  0.50813830  0.11990770  0.42533648  1
  O  O175  1  0.48980117  0.45472862  0.40869498  1
  O  O176  1  0.49765027  0.78299157  0.42157070  1
  O  O177  1  0.85429791  0.16582521  0.42696080  1
  O  O178  1  0.87633171  0.50302632  0.41340303  1
  O  O179  1  0.85162621  0.83257514  0.41530144  1
  O  O180  1  0.32360874  0.16277579  0.06822932  1
  O  O181  1  0.37846234  0.50583872  0.07723748  1
  O  O182  1  0.35212916  0.83617170  0.08202738  1
  O  O183  1  0.15642595  0.22106311  0.06898220  1
  O  O184  1  0.15706301  0.54698772  0.08337436  1
  O  O185  1  0.14999171  0.88130226  0.08088394  1
  O  O186  1  0.49266965  0.27881245  0.08035224  1
  O  O187  1  0.49097400  0.62023338  0.07813942  1
  O  O188  1  0.50083225  0.95076129  0.06826673  1
  O  O189  1  0.34403219  0.27892605  0.58044093  1
  O  O190  1  0.37239284  0.62016950  0.57890821  1
  O  O191  1  0.34475307  0.94951702  0.56974817  1
  O  O192  1  0.50713679  0.22110316  0.56889548  1
  O  O193  1  0.48401149  0.54703885  0.58344696  1
  O  O194  1  0.49243278  0.88133234  0.58003349  1
  O  O195  1  0.16429974  0.16267965  0.56824979  1
  O  O196  1  0.13968238  0.50580699  0.57813123  1
  O  O197  1  0.15256159  0.83678766  0.58284446  1
  O  O198  1  0.29813690  0.27455731  0.25887009  1
  O  O199  1  0.35399843  0.61560232  0.25652605  1
  O  O200  1  0.31707777  0.94306017  0.25193264  1
  O  O201  1  0.51637546  0.22951415  0.25256496  1
  O  O202  1  0.50531031  0.54964529  0.26720160  1
  O  O203  1  0.51777591  0.89702744  0.25229359  1
  O  O204  1  0.17340977  0.15832928  0.25076670  1
  O  O205  1  0.15607772  0.49693635  0.25457029  1
  O  O206  1  0.16538378  0.82874072  0.26756313  1
  O  O207  1  0.30146274  0.15850062  0.74991509  1
  O  O208  1  0.33300523  0.49668330  0.75431074  1
  O  O209  1  0.31961772  0.82940629  0.76514923  1
  O  O210  1  0.17266040  0.22960644  0.75257574  1
  O  O211  1  0.14217872  0.55017709  0.76933271  1
  O  O212  1  0.17337780  0.89695382  0.75183906  1
  O  O213  1  0.52553317  0.27459683  0.75897418  1
  O  O214  1  0.49180756  0.61558780  0.75627018  1
  O  O215  1  0.51289742  0.94363688  0.75182772  1
loop_
_geom_bond_atom_site_label_1
_geom_bond_atom_site_label_2
_geom_bond_distance
_geom_bond_site_symmetry_2
Na0 O110 2.425998 1_545
Na0 O114 2.458435 1_555
Na0 O113 2.466667 1_445
Na0 O126 2.522937 1_455
Na0 O129 2.545044 1_555
Na0 O134 2.645658 1_445
Na1 O132 2.410201 1_555
Na1 O115 2.443294 1_655
Na1 O111 2.462318 1_555
Na1 O108 2.621739 1_655
Na1 O130 2.721215 1_655
Na1 O127 2.809375 1_655
Na2 O128 2.374867 1_455
Na2 O131 2.434557 1_555
Na2 O133 2.514730 1_455
Na2 O109 2.542450 1_555
Na2 O112 2.611031 1_455
Na2 O116 2.787899 1_555
Na3 O125 2.360394 1_554
Na3 O138 2.453538 1_565
Na3 O137 2.497342 1_555
Na3 O117 2.573852 1_664
Na3 O122 2.598212 1_654
Na3 O141 2.627687 1_665
Na4 O135 2.403285 1_555
Na4 O118 2.440847 1_654
Na4 O120 2.477207 1_654
Na4 O123 2.635391 1_554
Na4 O139 2.712830 1_555
Na4 O142 2.802821 1_655
Na5 O143 2.312205 1_555
Na5 O136 2.424847 1_455
Na5 O140 2.449498 1_455
Na5 O121 2.607904 1_554
Na5 O124 2.629073 1_454
Na5 O119 2.856670 1_554
Na6 O150 2.363718 1_555
Na6 O144 2.435396 1_555
Na6 O147 2.468198 1_555
Na6 O165 2.571405 1_555
Na6 O162 2.634539 1_555
Na6 O168 2.693459 1_555
Na7 O169 2.316171 1_555
Na7 O166 2.408905 1_555
Na7 O145 2.577251 1_555
Na7 O151 2.583651 1_555
Na7 O163 2.590772 1_555
Na7 O148 2.606474 1_555
Na8 O164 2.305450 1_555
Na8 O149 2.408826 1_555
Na8 O152 2.428184 1_555
Na8 O146 2.641420 1_555
Na8 O167 2.645981 1_555
Na8 O170 2.775119 1_555
Na9 O153 2.356449 1_555
Na9 O159 2.413504 1_555
Na9 O156 2.459220 1_555
Na9 O174 2.601542 1_555
Na9 O177 2.691935 1_555
Na9 O171 2.693452 1_555
Na10 O172 2.323893 1_555
Na10 O175 2.407989 1_555
Na10 O178 2.579185 1_555
Na10 O154 2.587460 1_555
Na10 O160 2.605514 1_555
Na10 O157 2.605981 1_555
Na11 O179 2.351259 1_555
Na11 O158 2.451494 1_555
Na11 O155 2.481128 1_555
Na11 O161 2.566426 1_555
Na11 O176 2.637501 1_555
Na11 O173 2.710247 1_555
Na12 O186 2.388599 1_555
Na12 O201 2.461706 1_555
Na12 O204 2.547986 1_555
Na12 O198 2.608795 1_555
Na12 O183 2.740065 1_555
Na12 O180 2.742919 1_555
Na13 O205 2.500356 1_555
Na13 O181 2.524177 1_555
Na13 O184 2.556968 1_555
Na13 O199 2.582551 1_555
Na13 O202 2.639261 1_555
Na13 O187 2.642061 1_555
Na14 O182 2.451922 1_555
Na14 O200 2.455610 1_555
Na14 O203 2.482794 1_555
Na14 O185 2.497492 1_555
Na14 O188 2.735857 1_555
Na14 O206 2.758892 1_555
Na15 O189 2.388398 1_555
Na15 O210 2.459324 1_555
Na15 O207 2.533418 1_555
Na15 O213 2.599744 1_555
Na15 O192 2.741873 1_555
Na15 O195 2.756217 1_555
Na16 O196 2.474887 1_555
Na16 O193 2.506365 1_555
Na16 O208 2.517846 1_555
Na16 O190 2.597104 1_555
Na16 O214 2.606529 1_555
Na16 O211 2.738018 1_555
Na17 O215 2.415872 1_555
Na17 O194 2.441291 1_555
Na17 O197 2.508958 1_555
Na17 O212 2.547937 1_555
Na17 O209 2.586945 1_555
Na17 O191 2.830114 1_555
Na18 O48 2.320364 1_555
Na18 O156 2.339638 1_555
Na18 O200 2.419656 1_545
Na18 O159 2.536846 1_555
Na18 O203 2.575573 1_545
Na18 O95 2.725175 1_545
Na19 O199 2.400764 1_555
Na19 O158 2.487090 1_555
Na19 O28 2.510964 1_555
Na19 O8 2.690217 1_555
Na19 O202 2.768426 1_555
Na19 O94 2.769462 1_555
Na19 O50 2.782234 1_555
Na19 O161 2.827721 1_555
Na20 O159 2.312566 1_555
Na20 O51 2.376674 1_555
Na20 O201 2.515306 1_555
Na20 O204 2.518801 1_555
Na20 O153 2.527409 1_555
Na20 O96 2.580102 1_555
Na21 O161 2.495532 1_555
Na21 O206 2.523530 1_555
Na21 O203 2.582911 1_555
Na21 O155 2.620286 1_555
Na21 O53 2.630505 1_555
Na21 O32 2.705334 1_555
Na21 O98 2.857687 1_555
Na22 O45 2.334786 1_555
Na22 O153 2.398522 1_555
Na22 O156 2.496375 1_555
Na22 O198 2.525488 1_655
Na22 O204 2.547096 1_655
Na22 O90 2.803012 1_655
Na23 O154 2.432192 1_455
Na23 O205 2.461569 1_555
Na23 O34 2.610062 1_555
Na23 O46 2.706931 1_455
Na23 O157 2.741574 1_455
Na23 O91 2.747941 1_555
Na23 O199 2.751489 1_555
Na23 O4 2.881331 1_455
Na24 O42 2.333355 1_555
Na24 O150 2.399641 1_555
Na24 O147 2.503791 1_555
Na24 O213 2.519809 1_555
Na24 O207 2.557548 1_555
Na24 O105 2.797926 1_555
Na25 O151 2.425268 1_555
Na25 O208 2.459126 1_555
Na25 O19 2.591314 1_555
Na25 O43 2.637850 1_555
Na25 O148 2.717571 1_555
Na25 O214 2.764166 1_555
Na25 O106 2.782574 1_555
Na25 O13 2.924110 1_555
Na26 O144 2.308583 1_555
Na26 O36 2.391063 1_555
Na26 O210 2.500822 1_655
Na26 O150 2.507467 1_555
Na26 O207 2.519793 1_655
Na26 O99 2.531960 1_655
Na27 O146 2.479941 1_455
Na27 O209 2.502595 1_555
Na27 O212 2.551510 1_555
Na27 O152 2.592769 1_455
Na27 O38 2.693073 1_455
Na27 O23 2.770251 1_555
Na27 O101 2.840087 1_555
Na28 O39 2.328275 1_555
Na28 O147 2.338504 1_555
Na28 O215 2.414028 1_545
Na28 O144 2.522680 1_555
Na28 O212 2.588226 1_545
Na28 O104 2.751111 1_545
Na29 O214 2.384849 1_555
Na29 O25 2.462054 1_555
Na29 O149 2.495976 1_555
Na29 O41 2.610608 1_555
Na29 O211 2.770911 1_555
Na29 O11 2.807132 1_555
Na29 O146 2.841513 1_555
Na29 O103 2.896441 1_555
Na30 O195 2.488833 1_555
Na30 O129 2.575318 1_555
Na30 O192 2.576475 1_555
Na30 O42 2.634181 1_555
Na30 O21 2.675179 1_555
Na30 O63 2.709573 1_555
Na30 O126 2.806408 1_455
Na31 O85 2.414787 1_555
Na31 O127 2.520303 1_555
Na31 O193 2.523239 1_555
Na31 O64 2.598143 1_555
Na31 O130 2.603890 1_555
Na32 O23 2.303873 1_555
Na32 O131 2.367139 1_555
Na32 O197 2.504100 1_555
Na32 O128 2.511704 1_455
Na32 O194 2.573805 1_555
Na32 O86 2.757325 1_555
Na33 O36 2.519258 1_455
Na33 O24 2.540514 1_555
Na33 O130 2.548657 1_555
Na33 O189 2.599221 1_555
Na33 O132 2.633441 1_455
Na33 O195 2.719732 1_555
Na33 O66 2.825079 1_455
Na33 O87 2.959204 1_555
Na34 O133 2.398166 1_455
Na34 O25 2.406738 1_555
Na34 O196 2.479788 1_555
Na34 O131 2.511085 1_555
Na34 O190 2.704816 1_555
Na34 O88 2.961884 1_555
Na35 O134 2.473189 1_455
Na35 O197 2.495499 1_555
Na35 O89 2.511040 1_555
Na35 O129 2.521816 1_565
Na35 O191 2.528689 1_555
Na36 O70 2.446742 1_555
Na36 O81 2.494517 1_555
Na36 O192 2.542911 1_555
Na36 O132 2.546262 1_555
Na36 O189 2.622836 1_555
Na36 O127 2.773608 1_655
Na36 O40 2.951603 1_555
Na36 O18 2.996349 1_555
Na37 O19 2.332949 1_555
Na37 O128 2.368087 1_555
Na37 O133 2.395593 1_555
Na37 O190 2.493243 1_555
Na37 O193 2.555755 1_555
Na38 O126 2.489208 1_565
Na38 O191 2.516392 1_555
Na38 O194 2.657308 1_555
Na38 O39 2.690568 1_565
Na38 O134 2.723176 1_555
Na38 O20 2.726157 1_555
Na38 O69 2.856385 1_565
Na38 O83 2.865155 1_555
Na39 O55 2.468650 1_555
Na39 O78 2.504447 1_554
Na39 O135 2.536454 1_455
Na39 O183 2.536827 1_555
Na39 O186 2.616914 1_555
Na39 O142 2.779577 1_555
Na39 O49 2.934831 1_555
Na39 O33 2.967875 1_555
Na40 O34 2.294490 1_555
Na40 O143 2.363228 1_555
Na40 O136 2.431497 1_455
Na40 O187 2.498533 1_555
Na40 O184 2.590278 1_555
Na40 O50 2.955908 1_555
Na40 O79 2.963101 1_554
Na41 O141 2.477981 1_565
Na41 O188 2.490794 1_555
Na41 O185 2.623285 1_555
Na41 O137 2.628348 1_455
Na41 O35 2.662038 1_555
Na41 O48 2.713366 1_565
Na41 O80 2.862450 1_554
Na41 O54 2.920932 1_565
Na42 O51 2.471020 1_555
Na42 O27 2.543393 1_555
Na42 O139 2.553593 1_555
Na42 O186 2.611736 1_555
Na42 O135 2.637320 1_555
Na42 O180 2.721880 1_555
Na42 O57 2.822916 1_555
Na42 O72 2.983752 1_554
Na43 O28 2.368784 1_555
Na43 O136 2.411132 1_555
Na43 O181 2.485874 1_555
Na43 O140 2.517590 1_555
Na43 O187 2.689095 1_555
Na44 O180 2.485306 1_555
Na44 O138 2.500067 1_455
Na44 O30 2.583708 1_555
Na44 O183 2.606399 1_555
Na44 O45 2.629217 1_455
Na44 O60 2.758448 1_455
Na44 O141 2.780524 1_555
Na45 O76 2.465389 1_654
Na45 O142 2.505673 1_655
Na45 O184 2.522690 1_655
Na45 O139 2.594103 1_555
Na45 O61 2.604326 1_555
Na45 O46 2.851837 1_555
Na46 O32 2.314309 1_555
Na46 O140 2.390794 1_455
Na46 O182 2.434857 1_555
Na46 O143 2.538374 1_555
Na46 O185 2.550679 1_555
Na46 O77 2.733583 1_554
Na47 O58 2.303626 1_556
Na47 O166 2.390816 1_555
Na47 O163 2.481418 1_555
Na47 O121 2.560593 1_655
Na47 O124 2.611864 1_555
Na48 O61 2.298575 1_556
Na48 O169 2.449529 1_555
Na48 O123 2.495999 1_555
Na48 O166 2.568281 1_555
Na48 O118 2.580234 1_655
Na48 O16 2.760364 1_555
Na48 O72 2.953362 1_555
Na49 O167 2.392431 1_555
Na49 O124 2.444618 1_555
Na49 O170 2.496591 1_555
Na49 O119 2.596379 1_655
Na49 O62 2.662327 1_556
Na49 O17 2.739637 1_555
Na49 O73 2.906674 1_555
Na50 O163 2.371414 1_555
Na50 O55 2.415589 1_556
Na50 O169 2.501216 1_555
Na50 O118 2.541608 1_555
Na50 O10 2.542420 1_555
Na50 O120 2.560587 1_555
Na51 O178 2.354530 1_555
Na51 O70 2.432114 1_555
Na51 O172 2.511260 1_555
Na51 O115 2.547258 1_655
Na51 O7 2.555320 1_555
Na51 O111 2.583940 1_555
Na52 O64 2.305024 1_555
Na52 O172 2.446615 1_555
Na52 O108 2.501820 1_555
Na52 O175 2.540997 1_555
Na52 O115 2.572651 1_555
Na52 O1 2.754240 1_555
Na53 O67 2.323155 1_555
Na53 O175 2.412523 1_555
Na53 O178 2.484995 1_555
Na53 O109 2.527630 1_655
Na53 O112 2.542481 1_555
Ca0 O19 2.247777 1_455
Ca0 O23 2.252011 1_555
Ca0 O133 2.258993 1_455
Ca0 O25 2.304084 1_555
Ca0 O131 2.355838 1_555
Ca0 O128 2.398346 1_455
Ca1 O34 2.244999 1_555
Ca1 O32 2.251719 1_555
Ca1 O136 2.270785 1_455
Ca1 O28 2.306801 1_455
Ca1 O140 2.378760 1_455
Ca1 O143 2.409618 1_555
Ca2 O39 2.258596 1_555
Ca2 O42 2.276040 1_555
Ca2 O36 2.287930 1_555
Ca2 O147 2.350043 1_555
Ca2 O144 2.356478 1_555
Ca2 O150 2.364797 1_555
Ca3 O48 2.254962 1_555
Ca3 O45 2.278072 1_555
Ca3 O51 2.293233 1_555
Ca3 O156 2.353749 1_555
Ca3 O159 2.362354 1_555
Ca3 O153 2.377472 1_555
Ca4 O58 2.162176 1_556
Ca4 O61 2.269295 1_556
Ca4 O55 2.292902 1_556
Ca4 O169 2.350557 1_555
Ca4 O163 2.353670 1_555
Ca4 O166 2.407493 1_555
Ca5 O67 2.159005 1_555
Ca5 O64 2.279613 1_555
Ca5 O70 2.297207 1_555
Ca5 O172 2.345617 1_555
Ca5 O178 2.345961 1_555
Ca5 O175 2.399705 1_555
O0 Si0 1.634173 1_555
O0 Ta0 1.926522 1_455
O1 Si1 1.652911 1_555
O1 Ta1 1.998312 1_555
O2 Si2 1.665656 1_555
O2 Ta2 1.962296 1_555
O3 Si3 1.651837 1_555
O3 Ta1 1.887586 1_655
O4 Si4 1.669466 1_555
O4 Ta2 2.028249 1_655
O5 Si5 1.625319 1_555
O5 Ta0 1.981938 1_555
O6 Si6 1.639068 1_555
O6 Ta0 1.939193 1_445
O7 Si7 1.645915 1_555
O7 Ta1 1.991188 1_655
O8 Si8 1.666971 1_655
O8 Ta2 1.989666 1_655
O9 Si9 1.631887 1_555
O9 Ta3 1.943654 1_445
O10 Si10 1.642273 1_555
O10 Ta4 1.998895 1_555
O11 Si11 1.678735 1_555
O11 Ta5 1.957950 1_455
O12 Si12 1.650795 1_555
O12 Ta4 1.886243 1_555
O13 Si13 1.681647 1_555
O13 Ta5 1.998148 1_555
O14 Si14 1.620443 1_655
O14 Ta3 2.001014 1_555
O15 Si15 1.623905 1_555
O15 Ta3 1.938138 1_555
O16 Si16 1.653079 1_555
O16 Ta4 2.000466 1_655
O17 Si17 1.671761 1_555
O17 Ta5 1.991706 1_555
O18 Si16 1.653080 1_555
O18 Ta7 1.957500 1_655
O19 Si17 1.593498 1_555
O20 Si15 1.683944 1_555
O20 Ta6 1.933445 1_555
O21 Si9 1.686114 1_555
O21 Ta6 1.939908 1_445
O22 Si10 1.645225 1_555
O22 Ta7 1.925447 1_555
O23 Si11 1.599149 1_555
O24 Si12 1.655486 1_555
O24 Ta7 1.962001 1_555
O25 Si13 1.611094 1_455
O26 Si14 1.662654 1_555
O26 Ta6 1.948397 1_455
O27 Si3 1.656177 1_555
O27 Ta9 1.957532 1_555
O28 Si4 1.611896 1_555
O29 Si5 1.655427 1_555
O29 Ta8 1.925324 1_555
O30 Si6 1.672216 1_555
O30 Ta8 1.971934 1_445
O31 Si7 1.647380 1_455
O31 Ta9 1.926566 1_455
O32 Si8 1.600277 1_555
O33 Si1 1.652082 1_555
O33 Ta9 1.957002 1_455
O34 Si2 1.595383 1_555
O35 Si0 1.669902 1_555
O35 Ta8 1.960526 1_455
O36 Si18 1.605331 1_555
O37 Si19 1.661630 1_555
O37 Ta10 1.964708 1_555
O38 Si20 1.678633 1_555
O38 Ta11 1.966780 1_555
O39 Si21 1.598650 1_555
O40 Si22 1.658162 1_555
O40 Ta10 1.967483 1_555
O41 Si23 1.681952 1_555
O41 Ta11 1.974595 1_555
O42 Si24 1.602408 1_555
O43 Si25 1.691609 1_555
O43 Ta10 1.987142 1_555
O44 Si26 1.660765 1_555
O44 Ta11 1.942206 1_555
O45 Si27 1.601095 1_555
O46 Si28 1.683249 1_555
O46 Ta12 1.990705 1_555
O47 Si29 1.653634 1_555
O47 Ta13 1.930548 1_555
O48 Si30 1.602683 1_555
O49 Si31 1.656457 1_555
O49 Ta12 1.977380 1_555
O50 Si32 1.670489 1_555
O50 Ta13 1.989960 1_555
O51 Si33 1.607912 1_555
O52 Si34 1.657207 1_555
O52 Ta12 1.972623 1_555
O53 Si35 1.663529 1_555
O53 Ta13 1.961150 1_555
O54 Si33 1.646018 1_555
O54 Ta14 1.988654 1_554
O55 Si34 1.607670 1_555
O56 Si35 1.646551 1_555
O56 Ta15 1.901614 1_554
O57 Si27 1.647163 1_555
O57 Ta14 2.015238 1_554
O58 Si28 1.595232 1_555
O59 Si29 1.638453 1_555
O59 Ta15 1.949151 1_554
O60 Si30 1.659197 1_555
O60 Ta14 1.984153 1_554
O61 Si31 1.600239 1_555
O62 Si32 1.645550 1_555
O62 Ta15 1.968601 1_554
O63 Si21 1.649451 1_555
O63 Ta16 2.003706 1_555
O64 Si22 1.596846 1_555
O65 Si23 1.633681 1_555
O65 Ta17 1.937583 1_555
O66 Si24 1.647628 1_555
O66 Ta16 2.012367 1_555
O67 Si25 1.589163 1_555
O68 Si26 1.621427 1_555
O68 Ta17 2.016679 1_555
O69 Si18 1.643722 1_555
O69 Ta16 2.005884 1_555
O70 Si19 1.605087 1_555
O71 Si20 1.629870 1_555
O71 Ta17 1.957183 1_555
O72 Si36 1.651968 1_555
O72 Ta18 1.963651 1_556
O73 Si37 1.675860 1_555
O73 Ta19 1.982234 1_556
O74 Si38 1.636747 1_555
O74 Ta20 1.910995 1_556
O75 Si39 1.657674 1_555
O75 Ta18 1.914106 1_556
O76 Si40 1.672895 1_555
O76 Ta19 1.974758 1_556
O77 Si41 1.640730 1_555
O77 Ta20 1.993911 1_556
O78 Si42 1.652853 1_555
O78 Ta18 1.967873 1_556
O79 Si43 1.666824 1_555
O79 Ta19 1.978483 1_556
O80 Si44 1.645542 1_555
O80 Ta20 1.966705 1_556
O81 Si45 1.658593 1_555
O81 Ta21 1.959515 1_555
O82 Si46 1.669060 1_555
O82 Ta22 1.956025 1_555
O83 Si47 1.665251 1_555
O83 Ta23 1.939113 1_555
O84 Si48 1.660820 1_555
O84 Ta21 1.915496 1_555
O85 Si49 1.675291 1_555
O85 Ta22 1.976180 1_555
O86 Si50 1.665335 1_555
O86 Ta23 1.951070 1_555
O87 Si51 1.654141 1_555
O87 Ta21 1.958678 1_555
O88 Si52 1.678712 1_555
O88 Ta22 1.951907 1_555
O89 Si53 1.656622 1_555
O89 Ta23 1.937041 1_555
O90 Si51 1.645534 1_555
O90 Ta24 1.994221 1_555
O91 Si52 1.638819 1_555
O91 Ta25 1.940304 1_555
O92 Si53 1.638689 1_555
O92 Ta26 1.912054 1_555
O93 Si45 1.642367 1_555
O93 Ta24 1.896404 1_555
O94 Si46 1.637719 1_555
O94 Ta25 1.979018 1_555
O95 Si47 1.644479 1_555
O95 Ta26 1.980727 1_555
O96 Si48 1.644879 1_555
O96 Ta24 1.983470 1_555
O97 Si49 1.646191 1_555
O97 Ta25 1.909950 1_555
O98 Si50 1.636464 1_555
O98 Ta26 1.981593 1_555
O99 Si39 1.650595 1_555
O99 Ta27 1.982740 1_555
O100 Si40 1.652314 1_555
O100 Ta28 1.904159 1_555
O101 Si41 1.637081 1_555
O101 Ta29 1.976211 1_555
O102 Si42 1.644920 1_555
O102 Ta27 1.891428 1_555
O103 Si43 1.640378 1_555
O103 Ta28 1.992213 1_555
O104 Si44 1.657152 1_555
O104 Ta29 1.960789 1_555
O105 Si36 1.650357 1_555
O105 Ta27 1.989034 1_555
O106 Si37 1.643319 1_555
O106 Ta28 1.951825 1_555
O107 Si38 1.640055 1_555
O107 Ta29 1.908300 1_555
O108 Si51 1.650690 1_555
O108 Ta1 2.039745 1_555
O109 Si52 1.650894 1_555
O109 Ta2 2.031234 1_555
O110 Si53 1.625957 1_555
O110 Ta0 2.032702 1_455
O111 Si45 1.649413 1_555
O111 Ta1 2.018858 1_655
O112 Si46 1.639006 1_555
O112 Ta2 2.061362 1_655
O113 Si47 1.630251 1_555
O113 Ta0 2.040573 1_555
O114 Si48 1.634237 1_555
O114 Ta0 2.045636 1_445
O115 Si49 1.659073 1_555
O115 Ta1 2.067683 1_555
O116 Si50 1.638198 1_555
O116 Ta2 1.983351 1_555
O117 Si39 1.636165 1_555
O117 Ta3 2.024047 1_445
O118 Si40 1.656089 1_555
O118 Ta4 2.071371 1_555
O119 Si41 1.658050 1_555
O119 Ta5 2.004515 1_455
O120 Si42 1.649925 1_555
O120 Ta4 2.016837 1_555
O121 Si43 1.643212 1_555
O121 Ta5 2.040818 1_455
O122 Si44 1.634846 1_555
O122 Ta3 2.009344 1_455
O123 Si36 1.654378 1_555
O123 Ta4 2.028741 1_655
O124 Si37 1.662451 1_555
O124 Ta5 2.077030 1_555
O125 Si38 1.621692 1_555
O125 Ta3 2.026212 1_555
O126 Si18 1.664909 1_555
O126 Ta6 2.046341 1_545
O127 Si19 1.662896 1_455
O127 Ta7 2.007211 1_555
O128 Si20 1.592985 1_555
O129 Si21 1.666414 1_555
O129 Ta6 2.071585 1_445
O130 Si22 1.646686 1_555
O130 Ta7 1.990919 1_555
O131 Si23 1.596334 1_555
O132 Si24 1.659505 1_555
O132 Ta7 2.085056 1_655
O133 Si25 1.609766 1_555
O134 Si26 1.648977 1_555
O134 Ta6 2.082538 1_555
O135 Si27 1.663100 1_555
O135 Ta9 2.085019 1_555
O136 Si28 1.605851 1_555
O137 Si29 1.638632 1_555
O137 Ta8 2.046732 1_555
O138 Si30 1.655281 1_555
O138 Ta8 2.036274 1_545
O139 Si31 1.646391 1_555
O139 Ta9 1.989237 1_555
O140 Si32 1.597237 1_555
O141 Si33 1.651828 1_555
O141 Ta8 2.062100 1_445
O142 Si34 1.660122 1_555
O142 Ta9 2.014201 1_455
O143 Si35 1.597859 1_555
O144 Si15 1.598607 1_545
O145 Si16 1.629809 1_555
O145 Ta10 2.013337 1_555
O146 Si17 1.656829 1_555
O146 Ta11 2.055109 1_555
O147 Si9 1.595649 1_555
O148 Si10 1.635275 1_555
O148 Ta10 2.049713 1_555
O149 Si11 1.652645 1_555
O149 Ta11 2.044910 1_555
O150 Si12 1.596826 1_655
O151 Si13 1.637383 1_555
O151 Ta10 2.043017 1_555
O152 Si14 1.648702 1_655
O152 Ta11 2.034856 1_555
O153 Si3 1.596232 1_555
O154 Si4 1.646222 1_555
O154 Ta12 2.028002 1_555
O155 Si5 1.646134 1_555
O155 Ta13 2.026767 1_555
O156 Si6 1.599326 1_655
O157 Si7 1.637018 1_555
O157 Ta12 2.043350 1_555
O158 Si8 1.656371 1_655
O158 Ta13 2.031991 1_555
O159 Si0 1.602369 1_545
O160 Si1 1.628563 1_555
O160 Ta12 2.008235 1_555
O161 Si2 1.655846 1_555
O161 Ta13 2.060884 1_555
O162 Si36 1.621321 1_555
O162 Ta14 2.018184 1_555
O163 Si37 1.593075 1_555
O164 Si38 1.639779 1_555
O164 Ta15 1.997003 1_555
O165 Si39 1.636112 1_655
O165 Ta14 2.013768 1_555
O166 Si40 1.593116 1_655
O167 Si41 1.649861 1_655
O167 Ta15 2.073518 1_555
O168 Si44 1.638225 1_545
O168 Ta14 1.989101 1_555
O169 Si42 1.598878 1_555
O170 Si43 1.634277 1_555
O170 Ta15 2.099277 1_555
O171 Si47 1.639651 1_545
O171 Ta16 1.984074 1_555
O172 Si45 1.596700 1_555
O173 Si46 1.634175 1_555
O173 Ta17 2.009105 1_555
O174 Si48 1.640722 1_555
O174 Ta16 2.000731 1_555
O175 Si49 1.590979 1_555
O176 Si50 1.638516 1_555
O176 Ta17 2.006481 1_555
O177 Si51 1.625539 1_655
O177 Ta16 2.000330 1_555
O178 Si52 1.602381 1_655
O179 Si53 1.632706 1_655
O179 Ta17 2.019232 1_555
O180 Si33 1.659979 1_555
O180 Ta18 1.996852 1_555
O181 Si34 1.659503 1_555
O181 Ta19 2.053105 1_555
O182 Si35 1.651851 1_555
O182 Ta20 2.023013 1_555
O183 Si27 1.650062 1_455
O183 Ta18 1.983478 1_555
O184 Si28 1.696792 1_455
O184 Ta19 2.016407 1_555
O185 Si29 1.645337 1_455
O185 Ta20 2.122130 1_555
O186 Si31 1.648878 1_555
O186 Ta18 2.106074 1_555
O187 Si32 1.664374 1_555
O187 Ta19 2.031769 1_555
O188 Si30 1.643080 1_565
O188 Ta20 1.956880 1_555
O189 Si22 1.651253 1_555
O189 Ta21 2.105858 1_555
O190 Si23 1.657497 1_555
O190 Ta22 2.041262 1_555
O191 Si21 1.653144 1_565
O191 Ta23 1.999936 1_555
O192 Si24 1.649744 1_555
O192 Ta21 1.985723 1_555
O193 Si25 1.690396 1_555
O193 Ta22 2.047449 1_555
O194 Si26 1.645601 1_555
O194 Ta23 2.108852 1_555
O195 Si18 1.655332 1_455
O195 Ta21 2.007934 1_555
O196 Si19 1.654177 1_455
O196 Ta22 2.072074 1_555
O197 Si20 1.668070 1_455
O197 Ta23 2.070987 1_555
O198 Si1 1.650571 1_555
O198 Ta24 2.057942 1_555
O199 Si2 1.660722 1_555
O199 Ta25 2.039181 1_555
O200 Si0 1.660145 1_555
O200 Ta26 2.012127 1_555
O201 Si3 1.652800 1_555
O201 Ta24 2.024969 1_555
O202 Si4 1.647528 1_555
O202 Ta25 1.958250 1_555
O203 Si5 1.649780 1_555
O203 Ta26 2.133942 1_555
O204 Si6 1.663804 1_555
O204 Ta24 2.045747 1_555
O205 Si7 1.656712 1_455
O205 Ta25 2.088466 1_555
O206 Si8 1.636787 1_555
O206 Ta26 1.962946 1_555
O207 Si9 1.657832 1_555
O207 Ta27 2.057343 1_555
O208 Si10 1.663913 1_555
O208 Ta28 2.070711 1_555
O209 Si11 1.630836 1_555
O209 Ta29 1.984256 1_555
O210 Si12 1.651871 1_555
O210 Ta27 2.027834 1_555
O211 Si13 1.645752 1_455
O211 Ta28 1.950378 1_555
O212 Si14 1.649913 1_555
O212 Ta29 2.139106 1_555
O213 Si16 1.651122 1_555
O213 Ta27 2.058616 1_555
O214 Si17 1.661893 1_555
O214 Ta28 2.049750 1_555
O215 Si15 1.656016 1_555
O215 Ta29 2.017247 1_555
