# generated using pymatgen
data_Na6CaTi3Si4(SO12)2
_symmetry_space_group_name_H-M   'P 1'
_cell_length_a   9.07474051
_cell_length_b   9.05526023
_cell_length_c   22.47096490
_cell_angle_alpha   90.60759077
_cell_angle_beta   89.78445514
_cell_angle_gamma   120.12967143
_symmetry_Int_Tables_number   1
_chemical_formula_structural   Na6CaTi3Si4(SO12)2
_chemical_formula_sum   'Na18 Ca3 Ti9 Si12 S6 O72'
_cell_volume   1596.95772362
_cell_formula_units_Z   3
loop_
 _symmetry_equiv_pos_site_id
 _symmetry_equiv_pos_as_xyz
  1  'x, y, z'
loop_
 _atom_site_type_symbol
 _atom_site_label
 _atom_site_symmetry_multiplicity
 _atom_site_fract_x
 _atom_site_fract_y
 _atom_site_fract_z
 _atom_site_occupancy
  Na  Na0  1  0.99371645  0.36212086  0.75505995  1
  Na  Na1  1  0.39190249  0.01235007  0.74865807  1
  Na  Na2  1  0.32196393  0.34021772  0.58453660  1
  Na  Na3  1  0.03005088  0.70276121  0.57673120  1
  Na  Na4  1  0.65516752  0.96912535  0.58828113  1
  Na  Na5  1  0.32185776  0.97964241  0.08613402  1
  Na  Na6  1  0.65226640  0.67743463  0.08677936  1
  Na  Na7  1  0.02666157  0.34394299  0.08701802  1
  Na  Na8  1  0.33555331  0.29695928  0.92292744  1
  Na  Na9  1  0.96151220  0.28808536  0.41514547  1
  Na  Na10  1  0.32184424  0.03179198  0.41476209  1
  Na  Na11  1  0.71380169  0.67979793  0.41473088  1
  Na  Na12  1  0.00146306  0.99651688  0.49594159  1
  Na  Na13  1  0.99254938  0.98744025  0.99483596  1
  Na  Na14  1  0.66449305  0.32622959  0.83594606  1
  Na  Na15  1  0.66934583  0.33259740  0.32735077  1
  Na  Na16  1  0.33560888  0.66580614  0.16905514  1
  Na  Na17  1  0.36513089  0.67082460  0.67001729  1
  Ca  Ca0  1  0.00069937  0.99917642  0.35129367  1
  Ca  Ca1  1  0.65525786  0.33392748  0.68751995  1
  Ca  Ca2  1  0.66537052  0.33247094  0.18078742  1
  Ti  Ti0  1  0.00917679  0.02367855  0.85619628  1
  Ti  Ti1  1  0.99626261  0.00000731  0.64993355  1
  Ti  Ti2  1  0.00315437  0.00231256  0.14032574  1
  Ti  Ti3  1  0.67352579  0.31627351  0.98287405  1
  Ti  Ti4  1  0.64840526  0.34027122  0.47694598  1
  Ti  Ti5  1  0.31778696  0.66758182  0.01736584  1
  Ti  Ti6  1  0.34459055  0.68052162  0.51616491  1
  Ti  Ti7  1  0.33099093  0.66607903  0.32012474  1
  Ti  Ti8  1  0.34082650  0.67230972  0.81608613  1
  Si  Si0  1  0.28690622  0.29675136  0.75260300  1
  Si  Si1  1  0.71034125  0.98815583  0.75383379  1
  Si  Si2  1  0.36836570  0.03470319  0.58398325  1
  Si  Si3  1  0.66452782  0.63410975  0.58209803  1
  Si  Si4  1  0.95721820  0.62220801  0.08150406  1
  Si  Si5  1  0.66034628  0.02819457  0.08256304  1
  Si  Si6  1  0.37530375  0.34039145  0.07940638  1
  Si  Si7  1  0.03723300  0.38423286  0.91463964  1
  Si  Si8  1  0.33401517  0.95999326  0.91537684  1
  Si  Si9  1  0.61768284  0.96397122  0.41716551  1
  Si  Si10  1  0.33712947  0.38658779  0.41909093  1
  Si  Si11  1  0.03864599  0.65271636  0.41966556  1
  S  S0  1  0.29443534  0.98747463  0.24984147  1
  S  S1  1  0.69227696  0.70567587  0.25000175  1
  S  S2  1  0.01223665  0.30547165  0.25030931  1
  S  S3  1  0.01073160  0.72194118  0.75151595  1
  S  S4  1  0.96581090  0.33208204  0.58323910  1
  S  S5  1  0.62523655  0.66817605  0.91545527  1
  O  O0  1  0.21604168  -0.00124230  0.30598015  1
  O  O1  1  0.78092058  0.78594754  0.30620263  1
  O  O2  1  0.00201723  0.21663981  0.30606974  1
  O  O3  1  0.17942590  0.17821066  0.81065591  1
  O  O4  1  0.99722854  0.81031112  0.80421118  1
  O  O5  1  0.83338391  -0.00339657  0.80858782  1
  O  O6  1  0.80506418  0.97100307  0.69086570  1
  O  O7  1  0.16236450  0.18855759  0.69325641  1
  O  O8  1  0.02154452  0.81698734  0.69496330  1
  O  O9  1  0.79063508  0.81112618  0.19717558  1
  O  O10  1  0.02030312  0.20608830  0.19706403  1
  O  O11  1  0.18806726  0.97997785  0.19686110  1
  O  O12  1  0.89524467  0.36020508  0.63832476  1
  O  O13  1  0.48444814  0.08851266  0.64246094  1
  O  O14  1  0.61154318  0.50949132  0.63681157  1
  O  O15  1  0.91017019  0.50302739  0.13775576  1
  O  O16  1  0.59030232  0.08438341  0.13742824  1
  O  O17  1  0.49632217  0.40381806  0.13599532  1
  O  O18  1  0.45678987  0.28920205  0.02202218  1
  O  O19  1  0.82055053  0.52883718  0.02611598  1
  O  O20  1  0.70978114  0.16784497  0.02677561  1
  O  O21  1  0.47107064  0.17034329  0.52712143  1
  O  O22  1  0.69809829  0.53843560  0.52255044  1
  O  O23  1  0.85842170  0.30957842  0.53052024  1
  O  O24  1  0.54669335  0.68808927  0.97008419  1
  O  O25  1  0.16380530  0.47363163  0.97146925  1
  O  O26  1  0.31675685  0.84124475  0.97219031  1
  O  O27  1  0.52111841  0.84673980  0.47561703  1
  O  O28  1  0.32181980  0.48072076  0.47875175  1
  O  O29  1  0.15409873  0.66968190  0.47757958  1
  O  O30  1  0.13874591  0.62917710  0.36050561  1
  O  O31  1  0.48964342  0.86239317  0.35974294  1
  O  O32  1  0.36799545  0.51117800  0.36096151  1
  O  O33  1  0.13951715  0.49833939  0.85540213  1
  O  O34  1  0.35593021  0.86025050  0.85580890  1
  O  O35  1  0.51284989  0.64949742  0.86257210  1
  O  O36  1  0.01995861  0.82021214  0.41821514  1
  O  O37  1  0.80265050  0.98187770  0.41735893  1
  O  O38  1  0.17609631  0.19729131  0.41794442  1
  O  O39  1  0.02165597  0.19136725  0.91071070  1
  O  O40  1  0.16414160  0.98254677  0.90973836  1
  O  O41  1  0.79792672  0.81798930  0.91005398  1
  O  O42  1  0.97626073  0.17098700  0.58634872  1
  O  O43  1  0.18134079  0.02559144  0.58990558  1
  O  O44  1  0.84292208  0.82263087  0.58813736  1
  O  O45  1  0.97380407  0.81543720  0.09295647  1
  O  O46  1  0.84162251  0.02311835  0.09357262  1
  O  O47  1  0.18250629  0.15942480  0.09336009  1
  O  O48  1  0.70601357  0.16400405  0.75466735  1
  O  O49  1  0.46243242  0.29713923  0.75606699  1
  O  O50  1  0.86692676  0.54591226  0.74897289  1
  O  O51  1  0.67207803  0.53434952  0.24786680  1
  O  O52  1  0.86171095  0.32557132  0.24782995  1
  O  O53  1  0.46575876  0.13825803  0.24788695  1
  O  O54  1  0.63041684  0.50723287  0.91573193  1
  O  O55  1  0.84857963  0.36277060  0.92268284  1
  O  O56  1  0.50264846  0.15269356  0.92177369  1
  O  O57  1  0.62743425  0.14890456  0.42338656  1
  O  O58  1  0.51450044  0.37456170  0.42123731  1
  O  O59  1  0.85173381  0.47640845  0.42381209  1
  O  O60  1  0.32963423  0.49138370  0.06665037  1
  O  O61  1  0.15753914  0.67199116  0.06833878  1
  O  O62  1  0.51264716  0.83325951  0.06564044  1
  O  O63  1  0.32820000  0.83703803  0.57227958  1
  O  O64  1  0.50232635  0.66757038  0.57405302  1
  O  O65  1  0.14244153  0.48027538  0.57813355  1
  O  O66  1  0.30033647  0.82473054  0.24930456  1
  O  O67  1  0.52252057  0.69735070  0.24992991  1
  O  O68  1  0.17445357  0.47521594  0.25024733  1
  O  O69  1  0.29010841  0.47957793  0.75468028  1
  O  O70  1  0.17326301  0.71526114  0.75135144  1
  O  O71  1  0.51594891  0.82080572  0.75755556  1
loop_
_geom_bond_atom_site_label_1
_geom_bond_atom_site_label_2
_geom_bond_distance
_geom_bond_site_symmetry_2
Na0 O48 2.309243 1_555
Na0 O69 2.343878 1_655
Na0 O50 2.457800 1_555
Na0 O33 2.584801 1_655
Na0 O70 2.767928 1_655
Na0 O12 2.771438 1_555
Na1 O49 2.328616 1_555
Na1 O70 2.412791 1_545
Na1 O48 2.469509 1_555
Na1 O71 2.506945 1_545
Na1 O13 2.512764 1_555
Na1 O34 2.722864 1_545
Na2 O43 2.473088 1_555
Na2 O65 2.522515 1_555
Na2 O14 2.564418 1_555
Na2 O64 2.581172 1_555
Na2 O28 2.708341 1_555
Na2 O42 2.714011 1_455
Na2 O21 2.809987 1_555
Na2 O7 2.828396 1_555
Na3 O63 2.346639 1_555
Na3 O44 2.443132 1_455
Na3 O43 2.544368 1_565
Na3 O29 2.574209 1_555
Na3 O65 2.676665 1_555
Na3 O8 2.855643 1_555
Na3 O22 2.874035 1_455
Na4 O64 2.380136 1_555
Na4 O42 2.547003 1_565
Na4 O13 2.586583 1_565
Na4 O63 2.607663 1_555
Na4 O44 2.632807 1_555
Na4 O6 2.676565 1_555
Na4 O27 2.779852 1_555
Na5 O16 2.416801 1_565
Na5 O61 2.440267 1_555
Na5 O47 2.517032 1_565
Na5 O62 2.692910 1_555
Na5 O45 2.738046 1_455
Na5 O11 2.765096 1_555
Na5 O26 2.828974 1_554
Na5 O18 2.838836 1_565
Na6 O62 2.373922 1_555
Na6 O17 2.427119 1_555
Na6 O45 2.536460 1_555
Na6 O60 2.580090 1_555
Na6 O46 2.714116 1_565
Na6 O9 2.762219 1_555
Na6 O24 2.814327 1_554
Na6 O19 2.830079 1_555
Na7 O60 2.422714 1_555
Na7 O15 2.444894 1_455
Na7 O46 2.528057 1_455
Na7 O61 2.625223 1_555
Na7 O47 2.681609 1_555
Na7 O10 2.769229 1_555
Na7 O20 2.832753 1_455
Na7 O25 2.871041 1_554
Na8 O54 2.387464 1_555
Na8 O56 2.448306 1_555
Na8 O40 2.480505 1_545
Na8 O18 2.504620 1_556
Na8 O39 2.523837 1_555
Na8 O3 2.822817 1_555
Na8 O25 2.937981 1_555
Na9 O59 2.373913 1_555
Na9 O37 2.399693 1_545
Na9 O38 2.465999 1_655
Na9 O2 2.599918 1_655
Na9 O57 2.641706 1_555
Na9 O23 2.790770 1_555
Na9 O30 2.951721 1_655
Na10 O57 2.428956 1_555
Na10 O36 2.431886 1_545
Na10 O38 2.446894 1_555
Na10 O0 2.588516 1_555
Na10 O58 2.693754 1_555
Na10 O21 2.834700 1_555
Na10 O31 2.913899 1_545
Na11 O36 2.407250 1_655
Na11 O37 2.432865 1_555
Na11 O58 2.433129 1_555
Na11 O1 2.587108 1_555
Na11 O59 2.706408 1_555
Na11 O22 2.721938 1_555
Na11 O32 2.969518 1_555
Na12 O36 2.415610 1_555
Na12 O38 2.458225 1_565
Na12 O37 2.483881 1_455
Na12 O44 2.571727 1_455
Na12 O43 2.602850 1_565
Na12 O42 2.639434 1_465
Na13 O40 2.475554 1_655
Na13 O41 2.519117 1_555
Na13 O39 2.575631 1_665
Na13 O45 2.668386 1_556
Na13 O46 2.703528 1_566
Na13 O47 2.749341 1_666
Na14 O56 2.464146 1_555
Na14 O48 2.475738 1_555
Na14 O55 2.480909 1_555
Na14 O49 2.486636 1_555
Na14 O54 2.537469 1_555
Na14 O50 2.745588 1_555
Na15 O52 2.515960 1_555
Na15 O53 2.528403 1_555
Na15 O51 2.559634 1_555
Na15 O59 2.633815 1_555
Na15 O57 2.646389 1_555
Na15 O58 2.658309 1_555
Na16 O67 2.405637 1_555
Na16 O66 2.414199 1_555
Na16 O68 2.441070 1_555
Na16 O60 2.762368 1_555
Na16 O61 2.803123 1_555
Na16 O62 2.807406 1_555
Na17 O71 2.384231 1_555
Na17 O69 2.440991 1_555
Na17 O64 2.493254 1_555
Na17 O70 2.682847 1_555
Na17 O65 2.789157 1_555
Na17 O63 2.789850 1_555
Ca0 O1 2.200060 1_455
Ca0 O0 2.201820 1_565
Ca0 O2 2.220195 1_565
Ca0 O38 2.255940 1_565
Ca0 O37 2.271725 1_455
Ca0 O36 2.292635 1_555
Ca1 O14 2.158262 1_555
Ca1 O13 2.207345 1_555
Ca1 O49 2.225061 1_555
Ca1 O12 2.342815 1_555
Ca1 O50 2.354443 1_555
Ca1 O48 2.371158 1_555
Ca2 O17 2.191863 1_555
Ca2 O15 2.196918 1_555
Ca2 O16 2.209599 1_555
Ca2 O51 2.334123 1_555
Ca2 O53 2.342026 1_555
Ca2 O52 2.362629 1_555
O0 S0 1.473558 1_545
O1 S1 1.473600 1_555
O2 S2 1.473516 1_555
O3 Si0 1.665634 1_555
O3 Ti0 1.800097 1_555
O4 S3 1.461072 1_655
O4 Ti0 2.202752 1_665
O5 Si1 1.639823 1_545
O5 Ti0 1.834156 1_655
O6 Si1 1.698626 1_555
O6 Ti1 1.860404 1_565
O7 Si0 1.699300 1_555
O7 Ti1 1.878035 1_455
O8 S3 1.517487 1_555
O8 Ti1 2.059649 1_465
O9 S1 1.509308 1_555
O9 Ti2 2.241641 1_665
O10 S2 1.513090 1_555
O10 Ti2 2.172092 1_555
O11 S0 1.514869 1_555
O11 Ti2 2.198370 1_565
O12 S4 1.469085 1_555
O13 Si2 1.598554 1_555
O14 Si3 1.580015 1_555
O15 Si4 1.583368 1_555
O16 Si5 1.577455 1_555
O17 Si6 1.585787 1_555
O18 Si6 1.657916 1_555
O18 Ti3 2.051797 1_554
O19 Si4 1.654899 1_555
O19 Ti3 1.954773 1_554
O20 Si5 1.682785 1_555
O20 Ti3 1.833697 1_554
O21 Si2 1.698522 1_555
O21 Ti4 1.940592 1_555
O22 Si3 1.694455 1_555
O22 Ti4 1.904103 1_555
O23 S4 1.482840 1_555
O23 Ti4 2.390588 1_555
O24 S5 1.471464 1_555
O24 Ti5 2.253590 1_556
O25 Si7 1.631272 1_555
O25 Ti5 1.899847 1_556
O26 Si8 1.633763 1_555
O26 Ti5 1.884737 1_556
O27 Si9 1.645301 1_555
O27 Ti6 1.805377 1_555
O28 Si10 1.623712 1_555
O28 Ti6 1.901735 1_555
O29 Si11 1.630741 1_555
O29 Ti6 1.894417 1_555
O30 Si11 1.678432 1_555
O30 Ti7 1.840609 1_555
O31 Si9 1.665615 1_555
O31 Ti7 1.852618 1_555
O32 Si10 1.663959 1_555
O32 Ti7 1.850622 1_555
O33 Si7 1.660760 1_555
O33 Ti8 1.930739 1_555
O34 Si8 1.673234 1_555
O34 Ti8 1.856440 1_555
O35 S5 1.520718 1_555
O35 Ti8 1.977711 1_555
O36 Si11 1.609211 1_555
O37 Si9 1.603306 1_555
O38 Si10 1.599693 1_555
O39 Si7 1.681321 1_555
O39 Ti0 1.899507 1_555
O40 Si8 1.658990 1_555
O40 Ti0 2.027787 1_565
O41 S5 1.476053 1_555
O41 Ti0 2.248248 1_665
O42 S4 1.510939 1_555
O42 Ti1 2.191478 1_555
O43 Si2 1.662217 1_555
O43 Ti1 2.071948 1_455
O44 Si3 1.666049 1_555
O44 Ti1 2.041539 1_565
O45 Si4 1.696121 1_555
O45 Ti2 1.891816 1_665
O46 Si5 1.687801 1_555
O46 Ti2 1.892356 1_655
O47 Si6 1.724296 1_555
O47 Ti2 1.865784 1_555
O48 Si1 1.612333 1_545
O49 Si0 1.593288 1_555
O50 S3 1.468811 1_655
O51 S1 1.468250 1_555
O52 S2 1.467146 1_655
O53 S0 1.467311 1_545
O54 S5 1.481616 1_555
O54 Ti3 2.481599 1_555
O55 Si7 1.632700 1_655
O55 Ti3 1.963330 1_555
O56 Si8 1.650126 1_545
O56 Ti3 2.037334 1_555
O57 Si9 1.636484 1_545
O57 Ti4 2.028296 1_555
O58 Si10 1.667828 1_555
O58 Ti4 1.881107 1_555
O59 Si11 1.648620 1_655
O59 Ti4 2.020136 1_555
O60 Si6 1.643605 1_555
O60 Ti5 1.998578 1_555
O61 Si4 1.664764 1_455
O61 Ti5 1.863617 1_555
O62 Si5 1.634433 1_565
O62 Ti5 1.967492 1_555
O63 Si2 1.655768 1_565
O63 Ti6 1.947607 1_555
O64 Si3 1.655893 1_555
O64 Ti6 1.985082 1_555
O65 S4 1.491864 1_455
O65 Ti6 2.299384 1_555
O66 S0 1.501206 1_555
O66 Ti7 2.264259 1_555
O67 S1 1.504074 1_555
O67 Ti7 2.254745 1_555
O68 S2 1.502694 1_555
O68 Ti7 2.228237 1_555
O69 Si0 1.641316 1_555
O69 Ti8 2.075807 1_555
O70 S3 1.506192 1_555
O70 Ti8 2.280759 1_555
O71 Si1 1.653235 1_555
O71 Ti8 1.984941 1_555
