# generated using pymatgen
data_MgMo2(WS4)2
_symmetry_space_group_name_H-M   'P 1'
_cell_length_a   3.18921400
_cell_length_b   3.18922287
_cell_length_c   43.82690002
_cell_angle_alpha   90.00314924
_cell_angle_beta   90.00025877
_cell_angle_gamma   119.99994675
_symmetry_Int_Tables_number   1
_chemical_formula_structural   MgMo2(WS4)2
_chemical_formula_sum   'Mg1 Mo2 W2 S8'
_cell_volume   386.04696978
_cell_formula_units_Z   1
loop_
 _symmetry_equiv_pos_site_id
 _symmetry_equiv_pos_as_xyz
  1  'x, y, z'
loop_
 _atom_site_type_symbol
 _atom_site_label
 _atom_site_symmetry_multiplicity
 _atom_site_fract_x
 _atom_site_fract_y
 _atom_site_fract_z
 _atom_site_occupancy
  Mg  Mg0  1  0.99999000  0.99998900  0.18412800  1
  Mo  Mo0  1  0.33331500  0.66663700  0.08615100  1
  Mo  Mo1  1  0.33327000  0.66653700  0.46975000  1
  W  W0  1  0.66669500  0.33338900  0.29014100  1
  W  W1  1  0.66671700  0.33343000  0.65769200  1
  S  S0  1  0.33338700  0.66677000  0.32600400  1
  S  S1  1  0.33340300  0.66679900  0.69356000  1
  S  S2  1  0.66663300  0.33327800  0.05061800  1
  S  S3  1  0.66658600  0.33317600  0.43405900  1
  S  S4  1  0.66666600  0.33333300  0.12228000  1
  S  S5  1  0.66663000  0.33325300  0.50547500  1
  S  S6  1  0.33334100  0.66668100  0.25406000  1
  S  S7  1  0.33336500  0.66673100  0.62186800  1
loop_
_geom_bond_atom_site_label_1
_geom_bond_atom_site_label_2
_geom_bond_distance
_geom_bond_site_symmetry_2
Mo0 S2 2.411534 1_555
Mo0 S2 2.411534 1_455
Mo0 S2 2.411574 1_565
Mo0 S4 2.428482 1_565
Mo0 S4 2.428503 1_455
Mo0 S4 2.428507 1_555
Mo1 S3 2.416011 1_555
Mo1 S3 2.416016 1_455
Mo1 S3 2.416048 1_565
Mo1 S5 2.416976 1_555
Mo1 S5 2.416976 1_455
Mo1 S5 2.417017 1_565
S0 W0 2.420893 1_565
S0 W0 2.420920 1_455
S0 W0 2.420923 1_555
S1 W1 2.421049 1_455
S1 W1 2.421053 1_555
S1 W1 2.421061 1_565
S6 W0 2.427117 1_555
S6 W0 2.427126 1_455
S6 W0 2.427136 1_565
S7 W1 2.419794 1_565
S7 W1 2.419806 1_455
S7 W1 2.419808 1_555
