# generated using pymatgen
data_UCoSn
_symmetry_space_group_name_H-M   'P 1'
_cell_length_a   7.04743771
_cell_length_b   7.04743771
_cell_length_c   4.04809400
_cell_angle_alpha   90.00000000
_cell_angle_beta   90.00000000
_cell_angle_gamma   119.99999724
_symmetry_Int_Tables_number   1
_chemical_formula_structural   UCoSn
_chemical_formula_sum   'U3 Co3 Sn3'
_cell_volume   174.11802158
_cell_formula_units_Z   3
loop_
 _symmetry_equiv_pos_site_id
 _symmetry_equiv_pos_as_xyz
  1  'x, y, z'
loop_
 _atom_site_type_symbol
 _atom_site_label
 _atom_site_symmetry_multiplicity
 _atom_site_fract_x
 _atom_site_fract_y
 _atom_site_fract_z
 _atom_site_occupancy
  U  U0  1  0.00000000  0.58158700  0.50000000  1
  U  U1  1  0.41841300  0.41841300  0.50000000  1
  U  U2  1  0.58158700  0.00000000  0.50000000  1
  Co  Co0  1  0.33333300  0.66666700  0.00000000  1
  Co  Co1  1  0.00000000  0.00000000  0.50000000  1
  Co  Co2  1  0.66666700  0.33333300  0.00000000  1
  Sn  Sn0  1  0.74904100  0.74904100  0.00000000  1
  Sn  Sn1  1  0.00000000  0.25095900  0.00000000  1
  Sn  Sn2  1  0.25095900  0.00000000  0.00000000  1
loop_
_geom_bond_atom_site_label_1
_geom_bond_atom_site_label_2
_geom_bond_distance
_geom_bond_site_symmetry_2
Co0 Sn2 2.686861 1_565
Co0 Sn1 2.686866 1_555
Co0 Sn0 2.686868 1_555
Co0 U0 2.926811 1_554
Co0 U0 2.926811 1_555
Co0 U2 2.926812 1_565
Co0 U2 2.926812 1_564
Co0 U1 2.926815 1_555
Co0 U1 2.926815 1_554
Co1 Sn1 2.687894 1_556
Co1 Sn2 2.687894 1_556
Co1 Sn1 2.687894 1_555
Co1 Sn2 2.687894 1_555
Co1 Sn0 2.687894 1_446
Co1 Sn0 2.687894 1_445
Co1 U0 2.948740 1_545
Co1 U2 2.948740 1_455
Co1 U1 2.948740 1_555
Co2 Sn1 2.686861 1_655
Co2 Sn2 2.686866 1_555
Co2 Sn0 2.686868 1_555
Co2 U2 2.926811 1_555
Co2 U2 2.926811 1_554
Co2 U0 2.926812 1_655
Co2 U0 2.926812 1_654
Co2 U1 2.926815 1_555
Co2 U1 2.926815 1_554
Sn0 Sn2 3.063336 1_665
Sn0 Sn1 3.063336 1_665
Sn0 U1 3.086428 1_554
Sn0 U1 3.086428 1_555
Sn0 U2 3.271796 1_564
Sn0 U2 3.271796 1_565
Sn0 U0 3.271796 1_655
Sn0 U0 3.271796 1_654
Sn1 Sn2 3.063336 1_555
Sn1 U0 3.086428 1_555
Sn1 U0 3.086428 1_554
Sn1 U1 3.271796 1_555
Sn1 U1 3.271796 1_554
Sn1 U2 3.271796 1_455
Sn1 U2 3.271796 1_454
Sn2 U2 3.086428 1_554
Sn2 U2 3.086428 1_555
Sn2 U1 3.271796 1_555
Sn2 U1 3.271796 1_554
Sn2 U0 3.271796 1_545
Sn2 U0 3.271796 1_544
