# generated using pymatgen
data_Na6Mg4Ta2Si3(SO6)6
_symmetry_space_group_name_H-M   'P 1'
_cell_length_a   8.88067925
_cell_length_b   8.88067896
_cell_length_c   22.57457993
_cell_angle_alpha   90.00000000
_cell_angle_beta   90.00000000
_cell_angle_gamma   120.00000110
_symmetry_Int_Tables_number   1
_chemical_formula_structural   Na6Mg4Ta2Si3(SO6)6
_chemical_formula_sum   'Na12 Mg8 Ta4 Si6 S12 O72'
_cell_volume   1541.85189813
_cell_formula_units_Z   2
loop_
 _symmetry_equiv_pos_site_id
 _symmetry_equiv_pos_as_xyz
  1  'x, y, z'
loop_
 _atom_site_type_symbol
 _atom_site_label
 _atom_site_symmetry_multiplicity
 _atom_site_fract_x
 _atom_site_fract_y
 _atom_site_fract_z
 _atom_site_occupancy
  Na  Na0  1  0.98550612  0.69203393  0.91703641  1
  Na  Na1  1  0.70652681  0.01449388  0.91703641  1
  Na  Na2  1  0.30796607  0.29347319  0.91703641  1
  Na  Na3  1  0.98550612  0.29347319  0.41703641  1
  Na  Na4  1  0.30796607  0.01449388  0.41703641  1
  Na  Na5  1  0.70652681  0.69203393  0.41703641  1
  Na  Na6  1  0.00000000  0.00000000  0.49670901  1
  Na  Na7  1  0.00000000  0.00000000  0.99670901  1
  Na  Na8  1  0.66666700  0.33333300  0.82387169  1
  Na  Na9  1  0.66666700  0.33333300  0.32387169  1
  Na  Na10  1  0.33333300  0.66666700  0.16047781  1
  Na  Na11  1  0.33333300  0.66666700  0.66047781  1
  Mg  Mg0  1  0.00000000  0.00000000  0.35026030  1
  Mg  Mg1  1  0.00000000  0.00000000  0.85026030  1
  Mg  Mg2  1  0.00000000  0.00000000  0.64850399  1
  Mg  Mg3  1  0.00000000  0.00000000  0.14850399  1
  Mg  Mg4  1  0.66666700  0.33333300  0.68427864  1
  Mg  Mg5  1  0.66666700  0.33333300  0.18427864  1
  Mg  Mg6  1  0.33333300  0.66666700  0.01642353  1
  Mg  Mg7  1  0.33333300  0.66666700  0.51642353  1
  Ta  Ta0  1  0.66666700  0.33333300  0.97946786  1
  Ta  Ta1  1  0.66666700  0.33333300  0.47946786  1
  Ta  Ta2  1  0.33333300  0.66666700  0.31720642  1
  Ta  Ta3  1  0.33333300  0.66666700  0.81720642  1
  Si  Si0  1  0.62546571  0.67055265  0.92011916  1
  Si  Si1  1  0.04508594  0.37453429  0.92011916  1
  Si  Si2  1  0.32944735  0.95491406  0.92011916  1
  Si  Si3  1  0.62546571  0.95491406  0.42011916  1
  Si  Si4  1  0.32944735  0.37453429  0.42011916  1
  Si  Si5  1  0.04508594  0.67055265  0.42011916  1
  S  S0  1  0.29551008  0.99928031  0.24921822  1
  S  S1  1  0.70377023  0.70448992  0.24921822  1
  S  S2  1  0.00071969  0.29622977  0.24921822  1
  S  S3  1  0.29551008  0.29622977  0.74921822  1
  S  S4  1  0.00071969  0.70448992  0.74921822  1
  S  S5  1  0.70377023  0.99928031  0.74921822  1
  S  S6  1  0.95827496  0.33311520  0.58588432  1
  S  S7  1  0.37484124  0.04172504  0.58588432  1
  S  S8  1  0.66688480  0.62515876  0.58588432  1
  S  S9  1  0.95827496  0.62515876  0.08588432  1
  S  S10  1  0.66688480  0.04172504  0.08588432  1
  S  S11  1  0.37484124  0.33311520  0.08588432  1
  O  O0  1  0.21834835  0.01659571  0.30482715  1
  O  O1  1  0.79824736  0.78165165  0.30482715  1
  O  O2  1  0.98340429  0.20175264  0.30482715  1
  O  O3  1  0.21834835  0.20175264  0.80482715  1
  O  O4  1  0.98340429  0.78165165  0.80482715  1
  O  O5  1  0.79824736  0.01659571  0.80482715  1
  O  O6  1  0.78877627  0.97610109  0.69732446  1
  O  O7  1  0.18732482  0.21122373  0.69732446  1
  O  O8  1  0.02389891  0.81267518  0.69732446  1
  O  O9  1  0.78877627  0.81267518  0.19732446  1
  O  O10  1  0.02389891  0.21122373  0.19732446  1
  O  O11  1  0.18732482  0.97610109  0.19732446  1
  O  O12  1  0.86512460  0.34758641  0.63658858  1
  O  O13  1  0.48246281  0.13487540  0.63658858  1
  O  O14  1  0.65241359  0.51753719  0.63658858  1
  O  O15  1  0.86512460  0.51753719  0.13658858  1
  O  O16  1  0.65241359  0.13487540  0.13658858  1
  O  O17  1  0.48246281  0.34758641  0.13658858  1
  O  O18  1  0.46825005  0.31792501  0.02959260  1
  O  O19  1  0.84967596  0.53174995  0.02959260  1
  O  O20  1  0.68207499  0.15032404  0.02959260  1
  O  O21  1  0.46825005  0.15032404  0.52959260  1
  O  O22  1  0.68207499  0.53174995  0.52959260  1
  O  O23  1  0.84967596  0.31792501  0.52959260  1
  O  O24  1  0.54851292  0.71577205  0.97575434  1
  O  O25  1  0.16725813  0.45148708  0.97575434  1
  O  O26  1  0.28422795  0.83274187  0.97575434  1
  O  O27  1  0.54851292  0.83274187  0.47575434  1
  O  O28  1  0.28422795  0.45148708  0.47575434  1
  O  O29  1  0.16725813  0.71577205  0.47575434  1
  O  O30  1  0.13144893  0.62050415  0.36071742  1
  O  O31  1  0.48905422  0.86855107  0.36071742  1
  O  O32  1  0.37949585  0.51094578  0.36071742  1
  O  O33  1  0.13144893  0.51094578  0.86071742  1
  O  O34  1  0.37949585  0.86855107  0.86071742  1
  O  O35  1  0.48905422  0.62050415  0.86071742  1
  O  O36  1  0.00292675  0.82173786  0.40562927  1
  O  O37  1  0.81881111  0.99707325  0.40562927  1
  O  O38  1  0.17826214  0.18118889  0.40562927  1
  O  O39  1  0.00292675  0.18118889  0.90562927  1
  O  O40  1  0.17826214  0.99707325  0.90562927  1
  O  O41  1  0.81881111  0.82173786  0.90562927  1
  O  O42  1  0.96679270  0.17114199  0.58659244  1
  O  O43  1  0.20434929  0.03320730  0.58659244  1
  O  O44  1  0.82885801  0.79565071  0.58659244  1
  O  O45  1  0.96679270  0.79565071  0.08659244  1
  O  O46  1  0.82885801  0.03320730  0.08659244  1
  O  O47  1  0.20434929  0.17114199  0.08659244  1
  O  O48  1  0.67824710  0.15149228  0.74363436  1
  O  O49  1  0.47324618  0.32175290  0.74363436  1
  O  O50  1  0.84850772  0.52675382  0.74363436  1
  O  O51  1  0.67824710  0.52675382  0.24363436  1
  O  O52  1  0.84850772  0.32175290  0.24363436  1
  O  O53  1  0.47324618  0.15149228  0.24363436  1
  O  O54  1  0.63219199  0.48593978  0.92706840  1
  O  O55  1  0.85374879  0.36780801  0.92706840  1
  O  O56  1  0.51406022  0.14625121  0.92706840  1
  O  O57  1  0.63219199  0.14625121  0.42706840  1
  O  O58  1  0.51406022  0.36780801  0.42706840  1
  O  O59  1  0.85374879  0.48593978  0.42706840  1
  O  O60  1  0.36068619  0.48971949  0.08074698  1
  O  O61  1  0.12903229  0.63931381  0.08074698  1
  O  O62  1  0.51028051  0.87096771  0.08074698  1
  O  O63  1  0.36068619  0.87096771  0.58074698  1
  O  O64  1  0.51028051  0.63931381  0.58074698  1
  O  O65  1  0.12903229  0.48971949  0.58074698  1
  O  O66  1  0.31079075  0.83452378  0.25353314  1
  O  O67  1  0.52373203  0.68920925  0.25353314  1
  O  O68  1  0.16547622  0.47626797  0.25353314  1
  O  O69  1  0.31079075  0.47626797  0.75353314  1
  O  O70  1  0.16547622  0.68920925  0.75353314  1
  O  O71  1  0.52373203  0.83452378  0.75353314  1
loop_
_geom_bond_atom_site_label_1
_geom_bond_atom_site_label_2
_geom_bond_distance
_geom_bond_site_symmetry_2
Na0 O41 2.299944 1_555
Na0 O40 2.387012 1_655
Na0 O55 2.518320 1_555
Na0 O26 2.653519 1_655
Na0 O4 2.658023 1_555
Na0 O54 2.739225 1_555
Na0 O33 2.822550 1_655
Na0 O19 2.867126 1_556
Na1 O39 2.299951 1_655
Na1 O41 2.387019 1_545
Na1 O56 2.518304 1_555
Na1 O24 2.653519 1_545
Na1 O5 2.658026 1_555
Na1 O55 2.739224 1_555
Na1 O34 2.822550 1_545
Na1 O20 2.867121 1_556
Na2 O40 2.299952 1_545
Na2 O39 2.387011 1_555
Na2 O54 2.518318 1_555
Na2 O25 2.653519 1_555
Na2 O3 2.658024 1_555
Na2 O56 2.739240 1_555
Na2 O35 2.822550 1_555
Na2 O18 2.867129 1_556
Na3 O37 2.299951 1_545
Na3 O38 2.387019 1_655
Na3 O59 2.518304 1_555
Na3 O28 2.653519 1_655
Na3 O2 2.658026 1_555
Na3 O57 2.739224 1_555
Na3 O30 2.822550 1_655
Na3 O23 2.867121 1_555
Na4 O38 2.299944 1_555
Na4 O36 2.387012 1_545
Na4 O57 2.518320 1_555
Na4 O29 2.653519 1_545
Na4 O0 2.658023 1_555
Na4 O58 2.739225 1_555
Na4 O31 2.822550 1_545
Na4 O21 2.867126 1_555
Na5 O36 2.299952 1_655
Na5 O37 2.387011 1_555
Na5 O58 2.518318 1_555
Na5 O27 2.653519 1_555
Na5 O1 2.658024 1_555
Na5 O59 2.739240 1_555
Na5 O32 2.822550 1_555
Na5 O22 2.867129 1_555
Na6 O38 2.602976 1_555
Na6 O36 2.602976 1_545
Na6 O37 2.602976 1_445
Na6 O44 2.638619 1_445
Na6 O42 2.638620 1_455
Na6 O43 2.638620 1_555
Na7 O39 2.602976 1_555
Na7 O41 2.602976 1_445
Na7 O40 2.602976 1_545
Na7 O45 2.638619 1_446
Na7 O47 2.638620 1_556
Na7 O46 2.638620 1_456
Na8 O50 2.462792 1_555
Na8 O48 2.462792 1_555
Na8 O49 2.462792 1_555
Na8 O56 2.787922 1_555
Na8 O54 2.787922 1_555
Na8 O55 2.787922 1_555
Na9 O51 2.462792 1_555
Na9 O53 2.462792 1_555
Na9 O52 2.462792 1_555
Na9 O57 2.787922 1_555
Na9 O59 2.787922 1_555
Na9 O58 2.787922 1_555
Na10 O60 2.479854 1_555
Na10 O62 2.479854 1_555
Na10 O61 2.479854 1_555
Na10 O68 2.640740 1_555
Na10 O66 2.640740 1_555
Na10 O67 2.640740 1_555
Na11 O64 2.479854 1_555
Na11 O65 2.479854 1_555
Na11 O63 2.479854 1_555
Na11 O69 2.640740 1_555
Na11 O71 2.640740 1_555
Na11 O70 2.640740 1_555
Mg0 O38 2.027393 1_555
Mg0 O36 2.027393 1_545
Mg0 O37 2.027393 1_445
Mg0 O1 2.132581 1_445
Mg0 O2 2.132581 1_455
Mg0 O0 2.132581 1_555
Mg1 O39 2.027393 1_555
Mg1 O41 2.027393 1_445
Mg1 O40 2.027393 1_545
Mg1 O4 2.132581 1_445
Mg1 O3 2.132581 1_555
Mg1 O5 2.132581 1_455
Mg2 O7 2.092897 1_555
Mg2 O8 2.092897 1_545
Mg2 O6 2.092897 1_445
Mg2 O44 2.190549 1_445
Mg2 O42 2.190549 1_455
Mg2 O43 2.190549 1_555
Mg3 O10 2.092897 1_555
Mg3 O9 2.092897 1_445
Mg3 O11 2.092897 1_545
Mg3 O45 2.190549 1_445
Mg3 O47 2.190549 1_555
Mg3 O46 2.190549 1_455
Mg4 O13 2.014486 1_555
Mg4 O14 2.014486 1_555
Mg4 O12 2.014486 1_555
Mg4 O50 2.140062 1_555
Mg4 O48 2.140062 1_555
Mg4 O49 2.140062 1_555
Mg5 O16 2.014486 1_555
Mg5 O15 2.014486 1_555
Mg5 O17 2.014486 1_555
Mg5 O51 2.140062 1_555
Mg5 O53 2.140062 1_555
Mg5 O52 2.140062 1_555
Mg6 O25 1.962506 1_554
Mg6 O26 1.962506 1_554
Mg6 O24 1.962506 1_554
Mg6 O60 2.240221 1_555
Mg6 O62 2.240221 1_555
Mg6 O61 2.240221 1_555
Mg7 O28 1.962506 1_555
Mg7 O27 1.962506 1_555
Mg7 O29 1.962506 1_555
Mg7 O64 2.240221 1_555
Mg7 O65 2.240221 1_555
Mg7 O63 2.240221 1_555
O0 S0 1.474613 1_545
O1 S1 1.474613 1_555
O2 S2 1.474613 1_655
O3 S3 1.474613 1_555
O4 S4 1.474613 1_655
O5 S5 1.474613 1_545
O6 S5 1.462883 1_555
O7 S3 1.462883 1_555
O8 S4 1.462883 1_555
O9 S1 1.462883 1_555
O10 S2 1.462883 1_555
O11 S0 1.462883 1_555
O12 S6 1.455102 1_555
O13 S7 1.455102 1_555
O14 S8 1.455102 1_555
O15 S9 1.455102 1_555
O16 S10 1.455102 1_555
O17 S11 1.455102 1_555
O18 S11 1.559828 1_555
O18 Ta0 2.040324 1_554
O19 S9 1.559828 1_555
O19 Ta0 2.040324 1_554
O20 S10 1.559828 1_555
O20 Ta0 2.040324 1_554
O21 S7 1.559828 1_555
O21 Ta1 2.040324 1_555
O22 S8 1.559828 1_555
O22 Ta1 2.040324 1_555
O23 S6 1.559828 1_555
O23 Ta1 2.040324 1_555
O24 Si0 1.574838 1_555
O25 Si1 1.574838 1_555
O26 Si2 1.574838 1_555
O27 Si3 1.574838 1_555
O28 Si4 1.574838 1_555
O29 Si5 1.574838 1_555
O30 Si5 1.710224 1_555
O30 Ta2 1.900590 1_555
O31 Si3 1.710224 1_555
O31 Ta2 1.900589 1_555
O32 Si4 1.710224 1_555
O32 Ta2 1.900589 1_555
O33 Si1 1.710224 1_555
O33 Ta3 1.900589 1_555
O34 Si2 1.710224 1_555
O34 Ta3 1.900589 1_555
O35 Si0 1.710224 1_555
O35 Ta3 1.900590 1_555
O36 Si5 1.597656 1_555
O37 Si3 1.597664 1_555
O38 Si4 1.597662 1_555
O39 Si1 1.597664 1_555
O40 Si2 1.597656 1_555
O41 Si0 1.597662 1_555
O42 S6 1.477793 1_555
O43 S7 1.477802 1_555
O44 S8 1.477798 1_555
O45 S9 1.477802 1_555
O46 S10 1.477793 1_555
O47 S11 1.477798 1_555
O48 S5 1.483534 1_545
O49 S3 1.483542 1_555
O50 S4 1.483539 1_655
O51 S1 1.483542 1_555
O52 S2 1.483534 1_655
O53 S0 1.483539 1_545
O54 Si0 1.677507 1_555
O54 Ta0 1.935100 1_555
O55 Si1 1.677490 1_655
O55 Ta0 1.935100 1_555
O56 Si2 1.677498 1_545
O56 Ta0 1.935100 1_555
O57 Si3 1.677490 1_545
O57 Ta1 1.935100 1_555
O58 Si4 1.677507 1_555
O58 Ta1 1.935100 1_555
O59 Si5 1.677498 1_655
O59 Ta1 1.935100 1_555
O60 S11 1.462283 1_555
O61 S9 1.462265 1_455
O62 S10 1.462273 1_565
O63 S7 1.462265 1_565
O64 S8 1.462283 1_555
O65 S6 1.462273 1_455
O66 S0 1.538592 1_555
O66 Ta2 2.150986 1_555
O67 S1 1.538601 1_555
O67 Ta2 2.150986 1_555
O68 S2 1.538597 1_555
O68 Ta2 2.150986 1_555
O69 S3 1.538601 1_555
O69 Ta3 2.150986 1_555
O70 S4 1.538592 1_555
O70 Ta3 2.150986 1_555
O71 S5 1.538597 1_555
O71 Ta3 2.150986 1_555
