# generated using pymatgen
data_MgSiGe3S5O24
_symmetry_space_group_name_H-M   'P 1'
_cell_length_a   8.49522696
_cell_length_b   8.47191527
_cell_length_c   21.92844341
_cell_angle_alpha   90.25782228
_cell_angle_beta   90.16696999
_cell_angle_gamma   120.05280514
_symmetry_Int_Tables_number   1
_chemical_formula_structural   MgSiGe3S5O24
_chemical_formula_sum   'Mg3 Si3 Ge9 S15 O72'
_cell_volume   1366.00268857
_cell_formula_units_Z   3
loop_
 _symmetry_equiv_pos_site_id
 _symmetry_equiv_pos_as_xyz
  1  'x, y, z'
loop_
 _atom_site_type_symbol
 _atom_site_label
 _atom_site_symmetry_multiplicity
 _atom_site_fract_x
 _atom_site_fract_y
 _atom_site_fract_z
 _atom_site_occupancy
  Mg  Mg0  1  -0.00003625  0.99950251  0.35540955  1
  Mg  Mg1  1  0.66514922  0.33662237  0.68894988  1
  Mg  Mg2  1  0.66596497  0.33296488  0.18638611  1
  Si  Si0  1  0.66738777  0.62504837  0.58526698  1
  Si  Si1  1  0.04556166  0.37864945  0.91624597  1
  Si  Si2  1  0.33185087  0.95351476  0.91634269  1
  Ge  Ge0  1  0.01097103  0.00958427  0.85889202  1
  Ge  Ge1  1  0.99017658  0.98918361  0.64738123  1
  Ge  Ge2  1  0.00084005  0.00041710  0.14589890  1
  Ge  Ge3  1  0.66840959  0.32560583  0.97296324  1
  Ge  Ge4  1  0.66945564  0.34144486  0.48521226  1
  Ge  Ge5  1  0.32231122  0.66350351  0.01482470  1
  Ge  Ge6  1  0.33767448  0.66572788  0.52398457  1
  Ge  Ge7  1  0.33362833  0.66693382  0.31199222  1
  Ge  Ge8  1  0.32378912  0.66980686  0.81634900  1
  S  S0  1  0.29098473  0.00099552  0.25135326  1
  S  S1  1  0.70989391  0.70940049  0.25119416  1
  S  S2  1  0.99889459  0.28969084  0.25134183  1
  S  S3  1  0.28797795  0.29037884  0.75032219  1
  S  S4  1  0.00173490  0.71287957  0.75150846  1
  S  S5  1  0.70864482  0.99635885  0.75190317  1
  S  S6  1  0.95826003  0.33333487  0.58390399  1
  S  S7  1  0.37507872  0.04302700  0.58379926  1
  S  S8  1  0.95810705  0.62309490  0.08375703  1
  S  S9  1  0.66372626  0.03785237  0.08371417  1
  S  S10  1  0.37703958  0.33755401  0.08319661  1
  S  S11  1  0.62229132  0.66706632  0.91649550  1
  S  S12  1  0.62234208  0.95941335  0.41809895  1
  S  S13  1  0.33486717  0.37736397  0.41734944  1
  S  S14  1  0.04403727  0.66359105  0.41804747  1
  O  O0  1  0.20745296  0.02880809  0.30471201  1
  O  O1  1  0.82137858  0.79322946  0.30485366  1
  O  O2  1  0.97183453  0.17885681  0.30462785  1
  O  O3  1  0.20261712  0.17163930  0.80442706  1
  O  O4  1  0.96651561  0.79792086  0.80555160  1
  O  O5  1  0.82783358  0.02941676  0.80609166  1
  O  O6  1  0.78932147  0.96058949  0.69508269  1
  O  O7  1  0.16703613  0.20834420  0.69340440  1
  O  O8  1  0.04286847  0.83215635  0.69537129  1
  O  O9  1  0.78633656  0.82794119  0.19442588  1
  O  O10  1  0.04128236  0.21307361  0.19422638  1
  O  O11  1  0.17160850  0.95803949  0.19416285  1
  O  O12  1  0.88082000  0.36803578  0.63700726  1
  O  O13  1  0.48988071  0.11642770  0.63685520  1
  O  O14  1  0.62594073  0.49978243  0.64192514  1
  O  O15  1  0.87901174  0.51374774  0.13774838  1
  O  O16  1  0.63251752  0.11729423  0.13783040  1
  O  O17  1  0.48574957  0.36671745  0.13778622  1
  O  O18  1  0.45431774  0.29866671  0.02804201  1
  O  O19  1  0.84173698  0.54711922  0.02825599  1
  O  O20  1  0.70429056  0.15482350  0.02896690  1
  O  O21  1  0.45301343  0.15472925  0.52588733  1
  O  O22  1  0.70864254  0.54100488  0.52128499  1
  O  O23  1  0.84220877  0.29142416  0.52596603  1
  O  O24  1  0.54694191  0.70533031  0.97265112  1
  O  O25  1  0.17217487  0.45936047  0.97743355  1
  O  O26  1  0.29745533  0.83268094  0.97780179  1
  O  O27  1  0.53711249  0.84088039  0.47177326  1
  O  O28  1  0.29846052  0.46155671  0.47133470  1
  O  O29  1  0.16366678  0.69874896  0.47294452  1
  O  O30  1  0.12494485  0.62600174  0.36145005  1
  O  O31  1  0.50324809  0.87939775  0.36132414  1
  O  O32  1  0.37472085  0.49748779  0.36123525  1
  O  O33  1  0.13237239  0.50267576  0.85569976  1
  O  O34  1  0.38062545  0.87289154  0.85609891  1
  O  O35  1  0.50735746  0.62692766  0.86088510  1
  O  O36  1  0.02677624  0.82323827  0.41048807  1
  O  O37  1  0.79835409  0.97613507  0.40992229  1
  O  O38  1  0.17491841  0.20063867  0.40950611  1
  O  O39  1  0.01641305  0.17768526  0.90658465  1
  O  O40  1  0.15222927  0.96821386  0.90627032  1
  O  O41  1  0.80207012  0.82877765  0.90835134  1
  O  O42  1  0.98221636  0.17284290  0.58984975  1
  O  O43  1  0.19426767  0.02664149  0.59004127  1
  O  O44  1  0.84939984  0.83014648  0.59173400  1
  O  O45  1  0.97694880  0.81173195  0.09091391  1
  O  O46  1  0.83415980  0.02158118  0.09114268  1
  O  O47  1  0.18892228  0.16754671  0.09057446  1
  O  O48  1  0.69249822  0.15659997  0.74307551  1
  O  O49  1  0.46225252  0.30278934  0.74379351  1
  O  O50  1  0.84424796  0.53499026  0.74395831  1
  O  O51  1  0.68765811  0.53099125  0.24165530  1
  O  O52  1  0.84348843  0.31220567  0.24162403  1
  O  O53  1  0.46881887  0.15679936  0.24181388  1
  O  O54  1  0.63947052  0.50367834  0.92557450  1
  O  O55  1  0.85156354  0.36542507  0.92756920  1
  O  O56  1  0.50492347  0.15464825  0.92725540  1
  O  O57  1  0.63683276  0.14267174  0.42567351  1
  O  O58  1  0.50057728  0.36063036  0.42379389  1
  O  O59  1  0.86405696  0.49400862  0.42356718  1
  O  O60  1  0.35906805  0.50253955  0.07568181  1
  O  O61  1  0.14184982  0.64453791  0.07702112  1
  O  O62  1  0.50316090  0.85278083  0.07500482  1
  O  O63  1  0.35227944  0.85808711  0.57299190  1
  O  O64  1  0.48853167  0.64685990  0.57160296  1
  O  O65  1  0.13810843  0.50025997  0.57299008  1
  O  O66  1  0.30555323  0.82875319  0.25735408  1
  O  O67  1  0.52320680  0.69433361  0.25743119  1
  O  O68  1  0.17104898  0.47679205  0.25744470  1
  O  O69  1  0.30485245  0.47330880  0.75715569  1
  O  O70  1  0.17084100  0.70024252  0.75597804  1
  O  O71  1  0.52812283  0.82664617  0.75740037  1
loop_
_geom_bond_atom_site_label_1
_geom_bond_atom_site_label_2
_geom_bond_distance
_geom_bond_site_symmetry_2
Mg0 O1 1.975310 1_455
Mg0 O38 1.988649 1_565
Mg0 O0 1.995028 1_565
Mg0 O2 1.995817 1_465
Mg0 O37 2.018909 1_455
Mg0 O36 2.023827 1_555
Mg1 O14 1.885987 1_555
Mg1 O50 2.001065 1_555
Mg1 O49 2.004947 1_555
Mg1 O48 2.039195 1_555
Mg1 O13 2.047146 1_555
Mg1 O12 2.061932 1_555
Mg2 O51 1.997026 1_555
Mg2 O17 1.998276 1_555
Mg2 O15 2.002119 1_555
Mg2 O16 2.003401 1_555
Mg2 O52 2.007344 1_555
Mg2 O53 2.008563 1_555
Ge0 O39 1.744828 1_555
Ge0 O40 1.749155 1_545
Ge0 O3 1.936304 1_555
Ge0 O41 1.993864 1_445
Ge0 O4 2.006629 1_445
Ge0 O5 2.010564 1_455
Ge1 O44 1.759948 1_555
Ge1 O6 1.913898 1_555
Ge1 O8 1.919338 1_655
Ge1 O7 1.975726 1_665
Ge1 O42 2.034618 1_565
Ge1 O43 2.037885 1_665
Ge2 O45 1.925238 1_445
Ge2 O46 1.930081 1_455
Ge2 O47 1.946888 1_555
Ge2 O10 1.961537 1_555
Ge2 O11 1.967161 1_545
Ge2 O9 1.986566 1_445
Ge3 O56 1.730690 1_555
Ge3 O55 1.735488 1_555
Ge3 O54 1.949439 1_555
Ge3 O20 2.037155 1_556
Ge3 O19 2.088412 1_556
Ge3 O18 2.101967 1_556
Ge4 O22 1.737113 1_555
Ge4 O23 1.936667 1_555
Ge4 O21 1.946210 1_555
Ge4 O59 2.029652 1_555
Ge4 O58 2.030475 1_555
Ge4 O57 2.031713 1_555
Ge5 O25 1.749833 1_554
Ge5 O26 1.752289 1_554
Ge5 O24 1.989557 1_554
Ge5 O61 2.000919 1_555
Ge5 O62 2.043240 1_555
Ge5 O60 2.044126 1_555
Ge6 O64 1.719650 1_555
Ge6 O63 1.899206 1_555
Ge6 O65 1.907339 1_555
Ge6 O28 1.959207 1_555
Ge6 O27 1.972756 1_555
Ge6 O29 1.980779 1_555
Ge7 O68 1.917772 1_555
Ge7 O66 1.926766 1_555
Ge7 O67 1.928312 1_555
Ge7 O30 1.959127 1_555
Ge7 O31 1.965214 1_555
Ge7 O32 1.965278 1_555
Ge8 O34 1.762125 1_555
Ge8 O33 1.762599 1_555
Ge8 O70 1.958547 1_555
Ge8 O35 2.019739 1_555
Ge8 O71 2.041580 1_555
Ge8 O69 2.047708 1_555
O0 S0 1.448443 1_555
O1 S1 1.448515 1_555
O2 S2 1.447449 1_555
O3 S3 1.493499 1_555
O4 S4 1.491070 1_655
O5 S5 1.490508 1_545
O6 S5 1.524348 1_555
O7 S3 1.538164 1_555
O8 S4 1.522700 1_555
O9 S1 1.530571 1_555
O10 S2 1.532661 1_455
O11 S0 1.533780 1_565
O12 S6 1.438857 1_555
O13 S7 1.439049 1_555
O14 Si0 1.560124 1_555
O15 S8 1.449983 1_555
O16 S9 1.450807 1_555
O17 S10 1.452325 1_555
O18 S10 1.489957 1_555
O19 S8 1.490446 1_555
O20 S9 1.487652 1_555
O21 S7 1.527990 1_555
O22 Si0 1.685846 1_555
O23 S6 1.533038 1_555
O24 S11 1.496671 1_555
O25 Si1 1.634458 1_555
O26 Si2 1.632404 1_555
O27 S12 1.485036 1_555
O28 S13 1.490409 1_555
O29 S14 1.502381 1_555
O30 S14 1.528002 1_555
O31 S12 1.526840 1_555
O32 S13 1.527421 1_555
O33 Si1 1.628742 1_555
O34 Si2 1.631544 1_555
O35 S11 1.487550 1_555
O36 S14 1.441806 1_555
O37 S12 1.441407 1_555
O38 S13 1.440906 1_555
O39 Si1 1.605947 1_555
O40 Si2 1.606659 1_555
O41 S11 1.466094 1_555
O42 S6 1.478421 1_555
O43 S7 1.478251 1_555
O44 Si0 1.653975 1_555
O45 S8 1.531540 1_555
O46 S9 1.529903 1_555
O47 S10 1.533862 1_555
O48 S5 1.444973 1_545
O49 S3 1.438366 1_555
O50 S4 1.437205 1_655
O51 S1 1.440460 1_555
O52 S2 1.440729 1_555
O53 S0 1.440630 1_555
O54 S11 1.477030 1_555
O55 Si1 1.614930 1_655
O56 Si2 1.614780 1_545
O57 S12 1.503092 1_545
O58 S13 1.490209 1_555
O59 S14 1.489618 1_655
O60 S10 1.489904 1_555
O61 S8 1.486240 1_455
O62 S9 1.486305 1_565
O63 S7 1.496986 1_565
O64 Si0 1.646703 1_555
O65 S6 1.494182 1_455
O66 S0 1.531170 1_565
O67 S1 1.532610 1_555
O68 S2 1.531142 1_455
O69 S3 1.489983 1_555
O70 S4 1.496059 1_555
O71 S5 1.492577 1_555
