# generated using pymatgen
data_MgMn2(FeO2)4
_symmetry_space_group_name_H-M   'P 1'
_cell_length_a   5.95300761
_cell_length_b   7.02785112
_cell_length_c   7.01075011
_cell_angle_alpha   51.02960874
_cell_angle_beta   65.04920995
_cell_angle_gamma   64.77893116
_symmetry_Int_Tables_number   1
_chemical_formula_structural   MgMn2(FeO2)4
_chemical_formula_sum   'Mg1 Mn2 Fe4 O8'
_cell_volume   201.30368178
_cell_formula_units_Z   1
loop_
 _symmetry_equiv_pos_site_id
 _symmetry_equiv_pos_as_xyz
  1  'x, y, z'
loop_
 _atom_site_type_symbol
 _atom_site_label
 _atom_site_symmetry_multiplicity
 _atom_site_fract_x
 _atom_site_fract_y
 _atom_site_fract_z
 _atom_site_occupancy
  Mg  Mg0  1  0.66319774  0.62954702  0.62552135  1
  Mn  Mn0  1  0.12964620  0.12049932  0.12135676  1
  Mn  Mn1  1  0.88129362  0.87346377  0.87073664  1
  Fe  Fe0  1  0.54303233  0.45640637  0.45246652  1
  Fe  Fe1  1  0.43723643  0.54176191  0.05160059  1
  Fe  Fe2  1  0.06929926  0.43644581  0.43524898  1
  Fe  Fe3  1  0.43431674  0.05137848  0.55079410  1
  O  O0  1  0.71384981  0.76413974  0.76703429  1
  O  O1  1  0.26016931  0.26414341  0.71407360  1
  O  O2  1  0.25976559  0.71387333  0.26148277  1
  O  O3  1  0.69104754  0.27737566  0.28317121  1
  O  O4  1  0.76358128  0.28125599  0.70287982  1
  O  O5  1  0.28512284  0.74898578  0.74689175  1
  O  O6  1  0.23091306  0.26108100  0.26358807  1
  O  O7  1  0.76252526  0.70464440  0.27814855  1
loop_
_geom_bond_atom_site_label_1
_geom_bond_atom_site_label_2
_geom_bond_distance
_geom_bond_site_symmetry_2
Mg0 O0 1.909395 1_555
Mg0 O7 1.998352 1_555
Mg0 O4 1.999932 1_555
Mg0 O5 2.041279 1_555
Mn0 O6 2.141907 1_555
Mn0 O1 2.224155 1_554
Mn0 O2 2.226184 1_545
Mn0 O3 2.437354 1_455
Mn1 O0 2.019698 1_555
Mn1 O5 2.168064 1_655
Mn1 O7 2.194160 1_556
Mn1 O4 2.198036 1_565
Fe0 O3 1.954332 1_555
Fe0 O7 2.039138 1_555
Fe0 O2 2.041459 1_555
Fe0 O4 2.042109 1_555
Fe0 O1 2.059440 1_555
Fe1 O5 2.024684 1_554
Fe1 O3 2.062452 1_555
Fe1 O6 2.108468 1_555
Fe1 O2 2.140666 1_555
Fe1 O0 2.152649 1_554
Fe2 O6 1.941944 1_555
Fe2 O7 2.062304 1_455
Fe2 O4 2.063690 1_455
Fe2 O2 2.074153 1_555
Fe2 O1 2.074236 1_555
Fe3 O5 2.024508 1_545
Fe3 O3 2.068757 1_555
Fe3 O1 2.109900 1_555
Fe3 O6 2.120389 1_555
Fe3 O0 2.135092 1_545
