# generated using pymatgen
data_DySI
_symmetry_space_group_name_H-M   'P 1'
_cell_length_a   4.18881530
_cell_length_b   5.32561341
_cell_length_c   9.63642324
_cell_angle_alpha   90.00000000
_cell_angle_beta   90.00000000
_cell_angle_gamma   90.00000000
_symmetry_Int_Tables_number   1
_chemical_formula_structural   DySI
_chemical_formula_sum   'Dy2 S2 I2'
_cell_volume   214.96943500
_cell_formula_units_Z   2
loop_
 _symmetry_equiv_pos_site_id
 _symmetry_equiv_pos_as_xyz
  1  'x, y, z'
loop_
 _atom_site_type_symbol
 _atom_site_label
 _atom_site_symmetry_multiplicity
 _atom_site_fract_x
 _atom_site_fract_y
 _atom_site_fract_z
 _atom_site_occupancy
  Dy  Dy0  1  0.25000000  0.25000000  0.11763892  1
  Dy  Dy1  1  0.75000000  0.75000000  0.88236108  1
  S  S0  1  0.75000000  0.25000000  0.93487821  1
  S  S1  1  0.25000000  0.75000000  0.06512179  1
  I  I0  1  0.25000000  0.75000000  0.65350068  1
  I  I1  1  0.75000000  0.25000000  0.34649932  1
loop_
_geom_bond_atom_site_label_1
_geom_bond_atom_site_label_2
_geom_bond_distance
_geom_bond_site_symmetry_2
Dy0 S1 2.710471 1_555
Dy0 S1 2.710471 1_545
Dy0 S0 2.736462 1_554
Dy0 S0 2.736462 1_454
Dy0 I1 3.041433 1_455
Dy0 I1 3.041433 1_555
Dy1 S0 2.710471 1_555
Dy1 S0 2.710471 1_565
Dy1 S1 2.736462 1_556
Dy1 S1 2.736462 1_656
Dy1 I0 3.041433 1_655
Dy1 I0 3.041433 1_555
