# generated using pymatgen
data_Te2Os
_symmetry_space_group_name_H-M   'P 1'
_cell_length_a   6.43900521
_cell_length_b   6.43900521
_cell_length_c   6.43900521
_cell_angle_alpha   90.00000000
_cell_angle_beta   90.00000000
_cell_angle_gamma   90.00000000
_symmetry_Int_Tables_number   1
_chemical_formula_structural   Te2Os
_chemical_formula_sum   'Te8 Os4'
_cell_volume   266.96623055
_cell_formula_units_Z   4
loop_
 _symmetry_equiv_pos_site_id
 _symmetry_equiv_pos_as_xyz
  1  'x, y, z'
loop_
 _atom_site_type_symbol
 _atom_site_label
 _atom_site_symmetry_multiplicity
 _atom_site_fract_x
 _atom_site_fract_y
 _atom_site_fract_z
 _atom_site_occupancy
  Te  Te0  1  0.37291789  0.12708211  0.87291789  1
  Te  Te1  1  0.12708211  0.87291789  0.37291789  1
  Te  Te2  1  0.87291789  0.37291789  0.12708211  1
  Te  Te3  1  0.62708211  0.62708211  0.62708211  1
  Te  Te4  1  0.37291789  0.37291789  0.37291789  1
  Te  Te5  1  0.12708211  0.62708211  0.87291789  1
  Te  Te6  1  0.87291789  0.12708211  0.62708211  1
  Te  Te7  1  0.62708211  0.87291789  0.12708211  1
  Os  Os0  1  -0.00000000  0.50000000  0.50000000  1
  Os  Os1  1  0.50000000  0.50000000  -0.00000000  1
  Os  Os2  1  0.50000000  -0.00000000  0.50000000  1
  Os  Os3  1  -0.00000000  -0.00000000  -0.00000000  1
loop_
_geom_bond_atom_site_label_1
_geom_bond_atom_site_label_2
_geom_bond_distance
_geom_bond_site_symmetry_2
Te0 Te7 2.834613 1_546
Te1 Te6 2.834613 1_465
Te2 Te5 2.834613 1_654
Te3 Te4 2.834613 1_555
Os0 Te1 2.665526 1_555
Os0 Te5 2.665526 1_555
Os0 Te6 2.665526 1_455
Os0 Te3 2.665526 1_455
Os0 Te4 2.665526 1_555
Os0 Te2 2.665526 1_455
Os1 Te0 2.665526 1_554
Os1 Te2 2.665526 1_555
Os1 Te5 2.665526 1_554
Os1 Te7 2.665526 1_555
Os1 Te4 2.665526 1_555
Os1 Te3 2.665526 1_554
Os2 Te6 2.665526 1_555
Os2 Te0 2.665526 1_555
Os2 Te3 2.665526 1_545
Os2 Te1 2.665526 1_545
Os2 Te4 2.665526 1_555
Os2 Te7 2.665526 1_545
Os3 Te0 2.665526 1_554
Os3 Te5 2.665526 1_544
Os3 Te6 2.665526 1_454
Os3 Te7 2.665526 1_445
Os3 Te1 2.665526 1_545
Os3 Te2 2.665526 1_455
