# generated using pymatgen
data_NaScTiSi(SO6)2
_symmetry_space_group_name_H-M   'P 1'
_cell_length_a   8.78204748
_cell_length_b   8.80935577
_cell_length_c   22.75108851
_cell_angle_alpha   90.48534017
_cell_angle_beta   90.00000000
_cell_angle_gamma   119.89750837
_symmetry_Int_Tables_number   1
_chemical_formula_structural   NaScTiSi(SO6)2
_chemical_formula_sum   'Na6 Sc6 Ti6 Si6 S12 O72'
_cell_volume   1525.80702933
_cell_formula_units_Z   6
loop_
 _symmetry_equiv_pos_site_id
 _symmetry_equiv_pos_as_xyz
  1  'x, y, z'
loop_
 _atom_site_type_symbol
 _atom_site_label
 _atom_site_symmetry_multiplicity
 _atom_site_fract_x
 _atom_site_fract_y
 _atom_site_fract_z
 _atom_site_occupancy
  Na  Na0  1  0.01766981  0.00458491  0.50315020  1
  Na  Na1  1  0.98691510  0.00458491  0.00315020  1
  Na  Na2  1  0.69062294  0.34071415  0.83526694  1
  Na  Na3  1  0.65009222  0.34071415  0.33526694  1
  Na  Na4  1  0.33778279  0.68847154  0.16845659  1
  Na  Na5  1  0.35068774  0.68847154  0.66845659  1
  Sc  Sc0  1  0.99736613  0.99628305  0.64637039  1
  Sc  Sc1  1  0.99891693  0.99628305  0.14637039  1
  Sc  Sc2  1  0.67482087  0.32394467  0.97900667  1
  Sc  Sc3  1  0.64912481  0.32394467  0.47900667  1
  Sc  Sc4  1  0.33866768  0.66983631  0.31234821  1
  Sc  Sc5  1  0.33116763  0.66983631  0.81234821  1
  Ti  Ti0  1  0.02395468  0.01384826  0.35404436  1
  Ti  Ti1  1  0.98989358  0.01384826  0.85404436  1
  Ti  Ti2  1  0.65598946  0.30559770  0.68648421  1
  Ti  Ti3  1  0.64960924  0.30559770  0.18648421  1
  Ti  Ti4  1  0.33056171  0.66403359  0.02014957  1
  Ti  Ti5  1  0.33347088  0.66403359  0.52014957  1
  Si  Si0  1  0.29255273  0.99899905  0.24790241  1
  Si  Si1  1  0.70644632  0.99899905  0.74790241  1
  Si  Si2  1  0.37000117  0.03111840  0.58135498  1
  Si  Si3  1  0.66111822  0.03111840  0.08135498  1
  Si  Si4  1  0.04625860  0.37894576  0.91463203  1
  Si  Si5  1  0.33268616  0.37894576  0.41463203  1
  S  S0  1  0.71734716  0.70619797  0.25057773  1
  S  S1  1  0.99088634  0.28620362  0.25052831  1
  S  S2  1  0.29531728  0.28620362  0.75052831  1
  S  S3  1  0.98885081  0.70619797  0.75057773  1
  S  S4  1  0.95965318  0.34185573  0.58305551  1
  S  S5  1  0.65804230  0.61760751  0.58328238  1
  S  S6  1  0.95956621  0.61760751  0.08328238  1
  S  S7  1  0.38220354  0.34185573  0.08305551  1
  S  S8  1  0.62653483  0.67464407  0.91720703  1
  S  S9  1  0.32153158  0.95183361  0.91782638  1
  S  S10  1  0.63030103  0.95183361  0.41782638  1
  S  S11  1  0.04810825  0.67464407  0.41720703  1
  O  O0  1  0.19622532  0.02871989  0.30832790  1
  O  O1  1  0.82249100  0.79886345  0.30382000  1
  O  O2  1  0.96876451  0.17894758  0.30386473  1
  O  O3  1  0.21018307  0.17894758  0.80386473  1
  O  O4  1  0.97637244  0.79886345  0.80382000  1
  O  O5  1  0.83249457  0.02871989  0.80832790  1
  O  O6  1  0.80131859  0.98115680  0.69096363  1
  O  O7  1  0.19403859  0.20214255  0.69711536  1
  O  O8  1  0.01516423  0.80976898  0.69715326  1
  O  O9  1  0.79460476  0.80976898  0.19715326  1
  O  O10  1  0.00810395  0.20214255  0.19711536  1
  O  O11  1  0.17983821  0.98115680  0.19096363  1
  O  O12  1  0.87070248  0.36104816  0.63662170  1
  O  O13  1  0.49857192  0.13032639  0.64172154  1
  O  O14  1  0.64057752  0.51386251  0.63614978  1
  O  O15  1  0.87328599  0.51386251  0.13614978  1
  O  O16  1  0.63175547  0.13032639  0.14172154  1
  O  O17  1  0.49034668  0.36104816  0.13662170  1
  O  O18  1  0.46543328  0.32491169  0.02983714  1
  O  O19  1  0.85668660  0.53878600  0.02945769  1
  O  O20  1  0.68487146  0.15054207  0.02561053  1
  O  O21  1  0.46567161  0.15054207  0.52561053  1
  O  O22  1  0.68210041  0.53878600  0.52945769  1
  O  O23  1  0.85947941  0.32491169  0.52983714  1
  O  O24  1  0.54445671  0.70310753  0.97085655  1
  O  O25  1  0.16965873  0.47982987  0.97399339  1
  O  O26  1  0.31130636  0.84658816  0.97062490  1
  O  O27  1  0.53528080  0.84658816  0.47062490  1
  O  O28  1  0.31017014  0.47982987  0.47399339  1
  O  O29  1  0.15864982  0.70310753  0.47085655  1
  O  O30  1  0.13123849  0.65763734  0.36385989  1
  O  O31  1  0.52403805  0.87872858  0.36426105  1
  O  O32  1  0.34536734  0.48765290  0.35740964  1
  O  O33  1  0.14228455  0.48765290  0.85740964  1
  O  O34  1  0.35468953  0.87872858  0.86426105  1
  O  O35  1  0.52639785  0.65763734  0.86385989  1
  O  O36  1  0.02682984  0.83352862  0.41284229  1
  O  O37  1  0.79893393  0.95180349  0.41387317  1
  O  O38  1  0.14655800  0.18192167  0.40930805  1
  O  O39  1  0.03536367  0.18192167  0.90930805  1
  O  O40  1  0.15286956  0.95180349  0.91387317  1
  O  O41  1  0.80669879  0.83352862  0.91284229  1
  O  O42  1  0.98490750  0.18839981  0.58781884  1
  O  O43  1  0.17484272  0.00142190  0.58849573  1
  O  O44  1  0.80889287  0.79830035  0.58706516  1
  O  O45  1  0.98940748  0.79830035  0.08706516  1
  O  O46  1  0.82657918  0.00142190  0.08849573  1
  O  O47  1  0.20349231  0.18839981  0.08781884  1
  O  O48  1  0.70011515  0.18597458  0.74212253  1
  O  O49  1  0.47392814  0.30370717  0.74623003  1
  O  O50  1  0.82414800  0.53394194  0.74583145  1
  O  O51  1  0.70979494  0.53394194  0.24583145  1
  O  O52  1  0.82978003  0.30370717  0.24623003  1
  O  O53  1  0.48586043  0.18597458  0.24212253  1
  O  O54  1  0.64361925  0.51756674  0.92337773  1
  O  O55  1  0.84884642  0.34769247  0.91875395  1
  O  O56  1  0.46804533  0.13448639  0.92367368  1
  O  O57  1  0.66644207  0.13448639  0.42367368  1
  O  O58  1  0.49884705  0.34769247  0.41875395  1
  O  O59  1  0.87394849  0.51756674  0.42337773  1
  O  O60  1  0.36889205  0.50511835  0.08063299  1
  O  O61  1  0.13654242  0.62941189  0.07850005  1
  O  O62  1  0.47805550  0.84037737  0.07438840  1
  O  O63  1  0.36232087  0.84037737  0.57438840  1
  O  O64  1  0.49286847  0.62941189  0.57850005  1
  O  O65  1  0.13622530  0.50511835  0.58063299  1
  O  O66  1  0.32672619  0.83738992  0.25419983  1
  O  O67  1  0.53627134  0.67835716  0.25444292  1
  O  O68  1  0.14564612  0.46325984  0.25515064  1
  O  O69  1  0.31761272  0.46325984  0.75515064  1
  O  O70  1  0.14208483  0.67835716  0.75444292  1
  O  O71  1  0.51066273  0.83738992  0.75419983  1
loop_
_geom_bond_atom_site_label_1
_geom_bond_atom_site_label_2
_geom_bond_distance
_geom_bond_site_symmetry_2
Na0 O43 2.390706 1_555
Na0 O36 2.562615 1_545
Na0 O38 2.563926 1_555
Na0 O42 2.612881 1_455
Na0 O44 2.654454 1_445
Na0 O37 2.669344 1_445
Na1 O46 2.390706 1_555
Na1 O41 2.562615 1_544
Na1 O39 2.563926 1_654
Na1 O47 2.612881 1_655
Na1 O45 2.654454 1_545
Na1 O40 2.669344 1_644
Na2 O55 2.335642 1_555
Na2 O48 2.533817 1_555
Na2 O50 2.545901 1_555
Na2 O49 2.683565 1_555
Na2 O54 2.684086 1_555
Na2 O56 2.772836 1_555
Na3 O58 2.335643 1_555
Na3 O53 2.533817 1_555
Na3 O51 2.545901 1_555
Na3 O52 2.683565 1_555
Na3 O59 2.684086 1_555
Na3 O57 2.772836 1_555
Na4 O66 2.370551 1_555
Na4 O62 2.508722 1_555
Na4 O61 2.578368 1_555
Na4 O67 2.651658 1_555
Na4 O60 2.657284 1_555
Na4 O68 2.720774 1_555
Na5 O71 2.370551 1_555
Na5 O63 2.508722 1_555
Na5 O64 2.578368 1_555
Na5 O70 2.651658 1_555
Na5 O65 2.657284 1_555
Na5 O69 2.720774 1_555
O0 Si0 1.699651 1_545
O0 Ti0 1.786763 1_555
O1 S0 1.489334 1_555
O1 Ti0 2.155387 1_665
O2 S1 1.496468 1_555
O2 Ti0 2.093913 1_655
O3 S2 1.496468 1_555
O3 Ti1 2.093913 1_455
O4 S3 1.489334 1_555
O4 Ti1 2.155387 1_565
O5 Si1 1.699651 1_545
O5 Ti1 1.786763 1_555
O6 Si1 1.588740 1_555
O6 Sc0 1.945478 1_555
O7 S2 1.464355 1_555
O7 Sc0 2.108744 1_445
O8 S3 1.473709 1_455
O8 Sc0 2.084984 1_455
O9 S0 1.473709 1_555
O9 Sc1 2.084984 1_555
O10 S1 1.464355 1_455
O10 Sc1 2.108744 1_445
O11 Si0 1.588740 1_555
O11 Sc1 1.945478 1_455
O12 S4 1.500729 1_555
O12 Ti2 2.042609 1_555
O13 Si2 1.709055 1_555
O13 Ti2 1.782628 1_555
O14 S5 1.477963 1_555
O14 Ti2 2.231347 1_555
O15 S6 1.477963 1_555
O15 Ti3 2.231347 1_555
O16 Si3 1.709055 1_555
O16 Ti3 1.782628 1_555
O17 S7 1.500729 1_555
O17 Ti3 2.042609 1_555
O18 S7 1.458841 1_555
O18 Sc2 2.175838 1_554
O19 S6 1.469082 1_555
O19 Sc2 2.097651 1_554
O20 Si3 1.600809 1_555
O20 Sc2 1.904550 1_554
O21 Si2 1.600809 1_555
O21 Sc3 1.904550 1_555
O22 S5 1.469082 1_555
O22 Sc3 2.097651 1_555
O23 S4 1.458841 1_555
O23 Sc3 2.175838 1_555
O24 S8 1.499089 1_555
O24 Ti4 2.065589 1_556
O25 Si4 1.675629 1_555
O25 Ti4 1.848758 1_556
O26 S9 1.498823 1_555
O26 Ti4 2.046023 1_556
O27 S10 1.498823 1_555
O27 Ti5 2.046023 1_555
O28 Si5 1.675629 1_555
O28 Ti5 1.848758 1_555
O29 S11 1.499089 1_555
O29 Ti5 2.065589 1_555
O30 S11 1.460979 1_555
O30 Sc4 2.123771 1_555
O31 S10 1.469133 1_555
O31 Sc4 2.099569 1_555
O32 Si5 1.593471 1_555
O32 Sc4 1.937076 1_555
O33 Si4 1.593471 1_555
O33 Sc5 1.937076 1_555
O34 S9 1.469133 1_555
O34 Sc5 2.099569 1_555
O35 S8 1.460979 1_555
O35 Sc5 2.123771 1_555
O36 S11 1.505641 1_555
O36 Ti0 2.095099 1_565
O37 S10 1.483803 1_555
O37 Ti0 2.234393 1_665
O38 Si5 1.693280 1_555
O38 Ti0 1.819771 1_555
O39 Si4 1.693284 1_555
O39 Ti1 1.819771 1_455
O40 S9 1.483794 1_555
O40 Ti1 2.234393 1_465
O41 S8 1.505646 1_555
O41 Ti1 2.095099 1_565
O42 S4 1.479796 1_555
O42 Sc0 2.207620 1_545
O43 Si2 1.608104 1_555
O43 Sc0 2.023785 1_445
O44 S5 1.480433 1_555
O44 Sc0 2.164322 1_555
O45 S6 1.480436 1_555
O45 Sc1 2.164322 1_555
O46 Si3 1.608095 1_555
O46 Sc1 2.023785 1_545
O47 S7 1.479801 1_555
O47 Sc1 2.207620 1_445
O48 Si1 1.681785 1_545
O48 Ti2 1.814578 1_555
O49 S2 1.500962 1_555
O49 Ti2 2.092404 1_555
O50 S3 1.488502 1_555
O50 Ti2 2.245642 1_555
O51 S0 1.488506 1_555
O51 Ti3 2.245642 1_555
O52 S1 1.500954 1_555
O52 Ti3 2.092404 1_555
O53 Si0 1.681790 1_545
O53 Ti3 1.814578 1_555
O54 S8 1.472156 1_555
O54 Sc2 2.255824 1_555
O55 Si4 1.617050 1_655
O55 Sc2 1.986134 1_555
O56 S9 1.481472 1_545
O56 Sc2 2.147311 1_555
O57 S10 1.481467 1_545
O57 Sc3 2.147311 1_555
O58 Si5 1.617067 1_555
O58 Sc3 1.986134 1_555
O59 S11 1.472146 1_655
O59 Sc3 2.255824 1_555
O60 S7 1.501396 1_555
O60 Ti4 2.114029 1_555
O61 S6 1.509074 1_455
O61 Ti4 2.060922 1_555
O62 Si3 1.653974 1_565
O62 Ti4 1.890864 1_555
O63 Si2 1.653966 1_565
O63 Ti5 1.890864 1_555
O64 S5 1.509091 1_555
O64 Ti5 2.060922 1_555
O65 S4 1.501386 1_455
O65 Ti5 2.114029 1_555
O66 Si0 1.602133 1_555
O66 Sc4 2.031564 1_555
O67 S0 1.486012 1_555
O67 Sc4 2.150467 1_555
O68 S1 1.474781 1_455
O68 Sc4 2.182472 1_555
O69 S2 1.474785 1_555
O69 Sc5 2.182472 1_555
O70 S3 1.486004 1_455
O70 Sc5 2.150467 1_555
O71 Si1 1.602139 1_555
O71 Sc5 2.031564 1_555
