# generated using pymatgen
data_MgMn5O8
_symmetry_space_group_name_H-M   'P 1'
_cell_length_a   6.20594396
_cell_length_b   6.19880596
_cell_length_c   6.10696012
_cell_angle_alpha   90.66753485
_cell_angle_beta   61.70165053
_cell_angle_gamma   58.56024421
_symmetry_Int_Tables_number   1
_chemical_formula_structural   MgMn5O8
_chemical_formula_sum   'Mg1 Mn5 O8'
_cell_volume   165.67219046
_cell_formula_units_Z   1
loop_
 _symmetry_equiv_pos_site_id
 _symmetry_equiv_pos_as_xyz
  1  'x, y, z'
loop_
 _atom_site_type_symbol
 _atom_site_label
 _atom_site_symmetry_multiplicity
 _atom_site_fract_x
 _atom_site_fract_y
 _atom_site_fract_z
 _atom_site_occupancy
  Mg  Mg0  1  0.50000000  0.00000000  0.50000000  1
  Mn  Mn0  1  0.00000000  0.50000000  0.50000000  1
  Mn  Mn1  1  0.00000000  0.00000000  0.00000000  1
  Mn  Mn2  1  0.50000000  0.00000000  0.00000000  1
  Mn  Mn3  1  0.00000000  0.50000000  0.00000000  1
  Mn  Mn4  1  0.50000000  0.50000000  0.00000000  1
  O  O0  1  0.44996500  0.24937400  0.79423500  1
  O  O1  1  0.01129400  0.27011500  0.76897400  1
  O  O2  1  0.50144900  0.78029000  0.76976400  1
  O  O3  1  0.95574300  0.74708000  0.79648400  1
  O  O4  1  0.04425700  0.25292000  0.20351600  1
  O  O5  1  0.49855100  0.21971000  0.23023600  1
  O  O6  1  0.98870600  0.72988500  0.23102600  1
  O  O7  1  0.55003500  0.75062600  0.20576500  1
loop_
_geom_bond_atom_site_label_1
_geom_bond_atom_site_label_2
_geom_bond_distance
_geom_bond_site_symmetry_2
Mg0 O6 2.148255 1_545
Mg0 O1 2.148255 1_555
Mg0 O7 2.149486 1_545
Mg0 O0 2.149486 1_555
Mg0 O2 2.150015 1_545
Mg0 O5 2.150015 1_555
Mn0 O3 2.173617 1_455
Mn0 O4 2.173617 1_555
Mn0 O6 2.189351 1_455
Mn0 O1 2.189351 1_555
Mn0 O2 2.190478 1_455
Mn0 O5 2.190478 1_555
Mn1 O4 2.192170 1_555
Mn1 O3 2.192170 1_444
Mn1 O6 2.209696 1_445
Mn1 O1 2.209696 1_554
Mn1 O5 2.213943 1_455
Mn1 O2 2.213943 1_544
Mn2 O2 1.939724 1_544
Mn2 O5 1.939724 1_555
Mn2 O0 1.994868 1_554
Mn2 O7 1.994868 1_545
Mn2 O4 1.999501 1_555
Mn2 O3 1.999501 1_544
Mn3 O1 1.944561 1_554
Mn3 O6 1.944561 1_455
Mn3 O7 1.972885 1_455
Mn3 O0 1.972885 1_554
Mn3 O3 1.973605 1_454
Mn3 O4 1.973605 1_555
Mn4 O0 2.217384 1_554
Mn4 O7 2.217384 1_555
Mn4 O2 2.248788 1_554
Mn4 O5 2.248788 1_555
Mn4 O1 2.254138 1_654
Mn4 O6 2.254138 1_455
