# generated using pymatgen
data_Mn2GeO4
_symmetry_space_group_name_H-M   'P 1'
_cell_length_a   5.06389547
_cell_length_b   6.29508148
_cell_length_c   10.69068556
_cell_angle_alpha   89.99993852
_cell_angle_beta   90.00015959
_cell_angle_gamma   90.00011354
_symmetry_Int_Tables_number   1
_chemical_formula_structural   Mn2GeO4
_chemical_formula_sum   'Mn8 Ge4 O16'
_cell_volume   340.79376780
_cell_formula_units_Z   4
loop_
 _symmetry_equiv_pos_site_id
 _symmetry_equiv_pos_as_xyz
  1  'x, y, z'
loop_
 _atom_site_type_symbol
 _atom_site_label
 _atom_site_symmetry_multiplicity
 _atom_site_fract_x
 _atom_site_fract_y
 _atom_site_fract_z
 _atom_site_occupancy
  Mn  Mn0  1  0.50000191  0.00000319  0.49999777  1
  Mn  Mn1  1  0.49999899  0.50000366  0.50000335  1
  Mn  Mn2  1  0.48930401  0.74999888  0.22099062  1
  Mn  Mn3  1  0.51069359  0.24999658  0.77900997  1
  Mn  Mn4  1  0.00000052  0.99999932  0.99999887  1
  Mn  Mn5  1  0.99999896  0.49999959  0.00000096  1
  Mn  Mn6  1  0.98931242  0.25000357  0.27900733  1
  Mn  Mn7  1  0.01068868  0.74999837  0.72099241  1
  Ge  Ge0  1  0.56493592  0.74999858  0.90315785  1
  Ge  Ge1  1  0.06493740  0.24999931  0.59684691  1
  Ge  Ge2  1  0.43506393  0.24999883  0.09684192  1
  Ge  Ge3  1  0.93506307  0.75000111  0.40315268  1
  O  O0  1  0.77956883  0.75000148  0.55410686  1
  O  O1  1  0.27956502  0.25000022  0.94588889  1
  O  O2  1  0.22043217  0.25000132  0.44589319  1
  O  O3  1  0.72043401  0.74999937  0.05411074  1
  O  O4  1  0.22013901  0.74999920  0.90656709  1
  O  O5  1  0.72013708  0.25000042  0.59343548  1
  O  O6  1  0.77986183  0.24999942  0.09343232  1
  O  O7  1  0.27986379  0.75000081  0.40656475  1
  O  O8  1  0.22568632  0.47147812  0.66524059  1
  O  O9  1  0.72568976  0.52851928  0.83476307  1
  O  O10  1  0.77431404  0.97148126  0.33475945  1
  O  O11  1  0.27430899  0.02851891  0.16523616  1
  O  O12  1  0.77431024  0.52852321  0.33475952  1
  O  O13  1  0.27430890  0.47147830  0.16523683  1
  O  O14  1  0.22568910  0.02852074  0.66524025  1
  O  O15  1  0.72569049  0.97147896  0.83476318  1
loop_
_geom_bond_atom_site_label_1
_geom_bond_atom_site_label_2
_geom_bond_distance
_geom_bond_site_symmetry_2
Mn0 O5 2.171903 1_555
Mn0 O7 2.171912 1_545
Mn0 O2 2.194430 1_555
Mn0 O0 2.194450 1_545
Mn0 O10 2.254413 1_545
Mn0 O14 2.254448 1_555
Mn1 O7 2.171909 1_555
Mn1 O5 2.171913 1_555
Mn1 O0 2.194423 1_555
Mn1 O2 2.194452 1_555
Mn1 O8 2.254407 1_555
Mn1 O12 2.254455 1_555
Mn2 O3 2.133720 1_555
Mn2 O13 2.148174 1_555
Mn2 O11 2.148176 1_565
Mn2 O7 2.249615 1_555
Mn2 O12 2.346500 1_555
Mn2 O10 2.346535 1_555
Mn3 O1 2.133708 1_555
Mn3 O15 2.148164 1_545
Mn3 O9 2.148186 1_555
Mn3 O5 2.249626 1_555
Mn3 O14 2.346498 1_555
Mn3 O8 2.346528 1_555
Mn4 O4 2.171902 1_555
Mn4 O6 2.171911 1_466
Mn4 O1 2.194439 1_565
Mn4 O3 2.194446 1_456
Mn4 O15 2.254377 1_455
Mn4 O11 2.254385 1_566
Mn5 O6 2.171892 1_555
Mn5 O4 2.171909 1_654
Mn5 O3 2.194439 1_555
Mn5 O1 2.194448 1_654
Mn5 O13 2.254379 1_655
Mn5 O9 2.254393 1_554
Mn6 O2 2.133740 1_655
Mn6 O10 2.148187 1_545
Mn6 O12 2.148188 1_555
Mn6 O6 2.249643 1_555
Mn6 O13 2.346476 1_655
Mn6 O11 2.346522 1_655
Mn7 O0 2.133737 1_455
Mn7 O8 2.148178 1_555
Mn7 O14 2.148193 1_565
Mn7 O4 2.249639 1_555
Mn7 O9 2.346501 1_455
Mn7 O15 2.346509 1_455
Ge0 O4 1.746396 1_555
Ge0 O9 1.772339 1_555
Ge0 O15 1.772342 1_555
Ge0 O3 1.795648 1_556
Ge1 O5 1.746414 1_455
Ge1 O8 1.772316 1_555
Ge1 O14 1.772321 1_555
Ge1 O2 1.795652 1_555
Ge2 O6 1.746401 1_555
Ge2 O11 1.772338 1_555
Ge2 O13 1.772343 1_555
Ge2 O1 1.795651 1_554
Ge3 O7 1.746416 1_655
Ge3 O12 1.772318 1_555
Ge3 O10 1.772322 1_555
Ge3 O0 1.795655 1_555
