# generated using pymatgen
data_MgMnO2
_symmetry_space_group_name_H-M   'P 1'
_cell_length_a   5.64839052
_cell_length_b   5.64839064
_cell_length_c   5.64839055
_cell_angle_alpha   31.30839018
_cell_angle_beta   31.30839608
_cell_angle_gamma   31.30840142
_symmetry_Int_Tables_number   1
_chemical_formula_structural   MgMnO2
_chemical_formula_sum   'Mg1 Mn1 O2'
_cell_volume   43.18897027
_cell_formula_units_Z   1
loop_
 _symmetry_equiv_pos_site_id
 _symmetry_equiv_pos_as_xyz
  1  'x, y, z'
loop_
 _atom_site_type_symbol
 _atom_site_label
 _atom_site_symmetry_multiplicity
 _atom_site_fract_x
 _atom_site_fract_y
 _atom_site_fract_z
 _atom_site_occupancy
  Mg  Mg0  1  0.16869700  0.16869700  0.16869700  1
  Mn  Mn0  1  0.99891300  0.99891300  0.99891300  1
  O  O0  1  0.58068100  0.58068100  0.58068100  1
  O  O1  1  0.41837700  0.41837700  0.41837700  1
loop_
_geom_bond_atom_site_label_1
_geom_bond_atom_site_label_2
_geom_bond_distance
_geom_bond_site_symmetry_2
Mg0 O0 2.168179 1_554
Mg0 O0 2.168179 1_545
Mg0 O0 2.168180 1_455
Mg0 O1 2.216193 1_554
Mg0 O1 2.216193 1_545
Mg0 O1 2.216193 1_455
Mn0 O0 2.228437 1_556
Mn0 O0 2.228437 1_565
Mn0 O0 2.228437 1_655
Mn0 O1 2.240661 1_665
Mn0 O1 2.240661 1_656
Mn0 O1 2.240661 1_566
