# generated using pymatgen
data_BaMgBi2O5
_symmetry_space_group_name_H-M   'P 1'
_cell_length_a   4.30290300
_cell_length_b   4.30290300
_cell_length_c   9.45006400
_cell_angle_alpha   90.00000000
_cell_angle_beta   90.00000000
_cell_angle_gamma   90.00000000
_symmetry_Int_Tables_number   1
_chemical_formula_structural   BaMgBi2O5
_chemical_formula_sum   'Ba1 Mg1 Bi2 O5'
_cell_volume   174.96769141
_cell_formula_units_Z   1
loop_
 _symmetry_equiv_pos_site_id
 _symmetry_equiv_pos_as_xyz
  1  'x, y, z'
loop_
 _atom_site_type_symbol
 _atom_site_label
 _atom_site_symmetry_multiplicity
 _atom_site_fract_x
 _atom_site_fract_y
 _atom_site_fract_z
 _atom_site_occupancy
  Ba  Ba0  1  0.00000000  0.00000000  0.50000000  1
  Mg  Mg0  1  0.00000000  0.00000000  0.00000000  1
  Bi  Bi0  1  0.50000000  0.50000000  0.24097000  1
  Bi  Bi1  1  0.50000000  0.50000000  0.75903000  1
  O  O0  1  0.00000000  0.50000000  0.31065400  1
  O  O1  1  0.50000000  0.50000000  0.00000000  1
  O  O2  1  0.50000000  0.00000000  0.31065400  1
  O  O3  1  0.50000000  0.00000000  0.68934600  1
  O  O4  1  0.00000000  0.50000000  0.68934600  1
loop_
_geom_bond_atom_site_label_1
_geom_bond_atom_site_label_2
_geom_bond_distance
_geom_bond_site_symmetry_2
Ba0 O4 2.798294 1_555
Ba0 O2 2.798294 1_455
Ba0 O0 2.798294 1_545
Ba0 O4 2.798294 1_545
Ba0 O3 2.798294 1_455
Ba0 O0 2.798294 1_555
Ba0 O3 2.798294 1_555
Ba0 O2 2.798294 1_555
Bi0 O0 2.249976 1_555
Bi0 O2 2.249976 1_555
Bi0 O2 2.249976 1_565
Bi0 O0 2.249976 1_655
Bi0 O1 2.277182 1_555
Bi1 O4 2.249976 1_655
Bi1 O3 2.249976 1_555
Bi1 O3 2.249976 1_565
Bi1 O4 2.249976 1_555
Bi1 O1 2.277182 1_556
