# generated using pymatgen
data_Na7Hf2Ga2Si3(PO8)3
_symmetry_space_group_name_H-M   'P 1'
_cell_length_a   9.02350592
_cell_length_b   8.99416114
_cell_length_c   22.31042329
_cell_angle_alpha   89.74681003
_cell_angle_beta   90.31179897
_cell_angle_gamma   120.02403592
_symmetry_Int_Tables_number   1
_chemical_formula_structural   Na7Hf2Ga2Si3(PO8)3
_chemical_formula_sum   'Na21 Hf6 Ga6 Si9 P9 O72'
_cell_volume   1567.69622061
_cell_formula_units_Z   3
loop_
 _symmetry_equiv_pos_site_id
 _symmetry_equiv_pos_as_xyz
  1  'x, y, z'
loop_
 _atom_site_type_symbol
 _atom_site_label
 _atom_site_symmetry_multiplicity
 _atom_site_fract_x
 _atom_site_fract_y
 _atom_site_fract_z
 _atom_site_occupancy
  Na  Na0  1  0.63317847  0.00293725  0.25204638  1
  Na  Na1  1  0.36679812  0.36964746  0.24781228  1
  Na  Na2  1  0.99962855  0.62813602  0.24970209  1
  Na  Na3  1  0.63126944  0.63287598  0.75014227  1
  Na  Na4  1  0.99489335  0.36525000  0.75023180  1
  Na  Na5  1  0.37215874  0.00145566  0.74865933  1
  Na  Na6  1  0.03266110  0.69609502  0.58361013  1
  Na  Na7  1  0.66382159  0.97158048  0.58328690  1
  Na  Na8  1  0.66575332  0.69125623  0.08220748  1
  Na  Na9  1  0.03177697  0.33603159  0.08553370  1
  Na  Na10  1  0.96140446  0.66434765  0.91824234  1
  Na  Na11  1  0.70252193  0.03395048  0.91614857  1
  Na  Na12  1  0.33874072  0.30171028  0.91723933  1
  Na  Na13  1  0.96688552  0.30391716  0.41534546  1
  Na  Na14  1  0.33512480  0.02706419  0.41795496  1
  Na  Na15  1  0.00027153  0.99907941  0.50027990  1
  Na  Na16  1  0.00896592  0.99598905  0.99838107  1
  Na  Na17  1  0.66664600  0.33330607  0.83342468  1
  Na  Na18  1  0.67238064  0.34086948  0.33196131  1
  Na  Na19  1  0.32717965  0.66846535  0.16816482  1
  Na  Na20  1  0.33287332  0.66112577  0.66784284  1
  Hf  Hf0  1  0.99111399  0.99590804  0.35305406  1
  Hf  Hf1  1  0.00204813  0.00529357  0.64810610  1
  Hf  Hf2  1  0.00807552  0.00407900  0.14544824  1
  Hf  Hf3  1  0.66595784  0.33253545  0.47973587  1
  Hf  Hf4  1  0.33568450  0.67002177  0.02015822  1
  Hf  Hf5  1  0.33384021  0.66583647  0.52034118  1
  Ga  Ga0  1  0.99131526  0.99740311  0.84973520  1
  Ga  Ga1  1  0.66910781  0.32327920  0.68271321  1
  Ga  Ga2  1  0.67387306  0.33690312  0.18140175  1
  Ga  Ga3  1  0.66176280  0.34288357  0.98437084  1
  Ga  Ga4  1  0.32567453  0.66323339  0.31767365  1
  Ga  Ga5  1  0.34255731  0.67018764  0.81717899  1
  Si  Si0  1  0.99985934  0.30304513  0.24927708  1
  Si  Si1  1  0.70196879  -0.00007608  0.75201316  1
  Si  Si2  1  0.95860935  0.33478231  0.58576550  1
  Si  Si3  1  0.37411210  0.04359088  0.58495658  1
  Si  Si4  1  0.95459076  0.62092598  0.08293167  1
  Si  Si5  1  0.38234261  0.33018550  0.08311611  1
  Si  Si6  1  0.63138949  0.66663289  0.91473933  1
  Si  Si7  1  0.62129001  0.95294540  0.41442773  1
  Si  Si8  1  0.04157840  0.66657651  0.41455562  1
  P  P0  1  0.29850831  0.00101430  0.25089892  1
  P  P1  1  0.70115105  0.70202962  0.24863266  1
  P  P2  1  0.29256024  0.29374620  0.75401276  1
  P  P3  1  0.00005227  0.70515407  0.75277195  1
  P  P4  1  0.66491437  0.61667306  0.58768231  1
  P  P5  1  0.66471247  0.05055171  0.08311852  1
  P  P6  1  0.04191871  0.37395534  0.91411520  1
  P  P7  1  0.33335208  0.96076117  0.91363098  1
  P  P8  1  0.33569112  0.38027970  0.41329731  1
  O  O0  1  0.21397809  0.03020656  0.30687198  1
  O  O1  1  0.82310601  0.79218189  0.30288704  1
  O  O2  1  0.96716742  0.17800088  0.30796011  1
  O  O3  1  0.21103833  0.17629154  0.80966475  1
  O  O4  1  0.97131090  0.79179311  0.80816891  1
  O  O5  1  0.82972929  0.04085462  0.81013703  1
  O  O6  1  0.78813348  0.96169659  0.69328478  1
  O  O7  1  0.17539966  0.20507591  0.69844369  1
  O  O8  1  0.03353767  0.81981115  0.69610539  1
  O  O9  1  0.78656629  0.81676249  0.19257009  1
  O  O10  1  0.03237934  0.20971759  0.19124382  1
  O  O11  1  0.17587912  0.96930227  0.19669140  1
  O  O12  1  0.87690228  0.37454844  0.64469222  1
  O  O13  1  0.49336898  0.12767658  0.64439906  1
  O  O14  1  0.64073680  0.51192082  0.64522684  1
  O  O15  1  0.87753941  0.50364901  0.14339087  1
  O  O16  1  0.63728131  0.12479188  0.14110347  1
  O  O17  1  0.49997845  0.36747778  0.14345499  1
  O  O18  1  0.45850892  0.29869827  0.02154571  1
  O  O19  1  0.83937374  0.53957133  0.02229668  1
  O  O20  1  0.69868629  0.16073418  0.02606980  1
  O  O21  1  0.45641421  0.15431452  0.52378716  1
  O  O22  1  0.69592819  0.53642699  0.53170437  1
  O  O23  1  0.84005055  0.30164368  0.52551781  1
  O  O24  1  0.54495557  0.70426274  0.97366521  1
  O  O25  1  0.15551430  0.45989969  0.97089336  1
  O  O26  1  0.29876487  0.84107228  0.96857484  1
  O  O27  1  0.54043145  0.84362452  0.47597047  1
  O  O28  1  0.30250987  0.46020904  0.46869742  1
  O  O29  1  0.15970246  0.69720211  0.47487317  1
  O  O30  1  0.12307415  0.62761323  0.35554043  1
  O  O31  1  0.50158199  0.86636830  0.35520182  1
  O  O32  1  0.36208439  0.48447569  0.35553904  1
  O  O33  1  0.12478888  0.49242254  0.85862605  1
  O  O34  1  0.36319732  0.87809258  0.85723294  1
  O  O35  1  0.50394456  0.62674486  0.85664932  1
  O  O36  1  0.03520841  0.84534719  0.41072115  1
  O  O37  1  0.81883465  0.98737467  0.41178520  1
  O  O38  1  0.17339582  0.19734913  0.40932657  1
  O  O39  1  0.03223697  0.19551077  0.91048817  1
  O  O40  1  0.17204225  0.98144733  0.90885438  1
  O  O41  1  0.82356564  0.84066083  0.90987256  1
  O  O42  1  0.96655342  0.15640103  0.58956404  1
  O  O43  1  0.17672142  0.00648748  0.58923781  1
  O  O44  1  0.82858657  0.79888035  0.59113548  1
  O  O45  1  0.96507121  0.80841022  0.08883438  1
  O  O46  1  0.82565529  0.02663891  0.08886421  1
  O  O47  1  0.18314103  0.16895756  0.08741018  1
  O  O48  1  0.68576216  0.17516639  0.74622089  1
  O  O49  1  0.47360534  0.31634167  0.74685432  1
  O  O50  1  0.83429700  0.52707437  0.74697167  1
  O  O51  1  0.68512802  0.52308861  0.24559559  1
  O  O52  1  0.82270802  0.31376773  0.24434433  1
  O  O53  1  0.47552145  0.16479593  0.24428002  1
  O  O54  1  0.64836225  0.49196055  0.92006110  1
  O  O55  1  0.85969858  0.34968827  0.92044579  1
  O  O56  1  0.49924982  0.13838848  0.92060893  1
  O  O57  1  0.63880891  0.14554230  0.41857088  1
  O  O58  1  0.49112500  0.35311465  0.41985214  1
  O  O59  1  0.85227713  0.49663448  0.42054756  1
  O  O60  1  0.36162671  0.50494161  0.07799917  1
  O  O61  1  0.14520630  0.63964259  0.07702536  1
  O  O62  1  0.50830518  0.86417441  0.07751539  1
  O  O63  1  0.36034502  0.85301276  0.58070676  1
  O  O64  1  0.51021489  0.64548952  0.58101265  1
  O  O65  1  0.14779358  0.50367453  0.57994474  1
  O  O66  1  0.31444722  0.83795245  0.25411584  1
  O  O67  1  0.52495640  0.68986448  0.25481157  1
  O  O68  1  0.17658956  0.49147974  0.25449409  1
  O  O69  1  0.30205839  0.47157761  0.75701983  1
  O  O70  1  0.16145550  0.68446343  0.75792509  1
  O  O71  1  0.50998677  0.82610068  0.75688876  1
loop_
_geom_bond_atom_site_label_1
_geom_bond_atom_site_label_2
_geom_bond_distance
_geom_bond_site_symmetry_2
Na0 O52 2.446299 1_555
Na0 O67 2.476625 1_545
Na0 O66 2.491149 1_545
Na0 O53 2.498157 1_555
Na0 O31 2.600113 1_545
Na0 O16 2.695458 1_555
Na0 O2 2.888901 1_555
Na0 O9 2.973106 1_545
Na1 O68 2.460719 1_555
Na1 O53 2.484835 1_555
Na1 O51 2.488352 1_555
Na1 O67 2.498855 1_555
Na1 O32 2.629056 1_555
Na1 O17 2.630530 1_555
Na1 O10 2.898064 1_555
Na1 O0 2.954600 1_555
Na2 O68 2.456215 1_655
Na2 O52 2.457901 1_555
Na2 O51 2.503883 1_555
Na2 O66 2.504939 1_655
Na2 O30 2.606351 1_655
Na2 O15 2.617941 1_555
Na2 O11 2.906639 1_655
Na2 O1 2.917199 1_555
Na3 O50 2.452235 1_555
Na3 O49 2.466179 1_555
Na3 O71 2.479528 1_555
Na3 O69 2.577425 1_555
Na3 O14 2.605264 1_555
Na3 O35 2.633365 1_555
Na3 O6 2.855946 1_555
Na3 O4 2.952637 1_555
Na4 O48 2.436825 1_555
Na4 O69 2.442125 1_655
Na4 O70 2.492920 1_655
Na4 O50 2.516416 1_555
Na4 O12 2.597103 1_555
Na4 O33 2.679996 1_655
Na4 O5 2.855851 1_555
Na4 O7 2.906336 1_655
Na5 O71 2.454759 1_545
Na5 O48 2.455251 1_555
Na5 O49 2.503106 1_555
Na5 O70 2.522040 1_545
Na5 O13 2.580221 1_555
Na5 O34 2.644594 1_545
Na5 O8 2.891813 1_545
Na5 O3 2.960964 1_555
Na6 O43 2.422587 1_565
Na6 O65 2.425417 1_555
Na6 O44 2.445850 1_455
Na6 O63 2.562069 1_555
Na6 O29 2.686668 1_555
Na6 O8 2.748282 1_555
Na6 O12 2.848643 1_455
Na6 O22 2.871518 1_455
Na7 O42 2.387204 1_565
Na7 O63 2.390799 1_555
Na7 O64 2.541284 1_555
Na7 O44 2.638113 1_555
Na7 O27 2.647591 1_555
Na7 O6 2.712321 1_555
Na7 O23 2.875246 1_565
Na7 O13 2.897662 1_565
Na8 O45 2.361358 1_555
Na8 O60 2.396784 1_555
Na8 O62 2.580002 1_555
Na8 O46 2.617095 1_565
Na8 O24 2.676278 1_554
Na8 O9 2.699843 1_555
Na8 O17 2.865836 1_555
Na8 O19 2.877519 1_555
Na9 O61 2.396046 1_555
Na9 O46 2.455337 1_455
Na9 O47 2.485574 1_555
Na9 O60 2.583282 1_555
Na9 O10 2.614443 1_555
Na9 O25 2.791170 1_554
Na9 O15 2.830632 1_455
Na9 O20 2.917630 1_455
Na10 O54 2.450018 1_555
Na10 O41 2.462780 1_555
Na10 O55 2.500838 1_555
Na10 O40 2.522879 1_655
Na10 O19 2.574774 1_556
Na10 O4 2.688450 1_555
Na10 O26 2.861964 1_655
Na10 O33 2.941881 1_655
Na11 O56 2.446150 1_555
Na11 O55 2.460798 1_555
Na11 O41 2.477686 1_545
Na11 O39 2.579779 1_655
Na11 O5 2.621515 1_555
Na11 O20 2.716774 1_556
Na11 O24 2.868469 1_545
Na11 O34 2.957226 1_545
Na12 O39 2.436680 1_555
Na12 O54 2.439783 1_555
Na12 O40 2.502116 1_545
Na12 O56 2.527471 1_555
Na12 O18 2.566235 1_556
Na12 O3 2.655843 1_555
Na12 O35 2.867364 1_555
Na12 O25 2.929406 1_555
Na13 O59 2.425769 1_555
Na13 O37 2.468048 1_545
Na13 O38 2.490065 1_655
Na13 O57 2.565076 1_555
Na13 O2 2.655077 1_555
Na13 O23 2.712705 1_555
Na13 O30 2.850029 1_655
Na13 O28 2.877493 1_655
Na14 O36 2.364856 1_545
Na14 O57 2.392163 1_555
Na14 O58 2.540190 1_555
Na14 O38 2.596840 1_555
Na14 O21 2.612480 1_555
Na14 O0 2.708993 1_555
Na14 O29 2.865172 1_545
Na14 O31 2.918639 1_545
Na15 O43 2.517763 1_565
Na15 O37 2.526608 1_455
Na15 O36 2.543833 1_555
Na15 O42 2.554407 1_465
Na15 O38 2.636827 1_565
Na15 O44 2.638459 1_455
Na16 O41 2.509851 1_455
Na16 O47 2.526295 1_566
Na16 O45 2.526985 1_456
Na16 O40 2.529604 1_555
Na16 O39 2.589585 1_565
Na16 O46 2.717509 1_466
Na17 O54 2.462311 1_555
Na17 O48 2.472165 1_555
Na17 O50 2.531756 1_555
Na17 O49 2.547138 1_555
Na17 O56 2.547617 1_555
Na17 O55 2.556268 1_555
Na18 O52 2.466688 1_555
Na18 O51 2.489553 1_555
Na18 O59 2.493526 1_555
Na18 O57 2.521048 1_555
Na18 O53 2.581571 1_555
Na18 O58 2.597946 1_555
Na19 O68 2.434504 1_555
Na19 O66 2.493528 1_555
Na19 O61 2.537790 1_555
Na19 O67 2.565339 1_555
Na19 O60 2.607080 1_555
Na19 O62 2.642988 1_555
Na20 O65 2.502480 1_555
Na20 O71 2.514169 1_555
Na20 O63 2.523254 1_555
Na20 O69 2.538469 1_555
Na20 O64 2.568021 1_555
Na20 O70 2.615010 1_555
Hf0 O37 2.010316 1_555
Hf0 O2 2.019500 1_565
Hf0 O1 2.031820 1_555
Hf0 O36 2.040979 1_655
Hf0 O38 2.140002 1_665
Hf0 O0 2.144731 1_665
Hf1 O42 2.017662 1_455
Hf1 O7 2.030463 1_555
Hf1 O6 2.038597 1_445
Hf1 O43 2.053007 1_555
Hf1 O8 2.113266 1_545
Hf1 O44 2.145542 1_445
Hf2 O47 2.008037 1_555
Hf2 O10 2.030069 1_555
Hf2 O11 2.037047 1_545
Hf2 O45 2.043040 1_445
Hf2 O9 2.139184 1_445
Hf2 O46 2.157259 1_455
Hf3 O23 2.001279 1_555
Hf3 O21 2.020830 1_555
Hf3 O59 2.066996 1_555
Hf3 O22 2.073514 1_555
Hf3 O57 2.086895 1_555
Hf3 O58 2.138964 1_555
Hf4 O24 2.042843 1_554
Hf4 O61 2.046763 1_555
Hf4 O60 2.062081 1_555
Hf4 O26 2.072525 1_554
Hf4 O25 2.084942 1_554
Hf4 O62 2.095043 1_555
Hf5 O29 2.000358 1_555
Hf5 O27 2.008756 1_555
Hf5 O65 2.066581 1_555
Hf5 O63 2.078167 1_555
Hf5 O28 2.078456 1_555
Hf5 O64 2.159745 1_555
Ga0 O5 1.900622 1_565
Ga0 O41 1.987138 1_555
Ga0 O4 1.997932 1_555
Ga0 O3 2.033019 1_665
Ga0 O39 2.122700 1_665
Ga0 O40 2.151485 1_655
Ga1 O13 1.883385 1_555
Ga1 O12 1.896456 1_555
Ga1 O48 1.996524 1_555
Ga1 O14 2.015813 1_555
Ga1 O50 2.214205 1_555
Ga1 O49 2.253961 1_555
Ga2 O15 1.895616 1_555
Ga2 O17 1.915689 1_555
Ga2 O16 1.984557 1_555
Ga2 O52 2.018793 1_555
Ga2 O51 2.171436 1_555
Ga2 O53 2.191612 1_555
Ga3 O18 1.869182 1_556
Ga3 O19 1.890830 1_556
Ga3 O54 2.003590 1_555
Ga3 O20 2.046916 1_556
Ga3 O56 2.204151 1_555
Ga3 O55 2.268348 1_555
Ga4 O30 1.893899 1_555
Ga4 O31 1.911932 1_555
Ga4 O32 1.979935 1_555
Ga4 O68 2.025318 1_555
Ga4 O66 2.151398 1_555
Ga4 O67 2.202582 1_555
Ga5 O35 1.897710 1_555
Ga5 O71 1.985845 1_555
Ga5 O34 1.998580 1_555
Ga5 O33 2.033565 1_555
Ga5 O69 2.118617 1_555
Ga5 O70 2.149326 1_555
O0 P0 1.556881 1_555
O1 P1 1.560407 1_555
O2 Si0 1.650817 1_555
O3 P2 1.555448 1_555
O4 P3 1.554429 1_655
O5 Si1 1.646033 1_555
O6 Si1 1.649875 1_565
O7 P2 1.562516 1_555
O8 P3 1.560101 1_555
O9 P1 1.557730 1_555
O10 Si0 1.651458 1_455
O11 P0 1.562391 1_565
O12 Si2 1.636610 1_555
O13 Si3 1.633295 1_555
O14 P4 1.539537 1_555
O15 Si4 1.636825 1_555
O16 P5 1.535327 1_555
O17 Si5 1.638175 1_555
O18 Si5 1.627270 1_555
O19 Si4 1.636613 1_555
O20 P5 1.544379 1_555
O21 Si3 1.632370 1_555
O22 P4 1.540411 1_555
O23 Si2 1.645868 1_555
O24 Si6 1.652403 1_555
O25 P6 1.566670 1_555
O26 P7 1.554085 1_555
O27 Si7 1.632615 1_555
O28 P8 1.536698 1_555
O29 Si8 1.648268 1_555
O30 Si8 1.633915 1_555
O31 Si7 1.634306 1_555
O32 P8 1.537795 1_555
O33 P6 1.558259 1_555
O34 P7 1.555938 1_555
O35 Si6 1.644954 1_555
O36 Si8 1.639256 1_555
O37 Si7 1.650887 1_555
O38 P8 1.564667 1_555
O39 P6 1.565512 1_555
O40 P7 1.560076 1_555
O41 Si6 1.659265 1_555
O42 Si2 1.643232 1_555
O43 Si3 1.643091 1_555
O44 P4 1.565442 1_555
O45 Si4 1.646819 1_555
O46 P5 1.575461 1_555
O47 Si5 1.653837 1_555
O48 Si1 1.658621 1_555
O49 P2 1.551117 1_555
O50 P3 1.556143 1_655
O51 P1 1.543934 1_555
O52 Si0 1.651958 1_555
O53 P0 1.545666 1_555
O54 Si6 1.656692 1_555
O55 P6 1.553804 1_655
O56 P7 1.556880 1_545
O57 Si7 1.661757 1_545
O58 P8 1.545521 1_555
O59 Si8 1.630901 1_655
O60 Si5 1.676512 1_555
O61 Si4 1.648237 1_455
O62 P5 1.565212 1_565
O63 Si3 1.658537 1_565
O64 P4 1.548354 1_555
O65 Si2 1.626095 1_455
O66 P0 1.544931 1_565
O67 P1 1.544961 1_555
O68 Si0 1.650480 1_455
O69 P2 1.560055 1_555
O70 P3 1.561485 1_555
O71 Si1 1.657500 1_565
