# generated using pymatgen
data_LiCoPO4
_symmetry_space_group_name_H-M   'P 1'
_cell_length_a   5.01627800
_cell_length_b   6.13213500
_cell_length_c   11.04183000
_cell_angle_alpha   90.00000000
_cell_angle_beta   90.00000000
_cell_angle_gamma   90.00000000
_symmetry_Int_Tables_number   1
_chemical_formula_structural   LiCoPO4
_chemical_formula_sum   'Li4 Co4 P4 O16'
_cell_volume   339.65214429
_cell_formula_units_Z   4
loop_
 _symmetry_equiv_pos_site_id
 _symmetry_equiv_pos_as_xyz
  1  'x, y, z'
loop_
 _atom_site_type_symbol
 _atom_site_label
 _atom_site_symmetry_multiplicity
 _atom_site_fract_x
 _atom_site_fract_y
 _atom_site_fract_z
 _atom_site_occupancy
  Li  Li0  1  0.49122500  0.71710800  0.43147000  1
  Li  Li1  1  0.99122500  0.21710800  0.06853000  1
  Li  Li2  1  0.99122500  0.28289200  0.56853000  1
  Li  Li3  1  0.49122500  0.78289200  0.93147000  1
  Co  Co0  1  0.99289700  0.52907100  0.83350300  1
  Co  Co1  1  0.49289700  0.47092900  0.16649700  1
  Co  Co2  1  0.49289700  0.02907100  0.66649700  1
  Co  Co3  1  0.99289700  0.97092900  0.33350300  1
  P  P0  1  0.49652500  0.23132400  0.41190500  1
  P  P1  1  0.99652500  0.76867600  0.58809500  1
  P  P2  1  0.99652500  0.73132400  0.08809500  1
  P  P3  1  0.49652500  0.26867600  0.91190500  1
  O  O0  1  0.41180900  0.06095000  0.84016300  1
  O  O1  1  0.88495700  0.98018900  0.64830600  1
  O  O2  1  0.88791300  0.75565300  0.95650800  1
  O  O3  1  0.30556500  0.78407500  0.58624700  1
  O  O4  1  0.38495700  0.48018900  0.85169400  1
  O  O5  1  0.30556500  0.71592500  0.08624700  1
  O  O6  1  0.38791300  0.25565300  0.54349200  1
  O  O7  1  0.38791300  0.24434700  0.04349200  1
  O  O8  1  0.80556500  0.28407500  0.91375300  1
  O  O9  1  0.38495700  0.01981100  0.35169400  1
  O  O10  1  0.91180900  0.93905000  0.15983700  1
  O  O11  1  0.41180900  0.43905000  0.34016300  1
  O  O12  1  0.91180900  0.56095000  0.65983700  1
  O  O13  1  0.80556500  0.21592500  0.41375300  1
  O  O14  1  0.88791300  0.74434700  0.45650800  1
  O  O15  1  0.88495700  0.51981100  0.14830600  1
loop_
_geom_bond_atom_site_label_1
_geom_bond_atom_site_label_2
_geom_bond_distance
_geom_bond_site_symmetry_2
Li0 O3 1.989158 1_555
Li0 O14 2.015943 1_555
Li0 O11 2.020517 1_555
Li0 O9 2.122649 1_565
Li1 O8 1.989158 1_554
Li1 O7 2.015943 1_655
Li1 O10 2.020517 1_545
Li1 O15 2.122649 1_555
Li2 O13 1.989158 1_555
Li2 O6 2.015943 1_655
Li2 O12 2.020517 1_555
Li2 O1 2.122649 1_545
Li3 O5 1.989158 1_556
Li3 O2 2.015943 1_555
Li3 O0 2.020517 1_565
Li3 O4 2.122649 1_555
Co0 O12 1.969980 1_555
Co0 O8 1.981235 1_555
Co0 O4 1.999508 1_655
Co0 O2 2.013099 1_555
Co1 O11 1.969980 1_555
Co1 O5 1.981235 1_555
Co1 O15 1.999508 1_555
Co1 O7 2.013099 1_555
Co2 O0 1.969980 1_555
Co2 O3 1.981235 1_545
Co2 O1 1.999508 1_545
Co2 O6 2.013099 1_555
Co3 O10 1.969980 1_555
Co3 O13 1.981235 1_565
Co3 O9 1.999508 1_665
Co3 O14 2.013099 1_555
O0 P3 1.559067 1_555
O1 P1 1.561251 1_555
O2 P2 1.558907 1_556
O3 P1 1.553238 1_455
O4 P3 1.561251 1_555
O5 P2 1.553238 1_455
O6 P0 1.558907 1_555
O7 P3 1.558907 1_554
O8 P3 1.553238 1_555
O9 P0 1.561251 1_555
O10 P2 1.559067 1_555
O11 P0 1.559067 1_555
O12 P1 1.559067 1_555
O13 P0 1.553238 1_555
O14 P1 1.558907 1_555
O15 P2 1.561251 1_555
