# generated using pymatgen
data_Ba2TbMgSbO6
_symmetry_space_group_name_H-M   'P 1'
_cell_length_a   6.63832915
_cell_length_b   6.29053527
_cell_length_c   6.63832960
_cell_angle_alpha   61.71847844
_cell_angle_beta   55.39909893
_cell_angle_gamma   61.71847473
_symmetry_Int_Tables_number   1
_chemical_formula_structural   Ba2TbMgSbO6
_chemical_formula_sum   'Ba2 Tb1 Mg1 Sb1 O6'
_cell_volume   192.75694049
_cell_formula_units_Z   1
loop_
 _symmetry_equiv_pos_site_id
 _symmetry_equiv_pos_as_xyz
  1  'x, y, z'
loop_
 _atom_site_type_symbol
 _atom_site_label
 _atom_site_symmetry_multiplicity
 _atom_site_fract_x
 _atom_site_fract_y
 _atom_site_fract_z
 _atom_site_occupancy
  Ba  Ba0  1  0.80717000  0.69283000  0.80717000  1
  Ba  Ba1  1  0.19283000  0.30717000  0.19283000  1
  Tb  Tb0  1  0.00000000  0.00000000  0.00000000  1
  Mg  Mg0  1  0.50000000  0.00000000  0.50000000  1
  Sb  Sb0  1  0.50000000  0.50000000  0.50000000  1
  O  O0  1  0.26761500  0.76749300  0.73238500  1
  O  O1  1  0.24282200  0.75717800  0.24282200  1
  O  O2  1  0.75717800  0.24282200  0.75717800  1
  O  O3  1  0.26761500  0.23250700  0.73238500  1
  O  O4  1  0.73238500  0.23250700  0.26761500  1
  O  O5  1  0.73238500  0.76749300  0.26761500  1
loop_
_geom_bond_atom_site_label_1
_geom_bond_atom_site_label_2
_geom_bond_distance
_geom_bond_site_symmetry_2
Ba0 O3 3.037403 1_655
Ba0 O4 3.037403 1_556
Ba0 O0 3.037403 1_655
Ba0 O5 3.037403 1_556
Ba0 Mg0 3.050307 1_565
Ba0 O1 3.151196 1_556
Ba0 O1 3.151196 1_655
Ba0 O2 3.184205 1_565
Ba0 O2 3.184205 1_555
Ba1 O5 3.037403 1_455
Ba1 O0 3.037403 1_554
Ba1 O4 3.037403 1_455
Ba1 O3 3.037403 1_554
Ba1 Mg0 3.050307 1_555
Ba1 O2 3.151196 1_554
Ba1 O2 3.151196 1_455
Ba1 O1 3.184205 1_545
Ba1 O1 3.184205 1_555
Mg0 O3 2.048408 1_555
Mg0 O5 2.048408 1_545
Mg0 O4 2.048409 1_555
Mg0 O0 2.048409 1_545
O0 Tb0 2.206100 1_566
O0 Sb0 2.210925 1_555
O1 Tb0 2.411308 1_565
O1 Sb0 2.553869 1_555
O2 Tb0 2.411308 1_656
O2 Sb0 2.553869 1_555
O3 Tb0 2.206100 1_556
O3 Sb0 2.210925 1_555
O4 Tb0 2.206100 1_655
O4 Sb0 2.210925 1_555
O5 Tb0 2.206100 1_665
O5 Sb0 2.210925 1_555
