# generated using pymatgen
data_YBO3
_symmetry_space_group_name_H-M   'P 1'
_cell_length_a   6.54242982
_cell_length_b   6.54242982
_cell_length_c   8.82893208
_cell_angle_alpha   90.00000000
_cell_angle_beta   90.00000000
_cell_angle_gamma   120.08127124
_symmetry_Int_Tables_number   1
_chemical_formula_structural   YBO3
_chemical_formula_sum   'Y6 B6 O18'
_cell_volume   327.00975457
_cell_formula_units_Z   6
loop_
 _symmetry_equiv_pos_site_id
 _symmetry_equiv_pos_as_xyz
  1  'x, y, z'
loop_
 _atom_site_type_symbol
 _atom_site_label
 _atom_site_symmetry_multiplicity
 _atom_site_fract_x
 _atom_site_fract_y
 _atom_site_fract_z
 _atom_site_occupancy
  Y  Y0  1  0.32954829  0.67045171  0.50000000  1
  Y  Y1  1  0.32954829  0.67045171  0.00000000  1
  Y  Y2  1  0.00000000  0.00000000  0.50000000  1
  Y  Y3  1  0.00000000  0.00000000  0.00000000  1
  Y  Y4  1  0.67045171  0.32954829  0.50000000  1
  Y  Y5  1  0.67045171  0.32954829  0.00000000  1
  B  B0  1  0.33425861  0.09305122  0.75000000  1
  B  B1  1  0.09305122  0.33425861  0.75000000  1
  B  B2  1  0.57629118  0.57629118  0.75000000  1
  B  B3  1  0.42370882  0.42370882  0.25000000  1
  B  B4  1  0.66574139  0.90694878  0.25000000  1
  B  B5  1  0.90694878  0.66574139  0.25000000  1
  O  O0  1  0.44800454  0.66523018  0.25000000  1
  O  O1  1  0.66523018  0.44800454  0.25000000  1
  O  O2  1  0.88205587  0.88205587  0.25000000  1
  O  O3  1  0.11794413  0.11794413  0.75000000  1
  O  O4  1  0.55199546  0.33476982  0.75000000  1
  O  O5  1  0.33476982  0.55199546  0.75000000  1
  O  O6  1  0.01674550  0.66631003  0.10830563  1
  O  O7  1  0.01674550  0.66631003  0.39169437  1
  O  O8  1  0.66631003  0.01674550  0.10830563  1
  O  O9  1  0.66631003  0.01674550  0.39169437  1
  O  O10  1  0.31524383  0.31524383  0.10637291  1
  O  O11  1  0.31524383  0.31524383  0.39362709  1
  O  O12  1  0.68475617  0.68475617  0.60637291  1
  O  O13  1  0.68475617  0.68475617  0.89362709  1
  O  O14  1  0.98325450  0.33368997  0.60830563  1
  O  O15  1  0.98325450  0.33368997  0.89169437  1
  O  O16  1  0.33368997  0.98325450  0.60830563  1
  O  O17  1  0.33368997  0.98325450  0.89169437  1
loop_
_geom_bond_atom_site_label_1
_geom_bond_atom_site_label_2
_geom_bond_distance
_geom_bond_site_symmetry_2
B0 O16 1.441655 1_545
B0 O17 1.441655 1_545
B0 O3 1.503472 1_555
B0 O4 1.507273 1_555
B1 O14 1.441655 1_455
B1 O15 1.441655 1_455
B1 O3 1.503472 1_555
B1 O5 1.507273 1_555
B2 O12 1.452701 1_555
B2 O13 1.452701 1_555
B2 O4 1.506756 1_555
B2 O5 1.506756 1_555
B3 O11 1.452701 1_555
B3 O10 1.452701 1_555
B3 O0 1.506756 1_555
B3 O1 1.506756 1_555
B4 O8 1.441655 1_565
B4 O9 1.441655 1_565
B4 O2 1.503472 1_555
B4 O0 1.507273 1_555
B5 O6 1.441655 1_655
B5 O7 1.441655 1_655
B5 O2 1.503472 1_555
B5 O1 1.507273 1_555
O0 Y0 2.345250 1_555
O0 Y1 2.345250 1_555
O1 Y5 2.345250 1_555
O1 Y4 2.345250 1_555
O2 Y3 2.337915 1_665
O2 Y2 2.337915 1_665
O3 Y2 2.337915 1_555
O3 Y3 2.337915 1_556
O4 Y5 2.345250 1_556
O4 Y4 2.345250 1_555
O5 Y0 2.345250 1_555
O5 Y1 2.345250 1_556
O6 Y1 2.246693 1_555
O6 Y5 2.428510 1_455
O6 Y3 2.435620 1_565
O7 Y0 2.246693 1_555
O7 Y4 2.428510 1_455
O7 Y2 2.435620 1_565
O8 Y5 2.246693 1_555
O8 Y1 2.428510 1_545
O8 Y3 2.435620 1_655
O9 Y4 2.246693 1_555
O9 Y0 2.428510 1_545
O9 Y2 2.435620 1_655
O10 Y3 2.263916 1_555
O10 Y1 2.464422 1_555
O10 Y5 2.464422 1_555
O11 Y2 2.263916 1_555
O11 Y4 2.464422 1_555
O11 Y0 2.464422 1_555
O12 Y2 2.263916 1_665
O12 Y0 2.464422 1_555
O12 Y4 2.464422 1_555
O13 Y3 2.263916 1_666
O13 Y5 2.464422 1_556
O13 Y1 2.464422 1_556
O14 Y4 2.246693 1_555
O14 Y0 2.428510 1_655
O14 Y2 2.435620 1_655
O15 Y5 2.246693 1_556
O15 Y1 2.428510 1_656
O15 Y3 2.435620 1_656
O16 Y0 2.246693 1_555
O16 Y4 2.428510 1_565
O16 Y2 2.435620 1_565
O17 Y1 2.246693 1_556
O17 Y5 2.428510 1_566
O17 Y3 2.435620 1_566
