# generated using pymatgen
data_NdSnPt
_symmetry_space_group_name_H-M   'P 1'
_cell_length_a   4.62915992
_cell_length_b   7.46348939
_cell_length_c   8.06017477
_cell_angle_alpha   90.00000000
_cell_angle_beta   90.00000000
_cell_angle_gamma   90.00000000
_symmetry_Int_Tables_number   1
_chemical_formula_structural   NdSnPt
_chemical_formula_sum   'Nd4 Sn4 Pt4'
_cell_volume   278.47650699
_cell_formula_units_Z   4
loop_
 _symmetry_equiv_pos_site_id
 _symmetry_equiv_pos_as_xyz
  1  'x, y, z'
loop_
 _atom_site_type_symbol
 _atom_site_label
 _atom_site_symmetry_multiplicity
 _atom_site_fract_x
 _atom_site_fract_y
 _atom_site_fract_z
 _atom_site_occupancy
  Nd  Nd0  1  0.75000000  0.48768858  0.80457366  1
  Nd  Nd1  1  0.25000000  0.01231142  0.30457366  1
  Nd  Nd2  1  0.75000000  0.98768858  0.69542634  1
  Nd  Nd3  1  0.25000000  0.51231142  0.19542634  1
  Sn  Sn0  1  0.25000000  0.67655605  0.58373115  1
  Sn  Sn1  1  0.25000000  0.17655605  0.91626885  1
  Sn  Sn2  1  0.75000000  0.32344395  0.41626885  1
  Sn  Sn3  1  0.75000000  0.82344395  0.08373115  1
  Pt  Pt0  1  0.25000000  0.78995315  0.90923601  1
  Pt  Pt1  1  0.25000000  0.28995315  0.59076399  1
  Pt  Pt2  1  0.75000000  0.71004685  0.40923601  1
  Pt  Pt3  1  0.75000000  0.21004685  0.09076399  1
loop_
_geom_bond_atom_site_label_1
_geom_bond_atom_site_label_2
_geom_bond_distance
_geom_bond_site_symmetry_2
Nd0 Pt3 3.100803 1_556
Nd0 Pt1 3.241168 1_555
Nd0 Pt1 3.241168 1_655
Nd0 Sn0 3.242343 1_555
Nd0 Sn0 3.242343 1_655
Nd0 Pt0 3.340395 1_555
Nd0 Pt0 3.340395 1_655
Nd0 Sn2 3.361303 1_555
Nd0 Sn3 3.367838 1_556
Nd0 Sn1 3.400014 1_655
Nd0 Sn1 3.400014 1_555
Nd0 Pt2 3.592755 1_555
Nd0 Nd2 3.834041 1_545
Nd0 Nd2 3.834041 1_555
Nd0 Nd3 3.913528 1_556
Nd0 Nd3 3.913528 1_656
Nd1 Pt1 3.100803 1_555
Nd1 Pt3 3.241168 1_455
Nd1 Pt3 3.241168 1_555
Nd1 Sn3 3.242343 1_445
Nd1 Sn3 3.242343 1_545
Nd1 Pt2 3.340395 1_445
Nd1 Pt2 3.340395 1_545
Nd1 Sn1 3.361303 1_554
Nd1 Sn0 3.367838 1_545
Nd1 Sn2 3.400014 1_555
Nd1 Sn2 3.400014 1_455
Nd1 Pt0 3.592755 1_544
Nd1 Nd3 3.834041 1_555
Nd1 Nd3 3.834041 1_545
Nd1 Nd2 3.913528 1_545
Nd1 Nd2 3.913528 1_445
Nd2 Pt2 3.100803 1_555
Nd2 Pt0 3.241168 1_655
Nd2 Pt0 3.241168 1_555
Nd2 Sn1 3.242343 1_665
Nd2 Sn1 3.242343 1_565
Nd2 Pt1 3.340395 1_565
Nd2 Pt1 3.340395 1_665
Nd2 Sn3 3.361303 1_556
Nd2 Sn2 3.367838 1_565
Nd2 Sn0 3.400014 1_655
Nd2 Sn0 3.400014 1_555
Nd2 Pt3 3.592755 1_566
Nd3 Pt0 3.100803 1_554
Nd3 Pt2 3.241168 1_455
Nd3 Pt2 3.241168 1_555
Nd3 Sn2 3.242343 1_455
Nd3 Sn2 3.242343 1_555
Nd3 Pt3 3.340395 1_455
Nd3 Pt3 3.340395 1_555
Nd3 Sn0 3.361303 1_555
Nd3 Sn1 3.367838 1_554
Nd3 Sn3 3.400014 1_455
Nd3 Sn3 3.400014 1_555
Nd3 Pt1 3.592755 1_555
Pt0 Sn3 2.719907 1_456
Pt0 Sn3 2.719907 1_556
Pt0 Sn0 2.756756 1_555
Pt0 Sn1 2.885963 1_565
Pt1 Sn2 2.719907 1_455
Pt1 Sn2 2.719907 1_555
Pt1 Sn1 2.756756 1_555
Pt1 Sn0 2.885963 1_555
Pt2 Sn0 2.719907 1_555
Pt2 Sn0 2.719907 1_655
Pt2 Sn3 2.756756 1_555
Pt2 Sn2 2.885963 1_555
Pt3 Sn1 2.719907 1_654
Pt3 Sn1 2.719907 1_554
Pt3 Sn2 2.756756 1_555
Pt3 Sn3 2.885963 1_545
