# generated using pymatgen
data_Na5La2Sc2P5SO24
_symmetry_space_group_name_H-M   'P 1'
_cell_length_a   9.27387087
_cell_length_b   9.25249518
_cell_length_c   23.32016896
_cell_angle_alpha   90.31441197
_cell_angle_beta   89.88379732
_cell_angle_gamma   120.09017689
_symmetry_Int_Tables_number   1
_chemical_formula_structural   Na5La2Sc2P5SO24
_chemical_formula_sum   'Na15 La6 Sc6 P15 S3 O72'
_cell_volume   1731.33134795
_cell_formula_units_Z   3
loop_
 _symmetry_equiv_pos_site_id
 _symmetry_equiv_pos_as_xyz
  1  'x, y, z'
loop_
 _atom_site_type_symbol
 _atom_site_label
 _atom_site_symmetry_multiplicity
 _atom_site_fract_x
 _atom_site_fract_y
 _atom_site_fract_z
 _atom_site_occupancy
  Na  Na0  1  0.64205419  0.00188435  0.24948635  1
  Na  Na1  1  0.99784324  0.35869703  0.74908122  1
  Na  Na2  1  0.35515307  0.99756004  0.74847595  1
  Na  Na3  1  0.03165428  0.69562949  0.57025644  1
  Na  Na4  1  0.66177631  0.97150050  0.57575344  1
  Na  Na5  1  0.30709229  0.97760452  0.09189420  1
  Na  Na6  1  0.02195236  0.32957254  0.09279686  1
  Na  Na7  1  0.97751106  0.66390260  0.92601347  1
  Na  Na8  1  0.70049818  0.67409687  0.41317246  1
  Na  Na9  1  0.02966189  0.02451424  0.49351528  1
  Na  Na10  1  0.99750665  0.00877207  0.00688329  1
  Na  Na11  1  0.65462323  0.32312051  0.83456363  1
  Na  Na12  1  0.69278410  0.34115707  0.33299116  1
  Na  Na13  1  0.34439427  0.63832892  0.16991055  1
  Na  Na14  1  0.35518075  0.65209781  0.66424758  1
  La  La0  1  0.99625442  0.01014078  0.85693479  1
  La  La1  1  0.00070764  0.99902279  0.64471409  1
  La  La2  1  0.66410287  0.35017449  0.67893176  1
  La  La3  1  0.65976657  0.32230562  0.99390252  1
  La  La4  1  0.32520738  0.65837289  0.50115816  1
  La  La5  1  0.34738612  0.66954773  0.82119869  1
  Sc  Sc0  1  0.98669678  0.99206698  0.34385966  1
  Sc  Sc1  1  0.99019983  0.99699169  0.15585991  1
  Sc  Sc2  1  0.67411199  0.35260268  0.18381830  1
  Sc  Sc3  1  0.66934430  0.32594281  0.47871752  1
  Sc  Sc4  1  0.33273922  0.66756325  0.02304529  1
  Sc  Sc5  1  0.31822826  0.66154030  0.31616622  1
  P  P0  1  0.69667251  0.70204632  0.25230567  1
  P  P1  1  0.99637118  0.29659831  0.24862442  1
  P  P2  1  0.30483249  0.30448371  0.75062074  1
  P  P3  1  0.00173846  0.69296818  0.75299031  1
  P  P4  1  0.69053816  0.00250212  0.74403090  1
  P  P5  1  0.96288529  0.33623460  0.57953643  1
  P  P6  1  0.37027962  0.03344922  0.57768259  1
  P  P7  1  0.66885341  0.63816061  0.56861966  1
  P  P8  1  0.97332632  0.64251131  0.08517846  1
  P  P9  1  0.66725618  0.02788607  0.09275862  1
  P  P10  1  0.35573469  0.32745410  0.09016824  1
  P  P11  1  0.03722552  0.37223511  0.92385346  1
  P  P12  1  0.32904947  0.96272979  0.92400370  1
  P  P13  1  0.64069973  0.97288784  0.41014466  1
  P  P14  1  0.02243973  0.66993828  0.41433110  1
  S  S0  1  0.29774972  0.99849791  0.24972050  1
  S  S1  1  0.63964571  0.66914352  0.92682003  1
  S  S2  1  0.33185602  0.35333646  0.40872437  1
  O  O0  1  0.20434107  0.01115307  0.29810313  1
  O  O1  1  0.79446439  0.77289026  0.30913740  1
  O  O2  1  0.96599049  0.16848682  0.29643759  1
  O  O3  1  0.20464106  0.20981049  0.80405357  1
  O  O4  1  0.00131764  0.79028841  0.80701708  1
  O  O5  1  0.79838318  0.00181070  0.79434735  1
  O  O6  1  0.77023091  0.00070068  0.68579497  1
  O  O7  1  0.21240645  0.20809582  0.69589357  1
  O  O8  1  0.00049024  0.78395449  0.69734324  1
  O  O9  1  0.79705646  0.82938756  0.20445840  1
  O  O10  1  0.02468336  0.22607663  0.19166209  1
  O  O11  1  0.20783568  0.98149259  0.19512992  1
  O  O12  1  0.89694829  0.34436692  0.63985366  1
  O  O13  1  0.44480377  0.10440191  0.63762620  1
  O  O14  1  0.66663384  0.55448348  0.62543107  1
  O  O15  1  0.86614981  0.50553878  0.13024760  1
  O  O16  1  0.63576490  0.12035394  0.14323957  1
  O  O17  1  0.47995952  0.35195595  0.13884933  1
  O  O18  1  0.41475792  0.28292144  0.03462663  1
  O  O19  1  0.88747224  0.59063035  0.02627997  1
  O  O20  1  0.72051363  0.14008573  0.03913762  1
  O  O21  1  0.48572633  0.14951381  0.52978121  1
  O  O22  1  0.65932369  0.52965702  0.51610935  1
  O  O23  1  0.84705638  0.34321337  0.53260996  1
  O  O24  1  0.52578046  0.65390106  0.97350655  1
  O  O25  1  0.14913548  0.48656586  0.97387013  1
  O  O26  1  0.34187256  0.85892925  0.97461097  1
  O  O27  1  0.58081574  0.87115353  0.46658251  1
  O  O28  1  0.29523925  0.39824104  0.46588133  1
  O  O29  1  0.10178074  0.69606423  0.47456235  1
  O  O30  1  0.13816615  0.65055803  0.36997054  1
  O  O31  1  0.51821028  0.87020542  0.36062672  1
  O  O32  1  0.35441746  0.48408012  0.36616159  1
  O  O33  1  0.11873283  0.44598873  0.86521530  1
  O  O34  1  0.33000979  0.88340836  0.86556399  1
  O  O35  1  0.57545349  0.67929371  0.87035361  1
  O  O36  1  0.00274550  0.82398251  0.40180435  1
  O  O37  1  0.81501844  0.99121263  0.39943124  1
  O  O38  1  0.19256425  0.18694217  0.39402923  1
  O  O39  1  0.01058453  0.19537722  0.93217372  1
  O  O40  1  0.15799586  0.95557214  0.93098146  1
  O  O41  1  0.80507909  0.82117811  0.93606356  1
  O  O42  1  0.96298369  0.16997934  0.57135502  1
  O  O43  1  0.19236236  0.00742601  0.57144830  1
  O  O44  1  0.83694441  0.80700766  0.56490289  1
  O  O45  1  0.00489759  0.81884223  0.10103519  1
  O  O46  1  0.81782294  0.00232830  0.10351839  1
  O  O47  1  0.17919329  0.17283542  0.10097650  1
  O  O48  1  0.67964428  0.16397986  0.75095336  1
  O  O49  1  0.47565237  0.31368394  0.75550688  1
  O  O50  1  0.85170212  0.51244604  0.75581600  1
  O  O51  1  0.67904191  0.52877811  0.24027994  1
  O  O52  1  0.83332593  0.30841531  0.24366930  1
  O  O53  1  0.47071142  0.14760921  0.24763248  1
  O  O54  1  0.66504784  0.52304155  0.92414983  1
  O  O55  1  0.86929622  0.37175204  0.92360918  1
  O  O56  1  0.47698748  0.14308647  0.92329159  1
  O  O57  1  0.65429798  0.14607643  0.41699942  1
  O  O58  1  0.49356721  0.35390597  0.41070088  1
  O  O59  1  0.84523498  0.51095931  0.41454459  1
  O  O60  1  0.33482269  0.48378905  0.08380810  1
  O  O61  1  0.14779770  0.65185150  0.08279328  1
  O  O62  1  0.50221310  0.85952406  0.08300651  1
  O  O63  1  0.35727154  0.85951912  0.57372346  1
  O  O64  1  0.52264165  0.67382853  0.57078848  1
  O  O65  1  0.13842133  0.49302174  0.57492057  1
  O  O66  1  0.31880569  0.84694559  0.25575016  1
  O  O67  1  0.52286421  0.69193596  0.25636043  1
  O  O68  1  0.15037422  0.47163574  0.26101955  1
  O  O69  1  0.31775459  0.47738540  0.74665910  1
  O  O70  1  0.16388335  0.68216664  0.75050327  1
  O  O71  1  0.51093125  0.85121114  0.74492109  1
loop_
_geom_bond_atom_site_label_1
_geom_bond_atom_site_label_2
_geom_bond_distance
_geom_bond_site_symmetry_2
Na0 O52 2.483428 1_555
Na0 O67 2.509486 1_545
Na0 O53 2.548340 1_555
Na0 O66 2.598915 1_545
Na0 O16 2.727340 1_555
Na0 O2 2.819795 1_555
Na0 O9 2.827052 1_545
Na0 O31 2.853145 1_545
Na1 O50 2.411451 1_555
Na1 O48 2.573937 1_555
Na1 O70 2.589910 1_655
Na1 O69 2.596965 1_655
Na1 O12 2.694978 1_555
Na1 O33 2.885184 1_655
Na2 O71 2.426381 1_555
Na2 O70 2.544635 1_555
Na2 O49 2.559081 1_565
Na2 O48 2.604524 1_565
Na2 O13 2.747013 1_565
Na2 O34 2.899608 1_555
Na3 O29 2.322628 1_555
Na3 O44 2.491266 1_455
Na3 O43 2.496520 1_565
Na3 O65 2.523950 1_555
Na3 O63 2.613969 1_555
Na4 O64 2.386966 1_555
Na4 O42 2.458244 1_565
Na4 O63 2.473159 1_555
Na4 O27 2.681436 1_555
Na4 O6 2.720351 1_565
Na4 O44 2.737268 1_555
Na5 O45 2.435238 1_555
Na5 O62 2.547418 1_555
Na5 O11 2.582208 1_555
Na5 O61 2.615592 1_555
Na5 O47 2.618762 1_565
Na5 O18 2.822847 1_565
Na5 O16 2.903368 1_565
Na5 O26 3.018097 1_554
Na6 O10 2.506391 1_555
Na6 O60 2.519554 1_555
Na6 O47 2.527964 1_555
Na6 O61 2.612487 1_555
Na6 O46 2.659481 1_455
Na6 O20 2.744104 1_455
Na6 O15 2.799896 1_455
Na7 O40 2.359208 1_655
Na7 O55 2.365494 1_555
Na7 O19 2.462930 1_556
Na7 O54 2.512043 1_555
Na7 O41 2.656644 1_555
Na8 O36 2.439988 1_655
Na8 O59 2.472525 1_555
Na8 O1 2.588051 1_555
Na8 O37 2.593054 1_555
Na8 O58 2.600123 1_555
Na8 O22 2.685901 1_555
Na8 O27 2.847144 1_555
Na8 O32 2.988118 1_555
Na9 O43 2.420360 1_555
Na9 O42 2.508408 1_455
Na9 O44 2.536508 1_445
Na9 O36 2.751943 1_545
Na9 O38 2.769639 1_555
Na9 O37 2.875151 1_445
Na10 O41 2.408204 1_544
Na10 O39 2.419362 1_654
Na10 O40 2.510959 1_644
Na10 O47 2.715122 1_655
Na10 O46 2.783059 1_555
Na10 O45 2.842086 1_645
Na11 O49 2.454926 1_555
Na11 O48 2.516534 1_555
Na11 O50 2.567634 1_555
Na11 O56 2.653748 1_555
Na11 O54 2.752216 1_555
Na11 O55 2.754325 1_555
Na12 O59 2.415579 1_555
Na12 O52 2.550964 1_555
Na12 O57 2.571646 1_555
Na12 O58 2.629429 1_555
Na12 O53 2.773112 1_555
Na12 O51 2.822832 1_555
Na13 O60 2.434365 1_555
Na13 O67 2.495826 1_555
Na13 O68 2.714467 1_555
Na13 O62 2.732729 1_555
Na13 O61 2.777348 1_555
Na13 O66 2.864302 1_555
Na14 O69 2.428152 1_555
Na14 O71 2.514844 1_555
Na14 O64 2.623049 1_555
Na14 O65 2.750127 1_555
Na14 O70 2.783008 1_555
Na14 O63 2.854301 1_555
La0 O3 2.259183 1_655
La0 O5 2.317624 1_555
La0 O4 2.358978 1_645
La0 O39 2.402755 1_655
La0 O40 2.503211 1_645
La0 O41 2.553267 1_545
La1 O7 2.279684 1_565
La1 O8 2.342833 1_555
La1 O6 2.347629 1_465
La1 O43 2.436168 1_565
La1 O42 2.477513 1_465
La1 O44 2.489302 1_455
La2 O14 2.260959 1_555
La2 O13 2.362553 1_555
La2 O12 2.367301 1_555
La2 O49 2.399896 1_555
La2 O50 2.420663 1_555
La2 O48 2.468059 1_555
La3 O20 2.290647 1_556
La3 O18 2.315665 1_556
La3 O56 2.344642 1_555
La3 O55 2.403369 1_555
La3 O19 2.433518 1_556
La3 O54 2.457557 1_555
La4 O27 2.339948 1_555
La4 O29 2.351967 1_555
La4 O65 2.378989 1_555
La4 O64 2.399291 1_555
La4 O63 2.414196 1_555
La4 O28 2.419811 1_555
La5 O34 2.303996 1_555
La5 O33 2.333472 1_555
La5 O35 2.369199 1_555
La5 O69 2.395085 1_555
La5 O71 2.399030 1_555
La5 O70 2.416691 1_555
O0 S0 1.460634 1_545
O0 Sc0 2.208996 1_445
O1 P0 1.551737 1_555
O1 Sc0 2.075821 1_555
O2 P1 1.551142 1_555
O2 Sc0 2.063814 1_545
O3 P2 1.540935 1_555
O4 P3 1.545726 1_555
O5 P4 1.545452 1_555
O6 P4 1.548832 1_555
O7 P2 1.544118 1_555
O8 P3 1.553928 1_555
O9 P0 1.552502 1_555
O9 Sc1 2.030619 1_555
O10 P1 1.555677 1_455
O10 Sc1 2.143375 1_445
O11 S0 1.487044 1_555
O11 Sc1 2.287364 1_455
O12 P5 1.549069 1_555
O13 P6 1.549722 1_555
O14 P7 1.533050 1_555
O15 P8 1.563968 1_555
O15 Sc2 2.053820 1_555
O16 P9 1.562441 1_555
O16 Sc2 2.202819 1_555
O17 P10 1.551771 1_555
O17 Sc2 2.082912 1_555
O18 P10 1.537680 1_555
O19 P8 1.537819 1_555
O20 P9 1.543660 1_555
O21 P6 1.550090 1_555
O21 Sc3 2.051409 1_555
O22 P7 1.553443 1_555
O22 Sc3 2.116359 1_555
O23 P5 1.559069 1_555
O23 Sc3 2.015768 1_555
O24 S1 1.472415 1_555
O24 Sc4 2.184599 1_556
O25 P11 1.564331 1_555
O25 Sc4 2.036283 1_556
O26 P12 1.567441 1_555
O26 Sc4 2.071035 1_556
O27 P13 1.553427 1_555
O28 S2 1.482614 1_555
O29 P14 1.547533 1_555
O30 P14 1.562240 1_555
O30 Sc5 2.048388 1_555
O31 P13 1.561285 1_555
O31 Sc5 2.153488 1_555
O32 S2 1.500300 1_555
O32 Sc5 2.177870 1_555
O33 P11 1.547834 1_555
O34 P12 1.546459 1_555
O35 S1 1.468942 1_555
O36 P14 1.554339 1_555
O36 Sc0 2.126672 1_455
O37 P13 1.558389 1_555
O37 Sc0 2.047803 1_555
O38 S2 1.469078 1_555
O38 Sc0 2.190667 1_445
O39 P11 1.540881 1_555
O40 P12 1.562381 1_555
O41 S1 1.487625 1_555
O42 P5 1.549478 1_555
O43 P6 1.550411 1_555
O44 P7 1.561140 1_555
O45 P8 1.548900 1_455
O45 Sc1 2.138137 1_455
O46 P9 1.549776 1_555
O46 Sc1 2.033614 1_545
O47 P10 1.563440 1_555
O47 Sc1 2.124038 1_445
O48 P4 1.554722 1_555
O49 P2 1.547645 1_555
O50 P3 1.549409 1_655
O51 P0 1.551750 1_555
O51 Sc2 2.072399 1_555
O52 P1 1.574248 1_555
O52 Sc2 2.217049 1_555
O53 S0 1.503363 1_545
O53 Sc2 2.408803 1_555
O54 S1 1.484956 1_555
O55 P11 1.555140 1_655
O56 P12 1.540061 1_545
O57 P13 1.550441 1_545
O57 Sc3 2.145289 1_555
O58 S2 1.497856 1_555
O58 Sc3 2.382873 1_555
O59 P14 1.562222 1_655
O59 Sc3 2.247013 1_555
O60 P10 1.560673 1_555
O60 Sc4 2.226885 1_555
O61 P8 1.577354 1_455
O61 Sc4 2.155615 1_555
O62 P9 1.558136 1_565
O62 Sc4 2.182336 1_555
O63 P6 1.554552 1_565
O64 P7 1.548648 1_555
O65 P5 1.548907 1_455
O66 S0 1.516907 1_555
O66 Sc5 2.223771 1_555
O67 P0 1.569751 1_555
O67 Sc5 2.254805 1_555
O68 P1 1.556733 1_455
O68 Sc5 2.098833 1_555
O69 P2 1.546450 1_555
O70 P3 1.557168 1_555
O71 P4 1.548074 1_565
