# generated using pymatgen
data_Ca2Ta2SiS5O24
_symmetry_space_group_name_H-M   'P 1'
_cell_length_a   9.10956934
_cell_length_b   9.09289174
_cell_length_c   23.16758848
_cell_angle_alpha   90.09663048
_cell_angle_beta   90.15537385
_cell_angle_gamma   119.96881438
_symmetry_Int_Tables_number   1
_chemical_formula_structural   Ca2Ta2SiS5O24
_chemical_formula_sum   'Ca6 Ta6 Si3 S15 O72'
_cell_volume   1662.43029850
_cell_formula_units_Z   3
loop_
 _symmetry_equiv_pos_site_id
 _symmetry_equiv_pos_as_xyz
  1  'x, y, z'
loop_
 _atom_site_type_symbol
 _atom_site_label
 _atom_site_symmetry_multiplicity
 _atom_site_fract_x
 _atom_site_fract_y
 _atom_site_fract_z
 _atom_site_occupancy
  Ca  Ca0  1  0.99762670  0.00088017  0.36684811  1
  Ca  Ca1  1  0.00178273  0.00385381  0.85590620  1
  Ca  Ca2  1  0.99557629  0.00740898  0.64228614  1
  Ca  Ca3  1  0.68004475  0.33625532  0.68755781  1
  Ca  Ca4  1  0.66279726  0.33297292  0.19511253  1
  Ca  Ca5  1  0.33190183  0.66405185  0.02811341  1
  Ta  Ta0  1  0.00299005  0.00443557  0.14341184  1
  Ta  Ta1  1  0.65772543  0.33254378  0.98042343  1
  Ta  Ta2  1  0.67325912  0.32524218  0.47764957  1
  Ta  Ta3  1  0.33994298  0.67081036  0.52256827  1
  Ta  Ta4  1  0.33983362  0.67578166  0.31093964  1
  Ta  Ta5  1  0.32839386  0.66205291  0.81511688  1
  Si  Si0  1  0.96446498  0.33750184  0.58221574  1
  Si  Si1  1  0.37445155  0.32223271  0.08618527  1
  Si  Si2  1  0.60741911  0.95784815  0.41647151  1
  S  S0  1  0.26759257  0.97371600  0.25091514  1
  S  S1  1  0.70578305  0.72577741  0.25197168  1
  S  S2  1  0.02279783  0.29146930  0.25059216  1
  S  S3  1  0.29823889  0.30426353  0.75309456  1
  S  S4  1  0.01045763  0.70734077  0.75381682  1
  S  S5  1  0.69024820  0.98589888  0.75403626  1
  S  S6  1  0.38094866  0.04316024  0.57808566  1
  S  S7  1  0.65927996  0.61327777  0.57765433  1
  S  S8  1  0.93948586  0.62937688  0.08394733  1
  S  S9  1  0.69036943  0.06206794  0.08302963  1
  S  S10  1  0.61407678  0.64967613  0.91830879  1
  S  S11  1  0.03396728  0.39019775  0.91834984  1
  S  S12  1  0.35455831  0.96696986  0.91870192  1
  S  S13  1  0.35529353  0.40324573  0.41629995  1
  S  S14  1  0.04786505  0.64679229  0.41627936  1
  O  O0  1  0.19726621  0.00471262  0.30212584  1
  O  O1  1  0.80531783  0.80441896  0.30313059  1
  O  O2  1  0.99416508  0.18778553  0.30099789  1
  O  O3  1  0.22134009  0.20170628  0.80422907  1
  O  O4  1  0.99416699  0.79184899  0.80480467  1
  O  O5  1  0.79741654  0.01519474  0.80453050  1
  O  O6  1  0.74851827  0.93978839  0.70207256  1
  O  O7  1  0.19310762  0.24287949  0.70141644  1
  O  O8  1  0.05037483  0.80707915  0.70117232  1
  O  O9  1  0.78118516  0.83492932  0.19929715  1
  O  O10  1  0.04599120  0.19889058  0.19747821  1
  O  O11  1  0.15232524  0.94355421  0.19882931  1
  O  O12  1  0.89335354  0.39125100  0.63522954  1
  O  O13  1  0.48248969  0.10715605  0.62978958  1
  O  O14  1  0.61463394  0.51106741  0.62922179  1
  O  O15  1  0.87577782  0.52286784  0.13433896  1
  O  O16  1  0.66369893  0.13300291  0.13485222  1
  O  O17  1  0.48269507  0.33760246  0.14064116  1
  O  O18  1  0.47812741  0.29057483  0.02737459  1
  O  O19  1  0.82530312  0.54417125  0.03141898  1
  O  O20  1  0.72576846  0.17964545  0.03114858  1
  O  O21  1  0.47510620  0.15620102  0.52614760  1
  O  O22  1  0.66565387  0.51526682  0.52529510  1
  O  O23  1  0.83154675  0.32106280  0.52330092  1
  O  O24  1  0.54549539  0.68018465  0.96998049  1
  O  O25  1  0.13664223  0.46212536  0.96932504  1
  O  O26  1  0.32449977  0.87006596  0.97088840  1
  O  O27  1  0.49475394  0.83276238  0.46832729  1
  O  O28  1  0.32765934  0.48559395  0.46741844  1
  O  O29  1  0.15148925  0.66250843  0.46738344  1
  O  O30  1  0.12538178  0.61231507  0.36334747  1
  O  O31  1  0.47687470  0.85922077  0.35778189  1
  O  O32  1  0.37381883  0.51238290  0.36329392  1
  O  O33  1  0.12464666  0.50750128  0.86692892  1
  O  O34  1  0.38252321  0.87783857  0.86822480  1
  O  O35  1  0.49518980  0.61434822  0.86772463  1
  O  O36  1  0.03849279  0.79934122  0.40994360  1
  O  O37  1  0.78578343  0.97589656  0.41139783  1
  O  O38  1  0.21000258  0.23633361  0.40957881  1
  O  O39  1  0.99924188  0.21996132  0.90517990  1
  O  O40  1  0.22703467  0.01239446  0.90590615  1
  O  O41  1  0.78492775  0.78155099  0.90544693  1
  O  O42  1  0.97802125  0.17119218  0.58038279  1
  O  O43  1  0.21341136  0.02229297  0.57895697  1
  O  O44  1  0.81080032  0.77744468  0.57961293  1
  O  O45  1  0.93082907  0.79300782  0.09568296  1
  O  O46  1  0.85426080  0.05234380  0.09228945  1
  O  O47  1  0.18469268  0.13195836  0.09770932  1
  O  O48  1  0.64602766  0.11754029  0.74657427  1
  O  O49  1  0.47313520  0.34838439  0.74547396  1
  O  O50  1  0.87363979  0.53338868  0.74975020  1
  O  O51  1  0.67035958  0.55356837  0.24393088  1
  O  O52  1  0.88730447  0.32560575  0.23816536  1
  O  O53  1  0.44144632  0.10037233  0.24013787  1
  O  O54  1  0.62209768  0.48333591  0.92688174  1
  O  O55  1  0.86631660  0.38759412  0.92612283  1
  O  O56  1  0.52682473  0.13693035  0.92700114  1
  O  O57  1  0.61507064  0.14398514  0.42553928  1
  O  O58  1  0.51510127  0.40029929  0.42228677  1
  O  O59  1  0.87313859  0.49518914  0.42264207  1
  O  O60  1  0.31968689  0.45531724  0.07100058  1
  O  O61  1  0.11330586  0.68187241  0.07031374  1
  O  O62  1  0.55633871  0.89266086  0.06983270  1
  O  O63  1  0.36282536  0.86833499  0.56624768  1
  O  O64  1  0.50734170  0.64100605  0.56541395  1
  O  O65  1  0.15020163  0.50646962  0.56176555  1
  O  O66  1  0.26466284  0.80111086  0.25892784  1
  O  O67  1  0.52792513  0.71286118  0.26012318  1
  O  O68  1  0.18789861  0.45909255  0.25758580  1
  O  O69  1  0.30571067  0.48002101  0.76857096  1
  O  O70  1  0.17591086  0.69374942  0.76790266  1
  O  O71  1  0.51675257  0.82098376  0.77036328  1
loop_
_geom_bond_atom_site_label_1
_geom_bond_atom_site_label_2
_geom_bond_distance
_geom_bond_site_symmetry_2
Ca0 O37 2.101094 1_545
Ca0 O38 2.269573 1_655
Ca0 O36 2.275846 1_645
Ca0 O2 2.297560 1_555
Ca0 O1 2.299966 1_545
Ca0 O0 2.347053 1_655
Ca1 O4 2.231780 1_445
Ca1 O5 2.252423 1_455
Ca1 O3 2.257357 1_555
Ca1 O39 2.281027 1_455
Ca1 O41 2.310073 1_445
Ca1 O40 2.320768 1_555
Ca2 O42 2.131705 1_555
Ca2 O44 2.402936 1_545
Ca2 O7 2.413819 1_655
Ca2 O43 2.420098 1_655
Ca2 O6 2.449289 1_545
Ca2 O8 2.518266 1_645
Ca3 O12 2.130646 1_555
Ca3 O50 2.284422 1_555
Ca3 O48 2.305723 1_555
Ca3 O49 2.363496 1_555
Ca3 O13 2.366772 1_555
Ca3 O14 2.378533 1_555
Ca4 O17 2.084235 1_555
Ca4 O51 2.271833 1_555
Ca4 O16 2.293857 1_555
Ca4 O52 2.303928 1_555
Ca4 O53 2.320656 1_555
Ca4 O15 2.324695 1_555
Ca5 O60 2.097136 1_555
Ca5 O25 2.259584 1_554
Ca5 O62 2.274172 1_555
Ca5 O61 2.297791 1_555
Ca5 O24 2.313230 1_554
Ca5 O26 2.324953 1_554
O0 S0 1.442520 1_545
O1 S1 1.442842 1_555
O2 S2 1.442316 1_655
O3 S3 1.455804 1_555
O4 S4 1.455920 1_655
O5 S5 1.457903 1_545
O6 S5 1.459789 1_555
O7 S3 1.455898 1_555
O8 S4 1.455650 1_555
O9 S1 1.507862 1_555
O9 Ta0 2.245913 1_665
O10 S2 1.563033 1_555
O10 Ta0 2.036345 1_555
O11 S0 1.529126 1_555
O11 Ta0 2.133252 1_565
O12 Si0 1.576570 1_555
O13 S6 1.443251 1_555
O14 S7 1.444027 1_555
O15 S8 1.443489 1_555
O16 S9 1.439458 1_555
O17 Si1 1.561562 1_555
O18 Si1 1.763098 1_555
O18 Ta1 1.841957 1_554
O19 S8 1.532319 1_555
O19 Ta1 2.115869 1_554
O20 S9 1.534181 1_555
O20 Ta1 2.135570 1_554
O21 S6 1.539177 1_555
O21 Ta2 2.031813 1_555
O22 S7 1.522336 1_555
O22 Ta2 2.079031 1_555
O23 Si0 1.777910 1_555
O23 Ta2 1.801612 1_555
O24 S10 1.440978 1_555
O25 S11 1.441365 1_555
O26 S12 1.441349 1_555
O27 Si2 1.623382 1_555
O27 Ta3 1.917705 1_555
O28 S13 1.487797 1_555
O28 Ta3 2.070041 1_555
O29 S14 1.473723 1_555
O29 Ta3 2.108490 1_555
O30 S14 1.524896 1_555
O30 Ta4 2.124274 1_555
O31 Si2 1.728838 1_555
O31 Ta4 1.850563 1_555
O32 S13 1.535982 1_555
O32 Ta4 2.058669 1_555
O33 S11 1.539030 1_555
O33 Ta5 2.067026 1_555
O34 S12 1.514597 1_555
O34 Ta5 2.151476 1_555
O35 S10 1.514515 1_555
O35 Ta5 2.152330 1_555
O36 S14 1.439391 1_555
O37 Si2 1.554187 1_555
O38 S13 1.438986 1_555
O39 S11 1.448435 1_655
O40 S12 1.444269 1_545
O41 S10 1.445058 1_555
O42 Si0 1.578067 1_555
O43 S6 1.441021 1_555
O44 S7 1.441009 1_555
O45 S8 1.552385 1_555
O45 Ta0 2.019187 1_665
O46 S9 1.553397 1_555
O46 Ta0 2.002714 1_655
O47 Si1 1.751836 1_555
O47 Ta0 1.817024 1_555
O48 S5 1.451559 1_545
O49 S3 1.446958 1_555
O50 S4 1.446880 1_655
O51 S1 1.443841 1_555
O52 S2 1.443548 1_655
O53 S0 1.441455 1_545
O54 S10 1.563275 1_555
O54 Ta1 1.993028 1_555
O55 S11 1.526693 1_655
O55 Ta1 2.123359 1_555
O56 S12 1.569201 1_545
O56 Ta1 1.995762 1_555
O57 Si2 1.671672 1_545
O57 Ta2 1.889942 1_555
O58 S13 1.475511 1_555
O58 Ta2 2.271995 1_555
O59 S14 1.505108 1_655
O59 Ta2 2.129690 1_555
O60 Si1 1.562263 1_555
O61 S8 1.443246 1_455
O62 S9 1.440295 1_565
O63 S6 1.538051 1_565
O63 Ta3 1.977889 1_555
O64 S7 1.551275 1_555
O64 Ta3 1.946728 1_555
O65 Si0 1.690413 1_455
O65 Ta3 1.864912 1_555
O66 S0 1.567674 1_555
O66 Ta4 1.999850 1_555
O67 S1 1.576757 1_555
O67 Ta4 1.967403 1_555
O68 S2 1.522836 1_555
O68 Ta4 2.140968 1_555
O69 S3 1.605153 1_555
O69 Ta5 1.896391 1_555
O70 S4 1.605305 1_555
O70 Ta5 1.897844 1_555
O71 S5 1.589660 1_555
O71 Ta5 1.909195 1_555
