# generated using pymatgen
data_Ba2Mn3Tl2Zn2O10
_symmetry_space_group_name_H-M   'P 1'
_cell_length_a   3.63993290
_cell_length_b   4.01091941
_cell_length_c   19.83847530
_cell_angle_alpha   95.88625232
_cell_angle_beta   97.79727084
_cell_angle_gamma   89.95933581
_symmetry_Int_Tables_number   1
_chemical_formula_structural   Ba2Mn3Tl2Zn2O10
_chemical_formula_sum   'Ba2 Mn3 Tl2 Zn2 O10'
_cell_volume   285.41493598
_cell_formula_units_Z   1
loop_
 _symmetry_equiv_pos_site_id
 _symmetry_equiv_pos_as_xyz
  1  'x, y, z'
loop_
 _atom_site_type_symbol
 _atom_site_label
 _atom_site_symmetry_multiplicity
 _atom_site_fract_x
 _atom_site_fract_y
 _atom_site_fract_z
 _atom_site_occupancy
  Ba  Ba0  1  0.10848100  0.14760200  0.29089700  1
  Ba  Ba1  1  0.82573000  0.84428900  0.68820900  1
  Mn  Mn0  1  0.45840600  0.40841400  0.81879200  1
  Mn  Mn1  1  0.51385000  0.57815400  0.15753000  1
  Mn  Mn2  1  0.24110000  0.49455800  0.99193200  1
  Tl  Tl0  1  0.64786100  0.72051000  0.43208600  1
  Tl  Tl1  1  0.26446100  0.28199100  0.55289500  1
  Zn  Zn0  1  0.99703500  0.94276100  0.88719500  1
  Zn  Zn1  1  0.90473800  0.03721800  0.07703600  1
  O  O0  1  0.47566600  0.91234500  0.82602400  1
  O  O1  1  0.33888900  0.35811100  0.71824600  1
  O  O2  1  0.01417300  0.43945800  0.88109500  1
  O  O3  1  0.81197800  0.78083600  0.53912300  1
  O  O4  1  0.76964200  0.52282100  0.04852400  1
  O  O5  1  0.04144600  0.59665000  0.19367400  1
  O  O6  1  0.64028500  0.66652200  0.32573300  1
  O  O7  1  0.47534600  0.06903300  0.13957200  1
  O  O8  1  0.27165000  0.22404400  0.43406900  1
  O  O9  1  0.20035000  0.99264500  0.98832700  1
loop_
_geom_bond_atom_site_label_1
_geom_bond_atom_site_label_2
_geom_bond_distance
_geom_bond_site_symmetry_2
Ba0 O5 2.758220 1_555
Ba0 O5 2.767998 1_545
Ba0 O6 2.775413 1_445
Ba0 O6 2.780903 1_455
Ba0 O6 2.802346 1_545
Ba0 O8 2.806786 1_555
Ba0 O6 2.811471 1_555
Ba1 O1 2.746429 1_665
Ba1 O1 2.752769 1_655
Ba1 O1 2.787842 1_565
Ba1 O1 2.797794 1_555
Ba1 O3 2.936045 1_555
Mn0 O1 1.972520 1_555
Mn0 O0 2.009810 1_545
Mn0 O0 2.012000 1_555
Mn0 O2 2.160613 1_555
Mn0 O2 2.219434 1_655
Mn1 O5 1.949322 1_555
Mn1 O5 1.955326 1_655
Mn1 O7 2.037883 1_565
Mn1 O7 2.038173 1_555
Mn1 O4 2.457680 1_555
Mn2 O9 2.011038 1_555
Mn2 O9 2.011923 1_545
Mn2 O4 2.088701 1_556
Mn2 O4 2.171314 1_456
Mn2 O2 2.230197 1_555
O0 Zn0 2.105727 1_555
O0 Zn0 2.250725 1_455
O2 Zn0 2.009755 1_445
O2 Zn0 2.011338 1_455
O3 Tl0 2.115438 1_555
O3 Tl1 2.568601 1_665
O3 Tl1 2.603063 1_655
O4 Zn1 2.122376 1_555
O4 Zn1 2.122539 1_565
O6 Tl0 2.095176 1_555
O7 Zn1 2.119348 1_555
O7 Zn1 2.266713 1_455
O8 Tl1 2.348626 1_555
O8 Tl0 2.424155 1_555
O8 Tl0 2.439278 1_545
O9 Zn0 2.031741 1_455
O9 Zn1 2.176197 1_466
