# generated using pymatgen
data_Na10Mg4Si5Ge4S7O48
_symmetry_space_group_name_H-M   'P 1'
_cell_length_a   17.66712543
_cell_length_b   8.79002395
_cell_length_c   21.98255050
_cell_angle_alpha   89.45244998
_cell_angle_beta   90.94968576
_cell_angle_gamma   119.65773855
_symmetry_Int_Tables_number   1
_chemical_formula_structural   Na10Mg4Si5Ge4S7O48
_chemical_formula_sum   'Na30 Mg12 Si15 Ge12 S21 O144'
_cell_volume   2966.14230492
_cell_formula_units_Z   3
loop_
 _symmetry_equiv_pos_site_id
 _symmetry_equiv_pos_as_xyz
  1  'x, y, z'
loop_
 _atom_site_type_symbol
 _atom_site_label
 _atom_site_symmetry_multiplicity
 _atom_site_fract_x
 _atom_site_fract_y
 _atom_site_fract_z
 _atom_site_occupancy
  Na  Na0  1  0.32504568  0.01898336  0.25320125  1
  Na  Na1  1  0.68082273  0.35083869  0.25602266  1
  Na  Na2  1  0.99878235  0.63532709  0.24203312  1
  Na  Na3  1  0.49817881  0.63409564  0.23975116  1
  Na  Na4  1  0.32154282  0.62574853  0.75563166  1
  Na  Na5  1  0.82160623  0.62571428  0.75424097  1
  Na  Na6  1  0.99760737  0.36301144  0.74054102  1
  Na  Na7  1  0.49749698  0.36259155  0.74024908  1
  Na  Na8  1  0.17995780  0.01010629  0.75487849  1
  Na  Na9  1  0.68077710  0.01052889  0.75416042  1
  Na  Na10  1  0.33452633  0.96734076  0.57531698  1
  Na  Na11  1  0.83401905  0.96637858  0.57413849  1
  Na  Na12  1  0.33423323  0.70197206  0.07511460  1
  Na  Na13  1  0.83331907  0.69884027  0.07359792  1
  Na  Na14  1  0.48200360  0.67546527  0.91159188  1
  Na  Na15  1  0.98238924  0.67623231  0.91074361  1
  Na  Na16  1  0.48602246  0.29226365  0.40911228  1
  Na  Na17  1  0.16605620  0.02871640  0.40922106  1
  Na  Na18  1  0.98717695  0.99908124  0.49629877  1
  Na  Na19  1  0.50073701  0.99169173  0.49734824  1
  Na  Na20  1  0.99771769  0.00575437  0.99557425  1
  Na  Na21  1  0.49621363  0.00430693  0.99703861  1
  Na  Na22  1  0.32675730  0.33379737  0.83260608  1
  Na  Na23  1  0.82739617  0.33515471  0.83177600  1
  Na  Na24  1  0.32792496  0.33315741  0.32704112  1
  Na  Na25  1  0.82329548  0.29640219  0.33342639  1
  Na  Na26  1  0.15484192  0.65871413  0.16214551  1
  Na  Na27  1  0.65673129  0.68019464  0.16261327  1
  Na  Na28  1  0.15097207  0.63712397  0.66167779  1
  Na  Na29  1  0.65374648  0.63941083  0.66063075  1
  Mg  Mg0  1  0.99676874  0.00161123  0.35435166  1
  Mg  Mg1  1  0.50163700  0.00041950  0.35323182  1
  Mg  Mg2  1  0.99990574  0.99907604  0.85354338  1
  Mg  Mg3  1  0.49949807  0.99878734  0.85364968  1
  Mg  Mg4  1  0.33815143  0.34125781  0.68583423  1
  Mg  Mg5  1  0.83836764  0.34263445  0.68549247  1
  Mg  Mg6  1  0.33531682  0.33350838  0.18697335  1
  Mg  Mg7  1  0.83567370  0.32666528  0.18607007  1
  Mg  Mg8  1  0.16453623  0.66852937  0.01999101  1
  Mg  Mg9  1  0.66419400  0.66849790  0.02003186  1
  Mg  Mg10  1  0.16335882  0.65653243  0.52045763  1
  Mg  Mg11  1  0.66707564  0.66125535  0.51925598  1
  Si  Si0  1  0.14632181  0.00103433  0.25648534  1
  Si  Si1  1  0.65050608  0.00380731  0.25404444  1
  Si  Si2  1  0.50332674  0.29199342  0.25321955  1
  Si  Si3  1  0.14681469  0.29281223  0.75355012  1
  Si  Si4  1  0.64743160  0.29386873  0.75406067  1
  Si  Si5  1  0.00241426  0.71492024  0.75354969  1
  Si  Si6  1  0.50269151  0.71526649  0.75350818  1
  Si  Si7  1  0.48500094  0.32924838  0.58801732  1
  Si  Si8  1  0.98243867  0.32855975  0.58810280  1
  Si  Si9  1  0.48257824  0.63721470  0.08793413  1
  Si  Si10  1  0.98176538  0.62733300  0.08757836  1
  Si  Si11  1  0.31075255  0.66954028  0.92209156  1
  Si  Si12  1  0.81092825  0.67039046  0.92175415  1
  Si  Si13  1  0.31497763  0.95877015  0.42395680  1
  Si  Si14  1  0.81159648  0.95373608  0.42076951  1
  Ge  Ge0  1  0.01395404  0.02462661  0.65086126  1
  Ge  Ge1  1  0.51794678  0.02884634  0.65081487  1
  Ge  Ge2  1  0.00668863  0.98768622  0.14837916  1
  Ge  Ge3  1  0.51631884  0.00707890  0.15087471  1
  Ge  Ge4  1  0.32999546  0.35536865  0.98587068  1
  Ge  Ge5  1  0.83097406  0.35283727  0.98328328  1
  Ge  Ge6  1  0.34112534  0.32336205  0.48494511  1
  Ge  Ge7  1  0.83432888  0.30515699  0.48238143  1
  Ge  Ge8  1  0.17037016  0.68553782  0.31977386  1
  Ge  Ge9  1  0.66764022  0.68256364  0.31295141  1
  Ge  Ge10  1  0.16288972  0.64744874  0.81494652  1
  Ge  Ge11  1  0.66267098  0.64672182  0.81492146  1
  S  S0  1  0.34860269  0.70788531  0.25182580  1
  S  S1  1  0.85418434  0.71571939  0.24846379  1
  S  S2  1  0.00460412  0.28928840  0.24905852  1
  S  S3  1  0.35246105  0.99335667  0.74948372  1
  S  S4  1  0.85263673  0.99368343  0.74980409  1
  S  S5  1  0.18564974  0.04631323  0.58330876  1
  S  S6  1  0.68601678  0.04580228  0.58437761  1
  S  S7  1  0.33559028  0.61821945  0.58141699  1
  S  S8  1  0.83606474  0.61974342  0.58192082  1
  S  S9  1  0.33520495  0.05383025  0.08224013  1
  S  S10  1  0.83768489  0.05248858  0.08283245  1
  S  S11  1  0.18376149  0.32245392  0.08563740  1
  S  S12  1  0.68548322  0.32569071  0.08392948  1
  S  S13  1  0.01852996  0.37350199  0.91767638  1
  S  S14  1  0.51850613  0.37351637  0.91763920  1
  S  S15  1  0.17295609  0.96838860  0.91797865  1
  S  S16  1  0.67331750  0.96918883  0.91820292  1
  S  S17  1  0.17021623  0.38454284  0.41644268  1
  S  S18  1  0.67400368  0.37804638  0.41802362  1
  S  S19  1  0.01697689  0.65547357  0.41692108  1
  S  S20  1  0.51801181  0.66230279  0.41784832  1
  O  O0  1  0.10153011  0.01490276  0.31628363  1
  O  O1  1  0.60228570  0.03179399  0.30884658  1
  O  O2  1  0.40337532  0.78803268  0.30468715  1
  O  O3  1  0.91022996  0.80162291  0.30011534  1
  O  O4  1  0.48243280  0.17492083  0.31249540  1
  O  O5  1  0.99502818  0.18661240  0.30306611  1
  O  O6  1  0.10097709  0.17032535  0.80930458  1
  O  O7  1  0.60055218  0.16981477  0.80920904  1
  O  O8  1  0.48232025  0.78903025  0.81256217  1
  O  O9  1  0.98250962  0.78933360  0.81265573  1
  O  O10  1  0.40694878  0.02434654  0.80282415  1
  O  O11  1  0.90712403  0.02450869  0.80306942  1
  O  O12  1  0.39052748  0.96199049  0.69329154  1
  O  O13  1  0.89072271  0.96184878  0.69352996  1
  O  O14  1  0.08263769  0.22043274  0.69090281  1
  O  O15  1  0.58373778  0.22401244  0.69100671  1
  O  O16  1  0.02486770  0.85480960  0.69232697  1
  O  O17  1  0.52496807  0.85516662  0.69213162  1
  O  O18  1  0.38428488  0.81684068  0.19512714  1
  O  O19  1  0.89059919  0.81931831  0.18957332  1
  O  O20  1  0.01544058  0.20625481  0.19135353  1
  O  O21  1  0.52362889  0.19397565  0.19229264  1
  O  O22  1  0.07733660  0.94883984  0.19567524  1
  O  O23  1  0.58517053  0.94848138  0.19079922  1
  O  O24  1  0.43510052  0.33724645  0.64590873  1
  O  O25  1  0.93624385  0.33833589  0.64782110  1
  O  O26  1  0.23825647  0.13189270  0.63726452  1
  O  O27  1  0.73663334  0.12764349  0.63951536  1
  O  O28  1  0.32549720  0.51961376  0.63699163  1
  O  O29  1  0.82638753  0.52365431  0.63850076  1
  O  O30  1  0.43350735  0.53102877  0.14652278  1
  O  O31  1  0.93524745  0.52546411  0.14783495  1
  O  O32  1  0.32559100  0.13077677  0.13766782  1
  O  O33  1  0.82686878  0.13203827  0.13668298  1
  O  O34  1  0.23761541  0.34166584  0.13809971  1
  O  O35  1  0.73806329  0.34670810  0.13843932  1
  O  O36  1  0.21983186  0.28833424  0.02783154  1
  O  O37  1  0.72484962  0.29399680  0.02780865  1
  O  O38  1  0.41350086  0.54596978  0.02548213  1
  O  O39  1  0.91267906  0.53708384  0.02592896  1
  O  O40  1  0.34348803  0.16538187  0.02579254  1
  O  O41  1  0.84744748  0.15892239  0.02557419  1
  O  O42  1  0.22591400  0.15315450  0.52562651  1
  O  O43  1  0.72525396  0.15549266  0.52836661  1
  O  O44  1  0.34416582  0.52463518  0.52483411  1
  O  O45  1  0.84415520  0.52713089  0.52686183  1
  O  O46  1  0.41708730  0.28219849  0.52545141  1
  O  O47  1  0.91093083  0.27821535  0.52814180  1
  O  O48  1  0.26528969  0.67645592  0.98246504  1
  O  O49  1  0.76519676  0.67699088  0.98201044  1
  O  O50  1  0.07232351  0.46269946  0.97009828  1
  O  O51  1  0.57277439  0.46291551  0.96986080  1
  O  O52  1  0.15962119  0.85143046  0.96901751  1
  O  O53  1  0.66066787  0.85303905  0.96928177  1
  O  O54  1  0.26436641  0.85448363  0.48228043  1
  O  O55  1  0.76884023  0.85646427  0.48262741  1
  O  O56  1  0.16039359  0.46763134  0.46949152  1
  O  O57  1  0.65941997  0.46754137  0.46810346  1
  O  O58  1  0.07441206  0.67968447  0.46840243  1
  O  O59  1  0.57111308  0.67877192  0.47113207  1
  O  O60  1  0.05506047  0.62522025  0.35804218  1
  O  O61  1  0.55233452  0.62112068  0.36067072  1
  O  O62  1  0.24979346  0.87574537  0.36051959  1
  O  O63  1  0.74457807  0.85291567  0.35960786  1
  O  O64  1  0.18092429  0.49314138  0.35797913  1
  O  O65  1  0.68390204  0.47505231  0.35853043  1
  O  O66  1  0.05519159  0.48619483  0.85926776  1
  O  O67  1  0.55544670  0.48656013  0.85897779  1
  O  O68  1  0.18353141  0.89146918  0.85920104  1
  O  O69  1  0.68452579  0.89426793  0.85950154  1
  O  O70  1  0.24883041  0.63945452  0.85760037  1
  O  O71  1  0.74873590  0.64031154  0.85756903  1
  O  O72  1  0.01042389  0.81541846  0.41098787  1
  O  O73  1  0.50636405  0.81290099  0.41085320  1
  O  O74  1  0.41184781  0.99272913  0.41703664  1
  O  O75  1  0.90770917  0.98566581  0.41031039  1
  O  O76  1  0.09515205  0.20757264  0.41067811  1
  O  O77  1  0.59797419  0.20121148  0.41481134  1
  O  O78  1  0.00939124  0.20113459  0.91064278  1
  O  O79  1  0.50966485  0.20112979  0.91050059  1
  O  O80  1  0.09602013  0.99120835  0.91442060  1
  O  O81  1  0.59677376  0.99272026  0.91470695  1
  O  O82  1  0.40862072  0.82966866  0.91503524  1
  O  O83  1  0.90881936  0.83073567  0.91509056  1
  O  O84  1  0.48414983  0.13015762  0.59053081  1
  O  O85  1  0.98333004  0.13116937  0.59054060  1
  O  O86  1  0.09742934  0.03016859  0.58452997  1
  O  O87  1  0.59701426  0.02937087  0.58584189  1
  O  O88  1  0.41583869  0.79162893  0.58185765  1
  O  O89  1  0.91633037  0.79630030  0.58349196  1
  O  O90  1  0.48332917  0.83730777  0.09101700  1
  O  O91  1  0.98346780  0.82744690  0.08839696  1
  O  O92  1  0.41597635  0.04002548  0.08278365  1
  O  O93  1  0.92002437  0.03858221  0.08589043  1
  O  O94  1  0.09371169  0.16401912  0.08884333  1
  O  O95  1  0.59717710  0.16601455  0.08564995  1
  O  O96  1  0.33674491  0.14297502  0.74312588  1
  O  O97  1  0.83693276  0.14309527  0.74337056  1
  O  O98  1  0.24291897  0.31931118  0.74344796  1
  O  O99  1  0.74312409  0.31927508  0.74388056  1
  O  O100  1  0.42335330  0.52021800  0.74338249  1
  O  O101  1  0.92295940  0.51974487  0.74415318  1
  O  O102  1  0.33555257  0.53027639  0.24486094  1
  O  O103  1  0.84402258  0.53819340  0.24398999  1
  O  O104  1  0.42382472  0.32932211  0.24346493  1
  O  O105  1  0.92893546  0.31632397  0.24388841  1
  O  O106  1  0.24314729  0.15492893  0.24488225  1
  O  O107  1  0.74414528  0.17425174  0.24396821  1
  O  O108  1  0.31910205  0.47957981  0.92267031  1
  O  O109  1  0.81988161  0.48136349  0.92181851  1
  O  O110  1  0.43095377  0.36172273  0.92053721  1
  O  O111  1  0.93047316  0.36156797  0.92042512  1
  O  O112  1  0.25532981  0.14226249  0.92377928  1
  O  O113  1  0.75647178  0.14417250  0.92436688  1
  O  O114  1  0.31900540  0.16332408  0.42366372  1
  O  O115  1  0.81597437  0.15435431  0.42201534  1
  O  O116  1  0.25150592  0.36977932  0.41863802  1
  O  O117  1  0.75727233  0.37144738  0.42456367  1
  O  O118  1  0.42808020  0.49544264  0.42265464  1
  O  O119  1  0.92896230  0.49901326  0.42090263  1
  O  O120  1  0.17611546  0.48109819  0.07928018  1
  O  O121  1  0.67698867  0.48307968  0.07781650  1
  O  O122  1  0.07651168  0.65575562  0.07721655  1
  O  O123  1  0.57711233  0.66389511  0.07682399  1
  O  O124  1  0.25958998  0.87575894  0.07674895  1
  O  O125  1  0.76336293  0.87324674  0.07759062  1
  O  O126  1  0.17758911  0.87167034  0.57891780  1
  O  O127  1  0.67708923  0.87088813  0.57910369  1
  O  O128  1  0.25955527  0.64376186  0.57564993  1
  O  O129  1  0.75992708  0.64670474  0.57732342  1
  O  O130  1  0.07654750  0.49122313  0.57707753  1
  O  O131  1  0.57850857  0.49235465  0.57653426  1
  O  O132  1  0.15017961  0.80586979  0.25859427  1
  O  O133  1  0.65206749  0.81434643  0.25638046  1
  O  O134  1  0.25970612  0.69680980  0.25727859  1
  O  O135  1  0.76478403  0.69260371  0.25176050  1
  O  O136  1  0.08506601  0.46825154  0.25239399  1
  O  O137  1  0.59733013  0.48900833  0.26025096  1
  O  O138  1  0.15404196  0.49159869  0.75675729  1
  O  O139  1  0.65426471  0.49206253  0.75683877  1
  O  O140  1  0.09662442  0.70483513  0.76044204  1
  O  O141  1  0.59693627  0.70574979  0.76057469  1
  O  O142  1  0.26426137  0.83073903  0.75356064  1
  O  O143  1  0.76455701  0.83090519  0.75360131  1
loop_
_geom_bond_atom_site_label_1
_geom_bond_atom_site_label_2
_geom_bond_distance
_geom_bond_site_symmetry_2
Na0 O106 2.291957 1_555
Na0 O104 2.413027 1_555
Na0 O134 2.474616 1_545
Na0 O62 2.703502 1_545
Na0 O132 2.710739 1_545
Na0 O32 2.712866 1_555
Na0 O4 2.729753 1_555
Na0 O18 2.794680 1_545
Na1 O137 2.332201 1_555
Na1 O107 2.338223 1_555
Na1 O65 2.501396 1_555
Na1 O103 2.532428 1_555
Na1 O135 2.612108 1_555
Na1 O1 2.697897 1_555
Na1 O21 2.773962 1_555
Na1 O35 2.798191 1_555
Na2 O31 2.317073 1_555
Na2 O132 2.354597 1_655
Na2 O103 2.428871 1_555
Na2 O105 2.441771 1_555
Na2 O136 2.594225 1_655
Na2 O22 2.601384 1_655
Na2 O60 2.738411 1_655
Na2 O3 2.929077 1_555
Na3 O30 2.293407 1_555
Na3 O104 2.329341 1_555
Na3 O133 2.398087 1_555
Na3 O102 2.552312 1_555
Na3 O23 2.636584 1_555
Na3 O137 2.659273 1_555
Na3 O61 2.830534 1_555
Na4 O98 2.356975 1_555
Na4 O100 2.416678 1_555
Na4 O142 2.464640 1_555
Na4 O138 2.587823 1_555
Na4 O70 2.634958 1_555
Na4 O8 2.752525 1_555
Na4 O28 2.791773 1_555
Na4 O12 2.917521 1_555
Na5 O99 2.352670 1_555
Na5 O101 2.406423 1_555
Na5 O143 2.463173 1_555
Na5 O139 2.586708 1_555
Na5 O71 2.664431 1_555
Na5 O29 2.722310 1_555
Na5 O9 2.768860 1_555
Na5 O13 2.900033 1_555
Na6 O25 2.253706 1_555
Na6 O101 2.333937 1_555
Na6 O138 2.434445 1_655
Na6 O97 2.524225 1_555
Na6 O14 2.638513 1_655
Na6 O140 2.660362 1_655
Na6 O66 2.809791 1_655
Na6 O11 2.930113 1_555
Na7 O24 2.292524 1_555
Na7 O100 2.332649 1_555
Na7 O139 2.440116 1_555
Na7 O96 2.524735 1_555
Na7 O15 2.625562 1_555
Na7 O141 2.672073 1_555
Na7 O67 2.812330 1_555
Na7 O10 2.928975 1_555
Na8 O140 2.339421 1_545
Na8 O98 2.385752 1_555
Na8 O96 2.433091 1_555
Na8 O68 2.522941 1_545
Na8 O142 2.651637 1_545
Na8 O6 2.719221 1_555
Na8 O16 2.733349 1_545
Na8 O26 2.799216 1_555
Na9 O141 2.337443 1_545
Na9 O99 2.380697 1_555
Na9 O97 2.420778 1_555
Na9 O69 2.535295 1_545
Na9 O143 2.645310 1_545
Na9 O27 2.722578 1_555
Na9 O7 2.736186 1_555
Na9 O17 2.737248 1_545
Na10 O84 2.320264 1_565
Na10 O54 2.332625 1_555
Na10 O126 2.469710 1_555
Na10 O128 2.473042 1_555
Na10 O88 2.579645 1_555
Na10 O46 2.643631 1_565
Na10 O12 2.768641 1_555
Na11 O55 2.272778 1_555
Na11 O85 2.320284 1_565
Na11 O129 2.444041 1_555
Na11 O127 2.471530 1_555
Na11 O89 2.554935 1_555
Na11 O47 2.586254 1_565
Na11 O13 2.800651 1_555
Na12 O48 2.310431 1_554
Na12 O90 2.313481 1_555
Na12 O124 2.463757 1_555
Na12 O120 2.493812 1_555
Na12 O92 2.588142 1_565
Na12 O38 2.647954 1_555
Na12 O18 2.802037 1_555
Na13 O49 2.288484 1_554
Na13 O91 2.330517 1_555
Na13 O125 2.401387 1_555
Na13 O121 2.460681 1_555
Na13 O93 2.610038 1_565
Na13 O39 2.671238 1_555
Na13 O19 2.747854 1_555
Na14 O82 2.295233 1_555
Na14 O8 2.385133 1_555
Na14 O110 2.447775 1_555
Na14 O81 2.509180 1_555
Na14 O108 2.533388 1_555
Na14 O38 2.776872 1_556
Na14 O67 2.827919 1_555
Na15 O83 2.301398 1_555
Na15 O9 2.365321 1_555
Na15 O111 2.453856 1_555
Na15 O80 2.490076 1_655
Na15 O109 2.526766 1_555
Na15 O66 2.817049 1_655
Na15 O39 2.824464 1_556
Na15 O52 2.991583 1_655
Na16 O74 2.294368 1_545
Na16 O4 2.356154 1_555
Na16 O77 2.474804 1_555
Na16 O118 2.481065 1_555
Na16 O114 2.609274 1_555
Na16 O61 2.737420 1_555
Na16 O46 2.832634 1_555
Na16 O57 2.945438 1_555
Na17 O0 2.297549 1_555
Na17 O114 2.370056 1_555
Na17 O72 2.444855 1_545
Na17 O76 2.448090 1_555
Na17 O116 2.613840 1_555
Na17 O62 2.681676 1_545
Na17 O42 2.771594 1_555
Na18 O75 2.304452 1_555
Na18 O85 2.402758 1_565
Na18 O89 2.494786 1_555
Na18 O86 2.643625 1_665
Na18 O72 2.651694 1_655
Na18 O76 2.670851 1_665
Na19 O74 2.346290 1_555
Na19 O87 2.476342 1_565
Na19 O84 2.486702 1_565
Na19 O88 2.492591 1_555
Na19 O73 2.512564 1_555
Na19 O77 2.557996 1_565
Na20 O83 2.352104 1_545
Na20 O78 2.465496 1_655
Na20 O91 2.499773 1_546
Na20 O93 2.530284 1_556
Na20 O80 2.557713 1_645
Na20 O94 2.572859 1_656
Na21 O82 2.368600 1_545
Na21 O90 2.470111 1_546
Na21 O92 2.490226 1_556
Na21 O79 2.492727 1_555
Na21 O95 2.534768 1_556
Na21 O81 2.594510 1_545
Na22 O98 2.402770 1_555
Na22 O108 2.410188 1_555
Na22 O112 2.522030 1_555
Na22 O110 2.574728 1_555
Na22 O100 2.593556 1_555
Na22 O96 2.661043 1_555
Na23 O99 2.381920 1_555
Na23 O109 2.411094 1_555
Na23 O113 2.543337 1_555
Na23 O101 2.555450 1_555
Na23 O111 2.576891 1_555
Na23 O97 2.647677 1_555
Na24 O106 2.366811 1_555
Na24 O102 2.449707 1_555
Na24 O104 2.531395 1_555
Na24 O114 2.546077 1_555
Na24 O116 2.552123 1_555
Na24 O118 2.649454 1_555
Na25 O115 2.273808 1_555
Na25 O107 2.332119 1_555
Na25 O117 2.583338 1_555
Na25 O119 2.647786 1_555
Na25 O105 2.679514 1_555
Na25 O103 2.773141 1_555
Na26 O122 2.298035 1_555
Na26 O136 2.496694 1_555
Na26 O132 2.517694 1_555
Na26 O120 2.560215 1_555
Na26 O124 2.672304 1_555
Na26 O134 2.681202 1_555
Na27 O123 2.296397 1_555
Na27 O133 2.407126 1_555
Na27 O137 2.606265 1_555
Na27 O125 2.610403 1_555
Na27 O135 2.677775 1_555
Na27 O121 2.702284 1_555
Na28 O130 2.264493 1_555
Na28 O138 2.453874 1_555
Na28 O140 2.578594 1_555
Na28 O126 2.603574 1_555
Na28 O128 2.695768 1_555
Na28 O142 2.746406 1_555
Na29 O131 2.262543 1_555
Na29 O139 2.471669 1_555
Na29 O127 2.578046 1_555
Na29 O141 2.617456 1_555
Na29 O129 2.620960 1_555
Na29 O143 2.741299 1_555
Mg0 O75 1.962427 1_545
Mg0 O5 1.982336 1_555
Mg0 O0 1.993739 1_655
Mg0 O3 2.041823 1_545
Mg0 O72 2.151435 1_645
Mg0 O76 2.165463 1_655
Mg1 O4 1.936098 1_555
Mg1 O1 1.938301 1_555
Mg1 O2 2.099305 1_545
Mg1 O73 2.102641 1_545
Mg1 O74 2.110464 1_545
Mg1 O77 2.200182 1_555
Mg2 O9 1.939872 1_555
Mg2 O6 1.941561 1_665
Mg2 O11 2.065337 1_565
Mg2 O83 2.070528 1_555
Mg2 O78 2.121131 1_665
Mg2 O80 2.172143 1_655
Mg3 O7 1.943043 1_565
Mg3 O8 1.943287 1_555
Mg3 O10 2.066506 1_565
Mg3 O82 2.068819 1_555
Mg3 O79 2.115743 1_565
Mg3 O81 2.184199 1_555
Mg4 O24 1.953318 1_555
Mg4 O28 1.991824 1_555
Mg4 O100 1.993065 1_555
Mg4 O98 2.053470 1_555
Mg4 O26 2.098169 1_555
Mg4 O96 2.130894 1_555
Mg5 O25 1.946799 1_555
Mg5 O29 1.984521 1_555
Mg5 O101 1.997989 1_555
Mg5 O99 2.060492 1_555
Mg5 O27 2.106687 1_555
Mg5 O97 2.147133 1_555
Mg6 O30 1.963520 1_555
Mg6 O104 1.995066 1_555
Mg6 O32 2.026716 1_555
Mg6 O34 2.048995 1_555
Mg6 O106 2.058404 1_555
Mg6 O102 2.155360 1_555
Mg7 O31 1.957924 1_555
Mg7 O33 1.973862 1_555
Mg7 O107 1.980220 1_555
Mg7 O35 2.082910 1_555
Mg7 O105 2.101212 1_555
Mg7 O103 2.206266 1_555
Mg8 O48 1.943879 1_554
Mg8 O122 1.975573 1_555
Mg8 O52 1.987043 1_554
Mg8 O50 2.047462 1_554
Mg8 O124 2.154440 1_555
Mg8 O120 2.176813 1_555
Mg9 O49 1.950576 1_554
Mg9 O123 1.981984 1_555
Mg9 O53 1.985667 1_554
Mg9 O51 2.044785 1_554
Mg9 O121 2.153253 1_555
Mg9 O125 2.181550 1_555
Mg10 O130 1.958584 1_555
Mg10 O54 1.966025 1_555
Mg10 O56 1.990620 1_555
Mg10 O58 2.018088 1_555
Mg10 O128 2.119154 1_555
Mg10 O126 2.203649 1_555
Mg11 O55 1.947713 1_555
Mg11 O131 1.992114 1_555
Mg11 O57 1.996423 1_555
Mg11 O59 2.052540 1_555
Mg11 O129 2.114665 1_555
Mg11 O127 2.207619 1_555
Ge0 O14 1.770942 1_555
Ge0 O16 1.830078 1_545
Ge0 O85 1.839017 1_455
Ge0 O86 2.074196 1_555
Ge0 O13 2.189315 1_445
Ge0 O89 2.396335 1_445
Ge1 O15 1.759606 1_555
Ge1 O17 1.824317 1_545
Ge1 O84 1.839333 1_555
Ge1 O87 2.012693 1_555
Ge1 O12 2.243840 1_545
Ge1 O88 2.479345 1_545
Ge2 O22 1.768443 1_555
Ge2 O91 1.826614 1_455
Ge2 O94 2.036813 1_565
Ge2 O19 2.061269 1_455
Ge2 O20 2.084059 1_565
Ge2 O93 2.242276 1_465
Ge3 O23 1.758190 1_545
Ge3 O21 1.832823 1_555
Ge3 O90 1.857254 1_545
Ge3 O95 2.025541 1_555
Ge3 O18 2.316839 1_545
Ge3 O92 2.424632 1_555
Ge4 O38 1.811319 1_556
Ge4 O108 1.824656 1_555
Ge4 O36 1.974895 1_556
Ge4 O40 1.993703 1_556
Ge4 O112 2.157736 1_555
Ge4 O110 2.287347 1_555
Ge5 O39 1.804437 1_556
Ge5 O109 1.822499 1_555
Ge5 O37 1.957627 1_556
Ge5 O41 2.075098 1_556
Ge5 O113 2.091349 1_555
Ge5 O111 2.224923 1_555
Ge6 O46 1.777530 1_555
Ge6 O114 1.849618 1_555
Ge6 O44 1.958536 1_555
Ge6 O42 2.049936 1_555
Ge6 O118 2.062399 1_555
Ge6 O116 2.312878 1_555
Ge7 O47 1.779603 1_555
Ge7 O115 1.793644 1_555
Ge7 O43 1.999083 1_555
Ge7 O45 2.118690 1_555
Ge7 O117 2.126447 1_555
Ge7 O119 2.176421 1_555
Ge8 O62 1.797718 1_555
Ge8 O132 1.839843 1_555
Ge8 O64 1.969746 1_555
Ge8 O60 2.029360 1_555
Ge8 O134 2.074303 1_555
Ge8 O136 2.290100 1_555
Ge9 O63 1.763688 1_555
Ge9 O133 1.800145 1_555
Ge9 O137 1.917864 1_555
Ge9 O61 2.124412 1_555
Ge9 O135 2.164961 1_555
Ge9 O65 2.210804 1_555
Ge10 O70 1.801819 1_555
Ge10 O138 1.830927 1_555
Ge10 O140 1.893926 1_555
Ge10 O66 1.986133 1_555
Ge10 O142 2.192526 1_555
Ge10 O68 2.221303 1_555
Ge11 O71 1.797384 1_555
Ge11 O139 1.824144 1_555
Ge11 O141 1.893061 1_555
Ge11 O67 1.975839 1_555
Ge11 O143 2.198397 1_555
Ge11 O69 2.245198 1_555
O0 Si0 1.581788 1_555
O1 Si1 1.576276 1_555
O2 S0 1.444552 1_555
O3 S1 1.441874 1_555
O4 Si2 1.583519 1_555
O5 S2 1.444904 1_655
O6 Si3 1.569070 1_555
O7 Si4 1.568099 1_555
O8 Si6 1.580397 1_555
O9 Si5 1.580731 1_655
O10 S3 1.443938 1_545
O11 S4 1.442802 1_545
O12 S3 1.507212 1_555
O13 S4 1.510593 1_555
O14 Si3 1.684627 1_555
O15 Si4 1.686803 1_555
O16 Si5 1.727414 1_555
O17 Si6 1.730441 1_555
O18 S0 1.507926 1_555
O19 S1 1.531124 1_555
O20 S2 1.530519 1_555
O21 Si2 1.734526 1_555
O22 Si0 1.699168 1_565
O23 Si1 1.704698 1_565
O24 Si7 1.581741 1_555
O25 Si8 1.582362 1_555
O26 S5 1.457768 1_555
O27 S6 1.459589 1_555
O28 S7 1.452432 1_555
O29 S8 1.460703 1_555
O30 Si9 1.579487 1_555
O31 Si10 1.586476 1_555
O32 S9 1.451626 1_555
O33 S10 1.443026 1_555
O34 S11 1.439480 1_555
O35 S12 1.459587 1_555
O36 S11 1.527759 1_555
O37 S12 1.519883 1_555
O38 Si9 1.736149 1_555
O39 Si10 1.721384 1_555
O40 S9 1.537327 1_555
O41 S10 1.521281 1_555
O42 S5 1.530307 1_555
O43 S6 1.506767 1_555
O44 S7 1.547872 1_555
O45 S8 1.512537 1_555
O46 Si7 1.722602 1_555
O47 Si8 1.712282 1_555
O48 Si11 1.579678 1_555
O49 Si12 1.579242 1_555
O50 S13 1.445491 1_555
O51 S14 1.445584 1_555
O52 S15 1.455421 1_555
O53 S16 1.453852 1_555
O54 Si13 1.577334 1_555
O55 Si14 1.588508 1_555
O56 S17 1.439391 1_555
O57 S18 1.457294 1_555
O58 S19 1.452064 1_555
O59 S20 1.451021 1_555
O60 S19 1.552792 1_555
O61 S20 1.526353 1_555
O62 Si13 1.714050 1_555
O63 Si14 1.710707 1_555
O64 S17 1.550676 1_555
O65 S18 1.518790 1_555
O66 S13 1.554878 1_555
O67 S14 1.561346 1_555
O68 S15 1.520276 1_555
O69 S16 1.513877 1_555
O70 Si11 1.716393 1_555
O71 Si12 1.713537 1_555
O72 S19 1.471088 1_555
O73 S20 1.443254 1_555
O74 Si13 1.594802 1_555
O75 Si14 1.598446 1_555
O76 S17 1.466701 1_555
O77 S18 1.469030 1_555
O78 S13 1.451587 1_555
O79 S14 1.454167 1_555
O80 S15 1.469651 1_555
O81 S16 1.466456 1_555
O82 Si11 1.609679 1_555
O83 Si12 1.609703 1_555
O84 Si7 1.742975 1_555
O85 Si8 1.743218 1_555
O86 S5 1.494162 1_555
O87 S6 1.507061 1_555
O88 S7 1.481457 1_555
O89 S8 1.497355 1_555
O90 Si9 1.754247 1_555
O91 Si10 1.744580 1_555
O92 S9 1.490625 1_555
O93 S10 1.519275 1_555
O94 S11 1.511514 1_555
O95 S12 1.496425 1_555
O96 S3 1.477438 1_545
O97 S4 1.475660 1_545
O98 Si3 1.614470 1_555
O99 Si4 1.611231 1_555
O100 Si6 1.603870 1_555
O101 Si5 1.603213 1_655
O102 S0 1.470064 1_555
O103 S1 1.483925 1_555
O104 Si2 1.603505 1_555
O105 S2 1.471530 1_655
O106 Si0 1.593432 1_555
O107 Si1 1.607319 1_555
O108 Si11 1.747369 1_555
O109 Si12 1.745229 1_555
O110 S14 1.500614 1_555
O111 S13 1.508768 1_655
O112 S15 1.505473 1_545
O113 S16 1.517749 1_545
O114 Si13 1.763861 1_545
O115 Si14 1.726940 1_545
O116 S17 1.504571 1_555
O117 S18 1.505157 1_555
O118 S20 1.543756 1_555
O119 S19 1.484199 1_655
O120 S11 1.471204 1_555
O121 S12 1.468254 1_555
O122 Si10 1.585532 1_455
O123 Si9 1.590231 1_555
O124 S9 1.475848 1_565
O125 S10 1.473378 1_565
O126 S5 1.473840 1_565
O127 S6 1.471406 1_565
O128 S7 1.470807 1_555
O129 S8 1.478607 1_555
O130 Si8 1.587947 1_455
O131 Si7 1.584718 1_555
O132 Si0 1.750378 1_565
O133 Si1 1.679471 1_565
O134 S0 1.531394 1_555
O135 S1 1.492348 1_555
O136 S2 1.512107 1_555
O137 Si2 1.712136 1_555
O138 Si3 1.689888 1_555
O139 Si4 1.687297 1_555
O140 Si5 1.714211 1_555
O141 Si6 1.712450 1_555
O142 S3 1.509057 1_555
O143 S4 1.508076 1_555
