# generated using pymatgen
data_Na5Al3Si3Ge(SO8)3
_symmetry_space_group_name_H-M   'P 1'
_cell_length_a   8.69718437
_cell_length_b   8.65397837
_cell_length_c   21.69313771
_cell_angle_alpha   91.30656674
_cell_angle_beta   90.36455569
_cell_angle_gamma   120.39272858
_symmetry_Int_Tables_number   1
_chemical_formula_structural   Na5Al3Si3Ge(SO8)3
_chemical_formula_sum   'Na15 Al9 Si9 Ge3 S9 O72'
_cell_volume   1407.69535363
_cell_formula_units_Z   3
loop_
 _symmetry_equiv_pos_site_id
 _symmetry_equiv_pos_as_xyz
  1  'x, y, z'
loop_
 _atom_site_type_symbol
 _atom_site_label
 _atom_site_symmetry_multiplicity
 _atom_site_fract_x
 _atom_site_fract_y
 _atom_site_fract_z
 _atom_site_occupancy
  Na  Na0  1  0.64168246  0.00233410  0.25712994  1
  Na  Na1  1  0.00389618  0.62618225  0.24918906  1
  Na  Na2  1  0.63245480  0.64002936  0.74401112  1
  Na  Na3  1  0.36591787  0.01096111  0.75670775  1
  Na  Na4  1  0.66821739  0.95853389  0.58680373  1
  Na  Na5  1  0.97044100  0.67520309  0.92265422  1
  Na  Na6  1  0.69938893  0.02760880  0.91196277  1
  Na  Na7  1  0.96749412  0.30854180  0.40780194  1
  Na  Na8  1  0.70645699  0.68187258  0.42510610  1
  Na  Na9  1  0.01270628  0.98371946  0.50265665  1
  Na  Na10  1  0.01401347  0.99278441  0.00082796  1
  Na  Na11  1  0.64969420  0.32608034  0.83236800  1
  Na  Na12  1  0.65630875  0.32249400  0.33291503  1
  Na  Na13  1  0.30789578  0.63368671  0.16195419  1
  Na  Na14  1  0.32048828  0.63347511  0.66551712  1
  Al  Al0  1  0.98999184  0.99969357  0.35610266  1
  Al  Al1  1  0.00626591  0.01168003  0.85436740  1
  Al  Al2  1  0.98580586  0.99072868  0.65087662  1
  Al  Al3  1  0.00606550  0.00272122  0.14316624  1
  Al  Al4  1  0.64946860  0.33386857  0.69042254  1
  Al  Al5  1  0.69246583  0.34164584  0.18354158  1
  Al  Al6  1  0.32959811  0.68633497  0.01830724  1
  Al  Al7  1  0.34392205  0.67666338  0.51877366  1
  Al  Al8  1  0.31723136  0.65735854  0.31725758  1
  Si  Si0  1  0.00890779  0.28697026  0.24959831  1
  Si  Si1  1  0.27328576  0.28505809  0.75025340  1
  Si  Si2  1  0.71832615  0.01387991  0.75027517  1
  Si  Si3  1  0.66401752  0.62128395  0.58546074  1
  Si  Si4  1  0.96664499  0.62969488  0.08492956  1
  Si  Si5  1  0.62050864  0.66958953  0.92019583  1
  Si  Si6  1  0.33041494  0.95980615  0.91765829  1
  Si  Si7  1  0.61447103  0.95547921  0.41742914  1
  Si  Si8  1  0.05456210  0.67963397  0.41719405  1
  Ge  Ge0  1  0.64911752  0.34696981  0.98087258  1
  Ge  Ge1  1  0.68577750  0.34540848  0.47944385  1
  Ge  Ge2  1  0.36300730  0.67659942  0.81285817  1
  S  S0  1  0.28810054  0.00770846  0.24879607  1
  S  S1  1  0.70534862  0.70324846  0.24854690  1
  S  S2  1  0.99728280  0.70826561  0.74966437  1
  S  S3  1  0.96167766  0.33860079  0.58385066  1
  S  S4  1  0.37552072  0.04706895  0.58270432  1
  S  S5  1  0.66786963  0.04286799  0.08414066  1
  S  S6  1  0.38126278  0.33151497  0.08657019  1
  S  S7  1  0.05691821  0.38381325  0.91774657  1
  S  S8  1  0.33271445  0.37805363  0.41607038  1
  O  O0  1  0.20564730  0.02839739  0.30529059  1
  O  O1  1  0.81820681  0.78149498  0.30670911  1
  O  O2  1  0.96864053  0.16390984  0.31076528  1
  O  O3  1  0.19322422  0.15399615  0.80755205  1
  O  O4  1  0.96276009  0.78348043  0.80680575  1
  O  O5  1  0.82789932  0.03012758  0.81322736  1
  O  O6  1  0.78974554  0.95786932  0.68920193  1
  O  O7  1  0.15933878  0.18837352  0.68758938  1
  O  O8  1  0.02536425  0.82046017  0.69528981  1
  O  O9  1  0.79272460  0.81492169  0.19528127  1
  O  O10  1  0.02495661  0.18192344  0.19008291  1
  O  O11  1  0.17320053  0.97019596  0.19338976  1
  O  O12  1  0.86717557  0.35732731  0.63609695  1
  O  O13  1  0.48874966  0.13030437  0.63940810  1
  O  O14  1  0.64457097  0.50266487  0.64416677  1
  O  O15  1  0.87565324  0.51473427  0.14634453  1
  O  O16  1  0.64436036  0.12970840  0.14130079  1
  O  O17  1  0.49817286  0.34709080  0.13903854  1
  O  O18  1  0.44620516  0.28898894  0.02660833  1
  O  O19  1  0.83116241  0.52795509  0.02253897  1
  O  O20  1  0.69076619  0.15018237  0.02878202  1
  O  O21  1  0.46150450  0.15477010  0.52720841  1
  O  O22  1  0.69021083  0.52849132  0.52028542  1
  O  O23  1  0.84849064  0.29733661  0.52323772  1
  O  O24  1  0.51635418  0.69787080  0.97617525  1
  O  O25  1  0.15911050  0.46565205  0.97513213  1
  O  O26  1  0.28281218  0.82776120  0.97393583  1
  O  O27  1  0.53946305  0.83205116  0.47717493  1
  O  O28  1  0.30353068  0.45689179  0.47273439  1
  O  O29  1  0.17147407  0.69071778  0.47650912  1
  O  O30  1  0.12048121  0.62358671  0.35448022  1
  O  O31  1  0.49706928  0.86108174  0.35414335  1
  O  O32  1  0.36308682  0.49148328  0.36183441  1
  O  O33  1  0.13371379  0.49819918  0.86314614  1
  O  O34  1  0.37971874  0.87560163  0.85503271  1
  O  O35  1  0.51270740  0.62902098  0.85307427  1
  O  O36  1  0.02278168  0.84854179  0.40811419  1
  O  O37  1  0.81862969  0.98897156  0.41059576  1
  O  O38  1  0.17257830  0.19786728  0.40847722  1
  O  O39  1  0.03783419  0.20416209  0.91236632  1
  O  O40  1  0.15961700  0.98187236  0.90757194  1
  O  O41  1  0.82071772  0.84548544  0.91364612  1
  O  O42  1  0.97806432  0.17635128  0.58587377  1
  O  O43  1  0.19725821  0.02415132  0.58768808  1
  O  O44  1  0.84610623  0.82306774  0.58852420  1
  O  O45  1  0.98000307  0.82579646  0.09033466  1
  O  O46  1  0.82785189  0.02480752  0.08963736  1
  O  O47  1  0.20019362  0.17289519  0.09055467  1
  O  O48  1  0.68529141  0.18194406  0.74049931  1
  O  O49  1  0.48094480  0.32325324  0.74461698  1
  O  O50  1  0.83890867  0.52665020  0.74171152  1
  O  O51  1  0.68195775  0.52000586  0.24262723  1
  O  O52  1  0.82501875  0.30848346  0.24475946  1
  O  O53  1  0.46931546  0.16877695  0.24315248  1
  O  O54  1  0.64595104  0.49107896  0.92231248  1
  O  O55  1  0.87065794  0.35590622  0.92068701  1
  O  O56  1  0.52519258  0.15304425  0.92765254  1
  O  O57  1  0.63523388  0.15839915  0.42508424  1
  O  O58  1  0.49408329  0.36049703  0.41975003  1
  O  O59  1  0.84539391  0.49636788  0.42183256  1
  O  O60  1  0.37621616  0.49678246  0.08170011  1
  O  O61  1  0.15779651  0.64070396  0.07600920  1
  O  O62  1  0.50430449  0.86353695  0.08018111  1
  O  O63  1  0.36357774  0.86777569  0.57806435  1
  O  O64  1  0.48760752  0.64498563  0.57723784  1
  O  O65  1  0.13624527  0.50189335  0.57724726  1
  O  O66  1  0.31234353  0.84643976  0.25194427  1
  O  O67  1  0.52958307  0.68991679  0.25497170  1
  O  O68  1  0.18385199  0.49137684  0.25570947  1
  O  O69  1  0.29098581  0.48667343  0.75676773  1
  O  O70  1  0.16057894  0.69622496  0.75496221  1
  O  O71  1  0.51016148  0.82907310  0.75288080  1
loop_
_geom_bond_atom_site_label_1
_geom_bond_atom_site_label_2
_geom_bond_distance
_geom_bond_site_symmetry_2
Na0 O52 2.323177 1_555
Na0 O67 2.364095 1_545
Na0 O31 2.469919 1_545
Na0 O66 2.473054 1_545
Na0 O53 2.571578 1_555
Na0 O2 2.693609 1_555
Na0 O16 2.762304 1_555
Na0 O9 2.869706 1_545
Na1 O52 2.376260 1_455
Na1 O66 2.377413 1_555
Na1 O68 2.383850 1_555
Na1 O15 2.435858 1_455
Na1 O51 2.467803 1_455
Na1 O30 2.498325 1_555
Na1 O1 2.849066 1_455
Na1 O11 2.871906 1_555
Na2 O71 2.365084 1_555
Na2 O49 2.366091 1_555
Na2 O50 2.443527 1_555
Na2 O14 2.475429 1_555
Na2 O35 2.575375 1_555
Na2 O69 2.587827 1_555
Na2 O6 2.685751 1_555
Na2 O4 2.813160 1_555
Na3 O49 2.381900 1_555
Na3 O70 2.383696 1_545
Na3 O48 2.430195 1_555
Na3 O71 2.460037 1_545
Na3 O34 2.487795 1_545
Na3 O3 2.616217 1_555
Na3 O13 2.778656 1_555
Na3 O8 2.859103 1_545
Na4 O64 2.351729 1_555
Na4 O63 2.356672 1_555
Na4 O44 2.367664 1_555
Na4 O42 2.382875 1_565
Na4 O6 2.455276 1_555
Na4 O27 2.591336 1_555
Na4 O13 2.870753 1_565
Na4 O23 2.918343 1_565
Na5 O40 2.342121 1_655
Na5 O41 2.420109 1_555
Na5 O54 2.439797 1_555
Na5 O55 2.440885 1_555
Na5 O19 2.526589 1_556
Na5 O26 2.574224 1_655
Na5 O4 2.714191 1_555
Na5 O33 2.857160 1_655
Na6 O56 2.289813 1_555
Na6 O41 2.298662 1_545
Na6 O5 2.417700 1_555
Na6 O55 2.452779 1_555
Na6 O39 2.539141 1_655
Na6 O34 2.677111 1_545
Na6 O20 2.741019 1_556
Na6 O24 2.868856 1_545
Na7 O59 2.364424 1_555
Na7 O37 2.390369 1_545
Na7 O38 2.414096 1_655
Na7 O2 2.427055 1_555
Na7 O57 2.533011 1_555
Na7 O30 2.652242 1_655
Na7 O23 2.700733 1_555
Na7 O28 2.870954 1_655
Na8 O37 2.352112 1_555
Na8 O36 2.409776 1_655
Na8 O58 2.438183 1_555
Na8 O22 2.446203 1_555
Na8 O59 2.449706 1_555
Na8 O27 2.634044 1_555
Na8 O1 2.751267 1_555
Na8 O32 2.895327 1_555
Na9 O43 2.337923 1_565
Na9 O36 2.362001 1_555
Na9 O44 2.369863 1_455
Na9 O42 2.550794 1_465
Na9 O37 2.622666 1_455
Na9 O38 2.672696 1_565
Na10 O45 2.376702 1_455
Na10 O41 2.389386 1_454
Na10 O40 2.418681 1_554
Na10 O47 2.471408 1_565
Na10 O39 2.617898 1_564
Na10 O46 2.622821 1_465
Na11 O49 2.388356 1_555
Na11 O54 2.401630 1_555
Na11 O48 2.430783 1_555
Na11 O56 2.493268 1_555
Na11 O55 2.619010 1_555
Na11 O50 2.625853 1_555
Na12 O53 2.420480 1_555
Na12 O57 2.432846 1_555
Na12 O59 2.452070 1_555
Na12 O52 2.455603 1_555
Na12 O58 2.474330 1_555
Na12 O51 2.565147 1_555
Na13 O61 2.288737 1_555
Na13 O60 2.327899 1_555
Na13 O68 2.369576 1_555
Na13 O62 2.604366 1_555
Na13 O66 2.639202 1_555
Na13 O67 2.642395 1_555
Na14 O69 2.321547 1_555
Na14 O65 2.355040 1_555
Na14 O64 2.384857 1_555
Na14 O71 2.483297 1_555
Na14 O70 2.597020 1_555
Na14 O63 2.695629 1_555
Al0 O2 1.830248 1_565
Al0 O36 1.872450 1_655
Al0 O37 1.874760 1_555
Al0 O38 1.971372 1_665
Al0 O1 1.994657 1_555
Al0 O0 2.088526 1_665
Al1 O3 1.801074 1_555
Al1 O5 1.862237 1_455
Al1 O40 1.876054 1_545
Al1 O39 1.967318 1_555
Al1 O41 2.022044 1_445
Al1 O4 2.062449 1_445
Al2 O7 1.774311 1_665
Al2 O6 1.793846 1_555
Al2 O44 1.875319 1_555
Al2 O8 1.947129 1_655
Al2 O42 2.187448 1_565
Al2 O43 2.203778 1_665
Al3 O10 1.770860 1_555
Al3 O45 1.809603 1_445
Al3 O11 1.946033 1_545
Al3 O47 1.976676 1_555
Al3 O46 2.018485 1_455
Al3 O9 2.102716 1_445
Al4 O14 1.808804 1_555
Al4 O49 1.851870 1_555
Al4 O48 1.865754 1_555
Al4 O13 1.918786 1_555
Al4 O50 1.961258 1_555
Al4 O12 2.159983 1_555
Al5 O15 1.757809 1_555
Al5 O52 1.872877 1_555
Al5 O16 1.876346 1_555
Al5 O17 1.962537 1_555
Al5 O51 2.021809 1_555
Al5 O53 2.204366 1_555
Al6 O26 1.772757 1_554
Al6 O24 1.828248 1_554
Al6 O61 1.845182 1_555
Al6 O25 1.938694 1_554
Al6 O62 1.996111 1_555
Al6 O60 2.348433 1_555
Al7 O27 1.809892 1_555
Al7 O29 1.810251 1_555
Al7 O64 1.894106 1_555
Al7 O28 1.992730 1_555
Al7 O63 2.008227 1_555
Al7 O65 2.124006 1_555
Al8 O30 1.785457 1_555
Al8 O31 1.823298 1_555
Al8 O68 1.843479 1_555
Al8 O32 1.947418 1_555
Al8 O67 2.199670 1_555
Al8 O66 2.205020 1_555
Ge0 O19 1.784635 1_556
Ge0 O54 1.810086 1_555
Ge0 O56 1.837546 1_555
Ge0 O18 1.870702 1_556
Ge0 O20 2.193549 1_556
Ge0 O55 2.304110 1_555
Ge1 O22 1.780588 1_555
Ge1 O57 1.841055 1_555
Ge1 O59 1.859362 1_555
Ge1 O23 1.916994 1_555
Ge1 O21 2.108935 1_555
Ge1 O58 2.161945 1_555
Ge2 O35 1.780482 1_555
Ge2 O69 1.852496 1_555
Ge2 O71 1.860817 1_555
Ge2 O34 1.870077 1_555
Ge2 O33 2.130654 1_555
Ge2 O70 2.233819 1_555
O0 S0 1.476263 1_555
O1 S1 1.512169 1_555
O2 Si0 1.646342 1_655
O3 Si1 1.610118 1_555
O4 S2 1.488647 1_555
O5 Si2 1.622339 1_555
O6 Si2 1.631529 1_565
O7 Si1 1.619283 1_555
O8 S2 1.486491 1_455
O9 S1 1.471604 1_555
O10 Si0 1.609327 1_555
O11 S0 1.478960 1_565
O12 S3 1.457602 1_555
O13 S4 1.492703 1_555
O14 Si3 1.609626 1_555
O15 Si4 1.633472 1_555
O16 S5 1.503445 1_555
O17 S6 1.478895 1_555
O18 S6 1.531104 1_555
O19 Si4 1.694422 1_555
O20 S5 1.486968 1_555
O21 S4 1.494869 1_555
O22 Si3 1.683200 1_555
O23 S3 1.559462 1_555
O24 Si5 1.606217 1_555
O25 S7 1.466298 1_555
O26 Si6 1.599685 1_555
O27 Si7 1.617137 1_555
O28 S8 1.477104 1_555
O29 Si8 1.605554 1_555
O30 Si8 1.635846 1_555
O31 Si7 1.637589 1_555
O32 S8 1.487236 1_555
O33 S7 1.491129 1_555
O34 Si6 1.684924 1_555
O35 Si5 1.657922 1_555
O36 Si8 1.634955 1_555
O37 Si7 1.656298 1_555
O38 S8 1.478598 1_555
O39 S7 1.479402 1_555
O40 Si6 1.604908 1_555
O41 Si5 1.643264 1_555
O42 S3 1.482888 1_555
O43 S4 1.465158 1_555
O44 Si3 1.660387 1_555
O45 Si4 1.642714 1_555
O46 S5 1.481017 1_555
O47 S6 1.480388 1_555
O48 Si2 1.636759 1_555
O49 Si1 1.669320 1_555
O50 S2 1.480317 1_555
O51 S1 1.495501 1_555
O52 Si0 1.703975 1_655
O53 S0 1.493060 1_555
O54 Si5 1.669297 1_555
O55 S7 1.514185 1_655
O56 Si6 1.680944 1_545
O57 Si7 1.676128 1_545
O58 S8 1.487961 1_555
O59 Si8 1.710293 1_655
O60 S6 1.459099 1_555
O61 Si4 1.629427 1_455
O62 S5 1.482574 1_565
O63 S4 1.502682 1_565
O64 Si3 1.656651 1_555
O65 S3 1.470928 1_455
O66 S0 1.516171 1_565
O67 S1 1.481399 1_555
O68 Si0 1.650788 1_555
O69 Si1 1.674698 1_555
O70 S2 1.479625 1_455
O71 Si2 1.707150 1_565
