# generated using pymatgen
data_CoN3
_symmetry_space_group_name_H-M   'P 1'
_cell_length_a   5.41921285
_cell_length_b   5.41921285
_cell_length_c   5.41921285
_cell_angle_alpha   109.47122063
_cell_angle_beta   109.47122063
_cell_angle_gamma   109.47122063
_symmetry_Int_Tables_number   1
_chemical_formula_structural   CoN3
_chemical_formula_sum   'Co4 N12'
_cell_volume   122.51428717
_cell_formula_units_Z   4
loop_
 _symmetry_equiv_pos_site_id
 _symmetry_equiv_pos_as_xyz
  1  'x, y, z'
loop_
 _atom_site_type_symbol
 _atom_site_label
 _atom_site_symmetry_multiplicity
 _atom_site_fract_x
 _atom_site_fract_y
 _atom_site_fract_z
 _atom_site_occupancy
  Co  Co0  1  0.50000000  0.00000000  0.00000000  1
  Co  Co1  1  0.50000000  0.50000000  0.50000000  1
  Co  Co2  1  0.00000000  0.50000000  0.00000000  1
  Co  Co3  1  0.00000000  0.00000000  0.50000000  1
  N  N0  1  0.11596900  0.74099000  0.62502100  1
  N  N1  1  0.11596900  0.49094800  0.37497900  1
  N  N2  1  0.88403100  0.50905200  0.62502100  1
  N  N3  1  0.37497900  0.11596900  0.49094800  1
  N  N4  1  0.88403100  0.25901000  0.37497900  1
  N  N5  1  0.62502100  0.11596900  0.74099000  1
  N  N6  1  0.50905200  0.62502100  0.88403100  1
  N  N7  1  0.62502100  0.88403100  0.50905200  1
  N  N8  1  0.49094800  0.37497900  0.11596900  1
  N  N9  1  0.37497900  0.88403100  0.25901000  1
  N  N10  1  0.25901000  0.37497900  0.88403100  1
  N  N11  1  0.74099000  0.62502100  0.11596900  1
loop_
_geom_bond_atom_site_label_1
_geom_bond_atom_site_label_2
_geom_bond_distance
_geom_bond_site_symmetry_2
Co0 N6 1.939685 1_544
Co0 N4 1.939685 1_555
Co0 N0 1.939685 1_544
Co0 N5 1.939685 1_554
Co0 N9 1.939685 1_545
Co0 N8 1.939685 1_555
Co1 N1 1.939685 1_555
Co1 N2 1.939685 1_555
Co1 N8 1.939685 1_555
Co1 N3 1.939685 1_555
Co1 N7 1.939685 1_555
Co1 N6 1.939685 1_555
Co2 N2 1.939685 1_454
Co2 N11 1.939685 1_455
Co2 N5 1.939685 1_454
Co2 N1 1.939685 1_555
Co2 N10 1.939685 1_554
Co2 N9 1.939685 1_555
Co3 N7 1.939685 1_445
Co3 N11 1.939685 1_445
Co3 N0 1.939685 1_545
Co3 N4 1.939685 1_455
Co3 N3 1.939685 1_555
Co3 N10 1.939685 1_555
N0 N2 1.451368 1_455
N0 N1 1.564655 1_555
N1 N4 1.451368 1_455
N2 N4 1.564655 1_555
N3 N9 1.451368 1_545
N3 N5 1.564655 1_555
N5 N7 1.451368 1_545
N7 N9 1.564655 1_555
N10 N8 1.451368 1_556
N10 N6 1.564655 1_555
N11 N6 1.451368 1_554
N11 N8 1.564655 1_555
