# generated using pymatgen
data_Na5Ti2Ga2SiP5O24
_symmetry_space_group_name_H-M   'P 1'
_cell_length_a   8.73151266
_cell_length_b   8.71475818
_cell_length_c   22.05323852
_cell_angle_alpha   90.12938669
_cell_angle_beta   89.86781570
_cell_angle_gamma   119.98291128
_symmetry_Int_Tables_number   1
_chemical_formula_structural   Na5Ti2Ga2SiP5O24
_chemical_formula_sum   'Na15 Ti6 Ga6 Si3 P15 O72'
_cell_volume   1453.52024192
_cell_formula_units_Z   3
loop_
 _symmetry_equiv_pos_site_id
 _symmetry_equiv_pos_as_xyz
  1  'x, y, z'
loop_
 _atom_site_type_symbol
 _atom_site_label
 _atom_site_symmetry_multiplicity
 _atom_site_fract_x
 _atom_site_fract_y
 _atom_site_fract_z
 _atom_site_occupancy
  Na  Na0  1  0.00186942  0.63670442  0.25095762  1
  Na  Na1  1  0.63222606  0.63595448  0.75078746  1
  Na  Na2  1  0.36609061  0.99879893  0.75149077  1
  Na  Na3  1  0.66679250  0.96826324  0.58355102  1
  Na  Na4  1  0.29883143  0.96832471  0.08369451  1
  Na  Na5  1  0.67096576  0.69980824  0.08293764  1
  Na  Na6  1  0.03091357  0.33215351  0.08389811  1
  Na  Na7  1  0.96759450  0.30003951  0.41614464  1
  Na  Na8  1  0.33616466  0.03520221  0.41710227  1
  Na  Na9  1  0.00139715  0.99421395  0.50039980  1
  Na  Na10  1  0.00003384  0.99758592  0.99751515  1
  Na  Na11  1  0.67318683  0.33418659  0.83704036  1
  Na  Na12  1  0.66015508  0.33386751  0.33360315  1
  Na  Na13  1  0.33915621  0.66733855  0.17001569  1
  Na  Na14  1  0.32296634  0.65715756  0.66718313  1
  Ti  Ti0  1  0.99315441  0.00188638  0.85540416  1
  Ti  Ti1  1  0.00525880  0.99900953  0.64747525  1
  Ti  Ti2  1  0.66961659  0.32553645  0.68502126  1
  Ti  Ti3  1  0.66846722  0.33359229  0.18746717  1
  Ti  Ti4  1  0.32717611  0.66609755  0.01498844  1
  Ti  Ti5  1  0.33077561  0.66725208  0.52038631  1
  Ga  Ga0  1  0.99497782  0.99565497  0.35028112  1
  Ga  Ga1  1  0.99919549  0.99624329  0.15161474  1
  Ga  Ga2  1  0.66933047  0.33802748  0.97946668  1
  Ga  Ga3  1  0.66295414  0.33908996  0.48314191  1
  Ga  Ga4  1  0.34071475  0.66659753  0.31479047  1
  Ga  Ga5  1  0.33264067  0.66592914  0.81633499  1
  Si  Si0  1  0.71049831  0.00116957  0.75020619  1
  Si  Si1  1  0.37275714  0.04505186  0.58117106  1
  Si  Si2  1  0.95536826  0.62496694  0.08247859  1
  P  P0  1  0.29257667  0.00097868  0.25116115  1
  P  P1  1  0.70547001  0.71157594  0.25027471  1
  P  P2  1  0.00251164  0.28924529  0.25039796  1
  P  P3  1  0.28542810  0.29089938  0.75098242  1
  P  P4  1  0.00059316  0.70893428  0.75123190  1
  P  P5  1  0.95807182  0.33540176  0.58170098  1
  P  P6  1  0.66711016  0.62035066  0.58318803  1
  P  P7  1  0.66820682  0.04611631  0.08259954  1
  P  P8  1  0.37826725  0.33205077  0.08281764  1
  P  P9  1  0.62257940  0.66250043  0.91585790  1
  P  P10  1  0.04018549  0.37702877  0.91496201  1
  P  P11  1  0.33667740  0.96318935  0.91531744  1
  P  P12  1  0.62524310  0.95492325  0.41585401  1
  P  P13  1  0.33733574  0.37961023  0.41568475  1
  P  P14  1  0.03954420  0.66556834  0.41567398  1
  O  O0  1  0.21101863  0.03445866  0.30834449  1
  O  O1  1  0.83066498  0.78923336  0.30518747  1
  O  O2  1  0.96651161  0.17610570  0.30783206  1
  O  O3  1  0.20432854  0.16687697  0.80596085  1
  O  O4  1  0.96557625  0.79689365  0.80619592  1
  O  O5  1  0.83908504  0.03212603  0.80827598  1
  O  O6  1  0.79841453  0.96419324  0.69051805  1
  O  O7  1  0.17118206  0.20124304  0.69417834  1
  O  O8  1  0.03564661  0.82993636  0.69465319  1
  O  O9  1  0.78535050  0.81993053  0.19155332  1
  O  O10  1  0.03198532  0.20907279  0.19195603  1
  O  O11  1  0.17627985  0.96280881  0.19341513  1
  O  O12  1  0.87015488  0.36662373  0.63835989  1
  O  O13  1  0.50131525  0.13106386  0.64166666  1
  O  O14  1  0.63627533  0.50824432  0.64111237  1
  O  O15  1  0.86868272  0.49729451  0.14305363  1
  O  O16  1  0.62934150  0.12838259  0.13918296  1
  O  O17  1  0.49838390  0.36770204  0.13914192  1
  O  O18  1  0.45529180  0.29065932  0.02726313  1
  O  O19  1  0.82704817  0.53662574  0.02587663  1
  O  O20  1  0.70417125  0.16258548  0.02708039  1
  O  O21  1  0.45936928  0.15994688  0.52129933  1
  O  O22  1  0.70430817  0.54358281  0.52681808  1
  O  O23  1  0.84149426  0.29571798  0.52505079  1
  O  O24  1  0.53653976  0.69623342  0.97349516  1
  O  O25  1  0.15905753  0.46252107  0.97354524  1
  O  O26  1  0.30433040  0.84042607  0.97302432  1
  O  O27  1  0.53877185  0.84101434  0.47377942  1
  O  O28  1  0.30083601  0.46568236  0.47201197  1
  O  O29  1  0.16425042  0.69935147  0.47135822  1
  O  O30  1  0.11995554  0.62859049  0.35867678  1
  O  O31  1  0.50206998  0.87382757  0.36114451  1
  O  O32  1  0.36520846  0.49233506  0.35949672  1
  O  O33  1  0.12854421  0.49437726  0.86002669  1
  O  O34  1  0.36655603  0.87796523  0.85874941  1
  O  O35  1  0.51133830  0.63494991  0.85860987  1
  O  O36  1  0.03021355  0.83787167  0.41099178  1
  O  O37  1  0.81258854  0.97792401  0.41080457  1
  O  O38  1  0.16635640  0.19213319  0.41137005  1
  O  O39  1  0.03057321  0.19421486  0.91084139  1
  O  O40  1  0.16602228  0.97361338  0.91064668  1
  O  O41  1  0.80756424  0.83310402  0.91080811  1
  O  O42  1  0.97126750  0.16652860  0.59043821  1
  O  O43  1  0.17825172  0.02060258  0.59133136  1
  O  O44  1  0.82860147  0.81028903  0.59004786  1
  O  O45  1  0.98120003  0.82292473  0.09075914  1
  O  O46  1  0.83331309  0.02532565  0.09038507  1
  O  O47  1  0.18987671  0.17016303  0.09071132  1
  O  O48  1  0.68808625  0.17642822  0.74401441  1
  O  O49  1  0.47259703  0.31022369  0.74332559  1
  O  O50  1  0.83012754  0.52911598  0.74307225  1
  O  O51  1  0.69279188  0.52582455  0.24299655  1
  O  O52  1  0.83425350  0.31015925  0.24385347  1
  O  O53  1  0.47646111  0.16722834  0.24281310  1
  O  O54  1  0.64014845  0.49784079  0.92244895  1
  O  O55  1  0.85739853  0.35541760  0.92306221  1
  O  O56  1  0.50177863  0.14335586  0.92449541  1
  O  O57  1  0.64601295  0.14265295  0.42215796  1
  O  O58  1  0.49928890  0.35439445  0.42158361  1
  O  O59  1  0.85863015  0.49613781  0.42393637  1
  O  O60  1  0.36105954  0.50135434  0.07730313  1
  O  O61  1  0.15366686  0.64377493  0.07671344  1
  O  O62  1  0.50167322  0.85782181  0.07729881  1
  O  O63  1  0.36119749  0.84999390  0.57585664  1
  O  O64  1  0.50182028  0.64369004  0.57657854  1
  O  O65  1  0.14254574  0.50046577  0.57626907  1
  O  O66  1  0.30540198  0.83020572  0.25674131  1
  O  O67  1  0.52153894  0.69025045  0.25642087  1
  O  O68  1  0.16264401  0.47933530  0.25568502  1
  O  O69  1  0.31027249  0.47738681  0.75609902  1
  O  O70  1  0.16800599  0.69431674  0.75629174  1
  O  O71  1  0.51443422  0.82603550  0.75636397  1
loop_
_geom_bond_atom_site_label_1
_geom_bond_atom_site_label_2
_geom_bond_distance
_geom_bond_site_symmetry_2
Na0 O66 2.327589 1_555
Na0 O51 2.375421 1_455
Na0 O68 2.405810 1_555
Na0 O52 2.470054 1_455
Na0 O30 2.606972 1_555
Na0 O15 2.660575 1_455
Na0 O1 2.720745 1_455
Na0 O11 2.772676 1_555
Na1 O50 2.342590 1_555
Na1 O71 2.349107 1_555
Na1 O69 2.437702 1_555
Na1 O49 2.464191 1_555
Na1 O35 2.597613 1_555
Na1 O14 2.667729 1_555
Na1 O4 2.803678 1_555
Na1 O6 2.813252 1_555
Na2 O70 2.336029 1_555
Na2 O49 2.396212 1_565
Na2 O71 2.430343 1_555
Na2 O48 2.444814 1_565
Na2 O34 2.592218 1_555
Na2 O13 2.688464 1_565
Na2 O3 2.763236 1_565
Na2 O8 2.797525 1_555
Na3 O63 2.337413 1_555
Na3 O42 2.342179 1_565
Na3 O44 2.420298 1_555
Na3 O64 2.454817 1_555
Na3 O6 2.634468 1_555
Na3 O27 2.664777 1_555
Na3 O13 2.788414 1_565
Na3 O23 2.791339 1_565
Na4 O47 2.386123 1_565
Na4 O62 2.405634 1_555
Na4 O45 2.410001 1_455
Na4 O61 2.458815 1_555
Na4 O11 2.634280 1_555
Na4 O26 2.691100 1_554
Na4 O18 2.734651 1_565
Na4 O16 2.785054 1_565
Na5 O45 2.369612 1_555
Na5 O60 2.377355 1_555
Na5 O46 2.462442 1_565
Na5 O62 2.476458 1_555
Na5 O9 2.604936 1_555
Na5 O24 2.679571 1_554
Na5 O19 2.717404 1_555
Na5 O17 2.798597 1_555
Na6 O46 2.353021 1_455
Na6 O61 2.375052 1_555
Na6 O47 2.429475 1_555
Na6 O60 2.501168 1_555
Na6 O10 2.617460 1_555
Na6 O25 2.682288 1_554
Na6 O20 2.772634 1_455
Na6 O15 2.792879 1_455
Na7 O59 2.340567 1_555
Na7 O38 2.353128 1_655
Na7 O37 2.434685 1_545
Na7 O57 2.435760 1_555
Na7 O2 2.617339 1_555
Na7 O23 2.632262 1_555
Na7 O30 2.788482 1_655
Na7 O28 2.806874 1_655
Na8 O36 2.349667 1_545
Na8 O57 2.382761 1_555
Na8 O58 2.411569 1_555
Na8 O38 2.472456 1_555
Na8 O21 2.539804 1_555
Na8 O0 2.636594 1_555
Na8 O31 2.760294 1_545
Na8 O29 2.804951 1_545
Na9 O43 2.473075 1_565
Na9 O36 2.477021 1_555
Na9 O44 2.517468 1_455
Na9 O37 2.534142 1_455
Na9 O38 2.534503 1_565
Na9 O42 2.577982 1_465
Na10 O40 2.470271 1_555
Na10 O41 2.475904 1_455
Na10 O39 2.493346 1_565
Na10 O45 2.516907 1_456
Na10 O46 2.589972 1_466
Na10 O47 2.596887 1_566
Na11 O55 2.436231 1_555
Na11 O54 2.462024 1_555
Na11 O56 2.497778 1_555
Na11 O48 2.506115 1_555
Na11 O50 2.595027 1_555
Na11 O49 2.651733 1_555
Na12 O58 2.450815 1_555
Na12 O53 2.522701 1_555
Na12 O51 2.531471 1_555
Na12 O57 2.532572 1_555
Na12 O59 2.554496 1_555
Na12 O52 2.563050 1_555
Na13 O67 2.429261 1_555
Na13 O68 2.470998 1_555
Na13 O66 2.482462 1_555
Na13 O60 2.563348 1_555
Na13 O61 2.565175 1_555
Na13 O62 2.568591 1_555
Na14 O69 2.480138 1_555
Na14 O65 2.493661 1_555
Na14 O70 2.494017 1_555
Na14 O71 2.524254 1_555
Na14 O63 2.538396 1_555
Na14 O64 2.571539 1_555
Ga0 O1 1.924148 1_555
Ga0 O2 1.951806 1_565
Ga0 O0 1.970746 1_665
Ga0 O37 2.021568 1_555
Ga0 O36 2.052074 1_655
Ga0 O38 2.103329 1_665
Ga1 O9 1.937548 1_555
Ga1 O10 1.943336 1_665
Ga1 O11 1.945132 1_655
Ga1 O45 1.965154 1_555
Ga1 O47 2.085645 1_665
Ga1 O46 2.088762 1_565
Ga2 O19 1.885666 1_556
Ga2 O54 1.987418 1_555
Ga2 O18 1.998994 1_556
Ga2 O56 2.001585 1_555
Ga2 O20 2.001592 1_556
Ga2 O55 2.002374 1_555
Ga3 O21 1.878986 1_555
Ga3 O22 1.893339 1_555
Ga3 O23 2.006107 1_555
Ga3 O58 2.025635 1_555
Ga3 O59 2.039041 1_555
Ga3 O57 2.121001 1_555
Ga4 O32 1.912183 1_555
Ga4 O31 1.935634 1_555
Ga4 O67 1.964392 1_555
Ga4 O30 2.028947 1_555
Ga4 O66 2.053362 1_555
Ga4 O68 2.059956 1_555
Ga5 O33 1.917034 1_555
Ga5 O35 1.950764 1_555
Ga5 O34 1.955427 1_555
Ga5 O71 2.000153 1_555
Ga5 O69 2.042832 1_555
Ga5 O70 2.060755 1_555
O0 P0 1.544161 1_555
O1 P1 1.543531 1_555
O2 P2 1.539253 1_655
O3 P3 1.541641 1_555
O3 Ti0 2.001044 1_455
O4 P4 1.542300 1_655
O4 Ti0 1.997395 1_565
O5 Si0 1.635758 1_555
O5 Ti0 1.822470 1_555
O6 Si0 1.632930 1_565
O6 Ti1 1.923709 1_655
O7 P3 1.548289 1_555
O7 Ti1 1.926788 1_545
O8 P4 1.563367 1_555
O8 Ti1 1.929464 1_555
O9 P1 1.548626 1_555
O10 P2 1.545832 1_555
O11 P0 1.558846 1_565
O12 P5 1.558012 1_555
O12 Ti2 1.902586 1_555
O13 Si1 1.662286 1_555
O13 Ti2 1.858995 1_555
O14 P6 1.549169 1_555
O14 Ti2 2.007301 1_555
O15 Si2 1.660044 1_555
O15 Ti3 1.885855 1_555
O16 P7 1.556742 1_555
O16 Ti3 1.957347 1_555
O17 P8 1.554988 1_555
O17 Ti3 1.969664 1_555
O18 P8 1.523191 1_555
O19 Si2 1.595675 1_555
O20 P7 1.520923 1_555
O21 Si1 1.600745 1_555
O22 P6 1.519878 1_555
O23 P5 1.539023 1_555
O24 P9 1.575156 1_555
O24 Ti4 1.939494 1_556
O25 P10 1.590743 1_555
O25 Ti4 1.879778 1_556
O26 P11 1.595746 1_555
O26 Ti4 1.874673 1_556
O27 P12 1.561894 1_555
O27 Ti5 1.974214 1_555
O28 P13 1.562103 1_555
O28 Ti5 1.956022 1_555
O29 P14 1.569866 1_555
O29 Ti5 1.943355 1_555
O30 P14 1.548234 1_555
O31 P12 1.534368 1_555
O32 P13 1.524752 1_555
O33 P10 1.523646 1_555
O34 P11 1.537507 1_555
O35 P9 1.538245 1_555
O36 P14 1.547598 1_555
O37 P12 1.549190 1_555
O38 P13 1.571389 1_555
O39 P10 1.555396 1_555
O39 Ti0 1.963664 1_455
O40 P11 1.541180 1_555
O40 Ti0 2.050547 1_465
O41 P9 1.559320 1_555
O41 Ti0 1.974598 1_565
O42 P5 1.545034 1_555
O42 Ti1 2.060250 1_645
O43 Si1 1.617623 1_555
O43 Ti1 1.886358 1_545
O44 P6 1.555025 1_555
O44 Ti1 2.037678 1_655
O45 Si2 1.634086 1_555
O46 P7 1.550144 1_555
O47 P8 1.551386 1_555
O48 Si0 1.639968 1_555
O48 Ti2 1.903992 1_555
O49 P3 1.565721 1_555
O49 Ti2 2.095607 1_555
O50 P4 1.540195 1_655
O50 Ti2 2.064845 1_555
O51 P1 1.574250 1_555
O51 Ti3 1.996887 1_555
O52 P2 1.575173 1_655
O52 Ti3 1.997086 1_555
O53 P0 1.544581 1_555
O53 Ti3 1.992883 1_555
O54 P9 1.524749 1_555
O55 P10 1.520863 1_655
O56 P11 1.523813 1_545
O57 P12 1.559269 1_545
O58 P13 1.541572 1_555
O59 P14 1.541868 1_655
O60 P8 1.561010 1_555
O60 Ti4 2.114856 1_555
O61 Si2 1.660231 1_455
O61 Ti4 1.970568 1_555
O62 P7 1.560707 1_565
O62 Ti4 2.110988 1_555
O63 Si1 1.655655 1_565
O63 Ti5 1.916542 1_555
O64 P6 1.562061 1_555
O64 Ti5 2.030888 1_555
O65 P5 1.536924 1_455
O65 Ti5 1.985892 1_555
O66 P0 1.552425 1_565
O67 P1 1.527393 1_555
O68 P2 1.548443 1_555
O69 P3 1.532305 1_555
O70 P4 1.533746 1_555
O71 Si0 1.633088 1_565
