# generated using pymatgen
data_Na7Si5Ge4PO24
_symmetry_space_group_name_H-M   'P 1'
_cell_length_a   8.74564061
_cell_length_b   8.74966950
_cell_length_c   21.54365258
_cell_angle_alpha   90.15138578
_cell_angle_beta   89.49835543
_cell_angle_gamma   120.09099072
_symmetry_Int_Tables_number   1
_chemical_formula_structural   Na7Si5Ge4PO24
_chemical_formula_sum   'Na21 Si15 Ge12 P3 O72'
_cell_volume   1426.31938485
_cell_formula_units_Z   3
loop_
 _symmetry_equiv_pos_site_id
 _symmetry_equiv_pos_as_xyz
  1  'x, y, z'
loop_
 _atom_site_type_symbol
 _atom_site_label
 _atom_site_symmetry_multiplicity
 _atom_site_fract_x
 _atom_site_fract_y
 _atom_site_fract_z
 _atom_site_occupancy
  Na  Na0  1  0.63315630  0.99964331  0.25044136  1
  Na  Na1  1  0.36805676  0.36743254  0.24921080  1
  Na  Na2  1  0.00051523  0.63079753  0.25030391  1
  Na  Na3  1  0.63207226  0.63153569  0.74947386  1
  Na  Na4  1  0.99967062  0.36843123  0.75020433  1
  Na  Na5  1  0.36962006  0.00118260  0.75051214  1
  Na  Na6  1  0.29863144  0.33290636  0.58336157  1
  Na  Na7  1  0.03553514  0.70272644  0.58334193  1
  Na  Na8  1  0.66837423  0.96535402  0.58343122  1
  Na  Na9  1  0.29610245  0.96684198  0.08218205  1
  Na  Na10  1  0.03621118  0.33582676  0.08456015  1
  Na  Na11  1  0.96665487  0.66831515  0.91691981  1
  Na  Na12  1  0.33248545  0.29656086  0.91808620  1
  Na  Na13  1  0.33084756  0.03361349  0.41666652  1
  Na  Na14  1  0.70168061  0.66572943  0.41796461  1
  Na  Na15  1  0.99784485  0.00657476  0.49877471  1
  Na  Na16  1  0.98521442  0.99358243  0.00011338  1
  Na  Na17  1  0.66767434  0.32348872  0.83449888  1
  Na  Na18  1  0.67660558  0.33218570  0.33470850  1
  Na  Na19  1  0.34200868  0.66653709  0.16527518  1
  Na  Na20  1  0.33408447  0.66705745  0.66670658  1
  Si  Si0  1  0.28723014  0.00060680  0.25002201  1
  Si  Si1  1  0.71425777  0.71467336  0.25015846  1
  Si  Si2  1  -0.00013282  0.28439269  0.24972642  1
  Si  Si3  1  0.28780793  0.28739168  0.75020475  1
  Si  Si4  1  0.99913002  0.71458771  0.75037756  1
  Si  Si5  1  0.71486292  -0.00013216  0.75072430  1
  Si  Si6  1  0.95505752  0.33306072  0.58360349  1
  Si  Si7  1  0.38208751  0.04968735  0.58299727  1
  Si  Si8  1  0.66634678  0.61877593  0.58272775  1
  Si  Si9  1  0.94811519  0.62218989  0.08252757  1
  Si  Si10  1  0.38365001  0.33984909  0.08326197  1
  Si  Si11  1  0.03966964  0.37261052  0.91659130  1
  Si  Si12  1  0.33827471  0.95534698  0.91720931  1
  Si  Si13  1  0.62476884  0.95846476  0.41631799  1
  Si  Si14  1  0.04426087  0.66255029  0.41668500  1
  Ge  Ge0  1  0.99434074  0.99723419  0.35318408  1
  Ge  Ge1  1  0.00181635  0.00452866  0.85364757  1
  Ge  Ge2  1  0.99988571  0.00049515  0.64611907  1
  Ge  Ge3  1  0.00109040  0.99717247  0.14659709  1
  Ge  Ge4  1  0.66790405  0.33420817  0.68740887  1
  Ge  Ge5  1  0.66751248  0.33818095  0.18769813  1
  Ge  Ge6  1  0.66700818  0.32721807  0.98023442  1
  Ge  Ge7  1  0.67758227  0.33097512  0.48040398  1
  Ge  Ge8  1  0.32650569  0.65858058  0.01973796  1
  Ge  Ge9  1  0.33583468  0.67175363  0.52046833  1
  Ge  Ge10  1  0.33040202  0.66979853  0.31236867  1
  Ge  Ge11  1  0.32987932  0.66988641  0.81271201  1
  P  P0  1  0.66668182  0.04307977  0.08335676  1
  P  P1  1  0.61880599  0.67156702  0.91681165  1
  P  P2  1  0.32816272  0.37917699  0.41642240  1
  O  O0  1  0.20567201  0.04664924  0.31138316  1
  O  O1  1  0.83851142  0.79012036  0.31190516  1
  O  O2  1  0.95282207  0.15221016  0.30881992  1
  O  O3  1  0.20843011  0.16052244  0.81135818  1
  O  O4  1  0.95574631  0.79669020  0.81198350  1
  O  O5  1  0.84758205  0.04654342  0.80902673  1
  O  O6  1  0.79275725  0.95386181  0.68806814  1
  O  O7  1  0.16108679  0.20737855  0.68923755  1
  O  O8  1  0.04393707  0.84070683  0.68899889  1
  O  O9  1  0.79840426  0.84867394  0.19138290  1
  O  O10  1  0.04458487  0.20581900  0.18724201  1
  O  O11  1  0.16180117  0.95545380  0.18908955  1
  O  O12  1  0.87633808  0.38139416  0.64534108  1
  O  O13  1  0.50795068  0.13013805  0.64411170  1
  O  O14  1  0.62238032  0.49394835  0.64439427  1
  O  O15  1  0.86927811  0.49196196  0.14359742  1
  O  O16  1  0.62618748  0.12069786  0.14261964  1
  O  O17  1  0.49944939  0.36711878  0.14566232  1
  O  O18  1  0.46579218  0.29148641  0.02253580  1
  O  O19  1  0.83030552  0.53228760  0.02077410  1
  O  O20  1  0.70778491  0.16699499  0.02675295  1
  O  O21  1  0.46396781  0.17675573  0.52172690  1
  O  O22  1  0.70825618  0.53414299  0.52154752  1
  O  O23  1  0.82310610  0.28231079  0.52486697  1
  O  O24  1  0.53243812  0.70157663  0.97427923  1
  O  O25  1  0.16818250  0.45598074  0.97742496  1
  O  O26  1  0.29580693  0.82735854  0.97807419  1
  O  O27  1  0.54029019  0.82888355  0.47753882  1
  O  O28  1  0.29997773  0.46171216  0.47591873  1
  O  O29  1  0.17192977  0.70658475  0.47741364  1
  O  O30  1  0.12895526  0.62879012  0.35403658  1
  O  O31  1  0.49661560  0.87083106  0.35559674  1
  O  O32  1  0.36615219  0.49813815  0.35826092  1
  O  O33  1  0.12720180  0.50301625  0.85572061  1
  O  O34  1  0.37141984  0.87100731  0.85430146  1
  O  O35  1  0.50277898  0.63212001  0.85775038  1
  O  O36  1  0.02973319  0.84467993  0.41200096  1
  O  O37  1  0.81751037  0.97046790  0.41150108  1
  O  O38  1  0.16401767  0.19242649  0.41227727  1
  O  O39  1  0.02825358  0.18053057  0.91144394  1
  O  O40  1  0.15599448  0.96970207  0.91265847  1
  O  O41  1  0.80649338  0.83459815  0.91235851  1
  O  O42  1  0.97508317  0.15705146  0.58901805  1
  O  O43  1  0.18476400  0.02827178  0.58821796  1
  O  O44  1  0.84343524  0.81524609  0.58762302  1
  O  O45  1  0.97425053  0.82072163  0.08804149  1
  O  O46  1  0.83636574  0.03201781  0.08833347  1
  O  O47  1  0.18342617  0.16095512  0.08763978  1
  O  O48  1  0.69324770  0.17534316  0.74500351  1
  O  O49  1  0.48397260  0.30671998  0.74465934  1
  O  O50  1  0.82247550  0.51790239  0.74556930  1
  O  O51  1  0.69371666  0.51766364  0.24463463  1
  O  O52  1  0.82332730  0.30497872  0.24365838  1
  O  O53  1  0.48583451  0.17538820  0.24406853  1
  O  O54  1  0.63701199  0.50326884  0.92078868  1
  O  O55  1  0.84840379  0.36389927  0.92275057  1
  O  O56  1  0.50918902  0.15582875  0.92258588  1
  O  O57  1  0.63104477  0.14855219  0.42199181  1
  O  O58  1  0.49635376  0.36194082  0.41962038  1
  O  O59  1  0.84360018  0.49133048  0.42156796  1
  O  O60  1  0.35978397  0.51403079  0.07756350  1
  O  O61  1  0.14893467  0.64347458  0.07805492  1
  O  O62  1  0.49755809  0.86114874  0.07681352  1
  O  O63  1  0.36136786  0.85227214  0.57805469  1
  O  O64  1  0.48911519  0.63823943  0.57734972  1
  O  O65  1  0.15203139  0.50927824  0.57649329  1
  O  O66  1  0.30828695  0.82459316  0.25456489  1
  O  O67  1  0.51542723  0.68974354  0.25715478  1
  O  O68  1  0.17733162  0.48123770  0.25561548  1
  O  O69  1  0.30998505  0.48493332  0.75715340  1
  O  O70  1  0.17571800  0.69366942  0.75452496  1
  O  O71  1  0.51789467  0.82182494  0.75619048  1
loop_
_geom_bond_atom_site_label_1
_geom_bond_atom_site_label_2
_geom_bond_distance
_geom_bond_site_symmetry_2
Na0 O52 2.338192 1_565
Na0 O67 2.373465 1_555
Na0 O53 2.456485 1_565
Na0 O66 2.461469 1_555
Na0 O31 2.538694 1_555
Na0 O16 2.569347 1_565
Na0 O9 2.706562 1_555
Na0 O2 2.736796 1_565
Na1 O68 2.335292 1_555
Na1 O53 2.372621 1_555
Na1 O67 2.449507 1_555
Na1 O51 2.467990 1_555
Na1 O17 2.501047 1_555
Na1 O32 2.613767 1_555
Na1 O0 2.770975 1_555
Na1 O10 2.798173 1_555
Na2 O51 2.352843 1_455
Na2 O66 2.357018 1_555
Na2 O52 2.474032 1_455
Na2 O68 2.479885 1_555
Na2 O30 2.514017 1_555
Na2 O15 2.590570 1_455
Na2 O1 2.765818 1_455
Na2 O11 2.787004 1_555
Na3 O50 2.329332 1_555
Na3 O71 2.335274 1_555
Na3 O69 2.444836 1_555
Na3 O49 2.464773 1_555
Na3 O14 2.543196 1_555
Na3 O35 2.584479 1_555
Na3 O6 2.773393 1_555
Na3 O4 2.805257 1_555
Na4 O48 2.347933 1_555
Na4 O69 2.378869 1_655
Na4 O70 2.466777 1_655
Na4 O50 2.481448 1_555
Na4 O12 2.539033 1_555
Na4 O33 2.551740 1_655
Na4 O5 2.745942 1_555
Na4 O7 2.766992 1_655
Na5 O49 2.341264 1_555
Na5 O70 2.355011 1_545
Na5 O48 2.452997 1_555
Na5 O71 2.490727 1_545
Na5 O34 2.515810 1_545
Na5 O13 2.566603 1_555
Na5 O3 2.752830 1_555
Na5 O8 2.808294 1_545
Na6 O43 2.333509 1_555
Na6 O64 2.337628 1_555
Na6 O42 2.453224 1_455
Na6 O65 2.456761 1_555
Na6 O7 2.548814 1_555
Na6 O28 2.574524 1_555
Na6 O21 2.767395 1_555
Na6 O14 2.790328 1_555
Na7 O44 2.335735 1_455
Na7 O65 2.376971 1_555
Na7 O43 2.470003 1_565
Na7 O63 2.470140 1_555
Na7 O8 2.558053 1_555
Na7 O29 2.558185 1_555
Na7 O12 2.772973 1_455
Na7 O22 2.821947 1_455
Na8 O42 2.348614 1_565
Na8 O63 2.354228 1_555
Na8 O44 2.469129 1_555
Na8 O64 2.483752 1_555
Na8 O6 2.535538 1_555
Na8 O27 2.563997 1_555
Na8 O23 2.709152 1_565
Na8 O13 2.782545 1_565
Na9 O47 2.354725 1_565
Na9 O62 2.366944 1_555
Na9 O45 2.441232 1_455
Na9 O61 2.453324 1_555
Na9 O26 2.549976 1_554
Na9 O11 2.555506 1_555
Na9 O18 2.771472 1_565
Na9 O16 2.828582 1_565
Na10 O46 2.338247 1_455
Na10 O61 2.361351 1_555
Na10 O47 2.445514 1_555
Na10 O60 2.455856 1_555
Na10 O10 2.508499 1_555
Na10 O25 2.552266 1_554
Na10 O15 2.752028 1_455
Na10 O20 2.789530 1_455
Na11 O40 2.307452 1_655
Na11 O55 2.327463 1_555
Na11 O41 2.476924 1_555
Na11 O54 2.495082 1_555
Na11 O19 2.527584 1_556
Na11 O4 2.550732 1_555
Na11 O33 2.792029 1_655
Na11 O26 2.828200 1_655
Na12 O39 2.329755 1_555
Na12 O54 2.353639 1_555
Na12 O56 2.413560 1_555
Na12 O40 2.479945 1_545
Na12 O18 2.554031 1_556
Na12 O3 2.571964 1_555
Na12 O25 2.759157 1_555
Na12 O35 2.851233 1_555
Na13 O57 2.296616 1_555
Na13 O36 2.305709 1_545
Na13 O38 2.470770 1_555
Na13 O58 2.486550 1_555
Na13 O0 2.554642 1_555
Na13 O21 2.572153 1_555
Na13 O29 2.798587 1_545
Na13 O31 2.808664 1_545
Na14 O37 2.333683 1_555
Na14 O58 2.346114 1_555
Na14 O59 2.403434 1_555
Na14 O36 2.487868 1_655
Na14 O22 2.528030 1_555
Na14 O1 2.548852 1_555
Na14 O27 2.767021 1_555
Na14 O32 2.856006 1_555
Na15 O37 2.381484 1_545
Na15 O42 2.407370 1_555
Na15 O38 2.414073 1_655
Na15 O36 2.439688 1_645
Na15 O44 2.448412 1_545
Na15 O43 2.482636 1_655
Na16 O45 2.398261 1_555
Na16 O41 2.410379 1_554
Na16 O46 2.410855 1_565
Na16 O39 2.419286 1_664
Na16 O40 2.466951 1_654
Na16 O47 2.490440 1_665
Na17 O56 2.367327 1_555
Na17 O48 2.391144 1_555
Na17 O55 2.393067 1_555
Na17 O50 2.461612 1_555
Na17 O49 2.483000 1_555
Na17 O54 2.530013 1_555
Na18 O59 2.359752 1_555
Na18 O57 2.374266 1_555
Na18 O52 2.410530 1_555
Na18 O51 2.487921 1_555
Na18 O53 2.495305 1_555
Na18 O58 2.501557 1_555
Na19 O60 2.359020 1_555
Na19 O67 2.449741 1_555
Na19 O62 2.455827 1_555
Na19 O66 2.466742 1_555
Na19 O68 2.473240 1_555
Na19 O61 2.476818 1_555
Na20 O70 2.413929 1_555
Na20 O64 2.429473 1_555
Na20 O63 2.439562 1_555
Na20 O71 2.447857 1_555
Na20 O69 2.460294 1_555
Na20 O65 2.460501 1_555
Ge0 O2 1.841382 1_565
Ge0 O1 1.862356 1_555
Ge0 O0 1.893534 1_665
Ge0 O37 1.905070 1_555
Ge0 O36 1.978186 1_655
Ge0 O38 2.054233 1_665
Ge1 O5 1.844046 1_455
Ge1 O3 1.860850 1_555
Ge1 O4 1.880961 1_445
Ge1 O39 1.900840 1_555
Ge1 O40 1.992814 1_545
Ge1 O41 2.038093 1_445
Ge2 O6 1.869966 1_545
Ge2 O8 1.873404 1_645
Ge2 O7 1.892670 1_655
Ge2 O42 1.936047 1_555
Ge2 O43 1.949774 1_655
Ge2 O44 1.970541 1_545
Ge3 O9 1.851618 1_455
Ge3 O11 1.866954 1_555
Ge3 O10 1.882885 1_565
Ge3 O45 1.913522 1_455
Ge3 O47 1.972935 1_565
Ge3 O46 2.053782 1_465
Ge4 O13 1.877378 1_555
Ge4 O12 1.879661 1_555
Ge4 O14 1.882035 1_555
Ge4 O49 1.935341 1_555
Ge4 O50 1.954741 1_555
Ge4 O48 1.960542 1_555
Ge5 O15 1.850249 1_555
Ge5 O17 1.855342 1_555
Ge5 O51 1.912374 1_555
Ge5 O53 1.932410 1_555
Ge5 O52 1.955089 1_555
Ge5 O16 2.000391 1_555
Ge6 O18 1.856546 1_556
Ge6 O19 1.861682 1_556
Ge6 O55 1.900143 1_555
Ge6 O20 1.900490 1_556
Ge6 O56 1.908138 1_555
Ge6 O54 2.122089 1_555
Ge7 O23 1.812604 1_555
Ge7 O22 1.880248 1_555
Ge7 O21 1.884913 1_555
Ge7 O59 1.902043 1_555
Ge7 O57 1.908887 1_555
Ge7 O58 2.183832 1_555
Ge8 O25 1.855502 1_554
Ge8 O26 1.862079 1_554
Ge8 O60 1.902647 1_555
Ge8 O24 1.906815 1_554
Ge8 O61 1.941268 1_555
Ge8 O62 2.062336 1_555
Ge9 O27 1.858893 1_555
Ge9 O29 1.863026 1_555
Ge9 O63 1.929916 1_555
Ge9 O65 1.935294 1_555
Ge9 O64 1.951808 1_555
Ge9 O28 1.953206 1_555
Ge10 O30 1.838089 1_555
Ge10 O31 1.877620 1_555
Ge10 O66 1.923123 1_555
Ge10 O67 1.935993 1_555
Ge10 O68 1.952514 1_555
Ge10 O32 1.953287 1_555
Ge11 O34 1.840590 1_555
Ge11 O33 1.874956 1_555
Ge11 O71 1.932709 1_555
Ge11 O70 1.935142 1_555
Ge11 O69 1.947518 1_555
Ge11 O35 1.966110 1_555
O0 Si0 1.639331 1_555
O1 Si1 1.639377 1_555
O2 Si2 1.627607 1_655
O3 Si3 1.633667 1_555
O4 Si4 1.637368 1_555
O5 Si5 1.624556 1_555
O6 Si5 1.644444 1_565
O7 Si3 1.638946 1_555
O8 Si4 1.638545 1_455
O9 Si1 1.626630 1_555
O10 Si2 1.641095 1_555
O11 Si0 1.634167 1_565
O12 Si6 1.641583 1_555
O13 Si7 1.638346 1_555
O14 Si8 1.638086 1_555
O15 Si9 1.645893 1_555
O16 P0 1.563771 1_555
O17 Si10 1.633903 1_555
O18 Si10 1.640773 1_555
O19 Si9 1.629741 1_555
O20 P0 1.549292 1_555
O21 Si7 1.638331 1_555
O22 Si8 1.636608 1_555
O23 Si6 1.624466 1_555
O24 P1 1.533972 1_555
O25 Si11 1.646684 1_555
O26 Si12 1.641209 1_555
O27 Si13 1.649775 1_555
O28 P2 1.547021 1_555
O29 Si14 1.642667 1_555
O30 Si14 1.630127 1_555
O31 Si13 1.647420 1_555
O32 P2 1.554562 1_555
O33 Si11 1.649877 1_555
O34 Si12 1.633300 1_555
O35 P1 1.561053 1_555
O36 Si14 1.664303 1_555
O37 Si13 1.637890 1_555
O38 P2 1.545343 1_555
O39 Si11 1.636385 1_555
O40 Si12 1.664424 1_555
O41 P1 1.545451 1_555
O42 Si6 1.639425 1_555
O43 Si7 1.642660 1_555
O44 Si8 1.642281 1_555
O45 Si9 1.638620 1_555
O46 P0 1.539472 1_555
O47 Si10 1.665739 1_555
O48 Si5 1.643373 1_555
O49 Si3 1.640638 1_555
O50 Si4 1.641649 1_555
O51 Si1 1.645171 1_555
O52 Si2 1.647984 1_655
O53 Si0 1.644883 1_555
O54 P1 1.561128 1_555
O55 Si11 1.640062 1_655
O56 Si12 1.642399 1_545
O57 Si13 1.640640 1_545
O58 P2 1.554163 1_555
O59 Si14 1.642082 1_655
O60 Si10 1.643693 1_555
O61 Si9 1.672630 1_455
O62 P0 1.543714 1_565
O63 Si7 1.647211 1_565
O64 Si8 1.647081 1_555
O65 Si6 1.643643 1_455
O66 Si0 1.643406 1_565
O67 Si1 1.645999 1_555
O68 Si2 1.647168 1_555
O69 Si3 1.646349 1_555
O70 Si4 1.646973 1_455
O71 Si5 1.647599 1_565
