# generated using pymatgen
data_MgTi6(N2O3)2
_symmetry_space_group_name_H-M   'P 1'
_cell_length_a   3.94714500
_cell_length_b   5.24949046
_cell_length_c   9.90726899
_cell_angle_alpha   89.77529192
_cell_angle_beta   90.00000000
_cell_angle_gamma   112.08335954
_symmetry_Int_Tables_number   1
_chemical_formula_structural   MgTi6(N2O3)2
_chemical_formula_sum   'Mg1 Ti6 N4 O6'
_cell_volume   190.22182177
_cell_formula_units_Z   1
loop_
 _symmetry_equiv_pos_site_id
 _symmetry_equiv_pos_as_xyz
  1  'x, y, z'
loop_
 _atom_site_type_symbol
 _atom_site_label
 _atom_site_symmetry_multiplicity
 _atom_site_fract_x
 _atom_site_fract_y
 _atom_site_fract_z
 _atom_site_occupancy
  Mg  Mg0  1  0.50379100  0.00758100  0.24268300  1
  Ti  Ti0  1  0.15817200  0.31634400  0.56439800  1
  Ti  Ti1  1  0.14893800  0.29787800  0.93294300  1
  Ti  Ti2  1  0.21081100  0.42162000  0.25125900  1
  Ti  Ti3  1  0.79369700  0.58739300  0.75628500  1
  Ti  Ti4  1  0.85427200  0.70854400  0.04814900  1
  Ti  Ti5  1  0.86005900  0.72011600  0.45523600  1
  N  N0  1  0.32277200  0.64554200  0.41731300  1
  N  N1  1  0.33398500  0.66796900  0.09342800  1
  N  N2  1  0.23601100  0.47202000  0.74592600  1
  N  N3  1  0.69166600  0.38333000  0.93276400  1
  O  O0  1  0.04709800  0.09419600  0.12268200  1
  O  O1  1  0.04044500  0.08089000  0.37103800  1
  O  O2  1  0.95290100  0.90580100  0.61738900  1
  O  O3  1  0.95444400  0.90889000  0.87979900  1
  O  O4  1  0.67584200  0.35168300  0.56852500  1
  O  O5  1  0.71510000  0.43020200  0.25018400  1
loop_
_geom_bond_atom_site_label_1
_geom_bond_atom_site_label_2
_geom_bond_distance
_geom_bond_site_symmetry_2
Mg0 O5 2.057445 1_555
Mg0 N1 2.221793 1_545
Mg0 O0 2.341303 1_655
Mg0 O0 2.341306 1_555
Mg0 O1 2.375515 1_655
Mg0 O1 2.375518 1_555
Mg0 N0 2.463520 1_545
N0 Ti2 1.976893 1_555
N0 Ti5 2.041787 1_555
N0 Ti5 2.041787 1_455
N0 Ti0 2.160558 1_555
N1 Ti2 1.966016 1_555
N1 Ti4 2.033328 1_555
N1 Ti4 2.033331 1_455
N1 Ti1 2.406901 1_554
N2 Ti0 1.954326 1_555
N2 Ti1 2.034023 1_555
N2 Ti3 2.054499 1_555
N2 Ti3 2.054503 1_455
N3 Ti4 1.955686 1_556
N3 Ti3 2.006896 1_555
N3 Ti1 2.016863 1_655
N3 Ti1 2.016878 1_555
O0 Ti4 2.018960 1_445
O0 Ti2 2.043672 1_555
O0 Ti1 2.121208 1_554
O1 Ti5 1.939914 1_445
O1 Ti2 2.034372 1_555
O1 Ti0 2.236104 1_555
O2 Ti5 1.846334 1_555
O2 Ti0 2.062740 1_665
O2 Ti3 2.067489 1_555
O3 Ti4 1.928175 1_556
O3 Ti1 1.966217 1_665
O3 Ti3 1.989808 1_555
O4 Ti0 1.981480 1_655
O4 Ti0 1.981484 1_555
O4 Ti5 2.110614 1_555
O4 Ti3 2.189294 1_555
O5 Ti2 1.974034 1_555
O5 Ti2 1.974050 1_655
O5 Ti4 2.411790 1_555
O5 Ti5 2.477917 1_555
