# generated using pymatgen
data_MgFe4(HO2)4
_symmetry_space_group_name_H-M   'P 1'
_cell_length_a   8.05625978
_cell_length_b   8.05625978
_cell_length_c   8.24764952
_cell_angle_alpha   96.56113908
_cell_angle_beta   87.58213964
_cell_angle_gamma   157.85174480
_symmetry_Int_Tables_number   1
_chemical_formula_structural   MgFe4(HO2)4
_chemical_formula_sum   'Mg1 Fe4 H4 O8'
_cell_volume   197.57277905
_cell_formula_units_Z   1
loop_
 _symmetry_equiv_pos_site_id
 _symmetry_equiv_pos_as_xyz
  1  'x, y, z'
loop_
 _atom_site_type_symbol
 _atom_site_label
 _atom_site_symmetry_multiplicity
 _atom_site_fract_x
 _atom_site_fract_y
 _atom_site_fract_z
 _atom_site_occupancy
  Mg  Mg0  1  0.56115900  0.06115900  0.50000000  1
  Fe  Fe0  1  0.30818100  0.80011400  0.17590800  1
  Fe  Fe1  1  0.62420600  0.13227300  0.82409200  1
  Fe  Fe2  1  0.19476900  0.38339800  0.48944300  1
  Fe  Fe3  1  0.89395500  0.70532700  0.51055700  1
  H  H0  1  0.04417200  0.79806100  0.92925200  1
  H  H1  1  0.86881000  0.11492100  0.07074800  1
  H  H2  1  0.21877200  0.13015200  0.25815300  1
  H  H3  1  0.87199800  0.96061800  0.74184700  1
  O  O0  1  0.11224800  0.74967200  0.95911900  1
  O  O1  1  0.79055300  0.15312900  0.04088100  1
  O  O2  1  0.26525000  0.20064100  0.37763300  1
  O  O3  1  0.82300800  0.88761700  0.62236700  1
  O  O4  1  0.58881600  0.85970400  0.36593200  1
  O  O5  1  0.49377300  0.22288500  0.63406800  1
  O  O6  1  0.16966100  0.56860300  0.64793500  1
  O  O7  1  0.92066800  0.52172600  0.35206500  1
loop_
_geom_bond_atom_site_label_1
_geom_bond_atom_site_label_2
_geom_bond_distance
_geom_bond_site_symmetry_2
Mg0 O5 2.036009 1_555
Mg0 O4 2.036009 1_545
Mg0 O7 2.115156 1_555
Mg0 O6 2.115156 1_655
Mg0 O7 2.186386 1_445
Mg0 O6 2.186386 1_545
Fe0 O7 2.068572 1_455
Fe0 O1 2.077483 1_565
Fe0 O1 2.144602 1_455
Fe0 O0 2.176590 1_554
Fe0 O7 2.406615 1_565
Fe0 O4 2.432018 1_555
Fe1 O6 2.068572 1_545
Fe1 O0 2.077483 1_655
Fe1 O0 2.144602 1_545
Fe1 O1 2.176590 1_556
Fe1 O6 2.406615 1_655
Fe1 O5 2.432019 1_555
Fe2 O4 1.973581 1_555
Fe2 O4 1.988415 1_445
Fe2 O6 2.016666 1_555
Fe2 O2 2.129501 1_555
Fe2 O3 2.164424 1_555
Fe2 O3 2.165455 1_445
Fe3 O5 1.973585 1_665
Fe3 O5 1.988416 1_555
Fe3 O7 2.016672 1_555
Fe3 O3 2.129494 1_555
Fe3 O2 2.164419 1_665
Fe3 O2 2.165452 1_555
H0 O0 0.970993 1_555
H1 O1 0.970993 1_555
H2 O2 0.971142 1_555
H3 O3 0.971142 1_555
