# generated using pymatgen
data_CeCuSi
_symmetry_space_group_name_H-M   'P 1'
_cell_length_a   4.17310472
_cell_length_b   4.17310484
_cell_length_c   8.13941776
_cell_angle_alpha   90.00000000
_cell_angle_beta   90.00000000
_cell_angle_gamma   119.99999066
_symmetry_Int_Tables_number   1
_chemical_formula_structural   CeCuSi
_chemical_formula_sum   'Ce2 Cu2 Si2'
_cell_volume   122.75596104
_cell_formula_units_Z   2
loop_
 _symmetry_equiv_pos_site_id
 _symmetry_equiv_pos_as_xyz
  1  'x, y, z'
loop_
 _atom_site_type_symbol
 _atom_site_label
 _atom_site_symmetry_multiplicity
 _atom_site_fract_x
 _atom_site_fract_y
 _atom_site_fract_z
 _atom_site_occupancy
  Ce  Ce0  1  -0.00000000  0.00000000  0.50000000  1
  Ce  Ce1  1  -0.00000000  0.00000000  -0.00000000  1
  Cu  Cu0  1  0.33333300  0.66666700  0.25017598  1
  Cu  Cu1  1  0.66666700  0.33333300  0.74982402  1
  Si  Si0  1  0.66666700  0.33333300  0.24997218  1
  Si  Si1  1  0.33333300  0.66666700  0.75002782  1
loop_
_geom_bond_atom_site_label_1
_geom_bond_atom_site_label_2
_geom_bond_distance
_geom_bond_site_symmetry_2
Ce0 Cu1 3.152733 1_455
Ce0 Cu0 3.152733 1_545
Ce0 Cu0 3.152736 1_445
Ce0 Cu1 3.152736 1_555
Ce0 Cu0 3.152736 1_555
Ce0 Cu1 3.152736 1_445
Ce0 Si0 3.153804 1_455
Ce0 Si1 3.153804 1_545
Ce0 Si1 3.153806 1_445
Ce0 Si0 3.153806 1_555
Ce0 Si0 3.153807 1_445
Ce0 Si1 3.153807 1_555
Ce1 Si0 3.153511 1_455
Ce1 Si1 3.153511 1_544
Ce1 Si0 3.153514 1_555
Ce1 Si1 3.153514 1_444
Ce1 Si0 3.153514 1_445
Ce1 Si1 3.153514 1_554
Ce1 Cu0 3.154582 1_545
Ce1 Cu1 3.154582 1_454
Ce1 Cu1 3.154585 1_554
Ce1 Cu0 3.154585 1_445
Ce1 Cu1 3.154585 1_444
Ce1 Cu0 3.154585 1_555
Cu0 Si0 2.409342 1_455
Cu0 Si0 2.409342 1_565
Cu0 Si0 2.409348 1_555
Cu1 Si1 2.409342 1_655
Cu1 Si1 2.409342 1_545
Cu1 Si1 2.409348 1_555
