# generated using pymatgen
data_Na10Si9Sn8(SO16)3
_symmetry_space_group_name_H-M   'P 1'
_cell_length_a   18.03019429
_cell_length_b   9.00383356
_cell_length_c   22.69769606
_cell_angle_alpha   90.14546366
_cell_angle_beta   90.15123407
_cell_angle_gamma   119.93225673
_symmetry_Int_Tables_number   1
_chemical_formula_structural   Na10Si9Sn8(SO16)3
_chemical_formula_sum   'Na30 Si27 Sn24 S9 O144'
_cell_volume   3193.23232667
_cell_formula_units_Z   3
loop_
 _symmetry_equiv_pos_site_id
 _symmetry_equiv_pos_as_xyz
  1  'x, y, z'
loop_
 _atom_site_type_symbol
 _atom_site_label
 _atom_site_symmetry_multiplicity
 _atom_site_fract_x
 _atom_site_fract_y
 _atom_site_fract_z
 _atom_site_occupancy
  Na  Na0  1  0.32226620  0.00145988  0.24877803  1
  Na  Na1  1  0.82242693  0.00173378  0.24935502  1
  Na  Na2  1  0.18340960  0.98768459  0.74647154  1
  Na  Na3  1  0.68262499  0.99238544  0.74538930  1
  Na  Na4  1  0.01736799  0.70498731  0.57949774  1
  Na  Na5  1  0.51710571  0.70528687  0.57923140  1
  Na  Na6  1  0.01731331  0.32815353  0.07951862  1
  Na  Na7  1  0.51602523  0.32611250  0.07977846  1
  Na  Na8  1  0.48384236  0.66577481  0.91302172  1
  Na  Na9  1  0.34841563  0.03036214  0.91570963  1
  Na  Na10  1  0.85149222  0.04335866  0.91225438  1
  Na  Na11  1  0.16534099  0.30541549  0.92101970  1
  Na  Na12  1  0.48492761  0.30418784  0.41336306  1
  Na  Na13  1  0.98506615  0.30447249  0.41336900  1
  Na  Na14  1  0.16617762  0.03110243  0.42031142  1
  Na  Na15  1  0.66617637  0.03119067  0.42025467  1
  Na  Na16  1  0.34892444  0.66675315  0.41597774  1
  Na  Na17  1  0.84906120  0.66674101  0.41593831  1
  Na  Na18  1  0.00034929  0.00123580  0.50148147  1
  Na  Na19  1  0.50006374  0.00087499  0.50138603  1
  Na  Na20  1  0.00764658  0.99944499  0.00223517  1
  Na  Na21  1  0.50598337  0.01114060  0.99855500  1
  Na  Na22  1  0.34327786  0.34193163  0.83189988  1
  Na  Na23  1  0.84737987  0.34948854  0.83245576  1
  Na  Na24  1  0.33986048  0.35644189  0.33130442  1
  Na  Na25  1  0.83984355  0.35651696  0.33124161  1
  Na  Na26  1  0.17437631  0.65618900  0.16603139  1
  Na  Na27  1  0.67388641  0.65398989  0.16785081  1
  Na  Na28  1  0.17981093  0.67854195  0.66682353  1
  Na  Na29  1  0.67929645  0.67635337  0.66500953  1
  Si  Si0  1  0.35368086  0.70486256  0.25014995  1
  Si  Si1  1  0.85347371  0.70427653  0.25032780  1
  Si  Si2  1  0.00118147  0.30302377  0.24954876  1
  Si  Si3  1  0.50119220  0.30321886  0.24960661  1
  Si  Si4  1  0.99926823  0.69950478  0.75060217  1
  Si  Si5  1  0.49783942  0.70108151  0.75012591  1
  Si  Si6  1  0.35344866  0.00000350  0.75061861  1
  Si  Si7  1  0.85329593  0.99864065  0.75124698  1
  Si  Si8  1  0.18495115  0.03939431  0.58500026  1
  Si  Si9  1  0.68518190  0.03985468  0.58523365  1
  Si  Si10  1  0.33000349  0.62119913  0.58332560  1
  Si  Si11  1  0.82975926  0.62061836  0.58337354  1
  Si  Si12  1  0.32938434  0.03712007  0.08437104  1
  Si  Si13  1  0.83074048  0.03590635  0.08459500  1
  Si  Si14  1  0.18559943  0.33201230  0.08346725  1
  Si  Si15  1  0.68703181  0.33205252  0.08356821  1
  Si  Si16  1  0.31190415  0.66386383  0.91575566  1
  Si  Si17  1  0.01971014  0.37956029  0.91760017  1
  Si  Si18  1  0.52334694  0.37628690  0.91846623  1
  Si  Si19  1  0.16216301  0.95261630  0.91659038  1
  Si  Si20  1  0.66679164  0.96064074  0.91628096  1
  Si  Si21  1  0.31199457  0.95960975  0.41449765  1
  Si  Si22  1  0.81202966  0.95975362  0.41451667  1
  Si  Si23  1  0.16551362  0.37581315  0.41739557  1
  Si  Si24  1  0.66552919  0.37568962  0.41737893  1
  Si  Si25  1  0.02272390  0.66598972  0.41799393  1
  Si  Si26  1  0.52265796  0.66601868  0.41798692  1
  Sn  Sn0  1  0.99587584  0.99734015  0.35172660  1
  Sn  Sn1  1  0.49591528  0.99718174  0.35164261  1
  Sn  Sn2  1  0.99816956  0.99694813  0.85128342  1
  Sn  Sn3  1  0.49641208  0.99681851  0.85353666  1
  Sn  Sn4  1  0.99445086  0.97951805  0.64829898  1
  Sn  Sn5  1  0.49441999  0.98325372  0.64774898  1
  Sn  Sn6  1  0.99712174  0.00956988  0.14803914  1
  Sn  Sn7  1  0.49670439  0.01117296  0.14729780  1
  Sn  Sn8  1  0.33371232  0.33258849  0.68607055  1
  Sn  Sn9  1  0.83411516  0.33309242  0.68640582  1
  Sn  Sn10  1  0.33158964  0.33722635  0.18585943  1
  Sn  Sn11  1  0.83191160  0.33742449  0.18567879  1
  Sn  Sn12  1  0.32778182  0.32266065  0.98015455  1
  Sn  Sn13  1  0.82903301  0.32047782  0.98225921  1
  Sn  Sn14  1  0.32885636  0.33233680  0.48143835  1
  Sn  Sn15  1  0.82910606  0.33253894  0.48148161  1
  Sn  Sn16  1  0.17258887  0.67139087  0.01804909  1
  Sn  Sn17  1  0.66812161  0.66746572  0.02032599  1
  Sn  Sn18  1  0.17332509  0.67510016  0.51869362  1
  Sn  Sn19  1  0.67329017  0.67523682  0.51849237  1
  Sn  Sn20  1  0.16716796  0.65623311  0.31470636  1
  Sn  Sn21  1  0.66717700  0.65640484  0.31483781  1
  Sn  Sn22  1  0.16674518  0.67005334  0.81613752  1
  Sn  Sn23  1  0.66372392  0.67322938  0.81320277  1
  S  S0  1  0.14460441  0.99854735  0.25008606  1
  S  S1  1  0.64458772  -0.00110431  0.24983465  1
  S  S2  1  0.14479332  0.29371640  0.74910886  1
  S  S3  1  0.64433450  0.29218327  0.75036883  1
  S  S4  1  0.48069952  0.33080368  0.58299185  1
  S  S5  1  0.98056925  0.33054324  0.58315120  1
  S  S6  1  0.48010447  0.63015715  0.08351425  1
  S  S7  1  0.97873365  0.62690232  0.08292865  1
  S  S8  1  0.81216645  0.66287546  0.91617038  1
  O  O0  1  0.10688857  0.02181867  0.30514398  1
  O  O1  1  0.60697986  0.02196018  0.30499100  1
  O  O2  1  0.40844437  0.78121099  0.31168698  1
  O  O3  1  0.90834646  0.78154019  0.31175085  1
  O  O4  1  0.48297832  0.18017743  0.30795388  1
  O  O5  1  0.98260467  0.17996753  0.30800275  1
  O  O6  1  0.10747344  0.19137151  0.80431911  1
  O  O7  1  0.60509665  0.18406659  0.80305178  1
  O  O8  1  0.48844507  0.79156256  0.80980312  1
  O  O9  1  0.98423201  0.79409260  0.80725775  1
  O  O10  1  0.41001947  0.03733891  0.81090202  1
  O  O11  1  0.90728061  0.03122830  0.81289657  1
  O  O12  1  0.40040784  0.98138412  0.69205619  1
  O  O13  1  0.90094309  0.97988623  0.69343087  1
  O  O14  1  0.09127476  0.20744565  0.69674444  1
  O  O15  1  0.59329067  0.21779679  0.69624179  1
  O  O16  1  0.02309781  0.82164026  0.69142308  1
  O  O17  1  0.52218473  0.82611291  0.69210846  1
  O  O18  1  0.40114119  0.83256783  0.19437235  1
  O  O19  1  0.90065661  0.83195331  0.19449917  1
  O  O20  1  0.01738736  0.22095358  0.18985755  1
  O  O21  1  0.51800211  0.22242558  0.18978567  1
  O  O22  1  0.09230608  0.97744659  0.19729466  1
  O  O23  1  0.59210749  0.97788033  0.19705448  1
  O  O24  1  0.43978193  0.35947378  0.63485399  1
  O  O25  1  0.93938648  0.35897360  0.63500712  1
  O  O26  1  0.24260681  0.12281052  0.64430145  1
  O  O27  1  0.74266844  0.12268956  0.64487474  1
  O  O28  1  0.32086346  0.50567639  0.64050916  1
  O  O29  1  0.82040002  0.50513021  0.64063743  1
  O  O30  1  0.44004143  0.51870334  0.13518762  1
  O  O31  1  0.94036210  0.51803860  0.13574879  1
  O  O32  1  0.32071884  0.12828380  0.14473282  1
  O  O33  1  0.81882972  0.12457635  0.14425520  1
  O  O34  1  0.24733322  0.36881578  0.14008450  1
  O  O35  1  0.74663607  0.36947197  0.14146994  1
  O  O36  1  0.22536126  0.30738615  0.02173170  1
  O  O37  1  0.73084301  0.31080238  0.02382825  1
  O  O38  1  0.43046191  0.55695226  0.02830774  1
  O  O39  1  0.92566233  0.55171901  0.02927630  1
  O  O40  1  0.35401831  0.16501556  0.02658694  1
  O  O41  1  0.85474411  0.15938119  0.02619458  1
  O  O42  1  0.22700707  0.14534741  0.52405817  1
  O  O43  1  0.72739177  0.14589872  0.52438002  1
  O  O44  1  0.35408358  0.54751122  0.52388240  1
  O  O45  1  0.85396356  0.54763025  0.52389934  1
  O  O46  1  0.42992308  0.30283232  0.52787525  1
  O  O47  1  0.92969724  0.30205286  0.52806694  1
  O  O48  1  0.27526910  0.71433595  0.97303078  1
  O  O49  1  0.77422039  0.69534667  0.96941909  1
  O  O50  1  0.07840915  0.45170326  0.97757310  1
  O  O51  1  0.57710013  0.45675742  0.97959977  1
  O  O52  1  0.14555547  0.83406836  0.97382715  1
  O  O53  1  0.64773482  0.83114466  0.97196256  1
  O  O54  1  0.27381330  0.83252588  0.47058793  1
  O  O55  1  0.77379899  0.83260722  0.47059526  1
  O  O56  1  0.13980752  0.45297630  0.47371270  1
  O  O57  1  0.63983540  0.45303295  0.47369442  1
  O  O58  1  0.07946803  0.70587551  0.47862882  1
  O  O59  1  0.57947716  0.70618045  0.47865944  1
  O  O60  1  0.06467540  0.62360727  0.36182786  1
  O  O61  1  0.56470465  0.62362717  0.36188435  1
  O  O62  1  0.25176381  0.88714207  0.35518481  1
  O  O63  1  0.75182452  0.88729198  0.35520577  1
  O  O64  1  0.19314907  0.50026798  0.36028036  1
  O  O65  1  0.69321035  0.50031252  0.36030244  1
  O  O66  1  0.06331864  0.48856801  0.85894632  1
  O  O67  1  0.56723299  0.50295891  0.86197619  1
  O  O68  1  0.18563368  0.88518839  0.85649728  1
  O  O69  1  0.69213981  0.88811900  0.85726592  1
  O  O70  1  0.24798892  0.61232542  0.85902926  1
  O  O71  1  0.76032100  0.63507721  0.86258320  1
  O  O72  1  0.01388331  0.83902731  0.41070153  1
  O  O73  1  0.51396031  0.83914505  0.41070074  1
  O  O74  1  0.40805987  0.98171106  0.41150617  1
  O  O75  1  0.90804404  0.98168024  0.41157377  1
  O  O76  1  0.08215019  0.18244215  0.40898547  1
  O  O77  1  0.58218245  0.18239257  0.40897474  1
  O  O78  1  0.00650016  0.18100779  0.91186218  1
  O  O79  1  0.50845609  0.18291511  0.91218563  1
  O  O80  1  0.08149350  0.99093958  0.91096930  1
  O  O81  1  0.57943163  0.97046959  0.91001560  1
  O  O82  1  0.40712421  0.83344003  0.91138420  1
  O  O83  1  0.89722265  0.82427158  0.91233550  1
  O  O84  1  0.49204131  0.18030490  0.58905937  1
  O  O85  1  0.99155275  0.17902172  0.58966303  1
  O  O86  1  0.08932975  0.02508267  0.58888058  1
  O  O87  1  0.58975650  0.02599975  0.58918901  1
  O  O88  1  0.41828172  0.81147119  0.58609876  1
  O  O89  1  0.91778596  0.81128002  0.58630278  1
  O  O90  1  0.49189413  0.80361138  0.09039971  1
  O  O91  1  0.98999259  0.80055247  0.08986712  1
  O  O92  1  0.41811375  0.02389037  0.08589300  1
  O  O93  1  0.91847826  0.02071075  0.08642119  1
  O  O94  1  0.09061020  0.15409740  0.08871893  1
  O  O95  1  0.59135824  0.15641599  0.08823170  1
  O  O96  1  0.33588085  0.16436199  0.74560158  1
  O  O97  1  0.83464343  0.16083585  0.74614554  1
  O  O98  1  0.22931696  0.30186718  0.74563527  1
  O  O99  1  0.72962107  0.30247166  0.74659507  1
  O  O100  1  0.41202804  0.51341655  0.74483649  1
  O  O101  1  0.91254141  0.51198719  0.74509401  1
  O  O102  1  0.34164872  0.51338687  0.24500949  1
  O  O103  1  0.84163389  0.51310602  0.24525363  1
  O  O104  1  0.40874459  0.30122518  0.24497525  1
  O  O105  1  0.90855799  0.30045287  0.24467720  1
  O  O106  1  0.23168955  0.15288542  0.24700668  1
  O  O107  1  0.73169499  0.15286167  0.24679723  1
  O  O108  1  0.32531350  0.49687007  0.92288479  1
  O  O109  1  0.82493160  0.51445991  0.92237934  1
  O  O110  1  0.42835392  0.36320074  0.92281870  1
  O  O111  1  0.92302889  0.35709489  0.92321756  1
  O  O112  1  0.24959503  0.14434806  0.92063471  1
  O  O113  1  0.75375844  0.14846833  0.92087109  1
  O  O114  1  0.32460843  0.15217216  0.42307256  1
  O  O115  1  0.82448429  0.15210448  0.42311865  1
  O  O116  1  0.25010194  0.35283279  0.42234362  1
  O  O117  1  0.75011083  0.35271603  0.42244319  1
  O  O118  1  0.42691458  0.49386785  0.42337960  1
  O  O119  1  0.92690479  0.49384355  0.42336565  1
  O  O120  1  0.16645201  0.49346106  0.07988998  1
  O  O121  1  0.66833961  0.49479394  0.07948071  1
  O  O122  1  0.06302410  0.63633711  0.07776485  1
  O  O123  1  0.56513282  0.63988278  0.07999867  1
  O  O124  1  0.24238209  0.85149200  0.08062299  1
  O  O125  1  0.74470629  0.84800336  0.07861930  1
  O  O126  1  0.16752288  0.84068844  0.58083225  1
  O  O127  1  0.66757770  0.84086658  0.58102665  1
  O  O128  1  0.24318010  0.63376175  0.57990933  1
  O  O129  1  0.74318824  0.63398498  0.57983544  1
  O  O130  1  0.06436658  0.49025409  0.57918101  1
  O  O131  1  0.56477171  0.49128428  0.57907757  1
  O  O132  1  0.15522102  0.84576713  0.25293748  1
  O  O133  1  0.65518493  0.84588755  0.25266019  1
  O  O134  1  0.26272773  0.70797935  0.25337765  1
  O  O135  1  0.76264303  0.70807234  0.25347005  1
  O  O136  1  0.08450535  0.49391447  0.25338835  1
  O  O137  1  0.58457115  0.49419827  0.25342712  1
  O  O138  1  0.15476084  0.46486781  0.75250898  1
  O  O139  1  0.65696641  0.46678143  0.75696082  1
  O  O140  1  0.08678122  0.68677995  0.75517331  1
  O  O141  1  0.58628157  0.68786838  0.75214675  1
  O  O142  1  0.25810714  0.82669291  0.75398174  1
  O  O143  1  0.75817353  0.82170903  0.75433870  1
loop_
_geom_bond_atom_site_label_1
_geom_bond_atom_site_label_2
_geom_bond_distance
_geom_bond_site_symmetry_2
Na0 O134 2.305858 1_545
Na0 O104 2.350647 1_555
Na0 O106 2.597988 1_555
Na0 O132 2.614199 1_545
Na0 O32 2.631909 1_555
Na0 O62 2.689157 1_545
Na0 O18 2.831564 1_545
Na0 O4 2.846958 1_555
Na1 O135 2.306363 1_545
Na1 O105 2.343290 1_555
Na1 O107 2.598567 1_555
Na1 O133 2.616572 1_545
Na1 O33 2.646215 1_555
Na1 O63 2.678482 1_545
Na1 O19 2.833373 1_545
Na1 O5 2.834038 1_555
Na2 O140 2.389277 1_555
Na2 O96 2.392626 1_565
Na2 O142 2.427434 1_555
Na2 O98 2.520222 1_565
Na2 O26 2.593994 1_565
Na2 O68 2.671712 1_555
Na2 O16 2.794638 1_555
Na3 O97 2.379980 1_565
Na3 O141 2.410207 1_555
Na3 O99 2.480400 1_565
Na3 O143 2.519409 1_555
Na3 O27 2.551979 1_565
Na3 O69 2.744004 1_555
Na3 O17 2.778921 1_555
Na4 O126 2.349818 1_555
Na4 O89 2.424684 1_455
Na4 O130 2.468041 1_555
Na4 O86 2.509753 1_565
Na4 O58 2.549549 1_555
Na4 O16 2.728462 1_555
Na4 O45 2.843532 1_455
Na4 O25 2.988014 1_455
Na5 O127 2.355097 1_555
Na5 O88 2.411219 1_555
Na5 O131 2.470612 1_555
Na5 O87 2.515106 1_565
Na5 O59 2.545642 1_555
Na5 O17 2.764270 1_555
Na5 O44 2.835558 1_555
Na5 O24 2.988244 1_555
Na6 O120 2.334916 1_555
Na6 O93 2.437976 1_455
Na6 O122 2.469620 1_555
Na6 O94 2.512612 1_555
Na6 O50 2.570764 1_554
Na6 O20 2.686521 1_555
Na6 O41 2.809383 1_455
Na6 O31 2.973634 1_455
Na7 O121 2.384618 1_555
Na7 O92 2.397851 1_555
Na7 O123 2.503794 1_555
Na7 O95 2.507475 1_555
Na7 O51 2.549650 1_554
Na7 O21 2.674318 1_555
Na7 O40 2.799671 1_555
Na7 O30 2.972269 1_555
Na8 O110 2.399286 1_555
Na8 O81 2.405085 1_555
Na8 O108 2.489972 1_555
Na8 O82 2.505523 1_555
Na8 O8 2.588269 1_555
Na8 O38 2.796220 1_556
Na8 O67 2.819986 1_555
Na8 O53 2.883921 1_555
Na9 O112 2.462887 1_555
Na9 O82 2.479210 1_545
Na9 O79 2.503184 1_555
Na9 O110 2.601956 1_555
Na9 O10 2.615696 1_555
Na9 O40 2.770312 1_556
Na9 O48 2.794909 1_545
Na9 O68 2.875892 1_545
Na10 O113 2.388360 1_555
Na10 O78 2.427059 1_655
Na10 O111 2.462498 1_555
Na10 O83 2.488827 1_545
Na10 O11 2.495991 1_555
Na10 O41 2.776222 1_556
Na10 O69 2.780466 1_545
Na11 O80 2.465346 1_545
Na11 O78 2.508836 1_555
Na11 O108 2.515917 1_555
Na11 O36 2.522791 1_556
Na11 O112 2.570894 1_555
Na11 O70 2.785304 1_555
Na11 O50 2.810986 1_555
Na11 O6 2.839322 1_555
Na12 O118 2.417546 1_555
Na12 O77 2.491332 1_555
Na12 O114 2.516753 1_555
Na12 O74 2.517196 1_545
Na12 O4 2.630412 1_555
Na12 O61 2.757532 1_555
Na12 O57 2.776194 1_555
Na12 O46 2.782272 1_555
Na13 O119 2.417041 1_555
Na13 O76 2.490159 1_655
Na13 O75 2.519606 1_545
Na13 O115 2.520901 1_555
Na13 O5 2.629534 1_555
Na13 O60 2.755984 1_655
Na13 O56 2.774103 1_655
Na13 O47 2.786932 1_555
Na14 O72 2.415420 1_545
Na14 O114 2.498647 1_555
Na14 O76 2.505617 1_555
Na14 O116 2.511548 1_555
Na14 O42 2.579601 1_555
Na14 O0 2.806756 1_555
Na14 O58 2.869337 1_545
Na14 O62 2.871403 1_545
Na15 O73 2.414173 1_545
Na15 O115 2.496835 1_555
Na15 O77 2.503932 1_555
Na15 O117 2.510031 1_555
Na15 O43 2.589754 1_555
Na15 O1 2.808260 1_555
Na15 O59 2.868791 1_545
Na15 O63 2.870950 1_545
Na16 O116 2.482383 1_555
Na16 O74 2.484685 1_555
Na16 O118 2.571605 1_555
Na16 O73 2.582935 1_555
Na16 O2 2.596011 1_555
Na16 O44 2.696605 1_555
Na16 O64 2.739317 1_555
Na16 O54 2.759526 1_555
Na17 O117 2.483665 1_555
Na17 O75 2.484808 1_555
Na17 O119 2.569497 1_555
Na17 O72 2.579579 1_655
Na17 O3 2.593548 1_555
Na17 O45 2.696212 1_555
Na17 O65 2.739684 1_555
Na17 O55 2.762739 1_555
Na18 O86 2.488485 1_555
Na18 O89 2.517707 1_445
Na18 O75 2.579359 1_445
Na18 O72 2.604089 1_545
Na18 O85 2.613890 1_455
Na18 O76 2.622449 1_555
Na19 O87 2.500760 1_555
Na19 O88 2.510333 1_545
Na19 O74 2.576455 1_545
Na19 O73 2.602244 1_545
Na19 O84 2.609479 1_555
Na19 O77 2.623328 1_555
Na20 O94 2.433473 1_565
Na20 O80 2.487050 1_554
Na20 O93 2.567930 1_465
Na20 O91 2.591744 1_455
Na20 O78 2.632690 1_564
Na20 O83 2.728321 1_454
Na21 O95 2.486791 1_556
Na21 O79 2.486806 1_555
Na21 O81 2.533921 1_545
Na21 O92 2.578745 1_556
Na21 O82 2.602134 1_545
Na21 O90 2.729604 1_546
Na22 O100 2.438051 1_555
Na22 O96 2.486099 1_555
Na22 O110 2.517223 1_555
Na22 O108 2.599176 1_555
Na22 O112 2.666806 1_555
Na22 O98 2.724215 1_555
Na23 O101 2.400945 1_555
Na23 O111 2.449545 1_555
Na23 O97 2.523347 1_555
Na23 O109 2.669272 1_555
Na23 O113 2.672082 1_555
Na23 O99 2.749947 1_555
Na24 O102 2.409008 1_555
Na24 O104 2.500672 1_555
Na24 O118 2.528584 1_555
Na24 O116 2.618320 1_555
Na24 O106 2.686850 1_555
Na24 O114 2.704558 1_555
Na25 O103 2.401457 1_555
Na25 O105 2.506432 1_555
Na25 O119 2.529387 1_555
Na25 O117 2.620443 1_555
Na25 O107 2.689338 1_555
Na25 O115 2.706823 1_555
Na26 O120 2.401057 1_555
Na26 O134 2.433709 1_555
Na26 O124 2.496372 1_555
Na26 O136 2.522091 1_555
Na26 O132 2.738382 1_555
Na26 O122 2.774065 1_555
Na27 O135 2.403296 1_555
Na27 O121 2.434968 1_555
Na27 O137 2.480860 1_555
Na27 O125 2.567034 1_555
Na27 O133 2.715240 1_555
Na27 O123 2.750778 1_555
Na28 O142 2.403850 1_555
Na28 O128 2.413989 1_555
Na28 O126 2.514962 1_555
Na28 O138 2.616161 1_555
Na28 O140 2.642256 1_555
Na28 O130 2.757424 1_555
Na29 O129 2.378367 1_555
Na29 O143 2.441368 1_555
Na29 O127 2.489369 1_555
Na29 O141 2.631554 1_555
Na29 O139 2.710142 1_555
Na29 O131 2.715371 1_555
O0 S0 1.487752 1_545
O0 Sn0 2.178287 1_445
O1 S1 1.487922 1_555
O1 Sn1 2.178905 1_545
O2 Si0 1.645870 1_555
O2 Sn1 2.003515 1_555
O3 Si1 1.645424 1_555
O3 Sn0 2.003152 1_555
O4 Si3 1.654007 1_555
O4 Sn1 2.035474 1_545
O5 Si2 1.655169 1_655
O5 Sn0 2.036109 1_545
O6 S2 1.504602 1_555
O6 Sn2 2.159256 1_445
O7 S3 1.483620 1_555
O7 Sn3 2.172597 1_545
O8 Si5 1.631095 1_555
O8 Sn3 2.036279 1_555
O9 Si4 1.636819 1_555
O9 Sn2 1.982194 1_555
O10 Si6 1.635151 1_555
O10 Sn3 2.014173 1_545
O11 Si7 1.642338 1_545
O11 Sn2 2.009602 1_545
O12 Si6 1.630428 1_565
O12 Sn5 1.966084 1_555
O13 Si7 1.624270 1_555
O13 Sn4 1.976496 1_555
O14 S2 1.479325 1_555
O14 Sn4 2.207140 1_445
O15 S3 1.476367 1_555
O15 Sn5 2.251656 1_545
O16 Si4 1.654451 1_455
O16 Sn4 1.995660 1_455
O17 Si5 1.646688 1_555
O17 Sn5 1.994401 1_555
O18 Si0 1.639629 1_555
O18 Sn7 1.987416 1_565
O19 Si1 1.639551 1_555
O19 Sn6 1.984218 1_565
O20 Si2 1.636926 1_555
O20 Sn6 1.987926 1_455
O21 Si3 1.637633 1_555
O21 Sn7 1.988775 1_555
O22 S0 1.474833 1_555
O22 Sn6 2.183058 1_465
O23 S1 1.476657 1_565
O23 Sn7 2.197777 1_565
O24 S4 1.479762 1_555
O24 Sn8 2.149105 1_555
O25 S5 1.481555 1_555
O25 Sn9 2.142346 1_555
O26 Si8 1.632416 1_555
O26 Sn8 2.012736 1_555
O27 Si9 1.636805 1_555
O27 Sn9 2.015344 1_555
O28 Si10 1.621919 1_555
O28 Sn8 1.979676 1_555
O29 Si11 1.622349 1_555
O29 Sn9 1.982123 1_555
O30 S6 1.480367 1_555
O30 Sn10 2.156198 1_555
O31 S7 1.486731 1_555
O31 Sn11 2.144799 1_555
O32 Si12 1.642762 1_555
O32 Sn10 2.017713 1_555
O33 Si13 1.638408 1_555
O33 Sn11 2.037401 1_555
O34 Si14 1.619374 1_555
O34 Sn10 1.972969 1_555
O35 Si15 1.620067 1_555
O35 Sn11 1.972368 1_555
O36 Si14 1.639819 1_555
O36 Sn12 2.018927 1_554
O37 Si15 1.629227 1_555
O37 Sn13 1.971651 1_554
O38 S6 1.485558 1_555
O38 Sn12 2.269866 1_554
O39 S7 1.483278 1_555
O39 Sn13 2.206385 1_554
O40 Si12 1.656463 1_555
O40 Sn12 2.006056 1_554
O41 Si13 1.646429 1_555
O41 Sn13 1.997304 1_554
O42 Si8 1.639747 1_555
O42 Sn14 2.018628 1_555
O43 Si9 1.638824 1_555
O43 Sn15 2.019295 1_555
O44 Si10 1.653820 1_555
O44 Sn14 1.999320 1_555
O45 Si11 1.652103 1_555
O45 Sn15 2.000120 1_555
O46 S4 1.492947 1_555
O46 Sn14 2.230805 1_555
O47 S5 1.492596 1_555
O47 Sn15 2.229573 1_555
O48 Si16 1.622947 1_555
O48 Sn16 1.979568 1_556
O49 S8 1.488802 1_555
O49 Sn17 2.142785 1_556
O50 Si17 1.642220 1_555
O50 Sn16 2.066561 1_556
O51 Si18 1.636063 1_555
O51 Sn17 2.005756 1_556
O52 Si19 1.614584 1_555
O52 Sn16 2.026776 1_556
O53 Si20 1.638536 1_555
O53 Sn17 2.014630 1_556
O54 Si21 1.621716 1_555
O54 Sn18 1.984808 1_555
O55 Si22 1.621853 1_555
O55 Sn19 1.982266 1_555
O56 Si23 1.628331 1_555
O56 Sn18 2.046377 1_555
O57 Si24 1.629110 1_555
O57 Sn19 2.045139 1_555
O58 Si25 1.641107 1_555
O58 Sn18 2.056359 1_555
O59 Si26 1.642281 1_555
O59 Sn19 2.054169 1_555
O60 Si25 1.622850 1_555
O60 Sn20 2.028664 1_555
O61 Si26 1.622762 1_555
O61 Sn21 2.027035 1_555
O62 Si21 1.642618 1_555
O62 Sn20 2.076384 1_555
O63 Si22 1.642366 1_555
O63 Sn21 2.075380 1_555
O64 Si23 1.624237 1_555
O64 Sn20 1.980603 1_555
O65 Si24 1.624320 1_555
O65 Sn21 1.980809 1_555
O66 Si17 1.611193 1_555
O66 Sn22 2.017037 1_555
O67 Si18 1.638020 1_555
O67 Sn23 1.989898 1_555
O68 Si19 1.631970 1_555
O68 Sn22 2.009554 1_555
O69 Si20 1.651102 1_555
O69 Sn23 2.001132 1_555
O70 Si16 1.629921 1_555
O70 Sn22 2.029427 1_555
O71 S8 1.474730 1_555
O71 Sn23 2.235252 1_555
O72 Si25 1.652022 1_555
O72 Sn0 2.097220 1_455
O73 Si26 1.651341 1_555
O73 Sn1 2.096877 1_555
O74 Si21 1.643477 1_555
O74 Sn1 2.041319 1_555
O75 Si22 1.643153 1_555
O75 Sn0 2.040214 1_555
O76 Si23 1.646875 1_555
O76 Sn0 2.068228 1_445
O77 Si24 1.646344 1_555
O77 Sn1 2.069642 1_545
O78 Si17 1.686241 1_555
O78 Sn2 2.097275 1_445
O79 Si18 1.629672 1_555
O79 Sn3 2.061759 1_545
O80 Si19 1.658605 1_555
O80 Sn2 2.041081 1_455
O81 Si20 1.626973 1_555
O81 Sn3 2.070277 1_555
O82 Si16 1.635332 1_555
O82 Sn3 2.034026 1_555
O83 S8 1.499508 1_555
O83 Sn2 2.202391 1_555
O84 S4 1.474559 1_555
O84 Sn5 2.238718 1_545
O85 S5 1.480810 1_555
O85 Sn4 2.259681 1_545
O86 Si8 1.666115 1_555
O86 Sn4 2.056270 1_445
O87 Si9 1.664498 1_555
O87 Sn5 2.055241 1_545
O88 Si10 1.658329 1_555
O88 Sn5 2.023573 1_555
O89 Si11 1.658393 1_555
O89 Sn4 2.018601 1_555
O90 S6 1.475116 1_555
O90 Sn7 2.234587 1_565
O91 S7 1.480687 1_555
O91 Sn6 2.246496 1_565
O92 Si12 1.662731 1_555
O92 Sn7 2.028756 1_555
O93 Si13 1.654876 1_555
O93 Sn6 2.027041 1_555
O94 Si14 1.666645 1_555
O94 Sn6 2.044368 1_455
O95 Si15 1.663481 1_555
O95 Sn7 2.052772 1_555
O96 Si6 1.664850 1_555
O96 Sn8 2.047144 1_555
O97 Si7 1.658313 1_545
O97 Sn9 2.066292 1_555
O98 S2 1.491027 1_555
O98 Sn8 2.223297 1_555
O99 S3 1.496370 1_555
O99 Sn9 2.233643 1_555
O100 Si5 1.628610 1_555
O100 Sn8 2.026972 1_555
O101 Si4 1.635420 1_555
O101 Sn9 2.018569 1_555
O102 Si0 1.630493 1_555
O102 Sn10 2.012955 1_555
O103 Si1 1.629039 1_555
O103 Sn11 2.018042 1_555
O104 Si3 1.661012 1_555
O104 Sn10 2.069554 1_555
O105 Si2 1.661975 1_655
O105 Sn11 2.065295 1_555
O106 S0 1.491633 1_545
O106 Sn10 2.228657 1_555
O107 S1 1.490460 1_555
O107 Sn11 2.231438 1_555
O108 Si16 1.645969 1_555
O108 Sn12 2.057126 1_555
O109 S8 1.471826 1_555
O109 Sn13 2.245815 1_555
O110 Si18 1.660328 1_555
O110 Sn12 2.114088 1_555
O111 Si17 1.656888 1_655
O111 Sn13 2.057533 1_555
O112 Si19 1.660212 1_545
O112 Sn12 2.027389 1_555
O113 Si20 1.637527 1_545
O113 Sn13 2.015814 1_555
O114 Si21 1.643231 1_545
O114 Sn14 2.063222 1_555
O115 Si22 1.642542 1_545
O115 Sn15 2.062645 1_555
O116 Si23 1.641836 1_555
O116 Sn14 2.025381 1_555
O117 Si24 1.641858 1_555
O117 Sn15 2.026503 1_555
O118 Si26 1.652077 1_555
O118 Sn14 2.105620 1_555
O119 Si25 1.652810 1_655
O119 Sn15 2.103560 1_555
O120 Si14 1.655346 1_555
O120 Sn16 2.093888 1_555
O121 Si15 1.662119 1_555
O121 Sn17 2.058296 1_555
O122 S7 1.484189 1_455
O122 Sn16 2.287649 1_555
O123 S6 1.493677 1_555
O123 Sn17 2.213376 1_555
O124 Si12 1.625898 1_565
O124 Sn16 2.042738 1_555
O125 Si13 1.632694 1_565
O125 Sn17 2.009765 1_555
O126 Si8 1.657274 1_565
O126 Sn18 2.090170 1_555
O127 Si9 1.658719 1_565
O127 Sn19 2.095842 1_555
O128 Si10 1.626508 1_555
O128 Sn18 2.028960 1_555
O129 Si11 1.626092 1_555
O129 Sn19 2.031103 1_555
O130 S5 1.480514 1_455
O130 Sn18 2.297222 1_555
O131 S4 1.486293 1_555
O131 Sn19 2.292230 1_555
O132 S0 1.481989 1_555
O132 Sn20 2.302539 1_555
O133 S1 1.483793 1_565
O133 Sn21 2.308226 1_555
O134 Si0 1.655894 1_555
O134 Sn20 2.082844 1_555
O135 Si1 1.656732 1_555
O135 Sn21 2.082360 1_555
O136 Si2 1.624936 1_555
O136 Sn20 2.024674 1_555
O137 Si3 1.625785 1_555
O137 Sn21 2.025374 1_555
O138 S2 1.461484 1_555
O138 Sn22 2.265388 1_555
O139 S3 1.478825 1_555
O139 Sn23 2.204721 1_555
O140 Si4 1.641095 1_455
O140 Sn22 2.055077 1_555
O141 Si5 1.657728 1_555
O141 Sn23 2.015424 1_555
O142 Si6 1.649313 1_565
O142 Sn22 2.096865 1_555
O143 Si7 1.660974 1_555
O143 Sn23 2.054627 1_555
