# generated using pymatgen
data_Tm2MgNb2O8
_symmetry_space_group_name_H-M   'P 1'
_cell_length_a   5.23975706
_cell_length_b   5.20576752
_cell_length_c   7.98709908
_cell_angle_alpha   104.90028731
_cell_angle_beta   105.05293597
_cell_angle_gamma   102.09830993
_symmetry_Int_Tables_number   1
_chemical_formula_structural   Tm2MgNb2O8
_chemical_formula_sum   'Tm2 Mg1 Nb2 O8'
_cell_volume   194.19336397
_cell_formula_units_Z   1
loop_
 _symmetry_equiv_pos_site_id
 _symmetry_equiv_pos_as_xyz
  1  'x, y, z'
loop_
 _atom_site_type_symbol
 _atom_site_label
 _atom_site_symmetry_multiplicity
 _atom_site_fract_x
 _atom_site_fract_y
 _atom_site_fract_z
 _atom_site_occupancy
  Tm  Tm0  1  0.15459414  0.90459414  0.30918727  1
  Tm  Tm1  1  0.82388515  0.07388515  0.64777130  1
  Mg  Mg0  1  0.48118825  0.23118825  0.96237651  1
  Nb  Nb0  1  0.32137255  0.57137255  0.64274510  1
  Nb  Nb1  1  0.67552662  0.42552662  0.35105325  1
  O  O0  1  0.35424281  0.11486501  0.15363723  1
  O  O1  1  0.58877345  0.93358541  0.81345979  1
  O  O2  1  0.79939442  0.53877222  0.15363723  1
  O  O3  1  0.46982702  0.70428952  0.42115770  1
  O  O4  1  0.51452387  0.28260451  0.55517856  1
  O  O5  1  0.22468634  0.37987439  0.81345979  1
  O  O6  1  0.04065469  0.77257505  0.55517856  1
  O  O7  1  0.95133069  0.21686719  0.42115770  1
loop_
_geom_bond_atom_site_label_1
_geom_bond_atom_site_label_2
_geom_bond_distance
_geom_bond_site_symmetry_2
Mg0 O1 1.974681 1_545
Mg0 O5 1.974681 1_555
Mg0 O0 1.994351 1_556
Mg0 O2 1.994351 1_556
Nb0 O5 1.988913 1_555
Nb0 O1 1.988913 1_555
Nb0 O4 2.058625 1_555
Nb0 O6 2.058629 1_555
Nb0 O3 2.309858 1_555
Nb0 O7 2.309861 1_455
Nb1 O2 2.025899 1_555
Nb1 O0 2.025899 1_555
Nb1 O3 2.032819 1_555
Nb1 O7 2.032823 1_555
Nb1 O4 2.235732 1_555
Nb1 O6 2.235734 1_655
O0 Tm0 2.174984 1_545
O1 Tm1 2.183831 1_565
O2 Tm0 2.174990 1_655
O3 Tm0 2.247140 1_555
O3 Tm1 2.321273 1_565
O4 Tm1 2.209962 1_555
O4 Tm0 2.412618 1_545
O5 Tm1 2.183836 1_455
O6 Tm1 2.209958 1_465
O6 Tm0 2.412620 1_555
O7 Tm0 2.247136 1_645
O7 Tm1 2.321275 1_555
