# generated using pymatgen
data_Na2Zr6Zn2Si3(S3O16)3
_symmetry_space_group_name_H-M   'P 1'
_cell_length_a   17.96266060
_cell_length_b   8.95903121
_cell_length_c   23.27862773
_cell_angle_alpha   90.05987599
_cell_angle_beta   90.03887334
_cell_angle_gamma   119.92056019
_symmetry_Int_Tables_number   1
_chemical_formula_structural   Na2Zr6Zn2Si3(S3O16)3
_chemical_formula_sum   'Na6 Zr18 Zn6 Si9 S27 O144'
_cell_volume   3246.87940387
_cell_formula_units_Z   3
loop_
 _symmetry_equiv_pos_site_id
 _symmetry_equiv_pos_as_xyz
  1  'x, y, z'
loop_
 _atom_site_type_symbol
 _atom_site_label
 _atom_site_symmetry_multiplicity
 _atom_site_fract_x
 _atom_site_fract_y
 _atom_site_fract_z
 _atom_site_occupancy
  Na  Na0  1  0.00199033  0.99435657  0.49473173  1
  Na  Na1  1  0.50068746  0.00736508  0.99869292  1
  Na  Na2  1  0.33084056  0.32631937  0.83765345  1
  Na  Na3  1  0.83420522  0.33340011  0.83777973  1
  Na  Na4  1  0.32777678  0.32647941  0.33471772  1
  Na  Na5  1  0.83247675  0.33690943  0.33563798  1
  Zr  Zr0  1  0.50899214  0.00884099  0.35519742  1
  Zr  Zr1  1  0.00988049  0.01017876  0.85623212  1
  Zr  Zr2  1  0.50221013  0.00105703  0.64146336  1
  Zr  Zr3  1  0.00871933  0.00291649  0.14473416  1
  Zr  Zr4  1  0.32625387  0.32784842  0.68734860  1
  Zr  Zr5  1  0.83231909  0.32471838  0.68338180  1
  Zr  Zr6  1  0.32591559  0.33137914  0.18724829  1
  Zr  Zr7  1  0.82816288  0.32340062  0.18811991  1
  Zr  Zr8  1  0.32911790  0.32253079  0.97792791  1
  Zr  Zr9  1  0.82876896  0.33467406  0.47597603  1
  Zr  Zr10  1  0.16541253  0.67110673  0.02413740  1
  Zr  Zr11  1  0.66111984  0.65367807  0.02180538  1
  Zr  Zr12  1  0.16170754  0.66758065  0.51799149  1
  Zr  Zr13  1  0.66620158  0.66356636  0.52139198  1
  Zr  Zr14  1  0.16021633  0.66931834  0.31040252  1
  Zr  Zr15  1  0.66774294  0.66485318  0.30929162  1
  Zr  Zr16  1  0.16682370  0.66823662  0.81074522  1
  Zr  Zr17  1  0.66229001  0.66174530  0.81473713  1
  Zn  Zn0  1  0.01041945  0.98748961  0.35266664  1
  Zn  Zn1  1  0.49987388  0.01227452  0.85563212  1
  Zn  Zn2  1  0.00450812  0.00998682  0.65238439  1
  Zn  Zn3  1  0.50287277  0.99550151  0.15377219  1
  Zn  Zn4  1  0.83334095  0.33253206  0.98568180  1
  Zn  Zn5  1  0.33065972  0.33003039  0.48133509  1
  Si  Si0  1  0.14453539  0.00351173  0.25282642  1
  Si  Si1  1  0.64218854  0.99681779  0.24735856  1
  Si  Si2  1  0.14200539  0.28789713  0.74746421  1
  Si  Si3  1  0.68925328  0.04068089  0.58172767  1
  Si  Si4  1  0.18824641  0.33582300  0.08170983  1
  Si  Si5  1  0.51916204  0.36587278  0.91630095  1
  Si  Si6  1  0.16724894  0.95311312  0.91645734  1
  Si  Si7  1  0.66575863  0.37969665  0.41608353  1
  Si  Si8  1  0.01877206  0.67352990  0.41567930  1
  S  S0  1  0.35604590  0.71338657  0.25009195  1
  S  S1  1  0.85674470  0.71260398  0.24997838  1
  S  S2  1  0.99843038  0.28330608  0.25135780  1
  S  S3  1  0.49878032  0.28699492  0.24897603  1
  S  S4  1  0.64492156  0.28808678  0.75078725  1
  S  S5  1  0.99809447  0.70970140  0.74922949  1
  S  S6  1  0.49956574  0.71424761  0.75114023  1
  S  S7  1  0.35740389  0.00121788  0.75017301  1
  S  S8  1  0.85499782  0.99856945  0.75000749  1
  S  S9  1  0.47534327  0.33323909  0.58267726  1
  S  S10  1  0.97880056  0.32794993  0.58250358  1
  S  S11  1  0.18695238  0.04426837  0.58105924  1
  S  S12  1  0.33252100  0.61968822  0.58194035  1
  S  S13  1  0.83741760  0.63124906  0.58409826  1
  S  S14  1  0.47787611  0.62860125  0.08305795  1
  S  S15  1  0.97414788  0.61739724  0.08212032  1
  S  S16  1  0.33820886  0.04466476  0.08417808  1
  S  S17  1  0.83330346  0.04487770  0.08145553  1
  S  S18  1  0.68745710  0.32790929  0.08141603  1
  S  S19  1  0.31321186  0.67093414  0.91647528  1
  S  S20  1  0.81120311  0.66280833  0.91692646  1
  S  S21  1  0.01843851  0.37845361  0.91705665  1
  S  S22  1  0.66799971  0.96090435  0.91722338  1
  S  S23  1  0.31171027  0.96012818  0.41684168  1
  S  S24  1  0.81370041  0.95499106  0.41617771  1
  S  S25  1  0.16849534  0.37565209  0.41725364  1
  S  S26  1  0.51857202  0.65890237  0.41683065  1
  O  O0  1  0.10706720  0.04694014  0.30739216  1
  O  O1  1  0.60131144  0.03280458  0.30570562  1
  O  O2  1  0.40959092  0.79341570  0.30175144  1
  O  O3  1  0.90662840  0.78406640  0.30204846  1
  O  O4  1  0.48406097  0.17951316  0.30117389  1
  O  O5  1  0.98129192  0.18066087  0.30252008  1
  O  O6  1  0.10120381  0.16985714  0.80568124  1
  O  O7  1  0.60694552  0.18112896  0.80173608  1
  O  O8  1  0.48538850  0.79044084  0.80259097  1
  O  O9  1  0.98293560  0.78713274  0.80131287  1
  O  O10  1  0.40925489  0.03097538  0.80176045  1
  O  O11  1  0.90796959  0.02748448  0.80172695  1
  O  O12  1  0.39737249  0.97725011  0.69812563  1
  O  O13  1  0.89081057  0.97134402  0.69741152  1
  O  O14  1  0.08749184  0.20593477  0.69124735  1
  O  O15  1  0.59219007  0.20866031  0.69857733  1
  O  O16  1  0.01112510  0.80970290  0.69726098  1
  O  O17  1  0.51132686  0.81849412  0.69871490  1
  O  O18  1  0.39160196  0.81343850  0.19765374  1
  O  O19  1  0.89433015  0.81525551  0.19763126  1
  O  O20  1  0.00901826  0.20343437  0.19826575  1
  O  O21  1  0.51251161  0.21266724  0.19714024  1
  O  O22  1  0.08603603  0.97135931  0.19470806  1
  O  O23  1  0.58792384  0.96923709  0.19101038  1
  O  O24  1  0.43573807  0.35911601  0.63495976  1
  O  O25  1  0.93915250  0.35954429  0.63524499  1
  O  O26  1  0.24195834  0.12735189  0.63402329  1
  O  O27  1  0.74793036  0.13518356  0.63950155  1
  O  O28  1  0.32090089  0.51325376  0.63457878  1
  O  O29  1  0.82298835  0.51877782  0.63563025  1
  O  O30  1  0.44141625  0.52096940  0.13472530  1
  O  O31  1  0.93501845  0.51144465  0.13402929  1
  O  O32  1  0.32334370  0.12558289  0.13502895  1
  O  O33  1  0.81913029  0.12761001  0.13356831  1
  O  O34  1  0.24846163  0.36482138  0.13823491  1
  O  O35  1  0.74216542  0.35727093  0.13361239  1
  O  O36  1  0.23538836  0.30468371  0.02746435  1
  O  O37  1  0.72851781  0.30511018  0.03015559  1
  O  O38  1  0.42574154  0.54170680  0.03138370  1
  O  O39  1  0.92339366  0.54099482  0.03021473  1
  O  O40  1  0.35029614  0.15090748  0.03187998  1
  O  O41  1  0.84786429  0.15278015  0.03076484  1
  O  O42  1  0.22897462  0.15275002  0.53097487  1
  O  O43  1  0.73525004  0.16739738  0.52857117  1
  O  O44  1  0.34955953  0.54452003  0.53149792  1
  O  O45  1  0.85012549  0.54859496  0.53271843  1
  O  O46  1  0.42308842  0.30237421  0.53129432  1
  O  O47  1  0.92509112  0.30871218  0.53227064  1
  O  O48  1  0.27114846  0.69283320  0.96806480  1
  O  O49  1  0.77062140  0.69050435  0.96829955  1
  O  O50  1  0.07291442  0.45547010  0.96846661  1
  O  O51  1  0.58252530  0.47152239  0.97150314  1
  O  O52  1  0.15480695  0.83642494  0.97253264  1
  O  O53  1  0.65744919  0.85185710  0.96837211  1
  O  O54  1  0.27108250  0.85203035  0.46922415  1
  O  O55  1  0.77017474  0.84920440  0.46840527  1
  O  O56  1  0.15986711  0.46810159  0.46977309  1
  O  O57  1  0.65457000  0.47154589  0.47322132  1
  O  O58  1  0.08117625  0.69331428  0.47217816  1
  O  O59  1  0.57325671  0.69066100  0.46880062  1
  O  O60  1  0.06740506  0.63897787  0.36175699  1
  O  O61  1  0.56079956  0.63639034  0.36557140  1
  O  O62  1  0.25701945  0.87615993  0.36575532  1
  O  O63  1  0.75848459  0.87628761  0.36492250  1
  O  O64  1  0.18242838  0.48348310  0.36581484  1
  O  O65  1  0.67991303  0.49933600  0.36056035  1
  O  O66  1  0.06078899  0.48469586  0.86521274  1
  O  O67  1  0.56920271  0.49509989  0.86070753  1
  O  O68  1  0.18014485  0.86200179  0.85987185  1
  O  O69  1  0.68135935  0.87691281  0.86460273  1
  O  O70  1  0.25913254  0.64168715  0.86448100  1
  O  O71  1  0.75589294  0.63826326  0.86485347  1
  O  O72  1  0.00844278  0.84059231  0.41497354  1
  O  O73  1  0.50920828  0.81332385  0.40903748  1
  O  O74  1  0.39605208  0.97367513  0.40871026  1
  O  O75  1  0.89869369  0.97552917  0.41028910  1
  O  O76  1  0.08907735  0.20946057  0.41441628  1
  O  O77  1  0.58035701  0.19170306  0.40879138  1
  O  O78  1  0.00878282  0.20488873  0.90838541  1
  O  O79  1  0.51304175  0.18158455  0.91162271  1
  O  O80  1  0.08122803  0.96921798  0.90850022  1
  O  O81  1  0.58941496  0.97081681  0.91005231  1
  O  O82  1  0.39899621  0.82190360  0.90988511  1
  O  O83  1  0.89518901  0.81778246  0.90728121  1
  O  O84  1  0.48580242  0.17951109  0.59340334  1
  O  O85  1  0.98638056  0.17376265  0.58924141  1
  O  O86  1  0.10064859  0.01942914  0.58869641  1
  O  O87  1  0.59545102  0.02291051  0.59587424  1
  O  O88  1  0.40885795  0.79301352  0.59368646  1
  O  O89  1  0.91288299  0.80230131  0.59226848  1
  O  O90  1  0.48732285  0.80060188  0.08779926  1
  O  O91  1  0.98337653  0.78962363  0.09053912  1
  O  O92  1  0.41354370  0.02340571  0.09087962  1
  O  O93  1  0.90772330  0.02314755  0.09280803  1
  O  O94  1  0.09358658  0.16963549  0.09227994  1
  O  O95  1  0.60058638  0.18170330  0.08819500  1
  O  O96  1  0.34701777  0.15693652  0.74131034  1
  O  O97  1  0.84622449  0.15903179  0.74390083  1
  O  O98  1  0.24101077  0.31188835  0.74181383  1
  O  O99  1  0.73371900  0.31349469  0.74217483  1
  O  O100  1  0.42448894  0.53686996  0.74158605  1
  O  O101  1  0.92086916  0.53220325  0.74355579  1
  O  O102  1  0.34972835  0.53892569  0.24447197  1
  O  O103  1  0.84561393  0.53480644  0.24076168  1
  O  O104  1  0.42314449  0.31204491  0.24338275  1
  O  O105  1  0.92349138  0.31427973  0.24100492  1
  O  O106  1  0.24302489  0.16755958  0.24232298  1
  O  O107  1  0.74083568  0.17041013  0.24183404  1
  O  O108  1  0.32114120  0.51359425  0.92259169  1
  O  O109  1  0.81946967  0.50767256  0.92278173  1
  O  O110  1  0.42863549  0.36286306  0.92321922  1
  O  O111  1  0.93244811  0.35985543  0.92313910  1
  O  O112  1  0.25096231  0.14592045  0.92107616  1
  O  O113  1  0.74579513  0.13249314  0.92264957  1
  O  O114  1  0.32060544  0.13248019  0.42424444  1
  O  O115  1  0.82036077  0.12760466  0.42337846  1
  O  O116  1  0.24620442  0.35847059  0.42487769  1
  O  O117  1  0.75000116  0.35557149  0.42139256  1
  O  O118  1  0.43290729  0.50539716  0.42407204  1
  O  O119  1  0.92832657  0.49403231  0.42495127  1
  O  O120  1  0.17797308  0.50303071  0.07163941  1
  O  O121  1  0.68315438  0.49138320  0.07545657  1
  O  O122  1  0.06138388  0.63828540  0.07588496  1
  O  O123  1  0.56585536  0.64790211  0.07433055  1
  O  O124  1  0.25926397  0.87399217  0.07569345  1
  O  O125  1  0.75547127  0.87394866  0.07346998  1
  O  O126  1  0.18318264  0.87411101  0.57572025  1
  O  O127  1  0.67671373  0.85159066  0.57355062  1
  O  O128  1  0.25706696  0.64048545  0.57530341  1
  O  O129  1  0.75851098  0.64332495  0.57660710  1
  O  O130  1  0.06520039  0.48486111  0.57607482  1
  O  O131  1  0.56229747  0.48446508  0.57629400  1
  O  O132  1  0.15781406  0.83573849  0.25858939  1
  O  O133  1  0.65733388  0.83689180  0.26247928  1
  O  O134  1  0.26876010  0.68471411  0.26014190  1
  O  O135  1  0.76897034  0.68880392  0.25626220  1
  O  O136  1  0.07669041  0.45620875  0.25678079  1
  O  O137  1  0.57552170  0.45991235  0.25864011  1
  O  O138  1  0.15776714  0.47889403  0.76211652  1
  O  O139  1  0.65593102  0.46336276  0.75791669  1
  O  O140  1  0.07392357  0.68759844  0.75863313  1
  O  O141  1  0.57771951  0.69709416  0.75758139  1
  O  O142  1  0.27061434  0.84927472  0.75624758  1
  O  O143  1  0.76746955  0.85015376  0.75992022  1
loop_
_geom_bond_atom_site_label_1
_geom_bond_atom_site_label_2
_geom_bond_distance
_geom_bond_site_symmetry_2
Na0 O72 2.347888 1_555
Na0 O76 2.580800 1_565
Na0 O75 2.649040 1_455
Na0 O86 2.751764 1_565
Na0 O89 2.818410 1_455
Na0 O85 2.818747 1_465
Na1 O79 2.501072 1_555
Na1 O95 2.681903 1_556
Na1 O92 2.702680 1_556
Na1 O82 2.707608 1_545
Na1 O90 2.712324 1_546
Na1 O81 2.725576 1_545
Na2 O112 2.477702 1_555
Na2 O110 2.565280 1_555
Na2 O108 2.653304 1_555
Na2 O98 2.717386 1_555
Na2 O96 2.801929 1_555
Na2 O100 2.870100 1_555
Na3 O111 2.587609 1_555
Na3 O113 2.612486 1_555
Na3 O109 2.613360 1_555
Na3 O97 2.755505 1_555
Na3 O101 2.766489 1_555
Na3 O99 2.813451 1_555
Na4 O106 2.607226 1_555
Na4 O116 2.656304 1_555
Na4 O114 2.676804 1_555
Na4 O118 2.725818 1_555
Na4 O102 2.729875 1_555
Na4 O104 2.774380 1_555
Na5 O117 2.541292 1_555
Na5 O119 2.615282 1_555
Na5 O107 2.691052 1_555
Na5 O115 2.708657 1_555
Na5 O103 2.769202 1_555
Na5 O105 2.810941 1_555
O0 Si0 1.574533 1_555
O0 Zn0 1.868032 1_545
O1 Si1 1.650606 1_545
O1 Zr0 1.941992 1_555
O2 S0 1.481210 1_555
O2 Zr0 2.239435 1_565
O3 S1 1.451425 1_555
O3 Zn0 2.188297 1_655
O4 S3 1.490804 1_555
O4 Zr0 2.192368 1_555
O5 S2 1.441963 1_555
O5 Zn0 2.353339 1_645
O6 Si2 1.650227 1_555
O6 Zr1 1.946092 1_555
O7 S4 1.463411 1_555
O7 Zn1 2.160172 1_555
O8 S6 1.461997 1_555
O8 Zn1 2.240675 1_565
O9 S5 1.487445 1_555
O9 Zr1 2.211507 1_665
O10 S7 1.459718 1_555
O10 Zn1 2.126043 1_555
O11 S8 1.474414 1_545
O11 Zr1 2.294638 1_655
O12 S7 1.477813 1_565
O12 Zr2 2.221458 1_565
O13 S8 1.459231 1_555
O13 Zn2 2.165146 1_665
O14 Si2 1.577835 1_555
O14 Zn2 1.872569 1_555
O15 S4 1.484894 1_555
O15 Zr2 2.198254 1_555
O16 S5 1.454102 1_455
O16 Zn2 2.131116 1_565
O17 S6 1.487326 1_555
O17 Zr2 2.179360 1_565
O18 S0 1.460719 1_555
O18 Zn3 2.110170 1_555
O19 S1 1.473277 1_555
O19 Zr3 2.264147 1_665
O20 S2 1.486582 1_455
O20 Zr3 2.183073 1_555
O21 S3 1.457012 1_555
O21 Zn3 2.119932 1_545
O22 Si0 1.647070 1_565
O22 Zr3 1.937074 1_565
O23 Si1 1.577676 1_555
O23 Zn3 1.870308 1_555
O24 S9 1.485336 1_555
O24 Zr4 2.210828 1_555
O25 S10 1.515340 1_555
O25 Zr5 2.107594 1_555
O26 S11 1.520908 1_555
O26 Zr4 2.083184 1_555
O27 Si3 1.655883 1_555
O27 Zr5 1.910770 1_555
O28 S12 1.502845 1_555
O28 Zr4 2.107312 1_555
O29 S13 1.504639 1_555
O29 Zr5 2.140300 1_555
O30 S14 1.476086 1_555
O30 Zr6 2.275218 1_555
O31 S15 1.480943 1_555
O31 Zr7 2.211258 1_555
O32 S16 1.479807 1_555
O32 Zr6 2.188477 1_555
O33 S17 1.507524 1_555
O33 Zr7 2.104027 1_555
O34 Si4 1.638851 1_555
O34 Zr6 1.934328 1_555
O35 S18 1.500370 1_555
O35 Zr7 2.134029 1_555
O36 Si4 1.620444 1_555
O36 Zr8 1.981005 1_554
O37 S18 1.469895 1_555
O37 Zn4 2.054071 1_554
O38 S14 1.482985 1_555
O38 Zr8 2.238006 1_554
O39 S15 1.460786 1_555
O39 Zn4 2.039405 1_554
O40 S16 1.493945 1_555
O40 Zr8 2.161742 1_554
O41 S17 1.464893 1_555
O41 Zn4 2.045755 1_554
O42 S11 1.464706 1_555
O42 Zn5 2.075270 1_555
O43 Si3 1.603508 1_555
O43 Zr9 2.015443 1_555
O44 S12 1.459607 1_555
O44 Zn5 2.124951 1_555
O45 S13 1.482610 1_555
O45 Zr9 2.196710 1_555
O46 S9 1.458448 1_555
O46 Zn5 2.139804 1_555
O47 S10 1.469705 1_555
O47 Zr9 2.272451 1_555
O48 S19 1.483321 1_555
O48 Zr10 2.232510 1_556
O49 S20 1.484625 1_555
O49 Zr11 2.210401 1_556
O50 S21 1.479514 1_555
O50 Zr10 2.227553 1_556
O51 Si5 1.662348 1_555
O51 Zr11 1.929470 1_556
O52 Si6 1.617702 1_555
O52 Zr10 1.989447 1_556
O53 S22 1.492011 1_555
O53 Zr11 2.196629 1_556
O54 S23 1.502003 1_555
O54 Zr12 2.155819 1_555
O55 S24 1.500707 1_555
O55 Zr13 2.164312 1_555
O56 S25 1.526740 1_555
O56 Zr12 2.095636 1_555
O57 Si7 1.627796 1_555
O57 Zr13 1.974245 1_555
O58 Si8 1.678402 1_555
O58 Zr12 1.901094 1_555
O59 S26 1.492742 1_555
O59 Zr13 2.178811 1_555
O60 Si8 1.644697 1_555
O60 Zr14 1.957976 1_555
O61 S26 1.480946 1_555
O61 Zr15 2.233173 1_555
O62 S23 1.484772 1_555
O62 Zr14 2.212542 1_555
O63 S24 1.484410 1_555
O63 Zr15 2.198608 1_555
O64 S25 1.480325 1_555
O64 Zr14 2.293789 1_555
O65 Si7 1.617267 1_555
O65 Zr15 1.999449 1_555
O66 S21 1.490800 1_555
O66 Zr16 2.196019 1_555
O67 Si5 1.670235 1_555
O67 Zr17 1.919747 1_555
O68 Si6 1.625378 1_555
O68 Zr16 1.989897 1_555
O69 S22 1.517532 1_555
O69 Zr17 2.125290 1_555
O70 S19 1.490326 1_555
O70 Zr16 2.182179 1_555
O71 S20 1.511520 1_555
O71 Zr17 2.140792 1_555
O72 Si8 1.597480 1_555
O72 Zn0 1.947929 1_555
O73 S26 1.485867 1_555
O73 Zr0 2.156492 1_565
O74 S23 1.470647 1_555
O74 Zr0 2.265683 1_565
O75 S24 1.450370 1_555
O75 Zn0 2.372298 1_655
O76 S25 1.461863 1_555
O76 Zn0 2.281560 1_545
O77 Si7 1.624908 1_555
O77 Zr0 1.944785 1_555
O78 S21 1.489636 1_555
O78 Zr1 2.132420 1_555
O79 Si5 1.602631 1_555
O79 Zn1 1.921752 1_555
O80 Si6 1.632402 1_555
O80 Zr1 1.930173 1_565
O81 S22 1.467348 1_555
O81 Zn1 2.218990 1_565
O82 S19 1.465923 1_555
O82 Zn1 2.170684 1_565
O83 S20 1.471592 1_555
O83 Zr1 2.256681 1_665
O84 S9 1.501084 1_555
O84 Zr2 2.089965 1_555
O85 S10 1.462660 1_555
O85 Zn2 2.213584 1_655
O86 S11 1.463110 1_555
O86 Zn2 2.246215 1_555
O87 Si3 1.645012 1_555
O87 Zr2 1.909305 1_555
O88 S12 1.496906 1_555
O88 Zr2 2.097141 1_565
O89 S13 1.465893 1_555
O89 Zn2 2.250698 1_665
O90 S14 1.467752 1_555
O90 Zn3 2.234445 1_555
O91 S15 1.480147 1_555
O91 Zr3 2.139332 1_665
O92 S16 1.465841 1_555
O92 Zn3 2.275610 1_545
O93 S17 1.467639 1_555
O93 Zr3 2.260675 1_655
O94 Si4 1.626124 1_555
O94 Zr3 1.944407 1_555
O95 S18 1.461955 1_555
O95 Zn3 2.298240 1_545
O96 S7 1.511236 1_555
O96 Zr4 2.152844 1_555
O97 S8 1.529086 1_545
O97 Zr5 2.150417 1_555
O98 Si2 1.686788 1_555
O98 Zr4 1.938325 1_555
O99 S4 1.508138 1_555
O99 Zr5 2.201366 1_555
O100 S6 1.501467 1_555
O100 Zr4 2.215879 1_555
O101 S5 1.506379 1_555
O101 Zr5 2.233709 1_555
O102 S0 1.515115 1_555
O102 Zr6 2.148363 1_555
O103 S1 1.518167 1_555
O103 Zr7 2.142309 1_555
O104 S3 1.489015 1_555
O104 Zr6 2.255427 1_555
O105 S2 1.522963 1_555
O105 Zr7 2.142744 1_555
O106 Si0 1.660462 1_555
O106 Zr6 1.959891 1_555
O107 Si1 1.681267 1_545
O107 Zr7 1.940134 1_555
O108 S19 1.492733 1_555
O108 Zr8 2.204305 1_555
O109 S20 1.476011 1_555
O109 Zn4 2.249981 1_555
O110 Si5 1.620951 1_555
O110 Zr8 2.075492 1_555
O111 S21 1.475550 1_655
O111 Zn4 2.217731 1_555
O112 Si6 1.632385 1_545
O112 Zr8 2.000757 1_555
O113 S22 1.479267 1_545
O113 Zn4 2.240003 1_555
O114 S23 1.480802 1_545
O114 Zn5 2.146421 1_555
O115 S24 1.499594 1_545
O115 Zr9 2.163100 1_555
O116 S25 1.489192 1_555
O116 Zn5 2.115938 1_555
O117 Si7 1.636431 1_555
O117 Zr9 1.978319 1_555
O118 S26 1.475558 1_555
O118 Zn5 2.178901 1_555
O119 Si8 1.633084 1_655
O119 Zr9 2.026480 1_555
O120 Si4 1.615401 1_555
O120 Zr10 1.970571 1_555
O121 S18 1.511129 1_555
O121 Zr11 2.099485 1_555
O122 S15 1.489757 1_455
O122 Zr10 2.117779 1_555
O123 S14 1.515438 1_555
O123 Zr11 2.083401 1_555
O124 S16 1.491251 1_565
O124 Zr10 2.126512 1_555
O125 S17 1.482386 1_565
O125 Zr11 2.206562 1_555
O126 S11 1.496856 1_565
O126 Zr12 2.158804 1_555
O127 Si3 1.604815 1_565
O127 Zr13 2.006385 1_555
O128 S12 1.465359 1_555
O128 Zr12 2.277125 1_555
O129 S13 1.484500 1_555
O129 Zr13 2.175292 1_555
O130 S10 1.493815 1_455
O130 Zr12 2.165613 1_555
O131 S9 1.478833 1_555
O131 Zr13 2.170583 1_555
O132 Si0 1.640789 1_565
O132 Zr14 1.935839 1_555
O133 Si1 1.624977 1_555
O133 Zr15 1.972002 1_555
O134 S0 1.475743 1_555
O134 Zr14 2.219130 1_555
O135 S1 1.489203 1_555
O135 Zr15 2.119092 1_555
O136 S2 1.489505 1_455
O136 Zr14 2.142246 1_555
O137 S3 1.489708 1_555
O137 Zr15 2.112856 1_555
O138 Si2 1.624768 1_555
O138 Zr16 1.976328 1_555
O139 S4 1.490677 1_555
O139 Zr17 2.171127 1_555
O140 S5 1.487006 1_455
O140 Zr16 2.138417 1_555
O141 S6 1.493947 1_555
O141 Zr17 2.157849 1_555
O142 S7 1.478869 1_565
O142 Zr16 2.169520 1_555
O143 S8 1.486202 1_555
O143 Zr17 2.207572 1_555
