# generated using pymatgen
data_Na6La4Ta4Si7S5O48
_symmetry_space_group_name_H-M   'P 1'
_cell_length_a   18.43873823
_cell_length_b   9.19096801
_cell_length_c   23.66699152
_cell_angle_alpha   90.24588414
_cell_angle_beta   89.57661287
_cell_angle_gamma   119.97018448
_symmetry_Int_Tables_number   1
_chemical_formula_structural   Na6La4Ta4Si7S5O48
_chemical_formula_sum   'Na18 La12 Ta12 Si21 S15 O144'
_cell_volume   3474.43811324
_cell_formula_units_Z   3
loop_
 _symmetry_equiv_pos_site_id
 _symmetry_equiv_pos_as_xyz
  1  'x, y, z'
loop_
 _atom_site_type_symbol
 _atom_site_label
 _atom_site_symmetry_multiplicity
 _atom_site_fract_x
 _atom_site_fract_y
 _atom_site_fract_z
 _atom_site_occupancy
  Na  Na0  1  0.00334945  0.61353591  0.25780938  1
  Na  Na1  1  0.49866106  0.63205738  0.26401954  1
  Na  Na2  1  0.99742504  0.36994974  0.75346539  1
  Na  Na3  1  0.50391308  0.39384798  0.75350936  1
  Na  Na4  1  0.33082950  0.98763329  0.57183346  1
  Na  Na5  1  0.82943580  0.67083875  0.07546636  1
  Na  Na6  1  0.00165449  0.97312483  0.50297717  1
  Na  Na7  1  0.50021758  0.01741784  0.49269792  1
  Na  Na8  1  0.99319572  0.97903401  0.99465389  1
  Na  Na9  1  0.50351420  0.03216629  0.00672106  1
  Na  Na10  1  0.32456866  0.36173782  0.82836754  1
  Na  Na11  1  0.83175222  0.33386778  0.83794470  1
  Na  Na12  1  0.33401553  0.33334143  0.34129876  1
  Na  Na13  1  0.82153092  0.28700781  0.33044411  1
  Na  Na14  1  0.17278671  0.65308623  0.17854154  1
  Na  Na15  1  0.66444982  0.66587353  0.17001282  1
  Na  Na16  1  0.16366319  0.66706248  0.66042959  1
  Na  Na17  1  0.67252409  0.69447195  0.66831844  1
  La  La0  1  0.50745599  0.99345372  0.64050698  1
  La  La1  1  0.00636528  0.01836272  0.14253124  1
  La  La2  1  0.33698088  0.34923654  0.68717594  1
  La  La3  1  0.81996818  0.32881370  0.68443885  1
  La  La4  1  0.32062077  0.31467951  0.18799488  1
  La  La5  1  0.83642449  0.32570634  0.18892174  1
  La  La6  1  0.66468085  0.64166011  0.00401349  1
  La  La7  1  0.16105843  0.68323654  0.50378114  1
  La  La8  1  0.17768047  0.66789388  0.32047924  1
  La  La9  1  0.66773020  0.68410042  0.32617180  1
  La  La10  1  0.16622177  0.63958467  0.82191949  1
  La  La11  1  0.67686605  0.68591155  0.81902258  1
  Ta  Ta0  1  0.99001788  0.00753187  0.35744339  1
  Ta  Ta1  1  0.50227452  0.98241265  0.35898199  1
  Ta  Ta2  1  0.99353311  0.01585021  0.85314021  1
  Ta  Ta3  1  0.49106977  0.97410284  0.85743807  1
  Ta  Ta4  1  0.99972382  0.00010665  0.64276992  1
  Ta  Ta5  1  0.50018713  0.00413225  0.14560678  1
  Ta  Ta6  1  0.34315014  0.33249430  0.98161558  1
  Ta  Ta7  1  0.83461304  0.34526588  0.98574114  1
  Ta  Ta8  1  0.33488969  0.32246648  0.48641333  1
  Ta  Ta9  1  0.83462487  0.35340359  0.47695731  1
  Ta  Ta10  1  0.16876665  0.67159808  0.01354284  1
  Ta  Ta11  1  0.66654013  0.65106159  0.51037198  1
  Si  Si0  1  0.63894545  0.99848609  0.24909451  1
  Si  Si1  1  0.36266949  0.72412933  0.24966137  1
  Si  Si2  1  0.00283566  0.29982799  0.25442094  1
  Si  Si3  1  0.13905467  0.27313380  0.74884031  1
  Si  Si4  1  0.50299204  0.70653915  0.75373034  1
  Si  Si5  1  0.85845253  0.00255726  0.74643312  1
  Si  Si6  1  0.48763029  0.34453595  0.58331498  1
  Si  Si7  1  0.18470012  0.03983599  0.58550150  1
  Si  Si8  1  0.83047376  0.63199469  0.58187458  1
  Si  Si9  1  0.98702588  0.63184877  0.08217404  1
  Si  Si10  1  0.33183328  0.03082634  0.08241043  1
  Si  Si11  1  0.68447608  0.32735135  0.08505792  1
  Si  Si12  1  0.31548800  0.65179079  0.91951262  1
  Si  Si13  1  0.82989699  0.66973804  0.91851369  1
  Si  Si14  1  0.01172060  0.36612272  0.91841705  1
  Si  Si15  1  0.50952800  0.34812052  0.90937975  1
  Si  Si16  1  0.32690770  0.98492459  0.41858370  1
  Si  Si17  1  0.81510459  0.97843774  0.42082757  1
  Si  Si18  1  0.66603953  0.36278021  0.41406423  1
  Si  Si19  1  0.00864051  0.67045448  0.40897973  1
  Si  Si20  1  0.51084468  0.65341707  0.41914231  1
  S  S0  1  0.14086588  0.00160292  0.25838316  1
  S  S1  1  0.85764824  0.71928468  0.25455598  1
  S  S2  1  0.50261436  0.27836618  0.24788516  1
  S  S3  1  0.64071383  0.27762447  0.75893985  1
  S  S4  1  0.00202881  0.73008672  0.74868860  1
  S  S5  1  0.35869053  0.99808127  0.75537559  1
  S  S6  1  0.98109011  0.32374094  0.58531552  1
  S  S7  1  0.69095976  0.02844543  0.57270327  1
  S  S8  1  0.32814963  0.62882200  0.57606099  1
  S  S9  1  0.47788182  0.63379116  0.08251761  1
  S  S10  1  0.82983164  0.03038688  0.07572276  1
  S  S11  1  0.19010982  0.35077178  0.07266907  1
  S  S12  1  0.17075284  0.97594786  0.92182756  1
  S  S13  1  0.66550931  0.99674378  0.91748292  1
  S  S14  1  0.16590334  0.33356323  0.41766608  1
  O  O0  1  0.08503144  0.99350569  0.30462317  1
  O  O1  1  0.58532556  0.99201715  0.30696870  1
  O  O2  1  0.41584367  0.82427826  0.30728377  1
  O  O3  1  0.90639778  0.83588772  0.30261941  1
  O  O4  1  0.50150389  0.18197196  0.29728908  1
  O  O5  1  0.00543674  0.18650098  0.30994321  1
  O  O6  1  0.08467730  0.17047692  0.80709119  1
  O  O7  1  0.58528809  0.17432025  0.80583128  1
  O  O8  1  0.50510790  0.82394313  0.81021321  1
  O  O9  1  0.00067352  0.82502462  0.79909439  1
  O  O10  1  0.40726458  0.97911538  0.80357206  1
  O  O11  1  0.90978780  0.00623378  0.80742958  1
  O  O12  1  0.39746126  0.99376197  0.70103491  1
  O  O13  1  0.91578027  0.00042104  0.69247728  1
  O  O14  1  0.08431051  0.16274482  0.69261675  1
  O  O15  1  0.60456632  0.20114584  0.70351115  1
  O  O16  1  0.00045027  0.81395452  0.69473077  1
  O  O17  1  0.49962997  0.80193616  0.69696164  1
  O  O18  1  0.41537901  0.83271598  0.19167214  1
  O  O19  1  0.89852445  0.79886857  0.20010448  1
  O  O20  1  -0.00004508  0.19900773  0.19681990  1
  O  O21  1  0.49983831  0.18837435  0.19260887  1
  O  O22  1  0.10633351  0.00872642  0.20247079  1
  O  O23  1  0.58422778  0.00596710  0.19248560  1
  O  O24  1  0.45929936  0.36715772  0.64595164  1
  O  O25  1  0.94421902  0.34053556  0.63933667  1
  O  O26  1  0.24404132  0.12248461  0.63928444  1
  O  O27  1  0.72504142  0.08448103  0.63056807  1
  O  O28  1  0.32884921  0.55455719  0.63095557  1
  O  O29  1  0.80880361  0.52468522  0.63984452  1
  O  O30  1  0.43982858  0.53902537  0.13482946  1
  O  O31  1  0.96190944  0.55178236  0.14432051  1
  O  O32  1  0.30771488  0.09585433  0.13890423  1
  O  O33  1  0.83091659  0.10783446  0.13036841  1
  O  O34  1  0.22590974  0.36892698  0.12954938  1
  O  O35  1  0.74603414  0.36827741  0.13778450  1
  O  O36  1  0.24583773  0.34344500  0.02954684  1
  O  O37  1  0.73684994  0.31197775  0.02827474  1
  O  O38  1  0.42476794  0.53422114  0.03241571  1
  O  O39  1  0.91344988  0.49803065  0.03619426  1
  O  O40  1  0.34523460  0.17036436  0.03138576  1
  O  O41  1  0.82614373  0.13106612  0.02798496  1
  O  O42  1  0.23632545  0.15967325  0.52931513  1
  O  O43  1  0.74869807  0.15242150  0.53133205  1
  O  O44  1  0.32493206  0.51992918  0.52865981  1
  O  O45  1  0.84627055  0.52173661  0.53172535  1
  O  O46  1  0.41312645  0.32899099  0.53763655  1
  O  O47  1  0.92920542  0.30984985  0.53629835  1
  O  O48  1  0.26286918  0.69163028  0.96745642  1
  O  O49  1  0.80041041  0.71942020  0.97670329  1
  O  O50  1  0.08704169  0.48710806  0.96381171  1
  O  O51  1  0.56385178  0.40858679  0.96628426  1
  O  O52  1  0.15908604  0.85745589  0.96896999  1
  O  O53  1  0.64480111  0.88640172  0.96693229  1
  O  O54  1  0.29516217  0.87732943  0.47681924  1
  O  O55  1  0.76218453  0.83116247  0.46748173  1
  O  O56  1  0.14560432  0.40345950  0.46735854  1
  O  O57  1  0.65266645  0.46470514  0.46771406  1
  O  O58  1  0.06429281  0.72429169  0.46552728  1
  O  O59  1  0.58493136  0.68309038  0.46449215  1
  O  O60  1  0.04640363  0.62427236  0.35521899  1
  O  O61  1  0.53006035  0.60171211  0.35764568  1
  O  O62  1  0.26197484  0.90870975  0.36740820  1
  O  O63  1  0.76694175  0.93280215  0.36166349  1
  O  O64  1  0.18289393  0.43591687  0.36680121  1
  O  O65  1  0.69197667  0.47833777  0.35938436  1
  O  O66  1  0.03334455  0.45969286  0.85754980  1
  O  O67  1  0.54561059  0.46806858  0.85552810  1
  O  O68  1  0.19139837  0.92008801  0.86942727  1
  O  O69  1  0.68218641  0.92804657  0.86638002  1
  O  O70  1  0.26526694  0.60303118  0.86105275  1
  O  O71  1  0.76630138  0.62528922  0.86703761  1
  O  O72  1  0.98897738  0.82387906  0.39660771  1
  O  O73  1  0.50592095  0.83034894  0.41282508  1
  O  O74  1  0.41966016  0.01142714  0.40245239  1
  O  O75  1  0.91101389  0.00144840  0.41052740  1
  O  O76  1  0.09037276  0.15995598  0.40819291  1
  O  O77  1  0.58453509  0.17621196  0.40615803  1
  O  O78  1  0.00645521  0.17780030  0.91026165  1
  O  O79  1  0.48860102  0.15436650  0.89788466  1
  O  O80  1  0.09505509  0.99127539  0.91805666  1
  O  O81  1  0.59048243  0.02097768  0.90835220  1
  O  O82  1  0.41079454  0.81891634  0.91016528  1
  O  O83  1  0.92593115  0.82584027  0.90235078  1
  O  O84  1  0.48367528  0.16372950  0.57491528  1
  O  O85  1  0.98443717  0.16030697  0.58783427  1
  O  O86  1  0.09029748  0.02298008  0.59139923  1
  O  O87  1  0.60829736  0.01770556  0.56724871  1
  O  O88  1  0.40563459  0.79626347  0.56990854  1
  O  O89  1  0.91806568  0.81612736  0.59164736  1
  O  O90  1  0.47825625  0.79789357  0.08331626  1
  O  O91  1  0.98379238  0.80472271  0.07366073  1
  O  O92  1  0.41792913  0.01994505  0.09043605  1
  O  O93  1  0.90720898  0.01781160  0.06927776  1
  O  O94  1  0.10687816  0.19905803  0.06757450  1
  O  O95  1  0.59055724  0.15445383  0.09051953  1
  O  O96  1  0.36306443  0.16169978  0.76327666  1
  O  O97  1  0.85963592  0.18122074  0.74975182  1
  O  O98  1  0.23024753  0.29471733  0.75360316  1
  O  O99  1  0.72388165  0.29080240  0.76549086  1
  O  O100  1  0.41972416  0.52371116  0.76214891  1
  O  O101  1  0.92662984  0.55840619  0.75035744  1
  O  O102  1  0.36177917  0.54383975  0.24907158  1
  O  O103  1  0.86145736  0.56386687  0.26262852  1
  O  O104  1  0.42649886  0.29705368  0.24835941  1
  O  O105  1  0.91957416  0.31610370  0.26274498  1
  O  O106  1  0.22426361  0.15501535  0.26560086  1
  O  O107  1  0.72976300  0.16305678  0.25205633  1
  O  O108  1  0.33309887  0.50066514  0.93830045  1
  O  O109  1  0.84077017  0.50218646  0.93088864  1
  O  O110  1  0.41535646  0.32669879  0.92789944  1
  O  O111  1  0.91786109  0.31836426  0.93999854  1
  O  O112  1  0.24293690  0.14699695  0.93741187  1
  O  O113  1  0.73874897  0.16657650  0.92638925  1
  O  O114  1  0.34079390  0.17700162  0.43190150  1
  O  O115  1  0.83695003  0.16647403  0.44101367  1
  O  O116  1  0.23863383  0.30915879  0.42663721  1
  O  O117  1  0.74268754  0.32992316  0.43650808  1
  O  O118  1  0.41644196  0.51276164  0.44081927  1
  O  O119  1  0.91478870  0.50613468  0.42625847  1
  O  O120  1  0.18057919  0.50265351  0.06474026  1
  O  O121  1  0.67507532  0.49376528  0.07644777  1
  O  O122  1  0.07849584  0.65465790  0.06037966  1
  O  O123  1  0.56306724  0.66358546  0.07490723  1
  O  O124  1  0.25229146  0.84882225  0.06145675  1
  O  O125  1  0.75563908  0.85951480  0.07525408  1
  O  O126  1  0.17452901  0.85371808  0.57783436  1
  O  O127  1  0.68162244  0.86053566  0.56490808  1
  O  O128  1  0.25420737  0.65162439  0.57554825  1
  O  O129  1  0.75187887  0.65746387  0.56350652  1
  O  O130  1  0.06773278  0.46323176  0.58009897  1
  O  O131  1  0.57848089  0.50770201  0.56501452  1
  O  O132  1  0.14733401  0.84762845  0.25731507  1
  O  O133  1  0.63593258  0.81768440  0.24446447  1
  O  O134  1  0.27116633  0.70385472  0.24682934  1
  O  O135  1  0.77263920  0.69291147  0.25498338  1
  O  O136  1  0.08562798  0.48550592  0.25137345  1
  O  O137  1  0.57773197  0.44603677  0.24469721  1
  O  O138  1  0.13583071  0.44937733  0.74696260  1
  O  O139  1  0.64695801  0.44397330  0.75900898  1
  O  O140  1  0.07816502  0.71426905  0.74813052  1
  O  O141  1  0.58574534  0.68654815  0.75115681  1
  O  O142  1  0.27248103  0.85652552  0.75810175  1
  O  O143  1  0.76863055  0.83714326  0.74506767  1
loop_
_geom_bond_atom_site_label_1
_geom_bond_atom_site_label_2
_geom_bond_distance
_geom_bond_site_symmetry_2
Na0 O136 2.342681 1_555
Na0 O105 2.377805 1_455
Na0 O103 2.422652 1_455
Na0 O60 2.429325 1_555
Na0 O132 2.443463 1_555
Na0 O31 2.775648 1_455
Na1 O102 2.262508 1_555
Na1 O133 2.281781 1_555
Na1 O61 2.347033 1_555
Na1 O104 2.700448 1_555
Na1 O137 2.780610 1_555
Na2 O97 2.251765 1_555
Na2 O138 2.281066 1_655
Na2 O66 2.578378 1_655
Na2 O101 2.640281 1_555
Na2 O140 2.746042 1_655
Na2 O25 2.845929 1_555
Na3 O141 2.336986 1_555
Na3 O100 2.391763 1_555
Na3 O96 2.410357 1_555
Na3 O139 2.444684 1_555
Na3 O67 2.524968 1_555
Na3 O24 2.653445 1_555
Na4 O54 2.419321 1_555
Na4 O84 2.452004 1_565
Na4 O126 2.508459 1_555
Na4 O128 2.679991 1_555
Na4 O88 2.724049 1_555
Na4 O46 2.836915 1_565
Na4 O26 2.927837 1_565
Na5 O91 2.473075 1_555
Na5 O121 2.474171 1_555
Na5 O49 2.493102 1_554
Na5 O125 2.686341 1_555
Na5 O93 2.771209 1_565
Na5 O35 2.828836 1_555
Na5 O39 2.865397 1_555
Na6 O86 2.560238 1_565
Na6 O89 2.572507 1_455
Na6 O85 2.756886 1_465
Na6 O76 2.798071 1_565
Na6 O72 2.816465 1_455
Na6 O75 2.853419 1_465
Na7 O84 2.462973 1_555
Na7 O77 2.540401 1_555
Na7 O73 2.586589 1_545
Na7 O74 2.595256 1_555
Na7 O88 2.637299 1_545
Na7 O87 2.670434 1_555
Na8 O91 2.415885 1_556
Na8 O93 2.505546 1_566
Na8 O83 2.561612 1_555
Na8 O80 2.562574 1_655
Na8 O78 2.638992 1_665
Na8 O94 2.692610 1_666
Na9 O95 2.449105 1_555
Na9 O92 2.491393 1_555
Na9 O90 2.675526 1_545
Na9 O81 2.847738 1_554
Na9 O79 2.883716 1_554
Na9 O82 2.942430 1_544
Na10 O100 2.262853 1_555
Na10 O98 2.345392 1_555
Na10 O96 2.742373 1_555
Na11 O99 2.512213 1_555
Na11 O109 2.641739 1_555
Na11 O113 2.650784 1_555
Na11 O97 2.696111 1_555
Na11 O101 2.827104 1_555
Na11 O111 2.942889 1_555
Na12 O106 2.589553 1_555
Na12 O116 2.604325 1_555
Na12 O114 2.624534 1_555
Na12 O102 2.792782 1_555
Na12 O118 2.844729 1_555
Na12 O104 2.892044 1_555
Na13 O105 2.320486 1_555
Na13 O107 2.388533 1_555
Na13 O103 2.781895 1_555
Na13 O115 2.916600 1_555
Na13 O119 2.951879 1_555
Na13 O63 2.982128 1_545
Na13 O117 3.013417 1_555
Na14 O134 2.304667 1_555
Na14 O136 2.331314 1_555
Na14 O132 2.773067 1_555
Na15 O133 2.454862 1_555
Na15 O137 2.554306 1_555
Na15 O135 2.764978 1_555
Na15 O121 2.778012 1_555
Na15 O125 2.830706 1_555
Na15 O123 2.929823 1_555
Na16 O126 2.546369 1_555
Na16 O130 2.638426 1_555
Na16 O128 2.650984 1_555
Na16 O138 2.730259 1_555
Na16 O140 2.758443 1_555
Na16 O142 2.990804 1_555
Na17 O143 2.421705 1_555
Na17 O141 2.499546 1_555
Na17 O127 2.849156 1_555
Na17 O129 2.974274 1_555
Na17 O131 2.997293 1_555
Na17 O139 3.012133 1_555
La0 O17 2.160554 1_555
La0 O15 2.381929 1_565
La0 O84 2.401631 1_565
La0 O87 2.460624 1_565
La0 O12 2.475545 1_555
La0 O88 2.494408 1_555
La1 O20 2.144045 1_555
La1 O22 2.370818 1_555
La1 O91 2.419006 1_445
La1 O19 2.419931 1_445
La1 O94 2.498315 1_555
La1 O93 2.527047 1_455
La2 O26 2.237182 1_555
La2 O98 2.360423 1_555
La2 O100 2.370416 1_555
La2 O28 2.379330 1_555
La2 O24 2.379823 1_555
La2 O96 2.704407 1_555
La3 O29 2.187912 1_555
La3 O97 2.406349 1_555
La3 O27 2.411110 1_555
La3 O25 2.473474 1_555
La3 O99 2.505564 1_555
La3 O101 2.573987 1_555
La4 O32 2.226503 1_555
La4 O102 2.344061 1_555
La4 O106 2.460408 1_555
La4 O30 2.473761 1_555
La4 O34 2.474510 1_555
La4 O104 2.497553 1_555
La5 O35 2.254125 1_555
La5 O107 2.318118 1_555
La5 O105 2.363712 1_555
La5 O33 2.390733 1_555
La5 O31 2.442270 1_555
La5 O103 2.648986 1_555
La6 O51 2.207210 1_554
La6 O121 2.260176 1_555
La6 O49 2.320559 1_554
La6 O125 2.514455 1_555
La6 O123 2.587296 1_555
La6 O53 2.609578 1_554
La7 O58 2.201137 1_555
La7 O126 2.276518 1_555
La7 O54 2.298503 1_555
La7 O128 2.542688 1_555
La7 O56 2.586311 1_555
La7 O130 2.611758 1_555
La8 O62 2.261765 1_555
La8 O134 2.347385 1_555
La8 O136 2.353874 1_555
La8 O60 2.387416 1_555
La8 O64 2.446085 1_555
La8 O132 2.496757 1_555
La9 O63 2.259524 1_555
La9 O65 2.292792 1_555
La9 O61 2.372439 1_555
La9 O133 2.519316 1_555
La9 O135 2.526563 1_555
La9 O137 2.764575 1_555
La10 O70 2.224091 1_555
La10 O66 2.319881 1_555
La10 O138 2.350871 1_555
La10 O142 2.484890 1_555
La10 O68 2.629332 1_555
La10 O140 2.706089 1_555
La11 O71 2.296163 1_555
La11 O141 2.335067 1_555
La11 O143 2.342187 1_555
La11 O67 2.398990 1_555
La11 O69 2.445522 1_555
La11 O139 2.454668 1_555
O0 S0 1.473286 1_565
O0 Ta0 2.200116 1_465
O1 Si0 1.667059 1_555
O1 Ta1 1.925154 1_555
O2 Si1 1.666042 1_555
O2 Ta1 1.961793 1_555
O3 S1 1.514150 1_555
O3 Ta0 2.032586 1_565
O4 S2 1.463857 1_555
O4 Ta1 2.354881 1_545
O5 Si2 1.696026 1_555
O5 Ta0 1.895847 1_455
O6 Si3 1.685735 1_555
O6 Ta2 1.905734 1_455
O7 S3 1.483361 1_555
O7 Ta3 2.165658 1_545
O8 Si4 1.702702 1_555
O8 Ta3 1.886875 1_555
O9 S4 1.482415 1_555
O9 Ta2 2.222266 1_465
O10 S5 1.518707 1_555
O10 Ta3 2.028777 1_555
O11 Si5 1.723056 1_555
O11 Ta2 1.857447 1_555
O12 S5 1.476809 1_555
O13 Si5 1.658003 1_555
O13 Ta4 1.938359 1_555
O14 Si3 1.674501 1_555
O14 Ta4 1.934300 1_455
O15 S3 1.481943 1_555
O16 S4 1.502402 1_555
O16 Ta4 2.116819 1_465
O17 Si4 1.625842 1_555
O18 Si1 1.687345 1_555
O18 Ta5 1.908971 1_565
O19 S1 1.485525 1_555
O20 Si2 1.631245 1_555
O21 S2 1.532184 1_555
O21 Ta5 2.024737 1_555
O22 S0 1.488498 1_555
O23 Si0 1.705197 1_545
O23 Ta5 1.905687 1_555
O24 Si6 1.614966 1_555
O25 S6 1.486925 1_555
O26 Si7 1.605100 1_555
O27 S7 1.489617 1_555
O28 S8 1.473299 1_555
O29 Si8 1.620029 1_555
O30 S9 1.472949 1_555
O31 Si9 1.605630 1_555
O32 Si10 1.610142 1_555
O33 S10 1.468999 1_555
O34 S11 1.475451 1_555
O35 Si11 1.605421 1_555
O36 S11 1.467996 1_555
O36 Ta6 2.160073 1_554
O37 Si11 1.695320 1_555
O37 Ta7 1.944534 1_554
O38 S9 1.521532 1_555
O38 Ta6 2.089916 1_554
O39 Si9 1.697247 1_555
O39 Ta7 1.866114 1_554
O40 Si10 1.690088 1_555
O40 Ta6 1.918957 1_554
O41 S10 1.486716 1_555
O41 Ta7 2.146432 1_554
O42 Si7 1.683413 1_555
O42 Ta8 1.959991 1_555
O43 S7 1.473994 1_555
O43 Ta9 2.155173 1_555
O44 S8 1.481802 1_555
O44 Ta8 2.154485 1_555
O45 Si8 1.673300 1_555
O45 Ta9 1.942901 1_555
O46 Si6 1.703192 1_555
O46 Ta8 1.868988 1_555
O47 S6 1.473247 1_555
O47 Ta9 2.431562 1_555
O48 Si12 1.642567 1_555
O48 Ta10 1.972015 1_556
O49 Si13 1.622435 1_555
O50 Si14 1.669854 1_555
O50 Ta10 1.996866 1_556
O51 Si15 1.607260 1_555
O52 S12 1.499988 1_555
O52 Ta10 2.094174 1_556
O53 S13 1.469911 1_555
O54 Si16 1.625302 1_555
O55 Si17 1.637327 1_555
O55 Ta11 1.987948 1_555
O56 S14 1.470773 1_555
O57 Si18 1.663293 1_555
O57 Ta11 1.889335 1_555
O58 Si19 1.611282 1_555
O59 Si20 1.655114 1_555
O59 Ta11 1.999867 1_555
O60 Si19 1.600453 1_555
O61 Si20 1.619982 1_555
O62 Si16 1.602286 1_555
O63 Si17 1.602008 1_555
O64 S14 1.463555 1_555
O65 Si18 1.589538 1_555
O66 Si14 1.622745 1_555
O67 Si15 1.596591 1_555
O68 S12 1.459217 1_555
O69 S13 1.462163 1_555
O70 Si12 1.603620 1_555
O71 Si13 1.601368 1_555
O72 Si19 1.649709 1_655
O72 Ta0 1.920805 1_565
O73 Si20 1.680724 1_555
O73 Ta1 1.921491 1_555
O74 Si16 1.644671 1_545
O74 Ta1 1.957132 1_545
O75 Si17 1.688774 1_545
O75 Ta0 1.896250 1_555
O76 S14 1.522233 1_555
O76 Ta0 2.063418 1_455
O77 Si18 1.631142 1_555
O77 Ta1 2.007141 1_545
O78 Si14 1.694725 1_555
O78 Ta2 1.932125 1_455
O79 Si15 1.644681 1_555
O79 Ta3 1.929889 1_545
O80 S12 1.474581 1_555
O80 Ta2 2.526564 1_465
O81 S13 1.524070 1_545
O81 Ta3 2.058355 1_545
O82 Si12 1.672380 1_555
O82 Ta3 1.913430 1_555
O83 Si13 1.672356 1_555
O83 Ta2 1.944515 1_565
O84 Si6 1.637887 1_555
O85 S6 1.535304 1_555
O85 Ta4 2.091485 1_555
O86 Si7 1.673491 1_555
O86 Ta4 1.983144 1_455
O87 S7 1.483929 1_555
O88 S8 1.494295 1_555
O89 Si8 1.672541 1_555
O89 Ta4 2.013926 1_565
O90 S9 1.504861 1_555
O90 Ta5 2.269124 1_565
O91 Si9 1.632868 1_555
O92 Si10 1.652112 1_555
O92 Ta5 2.068249 1_555
O93 S10 1.494523 1_555
O94 S11 1.475602 1_555
O95 Si11 1.670300 1_555
O95 Ta5 2.017034 1_555
O96 S5 1.476334 1_545
O97 Si5 1.632858 1_555
O98 Si3 1.596492 1_555
O99 S3 1.485983 1_555
O100 Si4 1.625227 1_555
O101 S4 1.494049 1_655
O102 Si1 1.648896 1_555
O103 S1 1.478057 1_555
O104 S2 1.496647 1_555
O105 Si2 1.625689 1_655
O106 S0 1.489129 1_555
O107 Si0 1.602231 1_545
O108 Si12 1.640280 1_555
O108 Ta6 1.943427 1_555
O109 Si13 1.676501 1_555
O109 Ta7 1.904885 1_555
O110 Si15 1.701147 1_555
O110 Ta6 1.853890 1_555
O111 Si14 1.636641 1_655
O111 Ta7 1.985360 1_555
O112 S12 1.513536 1_545
O112 Ta6 2.069134 1_555
O113 S13 1.483228 1_545
O113 Ta7 2.216153 1_555
O114 Si16 1.681149 1_545
O114 Ta8 1.895336 1_555
O115 Si17 1.636318 1_545
O115 Ta9 1.933324 1_555
O116 S14 1.482894 1_555
O116 Ta8 2.232751 1_555
O117 Si18 1.676194 1_555
O117 Ta9 1.869078 1_555
O118 Si20 1.645784 1_555
O118 Ta8 1.961926 1_555
O119 Si19 1.681206 1_655
O119 Ta9 1.873576 1_555
O120 S11 1.504184 1_555
O120 Ta10 2.069941 1_555
O121 Si11 1.636776 1_555
O122 Si9 1.670153 1_455
O122 Ta10 1.933590 1_555
O123 S9 1.463240 1_555
O124 Si10 1.657609 1_565
O124 Ta10 1.953100 1_555
O125 S10 1.480395 1_565
O126 Si7 1.634497 1_565
O127 S7 1.475762 1_565
O127 Ta11 2.213361 1_555
O128 S8 1.479419 1_555
O129 Si8 1.641049 1_555
O129 Ta11 1.999245 1_555
O130 S6 1.470808 1_455
O131 Si6 1.651572 1_555
O131 Ta11 1.972575 1_555
O132 S0 1.478465 1_565
O133 Si0 1.637918 1_555
O134 Si1 1.604157 1_555
O135 S1 1.461496 1_555
O136 Si2 1.626217 1_555
O137 S2 1.471691 1_555
O138 Si3 1.651146 1_555
O139 S3 1.474762 1_555
O140 S4 1.481802 1_555
O141 Si4 1.626153 1_555
O142 S5 1.468542 1_555
O143 Si5 1.593769 1_565
