# generated using pymatgen
data_Mg2PHO5
_symmetry_space_group_name_H-M   'P 1'
_cell_length_a   6.13833215
_cell_length_b   7.37119249
_cell_length_c   8.21832262
_cell_angle_alpha   90.00000000
_cell_angle_beta   90.00000000
_cell_angle_gamma   90.00000000
_symmetry_Int_Tables_number   1
_chemical_formula_structural   Mg2PHO5
_chemical_formula_sum   'Mg8 P4 H4 O20'
_cell_volume   371.85302876
_cell_formula_units_Z   4
loop_
 _symmetry_equiv_pos_site_id
 _symmetry_equiv_pos_as_xyz
  1  'x, y, z'
loop_
 _atom_site_type_symbol
 _atom_site_label
 _atom_site_symmetry_multiplicity
 _atom_site_fract_x
 _atom_site_fract_y
 _atom_site_fract_z
 _atom_site_occupancy
  Mg  Mg0  1  0.25000000  0.57821881  0.17774040  1
  Mg  Mg1  1  0.75000000  0.42178119  0.82225960  1
  Mg  Mg2  1  0.75000000  0.07821881  0.32225960  1
  Mg  Mg3  1  0.25000000  0.92178119  0.67774040  1
  Mg  Mg4  1  0.50000000  -0.00000000  0.00000000  1
  Mg  Mg5  1  0.00000000  -0.00000000  0.00000000  1
  Mg  Mg6  1  0.50000000  0.50000000  0.50000000  1
  Mg  Mg7  1  0.00000000  0.50000000  0.50000000  1
  P  P0  1  0.25000000  0.33355632  0.82355782  1
  P  P1  1  0.75000000  0.66644368  0.17644218  1
  P  P2  1  0.75000000  0.83355632  0.67644218  1
  P  P3  1  0.25000000  0.16644368  0.32355782  1
  H  H0  1  0.25000000  0.73239410  0.94780800  1
  H  H1  1  0.75000000  0.26760590  0.05219200  1
  H  H2  1  0.75000000  0.23239410  0.55219200  1
  H  H3  1  0.25000000  0.76760590  0.44780800  1
  O  O0  1  0.25000000  0.81373203  0.04067231  1
  O  O1  1  0.75000000  0.18626797  0.95932769  1
  O  O2  1  0.75000000  0.31373203  0.45932769  1
  O  O3  1  0.25000000  0.68626797  0.54067231  1
  O  O4  1  0.25000000  0.44010360  0.97969334  1
  O  O5  1  0.75000000  0.55989640  0.02030666  1
  O  O6  1  0.75000000  0.94010360  0.52030666  1
  O  O7  1  0.25000000  0.05989640  0.47969334  1
  O  O8  1  0.45385587  0.12473213  0.22157286  1
  O  O9  1  0.95385587  0.87526787  0.77842714  1
  O  O10  1  0.54614413  0.62473213  0.27842714  1
  O  O11  1  0.04614413  0.37526787  0.72157286  1
  O  O12  1  0.54614413  0.87526787  0.77842714  1
  O  O13  1  0.04614413  0.12473213  0.22157286  1
  O  O14  1  0.45385587  0.37526787  0.72157286  1
  O  O15  1  0.95385587  0.62473213  0.27842714  1
  O  O16  1  0.25000000  0.37259918  0.36542852  1
  O  O17  1  0.75000000  0.62740082  0.63457148  1
  O  O18  1  0.75000000  0.87259918  0.13457148  1
  O  O19  1  0.25000000  0.12740082  0.86542852  1
loop_
_geom_bond_atom_site_label_1
_geom_bond_atom_site_label_2
_geom_bond_distance
_geom_bond_site_symmetry_2
Mg0 O4 1.919793 1_554
Mg0 O15 2.026519 1_455
Mg0 O10 2.026519 1_555
Mg0 O0 2.069463 1_555
Mg0 O16 2.162517 1_555
Mg1 O5 1.919793 1_556
Mg1 O14 2.026519 1_555
Mg1 O11 2.026519 1_655
Mg1 O1 2.069463 1_555
Mg1 O17 2.162517 1_555
Mg2 O6 1.919793 1_545
Mg2 O8 2.026519 1_555
Mg2 O13 2.026519 1_655
Mg2 O2 2.069463 1_555
Mg2 O18 2.162517 1_545
Mg3 O7 1.919793 1_565
Mg3 O9 2.026519 1_455
Mg3 O12 2.026519 1_555
Mg3 O3 2.069463 1_555
Mg3 O19 2.162517 1_565
Mg4 O12 2.059480 1_544
Mg4 O8 2.059480 1_555
Mg4 O0 2.086109 1_545
Mg4 O1 2.086109 1_554
Mg4 O18 2.111865 1_545
Mg4 O19 2.111865 1_554
Mg5 O9 2.059480 1_444
Mg5 O13 2.059480 1_555
Mg5 O0 2.086109 1_545
Mg5 O1 2.086109 1_454
Mg5 O18 2.111865 1_445
Mg5 O19 2.111865 1_554
Mg6 O10 2.059480 1_555
Mg6 O14 2.059480 1_555
Mg6 O2 2.086109 1_555
Mg6 O3 2.086109 1_555
Mg6 O17 2.111865 1_555
Mg6 O16 2.111865 1_555
Mg7 O11 2.059480 1_555
Mg7 O15 2.059480 1_455
Mg7 O2 2.086109 1_455
Mg7 O3 2.086109 1_555
Mg7 O16 2.111865 1_555
Mg7 O17 2.111865 1_455
H0 O0 0.970529 1_556
H1 O1 0.970529 1_554
H2 O2 0.970529 1_555
H3 O3 0.970529 1_555
O4 P0 1.504444 1_555
O5 P1 1.504444 1_555
O6 P2 1.504444 1_555
O7 P3 1.504444 1_555
O8 P3 1.537160 1_555
O9 P2 1.537160 1_555
O10 P1 1.537160 1_555
O11 P0 1.537160 1_555
O12 P2 1.537160 1_555
O13 P3 1.537160 1_555
O14 P0 1.537160 1_555
O15 P1 1.537160 1_555
O16 P3 1.558085 1_555
O17 P2 1.558085 1_555
O18 P1 1.558085 1_555
O19 P0 1.558085 1_555
