# generated using pymatgen
data_TbMnSi
_symmetry_space_group_name_H-M   'P 1'
_cell_length_a   3.90815999
_cell_length_b   3.90815999
_cell_length_c   7.30760943
_cell_angle_alpha   90.00000000
_cell_angle_beta   90.00000000
_cell_angle_gamma   90.00000000
_symmetry_Int_Tables_number   1
_chemical_formula_structural   TbMnSi
_chemical_formula_sum   'Tb2 Mn2 Si2'
_cell_volume   111.61434017
_cell_formula_units_Z   2
loop_
 _symmetry_equiv_pos_site_id
 _symmetry_equiv_pos_as_xyz
  1  'x, y, z'
loop_
 _atom_site_type_symbol
 _atom_site_label
 _atom_site_symmetry_multiplicity
 _atom_site_fract_x
 _atom_site_fract_y
 _atom_site_fract_z
 _atom_site_occupancy
  Tb  Tb0  1  0.50000000  -0.00000000  0.66553547  1
  Tb  Tb1  1  -0.00000000  0.50000000  0.33446453  1
  Mn  Mn0  1  0.50000000  0.50000000  -0.00000000  1
  Mn  Mn1  1  -0.00000000  0.00000000  -0.00000000  1
  Si  Si0  1  0.00000000  0.50000000  0.79695292  1
  Si  Si1  1  0.50000000  -0.00000000  0.20304708  1
loop_
_geom_bond_atom_site_label_1
_geom_bond_atom_site_label_2
_geom_bond_distance
_geom_bond_site_symmetry_2
Mn0 Si1 2.453581 1_565
Mn0 Si0 2.453581 1_654
Mn0 Si1 2.453581 1_555
Mn0 Si0 2.453581 1_554
Mn0 Tb0 3.129254 1_554
Mn0 Tb0 3.129254 1_564
Mn0 Tb1 3.129254 1_555
Mn0 Tb1 3.129254 1_655
Mn1 Si1 2.453581 1_455
Mn1 Si1 2.453581 1_555
Mn1 Si0 2.453581 1_554
Mn1 Si0 2.453581 1_544
Mn1 Tb0 3.129254 1_554
Mn1 Tb1 3.129254 1_555
Mn1 Tb1 3.129254 1_545
Mn1 Tb0 3.129254 1_454
Si0 Tb0 2.925598 1_555
Si0 Tb0 2.925598 1_455
Si0 Tb0 2.925598 1_565
Si0 Tb0 2.925598 1_465
Si0 Tb1 3.379685 1_555
Si1 Tb1 2.925598 1_555
Si1 Tb1 2.925598 1_655
Si1 Tb1 2.925598 1_545
Si1 Tb1 2.925598 1_645
Si1 Tb0 3.379685 1_555
