# generated using pymatgen
data_Na2ZnInP(SO6)2
_symmetry_space_group_name_H-M   'P 1'
_cell_length_a   8.95873039
_cell_length_b   8.92855852
_cell_length_c   22.82932819
_cell_angle_alpha   89.93336283
_cell_angle_beta   90.00000000
_cell_angle_gamma   120.11184798
_symmetry_Int_Tables_number   1
_chemical_formula_structural   Na2ZnInP(SO6)2
_chemical_formula_sum   'Na12 Zn6 In6 P6 S12 O72'
_cell_volume   1579.64904505
_cell_formula_units_Z   6
loop_
 _symmetry_equiv_pos_site_id
 _symmetry_equiv_pos_as_xyz
  1  'x, y, z'
loop_
 _atom_site_type_symbol
 _atom_site_label
 _atom_site_symmetry_multiplicity
 _atom_site_fract_x
 _atom_site_fract_y
 _atom_site_fract_z
 _atom_site_occupancy
  Na  Na0  1  0.00043990  0.63792629  0.24508105  1
  Na  Na1  1  0.63748639  0.63792629  0.74508105  1
  Na  Na2  1  0.66179752  0.95987133  0.58112563  1
  Na  Na3  1  0.29807481  0.95987133  0.08112563  1
  Na  Na4  1  0.69407227  0.02852251  0.91190494  1
  Na  Na5  1  0.33444924  0.02852251  0.41190494  1
  Na  Na6  1  0.98650419  0.99192842  0.49665304  1
  Na  Na7  1  0.00542422  0.99192842  0.99665304  1
  Na  Na8  1  0.66140116  0.32072782  0.82998220  1
  Na  Na9  1  0.65932766  0.32072782  0.32998220  1
  Na  Na10  1  0.33468691  0.66089542  0.16360615  1
  Na  Na11  1  0.32620751  0.66089542  0.66360615  1
  Zn  Zn0  1  0.99340943  0.00334027  0.34960580  1
  Zn  Zn1  1  0.00993084  0.00334027  0.84960580  1
  Zn  Zn2  1  0.66820024  0.32864453  0.68268246  1
  Zn  Zn3  1  0.66044529  0.32864453  0.18268246  1
  Zn  Zn4  1  0.31411209  0.66354747  0.01595251  1
  Zn  Zn5  1  0.34943439  0.66354747  0.51595251  1
  In  In0  1  0.99792510  0.99631323  0.65088569  1
  In  In1  1  0.99838813  0.99631323  0.15088569  1
  In  In2  1  0.66780919  0.34103394  0.98426393  1
  In  In3  1  0.67322575  0.34103394  0.48426393  1
  In  In4  1  0.34420394  0.67731958  0.31740931  1
  In  In5  1  0.33311464  0.67731958  0.81740931  1
  P  P0  1  0.29935345  0.00618090  0.25189849  1
  P  P1  1  0.70682744  0.00618090  0.75189849  1
  P  P2  1  0.66403672  0.62506343  0.58610939  1
  P  P3  1  0.96102771  0.62506343  0.08610939  1
  P  P4  1  0.32974683  0.96586842  0.91953526  1
  P  P5  1  0.63612059  0.96586842  0.41953526  1
  S  S0  1  0.70451807  0.70338629  0.25109797  1
  S  S1  1  0.99888140  0.29454766  0.25095087  1
  S  S2  1  0.29566627  0.29454766  0.75095087  1
  S  S3  1  0.99886822  0.70338629  0.75109797  1
  S  S4  1  0.96652107  0.33882296  0.58422384  1
  S  S5  1  0.36936578  0.03713398  0.58339317  1
  S  S6  1  0.66776920  0.03713398  0.08339317  1
  S  S7  1  0.37230289  0.33882296  0.08422384  1
  S  S8  1  0.62661837  0.66677098  0.91709565  1
  S  S9  1  0.04005636  0.37020724  0.91722752  1
  S  S10  1  0.33014988  0.37020724  0.41722752  1
  S  S11  1  0.04015160  0.66677098  0.41709565  1
  O  O0  1  0.21148685  0.02479262  0.30729649  1
  O  O1  1  0.81340590  0.78684775  0.30259638  1
  O  O2  1  0.97575918  0.18941358  0.30302849  1
  O  O3  1  0.21365440  0.18941358  0.80302849  1
  O  O4  1  0.97344186  0.78684775  0.80259638  1
  O  O5  1  0.81330577  0.02479262  0.80729649  1
  O  O6  1  0.78169188  0.96683315  0.69536256  1
  O  O7  1  0.19352719  0.21983078  0.69659356  1
  O  O8  1  0.03292869  0.80884148  0.69684789  1
  O  O9  1  0.77591279  0.80884148  0.19684789  1
  O  O10  1  0.02630359  0.21983078  0.19659356  1
  O  O11  1  0.18514127  0.96683315  0.19536256  1
  O  O12  1  0.88396859  0.36021881  0.63671292  1
  O  O13  1  0.48309437  0.12147733  0.63418304  1
  O  O14  1  0.64399579  0.52123445  0.64239912  1
  O  O15  1  0.87723966  0.52123445  0.14239912  1
  O  O16  1  0.63838396  0.12147733  0.13418304  1
  O  O17  1  0.47625122  0.36021881  0.13671292  1
  O  O18  1  0.44308807  0.29758435  0.03116790  1
  O  O19  1  0.85268566  0.54716033  0.03036647  1
  O  O20  1  0.69539326  0.13688957  0.02796717  1
  O  O21  1  0.44149731  0.13688957  0.52796717  1
  O  O22  1  0.69447567  0.54716033  0.53036647  1
  O  O23  1  0.85449728  0.29758435  0.53116790  1
  O  O24  1  0.53885389  0.69002512  0.96799091  1
  O  O25  1  0.14499597  0.45137788  0.96943330  1
  O  O26  1  0.30810731  0.86074003  0.97583116  1
  O  O27  1  0.55263172  0.86074003  0.47583116  1
  O  O28  1  0.30638091  0.45137788  0.46943330  1
  O  O29  1  0.15117024  0.69002512  0.46799091  1
  O  O30  1  0.11125894  0.63718522  0.36129254  1
  O  O31  1  0.51469905  0.88873811  0.36532445  1
  O  O32  1  0.35755369  0.47370998  0.36300361  1
  O  O33  1  0.11615529  0.47370998  0.86300361  1
  O  O34  1  0.37403806  0.88873811  0.86532445  1
  O  O35  1  0.52592528  0.63718522  0.86129254  1
  O  O36  1  0.02953430  0.82756387  0.41190840  1
  O  O37  1  0.81398073  0.98371823  0.41085109  1
  O  O38  1  0.17820116  0.19292607  0.41215518  1
  O  O39  1  0.01472491  0.19292607  0.91215518  1
  O  O40  1  0.16973750  0.98371823  0.91085109  1
  O  O41  1  0.79802956  0.82756387  0.91190840  1
  O  O42  1  0.98005394  0.17655212  0.58878514  1
  O  O43  1  0.19667408  0.02199179  0.58933292  1
  O  O44  1  0.82700156  0.81474392  0.58779616  1
  O  O45  1  0.98774237  0.81474392  0.08779616  1
  O  O46  1  0.82531770  0.02199179  0.08933292  1
  O  O47  1  0.19649819  0.17655212  0.08878514  1
  O  O48  1  0.68523803  0.16532832  0.74415077  1
  O  O49  1  0.47214022  0.31936699  0.74571616  1
  O  O50  1  0.83841779  0.53260505  0.74515190  1
  O  O51  1  0.69418825  0.53260505  0.24515190  1
  O  O52  1  0.84722777  0.31936699  0.24571616  1
  O  O53  1  0.48009128  0.16532832  0.24415077  1
  O  O54  1  0.64753676  0.51209722  0.92091196  1
  O  O55  1  0.86260723  0.34986603  0.92103069  1
  O  O56  1  0.50370280  0.14683424  0.92330279  1
  O  O57  1  0.64313244  0.14683424  0.42330279  1
  O  O58  1  0.48725980  0.34986603  0.42103069  1
  O  O59  1  0.86456146  0.51209722  0.42091196  1
  O  O60  1  0.35562002  0.49320039  0.07639755  1
  O  O61  1  0.14624574  0.65022014  0.08079456  1
  O  O62  1  0.51036341  0.86276276  0.07826980  1
  O  O63  1  0.35239834  0.86276276  0.57826980  1
  O  O64  1  0.50397340  0.65022014  0.58079456  1
  O  O65  1  0.13757936  0.49320039  0.57639755  1
  O  O66  1  0.30489828  0.83092301  0.25465116  1
  O  O67  1  0.52775718  0.67986892  0.25532462  1
  O  O68  1  0.15728117  0.47317773  0.25538633  1
  O  O69  1  0.31589556  0.47317773  0.75538633  1
  O  O70  1  0.15211074  0.67986892  0.75532462  1
  O  O71  1  0.52602373  0.83092301  0.75465116  1
loop_
_geom_bond_atom_site_label_1
_geom_bond_atom_site_label_2
_geom_bond_distance
_geom_bond_site_symmetry_2
Na0 O66 2.396161 1_555
Na0 O51 2.413097 1_455
Na0 O52 2.461057 1_455
Na0 O68 2.503284 1_555
Na0 O15 2.578886 1_455
Na0 O11 2.786910 1_555
Na0 O30 2.833869 1_555
Na0 O1 2.922187 1_455
Na1 O71 2.396168 1_555
Na1 O50 2.413106 1_555
Na1 O49 2.461057 1_555
Na1 O69 2.503291 1_555
Na1 O14 2.578888 1_555
Na1 O6 2.786910 1_555
Na1 O35 2.833872 1_555
Na1 O4 2.922187 1_555
Na2 O64 2.391804 1_555
Na2 O44 2.411739 1_555
Na2 O63 2.455147 1_555
Na2 O42 2.523640 1_565
Na2 O27 2.579638 1_555
Na2 O6 2.809334 1_555
Na2 O23 2.853413 1_565
Na2 O13 2.904152 1_565
Na3 O61 2.391804 1_555
Na3 O45 2.411747 1_455
Na3 O62 2.455129 1_555
Na3 O47 2.523647 1_565
Na3 O26 2.579634 1_554
Na3 O11 2.809338 1_555
Na3 O18 2.853413 1_565
Na3 O16 2.904152 1_565
Na4 O41 2.400723 1_545
Na4 O56 2.429098 1_555
Na4 O39 2.485125 1_655
Na4 O55 2.491942 1_555
Na4 O5 2.623207 1_555
Na4 O34 2.705812 1_545
Na4 O20 2.819803 1_556
Na4 O24 2.912296 1_545
Na5 O36 2.400716 1_545
Na5 O57 2.429115 1_555
Na5 O38 2.485117 1_555
Na5 O58 2.491941 1_555
Na5 O0 2.623203 1_555
Na5 O31 2.705812 1_545
Na5 O21 2.819806 1_555
Na5 O29 2.912296 1_545
Na6 O37 2.473414 1_555
Na6 O44 2.568693 1_555
Na6 O36 2.572828 1_655
Na6 O38 2.605891 1_665
Na6 O42 2.692250 1_565
Na6 O43 2.754650 1_665
Na7 O40 2.473414 1_555
Na7 O45 2.568693 1_456
Na7 O41 2.572828 1_455
Na7 O39 2.605891 1_565
Na7 O47 2.692250 1_566
Na7 O46 2.754650 1_466
Na8 O48 2.472630 1_555
Na8 O49 2.560301 1_555
Na8 O56 2.595526 1_555
Na8 O50 2.612556 1_555
Na8 O55 2.677325 1_555
Na8 O54 2.732276 1_555
Na9 O53 2.472630 1_555
Na9 O52 2.560301 1_555
Na9 O57 2.595526 1_555
Na9 O51 2.612556 1_555
Na9 O58 2.677325 1_555
Na9 O59 2.732276 1_555
Na10 O61 2.504429 1_555
Na10 O60 2.555271 1_555
Na10 O62 2.581959 1_555
Na10 O68 2.654118 1_555
Na10 O66 2.666428 1_555
Na10 O67 2.666750 1_555
Na11 O64 2.504429 1_555
Na11 O65 2.555271 1_555
Na11 O63 2.581959 1_555
Na11 O69 2.654118 1_555
Na11 O71 2.666428 1_555
Na11 O70 2.666750 1_555
In0 O6 2.083430 1_555
In0 O8 2.126901 1_655
In0 O44 2.135876 1_555
In0 O7 2.153655 1_665
In0 O43 2.187953 1_665
In0 O42 2.208737 1_565
In1 O11 2.083430 1_655
In1 O9 2.126901 1_555
In1 O45 2.135876 1_555
In1 O10 2.153655 1_665
In1 O46 2.187953 1_565
In1 O47 2.208737 1_665
In2 O19 2.045495 1_556
In2 O56 2.133677 1_555
In2 O18 2.136704 1_556
In2 O54 2.175017 1_555
In2 O20 2.196932 1_556
In2 O55 2.235463 1_555
In3 O22 2.045495 1_555
In3 O57 2.133677 1_555
In3 O23 2.136704 1_555
In3 O59 2.175017 1_555
In3 O21 2.196932 1_555
In3 O58 2.235463 1_555
In4 O31 2.050522 1_555
In4 O66 2.130161 1_555
In4 O32 2.148583 1_555
In4 O67 2.162368 1_555
In4 O30 2.176234 1_555
In4 O68 2.252728 1_555
In5 O34 2.050522 1_555
In5 O71 2.130161 1_555
In5 O33 2.148583 1_555
In5 O70 2.162368 1_555
In5 O35 2.176234 1_555
In5 O69 2.252728 1_555
O0 P0 1.542226 1_555
O0 Zn0 2.100158 1_455
O1 S0 1.470293 1_555
O1 Zn0 2.089444 1_565
O2 S1 1.462818 1_555
O2 Zn0 2.043353 1_555
O3 S2 1.462818 1_555
O3 Zn1 2.043353 1_555
O4 S3 1.470293 1_555
O4 Zn1 2.089444 1_665
O5 P1 1.542226 1_555
O5 Zn1 2.100158 1_655
O6 P1 1.573714 1_565
O7 S2 1.487177 1_555
O8 S3 1.490813 1_455
O9 S0 1.490813 1_555
O10 S1 1.487177 1_455
O11 P0 1.573714 1_565
O12 S4 1.470253 1_555
O12 Zn2 2.090428 1_555
O13 S5 1.477090 1_555
O13 Zn2 2.079503 1_555
O14 P2 1.540532 1_555
O14 Zn2 2.054280 1_555
O15 P3 1.540532 1_555
O15 Zn3 2.054280 1_555
O16 S6 1.477090 1_555
O16 Zn3 2.079503 1_555
O17 S7 1.470253 1_555
O17 Zn3 2.090428 1_555
O18 S7 1.496701 1_555
O19 P3 1.539477 1_555
O20 S6 1.493934 1_555
O21 S5 1.493934 1_555
O22 P2 1.539477 1_555
O23 S4 1.496701 1_555
O24 S8 1.475023 1_555
O24 Zn4 2.197807 1_556
O25 S9 1.465566 1_555
O25 Zn4 2.033911 1_556
O26 P4 1.544338 1_555
O26 Zn4 2.008233 1_556
O27 P5 1.544338 1_555
O27 Zn5 2.008233 1_555
O28 S10 1.465566 1_555
O28 Zn5 2.033911 1_555
O29 S11 1.475023 1_555
O29 Zn5 2.197807 1_555
O30 S11 1.506041 1_555
O31 P5 1.561892 1_555
O32 S10 1.488747 1_555
O33 S9 1.488747 1_555
O34 P4 1.561892 1_555
O35 S8 1.506041 1_555
O36 S11 1.490228 1_555
O36 Zn0 2.257278 1_465
O37 P5 1.532565 1_555
O37 Zn0 2.070360 1_565
O38 S10 1.486729 1_555
O38 Zn0 2.199754 1_455
O39 S9 1.486732 1_555
O39 Zn1 2.199754 1_555
O40 P4 1.532556 1_555
O40 Zn1 2.070360 1_565
O41 S8 1.490233 1_555
O41 Zn1 2.257278 1_665
O42 S4 1.516769 1_555
O43 S5 1.490056 1_555
O44 P2 1.587577 1_555
O45 P3 1.587581 1_555
O46 S6 1.490047 1_555
O47 S7 1.516774 1_555
O48 P1 1.537202 1_555
O48 Zn2 2.082629 1_555
O49 S2 1.487045 1_555
O49 Zn2 2.239750 1_555
O50 S3 1.486936 1_555
O50 Zn2 2.212517 1_555
O51 S0 1.486940 1_555
O51 Zn3 2.212517 1_555
O52 S1 1.487036 1_555
O52 Zn3 2.239750 1_555
O53 P0 1.537207 1_555
O53 Zn3 2.082629 1_555
O54 S8 1.486374 1_555
O55 S9 1.509303 1_655
O56 P4 1.587623 1_545
O57 P5 1.587614 1_545
O58 S10 1.509321 1_555
O59 S11 1.486364 1_655
O60 S7 1.469792 1_555
O60 Zn4 2.217739 1_555
O61 P3 1.563484 1_455
O61 Zn4 2.070533 1_555
O62 S6 1.491195 1_565
O62 Zn4 2.268691 1_555
O63 S5 1.491187 1_565
O63 Zn5 2.268691 1_555
O64 P2 1.563502 1_555
O64 Zn5 2.070533 1_555
O65 S4 1.469782 1_455
O65 Zn5 2.217739 1_555
O66 P0 1.591471 1_565
O67 S0 1.492435 1_555
O68 S1 1.515644 1_455
O69 S2 1.515648 1_555
O70 S3 1.492426 1_455
O71 P1 1.591476 1_565
