# generated using pymatgen
data_Li2ZnCl4
_symmetry_space_group_name_H-M   'P 1'
_cell_length_a   6.06333861
_cell_length_b   7.35840117
_cell_length_c   12.65210377
_cell_angle_alpha   90.00000000
_cell_angle_beta   90.00000000
_cell_angle_gamma   90.00000000
_symmetry_Int_Tables_number   1
_chemical_formula_structural   Li2ZnCl4
_chemical_formula_sum   'Li8 Zn4 Cl16'
_cell_volume   564.49230852
_cell_formula_units_Z   4
loop_
 _symmetry_equiv_pos_site_id
 _symmetry_equiv_pos_as_xyz
  1  'x, y, z'
loop_
 _atom_site_type_symbol
 _atom_site_label
 _atom_site_symmetry_multiplicity
 _atom_site_fract_x
 _atom_site_fract_y
 _atom_site_fract_z
 _atom_site_occupancy
  Li  Li0  1  -0.00000000  -0.00000000  -0.00000000  1
  Li  Li1  1  0.50000000  0.00000000  0.50000000  1
  Li  Li2  1  -0.00000000  0.50000000  -0.00000000  1
  Li  Li3  1  0.50000000  0.50000000  0.50000000  1
  Li  Li4  1  0.00375720  0.75000000  0.26869992  1
  Li  Li5  1  0.50375720  0.25000000  0.23130008  1
  Li  Li6  1  0.99624280  0.25000000  0.73130008  1
  Li  Li7  1  0.49624280  0.75000000  0.76869992  1
  Zn  Zn0  1  0.58268472  0.75000000  0.08909463  1
  Zn  Zn1  1  0.91731528  0.75000000  0.58909463  1
  Zn  Zn2  1  0.41731528  0.25000000  0.91090537  1
  Zn  Zn3  1  0.08268472  0.25000000  0.41090537  1
  Cl  Cl0  1  0.75092920  0.99366244  0.66617579  1
  Cl  Cl1  1  0.24907080  0.49366244  0.33382421  1
  Cl  Cl2  1  0.74907080  0.50633756  0.16617579  1
  Cl  Cl3  1  0.78552026  0.25000000  0.91066539  1
  Cl  Cl4  1  0.21447974  0.75000000  0.08933461  1
  Cl  Cl5  1  0.71447974  0.25000000  0.41066539  1
  Cl  Cl6  1  0.24691972  0.25000000  0.57426319  1
  Cl  Cl7  1  0.28552026  0.75000000  0.58933461  1
  Cl  Cl8  1  0.75308028  0.75000000  0.42573681  1
  Cl  Cl9  1  0.25308028  0.25000000  0.07426319  1
  Cl  Cl10  1  0.75092920  0.50633756  0.66617579  1
  Cl  Cl11  1  0.74691972  0.75000000  0.92573681  1
  Cl  Cl12  1  0.74907080  0.99366244  0.16617579  1
  Cl  Cl13  1  0.24907080  0.00633756  0.33382421  1
  Cl  Cl14  1  0.25092920  0.49366244  0.83382421  1
  Cl  Cl15  1  0.25092920  0.00633756  0.83382421  1
loop_
_geom_bond_atom_site_label_1
_geom_bond_atom_site_label_2
_geom_bond_distance
_geom_bond_site_symmetry_2
Cl0 Zn1 2.276754 1_555
Cl0 Li6 2.539529 1_565
Cl0 Li1 2.595657 1_565
Cl0 Li7 2.698522 1_555
Cl1 Zn3 2.276754 1_555
Cl1 Li4 2.539529 1_555
Cl1 Li3 2.595657 1_555
Cl1 Li5 2.698522 1_555
Cl2 Zn0 2.276754 1_555
Cl2 Li5 2.539529 1_555
Cl2 Li2 2.595657 1_655
Cl2 Li4 2.698522 1_655
Cl3 Zn2 2.232554 1_555
Cl3 Li2 2.520485 1_656
Cl3 Li0 2.520485 1_656
Cl3 Li6 2.604307 1_555
Cl4 Zn0 2.232554 1_555
Cl4 Li0 2.520485 1_565
Cl4 Li2 2.520485 1_555
Cl4 Li4 2.604307 1_555
Cl5 Zn3 2.232554 1_655
Cl5 Li3 2.520485 1_555
Cl5 Li1 2.520485 1_555
Cl5 Li5 2.604307 1_555
Cl6 Zn3 2.294207 1_555
Cl6 Li6 2.501555 1_455
Cl6 Li1 2.573262 1_555
Cl6 Li3 2.573262 1_555
Cl7 Zn1 2.232554 1_455
Cl7 Li3 2.520485 1_555
Cl7 Li1 2.520485 1_565
Cl7 Li7 2.604307 1_555
Cl8 Zn1 2.294207 1_555
Cl8 Li4 2.501555 1_655
Cl8 Li1 2.573262 1_565
Cl8 Li3 2.573262 1_555
Cl9 Zn2 2.294207 1_554
Cl9 Li5 2.501555 1_555
Cl9 Li2 2.573262 1_555
Cl9 Li0 2.573262 1_555
Cl10 Zn1 2.276754 1_555
Cl10 Li6 2.539529 1_555
Cl10 Li3 2.595657 1_555
Cl10 Li7 2.698522 1_555
Cl11 Zn0 2.294207 1_556
Cl11 Li7 2.501555 1_555
Cl11 Li2 2.573262 1_656
Cl11 Li0 2.573262 1_666
Cl12 Zn0 2.276754 1_555
Cl12 Li5 2.539529 1_565
Cl12 Li0 2.595657 1_665
Cl12 Li4 2.698522 1_655
Cl13 Zn3 2.276754 1_555
Cl13 Li4 2.539529 1_545
Cl13 Li1 2.595657 1_555
Cl13 Li5 2.698522 1_555
Cl14 Zn2 2.276754 1_555
Cl14 Li7 2.539529 1_555
Cl14 Li2 2.595657 1_556
Cl14 Li6 2.698522 1_455
Cl15 Zn2 2.276754 1_555
Cl15 Li7 2.539529 1_545
Cl15 Li0 2.595657 1_556
Cl15 Li6 2.698522 1_455
