# generated using pymatgen
data_NaSc2Ga2PS5O24
_symmetry_space_group_name_H-M   'P 1'
_cell_length_a   8.64206609
_cell_length_b   8.63663995
_cell_length_c   22.58699956
_cell_angle_alpha   89.98898201
_cell_angle_beta   90.07787902
_cell_angle_gamma   119.88647184
_symmetry_Int_Tables_number   1
_chemical_formula_structural   NaSc2Ga2PS5O24
_chemical_formula_sum   'Na3 Sc6 Ga6 P3 S15 O72'
_cell_volume   1461.66145423
_cell_formula_units_Z   3
loop_
 _symmetry_equiv_pos_site_id
 _symmetry_equiv_pos_as_xyz
  1  'x, y, z'
loop_
 _atom_site_type_symbol
 _atom_site_label
 _atom_site_symmetry_multiplicity
 _atom_site_fract_x
 _atom_site_fract_y
 _atom_site_fract_z
 _atom_site_occupancy
  Na  Na0  1  0.99922611  0.99209644  0.99776680  1
  Na  Na1  1  0.65889258  0.33209508  0.83545086  1
  Na  Na2  1  0.67264212  0.33210577  0.33354553  1
  Sc  Sc0  1  0.99943037  0.99375053  0.85311813  1
  Sc  Sc1  1  0.00225857  0.00762927  0.15142903  1
  Sc  Sc2  1  0.67328553  0.33410099  0.18858820  1
  Sc  Sc3  1  0.66121545  0.33361490  0.97823652  1
  Sc  Sc4  1  0.33838785  0.67317687  0.01888902  1
  Sc  Sc5  1  0.34104452  0.67269629  0.81189883  1
  Ga  Ga0  1  0.99760956  0.00508444  0.35276339  1
  Ga  Ga1  1  0.00063623  0.00015206  0.64630781  1
  Ga  Ga2  1  0.66578583  0.33325807  0.68136291  1
  Ga  Ga3  1  0.66664680  0.33337686  0.48401764  1
  Ga  Ga4  1  0.33259973  0.66682681  0.51882847  1
  Ga  Ga5  1  0.32781967  0.66009489  0.31420894  1
  P  P0  1  0.00594752  0.29497636  0.25576987  1
  P  P1  1  0.62561457  0.66762611  0.91570364  1
  P  P2  1  0.33367526  0.95865801  0.91570002  1
  S  S0  1  0.28861158  0.99409053  0.25528429  1
  S  S1  1  0.70558329  0.71213332  0.25520994  1
  S  S2  1  0.29436135  0.28706717  0.74518577  1
  S  S3  1  0.99162081  0.70295099  0.74483316  1
  S  S4  1  0.71427115  0.00948042  0.74491301  1
  S  S5  1  0.95819651  0.33401917  0.58241864  1
  S  S6  1  0.37559090  0.04168830  0.58244730  1
  S  S7  1  0.66607159  0.62459276  0.58249135  1
  S  S8  1  0.95967331  0.62800534  0.08382936  1
  S  S9  1  0.66904000  0.04172155  0.08378402  1
  S  S10  1  0.37263178  0.33188647  0.08446626  1
  S  S11  1  0.04269459  0.37566145  0.91554757  1
  S  S12  1  0.62099578  0.95502913  0.41732795  1
  S  S13  1  0.33544263  0.37684437  0.41799057  1
  S  S14  1  0.04200322  0.66763708  0.41740716  1
  O  O0  1  0.20614466  0.02653831  0.30798029  1
  O  O1  1  0.82334288  0.79031006  0.30779162  1
  O  O2  1  0.96690004  0.17269208  0.31029046  1
  O  O3  1  0.21625977  0.17647149  0.79837487  1
  O  O4  1  0.95872683  0.78105391  0.79817668  1
  O  O5  1  0.82373058  0.04106972  0.79837972  1
  O  O6  1  0.79801699  0.98123055  0.69177127  1
  O  O7  1  0.18322473  0.20314542  0.69173583  1
  O  O8  1  0.02077405  0.81599546  0.69184041  1
  O  O9  1  0.78641272  0.81658231  0.20117618  1
  O  O10  1  0.03192712  0.20953600  0.19983077  1
  O  O11  1  0.18173825  0.96528182  0.20129410  1
  O  O12  1  0.87929344  0.37160080  0.63512216  1
  O  O13  1  0.49201779  0.12042519  0.63527302  1
  O  O14  1  0.62855608  0.50815282  0.63527551  1
  O  O15  1  0.87239965  0.52141839  0.13736568  1
  O  O16  1  0.65002034  0.12867872  0.13728896  1
  O  O17  1  0.47929392  0.35154610  0.13771730  1
  O  O18  1  0.45556346  0.30491081  0.03125388  1
  O  O19  1  0.84905859  0.54491909  0.03085471  1
  O  O20  1  0.69596878  0.15118894  0.03078785  1
  O  O21  1  0.45456300  0.15848729  0.52947741  1
  O  O22  1  0.70394514  0.54535663  0.52954925  1
  O  O23  1  0.84125479  0.29611129  0.52927627  1
  O  O24  1  0.53870165  0.68852302  0.97169941  1
  O  O25  1  0.14716364  0.45597650  0.96961407  1
  O  O26  1  0.30549406  0.84784803  0.97160807  1
  O  O27  1  0.54024301  0.84505446  0.47114518  1
  O  O28  1  0.30368034  0.45731478  0.47143827  1
  O  O29  1  0.15315624  0.69876583  0.47118530  1
  O  O30  1  0.12025227  0.62983447  0.36483298  1
  O  O31  1  0.50591541  0.87639644  0.36444286  1
  O  O32  1  0.37365533  0.49236355  0.36523419  1
  O  O33  1  0.12522767  0.48165576  0.86212679  1
  O  O34  1  0.35311579  0.86904585  0.85992054  1
  O  O35  1  0.51363912  0.64083827  0.85997073  1
  O  O36  1  0.02230503  0.82627599  0.40852548  1
  O  O37  1  0.79840431  0.97205514  0.40984860  1
  O  O38  1  0.17799719  0.19829955  0.40975428  1
  O  O39  1  0.02385537  0.19689031  0.91024674  1
  O  O40  1  0.16976324  0.98342053  0.91028373  1
  O  O41  1  0.80934922  0.83729144  0.91022719  1
  O  O42  1  0.97731933  0.17479347  0.59150071  1
  O  O43  1  0.19751886  0.02281440  0.59156755  1
  O  O44  1  0.82513378  0.80250832  0.59173256  1
  O  O45  1  0.97840962  0.80725908  0.08977453  1
  O  O46  1  0.82894306  0.02113340  0.08902783  1
  O  O47  1  0.19429164  0.16857603  0.08906952  1
  O  O48  1  0.69709086  0.17326492  0.73801211  1
  O  O49  1  0.47533216  0.30386023  0.73832374  1
  O  O50  1  0.82676699  0.52354197  0.73787987  1
  O  O51  1  0.68069494  0.53028488  0.24876672  1
  O  O52  1  0.83925324  0.31601622  0.24860424  1
  O  O53  1  0.46680994  0.15534166  0.24864249  1
  O  O54  1  0.65081523  0.50407107  0.92015752  1
  O  O55  1  0.86407859  0.35656739  0.92052550  1
  O  O56  1  0.50296035  0.14245766  0.92042294  1
  O  O57  1  0.64073954  0.13782978  0.42474347  1
  O  O58  1  0.49912398  0.35850903  0.42576666  1
  O  O59  1  0.86039222  0.50412098  0.42514750  1
  O  O60  1  0.35243380  0.48888662  0.07844309  1
  O  O61  1  0.13436508  0.64192378  0.07841510  1
  O  O62  1  0.50910888  0.86601025  0.07923395  1
  O  O63  1  0.35813470  0.86361479  0.57305853  1
  O  O64  1  0.50574197  0.64238500  0.57299640  1
  O  O65  1  0.13597416  0.49426718  0.57287972  1
  O  O66  1  0.30869977  0.83572807  0.26297070  1
  O  O67  1  0.53159326  0.70142927  0.26322221  1
  O  O68  1  0.17389519  0.47799993  0.26365040  1
  O  O69  1  0.31292580  0.46333640  0.75202550  1
  O  O70  1  0.14707437  0.68112415  0.75221701  1
  O  O71  1  0.53715343  0.85232919  0.75117733  1
loop_
_geom_bond_atom_site_label_1
_geom_bond_atom_site_label_2
_geom_bond_distance
_geom_bond_site_symmetry_2
Na0 O41 2.489089 1_555
Na0 O40 2.490021 1_655
Na0 O45 2.571603 1_556
Na0 O39 2.589621 1_665
Na0 O47 2.617063 1_666
Na0 O46 2.617963 1_566
Na1 O54 2.444658 1_555
Na1 O56 2.447105 1_555
Na1 O55 2.549291 1_555
Na1 O49 2.644614 1_555
Na1 O48 2.699787 1_555
Na1 O50 2.704127 1_555
Na2 O52 2.445493 1_555
Na2 O53 2.541256 1_555
Na2 O51 2.545910 1_555
Na2 O57 2.583345 1_555
Na2 O59 2.590446 1_555
Na2 O58 2.643672 1_555
Ga0 O2 1.862213 1_555
Ga0 O1 1.988282 1_545
Ga0 O0 1.994351 1_655
Ga0 O37 2.055259 1_545
Ga0 O38 2.067559 1_655
Ga0 O36 2.084163 1_645
Ga1 O7 1.963609 1_555
Ga1 O6 1.966474 1_445
Ga1 O8 1.972914 1_545
Ga1 O43 2.033665 1_555
Ga1 O44 2.036990 1_445
Ga1 O42 2.037052 1_455
Ga2 O14 1.987857 1_555
Ga2 O13 1.990805 1_555
Ga2 O50 1.995832 1_555
Ga2 O48 1.997677 1_555
Ga2 O12 2.000316 1_555
Ga2 O49 2.004480 1_555
Ga3 O23 1.976176 1_555
Ga3 O22 1.981181 1_555
Ga3 O21 1.985121 1_555
Ga3 O58 2.045008 1_555
Ga3 O59 2.071441 1_555
Ga3 O57 2.078002 1_555
Ga4 O27 2.000349 1_555
Ga4 O28 2.007929 1_555
Ga4 O29 2.015101 1_555
Ga4 O63 2.015926 1_555
Ga4 O65 2.019957 1_555
Ga4 O64 2.022406 1_555
Ga5 O68 1.859744 1_555
Ga5 O66 1.978939 1_555
Ga5 O67 1.983372 1_555
Ga5 O30 2.032680 1_555
Ga5 O32 2.038062 1_555
Ga5 O31 2.068049 1_555
O0 S0 1.484792 1_545
O1 S1 1.488072 1_555
O2 P0 1.546358 1_655
O3 S2 1.473269 1_555
O3 Sc0 2.142240 1_445
O4 S3 1.476440 1_555
O4 Sc0 2.096178 1_555
O5 S4 1.472249 1_555
O5 Sc0 2.148098 1_545
O6 S4 1.484089 1_565
O7 S2 1.486187 1_555
O8 S3 1.484791 1_455
O9 S1 1.471447 1_555
O9 Sc1 2.098174 1_665
O10 P0 1.535445 1_555
O10 Sc1 1.963711 1_555
O11 S0 1.473132 1_555
O11 Sc1 2.090117 1_565
O12 S5 1.486717 1_555
O13 S6 1.487835 1_555
O14 S7 1.487796 1_555
O15 S8 1.479402 1_555
O15 Sc2 2.036479 1_555
O16 S9 1.474946 1_555
O16 Sc2 2.043357 1_555
O17 S10 1.471830 1_555
O17 Sc2 2.097614 1_555
O18 S10 1.476948 1_555
O18 Sc3 2.054436 1_554
O19 S8 1.474470 1_555
O19 Sc3 2.102727 1_554
O20 S9 1.470347 1_555
O20 Sc3 2.109824 1_554
O21 S6 1.493477 1_555
O22 S7 1.493313 1_555
O23 S5 1.495473 1_555
O24 P1 1.527795 1_555
O24 Sc4 1.981603 1_556
O25 S11 1.469970 1_555
O25 Sc4 2.096438 1_556
O26 P2 1.529038 1_555
O26 Sc4 1.980659 1_556
O27 S12 1.485957 1_555
O28 S13 1.485627 1_555
O29 S14 1.486629 1_555
O30 S14 1.482019 1_555
O31 S12 1.483631 1_555
O32 S13 1.482112 1_555
O33 S11 1.467615 1_555
O33 Sc5 2.103878 1_555
O34 P2 1.531365 1_555
O34 Sc5 1.971604 1_555
O35 P1 1.532426 1_555
O35 Sc5 1.970770 1_555
O36 S14 1.476027 1_555
O37 S12 1.475402 1_555
O38 S13 1.473872 1_555
O39 S11 1.474527 1_555
O39 Sc0 2.102080 1_445
O40 P2 1.539062 1_555
O40 Sc0 1.991906 1_455
O41 P1 1.538017 1_555
O41 Sc0 1.995313 1_555
O42 S5 1.478776 1_555
O43 S6 1.479226 1_555
O44 S7 1.479405 1_555
O45 S8 1.480278 1_555
O45 Sc1 2.149699 1_665
O46 S9 1.483137 1_555
O46 Sc1 2.100446 1_655
O47 S10 1.486468 1_555
O47 Sc1 2.092113 1_555
O48 S4 1.502145 1_555
O49 S2 1.505202 1_555
O50 S3 1.501611 1_555
O51 S1 1.482382 1_555
O51 Sc2 2.148274 1_555
O52 P0 1.547490 1_655
O52 Sc2 2.033990 1_555
O53 S0 1.482173 1_545
O53 Sc2 2.160528 1_555
O54 P1 1.536021 1_555
O54 Sc3 2.006753 1_555
O55 S11 1.472874 1_655
O55 Sc3 2.114661 1_555
O56 P2 1.535194 1_545
O56 Sc3 2.011747 1_555
O57 S12 1.510394 1_545
O58 S13 1.509771 1_555
O59 S14 1.509982 1_655
O60 S10 1.457163 1_555
O60 Sc4 2.132786 1_555
O61 S8 1.458847 1_455
O61 Sc4 2.126358 1_555
O62 S9 1.460563 1_565
O62 Sc4 2.086842 1_555
O63 S6 1.483868 1_565
O64 S7 1.483509 1_555
O65 S5 1.484608 1_455
O66 S0 1.472205 1_555
O67 S1 1.471195 1_555
O68 P0 1.532954 1_555
O69 S2 1.457343 1_555
O69 Sc5 2.172454 1_555
O70 S3 1.456003 1_455
O70 Sc5 2.178967 1_555
O71 S4 1.461247 1_565
O71 Sc5 2.132011 1_555
