# generated using pymatgen
data_Pr2MgTi2S2O5
_symmetry_space_group_name_H-M   'P 1'
_cell_length_a   3.88193735
_cell_length_b   3.88083460
_cell_length_c   14.33260313
_cell_angle_alpha   97.78088168
_cell_angle_beta   97.78310266
_cell_angle_gamma   90.00001163
_symmetry_Int_Tables_number   1
_chemical_formula_structural   Pr2MgTi2S2O5
_chemical_formula_sum   'Pr2 Mg1 Ti2 S2 O5'
_cell_volume   211.92714700
_cell_formula_units_Z   1
loop_
 _symmetry_equiv_pos_site_id
 _symmetry_equiv_pos_as_xyz
  1  'x, y, z'
loop_
 _atom_site_type_symbol
 _atom_site_label
 _atom_site_symmetry_multiplicity
 _atom_site_fract_x
 _atom_site_fract_y
 _atom_site_fract_z
 _atom_site_occupancy
  Pr  Pr0  1  0.63662200  0.63662200  0.27324400  1
  Pr  Pr1  1  0.36337800  0.36337800  0.72675500  1
  Mg  Mg0  1  0.24994700  0.74994700  0.49989500  1
  Ti  Ti0  1  0.06462200  0.06462200  0.12924400  1
  Ti  Ti1  1  0.93540300  0.93540300  0.87080700  1
  S  S0  1  0.80627300  0.80627300  0.61254700  1
  S  S1  1  0.19372100  0.19372100  0.38744100  1
  O  O0  1  0.58842500  0.08842500  0.17684900  1
  O  O1  1  0.41097900  0.91097900  0.82195800  1
  O  O2  1  0.00002400  0.00002400  0.00005000  1
  O  O3  1  0.91157900  0.41157900  0.82316000  1
  O  O4  1  0.08902600  0.58902600  0.17805100  1
loop_
_geom_bond_atom_site_label_1
_geom_bond_atom_site_label_2
_geom_bond_distance
_geom_bond_site_symmetry_2
Pr0 S1 3.180134 1_555
Pr0 S1 3.180136 1_565
Pr0 S1 3.180136 1_655
Pr0 S1 3.180138 1_665
Pr1 S0 3.180209 1_555
Pr1 S0 3.180214 1_545
Pr1 S0 3.180215 1_455
Pr1 S0 3.180218 1_445
Mg0 S1 2.503540 1_555
Mg0 S1 2.503546 1_565
Mg0 S0 2.505731 1_555
Mg0 S0 2.505731 1_455
O0 Ti0 2.053246 1_655
O0 Ti0 2.053250 1_555
O0 Pr0 2.367280 1_555
O0 Pr0 2.367283 1_545
O1 Ti1 2.059020 1_555
O1 Ti1 2.059024 1_455
O1 Pr1 2.357714 1_555
O1 Pr1 2.357718 1_565
O2 Ti0 1.817420 1_555
O2 Ti1 1.818109 1_444
O3 Ti1 2.052918 1_545
O3 Ti1 2.052921 1_555
O3 Pr1 2.367809 1_555
O3 Pr1 2.367819 1_655
O4 Ti0 2.058303 1_565
O4 Ti0 2.058307 1_555
O4 Pr0 2.358088 1_555
O4 Pr0 2.358092 1_455
