# generated using pymatgen
data_NaScInP(SO6)2
_symmetry_space_group_name_H-M   'P 1'
_cell_length_a   8.85257487
_cell_length_b   8.85100288
_cell_length_c   23.34015768
_cell_angle_alpha   89.94564420
_cell_angle_beta   90.05168487
_cell_angle_gamma   120.07948100
_symmetry_Int_Tables_number   1
_chemical_formula_structural   NaScInP(SO6)2
_chemical_formula_sum   'Na6 Sc6 In6 P6 S12 O72'
_cell_volume   1582.51514317
_cell_formula_units_Z   6
loop_
 _symmetry_equiv_pos_site_id
 _symmetry_equiv_pos_as_xyz
  1  'x, y, z'
loop_
 _atom_site_type_symbol
 _atom_site_label
 _atom_site_symmetry_multiplicity
 _atom_site_fract_x
 _atom_site_fract_y
 _atom_site_fract_z
 _atom_site_occupancy
  Na  Na0  1  0.98981238  0.99364950  0.50000190  1
  Na  Na1  1  0.00373445  0.99216873  0.00002040  1
  Na  Na2  1  0.66212097  0.32174701  0.83320736  1
  Na  Na3  1  0.65946437  0.32144726  0.33361001  1
  Na  Na4  1  0.32564000  0.67078216  0.16671040  1
  Na  Na5  1  0.34361372  0.67036878  0.66658600  1
  Sc  Sc0  1  0.00305671  0.00106024  0.35224452  1
  Sc  Sc1  1  0.98225826  0.99036523  0.64757553  1
  Sc  Sc2  1  0.66479218  0.33241652  0.68455071  1
  Sc  Sc3  1  0.66775939  0.33430420  0.48211421  1
  Sc  Sc4  1  0.32143080  0.67403506  0.01857779  1
  Sc  Sc5  1  0.35277023  0.67543723  0.51890856  1
  In  In0  1  0.00026733  0.00022594  0.85084369  1
  In  In1  1  0.00460242  0.99166631  0.14925350  1
  In  In2  1  0.66535228  0.33193046  0.18459010  1
  In  In3  1  0.66583732  0.33286749  0.98277989  1
  In  In4  1  0.33692865  0.67955189  0.31685995  1
  In  In5  1  0.34287252  0.68008112  0.81541409  1
  P  P0  1  0.29470851  0.00192636  0.25086451  1
  P  P1  1  0.70825431  0.00275170  0.74986511  1
  P  P2  1  0.66674388  0.62121078  0.58331749  1
  P  P3  1  0.95714764  0.62403712  0.08323542  1
  P  P4  1  0.33317266  0.96377065  0.91700770  1
  P  P5  1  0.63126340  0.96447350  0.41721162  1
  S  S0  1  0.70640055  0.70708538  0.25086435  1
  S  S1  1  0.00176454  0.29239954  0.25053762  1
  S  S2  1  0.29248740  0.29305431  0.74883918  1
  S  S3  1  0.99866397  0.70541980  0.74888244  1
  S  S4  1  0.96008636  0.33548903  0.58319774  1
  S  S5  1  0.37314885  0.04184169  0.58343746  1
  S  S6  1  0.66776565  0.03644691  0.08355000  1
  S  S7  1  0.37065862  0.33668215  0.08287254  1
  S  S8  1  0.62419163  0.66582724  0.91783756  1
  S  S9  1  0.04279712  0.37554574  0.91652293  1
  S  S10  1  0.33354839  0.37517960  0.41682028  1
  S  S11  1  0.04030261  0.66543881  0.41791836  1
  O  O0  1  0.20324215  0.02360395  0.30361895  1
  O  O1  1  0.81351712  0.79305591  0.30159608  1
  O  O2  1  0.97779307  0.18446294  0.30148344  1
  O  O3  1  0.22164944  0.19077148  0.80234241  1
  O  O4  1  0.97059103  0.77821843  0.80222490  1
  O  O5  1  0.81565915  0.03275920  0.80503502  1
  O  O6  1  0.79839512  0.97732218  0.69731589  1
  O  O7  1  0.18489999  0.20772787  0.69832110  1
  O  O8  1  0.02582237  0.81631112  0.69860897  1
  O  O9  1  0.77870708  0.81029135  0.19784133  1
  O  O10  1  0.02502604  0.21590303  0.19723264  1
  O  O11  1  0.18999598  0.97312264  0.19554599  1
  O  O12  1  0.87764808  0.35879268  0.63485172  1
  O  O13  1  0.48192787  0.12126735  0.63488959  1
  O  O14  1  0.64200257  0.51039536  0.63699052  1
  O  O15  1  0.87983902  0.51491161  0.13796321  1
  O  O16  1  0.63520917  0.11100139  0.13541928  1
  O  O17  1  0.47475634  0.36368423  0.13531033  1
  O  O18  1  0.44659192  0.30272835  0.03156065  1
  O  O19  1  0.84776991  0.54394119  0.02889765  1
  O  O20  1  0.69678496  0.14240573  0.03153637  1
  O  O21  1  0.45554176  0.14786481  0.53179879  1
  O  O22  1  0.69117236  0.53532527  0.52965230  1
  O  O23  1  0.85130087  0.30620581  0.53178083  1
  O  O24  1  0.53848284  0.68603326  0.96848537  1
  O  O25  1  0.14906004  0.45904967  0.96770575  1
  O  O26  1  0.30916607  0.84973860  0.96981090  1
  O  O27  1  0.54124649  0.84674447  0.46972689  1
  O  O28  1  0.30610094  0.45693347  0.46767068  1
  O  O29  1  0.14931268  0.69049090  0.46837313  1
  O  O30  1  0.11036811  0.63161411  0.36477181  1
  O  O31  1  0.52118832  0.88918749  0.36274608  1
  O  O32  1  0.36145113  0.47831073  0.36387178  1
  O  O33  1  0.12012013  0.47689430  0.86342655  1
  O  O34  1  0.36345731  0.88724094  0.86212888  1
  O  O35  1  0.52265978  0.63653045  0.86434968  1
  O  O36  1  0.02391167  0.82398782  0.41097939  1
  O  O37  1  0.81249013  0.97993605  0.41003405  1
  O  O38  1  0.17586691  0.19910997  0.41103643  1
  O  O39  1  0.02509642  0.19932525  0.91319675  1
  O  O40  1  0.16544780  0.97814542  0.91269212  1
  O  O41  1  0.79973385  0.82622062  0.91332376  1
  O  O42  1  0.97998941  0.17890073  0.58963091  1
  O  O43  1  0.19951337  0.02542123  0.59037934  1
  O  O44  1  0.83055364  0.80558973  0.58933390  1
  O  O45  1  0.97667027  0.80847653  0.08674561  1
  O  O46  1  0.82736479  0.02189850  0.08996639  1
  O  O47  1  0.19300211  0.17969847  0.08816039  1
  O  O48  1  0.68763180  0.16466072  0.74152161  1
  O  O49  1  0.46948967  0.31441040  0.74256016  1
  O  O50  1  0.84169092  0.53038645  0.74207436  1
  O  O51  1  0.69357211  0.53327161  0.24662736  1
  O  O52  1  0.84314040  0.31003849  0.24685500  1
  O  O53  1  0.47841801  0.16923710  0.24659056  1
  O  O54  1  0.64597069  0.50968601  0.92184807  1
  O  O55  1  0.86642526  0.35699755  0.92127194  1
  O  O56  1  0.49872951  0.14686098  0.92302178  1
  O  O57  1  0.64991229  0.14599673  0.42617758  1
  O  O58  1  0.48931215  0.35530850  0.42379707  1
  O  O59  1  0.86313423  0.51074172  0.42438871  1
  O  O60  1  0.35594199  0.49440966  0.07536636  1
  O  O61  1  0.14060362  0.64306373  0.07686021  1
  O  O62  1  0.51245175  0.86044468  0.07648392  1
  O  O63  1  0.35317668  0.86534259  0.57695842  1
  O  O64  1  0.50278097  0.64128060  0.57726758  1
  O  O65  1  0.13400509  0.49289914  0.57620349  1
  O  O66  1  0.31185630  0.83560351  0.25445222  1
  O  O67  1  0.52794486  0.68304916  0.25581475  1
  O  O68  1  0.16068943  0.46824108  0.25643704  1
  O  O69  1  0.30776503  0.46830568  0.75460652  1
  O  O70  1  0.15591455  0.68561921  0.75342488  1
  O  O71  1  0.52592505  0.83390669  0.75239499  1
loop_
_geom_bond_atom_site_label_1
_geom_bond_atom_site_label_2
_geom_bond_distance
_geom_bond_site_symmetry_2
Na0 O37 2.586861 1_555
Na0 O44 2.598457 1_555
Na0 O36 2.669242 1_655
Na0 O42 2.687393 1_565
Na0 O38 2.707059 1_665
Na0 O43 2.728683 1_665
Na1 O45 2.530274 1_455
Na1 O40 2.530449 1_554
Na1 O41 2.617919 1_454
Na1 O47 2.647065 1_565
Na1 O39 2.674009 1_564
Na1 O46 2.707962 1_465
Na2 O56 2.576353 1_555
Na2 O48 2.623896 1_555
Na2 O55 2.649934 1_555
Na2 O49 2.696522 1_555
Na2 O54 2.704304 1_555
Na2 O50 2.741824 1_555
Na3 O53 2.518688 1_555
Na3 O52 2.631564 1_555
Na3 O57 2.636089 1_555
Na3 O51 2.674763 1_555
Na3 O58 2.692416 1_555
Na3 O59 2.742072 1_555
Na4 O66 2.553736 1_555
Na4 O61 2.594848 1_555
Na4 O68 2.665746 1_555
Na4 O62 2.684125 1_555
Na4 O67 2.709827 1_555
Na4 O60 2.735211 1_555
Na5 O71 2.523701 1_555
Na5 O64 2.601468 1_555
Na5 O69 2.635372 1_555
Na5 O70 2.668085 1_555
Na5 O63 2.684850 1_555
Na5 O65 2.727308 1_555
In0 O5 2.089221 1_455
In0 O40 2.131291 1_545
In0 O3 2.157279 1_555
In0 O4 2.168901 1_445
In0 O39 2.210829 1_555
In0 O41 2.215813 1_445
In1 O11 2.038239 1_555
In1 O45 2.102519 1_455
In1 O9 2.155192 1_455
In1 O47 2.191370 1_565
In1 O46 2.205549 1_465
In1 O10 2.206806 1_565
In2 O15 2.080977 1_555
In2 O53 2.125532 1_555
In2 O16 2.166271 1_555
In2 O17 2.172566 1_555
In2 O51 2.211957 1_555
In2 O52 2.219840 1_555
In3 O19 2.056055 1_556
In3 O56 2.098461 1_555
In3 O18 2.149165 1_556
In3 O20 2.161172 1_556
In3 O54 2.184945 1_555
In3 O55 2.209890 1_555
In4 O31 2.053607 1_555
In4 O66 2.093232 1_555
In4 O30 2.145525 1_555
In4 O32 2.192533 1_555
In4 O67 2.200512 1_555
In4 O68 2.235422 1_555
In5 O34 2.062163 1_555
In5 O71 2.105245 1_555
In5 O35 2.144088 1_555
In5 O33 2.196333 1_555
In5 O70 2.216265 1_555
In5 O69 2.246030 1_555
O0 P0 1.538349 1_555
O0 Sc0 2.029078 1_555
O1 S0 1.468557 1_555
O1 Sc0 2.122810 1_665
O2 S1 1.471978 1_655
O2 Sc0 2.109168 1_655
O3 S2 1.484067 1_555
O4 S3 1.479733 1_555
O5 P1 1.542072 1_555
O6 P1 1.540804 1_565
O6 Sc1 1.955815 1_555
O7 S2 1.465058 1_555
O7 Sc1 2.205259 1_445
O8 S3 1.469617 1_455
O8 Sc1 2.128863 1_455
O9 S0 1.479493 1_555
O10 S1 1.480051 1_555
O11 P0 1.533917 1_565
O12 S4 1.477020 1_555
O12 Sc2 2.124429 1_555
O13 S5 1.478042 1_555
O13 Sc2 2.103540 1_555
O14 P2 1.536934 1_555
O14 Sc2 2.017259 1_555
O15 P3 1.539332 1_555
O16 S6 1.475445 1_555
O17 S7 1.477172 1_555
O18 S7 1.476862 1_555
O19 P3 1.536230 1_555
O20 S6 1.475212 1_555
O21 S5 1.476005 1_555
O21 Sc3 2.118958 1_555
O22 P2 1.536425 1_555
O22 Sc3 2.018269 1_555
O23 S4 1.477531 1_555
O23 Sc3 2.108743 1_555
O24 S8 1.463948 1_555
O24 Sc4 2.206704 1_556
O25 S9 1.470032 1_555
O25 Sc4 2.109388 1_556
O26 P4 1.538130 1_555
O26 Sc4 1.972694 1_556
O27 P5 1.546021 1_555
O27 Sc5 1.965910 1_555
O28 S10 1.472978 1_555
O28 Sc5 2.131596 1_555
O29 S11 1.466689 1_555
O29 Sc5 2.211212 1_555
O30 S11 1.483678 1_555
O31 P5 1.535610 1_555
O32 S10 1.481183 1_555
O33 S9 1.480862 1_555
O34 P4 1.534814 1_555
O35 S8 1.482773 1_555
O36 S11 1.490042 1_555
O36 Sc0 2.157601 1_565
O37 P5 1.549515 1_555
O37 Sc0 2.094684 1_665
O38 S10 1.488223 1_555
O38 Sc0 2.146802 1_555
O39 S9 1.489479 1_555
O40 P4 1.555644 1_555
O41 S8 1.493315 1_555
O42 S4 1.489572 1_555
O42 Sc1 2.154857 1_545
O43 S5 1.478710 1_555
O43 Sc1 2.232270 1_445
O44 P2 1.553606 1_555
O44 Sc1 2.031118 1_555
O45 P3 1.555303 1_555
O46 S6 1.489007 1_555
O47 S7 1.492925 1_555
O48 P1 1.544850 1_555
O48 Sc2 2.076141 1_555
O49 S2 1.488600 1_555
O49 Sc2 2.139015 1_555
O50 S3 1.482715 1_555
O50 Sc2 2.139013 1_555
O51 S0 1.488143 1_555
O52 S1 1.491022 1_655
O53 P0 1.560022 1_555
O54 S8 1.490869 1_555
O55 S9 1.490091 1_655
O56 P4 1.553423 1_545
O57 P5 1.545026 1_545
O57 Sc3 2.060872 1_555
O58 S10 1.483741 1_555
O58 Sc3 2.161661 1_555
O59 S11 1.484870 1_655
O59 Sc3 2.130301 1_555
O60 S7 1.475948 1_555
O60 Sc4 2.204541 1_555
O61 P3 1.553801 1_455
O61 Sc4 2.012830 1_555
O62 S6 1.482374 1_565
O62 Sc4 2.147510 1_555
O63 S5 1.489332 1_565
O63 Sc5 2.158533 1_555
O64 P2 1.554468 1_555
O64 Sc5 2.026985 1_555
O65 S4 1.479195 1_455
O65 Sc5 2.239041 1_555
O66 P0 1.555942 1_565
O67 S0 1.489207 1_555
O68 S1 1.491897 1_555
O69 S2 1.494172 1_555
O70 S3 1.491333 1_455
O71 P1 1.556976 1_565
