# generated using pymatgen
data_Cs2MgMnV2(BrO3)2
_symmetry_space_group_name_H-M   'P 1'
_cell_length_a   6.07606102
_cell_length_b   5.87587951
_cell_length_c   9.35228205
_cell_angle_alpha   108.30219930
_cell_angle_beta   90.72004081
_cell_angle_gamma   90.01385083
_symmetry_Int_Tables_number   1
_chemical_formula_structural   Cs2MgMnV2(BrO3)2
_chemical_formula_sum   'Cs2 Mg1 Mn1 V2 Br2 O6'
_cell_volume   316.97824096
_cell_formula_units_Z   1
loop_
 _symmetry_equiv_pos_site_id
 _symmetry_equiv_pos_as_xyz
  1  'x, y, z'
loop_
 _atom_site_type_symbol
 _atom_site_label
 _atom_site_symmetry_multiplicity
 _atom_site_fract_x
 _atom_site_fract_y
 _atom_site_fract_z
 _atom_site_occupancy
  Cs  Cs0  1  0.02134200  0.62739000  0.25471000  1
  Cs  Cs1  1  0.04865700  0.38607800  0.77135000  1
  Mg  Mg0  1  0.20371700  0.19749100  0.39521000  1
  Mn  Mn0  1  0.51564300  0.99805500  0.99547000  1
  V  V0  1  0.52956200  0.79480900  0.58983400  1
  V  V1  1  0.60966200  0.19807800  0.39627000  1
  Br  Br0  1  0.52544000  0.50587500  0.01328500  1
  Br  Br1  1  0.96385000  0.01176900  0.02310200  1
  O  O0  1  0.42109600  0.46865300  0.48565200  1
  O  O1  1  0.43346500  0.88878000  0.77820400  1
  O  O2  1  0.80260000  0.77634300  0.55276500  1
  O  O3  1  0.89773900  0.21259700  0.42504300  1
  O  O4  1  0.42110900  0.01670300  0.48561000  1
  O  O5  1  0.45282000  0.11182300  0.22397000  1
loop_
_geom_bond_atom_site_label_1
_geom_bond_atom_site_label_2
_geom_bond_distance
_geom_bond_site_symmetry_2
Cs0 O2 2.977253 1_455
Cs1 O3 3.197018 1_455
Cs1 Mg0 3.482217 1_555
Cs1 O0 3.668962 1_555
Cs1 O4 3.672183 1_555
Cs1 O1 3.750988 1_555
Cs1 O1 3.758527 1_545
Cs1 O2 3.813375 1_455
Cs1 O2 3.817177 1_445
Mg0 O3 1.881407 1_455
Mg0 O0 2.030544 1_555
Mg0 O4 2.030924 1_555
Mg0 O5 2.159630 1_555
Mn0 O1 1.986272 1_555
Mn0 O5 2.069480 1_566
Br0 Mn0 2.936379 1_544
Br0 Mn0 2.949130 1_554
Br0 Cs1 3.583490 1_554
Br0 Cs0 3.674536 1_655
Br0 Cs0 3.761875 1_555
Br0 Cs1 3.860477 1_654
Br1 Mn0 2.731107 1_544
Br1 Mn0 3.364950 1_644
Br1 Cs0 3.599744 1_655
Br1 Cs0 3.601238 1_645
Br1 Cs1 3.731004 1_644
Br1 Cs1 3.732103 1_654
O0 V1 1.931171 1_555
O0 V0 1.966460 1_555
O1 V0 1.778886 1_555
O2 V0 1.695625 1_555
O3 V1 1.765550 1_555
O4 V1 1.931107 1_555
O4 V0 1.966405 1_545
O5 V1 1.791616 1_555
