# generated using pymatgen
data_Li2Ni3(P2O7)2
_symmetry_space_group_name_H-M   'P 1'
_cell_length_a   7.87500800
_cell_length_b   7.28503800
_cell_length_c   9.44227130
_cell_angle_alpha   69.87247829
_cell_angle_beta   90.00000000
_cell_angle_gamma   90.00000000
_symmetry_Int_Tables_number   1
_chemical_formula_structural   Li2Ni3(P2O7)2
_chemical_formula_sum   'Li4 Ni6 P8 O28'
_cell_volume   508.61842022
_cell_formula_units_Z   2
loop_
 _symmetry_equiv_pos_site_id
 _symmetry_equiv_pos_as_xyz
  1  'x, y, z'
loop_
 _atom_site_type_symbol
 _atom_site_label
 _atom_site_symmetry_multiplicity
 _atom_site_fract_x
 _atom_site_fract_y
 _atom_site_fract_z
 _atom_site_occupancy
  Li  Li0  1  0.41626700  0.70749500  0.86419700  1
  Li  Li1  1  0.08373300  0.70749500  0.36419700  1
  Li  Li2  1  0.91626700  0.29250500  0.63580300  1
  Li  Li3  1  0.58373300  0.29250500  0.13580300  1
  Ni  Ni0  1  0.00000000  0.00000000  0.50000000  1
  Ni  Ni1  1  0.37439800  0.81169300  0.51918300  1
  Ni  Ni2  1  0.50000000  0.00000000  0.00000000  1
  Ni  Ni3  1  0.12560200  0.81169300  0.01918300  1
  Ni  Ni4  1  0.87439800  0.18830700  0.98081700  1
  Ni  Ni5  1  0.62560200  0.18830700  0.48081700  1
  P  P0  1  0.20564700  0.11649900  0.19372700  1
  P  P1  1  0.29435300  0.11649900  0.69372700  1
  P  P2  1  0.95083100  0.40415600  0.21684100  1
  P  P3  1  0.45083100  0.59584400  0.28315900  1
  P  P4  1  0.54916900  0.40415600  0.71684100  1
  P  P5  1  0.04916900  0.59584400  0.78315900  1
  P  P6  1  0.79435300  0.88350100  0.80627300  1
  P  P7  1  0.70564700  0.88350100  0.30627300  1
  O  O0  1  0.70518900  0.01190300  0.13710500  1
  O  O1  1  0.07851300  0.03367700  0.10734300  1
  O  O2  1  0.37772500  0.15086600  0.11798700  1
  O  O3  1  0.79481100  0.01190300  0.63710500  1
  O  O4  1  0.42148700  0.03367700  0.60734300  1
  O  O5  1  0.13637400  0.32269500  0.19146100  1
  O  O6  1  0.29481100  0.98809700  0.86289500  1
  O  O7  1  0.92148700  0.96632300  0.89265700  1
  O  O8  1  0.62227500  0.84913400  0.88201300  1
  O  O9  1  0.20518900  0.98809700  0.36289500  1
  O  O10  1  0.57851300  0.96632300  0.39265700  1
  O  O11  1  0.86362600  0.67730500  0.80853900  1
  O  O12  1  0.16833000  0.62141700  0.90286200  1
  O  O13  1  0.87772500  0.84913400  0.38201300  1
  O  O14  1  0.11028100  0.72107600  0.62228600  1
  O  O15  1  0.50607200  0.61521100  0.70009100  1
  O  O16  1  0.63637400  0.67730500  0.30853900  1
  O  O17  1  0.33167000  0.62141700  0.40286200  1
  O  O18  1  0.38971900  0.72107600  0.12228600  1
  O  O19  1  0.00607200  0.38478900  0.79990900  1
  O  O20  1  0.99392800  0.61521100  0.20009100  1
  O  O21  1  0.61028100  0.27892400  0.87771400  1
  O  O22  1  0.66833000  0.37858300  0.59713800  1
  O  O23  1  0.36362600  0.32269500  0.69146100  1
  O  O24  1  0.49392800  0.38478900  0.29990900  1
  O  O25  1  0.88971900  0.27892400  0.37771400  1
  O  O26  1  0.12227500  0.15086600  0.61798700  1
  O  O27  1  0.83167000  0.37858300  0.09713800  1
loop_
_geom_bond_atom_site_label_1
_geom_bond_atom_site_label_2
_geom_bond_distance
_geom_bond_site_symmetry_2
Li0 O8 1.960707 1_555
Li0 O15 2.017457 1_555
Li0 O12 2.044807 1_555
Li0 O6 2.253092 1_555
Li0 O18 2.481560 1_556
Li1 O13 1.960707 1_455
Li1 O20 2.017457 1_455
Li1 O17 2.044807 1_555
Li1 O9 2.253092 1_555
Li1 O14 2.481560 1_555
Li2 O26 1.960707 1_655
Li2 O19 2.017457 1_655
Li2 O22 2.044807 1_555
Li2 O3 2.253092 1_555
Li2 O25 2.481560 1_555
Li3 O2 1.960707 1_555
Li3 O24 2.017457 1_555
Li3 O27 2.044807 1_555
Li3 O0 2.253092 1_555
Li3 O21 2.481560 1_554
Ni0 O26 2.054013 1_555
Ni0 O13 2.054013 1_445
Ni0 O3 2.090871 1_455
Ni0 O9 2.090871 1_545
Ni0 O14 2.145145 1_545
Ni0 O25 2.145145 1_455
Ni1 O17 2.070947 1_555
Ni1 O9 2.073565 1_555
Ni1 O10 2.086578 1_555
Ni1 O15 2.087875 1_555
Ni1 O4 2.090964 1_565
Ni1 O14 2.295067 1_555
Ni2 O2 2.054013 1_555
Ni2 O8 2.054013 1_544
Ni2 O0 2.090871 1_555
Ni2 O6 2.090871 1_544
Ni2 O21 2.145145 1_554
Ni2 O18 2.145145 1_545
Ni3 O12 2.070947 1_554
Ni3 O6 2.073565 1_554
Ni3 O7 2.086578 1_454
Ni3 O20 2.087875 1_455
Ni3 O1 2.090964 1_565
Ni3 O18 2.295067 1_555
Ni4 O27 2.070947 1_556
Ni4 O0 2.073565 1_556
Ni4 O1 2.086578 1_656
Ni4 O19 2.087875 1_655
Ni4 O7 2.090964 1_545
Ni4 O21 2.295067 1_555
Ni5 O22 2.070947 1_555
Ni5 O3 2.073565 1_555
Ni5 O4 2.086578 1_555
Ni5 O24 2.087875 1_555
Ni5 O10 2.090964 1_545
Ni5 O25 2.295067 1_555
O0 P7 1.548599 1_545
O1 P0 1.539614 1_555
O2 P0 1.512364 1_555
O3 P6 1.548599 1_545
O4 P1 1.539614 1_555
O5 P0 1.591345 1_555
O5 P2 1.625562 1_455
O6 P1 1.548599 1_565
O7 P6 1.539614 1_555
O8 P6 1.512364 1_555
O9 P0 1.548599 1_565
O10 P7 1.539614 1_555
O11 P6 1.591345 1_555
O11 P5 1.625562 1_655
O12 P5 1.528959 1_555
O13 P7 1.512364 1_555
O14 P5 1.554852 1_555
O15 P4 1.528686 1_555
O16 P7 1.591345 1_555
O16 P3 1.625562 1_555
O17 P3 1.528959 1_555
O18 P3 1.554852 1_555
O19 P5 1.528686 1_555
O20 P2 1.528686 1_555
O21 P4 1.554852 1_555
O22 P4 1.528959 1_555
O23 P1 1.591345 1_555
O23 P4 1.625562 1_555
O24 P3 1.528686 1_555
O25 P2 1.554852 1_555
O26 P1 1.512364 1_555
O27 P2 1.528959 1_555
