# generated using pymatgen
data_YbMnO3
_symmetry_space_group_name_H-M   'P 1'
_cell_length_a   5.24392000
_cell_length_b   5.36995600
_cell_length_c   7.46957800
_cell_angle_alpha   90.00000000
_cell_angle_beta   90.00000000
_cell_angle_gamma   90.00000000
_symmetry_Int_Tables_number   1
_chemical_formula_structural   YbMnO3
_chemical_formula_sum   'Yb4 Mn4 O12'
_cell_volume   210.34047556
_cell_formula_units_Z   4
loop_
 _symmetry_equiv_pos_site_id
 _symmetry_equiv_pos_as_xyz
  1  'x, y, z'
loop_
 _atom_site_type_symbol
 _atom_site_label
 _atom_site_symmetry_multiplicity
 _atom_site_fract_x
 _atom_site_fract_y
 _atom_site_fract_z
 _atom_site_occupancy
  Yb  Yb0  1  0.01290900  0.94545100  0.75000000  1
  Yb  Yb1  1  0.51290900  0.55454900  0.25000000  1
  Yb  Yb2  1  0.48709100  0.44545100  0.75000000  1
  Yb  Yb3  1  0.98709100  0.05454900  0.25000000  1
  Mn  Mn0  1  0.50000000  0.00000000  0.50000000  1
  Mn  Mn1  1  0.00000000  0.50000000  0.50000000  1
  Mn  Mn2  1  0.00000000  0.50000000  0.00000000  1
  Mn  Mn3  1  0.50000000  0.00000000  0.00000000  1
  O  O0  1  0.70263400  0.29508600  0.45656800  1
  O  O1  1  0.20263400  0.20491400  0.54343200  1
  O  O2  1  0.79736600  0.79508600  0.04343200  1
  O  O3  1  0.29736600  0.70491400  0.95656800  1
  O  O4  1  0.29736600  0.70491400  0.54343200  1
  O  O5  1  0.79736600  0.79508600  0.45656800  1
  O  O6  1  0.20263400  0.20491400  0.95656800  1
  O  O7  1  0.70263400  0.29508600  0.04343200  1
  O  O8  1  0.08411900  0.48007400  0.25000000  1
  O  O9  1  0.58411900  0.01992600  0.75000000  1
  O  O10  1  0.41588100  0.98007400  0.25000000  1
  O  O11  1  0.91588100  0.51992600  0.75000000  1
loop_
_geom_bond_atom_site_label_1
_geom_bond_atom_site_label_2
_geom_bond_distance
_geom_bond_site_symmetry_2
Mn0 O9 1.921768 1_555
Mn0 O10 1.921768 1_545
Mn0 O4 1.935281 1_545
Mn0 O0 1.935281 1_555
Mn0 O5 1.935897 1_545
Mn0 O1 1.935897 1_555
Mn1 O11 1.921768 1_455
Mn1 O8 1.921768 1_555
Mn1 O1 1.935281 1_555
Mn1 O5 1.935281 1_455
Mn1 O0 1.935897 1_455
Mn1 O4 1.935897 1_555
Mn2 O11 1.921768 1_454
Mn2 O8 1.921768 1_555
Mn2 O6 1.935281 1_554
Mn2 O2 1.935281 1_455
Mn2 O7 1.935897 1_455
Mn2 O3 1.935897 1_554
Mn3 O9 1.921768 1_554
Mn3 O10 1.921768 1_545
Mn3 O3 1.935281 1_544
Mn3 O7 1.935281 1_555
Mn3 O6 1.935897 1_554
Mn3 O2 1.935897 1_545
O0 Yb1 2.304757 1_555
O0 Yb3 2.504850 1_555
O0 Yb2 2.594915 1_555
O1 Yb0 2.304757 1_545
O1 Yb2 2.504850 1_555
O1 Yb3 2.594915 1_455
O2 Yb3 2.304757 1_565
O2 Yb1 2.504850 1_555
O2 Yb0 2.594915 1_654
O3 Yb2 2.304757 1_555
O3 Yb0 2.504850 1_555
O3 Yb1 2.594915 1_556
O4 Yb2 2.304757 1_555
O4 Yb0 2.504850 1_555
O4 Yb1 2.594915 1_555
O5 Yb3 2.304757 1_565
O5 Yb1 2.504850 1_555
O5 Yb0 2.594915 1_655
O6 Yb0 2.304757 1_545
O6 Yb2 2.504850 1_555
O6 Yb3 2.594915 1_456
O7 Yb1 2.304757 1_555
O7 Yb3 2.504850 1_555
O7 Yb2 2.594915 1_554
O8 Yb1 2.283829 1_555
O8 Yb3 2.341013 1_455
O9 Yb0 2.283829 1_645
O9 Yb2 2.341013 1_555
O10 Yb3 2.283829 1_465
O10 Yb1 2.341013 1_555
O11 Yb2 2.283829 1_555
O11 Yb0 2.341013 1_655
