# generated using pymatgen
data_Na3InSiSn(PO6)2
_symmetry_space_group_name_H-M   'P 1'
_cell_length_a   15.71106649
_cell_length_b   9.12054988
_cell_length_c   9.13274003
_cell_angle_alpha   90.00000000
_cell_angle_beta   125.07226724
_cell_angle_gamma   90.00000000
_symmetry_Int_Tables_number   1
_chemical_formula_structural   Na3InSiSn(PO6)2
_chemical_formula_sum   'Na12 In4 Si4 Sn4 P8 O48'
_cell_volume   1071.04626779
_cell_formula_units_Z   4
loop_
 _symmetry_equiv_pos_site_id
 _symmetry_equiv_pos_as_xyz
  1  'x, y, z'
loop_
 _atom_site_type_symbol
 _atom_site_label
 _atom_site_symmetry_multiplicity
 _atom_site_fract_x
 _atom_site_fract_y
 _atom_site_fract_z
 _atom_site_occupancy
  Na  Na0  1  0.25308853  0.72124339  0.99754990  1
  Na  Na1  1  0.75308853  0.77875661  0.49754990  1
  Na  Na2  1  0.75308853  0.22124339  0.99754990  1
  Na  Na3  1  0.25308853  0.27875661  0.49754990  1
  Na  Na4  1  0.50874772  0.10832355  0.76475320  1
  Na  Na5  1  0.50874772  0.89167645  0.26475320  1
  Na  Na6  1  0.00874772  0.60832355  0.76475320  1
  Na  Na7  1  0.00874772  0.39167645  0.26475320  1
  Na  Na8  1  0.18440021  0.93101714  0.28835713  1
  Na  Na9  1  0.18440021  0.06898286  0.78835713  1
  Na  Na10  1  0.68440021  0.43101714  0.28835713  1
  Na  Na11  1  0.68440021  0.56898286  0.78835713  1
  In  In0  1  0.10220849  0.74698063  0.55975543  1
  In  In1  1  0.10220849  0.25301937  0.05975543  1
  In  In2  1  0.60220849  0.24698063  0.55975543  1
  In  In3  1  0.60220849  0.75301937  0.05975543  1
  Si  Si0  1  0.64841521  0.89310910  0.74530355  1
  Si  Si1  1  0.64841521  0.10689090  0.24530355  1
  Si  Si2  1  0.14841521  0.39310910  0.74530355  1
  Si  Si3  1  0.14841521  0.60689090  0.24530355  1
  Sn  Sn0  1  0.89806135  0.75589656  0.94330841  1
  Sn  Sn1  1  0.89806135  0.24410344  0.44330841  1
  Sn  Sn2  1  0.39806135  0.25589656  0.94330841  1
  Sn  Sn3  1  0.39806135  0.74410344  0.44330841  1
  P  P0  1  0.99663555  0.95402886  0.75376058  1
  P  P1  1  0.99663555  0.04597114  0.25376058  1
  P  P2  1  0.49663555  0.45402886  0.75376058  1
  P  P3  1  0.49663555  0.54597114  0.25376058  1
  P  P4  1  0.35167878  0.90418278  0.75592630  1
  P  P5  1  0.35167878  0.09581722  0.25592630  1
  P  P6  1  0.85167878  0.40418278  0.75592630  1
  P  P7  1  0.85167878  0.59581722  0.25592630  1
  O  O0  1  0.15301857  0.57139841  0.74603838  1
  O  O1  1  0.85117657  0.57714000  0.75469737  1
  O  O2  1  0.85117657  0.42286000  0.25469737  1
  O  O3  1  0.15301857  0.42860159  0.24603838  1
  O  O4  1  0.65301857  0.07139841  0.74603838  1
  O  O5  1  0.35117657  0.07714000  0.75469737  1
  O  O6  1  0.35117657  0.92286000  0.25469737  1
  O  O7  1  0.65301857  0.92860159  0.24603838  1
  O  O8  1  0.43328578  0.55285044  0.58530952  1
  O  O9  1  0.56082627  0.54130976  0.92766062  1
  O  O10  1  0.56082627  0.45869024  0.42766062  1
  O  O11  1  0.43328578  0.44714956  0.08530952  1
  O  O12  1  0.93328578  0.05285044  0.58530952  1
  O  O13  1  0.06082627  0.04130976  0.92766062  1
  O  O14  1  0.06082627  0.95869024  0.42766062  1
  O  O15  1  0.93328578  0.94714956  0.08530952  1
  O  O16  1  0.25484396  0.85467474  0.74594758  1
  O  O17  1  0.74607778  0.80938537  0.75671544  1
  O  O18  1  0.74607778  0.19061463  0.25671544  1
  O  O19  1  0.25484396  0.14532526  0.24594758  1
  O  O20  1  0.75484396  0.35467474  0.74594758  1
  O  O21  1  0.24607778  0.30938537  0.75671544  1
  O  O22  1  0.24607778  0.69061463  0.25671544  1
  O  O23  1  0.75484396  0.64532526  0.24594758  1
  O  O24  1  0.34953744  0.86537532  0.58606731  1
  O  O25  1  0.64429369  0.84208413  0.90816904  1
  O  O26  1  0.64429369  0.15791587  0.40816904  1
  O  O27  1  0.34953744  0.13462468  0.08606731  1
  O  O28  1  0.84953744  0.36537532  0.58606731  1
  O  O29  1  0.14429369  0.34208413  0.90816904  1
  O  O30  1  0.14429369  0.65791587  0.40816904  1
  O  O31  1  0.84953744  0.63462468  0.08606731  1
  O  O32  1  0.44823462  0.84626249  0.92993405  1
  O  O33  1  0.54342219  0.82582355  0.55591839  1
  O  O34  1  0.54342219  0.17417645  0.05591839  1
  O  O35  1  0.44823462  0.15373751  0.42993405  1
  O  O36  1  0.94823462  0.34626249  0.92993405  1
  O  O37  1  0.04342219  0.32582355  0.55591839  1
  O  O38  1  0.04342219  0.67417645  0.05591839  1
  O  O39  1  0.94823462  0.65373751  0.42993405  1
  O  O40  1  0.07527206  0.85723781  0.74549627  1
  O  O41  1  0.91677524  0.84951254  0.74933150  1
  O  O42  1  0.91677524  0.15048746  0.24933150  1
  O  O43  1  0.07527206  0.14276219  0.24549627  1
  O  O44  1  0.57527206  0.35723781  0.74549627  1
  O  O45  1  0.41677524  0.34951254  0.74933150  1
  O  O46  1  0.41677524  0.65048746  0.24933150  1
  O  O47  1  0.57527206  0.64276219  0.24549627  1
loop_
_geom_bond_atom_site_label_1
_geom_bond_atom_site_label_2
_geom_bond_distance
_geom_bond_site_symmetry_2
Na0 O0 2.337853 1_555
Na0 O46 2.349821 1_556
Na0 O22 2.447846 1_556
Na0 O16 2.614301 1_555
Na0 O6 2.666902 1_556
Na0 O40 2.692872 1_555
Na1 O7 2.337853 1_555
Na1 O41 2.349821 1_555
Na1 O17 2.447846 1_555
Na1 O23 2.614301 1_555
Na1 O1 2.666902 1_555
Na1 O47 2.692872 1_555
Na2 O4 2.337853 1_555
Na2 O42 2.349821 1_556
Na2 O18 2.447846 1_556
Na2 O20 2.614301 1_555
Na2 O2 2.666902 1_556
Na2 O44 2.692872 1_555
Na3 O3 2.337853 1_555
Na3 O45 2.349821 1_555
Na3 O21 2.447846 1_555
Na3 O19 2.614301 1_555
Na3 O5 2.666902 1_555
Na3 O43 2.692872 1_555
Na4 O4 2.392812 1_555
Na4 O5 2.440634 1_555
Na4 O34 2.462465 1_556
Na4 O44 2.547256 1_555
Na4 O45 2.590937 1_555
Na4 O35 2.661717 1_555
Na5 O7 2.392812 1_555
Na5 O6 2.440634 1_555
Na5 O33 2.462465 1_555
Na5 O47 2.547256 1_555
Na5 O46 2.590937 1_555
Na5 O32 2.661717 1_554
Na6 O0 2.392812 1_555
Na6 O1 2.440634 1_455
Na6 O38 2.462465 1_556
Na6 O40 2.547256 1_555
Na6 O41 2.590937 1_455
Na6 O39 2.661717 1_455
Na7 O3 2.392812 1_555
Na7 O2 2.440634 1_455
Na7 O37 2.462465 1_555
Na7 O43 2.547256 1_555
Na7 O42 2.590937 1_455
Na7 O36 2.661717 1_454
Na8 O19 2.384956 1_565
Na8 O43 2.459915 1_565
Na8 O22 2.480287 1_555
Na8 O24 2.524968 1_555
Na9 O16 2.384956 1_545
Na9 O40 2.459915 1_545
Na9 O21 2.480287 1_555
Na9 O27 2.524968 1_556
Na10 O23 2.384956 1_555
Na10 O47 2.459915 1_555
Na10 O18 2.480287 1_555
Na10 O28 2.524968 1_555
Na11 O20 2.384956 1_555
Na11 O44 2.459915 1_555
Na11 O17 2.480287 1_555
Na11 O31 2.524968 1_556
In0 O30 2.016327 1_555
In0 O0 2.129634 1_555
In0 O39 2.164447 1_455
In0 O14 2.169125 1_555
In0 O40 2.211981 1_555
In0 O16 2.218276 1_555
In1 O29 2.016327 1_554
In1 O3 2.129634 1_555
In1 O36 2.164447 1_454
In1 O13 2.169125 1_554
In1 O43 2.211981 1_555
In1 O19 2.218276 1_555
In2 O26 2.016327 1_555
In2 O4 2.129634 1_555
In2 O35 2.164447 1_555
In2 O10 2.169125 1_555
In2 O44 2.211981 1_555
In2 O20 2.218276 1_555
In3 O25 2.016327 1_554
In3 O7 2.129634 1_555
In3 O32 2.164447 1_554
In3 O9 2.169125 1_554
In3 O47 2.211981 1_555
In3 O23 2.218276 1_555
O0 Si2 1.627547 1_555
O1 P6 1.577492 1_555
O1 Sn0 2.170166 1_555
O2 P7 1.577492 1_555
O2 Sn1 2.170166 1_555
O3 Si3 1.627547 1_555
O4 Si0 1.627547 1_545
O5 P4 1.577492 1_545
O5 Sn2 2.170166 1_555
O6 P5 1.577492 1_565
O6 Sn3 2.170166 1_555
O7 Si1 1.627547 1_565
O8 P2 1.552430 1_555
O8 Sn3 2.050857 1_555
O9 P2 1.527224 1_555
O10 P3 1.527224 1_555
O11 P3 1.552430 1_555
O11 Sn2 2.050857 1_554
O12 P0 1.552430 1_545
O12 Sn1 2.050857 1_555
O13 P0 1.527224 1_445
O14 P1 1.527224 1_465
O15 P1 1.552430 1_565
O15 Sn0 2.050857 1_554
O16 P4 1.538652 1_555
O17 Si0 1.662682 1_555
O17 Sn0 2.041417 1_555
O18 Si1 1.662682 1_555
O18 Sn1 2.041417 1_555
O19 P5 1.538652 1_555
O20 P6 1.538652 1_555
O21 Si2 1.662682 1_555
O21 Sn2 2.041417 1_555
O22 Si3 1.662682 1_555
O22 Sn3 2.041417 1_555
O23 P7 1.538652 1_555
O24 P4 1.572544 1_555
O24 Sn3 2.155618 1_555
O25 Si0 1.594941 1_555
O26 Si1 1.594941 1_555
O27 P5 1.572544 1_555
O27 Sn2 2.155618 1_554
O28 P6 1.572544 1_555
O28 Sn1 2.155618 1_555
O29 Si2 1.594941 1_555
O30 Si3 1.594941 1_555
O31 P7 1.572544 1_555
O31 Sn0 2.155618 1_554
O32 P4 1.528170 1_555
O33 Si0 1.676412 1_555
O33 Sn3 2.032151 1_555
O34 Si1 1.676412 1_555
O34 Sn2 2.032151 1_554
O35 P5 1.528170 1_555
O36 P6 1.528170 1_555
O37 Si2 1.676412 1_555
O37 Sn1 2.032151 1_455
O38 Si3 1.676412 1_555
O38 Sn0 2.032151 1_454
O39 P7 1.528170 1_555
O40 P0 1.555166 1_455
O41 P0 1.557639 1_555
O41 Sn0 2.133637 1_555
O42 P1 1.557639 1_555
O42 Sn1 2.133637 1_555
O43 P1 1.555166 1_455
O44 P2 1.555166 1_555
O45 P2 1.557639 1_555
O45 Sn2 2.133637 1_555
O46 P3 1.557639 1_555
O46 Sn3 2.133637 1_555
O47 P3 1.555166 1_555
