# generated using pymatgen
data_Na6Mg16Nb8Si3(S11O48)3
_symmetry_space_group_name_H-M   'P 1'
_cell_length_a   17.48431524
_cell_length_b   8.74016999
_cell_length_c   22.63864678
_cell_angle_alpha   90.05498246
_cell_angle_beta   89.93313715
_cell_angle_gamma   120.00025784
_symmetry_Int_Tables_number   1
_chemical_formula_structural   Na6Mg16Nb8Si3(S11O48)3
_chemical_formula_sum   'Na6 Mg16 Nb8 Si3 S33 O144'
_cell_volume   2996.04366113
_cell_formula_units_Z   1
loop_
 _symmetry_equiv_pos_site_id
 _symmetry_equiv_pos_as_xyz
  1  'x, y, z'
loop_
 _atom_site_type_symbol
 _atom_site_label
 _atom_site_symmetry_multiplicity
 _atom_site_fract_x
 _atom_site_fract_y
 _atom_site_fract_z
 _atom_site_occupancy
  Na  Na0  1  0.00059885  0.99456533  0.49475277  1
  Na  Na1  1  0.49539710  0.00245217  0.99924168  1
  Na  Na2  1  0.33390670  0.33338769  0.83758913  1
  Na  Na3  1  0.83886121  0.34294383  0.83037268  1
  Na  Na4  1  0.33406511  0.33594228  0.33350199  1
  Na  Na5  1  0.83545582  0.33692557  0.33739636  1
  Mg  Mg0  1  0.00043456  0.99715621  0.35507347  1
  Mg  Mg1  1  0.49850624  0.99805860  0.35371096  1
  Mg  Mg2  1  0.00101370  0.99716436  0.85437933  1
  Mg  Mg3  1  0.49751398  0.00042952  0.85499879  1
  Mg  Mg4  1  0.49481664  0.99797391  0.14838389  1
  Mg  Mg5  1  0.33162373  0.33092105  0.68379115  1
  Mg  Mg6  1  0.83789670  0.33945653  0.68429464  1
  Mg  Mg7  1  0.33527909  0.33132124  0.18324816  1
  Mg  Mg8  1  0.83184350  0.33247542  0.18521229  1
  Mg  Mg9  1  0.33392420  0.32624284  0.98040038  1
  Mg  Mg10  1  0.83641856  0.33808251  0.98109126  1
  Mg  Mg11  1  0.33209431  0.33047146  0.48088761  1
  Mg  Mg12  1  0.83854738  0.34111021  0.47961651  1
  Mg  Mg13  1  0.17088714  0.67553035  0.02153242  1
  Mg  Mg14  1  0.16325089  0.66732142  0.52054521  1
  Mg  Mg15  1  0.66765673  0.66646050  0.52099851  1
  Nb  Nb0  1  0.00159439  0.99161539  0.64499558  1
  Nb  Nb1  1  0.49965504  0.00013901  0.63987318  1
  Nb  Nb2  1  0.00346707  0.00146439  0.14231229  1
  Nb  Nb3  1  0.66021712  0.64949853  0.02292530  1
  Nb  Nb4  1  0.16511243  0.66618182  0.31597282  1
  Nb  Nb5  1  0.66436751  0.66466971  0.31286281  1
  Nb  Nb6  1  0.16225118  0.66794044  0.81194567  1
  Nb  Nb7  1  0.66287579  0.65883861  0.81144813  1
  Si  Si0  1  0.99199372  0.70116661  0.75374126  1
  Si  Si1  1  0.51289420  0.35984606  0.91613151  1
  Si  Si2  1  0.01563289  0.66728147  0.42196531  1
  S  S0  1  0.14655463  0.00464457  0.25115956  1
  S  S1  1  0.64510064  0.00558119  0.25025436  1
  S  S2  1  0.35654345  0.70818468  0.25034760  1
  S  S3  1  0.85653868  0.70955627  0.25086257  1
  S  S4  1  0.99813341  0.28672915  0.25100770  1
  S  S5  1  0.49725844  0.28453359  0.25054108  1
  S  S6  1  0.14647970  0.28799641  0.75132028  1
  S  S7  1  0.64475227  0.28268412  0.75050939  1
  S  S8  1  0.49728012  0.71037634  0.75066129  1
  S  S9  1  0.35700688  0.00450746  0.75069216  1
  S  S10  1  0.85665404  0.00439626  0.75141283  1
  S  S11  1  0.47840394  0.34243081  0.58318873  1
  S  S12  1  0.97895583  0.33706450  0.58306399  1
  S  S13  1  0.19220180  0.04356073  0.58306860  1
  S  S14  1  0.69347373  0.04446170  0.58316888  1
  S  S15  1  0.32858202  0.61444378  0.58305482  1
  S  S16  1  0.82910547  0.61667720  0.58301516  1
  S  S17  1  0.47487037  0.62542040  0.08326155  1
  S  S18  1  0.97848123  0.61520014  0.08349063  1
  S  S19  1  0.33338838  0.04227181  0.08327928  1
  S  S20  1  0.83269660  0.04689103  0.08335525  1
  S  S21  1  0.19352069  0.34411061  0.08295259  1
  S  S22  1  0.68863701  0.32522044  0.08336937  1
  S  S23  1  0.31172278  0.66540424  0.91766677  1
  S  S24  1  0.81292622  0.66793815  0.91719895  1
  S  S25  1  0.02086116  0.37291503  0.91868408  1
  S  S26  1  0.16507862  0.95821237  0.91875028  1
  S  S27  1  0.66765294  0.95885221  0.91712949  1
  S  S28  1  0.31398008  0.95913637  0.41868428  1
  S  S29  1  0.81171276  0.95700400  0.41816787  1
  S  S30  1  0.16691319  0.37498854  0.41857613  1
  S  S31  1  0.66485906  0.37236579  0.41831848  1
  S  S32  1  0.52062454  0.66858474  0.41878955  1
  O  O0  1  0.10395349  0.03019442  0.30186420  1
  O  O1  1  0.60553934  0.02903902  0.30375461  1
  O  O2  1  0.40978593  0.78914234  0.30354480  1
  O  O3  1  0.91003865  0.79244017  0.30235905  1
  O  O4  1  0.48610334  0.18233839  0.30389537  1
  O  O5  1  0.98561310  0.17871775  0.30258425  1
  O  O6  1  0.10550682  0.18255689  0.80346999  1
  O  O7  1  0.60329635  0.17794912  0.80297759  1
  O  O8  1  0.48633969  0.79282215  0.80320423  1
  O  O9  1  0.98491877  0.80196382  0.80839338  1
  O  O10  1  0.41128389  0.03089921  0.80243996  1
  O  O11  1  0.90972997  0.03135656  0.80385453  1
  O  O12  1  0.39820999  0.97263564  0.69637414  1
  O  O13  1  0.89637361  0.97076507  0.69720692  1
  O  O14  1  0.08997538  0.21065046  0.69683293  1
  O  O15  1  0.58726138  0.20490877  0.69668229  1
  O  O16  1  0.01505806  0.83626116  0.69335632  1
  O  O17  1  0.51389720  0.82341617  0.69672252  1
  O  O18  1  0.39369327  0.81676555  0.19739264  1
  O  O19  1  0.89665940  0.82233058  0.19629432  1
  O  O20  1  0.01269563  0.20139651  0.19620248  1
  O  O21  1  0.51779046  0.21730676  0.19754193  1
  O  O22  1  0.08806622  0.97228404  0.19624180  1
  O  O23  1  0.59171150  0.96813688  0.19701481  1
  O  O24  1  0.43829158  0.36106109  0.63723147  1
  O  O25  1  0.93804817  0.35785939  0.63640526  1
  O  O26  1  0.24149236  0.12613571  0.63704027  1
  O  O27  1  0.74197437  0.12396762  0.63732766  1
  O  O28  1  0.32021463  0.51645598  0.63710867  1
  O  O29  1  0.81871750  0.51699059  0.63679535  1
  O  O30  1  0.44239432  0.51817832  0.13633246  1
  O  O31  1  0.93727330  0.51436369  0.13708435  1
  O  O32  1  0.31976297  0.12343698  0.13673837  1
  O  O33  1  0.81831415  0.12136061  0.13667455  1
  O  O34  1  0.24193070  0.36078793  0.13704291  1
  O  O35  1  0.74294528  0.36471685  0.13616679  1
  O  O36  1  0.22516380  0.29688768  0.03057067  1
  O  O37  1  0.72888756  0.30491638  0.02947606  1
  O  O38  1  0.42438507  0.54582571  0.02988894  1
  O  O39  1  0.92226930  0.54911197  0.03110815  1
  O  O40  1  0.34917946  0.15463706  0.03066171  1
  O  O41  1  0.85045508  0.15359845  0.03037759  1
  O  O42  1  0.22717329  0.15606554  0.53063118  1
  O  O43  1  0.72533084  0.15490132  0.53077625  1
  O  O44  1  0.35244916  0.54881490  0.53095064  1
  O  O45  1  0.85087165  0.54938421  0.53060791  1
  O  O46  1  0.42264562  0.29663508  0.53093492  1
  O  O47  1  0.92229570  0.29402594  0.53074247  1
  O  O48  1  0.27074935  0.69510463  0.96941162  1
  O  O49  1  0.76792383  0.69302099  0.97034844  1
  O  O50  1  0.07623051  0.45945295  0.96965567  1
  O  O51  1  0.58417157  0.47713873  0.97243507  1
  O  O52  1  0.15192175  0.84449842  0.96907914  1
  O  O53  1  0.65524835  0.84558752  0.97021523  1
  O  O54  1  0.27257976  0.84815049  0.46948897  1
  O  O55  1  0.76993438  0.84433374  0.46942614  1
  O  O56  1  0.15456353  0.45872763  0.47006179  1
  O  O57  1  0.65202356  0.45962067  0.46901582  1
  O  O58  1  0.08263941  0.69884634  0.47334906  1
  O  O59  1  0.57676744  0.69373757  0.46937383  1
  O  O60  1  0.07210252  0.64066241  0.35905451  1
  O  O61  1  0.56626719  0.63900777  0.36303182  1
  O  O62  1  0.25460171  0.86946410  0.36277337  1
  O  O63  1  0.75369897  0.86502264  0.36259192  1
  O  O64  1  0.18210330  0.49002295  0.36239457  1
  O  O65  1  0.67942258  0.49488113  0.36275446  1
  O  O66  1  0.06520791  0.49208653  0.86292680  1
  O  O67  1  0.57269522  0.50359843  0.85999285  1
  O  O68  1  0.18019347  0.86638088  0.86322115  1
  O  O69  1  0.68276644  0.87452158  0.86274687  1
  O  O70  1  0.25574084  0.64135302  0.86264825  1
  O  O71  1  0.75430734  0.63836631  0.86338503  1
  O  O72  1  0.01150127  0.84242264  0.40899046  1
  O  O73  1  0.51376249  0.82384298  0.40655974  1
  O  O74  1  0.39943668  0.97563799  0.40633387  1
  O  O75  1  0.89827158  0.97523949  0.40786516  1
  O  O76  1  0.08788985  0.20413755  0.40788134  1
  O  O77  1  0.58682128  0.20318270  0.40604469  1
  O  O78  1  0.01270949  0.20263294  0.90644054  1
  O  O79  1  0.51764057  0.18491139  0.91175929  1
  O  O80  1  0.08790861  0.97441574  0.90804500  1
  O  O81  1  0.58762013  0.96808401  0.90985570  1
  O  O82  1  0.39962481  0.82204159  0.90857037  1
  O  O83  1  0.89712777  0.82665504  0.91035404  1
  O  O84  1  0.48782002  0.17326384  0.59434982  1
  O  O85  1  0.98825284  0.17007744  0.59280812  1
  O  O86  1  0.09912739  0.02970067  0.59082307  1
  O  O87  1  0.59815988  0.02405493  0.59514905  1
  O  O88  1  0.41371753  0.80289460  0.59458160  1
  O  O89  1  0.91291914  0.80669905  0.59176474  1
  O  O90  1  0.49229427  0.80679415  0.09007716  1
  O  O91  1  0.98731440  0.80271581  0.09479519  1
  O  O92  1  0.41383026  0.02453645  0.09021347  1
  O  O93  1  0.91251877  0.02211467  0.09334808  1
  O  O94  1  0.09810224  0.17212123  0.09515746  1
  O  O95  1  0.59865945  0.17731262  0.08997489  1
  O  O96  1  0.34524112  0.15721138  0.74165324  1
  O  O97  1  0.84167297  0.15156958  0.74185476  1
  O  O98  1  0.23458920  0.31139300  0.74192337  1
  O  O99  1  0.73228425  0.30782992  0.74158419  1
  O  O100  1  0.42208191  0.53302069  0.74205011  1
  O  O101  1  0.91318711  0.50763006  0.74292067  1
  O  O102  1  0.34341761  0.52808027  0.24308896  1
  O  O103  1  0.84402957  0.53227747  0.24165675  1
  O  O104  1  0.42247130  0.31533719  0.24383313  1
  O  O105  1  0.92169525  0.30983400  0.24141161  1
  O  O106  1  0.23392606  0.15782336  0.24171499  1
  O  O107  1  0.73565563  0.15603525  0.24314880  1
  O  O108  1  0.31745415  0.50405146  0.92236689  1
  O  O109  1  0.81762358  0.50604528  0.92345673  1
  O  O110  1  0.42492551  0.36623596  0.92060726  1
  O  O111  1  0.93341654  0.36118134  0.92215090  1
  O  O112  1  0.24610567  0.13050624  0.92109638  1
  O  O113  1  0.74717202  0.13233630  0.92369259  1
  O  O114  1  0.31942413  0.13340351  0.42150909  1
  O  O115  1  0.81555545  0.12745842  0.42148522  1
  O  O116  1  0.24756623  0.36094511  0.42158359  1
  O  O117  1  0.74522137  0.36097850  0.42140952  1
  O  O118  1  0.43407973  0.50552964  0.42179789  1
  O  O119  1  0.92300109  0.48601841  0.41888582  1
  O  O120  1  0.17439856  0.48538989  0.07528962  1
  O  O121  1  0.68100437  0.49467086  0.07488314  1
  O  O122  1  0.06686267  0.64777879  0.07536383  1
  O  O123  1  0.56922895  0.64661683  0.07345470  1
  O  O124  1  0.25510141  0.86674459  0.07518443  1
  O  O125  1  0.75627900  0.86611213  0.07406826  1
  O  O126  1  0.17780480  0.86739311  0.57694619  1
  O  O127  1  0.67503521  0.86469537  0.57525823  1
  O  O128  1  0.25688199  0.64862330  0.57512260  1
  O  O129  1  0.75563607  0.64820452  0.57515268  1
  O  O130  1  0.06762672  0.48482748  0.57576213  1
  O  O131  1  0.56759002  0.48673223  0.57530841  1
  O  O132  1  0.15365973  0.84175819  0.25594016  1
  O  O133  1  0.65524913  0.84045476  0.26086815  1
  O  O134  1  0.26619053  0.68952717  0.25994262  1
  O  O135  1  0.76682502  0.69324477  0.25767529  1
  O  O136  1  0.08052526  0.46277174  0.25590251  1
  O  O137  1  0.58004412  0.47067931  0.26082108  1
  O  O138  1  0.15497811  0.46737667  0.75852993  1
  O  O139  1  0.65302893  0.46474379  0.75688776  1
  O  O140  1  0.08714998  0.69272064  0.76078040  1
  O  O141  1  0.58065973  0.69734590  0.75657105  1
  O  O142  1  0.26878825  0.84090387  0.75722594  1
  O  O143  1  0.76712285  0.83843068  0.75930894  1
loop_
_geom_bond_atom_site_label_1
_geom_bond_atom_site_label_2
_geom_bond_distance
_geom_bond_site_symmetry_2
Na0 O72 2.412847 1_555
Na0 O76 2.599326 1_565
Na0 O75 2.608452 1_455
Na0 O86 2.696413 1_565
Na0 O89 2.711363 1_455
Na0 O85 2.766034 1_465
Na1 O79 2.449646 1_555
Na1 O92 2.565198 1_556
Na1 O82 2.620156 1_545
Na1 O95 2.656686 1_556
Na1 O90 2.658909 1_546
Na1 O81 2.694567 1_545
Na2 O110 2.386681 1_555
Na2 O112 2.520400 1_555
Na2 O108 2.532499 1_555
Na2 O100 2.721893 1_555
Na2 O98 2.723414 1_555
Na2 O96 2.724884 1_555
Na3 O101 2.410214 1_555
Na3 O111 2.611404 1_555
Na3 O97 2.625155 1_555
Na3 O99 2.653773 1_555
Na3 O109 2.670670 1_555
Na3 O113 2.733162 1_555
Na4 O116 2.575632 1_555
Na4 O118 2.580891 1_555
Na4 O114 2.592517 1_555
Na4 O102 2.601455 1_555
Na4 O104 2.610146 1_555
Na4 O106 2.661477 1_555
Na5 O119 2.334885 1_555
Na5 O115 2.542608 1_555
Na5 O117 2.544521 1_555
Na5 O107 2.709288 1_555
Na5 O103 2.717682 1_555
Na5 O105 2.720261 1_555
Mg0 O72 1.903078 1_555
Mg0 O76 2.067342 1_565
Mg0 O0 2.069611 1_565
Mg0 O3 2.072668 1_455
Mg0 O75 2.075816 1_455
Mg0 O5 2.100697 1_465
Mg1 O74 2.028351 1_555
Mg1 O2 2.048867 1_555
Mg1 O73 2.057069 1_555
Mg1 O77 2.057676 1_565
Mg1 O4 2.065515 1_565
Mg1 O1 2.084085 1_565
Mg2 O9 1.894964 1_455
Mg2 O80 2.032406 1_555
Mg2 O78 2.070066 1_565
Mg2 O6 2.080872 1_565
Mg2 O83 2.101726 1_455
Mg2 O11 2.104003 1_465
Mg3 O79 1.950519 1_555
Mg3 O82 2.039938 1_545
Mg3 O10 2.041097 1_555
Mg3 O7 2.084176 1_555
Mg3 O8 2.085065 1_545
Mg3 O81 2.134211 1_545
Mg4 O18 2.015927 1_555
Mg4 O92 2.031461 1_565
Mg4 O21 2.074045 1_565
Mg4 O90 2.111532 1_555
Mg4 O23 2.144036 1_555
Mg4 O95 2.157386 1_565
Mg5 O26 1.996695 1_555
Mg5 O28 2.028189 1_555
Mg5 O24 2.040425 1_555
Mg5 O98 2.084495 1_555
Mg5 O96 2.108007 1_555
Mg5 O100 2.137228 1_555
Mg6 O101 1.928808 1_555
Mg6 O25 1.995441 1_555
Mg6 O29 2.049597 1_555
Mg6 O27 2.081374 1_555
Mg6 O97 2.124105 1_555
Mg6 O99 2.157073 1_555
Mg7 O32 1.996896 1_555
Mg7 O30 2.059812 1_555
Mg7 O34 2.061360 1_555
Mg7 O104 2.107846 1_555
Mg7 O106 2.121997 1_555
Mg7 O102 2.136390 1_555
Mg8 O35 2.042250 1_555
Mg8 O31 2.044635 1_555
Mg8 O33 2.056283 1_555
Mg8 O107 2.081352 1_555
Mg8 O103 2.086166 1_555
Mg8 O105 2.107584 1_555
Mg9 O110 1.981366 1_555
Mg9 O40 2.004863 1_556
Mg9 O38 2.098713 1_556
Mg9 O112 2.111964 1_555
Mg9 O36 2.116495 1_556
Mg9 O108 2.162517 1_555
Mg10 O39 2.041706 1_556
Mg10 O37 2.066265 1_556
Mg10 O41 2.074827 1_556
Mg10 O111 2.085728 1_555
Mg10 O109 2.110118 1_555
Mg10 O113 2.133386 1_555
Mg11 O42 2.039400 1_555
Mg11 O46 2.085861 1_555
Mg11 O44 2.090601 1_555
Mg11 O114 2.106526 1_555
Mg11 O116 2.111067 1_555
Mg11 O118 2.140130 1_555
Mg12 O119 1.950163 1_555
Mg12 O47 2.064113 1_555
Mg12 O45 2.072917 1_555
Mg12 O115 2.150893 1_555
Mg12 O43 2.164534 1_555
Mg12 O117 2.172086 1_555
Mg13 O124 1.993954 1_555
Mg13 O48 2.041322 1_554
Mg13 O52 2.048171 1_554
Mg13 O120 2.086312 1_555
Mg13 O122 2.099106 1_555
Mg13 O50 2.135329 1_554
Mg14 O58 1.896433 1_555
Mg14 O130 2.057716 1_555
Mg14 O126 2.074702 1_555
Mg14 O56 2.091071 1_555
Mg14 O54 2.113066 1_555
Mg14 O128 2.122729 1_555
Mg15 O129 2.035913 1_555
Mg15 O55 2.048508 1_555
Mg15 O57 2.056777 1_555
Mg15 O131 2.071390 1_555
Mg15 O127 2.073696 1_555
Mg15 O59 2.081302 1_555
Nb0 O16 1.849547 1_555
Nb0 O86 1.987746 1_565
Nb0 O89 1.990711 1_455
Nb0 O85 2.061848 1_465
Nb0 O14 2.114618 1_565
Nb0 O13 2.115405 1_455
Nb1 O87 1.916101 1_555
Nb1 O88 1.921160 1_545
Nb1 O84 1.926428 1_555
Nb1 O12 2.099719 1_545
Nb1 O15 2.112369 1_555
Nb1 O17 2.119740 1_545
Nb2 O94 1.906070 1_555
Nb2 O91 1.939323 1_445
Nb2 O93 2.020261 1_455
Nb2 O22 2.031155 1_545
Nb2 O20 2.069395 1_555
Nb2 O19 2.122897 1_445
Nb3 O51 1.827843 1_554
Nb3 O123 1.948275 1_555
Nb3 O121 1.960297 1_555
Nb3 O49 2.094536 1_554
Nb3 O53 2.126457 1_554
Nb3 O125 2.136894 1_555
Nb4 O60 1.810953 1_555
Nb4 O62 1.986885 1_555
Nb4 O64 2.006110 1_555
Nb4 O134 2.099652 1_555
Nb4 O132 2.134001 1_555
Nb4 O136 2.137301 1_555
Nb5 O61 1.973184 1_555
Nb5 O137 1.984167 1_555
Nb5 O65 1.985384 1_555
Nb5 O133 2.005071 1_555
Nb5 O63 2.009627 1_555
Nb5 O135 2.092936 1_555
Nb6 O140 1.844244 1_555
Nb6 O68 1.976595 1_555
Nb6 O66 1.991042 1_555
Nb6 O138 2.079598 1_555
Nb6 O70 2.104328 1_555
Nb6 O142 2.114688 1_555
Nb7 O67 1.842364 1_555
Nb7 O139 2.034096 1_555
Nb7 O141 2.052279 1_555
Nb7 O71 2.064193 1_555
Nb7 O143 2.077690 1_555
Nb7 O69 2.089118 1_555
O0 S0 1.444353 1_555
O1 S1 1.458360 1_555
O2 S2 1.469665 1_555
O3 S3 1.442976 1_555
O4 S5 1.456746 1_555
O5 S4 1.448217 1_555
O6 S6 1.447829 1_555
O7 S7 1.452856 1_555
O8 S8 1.451350 1_555
O9 Si0 1.558446 1_555
O10 S9 1.452372 1_555
O11 S10 1.452422 1_555
O12 S9 1.518773 1_565
O13 S10 1.508654 1_565
O14 S6 1.512603 1_555
O15 S7 1.508436 1_555
O16 Si0 1.717913 1_455
O17 S8 1.505342 1_555
O18 S2 1.464124 1_555
O19 S3 1.516110 1_555
O20 S4 1.532265 1_455
O21 S5 1.456805 1_555
O22 S0 1.544191 1_565
O23 S1 1.458604 1_565
O24 S11 1.458439 1_555
O25 S12 1.459589 1_555
O26 S13 1.461259 1_555
O27 S14 1.454914 1_555
O28 S15 1.458983 1_555
O29 S16 1.455238 1_555
O30 S17 1.453550 1_555
O31 S18 1.460457 1_555
O32 S19 1.480326 1_555
O33 S20 1.450989 1_555
O34 S21 1.454594 1_555
O35 S22 1.457229 1_555
O36 S21 1.452095 1_555
O37 S22 1.462124 1_555
O38 S17 1.452539 1_555
O39 S18 1.462730 1_555
O40 S19 1.479862 1_555
O41 S20 1.454766 1_555
O42 S13 1.466050 1_555
O43 S14 1.453206 1_555
O44 S15 1.459955 1_555
O45 S16 1.455956 1_555
O46 S11 1.456565 1_555
O47 S12 1.468045 1_555
O48 S23 1.461603 1_555
O49 S24 1.511530 1_555
O50 S25 1.452424 1_555
O51 Si1 1.718241 1_555
O52 S26 1.453211 1_555
O53 S27 1.502767 1_555
O54 S28 1.444232 1_555
O55 S29 1.459717 1_555
O56 S30 1.447980 1_555
O57 S31 1.455364 1_555
O58 Si2 1.575180 1_555
O59 S32 1.452459 1_555
O60 Si2 1.811943 1_555
O61 S32 1.581249 1_555
O62 S28 1.575340 1_555
O63 S29 1.563243 1_555
O64 S30 1.560034 1_555
O65 S31 1.588374 1_555
O66 S25 1.572271 1_555
O67 Si1 1.724323 1_555
O68 S26 1.582326 1_555
O69 S27 1.523512 1_555
O70 S23 1.533042 1_555
O71 S24 1.529328 1_555
O72 Si2 1.595691 1_555
O73 S32 1.447778 1_555
O74 S28 1.454326 1_555
O75 S29 1.458864 1_555
O76 S30 1.460940 1_555
O77 S31 1.451868 1_555
O78 S25 1.448910 1_555
O79 Si1 1.575111 1_555
O80 S26 1.446105 1_555
O81 S27 1.450928 1_555
O82 S23 1.474604 1_555
O83 S24 1.439918 1_555
O84 S11 1.587856 1_555
O85 S12 1.563061 1_555
O86 S13 1.579865 1_555
O87 S14 1.607602 1_555
O88 S15 1.595323 1_555
O89 S16 1.584694 1_555
O90 S17 1.465024 1_555
O91 S18 1.587945 1_555
O92 S19 1.498470 1_555
O93 S20 1.532621 1_555
O94 S21 1.615909 1_555
O95 S22 1.461012 1_555
O96 S9 1.463110 1_555
O97 S10 1.451774 1_555
O98 S6 1.464449 1_555
O99 S7 1.447193 1_555
O100 S8 1.459954 1_555
O101 Si0 1.577691 1_555
O102 S2 1.481866 1_555
O103 S3 1.467193 1_555
O104 S5 1.468999 1_555
O105 S4 1.464505 1_555
O106 S0 1.458199 1_555
O107 S1 1.476372 1_555
O108 S23 1.466903 1_555
O109 S24 1.464781 1_555
O110 Si1 1.569897 1_555
O111 S25 1.482288 1_655
O112 S26 1.464295 1_545
O113 S27 1.464961 1_545
O114 S28 1.479157 1_545
O115 S29 1.459233 1_545
O116 S30 1.477020 1_555
O117 S31 1.459157 1_555
O118 S32 1.472682 1_555
O119 Si2 1.603755 1_655
O120 S21 1.442224 1_555
O121 S22 1.564099 1_555
O122 S18 1.436060 1_455
O123 S17 1.580827 1_555
O124 S19 1.469990 1_565
O125 S20 1.488224 1_565
O126 S13 1.437165 1_565
O127 S14 1.448344 1_565
O128 S15 1.438124 1_555
O129 S16 1.453379 1_555
O130 S12 1.447886 1_455
O131 S11 1.444705 1_555
O132 S0 1.493695 1_565
O133 S1 1.558523 1_565
O134 S2 1.520220 1_555
O135 S3 1.510103 1_555
O136 S4 1.496142 1_455
O137 S5 1.562480 1_555
O138 S6 1.507768 1_555
O139 S7 1.530735 1_555
O140 Si0 1.709485 1_455
O141 S8 1.524031 1_555
O142 S9 1.496653 1_565
O143 S10 1.521733 1_565
