# generated using pymatgen
data_MgCu4(GeO4)2
_symmetry_space_group_name_H-M   'P 1'
_cell_length_a   5.51608179
_cell_length_b   5.72694131
_cell_length_c   7.67403462
_cell_angle_alpha   118.74150516
_cell_angle_beta   111.06330100
_cell_angle_gamma   89.99998941
_symmetry_Int_Tables_number   1
_chemical_formula_structural   MgCu4(GeO4)2
_chemical_formula_sum   'Mg1 Cu4 Ge2 O8'
_cell_volume   193.88036822
_cell_formula_units_Z   1
loop_
 _symmetry_equiv_pos_site_id
 _symmetry_equiv_pos_as_xyz
  1  'x, y, z'
loop_
 _atom_site_type_symbol
 _atom_site_label
 _atom_site_symmetry_multiplicity
 _atom_site_fract_x
 _atom_site_fract_y
 _atom_site_fract_z
 _atom_site_occupancy
  Mg  Mg0  1  0.50000019  0.50000061  0.00000038  1
  Cu  Cu0  1  0.00000040  0.00000056  0.00000080  1
  Cu  Cu1  1  0.49999995  0.00000023  0.50000019  1
  Cu  Cu2  1  0.00000024  0.00000023  0.50000019  1
  Cu  Cu3  1  0.99999853  0.49999758  0.99999807  1
  Ge  Ge0  1  0.63668957  0.35351710  0.27337815  1
  Ge  Ge1  1  0.36331178  0.64648400  0.72662257  1
  O  O0  1  0.68193168  0.71734861  0.36386336  1
  O  O1  1  0.78733304  0.28683045  0.07953531  1
  O  O2  1  0.29220126  0.28683045  0.07953531  1
  O  O3  1  0.31806862  0.28265207  0.63613725  1
  O  O4  1  0.27909447  0.77938955  0.55818894  1
  O  O5  1  0.21266573  0.71316951  0.92046455  1
  O  O6  1  0.72090570  0.22060955  0.44181039  1
  O  O7  1  0.70779882  0.71316951  0.92046455  1
loop_
_geom_bond_atom_site_label_1
_geom_bond_atom_site_label_2
_geom_bond_distance
_geom_bond_site_symmetry_2
Mg0 O1 2.096721 1_555
Mg0 O5 2.096723 1_554
Mg0 O7 2.096724 1_554
Mg0 O2 2.096725 1_555
Mg0 O0 2.235300 1_555
Mg0 O3 2.235300 1_554
Cu0 O2 1.999355 1_555
Cu0 O5 1.999357 1_544
Cu0 O7 1.999357 1_444
Cu0 O1 1.999359 1_455
Cu1 O3 1.961139 1_555
Cu1 O0 1.961139 1_545
Cu1 O4 2.052841 1_545
Cu1 O6 2.052842 1_555
Cu2 O3 1.961139 1_555
Cu2 O0 1.961139 1_445
Cu2 O6 2.052838 1_455
Cu2 O4 2.052841 1_545
Cu3 O2 2.114307 1_656
Cu3 O1 2.114308 1_556
Cu3 O7 2.114308 1_555
Cu3 O5 2.114312 1_655
Ge0 O6 1.726390 1_555
Ge0 O0 1.835753 1_555
Ge0 O1 1.841554 1_555
Ge0 O2 1.841562 1_555
Ge1 O4 1.726390 1_555
Ge1 O3 1.835756 1_555
Ge1 O7 1.841556 1_555
Ge1 O5 1.841560 1_555
