# generated using pymatgen
data_Na3YNbSi2PO12
_symmetry_space_group_name_H-M   'P 1'
_cell_length_a   9.25310422
_cell_length_b   9.25310389
_cell_length_c   22.72612881
_cell_angle_alpha   90.55305054
_cell_angle_beta   89.44694947
_cell_angle_gamma   119.93704900
_symmetry_Int_Tables_number   1
_chemical_formula_structural   Na3YNbSi2PO12
_chemical_formula_sum   'Na18 Y6 Nb6 Si12 P6 O72'
_cell_volume   1686.08371056
_cell_formula_units_Z   6
loop_
 _symmetry_equiv_pos_site_id
 _symmetry_equiv_pos_as_xyz
  1  'x, y, z'
loop_
 _atom_site_type_symbol
 _atom_site_label
 _atom_site_symmetry_multiplicity
 _atom_site_fract_x
 _atom_site_fract_y
 _atom_site_fract_z
 _atom_site_occupancy
  Na  Na0  1  0.99042970  0.98983469  0.49695142  1
  Na  Na1  1  0.01016531  0.00957030  0.99695142  1
  Na  Na2  1  0.65709164  0.32315963  0.83028362  1
  Na  Na3  1  0.67684037  0.34290836  0.33028362  1
  Na  Na4  1  0.32375726  0.65649740  0.16361870  1
  Na  Na5  1  0.34350260  0.67624274  0.66361870  1
  Na  Na6  1  0.65846229  0.01664098  0.25061317  1
  Na  Na7  1  0.98077519  0.62395638  0.24691551  1
  Na  Na8  1  0.98335902  0.34153771  0.75061317  1
  Na  Na9  1  0.37604362  0.01922481  0.74691551  1
  Na  Na10  1  0.32512783  0.34997183  0.58394763  1
  Na  Na11  1  0.64745120  0.95729033  0.58024966  1
  Na  Na12  1  0.65002817  0.67487217  0.08394763  1
  Na  Na13  1  0.04270967  0.35254880  0.08024966  1
  Na  Na14  1  0.99179478  0.68330678  0.91728231  1
  Na  Na15  1  0.31411070  0.29062773  0.91358345  1
  Na  Na16  1  0.31669322  0.00820522  0.41728231  1
  Na  Na17  1  0.70937227  0.68588930  0.41358345  1
  Y  Y0  1  0.00133709  0.01173594  0.35147375  1
  Y  Y1  1  0.98826406  0.99866291  0.85147375  1
  Y  Y2  1  0.66800290  0.34506880  0.68480680  1
  Y  Y3  1  0.65493120  0.33199710  0.18480680  1
  Y  Y4  1  0.33466794  0.67840202  0.01814072  1
  Y  Y5  1  0.32159798  0.66533206  0.51814072  1
  Nb  Nb0  1  0.99609021  0.99187290  0.64812300  1
  Nb  Nb1  1  0.00812710  0.00390979  0.14812300  1
  Nb  Nb2  1  0.66276059  0.32520589  0.98145564  1
  Nb  Nb3  1  0.67479411  0.33723941  0.48145564  1
  Nb  Nb4  1  0.32942510  0.65854528  0.31479375  1
  Nb  Nb5  1  0.34145472  0.67057490  0.81479375  1
  Si  Si0  1  0.69865637  0.70938416  0.25238326  1
  Si  Si1  1  0.00953741  0.30415150  0.24834673  1
  Si  Si2  1  0.29061584  0.30134363  0.75238326  1
  Si  Si3  1  0.69584850  0.99046259  0.74834673  1
  Si  Si4  1  0.36532511  0.04271958  0.58571409  1
  Si  Si5  1  0.67620329  0.63748914  0.58167941  1
  Si  Si6  1  0.95728042  0.63467489  0.08571409  1
  Si  Si7  1  0.36251086  0.32379671  0.08167941  1
  Si  Si8  1  0.03198976  0.37605375  0.91905073  1
  Si  Si9  1  0.34287255  0.97082298  0.91501027  1
  Si  Si10  1  0.62394625  0.96801024  0.41905073  1
  Si  Si11  1  0.02917702  0.65712745  0.41501027  1
  P  P0  1  0.28872619  0.98218914  0.25183502  1
  P  P1  1  0.01781086  0.71127381  0.75183502  1
  P  P2  1  0.95539427  0.31552579  0.58516965  1
  P  P3  1  0.68447421  0.04460573  0.08516965  1
  P  P4  1  0.62205069  0.64885109  0.91850170  1
  P  P5  1  0.35114891  0.37794931  0.41850170  1
  O  O0  1  0.22257873  0.00618689  0.31003499  1
  O  O1  1  0.80366571  0.78994678  0.31093467  1
  O  O2  1  0.97384492  0.18721594  0.30320497  1
  O  O3  1  0.21005322  0.19633429  0.81093467  1
  O  O4  1  0.99381311  0.77742127  0.81003499  1
  O  O5  1  0.81278406  0.02615508  0.80320497  1
  O  O6  1  0.79899389  0.97087604  0.68907352  1
  O  O7  1  0.16010789  0.19074278  0.69486484  1
  O  O8  1  0.02304947  0.82894353  0.69943457  1
  O  O9  1  0.80925722  0.83989211  0.19486484  1
  O  O10  1  0.02912396  0.20100611  0.18907352  1
  O  O11  1  0.17105647  0.97695053  0.19943457  1
  O  O12  1  0.88924830  0.33951976  0.64336812  1
  O  O13  1  0.47032775  0.12327147  0.64426775  1
  O  O14  1  0.64050715  0.52054548  0.63653731  1
  O  O15  1  0.87672853  0.52967225  0.14426775  1
  O  O16  1  0.66048024  0.11075170  0.14336812  1
  O  O17  1  0.47945452  0.35949285  0.13653731  1
  O  O18  1  0.46566425  0.30421147  0.02240561  1
  O  O19  1  0.82676997  0.52406761  0.02819792  1
  O  O20  1  0.68972205  0.16228039  0.03276827  1
  O  O21  1  0.47593239  0.17323003  0.52819792  1
  O  O22  1  0.69578853  0.53433575  0.52240561  1
  O  O23  1  0.83771961  0.31027795  0.53276827  1
  O  O24  1  0.55591008  0.67285644  0.97670099  1
  O  O25  1  0.13699218  0.45660784  0.97760171  1
  O  O26  1  0.30717170  0.85387901  0.96987110  1
  O  O27  1  0.54339216  0.86300782  0.47760171  1
  O  O28  1  0.32714356  0.44408992  0.47670099  1
  O  O29  1  0.14612099  0.69282830  0.46987110  1
  O  O30  1  0.13232794  0.63754461  0.35573997  1
  O  O31  1  0.49343760  0.85740710  0.36153161  1
  O  O32  1  0.35638376  0.49560496  0.36610259  1
  O  O33  1  0.14259290  0.50656240  0.86153161  1
  O  O34  1  0.36245539  0.86767206  0.85573997  1
  O  O35  1  0.50439504  0.64361624  0.86610259  1
  O  O36  1  0.99948821  0.81460182  0.41073083  1
  O  O37  1  0.80770649  0.99185014  0.41337853  1
  O  O38  1  0.21563548  0.19646372  0.41046660  1
  O  O39  1  0.00814986  0.19229351  0.91337853  1
  O  O40  1  0.18539818  0.00051179  0.91073083  1
  O  O41  1  0.80353628  0.78436452  0.91046660  1
  O  O42  1  0.94566660  0.14122507  0.58350747  1
  O  O43  1  0.18564102  0.04523480  0.58933243  1
  O  O44  1  0.85209368  0.81942700  0.58839397  1
  O  O45  1  0.95476520  0.81435898  0.08933243  1
  O  O46  1  0.85877493  0.05433340  0.08350747  1
  O  O47  1  0.18057300  0.14790632  0.08839397  1
  O  O48  1  0.66615710  0.14793421  0.74406457  1
  O  O49  1  0.47437502  0.32518246  0.74671197  1
  O  O50  1  0.88229795  0.52980249  0.74379892  1
  O  O51  1  0.67481754  0.52562498  0.24671197  1
  O  O52  1  0.85206579  0.33384290  0.24406457  1
  O  O53  1  0.47019751  0.11770205  0.24379892  1
  O  O54  1  0.61233038  0.47456599  0.91684021  1
  O  O55  1  0.85230985  0.37856428  0.92266554  1
  O  O56  1  0.51876057  0.15275968  0.92172696  1
  O  O57  1  0.62143572  0.14769015  0.42266554  1
  O  O58  1  0.52543401  0.38766962  0.41684021  1
  O  O59  1  0.84724032  0.48123943  0.42172696  1
  O  O60  1  0.33282420  0.48126639  0.07739828  1
  O  O61  1  0.14103675  0.65851959  0.08004594  1
  O  O62  1  0.54896865  0.86313581  0.07713291  1
  O  O63  1  0.34148041  0.85896325  0.58004594  1
  O  O64  1  0.51873361  0.66717580  0.57739828  1
  O  O65  1  0.13686419  0.45103135  0.57713291  1
  O  O66  1  0.27899634  0.80789397  0.25017429  1
  O  O67  1  0.51897504  0.71189720  0.25599956  1
  O  O68  1  0.18542608  0.48609636  0.25506047  1
  O  O69  1  0.28810280  0.48102496  0.75599956  1
  O  O70  1  0.19210603  0.72100366  0.75017429  1
  O  O71  1  0.51390363  0.81457392  0.75506047  1
loop_
_geom_bond_atom_site_label_1
_geom_bond_atom_site_label_2
_geom_bond_distance
_geom_bond_site_symmetry_2
Na0 O44 2.537878 1_555
Na0 O42 2.552156 1_565
Na0 O36 2.558661 1_555
Na0 O37 2.561338 1_555
Na0 O43 2.657353 1_665
Na0 O38 2.806761 1_665
Na1 O47 2.537878 1_556
Na1 O46 2.552156 1_456
Na1 O40 2.558661 1_555
Na1 O39 2.561337 1_555
Na1 O45 2.657353 1_446
Na1 O41 2.806761 1_445
Na2 O56 2.537857 1_555
Na2 O54 2.552250 1_555
Na2 O48 2.558613 1_555
Na2 O49 2.561299 1_555
Na2 O55 2.657400 1_555
Na2 O50 2.806801 1_555
Na3 O59 2.537857 1_555
Na3 O58 2.552250 1_555
Na3 O52 2.558613 1_555
Na3 O51 2.561299 1_555
Na3 O57 2.657400 1_555
Na3 O53 2.806801 1_555
Na4 O68 2.537832 1_555
Na4 O66 2.552175 1_555
Na4 O60 2.558674 1_555
Na4 O61 2.561340 1_555
Na4 O67 2.657386 1_555
Na4 O62 2.806824 1_555
Na5 O71 2.537832 1_555
Na5 O70 2.552175 1_555
Na5 O64 2.558674 1_555
Na5 O63 2.561340 1_555
Na5 O69 2.657386 1_555
Na5 O65 2.806824 1_555
Na6 O53 2.359461 1_555
Na6 O67 2.450164 1_545
Na6 O52 2.569331 1_555
Na6 O16 2.592835 1_555
Na6 O2 2.805287 1_555
Na6 O9 2.903513 1_545
Na6 O31 2.934040 1_545
Na7 O52 2.331523 1_555
Na7 O66 2.414705 1_655
Na7 O51 2.504387 1_555
Na7 O15 2.509113 1_555
Na7 O68 2.769436 1_655
Na7 O30 2.825567 1_655
Na8 O50 2.359461 1_555
Na8 O69 2.450164 1_655
Na8 O48 2.569331 1_555
Na8 O12 2.592835 1_555
Na8 O5 2.805287 1_555
Na8 O7 2.903513 1_655
Na8 O33 2.934040 1_655
Na9 O48 2.331523 1_555
Na9 O70 2.414705 1_545
Na9 O49 2.504387 1_555
Na9 O13 2.509113 1_555
Na9 O71 2.769435 1_545
Na9 O34 2.825567 1_545
Na10 O65 2.359441 1_555
Na10 O43 2.450107 1_555
Na10 O64 2.569350 1_555
Na10 O28 2.592896 1_555
Na10 O14 2.805243 1_555
Na10 O21 2.903542 1_555
Na10 O7 2.933993 1_555
Na11 O64 2.331527 1_555
Na11 O42 2.414658 1_565
Na11 O63 2.504510 1_555
Na11 O27 2.509139 1_555
Na11 O44 2.769388 1_555
Na11 O6 2.825515 1_555
Na12 O62 2.359441 1_555
Na12 O45 2.450107 1_555
Na12 O60 2.569350 1_555
Na12 O24 2.592896 1_554
Na12 O17 2.805242 1_555
Na12 O19 2.903542 1_555
Na12 O9 2.933993 1_555
Na13 O60 2.331528 1_555
Na13 O46 2.414658 1_455
Na13 O61 2.504510 1_555
Na13 O25 2.509139 1_554
Na13 O47 2.769388 1_555
Na13 O10 2.825515 1_555
Na14 O41 2.359386 1_555
Na14 O55 2.450151 1_555
Na14 O40 2.569358 1_665
Na14 O4 2.592895 1_555
Na14 O26 2.805216 1_655
Na14 O33 2.903526 1_655
Na14 O19 2.933997 1_556
Na15 O40 2.331543 1_555
Na15 O54 2.414693 1_555
Na15 O39 2.504410 1_555
Na15 O3 2.509169 1_555
Na15 O56 2.769484 1_555
Na15 O18 2.825533 1_556
Na16 O38 2.359386 1_555
Na16 O57 2.450151 1_555
Na16 O36 2.569358 1_445
Na16 O0 2.592895 1_555
Na16 O29 2.805216 1_545
Na16 O31 2.903526 1_545
Na16 O21 2.933997 1_555
Na17 O36 2.331543 1_555
Na17 O58 2.414693 1_555
Na17 O37 2.504410 1_555
Na17 O1 2.509169 1_555
Na17 O59 2.769484 1_555
Na17 O22 2.825533 1_555
Nb0 O6 1.961376 1_555
Nb0 O7 2.005958 1_665
Nb0 O44 2.008753 1_555
Nb0 O8 2.027273 1_655
Nb0 O43 2.051418 1_665
Nb0 O42 2.231565 1_565
Nb1 O10 1.961376 1_555
Nb1 O9 2.005958 1_445
Nb1 O47 2.008753 1_555
Nb1 O11 2.027273 1_545
Nb1 O45 2.051418 1_445
Nb1 O46 2.231565 1_455
Nb2 O18 1.961378 1_556
Nb2 O19 2.005900 1_556
Nb2 O56 2.008758 1_555
Nb2 O20 2.027268 1_556
Nb2 O55 2.051407 1_555
Nb2 O54 2.231649 1_555
Nb3 O22 1.961378 1_555
Nb3 O21 2.005900 1_555
Nb3 O59 2.008758 1_555
Nb3 O23 2.027268 1_555
Nb3 O57 2.051407 1_555
Nb3 O58 2.231649 1_555
Nb4 O30 1.961324 1_555
Nb4 O31 2.005856 1_555
Nb4 O68 2.008837 1_555
Nb4 O32 2.027316 1_555
Nb4 O67 2.051482 1_555
Nb4 O66 2.231626 1_555
Nb5 O34 1.961324 1_555
Nb5 O33 2.005856 1_555
Nb5 O71 2.008837 1_555
Nb5 O35 2.027316 1_555
Nb5 O69 2.051482 1_555
Nb5 O70 2.231626 1_555
O0 P0 1.512522 1_545
O0 Y0 2.268742 1_555
O1 Si0 1.597908 1_555
O1 Y0 2.157652 1_665
O2 Si1 1.579733 1_655
O2 Y0 2.087247 1_655
O3 Si2 1.597908 1_555
O3 Y1 2.157652 1_445
O4 P1 1.512522 1_655
O4 Y1 2.268742 1_555
O5 Si3 1.579733 1_545
O5 Y1 2.087247 1_545
O6 Si3 1.703354 1_555
O7 Si2 1.727857 1_555
O8 P1 1.605379 1_555
O9 Si0 1.727857 1_555
O10 Si1 1.703354 1_555
O11 P0 1.605379 1_555
O12 P2 1.512474 1_555
O12 Y2 2.268773 1_555
O13 Si4 1.597912 1_555
O13 Y2 2.157704 1_555
O14 Si5 1.579766 1_555
O14 Y2 2.087246 1_555
O15 Si6 1.597912 1_555
O15 Y3 2.157704 1_555
O16 P3 1.512474 1_555
O16 Y3 2.268773 1_555
O17 Si7 1.579766 1_555
O17 Y3 2.087247 1_555
O18 Si7 1.703404 1_555
O19 Si6 1.727842 1_555
O20 P3 1.605399 1_555
O21 Si4 1.727842 1_555
O22 Si5 1.703404 1_555
O23 P2 1.605399 1_555
O24 P4 1.512502 1_555
O24 Y4 2.268740 1_556
O25 Si8 1.597863 1_555
O25 Y4 2.157691 1_556
O26 Si9 1.579814 1_555
O26 Y4 2.087253 1_556
O27 Si10 1.597863 1_555
O27 Y5 2.157691 1_555
O28 P5 1.512502 1_555
O28 Y5 2.268740 1_555
O29 Si11 1.579814 1_555
O29 Y5 2.087253 1_555
O30 Si11 1.703320 1_555
O31 Si10 1.727877 1_555
O32 P5 1.605280 1_555
O33 Si8 1.727877 1_555
O34 Si9 1.703320 1_555
O35 P4 1.605280 1_555
O36 Si11 1.615836 1_655
O36 Y0 2.270910 1_665
O37 Si10 1.605747 1_555
O37 Y0 2.202389 1_665
O38 P5 1.523982 1_555
O38 Y0 2.296791 1_555
O39 Si8 1.605747 1_555
O39 Y1 2.202389 1_445
O40 Si9 1.615836 1_545
O40 Y1 2.270910 1_445
O41 P4 1.523982 1_555
O41 Y1 2.296791 1_555
O42 P2 1.569943 1_555
O43 Si4 1.675591 1_555
O44 Si5 1.664753 1_555
O45 Si6 1.675591 1_555
O46 P3 1.569943 1_555
O47 Si7 1.664753 1_555
O48 Si3 1.615830 1_545
O48 Y2 2.270934 1_555
O49 Si2 1.605740 1_555
O49 Y2 2.202374 1_555
O50 P1 1.523892 1_655
O50 Y2 2.296782 1_555
O51 Si0 1.605740 1_555
O51 Y3 2.202374 1_555
O52 Si1 1.615830 1_655
O52 Y3 2.270934 1_555
O53 P0 1.523892 1_545
O53 Y3 2.296782 1_555
O54 P4 1.569829 1_555
O55 Si8 1.675527 1_655
O56 Si9 1.664741 1_545
O57 Si10 1.675527 1_545
O58 P5 1.569829 1_555
O59 Si11 1.664741 1_655
O60 Si7 1.615784 1_555
O60 Y4 2.270946 1_555
O61 Si6 1.605687 1_455
O61 Y4 2.202410 1_555
O62 P3 1.523866 1_565
O62 Y4 2.296810 1_555
O63 Si4 1.605687 1_565
O63 Y5 2.202410 1_555
O64 Si5 1.615784 1_555
O64 Y5 2.270946 1_555
O65 P2 1.523866 1_455
O65 Y5 2.296810 1_555
O66 P0 1.569882 1_555
O67 Si0 1.675554 1_555
O68 Si1 1.664777 1_555
O69 Si2 1.675554 1_555
O70 P1 1.569882 1_555
O71 Si3 1.664777 1_555
