# generated using pymatgen
data_Na6Sc8Si3(S3O16)3
_symmetry_space_group_name_H-M   'P 1'
_cell_length_a   17.89821682
_cell_length_b   8.87978822
_cell_length_c   23.17261165
_cell_angle_alpha   90.07346762
_cell_angle_beta   89.97236362
_cell_angle_gamma   119.73735138
_symmetry_Int_Tables_number   1
_chemical_formula_structural   Na6Sc8Si3(S3O16)3
_chemical_formula_sum   'Na18 Sc24 Si9 S27 O144'
_cell_volume   3197.87117103
_cell_formula_units_Z   3
loop_
 _symmetry_equiv_pos_site_id
 _symmetry_equiv_pos_as_xyz
  1  'x, y, z'
loop_
 _atom_site_type_symbol
 _atom_site_label
 _atom_site_symmetry_multiplicity
 _atom_site_fract_x
 _atom_site_fract_y
 _atom_site_fract_z
 _atom_site_occupancy
  Na  Na0  1  0.00411127  0.64481747  0.25269373  1
  Na  Na1  1  0.50251069  0.36276655  0.74476303  1
  Na  Na2  1  0.16269503  0.30299525  0.91291862  1
  Na  Na3  1  0.66252526  0.30281485  0.91327831  1
  Na  Na4  1  0.16419488  0.02540761  0.41696759  1
  Na  Na5  1  0.66184130  0.01759117  0.41673056  1
  Na  Na6  1  0.99496566  0.99091381  0.50057298  1
  Na  Na7  1  0.49479868  0.99926467  0.50270267  1
  Na  Na8  1  0.99599846  0.00145203  0.99734249  1
  Na  Na9  1  0.49481684  0.99950343  0.99866251  1
  Na  Na10  1  0.33145483  0.33267223  0.82903515  1
  Na  Na11  1  0.83888973  0.33502583  0.82945404  1
  Na  Na12  1  0.34106182  0.34707489  0.33480070  1
  Na  Na13  1  0.83133940  0.33066808  0.33530878  1
  Na  Na14  1  0.17320009  0.67751576  0.16847996  1
  Na  Na15  1  0.66463066  0.67431186  0.17111345  1
  Na  Na16  1  0.16742887  0.65781814  0.66920727  1
  Na  Na17  1  0.66550000  0.65834125  0.66329817  1
  Sc  Sc0  1  0.00355785  0.99574504  0.35262690  1
  Sc  Sc1  1  0.50407133  0.99361556  0.35101956  1
  Sc  Sc2  1  0.00390088  0.01544686  0.84873170  1
  Sc  Sc3  1  0.50333394  0.01219703  0.84959014  1
  Sc  Sc4  1  0.00562393  0.01356544  0.65095628  1
  Sc  Sc5  1  0.50404779  0.01980843  0.64612716  1
  Sc  Sc6  1  0.00531706  0.99882155  0.14998872  1
  Sc  Sc7  1  0.50433630  0.99670800  0.15157197  1
  Sc  Sc8  1  0.33089155  0.33632465  0.68282515  1
  Sc  Sc9  1  0.82855525  0.33396161  0.68721460  1
  Sc  Sc10  1  0.33004807  0.32480802  0.18847784  1
  Sc  Sc11  1  0.82323848  0.31532743  0.18690286  1
  Sc  Sc12  1  0.34144856  0.33350683  0.98010821  1
  Sc  Sc13  1  0.84133203  0.33381606  0.98026475  1
  Sc  Sc14  1  0.34708161  0.34708918  0.48322931  1
  Sc  Sc15  1  0.84058236  0.34805981  0.48098881  1
  Sc  Sc16  1  0.16244405  0.65618165  0.01615826  1
  Sc  Sc17  1  0.66114289  0.65471030  0.01676026  1
  Sc  Sc18  1  0.16261996  0.66850337  0.51761904  1
  Sc  Sc19  1  0.65419344  0.65682194  0.52070702  1
  Sc  Sc20  1  0.16420405  0.67197876  0.31566623  1
  Sc  Sc21  1  0.65792122  0.66903489  0.31444207  1
  Sc  Sc22  1  0.15761963  0.64607055  0.81181281  1
  Sc  Sc23  1  0.66258760  0.65550987  0.81342894  1
  Si  Si0  1  0.14853959  0.00236612  0.25089907  1
  Si  Si1  1  0.64701167  0.99770491  0.25084619  1
  Si  Si2  1  0.15090214  0.29546250  0.75033685  1
  Si  Si3  1  0.64896631  0.29324639  0.75110498  1
  Si  Si4  1  0.47986884  0.33251924  0.58652858  1
  Si  Si5  1  0.01882705  0.37094052  0.91683199  1
  Si  Si6  1  0.51883754  0.37149998  0.91543581  1
  Si  Si7  1  0.01882946  0.66336760  0.41579260  1
  Si  Si8  1  0.51721273  0.66464938  0.41669191  1
  S  S0  1  0.35355010  0.70809037  0.24912636  1
  S  S1  1  0.85440416  0.70962299  0.24875334  1
  S  S2  1  0.00014485  0.29121244  0.24912221  1
  S  S3  1  0.50003534  0.29007986  0.24935160  1
  S  S4  1  0.99955347  0.70967712  0.74943902  1
  S  S5  1  0.49982396  0.71057916  0.75022546  1
  S  S6  1  0.35246138  0.99665338  0.75008974  1
  S  S7  1  0.85372809  0.99954406  0.74923795  1
  S  S8  1  0.97893854  0.33246912  0.58350205  1
  S  S9  1  0.18574934  0.03920751  0.58167679  1
  S  S10  1  0.68952433  0.04343125  0.58253480  1
  S  S11  1  0.33202474  0.62724881  0.58293623  1
  S  S12  1  0.83480207  0.62880754  0.58361023  1
  S  S13  1  0.47890347  0.62576084  0.08356891  1
  S  S14  1  0.97950709  0.62614703  0.08448639  1
  S  S15  1  0.33332729  0.03946199  0.08356516  1
  S  S16  1  0.83334651  0.03846496  0.08330981  1
  S  S17  1  0.18775610  0.33427827  0.08276629  1
  S  S18  1  0.68690794  0.33374750  0.08215489  1
  S  S19  1  0.31262402  0.66826873  0.91754851  1
  S  S20  1  0.81242266  0.66803488  0.91794033  1
  S  S21  1  0.16647693  0.95720675  0.91737995  1
  S  S22  1  0.66647245  0.95727822  0.91763172  1
  S  S23  1  0.31239589  0.95688431  0.41716544  1
  S  S24  1  0.81293172  0.95673901  0.41755355  1
  S  S25  1  0.16640608  0.37590934  0.41684550  1
  S  S26  1  0.66698771  0.37595317  0.41647786  1
  O  O0  1  0.10373139  0.02812807  0.30873495  1
  O  O1  1  0.60590491  0.03136540  0.30895974  1
  O  O2  1  0.40600364  0.78900697  0.30131424  1
  O  O3  1  0.90855578  0.78911558  0.30047103  1
  O  O4  1  0.48514010  0.18417880  0.30144355  1
  O  O5  1  0.98526800  0.18553219  0.30136482  1
  O  O6  1  0.10618061  0.18239852  0.80952994  1
  O  O7  1  0.60696989  0.18301766  0.81072648  1
  O  O8  1  0.48805050  0.79076847  0.80268428  1
  O  O9  1  0.98525695  0.78673579  0.80212958  1
  O  O10  1  0.40776595  0.02481913  0.80187126  1
  O  O11  1  0.90618141  0.02377235  0.80175385  1
  O  O12  1  0.39199709  0.96862277  0.69819626  1
  O  O13  1  0.89339379  0.97088036  0.69756875  1
  O  O14  1  0.08688667  0.19849011  0.69545264  1
  O  O15  1  0.58341668  0.20230301  0.69724496  1
  O  O16  1  0.00913068  0.81367577  0.69759786  1
  O  O17  1  0.50947590  0.81214269  0.69802156  1
  O  O18  1  0.39320592  0.81541894  0.19715117  1
  O  O19  1  0.89417747  0.81654836  0.19684860  1
  O  O20  1  0.00932136  0.20612182  0.19719061  1
  O  O21  1  0.50931974  0.20465333  0.19698430  1
  O  O22  1  0.08322394  0.96518988  0.19591073  1
  O  O23  1  0.58721537  0.97451009  0.19436075  1
  O  O24  1  0.43580143  0.35770317  0.64510218  1
  O  O25  1  0.93853574  0.35730079  0.63546841  1
  O  O26  1  0.23908225  0.12382129  0.63321395  1
  O  O27  1  0.74325598  0.13237527  0.63370932  1
  O  O28  1  0.31725944  0.51898874  0.63501145  1
  O  O29  1  0.82316869  0.52024155  0.63517152  1
  O  O30  1  0.43840626  0.51987292  0.13530529  1
  O  O31  1  0.94030887  0.52433819  0.13744928  1
  O  O32  1  0.32167570  0.12442495  0.13520127  1
  O  O33  1  0.82184630  0.12302810  0.13507413  1
  O  O34  1  0.24154058  0.35506394  0.13393358  1
  O  O35  1  0.74101336  0.35594929  0.13333521  1
  O  O36  1  0.22619533  0.31002233  0.02944193  1
  O  O37  1  0.72673163  0.31055633  0.02914236  1
  O  O38  1  0.42640607  0.54252387  0.03142385  1
  O  O39  1  0.92556354  0.54023389  0.03314232  1
  O  O40  1  0.34460536  0.14637270  0.03162420  1
  O  O41  1  0.84516958  0.14646977  0.03164571  1
  O  O42  1  0.22314582  0.13956922  0.52831877  1
  O  O43  1  0.72867784  0.14682192  0.52931008  1
  O  O44  1  0.34252573  0.54354606  0.53102426  1
  O  O45  1  0.84643863  0.54357741  0.53166865  1
  O  O46  1  0.42090774  0.30598726  0.52954432  1
  O  O47  1  0.92648492  0.31056072  0.53139259  1
  O  O48  1  0.27325755  0.69594661  0.96992525  1
  O  O49  1  0.77286658  0.69565851  0.97002810  1
  O  O50  1  0.08202001  0.46211608  0.97293013  1
  O  O51  1  0.58310307  0.46487320  0.97094617  1
  O  O52  1  0.15732757  0.85424066  0.96944697  1
  O  O53  1  0.65748994  0.85419054  0.96950499  1
  O  O54  1  0.27279962  0.85012392  0.46897638  1
  O  O55  1  0.77480935  0.85190746  0.46956005  1
  O  O56  1  0.15624999  0.46030024  0.46864410  1
  O  O57  1  0.65799354  0.45998114  0.46862260  1
  O  O58  1  0.08412799  0.70077386  0.47020960  1
  O  O59  1  0.58309280  0.70873284  0.47124370  1
  O  O60  1  0.06193875  0.63773509  0.35683446  1
  O  O61  1  0.56424049  0.63893820  0.36008182  1
  O  O62  1  0.25813272  0.87353922  0.36520060  1
  O  O63  1  0.75932570  0.87800774  0.36524739  1
  O  O64  1  0.17939591  0.48063383  0.36456525  1
  O  O65  1  0.68232673  0.48093075  0.36419266  1
  O  O66  1  0.06478909  0.49240892  0.86141490  1
  O  O67  1  0.56342268  0.48801084  0.85819920  1
  O  O68  1  0.18197224  0.88253044  0.86520115  1
  O  O69  1  0.68187364  0.88246469  0.86541143  1
  O  O70  1  0.25872592  0.63975258  0.86597912  1
  O  O71  1  0.75867415  0.63947576  0.86629821  1
  O  O72  1  0.01341669  0.84328962  0.41152777  1
  O  O73  1  0.51217277  0.84505753  0.41088141  1
  O  O74  1  0.39933921  0.98267684  0.40962523  1
  O  O75  1  0.90073498  0.98551208  0.40930711  1
  O  O76  1  0.08631414  0.20184510  0.41183862  1
  O  O77  1  0.58852546  0.20174418  0.41126920  1
  O  O78  1  0.01282333  0.18020801  0.91268444  1
  O  O79  1  0.51309653  0.18101953  0.91216628  1
  O  O80  1  0.08777795  0.97405059  0.91271811  1
  O  O81  1  0.58791916  0.97378024  0.91284582  1
  O  O82  1  0.40009497  0.81613059  0.91110651  1
  O  O83  1  0.90000091  0.81624726  0.91113294  1
  O  O84  1  0.48808550  0.15643507  0.58781107  1
  O  O85  1  0.98652306  0.17318969  0.58803284  1
  O  O86  1  0.09789425  0.01613880  0.58877586  1
  O  O87  1  0.60227649  0.02057184  0.58891196  1
  O  O88  1  0.41027918  0.79760944  0.59005758  1
  O  O89  1  0.91345239  0.80065066  0.58965273  1
  O  O90  1  0.48657133  0.80026027  0.08816447  1
  O  O91  1  0.98663675  0.80081572  0.08828939  1
  O  O92  1  0.41114959  0.02215011  0.08939581  1
  O  O93  1  0.91150967  0.02197370  0.08958168  1
  O  O94  1  0.10008429  0.18013393  0.08950389  1
  O  O95  1  0.59985130  0.18028849  0.08863661  1
  O  O96  1  0.34884296  0.16085128  0.74495229  1
  O  O97  1  0.84753915  0.15967549  0.74250201  1
  O  O98  1  0.24513523  0.31177995  0.74369665  1
  O  O99  1  0.74453817  0.31436164  0.74397059  1
  O  O100  1  0.42446699  0.53113390  0.74632735  1
  O  O101  1  0.92400010  0.53241374  0.74278267  1
  O  O102  1  0.34715702  0.53533136  0.24187915  1
  O  O103  1  0.85189454  0.53841053  0.24160530  1
  O  O104  1  0.42423243  0.31572951  0.24200643  1
  O  O105  1  0.92548351  0.32281136  0.24219859  1
  O  O106  1  0.24312228  0.17256924  0.24233584  1
  O  O107  1  0.74251207  0.17298765  0.24320546  1
  O  O108  1  0.31567128  0.50254965  0.92526764  1
  O  O109  1  0.81551629  0.50243021  0.92532164  1
  O  O110  1  0.42399530  0.35275031  0.92377300  1
  O  O111  1  0.92353773  0.35160516  0.92433353  1
  O  O112  1  0.24100049  0.13877181  0.92497448  1
  O  O113  1  0.74123466  0.13863346  0.92485595  1
  O  O114  1  0.31366618  0.12615135  0.42251909  1
  O  O115  1  0.81659430  0.13008101  0.42404666  1
  O  O116  1  0.23975396  0.34312251  0.42292053  1
  O  O117  1  0.74162264  0.34287646  0.42336876  1
  O  O118  1  0.42170734  0.49584581  0.42066237  1
  O  O119  1  0.92360304  0.49365198  0.42318933  1
  O  O120  1  0.17997103  0.49375882  0.07874734  1
  O  O121  1  0.68020415  0.49434642  0.07810340  1
  O  O122  1  0.06673301  0.64716530  0.07753882  1
  O  O123  1  0.56643940  0.64643413  0.07700498  1
  O  O124  1  0.25510439  0.86639792  0.07723165  1
  O  O125  1  0.75542797  0.86595464  0.07681839  1
  O  O126  1  0.17852064  0.86409938  0.57765010  1
  O  O127  1  0.68476920  0.87243699  0.57861810  1
  O  O128  1  0.25431466  0.64710299  0.57635529  1
  O  O129  1  0.75780897  0.64701586  0.57694613  1
  O  O130  1  0.06632331  0.48655583  0.57692382  1
  O  O131  1  0.57603735  0.50380804  0.57981277  1
  O  O132  1  0.15341370  0.82221611  0.25456536  1
  O  O133  1  0.65972883  0.82845918  0.25381957  1
  O  O134  1  0.26638925  0.68519882  0.25572188  1
  O  O135  1  0.76700791  0.68245408  0.25577298  1
  O  O136  1  0.07868226  0.46459423  0.25402022  1
  O  O137  1  0.57945973  0.46092115  0.25397651  1
  O  O138  1  0.15854809  0.48700818  0.75450614  1
  O  O139  1  0.65500083  0.48441586  0.75625664  1
  O  O140  1  0.07908184  0.69802175  0.75454602  1
  O  O141  1  0.57863605  0.69247953  0.75548708  1
  O  O142  1  0.26612209  0.84819673  0.75804123  1
  O  O143  1  0.76684441  0.84821957  0.75674351  1
loop_
_geom_bond_atom_site_label_1
_geom_bond_atom_site_label_2
_geom_bond_distance
_geom_bond_site_symmetry_2
Na0 O132 2.334127 1_555
Na0 O103 2.414023 1_455
Na0 O105 2.494410 1_455
Na0 O136 2.542161 1_555
Na0 O60 2.639350 1_555
Na0 O22 2.800189 1_555
Na0 O3 2.821548 1_455
Na0 O31 2.892036 1_455
Na1 O139 2.400428 1_555
Na1 O96 2.426356 1_555
Na1 O100 2.501857 1_555
Na1 O141 2.555609 1_555
Na1 O24 2.590382 1_555
Na1 O15 2.716806 1_555
Na1 O67 2.850871 1_555
Na1 O10 2.931199 1_555
Na2 O78 2.341544 1_555
Na2 O108 2.429983 1_555
Na2 O112 2.489549 1_555
Na2 O80 2.538589 1_545
Na2 O6 2.613595 1_555
Na2 O70 2.826144 1_555
Na2 O50 2.834127 1_555
Na2 O36 2.918664 1_556
Na3 O79 2.335337 1_555
Na3 O109 2.429456 1_555
Na3 O113 2.494173 1_555
Na3 O81 2.539552 1_545
Na3 O7 2.591144 1_555
Na3 O51 2.810674 1_555
Na3 O71 2.826036 1_555
Na3 O37 2.908266 1_556
Na4 O72 2.363093 1_545
Na4 O114 2.366370 1_555
Na4 O116 2.453872 1_555
Na4 O76 2.564950 1_555
Na4 O0 2.736906 1_555
Na4 O42 2.780949 1_555
Na4 O58 2.791928 1_545
Na4 O62 2.885770 1_545
Na5 O73 2.338784 1_545
Na5 O115 2.440004 1_555
Na5 O117 2.512611 1_555
Na5 O77 2.557613 1_555
Na5 O59 2.697487 1_545
Na5 O1 2.716362 1_555
Na5 O63 2.853679 1_545
Na5 O43 2.861295 1_555
Na6 O72 2.550877 1_655
Na6 O89 2.608569 1_555
Na6 O85 2.642714 1_565
Na6 O86 2.686000 1_665
Na6 O75 2.691168 1_555
Na6 O76 2.716244 1_665
Na7 O84 2.451699 1_565
Na7 O88 2.628968 1_555
Na7 O73 2.629324 1_555
Na7 O74 2.710336 1_555
Na7 O87 2.714539 1_565
Na7 O77 2.747747 1_565
Na8 O78 2.447841 1_655
Na8 O83 2.615199 1_545
Na8 O80 2.644847 1_645
Na8 O93 2.675404 1_556
Na8 O91 2.712342 1_546
Na8 O94 2.758936 1_656
Na9 O79 2.491368 1_565
Na9 O82 2.626460 1_555
Na9 O92 2.645407 1_566
Na9 O81 2.675202 1_555
Na9 O90 2.683937 1_556
Na9 O95 2.731201 1_566
Na10 O98 2.459588 1_555
Na10 O100 2.577867 1_555
Na10 O96 2.585325 1_555
Na10 O110 2.702618 1_555
Na10 O108 2.782361 1_555
Na10 O112 2.787306 1_555
Na11 O99 2.550336 1_555
Na11 O97 2.595973 1_555
Na11 O101 2.604544 1_555
Na11 O111 2.632873 1_555
Na11 O109 2.815560 1_555
Na11 O113 2.822370 1_555
Na12 O118 2.427272 1_555
Na12 O102 2.696463 1_555
Na12 O114 2.697337 1_555
Na12 O104 2.706210 1_555
Na12 O106 2.713915 1_555
Na12 O116 2.718850 1_555
Na13 O119 2.567742 1_555
Na13 O107 2.613518 1_555
Na13 O117 2.631194 1_555
Na13 O115 2.648221 1_555
Na13 O103 2.754870 1_555
Na13 O105 2.759008 1_555
Na14 O132 2.489958 1_555
Na14 O134 2.600689 1_555
Na14 O124 2.645746 1_555
Na14 O120 2.681060 1_555
Na14 O136 2.683092 1_555
Na14 O122 2.763633 1_555
Na15 O133 2.380458 1_555
Na15 O137 2.596583 1_555
Na15 O135 2.661404 1_555
Na15 O123 2.734273 1_555
Na15 O125 2.752089 1_555
Na15 O121 2.776547 1_555
Na16 O138 2.449687 1_555
Na16 O140 2.663381 1_555
Na16 O128 2.683264 1_555
Na16 O142 2.692167 1_555
Na16 O130 2.725008 1_555
Na16 O126 2.746768 1_555
Na17 O131 2.450694 1_555
Na17 O139 2.604012 1_555
Na17 O129 2.627718 1_555
Na17 O127 2.634794 1_555
Na17 O141 2.745050 1_555
Na17 O143 2.789671 1_555
O0 Si0 1.634581 1_555
O0 Sc0 1.954297 1_545
O1 Si1 1.631034 1_545
O1 Sc1 1.943530 1_545
O2 S0 1.479800 1_555
O2 Sc1 2.131066 1_555
O3 S1 1.481260 1_555
O3 Sc0 2.149358 1_655
O4 S3 1.471864 1_555
O4 Sc1 2.207292 1_545
O5 S2 1.473700 1_655
O5 Sc0 2.216112 1_645
O6 Si2 1.653894 1_555
O6 Sc2 1.919301 1_555
O7 Si3 1.644513 1_555
O7 Sc3 1.939890 1_555
O8 S5 1.474968 1_555
O8 Sc3 2.140927 1_565
O9 S4 1.481802 1_555
O9 Sc2 2.173594 1_665
O10 S6 1.495637 1_545
O10 Sc3 2.086486 1_555
O11 S7 1.486152 1_545
O11 Sc2 2.092808 1_655
O12 S6 1.477107 1_555
O12 Sc5 2.186151 1_565
O13 S7 1.476489 1_555
O13 Sc4 2.142182 1_665
O14 Si2 1.640606 1_555
O14 Sc4 1.871581 1_555
O15 Si3 1.626411 1_555
O15 Sc5 1.939108 1_555
O16 S4 1.473406 1_455
O16 Sc4 2.106688 1_565
O17 S5 1.467859 1_555
O17 Sc5 2.244879 1_565
O18 S0 1.481120 1_555
O18 Sc7 2.118751 1_555
O19 S1 1.478678 1_555
O19 Sc6 2.136381 1_655
O20 S2 1.471947 1_555
O20 Sc6 2.110457 1_545
O21 S3 1.482596 1_555
O21 Sc7 2.087261 1_545
O22 Si0 1.648263 1_565
O22 Sc6 1.892422 1_555
O23 Si1 1.638014 1_555
O23 Sc7 1.874676 1_555
O24 Si4 1.639372 1_555
O24 Sc8 1.992771 1_555
O25 S8 1.475907 1_555
O25 Sc9 2.224689 1_555
O26 S9 1.479609 1_555
O26 Sc8 2.121956 1_555
O27 S10 1.483265 1_555
O27 Sc9 2.087420 1_555
O28 S11 1.483507 1_555
O28 Sc8 2.077390 1_555
O29 S12 1.484548 1_555
O29 Sc9 2.088836 1_555
O30 S13 1.474006 1_555
O30 Sc10 2.224941 1_555
O31 S14 1.479372 1_555
O31 Sc11 2.300764 1_555
O32 S15 1.482543 1_555
O32 Sc10 2.107779 1_555
O33 S16 1.481837 1_555
O33 Sc11 2.076396 1_555
O34 S17 1.480157 1_555
O34 Sc10 2.145736 1_555
O35 S18 1.481321 1_555
O35 Sc11 2.089580 1_555
O36 S17 1.480574 1_555
O36 Sc12 2.275348 1_554
O37 S18 1.484466 1_555
O37 Sc13 2.260699 1_554
O38 S13 1.482933 1_555
O38 Sc12 2.089807 1_554
O39 S14 1.482504 1_555
O39 Sc13 2.094892 1_554
O40 S15 1.484338 1_555
O40 Sc12 2.070709 1_554
O41 S16 1.482973 1_555
O41 Sc13 2.075665 1_554
O42 S9 1.476919 1_555
O42 Sc14 2.314194 1_555
O43 S10 1.489614 1_555
O43 Sc15 2.216058 1_555
O44 S11 1.473395 1_555
O44 Sc14 2.100624 1_555
O45 S12 1.489518 1_555
O45 Sc15 2.053961 1_555
O46 Si4 1.633006 1_555
O46 Sc14 1.873989 1_555
O47 S8 1.482103 1_555
O47 Sc15 2.085572 1_555
O48 S19 1.483286 1_555
O48 Sc16 2.123756 1_556
O49 S20 1.479520 1_555
O49 Sc17 2.140356 1_556
O50 Si5 1.647686 1_555
O50 Sc16 1.892406 1_556
O51 Si6 1.648546 1_555
O51 Sc17 1.892266 1_556
O52 S21 1.473977 1_555
O52 Sc16 2.106628 1_556
O53 S22 1.471507 1_555
O53 Sc17 2.112096 1_556
O54 S23 1.475802 1_555
O54 Sc18 2.146575 1_555
O55 S24 1.468471 1_555
O55 Sc19 2.314928 1_555
O56 S25 1.472400 1_555
O56 Sc18 2.122414 1_555
O57 S26 1.469482 1_555
O57 Sc19 2.151495 1_555
O58 Si7 1.637548 1_555
O58 Sc18 1.914250 1_555
O59 Si8 1.638239 1_555
O59 Sc19 1.931422 1_555
O60 Si7 1.638930 1_555
O60 Sc20 1.949278 1_555
O61 Si8 1.634089 1_555
O61 Sc21 1.885677 1_555
O62 S23 1.492234 1_555
O62 Sc20 2.087778 1_555
O63 S24 1.487259 1_555
O63 Sc21 2.186048 1_555
O64 S25 1.474658 1_555
O64 Sc20 2.169885 1_555
O65 S26 1.470019 1_555
O65 Sc21 2.244795 1_555
O66 Si5 1.616008 1_555
O66 Sc22 1.922669 1_555
O67 Si6 1.627811 1_555
O67 Sc23 1.954993 1_555
O68 S21 1.469239 1_555
O68 Sc22 2.283692 1_555
O69 S22 1.469999 1_555
O69 Sc23 2.221637 1_555
O70 S19 1.476736 1_555
O70 Sc22 2.226305 1_555
O71 S20 1.476523 1_555
O71 Sc23 2.173527 1_555
O72 Si7 1.650959 1_555
O72 Sc0 1.992161 1_555
O73 Si8 1.654252 1_555
O73 Sc1 1.969788 1_555
O74 S23 1.466559 1_555
O74 Sc1 2.277014 1_555
O75 S24 1.474104 1_555
O75 Sc0 2.225377 1_655
O76 S25 1.503015 1_555
O76 Sc0 2.175367 1_545
O77 S26 1.491402 1_555
O77 Sc1 2.207650 1_545
O78 Si5 1.645700 1_555
O78 Sc2 2.031026 1_555
O79 Si6 1.644531 1_555
O79 Sc3 2.028625 1_555
O80 S21 1.492417 1_555
O80 Sc2 2.266798 1_565
O81 S22 1.488315 1_555
O81 Sc3 2.252260 1_565
O82 S19 1.469107 1_555
O82 Sc3 2.299977 1_565
O83 S20 1.472329 1_555
O83 Sc2 2.327803 1_665
O84 Si4 1.641818 1_555
O84 Sc5 1.930818 1_555
O85 S8 1.490220 1_555
O85 Sc4 2.176820 1_655
O86 S9 1.490607 1_555
O86 Sc4 2.182747 1_555
O87 S10 1.478841 1_555
O87 Sc5 2.198816 1_555
O88 S11 1.474802 1_555
O88 Sc5 2.260151 1_565
O89 S12 1.482686 1_555
O89 Sc4 2.283685 1_665
O90 S13 1.489901 1_555
O90 Sc7 2.178670 1_555
O91 S14 1.494332 1_555
O91 Sc6 2.158286 1_655
O92 S15 1.481437 1_555
O92 Sc7 2.299059 1_545
O93 S16 1.484319 1_555
O93 Sc6 2.272906 1_645
O94 S17 1.493236 1_555
O94 Sc6 2.174382 1_545
O95 S18 1.483653 1_555
O95 Sc7 2.223925 1_545
O96 S6 1.496123 1_545
O96 Sc8 2.259769 1_555
O97 S7 1.488412 1_545
O97 Sc9 2.163126 1_555
O98 Si2 1.626860 1_555
O98 Sc8 2.014909 1_555
O99 Si3 1.634059 1_555
O99 Sc9 1.939156 1_555
O100 S5 1.494663 1_555
O100 Sc8 2.254882 1_555
O101 S4 1.489309 1_555
O101 Sc9 2.166006 1_555
O102 S0 1.489921 1_555
O102 Sc10 2.132194 1_555
O103 S1 1.507472 1_555
O103 Sc11 2.186370 1_555
O104 S3 1.492803 1_555
O104 Sc10 2.126938 1_555
O105 S2 1.504154 1_655
O105 Sc11 2.208297 1_555
O106 Si0 1.628385 1_555
O106 Sc10 1.929141 1_555
O107 Si1 1.654306 1_545
O107 Sc11 1.891578 1_555
O108 S19 1.510211 1_555
O108 Sc12 2.184829 1_555
O109 S20 1.508716 1_555
O109 Sc13 2.183581 1_555
O110 Si6 1.632778 1_555
O110 Sc12 1.914273 1_555
O111 Si5 1.636383 1_655
O111 Sc13 1.907276 1_555
O112 S21 1.508502 1_545
O112 Sc12 2.183359 1_555
O113 S22 1.507882 1_545
O113 Sc13 2.185928 1_555
O114 S23 1.496899 1_545
O114 Sc14 2.239533 1_555
O115 S24 1.515095 1_545
O115 Sc15 2.200351 1_555
O116 S25 1.485754 1_555
O116 Sc14 2.362151 1_555
O117 S26 1.511877 1_555
O117 Sc15 2.200751 1_555
O118 Si8 1.623445 1_555
O118 Sc14 1.970696 1_555
O119 Si7 1.630244 1_655
O119 Sc15 1.941654 1_555
O120 S17 1.493213 1_555
O120 Sc16 2.176409 1_555
O121 S18 1.492324 1_555
O121 Sc17 2.156937 1_555
O122 S14 1.486215 1_455
O122 Sc16 2.196799 1_555
O123 S13 1.491984 1_555
O123 Sc17 2.168364 1_555
O124 S15 1.486108 1_565
O124 Sc16 2.272032 1_555
O125 S16 1.481348 1_565
O125 Sc17 2.271235 1_555
O126 S9 1.497763 1_565
O126 Sc18 2.129920 1_555
O127 S10 1.480693 1_565
O127 Sc19 2.172727 1_555
O128 S11 1.494121 1_555
O128 Sc18 2.212303 1_555
O129 S12 1.473190 1_555
O129 Sc19 2.303920 1_555
O130 S8 1.489591 1_455
O130 Sc18 2.170342 1_555
O131 Si4 1.644233 1_555
O131 Sc19 1.948387 1_555
O132 Si0 1.647012 1_565
O132 Sc20 2.020505 1_555
O133 Si1 1.629355 1_555
O133 Sc21 1.984478 1_555
O134 S0 1.477706 1_555
O134 Sc20 2.252389 1_555
O135 S1 1.468665 1_555
O135 Sc21 2.332729 1_555
O136 S2 1.487246 1_555
O136 Sc20 2.230205 1_555
O137 S3 1.481224 1_555
O137 Sc21 2.184296 1_555
O138 Si2 1.640046 1_555
O138 Sc22 1.943491 1_555
O139 Si3 1.650811 1_555
O139 Sc23 1.967784 1_555
O140 S4 1.482286 1_455
O140 Sc22 2.143929 1_555
O141 S5 1.501867 1_555
O141 Sc23 2.158865 1_555
O142 S6 1.462596 1_555
O142 Sc22 2.256309 1_555
O143 S7 1.476972 1_555
O143 Sc23 2.229645 1_555
