# generated using pymatgen
data_Ca(AuO2)2
_symmetry_space_group_name_H-M   'P 1'
_cell_length_a   6.01792610
_cell_length_b   6.01792695
_cell_length_c   6.60191237
_cell_angle_alpha   117.11457895
_cell_angle_beta   117.11457429
_cell_angle_gamma   89.99999811
_symmetry_Int_Tables_number   1
_chemical_formula_structural   Ca(AuO2)2
_chemical_formula_sum   'Ca2 Au4 O8'
_cell_volume   182.79843170
_cell_formula_units_Z   2
loop_
 _symmetry_equiv_pos_site_id
 _symmetry_equiv_pos_as_xyz
  1  'x, y, z'
loop_
 _atom_site_type_symbol
 _atom_site_label
 _atom_site_symmetry_multiplicity
 _atom_site_fract_x
 _atom_site_fract_y
 _atom_site_fract_z
 _atom_site_occupancy
  Ca  Ca0  1  0.12500000  0.37500000  0.25000000  1
  Ca  Ca1  1  0.87500000  0.62500000  0.75000000  1
  Au  Au0  1  0.50000000  0.00000000  0.50000000  1
  Au  Au1  1  0.50000000  0.50000000  0.00000000  1
  Au  Au2  1  -0.00000000  0.00000000  0.50000000  1
  Au  Au3  1  0.50000000  0.00000000  0.00000000  1
  O  O0  1  0.83096251  0.21902563  0.34843195  1
  O  O1  1  0.12940632  0.33096251  0.84843195  1
  O  O2  1  0.71902563  0.01746944  0.84843195  1
  O  O3  1  0.51746944  0.62940632  0.34843195  1
  O  O4  1  0.16903749  0.78097437  0.65156805  1
  O  O5  1  0.87059368  0.66903749  0.15156805  1
  O  O6  1  0.48253056  0.37059368  0.65156805  1
  O  O7  1  0.28097437  0.98253056  0.15156805  1
loop_
_geom_bond_atom_site_label_1
_geom_bond_atom_site_label_2
_geom_bond_distance
_geom_bond_site_symmetry_2
Ca0 O0 2.457364 1_455
Ca0 O5 2.457364 1_455
Ca0 O3 2.457364 1_555
Ca0 O7 2.457364 1_545
Ca0 O1 2.554017 1_554
Ca0 O6 2.554017 1_555
Ca0 O4 2.554017 1_555
Ca0 O2 2.554017 1_454
Ca1 O4 2.457364 1_655
Ca1 O1 2.457364 1_655
Ca1 O6 2.457364 1_555
Ca1 O2 2.457364 1_565
Ca1 O5 2.554017 1_556
Ca1 O3 2.554017 1_555
Ca1 O0 2.554017 1_555
Ca1 O7 2.554017 1_656
Au0 O6 2.011918 1_555
Au0 O3 2.011918 1_545
Au0 O2 2.013854 1_555
Au0 O7 2.013854 1_545
Au1 O5 2.011918 1_555
Au1 O1 2.011918 1_554
Au1 O3 2.013854 1_555
Au1 O6 2.013854 1_554
Au2 O0 2.011918 1_455
Au2 O4 2.011918 1_545
Au2 O5 2.013854 1_445
Au2 O1 2.013854 1_555
Au3 O2 2.011917 1_554
Au3 O7 2.011917 1_545
Au3 O4 2.013854 1_544
Au3 O0 2.013854 1_555
