# generated using pymatgen
data_Na7ZnGa3Si3(SO8)3
_symmetry_space_group_name_H-M   'P 1'
_cell_length_a   8.98743470
_cell_length_b   8.94048897
_cell_length_c   21.98784523
_cell_angle_alpha   90.76408368
_cell_angle_beta   90.18516408
_cell_angle_gamma   119.71692606
_symmetry_Int_Tables_number   1
_chemical_formula_structural   Na7ZnGa3Si3(SO8)3
_chemical_formula_sum   'Na21 Zn3 Ga9 Si9 S9 O72'
_cell_volume   1534.17730511
_cell_formula_units_Z   3
loop_
 _symmetry_equiv_pos_site_id
 _symmetry_equiv_pos_as_xyz
  1  'x, y, z'
loop_
 _atom_site_type_symbol
 _atom_site_label
 _atom_site_symmetry_multiplicity
 _atom_site_fract_x
 _atom_site_fract_y
 _atom_site_fract_z
 _atom_site_occupancy
  Na  Na0  1  0.63527654  0.99781153  0.24371967  1
  Na  Na1  1  0.37925281  0.37366207  0.24224134  1
  Na  Na2  1  0.98531335  0.63191499  0.25316768  1
  Na  Na3  1  0.62566595  0.62597324  0.74225382  1
  Na  Na4  1  0.99508854  0.35626839  0.74984466  1
  Na  Na5  1  0.38290723  0.01432752  0.75480760  1
  Na  Na6  1  0.02328088  0.69765231  0.57802671  1
  Na  Na7  1  0.66595749  0.95964497  0.58402615  1
  Na  Na8  1  0.31027081  0.97675798  0.08191969  1
  Na  Na9  1  0.65721705  0.69354223  0.08884871  1
  Na  Na10  1  0.69629217  0.03548629  0.91623529  1
  Na  Na11  1  0.33249689  0.29132023  0.91730930  1
  Na  Na12  1  0.96410227  0.29786273  0.41315356  1
  Na  Na13  1  0.33274785  0.02662573  0.41593282  1
  Na  Na14  1  0.72009793  0.68272427  0.41624939  1
  Na  Na15  1  0.99453715  0.99254207  0.49879493  1
  Na  Na16  1  0.00670473  0.00595192  0.00196227  1
  Na  Na17  1  0.66098589  0.32693732  0.83241683  1
  Na  Na18  1  0.67469411  0.34386116  0.33135766  1
  Na  Na19  1  0.33918619  0.65812575  0.16212936  1
  Na  Na20  1  0.34687074  0.65161663  0.66594465  1
  Zn  Zn0  1  0.98020594  0.97468060  0.35411079  1
  Zn  Zn1  1  0.64554409  0.33086984  0.68567742  1
  Zn  Zn2  1  0.65250760  0.33861866  0.17381541  1
  Ga  Ga0  1  0.01647081  0.00988808  0.84849991  1
  Ga  Ga1  1  0.98461938  -0.00036184  0.65281767  1
  Ga  Ga2  1  0.98152251  0.00899278  0.14438757  1
  Ga  Ga3  1  0.63120488  0.29375000  0.98916976  1
  Ga  Ga4  1  0.69133583  0.35396404  0.48024621  1
  Ga  Ga5  1  0.33336580  0.67575796  0.02026313  1
  Ga  Ga6  1  0.35449608  0.67699357  0.51419553  1
  Ga  Ga7  1  0.35027636  0.68655687  0.31966773  1
  Ga  Ga8  1  0.35091897  0.67661527  0.81373521  1
  Si  Si0  1  0.70163110  0.70079307  0.24977004  1
  Si  Si1  1  0.28677827  0.29253795  0.75125368  1
  Si  Si2  1  0.70993613  0.99937973  0.75266438  1
  Si  Si3  1  0.66391305  0.62769727  0.58393720  1
  Si  Si4  1  0.66806853  0.04001130  0.08381189  1
  Si  Si5  1  0.35564677  0.33415228  0.08285515  1
  Si  Si6  1  0.32180658  0.94978743  0.91645420  1
  Si  Si7  1  0.63101664  0.97249056  0.41930463  1
  Si  Si8  1  0.05350784  0.66592545  0.41790596  1
  S  S0  1  0.28847844  0.99692154  0.25131439  1
  S  S1  1  0.00600872  0.29619462  0.25204487  1
  S  S2  1  0.00326103  0.71125189  0.74997750  1
  S  S3  1  0.96541336  0.33391513  0.58378255  1
  S  S4  1  0.36796761  0.03843893  0.58255885  1
  S  S5  1  0.95788575  0.62042878  0.08236881  1
  S  S6  1  0.63111845  0.66539942  0.91695603  1
  S  S7  1  0.04095425  0.38196334  0.91608182  1
  S  S8  1  0.33585251  0.37755750  0.41623144  1
  O  O0  1  0.21189804  0.02536762  0.30686819  1
  O  O1  1  0.81426547  0.77400145  0.31169038  1
  O  O2  1  0.98722108  0.19747332  0.30752950  1
  O  O3  1  0.21174673  0.17579216  0.81213034  1
  O  O4  1  0.97295117  0.79367006  0.80361393  1
  O  O5  1  0.83123690  0.02482163  0.81291083  1
  O  O6  1  0.78282387  0.95413706  0.69057890  1
  O  O7  1  0.15720769  0.19761423  0.69273281  1
  O  O8  1  0.03317169  0.81582564  0.69392755  1
  O  O9  1  0.79339865  0.83125105  0.19130914  1
  O  O10  1  0.03542615  0.21274231  0.19757697  1
  O  O11  1  0.18407544  0.97514356  0.19606795  1
  O  O12  1  0.88635000  0.36048332  0.63837397  1
  O  O13  1  0.47658842  0.11246985  0.63810306  1
  O  O14  1  0.64294122  0.52355964  0.64510672  1
  O  O15  1  0.89073172  0.52830862  0.13988175  1
  O  O16  1  0.63347771  0.12275426  0.14464459  1
  O  O17  1  0.47913685  0.38951307  0.14259567  1
  O  O18  1  0.44329082  0.29330498  0.02282965  1
  O  O19  1  0.84158516  0.53338992  0.02966681  1
  O  O20  1  0.70349466  0.15464555  0.02203936  1
  O  O21  1  0.45089303  0.14048568  0.52793762  1
  O  O22  1  0.70197812  0.53985124  0.52288400  1
  O  O23  1  0.85410349  0.30278821  0.52802579  1
  O  O24  1  0.54893088  0.69515996  0.97082486  1
  O  O25  1  0.15611328  0.46532032  0.96904901  1
  O  O26  1  0.30218322  0.83949075  0.97719667  1
  O  O27  1  0.54891548  0.84348589  0.47653169  1
  O  O28  1  0.30428393  0.45668990  0.47047303  1
  O  O29  1  0.16750106  0.68458720  0.47915454  1
  O  O30  1  0.13733098  0.62653686  0.35672605  1
  O  O31  1  0.50936884  0.89291960  0.35785275  1
  O  O32  1  0.36653942  0.48358563  0.36071669  1
  O  O33  1  0.12079348  0.47671333  0.85914257  1
  O  O34  1  0.36321453  0.86504992  0.85630923  1
  O  O35  1  0.51989584  0.62975434  0.86098076  1
  O  O36  1  0.03943894  0.84098356  0.41729858  1
  O  O37  1  0.82447318  0.00248828  0.41518783  1
  O  O38  1  0.18316222  0.20451124  0.40992492  1
  O  O39  1  0.02080951  0.20275703  0.91408483  1
  O  O40  1  0.15468757  0.98079527  0.91115326  1
  O  O41  1  0.79900400  0.82490445  0.91089879  1
  O  O42  1  0.97848804  0.17441502  0.58583941  1
  O  O43  1  0.19470298  0.01783222  0.58770695  1
  O  O44  1  0.84525277  0.82478177  0.58750129  1
  O  O45  1  0.97858145  0.79831564  0.08621326  1
  O  O46  1  0.83055570  0.00412809  0.08472390  1
  O  O47  1  0.17711035  0.14803085  0.09243101  1
  O  O48  1  0.69575149  0.17405775  0.74715756  1
  O  O49  1  0.47948859  0.31951387  0.74897463  1
  O  O50  1  0.85332897  0.53761814  0.74551866  1
  O  O51  1  0.68162546  0.50788381  0.24383426  1
  O  O52  1  0.85142389  0.31320401  0.24624146  1
  O  O53  1  0.46457956  0.14505503  0.24848509  1
  O  O54  1  0.64897597  0.51021760  0.92270609  1
  O  O55  1  0.86894923  0.36357955  0.92075290  1
  O  O56  1  0.50154686  0.14713988  0.92001816  1
  O  O57  1  0.63591070  0.16005749  0.42790574  1
  O  O58  1  0.49111374  0.35931727  0.42219656  1
  O  O59  1  0.85764606  0.49491489  0.41993668  1
  O  O60  1  0.34213178  0.50736901  0.07021406  1
  O  O61  1  0.13309530  0.64378074  0.07640209  1
  O  O62  1  0.49154957  0.84797043  0.07775269  1
  O  O63  1  0.34796570  0.85992594  0.57860332  1
  O  O64  1  0.49404449  0.65467095  0.57623235  1
  O  O65  1  0.13565772  0.49062558  0.57723305  1
  O  O66  1  0.29735418  0.83198487  0.25373572  1
  O  O67  1  0.50568333  0.68509784  0.25637397  1
  O  O68  1  0.16316800  0.47187572  0.25392668  1
  O  O69  1  0.29855882  0.48487424  0.75810562  1
  O  O70  1  0.16068357  0.69557836  0.75553600  1
  O  O71  1  0.51640842  0.82594121  0.75567449  1
loop_
_geom_bond_atom_site_label_1
_geom_bond_atom_site_label_2
_geom_bond_distance
_geom_bond_site_symmetry_2
Na0 O67 2.458653 1_555
Na0 O16 2.465010 1_565
Na0 O53 2.469238 1_565
Na0 O52 2.508435 1_565
Na0 O66 2.649375 1_555
Na0 O31 2.736193 1_555
Na0 O9 2.761882 1_555
Na1 O17 2.349738 1_555
Na1 O51 2.364629 1_555
Na1 O67 2.445080 1_555
Na1 O68 2.509273 1_555
Na1 O53 2.518936 1_555
Na1 O32 2.794635 1_555
Na1 O10 2.849247 1_555
Na2 O51 2.389750 1_555
Na2 O66 2.467872 1_655
Na2 O52 2.485615 1_555
Na2 O68 2.621183 1_655
Na2 O15 2.632371 1_555
Na2 O30 2.664908 1_655
Na2 O1 2.745555 1_555
Na3 O14 2.348645 1_555
Na3 O49 2.387084 1_555
Na3 O71 2.444556 1_555
Na3 O50 2.533519 1_555
Na3 O69 2.587879 1_555
Na3 O35 2.786629 1_555
Na3 O6 2.807987 1_555
Na4 O48 2.355045 1_555
Na4 O69 2.382428 1_655
Na4 O50 2.512445 1_555
Na4 O33 2.630346 1_655
Na4 O70 2.635501 1_655
Na4 O12 2.643368 1_555
Na4 O7 2.779429 1_655
Na4 O5 2.944320 1_555
Na5 O49 2.424180 1_555
Na5 O48 2.449850 1_555
Na5 O71 2.506181 1_545
Na5 O70 2.543409 1_545
Na5 O34 2.577066 1_545
Na5 O13 2.721239 1_555
Na5 O3 2.864347 1_555
Na6 O44 2.386240 1_455
Na6 O43 2.494473 1_565
Na6 O65 2.509760 1_555
Na6 O63 2.534204 1_555
Na6 O29 2.565436 1_555
Na6 O8 2.729864 1_555
Na6 O22 2.773425 1_455
Na6 O12 2.966716 1_455
Na7 O64 2.379109 1_555
Na7 O44 2.446269 1_555
Na7 O42 2.495643 1_565
Na7 O63 2.538832 1_555
Na7 O27 2.570389 1_555
Na7 O6 2.575478 1_555
Na7 O13 2.907319 1_565
Na7 O23 2.959450 1_565
Na8 O47 2.374797 1_565
Na8 O62 2.417969 1_555
Na8 O26 2.578493 1_554
Na8 O61 2.588832 1_555
Na8 O45 2.594500 1_455
Na8 O11 2.754843 1_555
Na8 O18 2.807208 1_565
Na8 O16 2.865446 1_565
Na9 O46 2.421687 1_565
Na9 O62 2.495472 1_555
Na9 O60 2.501745 1_555
Na9 O9 2.550202 1_555
Na9 O45 2.557924 1_555
Na9 O17 2.670466 1_555
Na9 O24 2.771368 1_554
Na9 O19 2.967424 1_555
Na10 O56 2.407850 1_555
Na10 O41 2.475552 1_545
Na10 O20 2.532953 1_556
Na10 O39 2.534481 1_655
Na10 O55 2.549626 1_555
Na10 O5 2.601561 1_555
Na10 O34 2.901346 1_545
Na10 O24 2.926633 1_545
Na11 O40 2.422734 1_545
Na11 O56 2.432424 1_555
Na11 O39 2.505448 1_555
Na11 O18 2.518225 1_556
Na11 O3 2.530162 1_555
Na11 O54 2.531242 1_555
Na11 O35 2.930342 1_555
Na11 O25 2.938815 1_555
Na12 O37 2.295330 1_555
Na12 O59 2.388815 1_555
Na12 O38 2.491213 1_655
Na12 O2 2.524856 1_555
Na12 O57 2.595619 1_555
Na12 O23 2.723095 1_555
Na12 O30 2.858690 1_655
Na12 O28 2.928379 1_655
Na13 O36 2.317052 1_545
Na13 O57 2.383412 1_555
Na13 O38 2.545268 1_555
Na13 O58 2.585061 1_555
Na13 O0 2.626976 1_555
Na13 O21 2.659591 1_555
Na13 O31 2.726400 1_545
Na14 O1 2.458786 1_555
Na14 O36 2.492460 1_655
Na14 O37 2.529157 1_565
Na14 O59 2.532804 1_555
Na14 O58 2.593263 1_555
Na14 O22 2.651739 1_555
Na14 O27 2.888653 1_555
Na14 O32 3.010957 1_555
Na15 O36 2.385782 1_655
Na15 O37 2.417535 1_565
Na15 O44 2.440049 1_555
Na15 O42 2.545426 1_565
Na15 O43 2.582946 1_665
Na15 O38 2.686762 1_665
Na16 O46 2.410782 1_455
Na16 O47 2.429036 1_555
Na16 O40 2.471435 1_544
Na16 O45 2.563455 1_445
Na16 O39 2.591657 1_554
Na16 O41 2.647172 1_444
Na17 O48 2.416413 1_555
Na17 O49 2.429291 1_555
Na17 O56 2.482773 1_555
Na17 O55 2.593417 1_555
Na17 O54 2.593833 1_555
Na17 O50 2.660100 1_555
Na18 O51 2.417296 1_555
Na18 O59 2.455289 1_555
Na18 O52 2.556896 1_555
Na18 O53 2.570856 1_555
Na18 O57 2.618872 1_555
Na18 O58 2.640211 1_555
Na19 O60 2.421768 1_555
Na19 O62 2.448281 1_555
Na19 O67 2.490050 1_555
Na19 O61 2.595330 1_555
Na19 O68 2.616874 1_555
Na19 O66 2.667460 1_555
Na20 O64 2.371473 1_555
Na20 O69 2.441678 1_555
Na20 O71 2.487466 1_555
Na20 O65 2.583062 1_555
Na20 O63 2.689618 1_555
Na20 O70 2.736396 1_555
Ga0 O3 1.838354 1_555
Ga0 O5 1.901681 1_455
Ga0 O40 1.956373 1_545
Ga0 O4 2.015170 1_445
Ga0 O39 2.218356 1_555
Ga0 O41 2.304505 1_445
Ga1 O6 1.852397 1_545
Ga1 O7 1.880683 1_655
Ga1 O44 2.015571 1_545
Ga1 O8 2.110967 1_645
Ga1 O42 2.181700 1_555
Ga1 O43 2.315215 1_655
Ga2 O46 1.868768 1_555
Ga2 O47 1.955703 1_655
Ga2 O9 1.959475 1_545
Ga2 O10 1.996337 1_655
Ga2 O45 2.251847 1_545
Ga2 O11 2.288846 1_645
Ga3 O20 1.820210 1_556
Ga3 O18 1.844326 1_556
Ga3 O56 1.951660 1_555
Ga3 O19 2.209116 1_556
Ga3 O54 2.382678 1_555
Ga3 O55 2.437544 1_555
Ga4 O22 1.857508 1_555
Ga4 O57 1.914406 1_555
Ga4 O59 1.941799 1_555
Ga4 O23 2.029648 1_555
Ga4 O58 2.223008 1_555
Ga4 O21 2.321875 1_555
Ga5 O26 1.886817 1_554
Ga5 O60 1.907904 1_555
Ga5 O62 1.938020 1_555
Ga5 O25 2.075089 1_554
Ga5 O61 2.087755 1_555
Ga5 O24 2.156533 1_554
Ga6 O27 1.848857 1_555
Ga6 O29 1.878516 1_555
Ga6 O64 1.928163 1_555
Ga6 O28 2.018105 1_555
Ga6 O63 2.172059 1_555
Ga6 O65 2.322912 1_555
Ga7 O31 1.867844 1_555
Ga7 O30 1.902162 1_555
Ga7 O67 1.979374 1_555
Ga7 O32 2.105897 1_555
Ga7 O66 2.162710 1_555
Ga7 O68 2.304687 1_555
Ga8 O34 1.870673 1_555
Ga8 O71 1.927010 1_555
Ga8 O69 1.948552 1_555
Ga8 O35 2.047746 1_555
Ga8 O33 2.205630 1_555
Ga8 O70 2.206470 1_555
O0 S0 1.483629 1_545
O0 Zn0 2.170581 1_445
O1 Si0 1.617788 1_555
O1 Zn0 1.899149 1_555
O2 S1 1.475868 1_655
O2 Zn0 2.225061 1_545
O3 Si1 1.637425 1_555
O4 S2 1.478492 1_655
O5 Si2 1.652821 1_545
O6 Si2 1.646225 1_555
O7 Si1 1.647244 1_555
O8 S2 1.499642 1_555
O9 Si0 1.669150 1_555
O10 S1 1.494884 1_555
O11 S0 1.482956 1_555
O12 S3 1.472217 1_555
O12 Zn1 2.299912 1_555
O13 S4 1.487545 1_555
O13 Zn1 2.051427 1_555
O14 Si3 1.603872 1_555
O14 Zn1 1.960859 1_555
O15 S5 1.477041 1_555
O15 Zn2 2.112113 1_555
O16 Si4 1.623984 1_555
O16 Zn2 1.950467 1_555
O17 Si5 1.621985 1_555
O17 Zn2 1.952039 1_555
O18 Si5 1.665787 1_555
O19 S5 1.484124 1_555
O20 Si4 1.647118 1_555
O21 S4 1.480242 1_555
O22 Si3 1.666498 1_555
O23 S3 1.512677 1_555
O24 S6 1.487096 1_555
O25 S7 1.478957 1_555
O26 Si6 1.628359 1_555
O27 Si7 1.630641 1_555
O28 S8 1.477209 1_555
O29 Si8 1.645217 1_555
O30 Si8 1.660752 1_555
O31 Si7 1.649494 1_555
O32 S8 1.496156 1_555
O33 S7 1.493775 1_555
O34 Si6 1.648431 1_555
O35 S6 1.510410 1_555
O36 Si8 1.631707 1_555
O36 Zn0 2.076753 1_455
O37 Si7 1.625571 1_545
O37 Zn0 2.042682 1_545
O38 S8 1.477882 1_555
O38 Zn0 2.292990 1_445
O39 S7 1.520595 1_555
O40 Si6 1.660995 1_555
O41 S6 1.483615 1_555
O42 S3 1.489017 1_555
O43 S4 1.479495 1_555
O44 Si3 1.707470 1_555
O45 S5 1.508023 1_555
O46 Si4 1.643286 1_555
O47 Si5 1.659014 1_555
O48 Si2 1.634678 1_545
O48 Zn1 2.161102 1_555
O49 Si1 1.627007 1_555
O49 Zn1 2.010372 1_555
O50 S2 1.468476 1_655
O50 Zn1 2.265464 1_555
O51 Si0 1.646318 1_555
O51 Zn2 2.066756 1_555
O52 S1 1.475961 1_655
O52 Zn2 2.485494 1_555
O53 S0 1.479018 1_545
O53 Zn2 2.395612 1_555
O54 S6 1.480518 1_555
O55 S7 1.475429 1_655
O56 Si6 1.702507 1_545
O57 Si7 1.663787 1_545
O58 S8 1.488601 1_555
O59 Si8 1.665013 1_655
O60 Si5 1.639530 1_555
O61 S5 1.488810 1_455
O62 Si4 1.665681 1_565
O63 S4 1.516188 1_565
O64 Si3 1.667948 1_555
O65 S3 1.485352 1_455
O66 S0 1.517358 1_555
O67 Si0 1.702742 1_555
O68 S1 1.504047 1_555
O69 Si1 1.674320 1_555
O70 S2 1.494055 1_555
O71 Si2 1.662410 1_555
