# generated using pymatgen
data_MgCrWO6
_symmetry_space_group_name_H-M   'P 1'
_cell_length_a   5.19670275
_cell_length_b   5.43777828
_cell_length_c   7.50213806
_cell_angle_alpha   86.23854634
_cell_angle_beta   133.54696522
_cell_angle_gamma   61.04126293
_symmetry_Int_Tables_number   1
_chemical_formula_structural   MgCrWO6
_chemical_formula_sum   'Mg1 Cr1 W1 O6'
_cell_volume   104.47264013
_cell_formula_units_Z   1
loop_
 _symmetry_equiv_pos_site_id
 _symmetry_equiv_pos_as_xyz
  1  'x, y, z'
loop_
 _atom_site_type_symbol
 _atom_site_label
 _atom_site_symmetry_multiplicity
 _atom_site_fract_x
 _atom_site_fract_y
 _atom_site_fract_z
 _atom_site_occupancy
  Mg  Mg0  1  0.00343100  0.54312900  0.79136500  1
  Cr  Cr0  1  0.02405400  0.95290100  0.51516900  1
  W  W0  1  0.01219400  0.96391400  0.00459300  1
  O  O0  1  0.25719100  0.82376400  0.36917800  1
  O  O1  1  0.82087200  0.02466200  0.66130700  1
  O  O2  1  0.37211000  0.45189200  0.74346800  1
  O  O3  1  0.37216500  0.07395200  0.11885000  1
  O  O4  1  0.58895400  0.85599100  0.82869900  1
  O  O5  1  0.56591700  0.44625900  0.22715200  1
loop_
_geom_bond_atom_site_label_1
_geom_bond_atom_site_label_2
_geom_bond_distance
_geom_bond_site_symmetry_2
Mg0 O2 2.024235 1_555
Mg0 O0 2.027345 1_455
Mg0 O3 2.042930 1_556
Mg0 O5 2.150699 1_556
Mg0 O1 2.166149 1_465
Mg0 O4 2.226533 1_455
Cr0 O4 1.803629 1_555
Cr0 O5 1.870922 1_465
Cr0 O1 1.929076 1_465
Cr0 O2 1.993651 1_555
Cr0 O0 2.065419 1_555
Cr0 O3 2.110670 1_465
O0 W0 1.916118 1_555
O1 W0 1.942260 1_646
O2 W0 1.932693 1_646
O3 W0 1.879878 1_545
O4 W0 2.067772 1_656
O5 W0 1.977663 1_555
