# generated using pymatgen
data_ScGa(SO4)3
_symmetry_space_group_name_H-M   'P 1'
_cell_length_a   8.63346804
_cell_length_b   8.63346778
_cell_length_c   22.43118919
_cell_angle_alpha   90.00000000
_cell_angle_beta   90.00000000
_cell_angle_gamma   120.00000101
_symmetry_Int_Tables_number   1
_chemical_formula_structural   ScGa(SO4)3
_chemical_formula_sum   'Sc6 Ga6 S18 O72'
_cell_volume   1447.94972769
_cell_formula_units_Z   6
loop_
 _symmetry_equiv_pos_site_id
 _symmetry_equiv_pos_as_xyz
  1  'x, y, z'
loop_
 _atom_site_type_symbol
 _atom_site_label
 _atom_site_symmetry_multiplicity
 _atom_site_fract_x
 _atom_site_fract_y
 _atom_site_fract_z
 _atom_site_occupancy
  Sc  Sc0  1  -0.00000000  0.00000000  0.85336302  1
  Sc  Sc1  1  0.66666700  0.33333300  0.97996768  1
  Sc  Sc2  1  0.33333300  0.66666700  0.02424662  1
  Sc  Sc3  1  0.33333300  0.66666700  0.52197764  1
  Sc  Sc4  1  0.33333300  0.66666700  0.31135904  1
  Sc  Sc5  1  0.33333300  0.66666700  0.80908682  1
  Ga  Ga0  1  -0.00000000  0.00000000  0.35253268  1
  Ga  Ga1  1  -0.00000000  -0.00000000  0.64605948  1
  Ga  Ga2  1  -0.00000000  -0.00000000  0.14758723  1
  Ga  Ga3  1  0.66666700  0.33333300  0.68574820  1
  Ga  Ga4  1  0.66666700  0.33333300  0.18727563  1
  Ga  Ga5  1  0.66666700  0.33333300  0.48079928  1
  S  S0  1  0.28920267  0.00646814  0.24872529  1
  S  S1  1  0.71726546  0.71079733  0.24872529  1
  S  S2  1  0.99353186  0.28273454  0.24872529  1
  S  S3  1  0.29357405  0.28655723  0.74669594  1
  S  S4  1  0.99298318  0.70642595  0.74669594  1
  S  S5  1  0.71344277  0.00701682  0.74669594  1
  S  S6  1  0.94939763  0.32685905  0.58460523  1
  S  S7  1  0.37746242  0.05060237  0.58460523  1
  S  S8  1  0.67314095  0.62253758  0.58460523  1
  S  S9  1  0.95322521  0.62691791  0.08663816  1
  S  S10  1  0.67369370  0.04677479  0.08663816  1
  S  S11  1  0.37308209  0.32630630  0.08663816  1
  S  S12  1  0.62300674  0.66666726  0.91666728  1
  S  S13  1  0.04365952  0.37699326  0.91666728  1
  S  S14  1  0.33333274  0.95634048  0.91666728  1
  S  S15  1  0.63173240  0.96506230  0.41666679  1
  S  S16  1  0.33332890  0.36826760  0.41666679  1
  S  S17  1  0.03493770  0.66667110  0.41666679  1
  O  O0  1  0.21026918  0.03888657  0.30299416  1
  O  O1  1  0.82861738  0.78973082  0.30299416  1
  O  O2  1  0.96111343  0.17138262  0.30299416  1
  O  O3  1  0.21486783  0.17703112  0.80077142  1
  O  O4  1  0.96216329  0.78513217  0.80077142  1
  O  O5  1  0.82296888  0.03783671  0.80077142  1
  O  O6  1  0.79431363  0.97144786  0.69385861  1
  O  O7  1  0.17713424  0.20568637  0.69385861  1
  O  O8  1  0.02855214  0.82286576  0.69385861  1
  O  O9  1  0.79579038  0.82491187  0.19541599  1
  O  O10  1  0.02912149  0.20420962  0.19541599  1
  O  O11  1  0.17508813  0.97087851  0.19541599  1
  O  O12  1  0.87087508  0.36245564  0.63791589  1
  O  O13  1  0.49158156  0.12912492  0.63791589  1
  O  O14  1  0.63754436  0.50841844  0.63791589  1
  O  O15  1  0.87235289  0.51046540  0.13947395  1
  O  O16  1  0.63811351  0.12764711  0.13947395  1
  O  O17  1  0.48953460  0.36188649  0.13947395  1
  O  O18  1  0.45179751  0.29549618  0.03256207  1
  O  O19  1  0.84369967  0.54820249  0.03256207  1
  O  O20  1  0.70450382  0.15630033  0.03256207  1
  O  O21  1  0.45640113  0.16195413  0.53033911  1
  O  O22  1  0.70555400  0.54359887  0.53033911  1
  O  O23  1  0.83804587  0.29444600  0.53033911  1
  O  O24  1  0.54188395  0.69629858  0.97021458  1
  O  O25  1  0.15441363  0.45811605  0.97021458  1
  O  O26  1  0.30370142  0.84558637  0.97021458  1
  O  O27  1  0.55068585  0.85090575  0.46979996  1
  O  O28  1  0.30021891  0.44931415  0.46979996  1
  O  O29  1  0.14909425  0.69978109  0.46979996  1
  O  O30  1  0.11598352  0.63355270  0.36353436  1
  O  O31  1  0.51756818  0.88401648  0.36353436  1
  O  O32  1  0.36644730  0.48243182  0.36353436  1
  O  O33  1  0.12477873  0.48775045  0.86311976  1
  O  O34  1  0.36297072  0.87522127  0.86311976  1
  O  O35  1  0.51224955  0.63702928  0.86311976  1
  O  O36  1  0.01819551  0.82791756  0.40733494  1
  O  O37  1  0.80972205  0.98180449  0.40733494  1
  O  O38  1  0.17208244  0.19027795  0.40733494  1
  O  O39  1  0.02507173  0.19947546  0.90906723  1
  O  O40  1  0.17440374  0.97492827  0.90906723  1
  O  O41  1  0.80052454  0.82559626  0.90906723  1
  O  O42  1  0.96862139  0.16701254  0.59289418  1
  O  O43  1  0.19839115  0.03137861  0.59289418  1
  O  O44  1  0.83298746  0.80160885  0.59289418  1
  O  O45  1  0.97184560  0.80548880  0.09449462  1
  O  O46  1  0.83364319  0.02815440  0.09449462  1
  O  O47  1  0.19451120  0.16635681  0.09449462  1
  O  O48  1  0.69481979  0.16697752  0.73883855  1
  O  O49  1  0.47215873  0.30518021  0.73883855  1
  O  O50  1  0.83302248  0.52784127  0.73883855  1
  O  O51  1  0.69804378  0.53172489  0.24043911  1
  O  O52  1  0.83368211  0.30195622  0.24043911  1
  O  O53  1  0.46827511  0.16631789  0.24043911  1
  O  O54  1  0.64159448  0.50773952  0.92426588  1
  O  O55  1  0.86614604  0.35840552  0.92426588  1
  O  O56  1  0.49226048  0.13385396  0.92426588  1
  O  O57  1  0.64847450  0.14305747  0.42599841  1
  O  O58  1  0.49458397  0.35152550  0.42599841  1
  O  O59  1  0.85694253  0.50541603  0.42599841  1
  O  O60  1  0.35531666  0.48562177  0.07851108  1
  O  O61  1  0.13030411  0.64468334  0.07851108  1
  O  O62  1  0.51437823  0.86969589  0.07851108  1
  O  O63  1  0.35913531  0.87295630  0.57626382  1
  O  O64  1  0.51381999  0.64086469  0.57626382  1
  O  O65  1  0.12704370  0.48618001  0.57626382  1
  O  O66  1  0.30752943  0.84715804  0.25706946  1
  O  O67  1  0.53962760  0.69247057  0.25706946  1
  O  O68  1  0.15284196  0.46037240  0.25706946  1
  O  O69  1  0.31134757  0.46363216  0.75482305  1
  O  O70  1  0.15228359  0.68865243  0.75482305  1
  O  O71  1  0.53636784  0.84771641  0.75482305  1
loop_
_geom_bond_atom_site_label_1
_geom_bond_atom_site_label_2
_geom_bond_distance
_geom_bond_site_symmetry_2
Ga0 O38 1.994091 1_555
Ga0 O36 1.994091 1_545
Ga0 O37 1.994091 1_445
Ga0 O1 2.008367 1_445
Ga0 O0 2.008367 1_555
Ga0 O2 2.008367 1_455
Ga1 O7 1.981423 1_555
Ga1 O6 1.981423 1_445
Ga1 O8 1.981423 1_545
Ga1 O44 1.991301 1_445
Ga1 O42 1.991301 1_455
Ga1 O43 1.991301 1_555
Ga2 O10 1.969586 1_555
Ga2 O9 1.969586 1_445
Ga2 O11 1.969586 1_545
Ga2 O45 1.972125 1_445
Ga2 O47 1.972125 1_555
Ga2 O46 1.972125 1_455
Ga3 O13 1.969615 1_555
Ga3 O14 1.969615 1_555
Ga3 O12 1.969615 1_555
Ga3 O50 1.972079 1_555
Ga3 O48 1.972079 1_555
Ga3 O49 1.972079 1_555
Ga4 O16 1.981447 1_555
Ga4 O15 1.981447 1_555
Ga4 O17 1.981447 1_555
Ga4 O51 1.991286 1_555
Ga4 O53 1.991286 1_555
Ga4 O52 1.991286 1_555
Ga5 O57 1.994064 1_555
Ga5 O59 1.994064 1_555
Ga5 O58 1.994064 1_555
Ga5 O22 2.008359 1_555
Ga5 O21 2.008359 1_555
Ga5 O23 2.008359 1_555
O0 S0 1.488397 1_555
O1 S1 1.488397 1_555
O2 S2 1.488397 1_555
O3 S3 1.478056 1_555
O3 Sc0 2.081738 1_555
O4 S4 1.478056 1_555
O4 Sc0 2.081738 1_665
O5 S5 1.478056 1_555
O5 Sc0 2.081738 1_655
O6 S5 1.483540 1_565
O7 S3 1.483540 1_555
O8 S4 1.483540 1_455
O9 S1 1.480621 1_555
O10 S2 1.480621 1_455
O11 S0 1.480621 1_565
O12 S6 1.480660 1_555
O13 S7 1.480660 1_555
O14 S8 1.480660 1_555
O15 S9 1.483563 1_555
O16 S10 1.483563 1_555
O17 S11 1.483563 1_555
O18 S11 1.478076 1_555
O18 Sc1 2.081785 1_554
O19 S9 1.478076 1_555
O19 Sc1 2.081785 1_554
O20 S10 1.478076 1_555
O20 Sc1 2.081785 1_554
O21 S7 1.488352 1_555
O22 S8 1.488352 1_555
O23 S6 1.488352 1_555
O24 S12 1.475753 1_555
O24 Sc2 2.077414 1_556
O25 S13 1.475753 1_555
O25 Sc2 2.077414 1_556
O26 S14 1.475753 1_555
O26 Sc2 2.077414 1_556
O27 S15 1.480476 1_555
O27 Sc3 2.106276 1_555
O28 S16 1.480476 1_555
O28 Sc3 2.106276 1_555
O29 S17 1.480476 1_555
O29 Sc3 2.106276 1_555
O30 S17 1.480490 1_555
O30 Sc4 2.106222 1_555
O31 S15 1.480490 1_555
O31 Sc4 2.106222 1_555
O32 S16 1.480490 1_555
O32 Sc4 2.106222 1_555
O33 S13 1.475763 1_555
O33 Sc5 2.077432 1_555
O34 S14 1.475763 1_555
O34 Sc5 2.077432 1_555
O35 S12 1.475763 1_555
O35 Sc5 2.077432 1_555
O36 S17 1.484560 1_555
O37 S15 1.484568 1_555
O38 S16 1.484565 1_555
O39 S13 1.468916 1_555
O39 Sc0 2.049686 1_555
O40 S14 1.468908 1_555
O40 Sc0 2.049686 1_565
O41 S12 1.468912 1_555
O41 Sc0 2.049686 1_665
O42 S6 1.481769 1_555
O43 S7 1.481777 1_555
O44 S8 1.481774 1_555
O45 S9 1.478464 1_555
O46 S10 1.478456 1_555
O47 S11 1.478461 1_555
O48 S5 1.478567 1_555
O49 S3 1.478575 1_555
O50 S4 1.478572 1_555
O51 S1 1.481787 1_555
O52 S2 1.481778 1_555
O53 S0 1.481783 1_555
O54 S12 1.468893 1_555
O54 Sc1 2.049675 1_555
O55 S13 1.468876 1_655
O55 Sc1 2.049675 1_555
O56 S14 1.468883 1_545
O56 Sc1 2.049675 1_555
O57 S15 1.484615 1_545
O58 S16 1.484632 1_555
O59 S17 1.484622 1_655
O60 S11 1.469547 1_555
O60 Sc2 2.063351 1_555
O61 S9 1.469530 1_455
O61 Sc2 2.063351 1_555
O62 S10 1.469537 1_565
O62 Sc2 2.063351 1_555
O63 S7 1.472961 1_565
O63 Sc3 2.075480 1_555
O64 S8 1.472978 1_555
O64 Sc3 2.075480 1_555
O65 S6 1.472968 1_455
O65 Sc3 2.075480 1_555
O66 S0 1.472891 1_565
O66 Sc4 2.075558 1_555
O67 S1 1.472900 1_555
O67 Sc4 2.075558 1_555
O68 S2 1.472896 1_455
O68 Sc4 2.075558 1_555
O69 S3 1.469467 1_555
O69 Sc5 2.063378 1_555
O70 S4 1.469459 1_455
O70 Sc5 2.063378 1_555
O71 S5 1.469464 1_565
O71 Sc5 2.063378 1_555
