# generated using pymatgen
data_La2Fe2S5
_symmetry_space_group_name_H-M   'P 1'
_cell_length_a   8.51545438
_cell_length_b   8.51545438
_cell_length_c   11.30803200
_cell_angle_alpha   90.00000000
_cell_angle_beta   90.00000000
_cell_angle_gamma   153.07158999
_symmetry_Int_Tables_number   1
_chemical_formula_structural   La2Fe2S5
_chemical_formula_sum   'La4 Fe4 S10'
_cell_volume   371.34946554
_cell_formula_units_Z   2
loop_
 _symmetry_equiv_pos_site_id
 _symmetry_equiv_pos_as_xyz
  1  'x, y, z'
loop_
 _atom_site_type_symbol
 _atom_site_label
 _atom_site_symmetry_multiplicity
 _atom_site_fract_x
 _atom_site_fract_y
 _atom_site_fract_z
 _atom_site_occupancy
  La  La0  1  0.37685800  0.62314200  0.06960700  1
  La  La1  1  0.62314200  0.37685800  0.56960700  1
  La  La2  1  0.37886600  0.62113400  0.45120000  1
  La  La3  1  0.62113400  0.37886600  0.95120000  1
  Fe  Fe0  1  0.08543800  0.91456200  0.28590700  1
  Fe  Fe1  1  0.91456200  0.08543800  0.78590700  1
  Fe  Fe2  1  0.69554600  0.30445400  0.24827600  1
  Fe  Fe3  1  0.30445400  0.69554600  0.74827600  1
  S  S0  1  0.54171800  0.45828200  0.20086100  1
  S  S1  1  0.45828200  0.54171800  0.70086100  1
  S  S2  1  0.00967500  0.99032500  0.46591000  1
  S  S3  1  0.99032500  0.00967500  0.96591000  1
  S  S4  1  0.84542100  0.15457900  0.25699800  1
  S  S5  1  0.15457900  0.84542100  0.75699800  1
  S  S6  1  0.19892600  0.80107400  0.10514500  1
  S  S7  1  0.80107400  0.19892600  0.60514500  1
  S  S8  1  0.80022400  0.19977600  0.90609600  1
  S  S9  1  0.19977600  0.80022400  0.40609600  1
loop_
_geom_bond_atom_site_label_1
_geom_bond_atom_site_label_2
_geom_bond_distance
_geom_bond_site_symmetry_2
La0 S4 2.948313 1_455
La0 S4 2.948313 1_565
La0 S3 2.972892 1_564
La0 S3 2.972892 1_454
La0 S6 2.974330 1_555
La0 S8 2.993492 1_564
La0 S8 2.993492 1_454
La0 S0 3.107863 1_555
La1 S5 2.948313 1_545
La1 S5 2.948313 1_655
La1 S2 2.972892 1_655
La1 S2 2.972892 1_545
La1 S7 2.974330 1_555
La1 S9 2.993492 1_655
La1 S9 2.993492 1_545
La1 S1 3.107863 1_555
La2 S7 2.936279 1_565
La2 S7 2.936279 1_455
La2 S2 2.941574 1_655
La2 S2 2.941574 1_545
La2 S9 3.009767 1_555
La2 S4 3.010089 1_455
La2 S4 3.010089 1_565
La2 S1 3.114558 1_555
La3 S6 2.936279 1_656
La3 S6 2.936279 1_546
La3 S3 2.941574 1_565
La3 S3 2.941574 1_455
La3 S8 3.009767 1_555
La3 S5 3.010089 1_545
La3 S5 3.010089 1_655
La3 S0 3.114558 1_556
Fe0 S0 2.319571 1_565
Fe0 S0 2.319571 1_455
Fe0 S9 2.330983 1_555
Fe0 S2 2.391197 1_555
Fe0 S6 2.776940 1_555
Fe1 S1 2.319571 1_655
Fe1 S1 2.319571 1_545
Fe1 S8 2.330983 1_555
Fe1 S3 2.391197 1_555
Fe1 S7 2.776940 1_555
Fe2 S4 2.484312 1_555
Fe2 S6 2.560069 1_655
Fe2 S6 2.560069 1_545
Fe2 S0 2.603631 1_555
Fe2 S9 2.668521 1_655
Fe2 S9 2.668521 1_545
Fe3 S5 2.484312 1_555
Fe3 S7 2.560069 1_565
Fe3 S7 2.560069 1_455
Fe3 S1 2.603631 1_555
Fe3 S8 2.668521 1_565
Fe3 S8 2.668521 1_455
