# generated using pymatgen
data_MgTe4Mo3W(SeS)2
_symmetry_space_group_name_H-M   'P 1'
_cell_length_a   3.39648401
_cell_length_b   3.39714486
_cell_length_c   45.62049682
_cell_angle_alpha   90.02840323
_cell_angle_beta   90.00811944
_cell_angle_gamma   119.99425185
_symmetry_Int_Tables_number   1
_chemical_formula_structural   MgTe4Mo3W(SeS)2
_chemical_formula_sum   'Mg1 Te4 Mo3 W1 Se2 S2'
_cell_volume   455.88923543
_cell_formula_units_Z   1
loop_
 _symmetry_equiv_pos_site_id
 _symmetry_equiv_pos_as_xyz
  1  'x, y, z'
loop_
 _atom_site_type_symbol
 _atom_site_label
 _atom_site_symmetry_multiplicity
 _atom_site_fract_x
 _atom_site_fract_y
 _atom_site_fract_z
 _atom_site_occupancy
  Mg  Mg0  1  0.99871200  0.99754000  0.19809000  1
  Te  Te0  1  0.33346400  0.66700000  0.69868900  1
  Te  Te1  1  0.66634500  0.33283600  0.04586300  1
  Te  Te2  1  0.66698400  0.33379800  0.12819800  1
  Te  Te3  1  0.33278600  0.66598000  0.61654800  1
  Mo  Mo0  1  0.33335700  0.66669400  0.08685100  1
  Mo  Mo1  1  0.66729900  0.33454200  0.28937700  1
  Mo  Mo2  1  0.66642900  0.33311600  0.65762800  1
  W  W0  1  0.33334800  0.66646000  0.46962100  1
  Se  Se0  1  0.66637200  0.33269000  0.43335900  1
  Se  Se1  1  0.66693500  0.33351300  0.50592300  1
  S  S0  1  0.33418700  0.66820500  0.32202900  1
  S  S1  1  0.33378300  0.66762500  0.25622500  1
loop_
_geom_bond_atom_site_label_1
_geom_bond_atom_site_label_2
_geom_bond_distance
_geom_bond_site_symmetry_2
Mo0 Te1 2.709714 1_565
Mo0 Te1 2.709790 1_555
Mo0 Te1 2.709797 1_455
Mo0 Te2 2.720986 1_555
Mo0 Te2 2.720987 1_455
Mo0 Te2 2.721311 1_565
Mo1 S0 2.462651 1_655
Mo1 S0 2.462693 1_555
Mo1 S0 2.462973 1_545
Mo1 S1 2.476631 1_545
Mo1 S1 2.476633 1_555
Mo1 S1 2.476643 1_655
Mo2 Te0 2.711960 1_545
Mo2 Te0 2.712095 1_555
Mo2 Te0 2.712144 1_655
Mo2 Te3 2.712519 1_655
Mo2 Te3 2.712520 1_555
Mo2 Te3 2.712956 1_545
Se0 W0 2.565680 1_555
Se0 W0 2.565763 1_655
Se0 W0 2.565773 1_545
Se1 W0 2.566789 1_555
Se1 W0 2.566812 1_655
Se1 W0 2.567145 1_545
