# generated using pymatgen
data_MoAs2O7
_symmetry_space_group_name_H-M   'P 1'
_cell_length_a   4.57900834
_cell_length_b   7.79570221
_cell_length_c   16.91351785
_cell_angle_alpha   72.51803892
_cell_angle_beta   90.00000000
_cell_angle_gamma   90.00000000
_symmetry_Int_Tables_number   1
_chemical_formula_structural   MoAs2O7
_chemical_formula_sum   'Mo4 As8 O28'
_cell_volume   575.86835183
_cell_formula_units_Z   4
loop_
 _symmetry_equiv_pos_site_id
 _symmetry_equiv_pos_as_xyz
  1  'x, y, z'
loop_
 _atom_site_type_symbol
 _atom_site_label
 _atom_site_symmetry_multiplicity
 _atom_site_fract_x
 _atom_site_fract_y
 _atom_site_fract_z
 _atom_site_occupancy
  Mo  Mo0  1  -0.00010276  0.06432953  0.09837019  1
  Mo  Mo1  1  0.49989724  0.93567047  0.40162981  1
  Mo  Mo2  1  0.00010276  0.93567047  0.90162981  1
  Mo  Mo3  1  0.50010276  0.06432953  0.59837019  1
  As  As0  1  0.54548967  0.40074540  0.21326104  1
  As  As1  1  0.04548967  0.59925460  0.28673896  1
  As  As2  1  0.45451033  0.59925460  0.78673896  1
  As  As3  1  0.95451033  0.40074540  0.71326104  1
  As  As4  1  0.45826994  0.76839032  0.05809610  1
  As  As5  1  0.95826994  0.23160968  0.44190390  1
  As  As6  1  0.04173006  0.76839032  0.55809610  1
  As  As7  1  0.54173006  0.23160968  0.94190390  1
  O  O0  1  0.17641823  0.44434439  0.23330435  1
  O  O1  1  0.67641823  0.55565561  0.26669565  1
  O  O2  1  0.82358177  0.55565561  0.76669565  1
  O  O3  1  0.32358177  0.44434439  0.73330435  1
  O  O4  1  0.78243442  0.98380828  0.18121008  1
  O  O5  1  0.28243442  0.01619172  0.31878992  1
  O  O6  1  0.21756558  0.01619172  0.81878992  1
  O  O7  1  0.71756558  0.98380828  0.68121008  1
  O  O8  1  0.25444328  0.75201214  0.97692474  1
  O  O9  1  0.75444328  0.24798786  0.52307526  1
  O  O10  1  0.74555672  0.24798786  0.02307526  1
  O  O11  1  0.24555672  0.75201214  0.47692474  1
  O  O12  1  0.24850589  0.84366761  0.62457746  1
  O  O13  1  0.74850589  0.15633239  0.87542254  1
  O  O14  1  0.75149411  0.15633239  0.37542254  1
  O  O15  1  0.25149411  0.84366761  0.12457746  1
  O  O16  1  0.91784303  0.55837824  0.60695420  1
  O  O17  1  0.41784303  0.44162176  0.89304580  1
  O  O18  1  0.08215697  0.44162176  0.39304580  1
  O  O19  1  0.58215697  0.55837824  0.10695420  1
  O  O20  1  0.75783806  0.90072239  0.02502211  1
  O  O21  1  0.77863396  0.78760675  0.87672288  1
  O  O22  1  0.72136604  0.78760675  0.37672288  1
  O  O23  1  0.22136604  0.21239325  0.12327712  1
  O  O24  1  0.74216194  0.90072239  0.52502211  1
  O  O25  1  0.24216194  0.09927761  0.97497789  1
  O  O26  1  0.25783806  0.09927761  0.47497789  1
  O  O27  1  0.27863396  0.21239325  0.62327712  1
loop_
_geom_bond_atom_site_label_1
_geom_bond_atom_site_label_2
_geom_bond_distance
_geom_bond_site_symmetry_2
Mo0 O4 1.679369 1_445
Mo0 O23 1.682361 1_555
Mo0 O10 1.983074 1_455
Mo0 O15 2.006178 1_545
Mo0 O25 2.306250 1_554
Mo0 O20 2.311910 1_445
Mo1 O5 1.679369 1_565
Mo1 O22 1.682361 1_555
Mo1 O11 1.983074 1_555
Mo1 O14 2.006178 1_565
Mo1 O24 2.306250 1_555
Mo1 O26 2.311910 1_565
Mo2 O6 1.679369 1_565
Mo2 O21 1.682361 1_455
Mo2 O8 1.983074 1_555
Mo2 O13 2.006178 1_465
Mo2 O20 2.306250 1_456
Mo2 O25 2.311910 1_565
Mo3 O7 1.679369 1_545
Mo3 O27 1.682361 1_555
Mo3 O9 1.983074 1_555
Mo3 O12 2.006178 1_545
Mo3 O26 2.306250 1_555
Mo3 O24 2.311910 1_545
As0 O0 1.776431 1_555
As0 O1 1.813929 1_555
As0 O19 1.855712 1_555
As1 O1 1.776431 1_455
As1 O0 1.813929 1_555
As1 O18 1.855712 1_555
As2 O2 1.776431 1_555
As2 O3 1.813929 1_555
As2 O17 1.855712 1_555
As3 O3 1.776431 1_655
As3 O2 1.813929 1_555
As3 O16 1.855712 1_555
As4 O19 1.694766 1_555
As4 O8 1.696334 1_554
As4 O15 1.703428 1_555
As4 O20 1.706481 1_555
As5 O18 1.694766 1_655
As5 O9 1.696334 1_555
As5 O14 1.703428 1_555
As5 O26 1.706481 1_655
As6 O16 1.694766 1_455
As6 O11 1.696334 1_555
As6 O12 1.703428 1_555
As6 O24 1.706481 1_455
As7 O17 1.694766 1_555
As7 O10 1.696334 1_556
As7 O13 1.703428 1_555
As7 O25 1.706481 1_555
