# generated using pymatgen
data_Na2Ta3GaSi4(SO12)2
_symmetry_space_group_name_H-M   'P 1'
_cell_length_a   8.78194067
_cell_length_b   8.81632756
_cell_length_c   22.78210037
_cell_angle_alpha   89.33573060
_cell_angle_beta   90.90705637
_cell_angle_gamma   119.77657673
_symmetry_Int_Tables_number   1
_chemical_formula_structural   Na2Ta3GaSi4(SO12)2
_chemical_formula_sum   'Na6 Ta9 Ga3 Si12 S6 O72'
_cell_volume   1530.79673338
_cell_formula_units_Z   3
loop_
 _symmetry_equiv_pos_site_id
 _symmetry_equiv_pos_as_xyz
  1  'x, y, z'
loop_
 _atom_site_type_symbol
 _atom_site_label
 _atom_site_symmetry_multiplicity
 _atom_site_fract_x
 _atom_site_fract_y
 _atom_site_fract_z
 _atom_site_occupancy
  Na  Na0  1  0.98615617  0.98269599  0.49890093  1
  Na  Na1  1  0.00299284  0.99375159  0.99820608  1
  Na  Na2  1  0.65827525  0.32324919  0.83065127  1
  Na  Na3  1  0.67055831  0.32198058  0.32369244  1
  Na  Na4  1  0.32122614  0.65486205  0.16289986  1
  Na  Na5  1  0.34674835  0.66397918  0.66538617  1
  Ta  Ta0  1  -0.00009622  0.00220036  0.35293198  1
  Ta  Ta1  1  0.00383517  0.01635511  0.85712842  1
  Ta  Ta2  1  0.98543053  0.99588880  0.64707021  1
  Ta  Ta3  1  0.02010420  0.01108562  0.14209036  1
  Ta  Ta4  1  0.66234775  0.34246588  0.97597117  1
  Ta  Ta5  1  0.67864518  0.34346183  0.47742638  1
  Ta  Ta6  1  0.32294371  0.65792279  0.02106112  1
  Ta  Ta7  1  0.32076362  0.67542896  0.31004163  1
  Ta  Ta8  1  0.34110334  0.66653308  0.81192914  1
  Ga  Ga0  1  0.64025225  0.33062049  0.69051546  1
  Ga  Ga1  1  0.67303974  0.33373578  0.18630358  1
  Ga  Ga2  1  0.35991657  0.68992533  0.51825960  1
  Si  Si0  1  0.30055577  0.01752499  0.24940427  1
  Si  Si1  1  0.99400094  0.28922831  0.24766541  1
  Si  Si2  1  0.28939067  0.29045854  0.74894897  1
  Si  Si3  1  0.70588289  0.01186297  0.74879072  1
  Si  Si4  1  0.65513586  0.61522951  0.58512197  1
  Si  Si5  1  0.94763248  0.61482018  0.08705003  1
  Si  Si6  1  0.39483213  0.34277735  0.08638031  1
  Si  Si7  1  0.62294320  0.67404274  0.91843405  1
  Si  Si8  1  0.04392177  0.38466280  0.91517354  1
  Si  Si9  1  0.33525471  0.95164272  0.91577563  1
  Si  Si10  1  0.62119124  0.95341717  0.41765018  1
  Si  Si11  1  0.05872484  0.67418271  0.42140557  1
  S  S0  1  0.71075958  0.71253549  0.25030528  1
  S  S1  1  0.99725057  0.71097489  0.74987662  1
  S  S2  1  0.95865334  0.33774044  0.58465840  1
  S  S3  1  0.37773526  0.04388714  0.58377169  1
  S  S4  1  0.66447452  0.04370664  0.08446558  1
  S  S5  1  0.33194133  0.37867468  0.41790296  1
  O  O0  1  0.19239679  0.02337295  0.30680953  1
  O  O1  1  0.82064301  0.80142571  0.30455004  1
  O  O2  1  0.97465220  0.16818555  0.30646984  1
  O  O3  1  0.19097490  0.16653630  0.80582285  1
  O  O4  1  0.97527731  0.79489729  0.80214637  1
  O  O5  1  0.82968805  0.02692922  0.80537684  1
  O  O6  1  0.80004156  0.97037919  0.69169137  1
  O  O7  1  0.16542721  0.18670068  0.69072627  1
  O  O8  1  0.02248733  0.82310585  0.69558663  1
  O  O9  1  0.78752846  0.82024566  0.19793322  1
  O  O10  1  0.01980829  0.18704903  0.19228775  1
  O  O11  1  0.16807282  0.97012560  0.19236335  1
  O  O12  1  0.87371976  0.35508059  0.63608895  1
  O  O13  1  0.48474999  0.12105145  0.63687960  1
  O  O14  1  0.64160467  0.49875279  0.64142572  1
  O  O15  1  0.87161509  0.49813585  0.14464726  1
  O  O16  1  0.63596274  0.11631074  0.13757003  1
  O  O17  1  0.50285336  0.36433802  0.14523439  1
  O  O18  1  0.47126875  0.30261586  0.02690046  1
  O  O19  1  0.83214582  0.52275526  0.02704944  1
  O  O20  1  0.69446373  0.15054355  0.03086483  1
  O  O21  1  0.46213476  0.15221296  0.53036375  1
  O  O22  1  0.68562160  0.51914866  0.52667470  1
  O  O23  1  0.84369176  0.30412560  0.52966504  1
  O  O24  1  0.53252434  0.70061345  0.97558258  1
  O  O25  1  0.16522312  0.46757572  0.97413657  1
  O  O26  1  0.30460876  0.83256874  0.97426592  1
  O  O27  1  0.55212853  0.83818267  0.47582408  1
  O  O28  1  0.30142470  0.44984226  0.47052030  1
  O  O29  1  0.17105593  0.69138538  0.47911217  1
  O  O30  1  0.13647116  0.63510869  0.36102602  1
  O  O31  1  0.49900658  0.85638242  0.35945278  1
  O  O32  1  0.36332449  0.48416535  0.36424802  1
  O  O33  1  0.13386399  0.50228066  0.85714948  1
  O  O34  1  0.36263445  0.86010716  0.85788172  1
  O  O35  1  0.50136993  0.63594843  0.85876477  1
  O  O36  1  0.02693873  0.83936841  0.40957810  1
  O  O37  1  0.81989728  0.98542484  0.40681127  1
  O  O38  1  0.17749463  0.19868003  0.41021234  1
  O  O39  1  0.02937418  0.19209987  0.91047129  1
  O  O40  1  0.16042940  0.96986171  0.90693123  1
  O  O41  1  0.81659445  0.83879211  0.90795332  1
  O  O42  1  0.97061503  0.17047854  0.58760616  1
  O  O43  1  0.20102305  0.03105187  0.58781743  1
  O  O44  1  0.83837890  0.81162936  0.59021611  1
  O  O45  1  0.96114862  0.80984096  0.09208604  1
  O  O46  1  0.82323010  0.02217217  0.09038544  1
  O  O47  1  0.19025458  0.16833953  0.08946904  1
  O  O48  1  0.70330920  0.19005968  0.73722186  1
  O  O49  1  0.48158817  0.31145385  0.74729537  1
  O  O50  1  0.84495900  0.53884535  0.74298274  1
  O  O51  1  0.69847893  0.54161855  0.24922019  1
  O  O52  1  0.82607301  0.31395924  0.24448840  1
  O  O53  1  0.48924923  0.18437140  0.24432968  1
  O  O54  1  0.63775671  0.49644533  0.92256631  1
  O  O55  1  0.84970299  0.35478598  0.92472992  1
  O  O56  1  0.50731735  0.14289057  0.92469294  1
  O  O57  1  0.63599052  0.14667638  0.42685394  1
  O  O58  1  0.48983002  0.35366483  0.42456072  1
  O  O59  1  0.85795392  0.49858025  0.42667505  1
  O  O60  1  0.36485112  0.51089793  0.07811126  1
  O  O61  1  0.15000454  0.65166372  0.07705469  1
  O  O62  1  0.50952490  0.86629985  0.07760750  1
  O  O63  1  0.35348349  0.86612405  0.57853118  1
  O  O64  1  0.48181593  0.63629140  0.57690071  1
  O  O65  1  0.13159103  0.48684697  0.57595245  1
  O  O66  1  0.30937143  0.83287287  0.25611114  1
  O  O67  1  0.53474493  0.69548714  0.25849723  1
  O  O68  1  0.18000392  0.47570510  0.25876477  1
  O  O69  1  0.29595716  0.47903763  0.75402711  1
  O  O70  1  0.16141215  0.70229591  0.75274500  1
  O  O71  1  0.51466148  0.83368945  0.75420241  1
loop_
_geom_bond_atom_site_label_1
_geom_bond_atom_site_label_2
_geom_bond_distance
_geom_bond_site_symmetry_2
Na0 O44 2.520986 1_555
Na0 O36 2.529484 1_655
Na0 O37 2.543761 1_555
Na0 O43 2.635488 1_665
Na0 O42 2.674737 1_565
Na0 O38 2.715170 1_665
Na1 O41 2.551684 1_455
Na1 O39 2.576430 1_565
Na1 O40 2.582711 1_555
Na1 O45 2.586715 1_456
Na1 O47 2.616936 1_566
Na1 O46 2.734078 1_466
Na2 O49 2.403280 1_555
Na2 O48 2.571323 1_555
Na2 O56 2.606388 1_555
Na2 O55 2.633000 1_555
Na2 O54 2.666147 1_555
Na2 O50 2.685202 1_555
Na3 O52 2.302844 1_555
Na3 O53 2.305909 1_555
Na3 O51 2.480673 1_555
Na3 O57 2.734376 1_555
Na3 O59 2.838029 1_555
Na3 O58 2.906637 1_555
Na4 O61 2.439823 1_555
Na4 O60 2.460142 1_555
Na4 O68 2.619719 1_555
Na4 O62 2.634619 1_555
Na4 O66 2.688843 1_555
Na4 O67 2.758503 1_555
Na5 O64 2.430030 1_555
Na5 O69 2.483022 1_555
Na5 O71 2.508322 1_555
Na5 O63 2.629124 1_555
Na5 O65 2.679818 1_555
Na5 O70 2.718172 1_555
Ga0 O14 1.841908 1_555
Ga0 O49 1.860513 1_555
Ga0 O48 1.899199 1_555
Ga0 O13 2.065234 1_555
Ga0 O50 2.176145 1_555
Ga0 O12 2.328699 1_555
Ga1 O17 1.879449 1_555
Ga1 O15 1.884815 1_555
Ga1 O52 1.940274 1_555
Ga1 O53 2.000723 1_555
Ga1 O16 2.105022 1_555
Ga1 O51 2.259995 1_555
Ga2 O27 1.823012 1_555
Ga2 O29 1.876304 1_555
Ga2 O64 1.896640 1_555
Ga2 O63 2.107331 1_555
Ga2 O28 2.209689 1_555
Ga2 O65 2.327409 1_555
O0 Si0 1.644619 1_555
O0 Ta0 1.932587 1_555
O1 S0 1.518604 1_555
O1 Ta0 2.012217 1_665
O2 Si1 1.660243 1_555
O2 Ta0 1.894746 1_655
O3 Si2 1.638363 1_555
O3 Ta1 1.919343 1_555
O4 S1 1.473846 1_555
O4 Ta1 2.237045 1_665
O5 Si3 1.636404 1_555
O5 Ta1 1.954389 1_655
O6 Si3 1.689727 1_565
O6 Ta2 1.848791 1_555
O7 Si2 1.665731 1_555
O7 Ta2 1.914595 1_445
O8 S1 1.522794 1_455
O8 Ta2 2.022383 1_455
O9 S0 1.463964 1_555
O9 Ta3 2.289202 1_665
O10 Si1 1.640964 1_455
O10 Ta3 1.939009 1_555
O11 Si0 1.642806 1_565
O11 Ta3 1.881520 1_565
O12 S2 1.448331 1_555
O13 S3 1.469005 1_555
O14 Si4 1.602213 1_555
O15 Si5 1.593768 1_555
O16 S4 1.457001 1_555
O17 Si6 1.587569 1_555
O18 Si6 1.639570 1_555
O18 Ta4 1.937043 1_554
O19 Si5 1.649283 1_555
O19 Ta4 1.933378 1_554
O20 S4 1.478126 1_555
O20 Ta4 2.218182 1_554
O21 S3 1.496816 1_555
O21 Ta5 2.180346 1_555
O22 Si4 1.680756 1_555
O22 Ta5 1.898838 1_555
O23 S2 1.532366 1_555
O23 Ta5 2.018056 1_555
O24 Si7 1.614021 1_555
O24 Ta6 1.991476 1_556
O25 Si8 1.636343 1_555
O25 Ta6 1.887745 1_556
O26 Si9 1.627402 1_555
O26 Ta6 1.932878 1_556
O27 Si10 1.593328 1_555
O28 S5 1.448131 1_555
O29 Si11 1.593578 1_555
O30 Si11 1.658728 1_555
O30 Ta7 1.890344 1_555
O31 Si10 1.646402 1_555
O31 Ta7 1.941144 1_555
O32 S5 1.471340 1_555
O32 Ta7 2.251951 1_555
O33 Si8 1.623075 1_555
O33 Ta8 1.969190 1_555
O34 Si9 1.635892 1_555
O34 Ta8 1.938793 1_555
O35 Si7 1.645936 1_555
O35 Ta8 1.874800 1_555
O36 Si11 1.632092 1_555
O36 Ta0 2.017068 1_565
O37 Si10 1.645797 1_555
O37 Ta0 1.962790 1_665
O38 S5 1.499898 1_555
O38 Ta0 2.107263 1_555
O39 Si8 1.642661 1_555
O39 Ta1 1.902039 1_555
O40 Si9 1.630325 1_555
O40 Ta1 1.961184 1_565
O41 Si7 1.615627 1_555
O41 Ta1 1.989156 1_665
O42 S2 1.530175 1_555
O42 Ta2 2.089600 1_545
O43 S3 1.503158 1_555
O43 Ta2 2.234109 1_445
O44 Si4 1.682984 1_555
O44 Ta2 1.973960 1_555
O45 Si5 1.668806 1_555
O45 Ta3 1.956928 1_665
O46 S4 1.501444 1_555
O46 Ta3 2.118262 1_655
O47 Si6 1.689681 1_555
O47 Ta3 1.884842 1_555
O48 Si3 1.601132 1_555
O49 Si2 1.605028 1_555
O50 S1 1.448900 1_555
O51 S0 1.456789 1_555
O52 Si1 1.594754 1_555
O53 Si0 1.582451 1_555
O54 Si7 1.635815 1_555
O54 Ta4 1.901158 1_555
O55 Si8 1.609382 1_655
O55 Ta4 1.990503 1_555
O56 Si9 1.623313 1_545
O56 Ta4 1.982986 1_555
O57 Si10 1.658732 1_545
O57 Ta5 1.965939 1_555
O58 S5 1.513416 1_555
O58 Ta5 2.071367 1_555
O59 Si11 1.676648 1_655
O59 Ta5 1.889120 1_555
O60 Si6 1.637472 1_555
O60 Ta6 1.981040 1_555
O61 Si5 1.659395 1_455
O61 Ta6 1.978225 1_555
O62 S4 1.485734 1_565
O62 Ta6 2.172006 1_555
O63 S3 1.479119 1_565
O64 Si4 1.630090 1_555
O65 S2 1.447234 1_455
O66 Si0 1.672905 1_565
O66 Ta7 1.881713 1_555
O67 S0 1.491472 1_555
O67 Ta7 2.162521 1_555
O68 Si1 1.662606 1_455
O68 Ta7 1.957884 1_555
O69 Si2 1.640088 1_555
O69 Ta8 2.003205 1_555
O70 S1 1.481542 1_455
O70 Ta8 2.196496 1_555
O71 Si3 1.638524 1_565
O71 Ta8 2.003006 1_555
