# generated using pymatgen
data_PW3O11
_symmetry_space_group_name_H-M   'P 1'
_cell_length_a   5.39658100
_cell_length_b   6.70263000
_cell_length_c   24.04863800
_cell_angle_alpha   90.00000000
_cell_angle_beta   90.00000000
_cell_angle_gamma   90.00000000
_symmetry_Int_Tables_number   1
_chemical_formula_structural   PW3O11
_chemical_formula_sum   'P4 W12 O44'
_cell_volume   869.87015599
_cell_formula_units_Z   4
loop_
 _symmetry_equiv_pos_site_id
 _symmetry_equiv_pos_as_xyz
  1  'x, y, z'
loop_
 _atom_site_type_symbol
 _atom_site_label
 _atom_site_symmetry_multiplicity
 _atom_site_fract_x
 _atom_site_fract_y
 _atom_site_fract_z
 _atom_site_occupancy
  P  P0  1  0.73483300  0.88362800  0.20389200  1
  P  P1  1  0.23483300  0.61637200  0.79610800  1
  P  P2  1  0.26516700  0.38362800  0.29610800  1
  P  P3  1  0.76516700  0.11637200  0.70389200  1
  W  W0  1  0.74111200  0.24336400  0.09724800  1
  W  W1  1  0.25642100  0.41906500  0.66056900  1
  W  W2  1  0.24357900  0.58093500  0.16056900  1
  W  W3  1  0.74357900  0.91906500  0.83943100  1
  W  W4  1  0.75642100  0.08093500  0.33943100  1
  W  W5  1  0.24111200  0.25663600  0.90275200  1
  W  W6  1  0.25888800  0.74336400  0.40275200  1
  W  W7  1  0.75888800  0.75663600  0.59724800  1
  W  W8  1  0.75625400  0.41660700  0.46896900  1
  W  W9  1  0.25625400  0.08339300  0.53103100  1
  W  W10  1  0.24374600  0.91660700  0.03103100  1
  W  W11  1  0.74374600  0.58339300  0.96896900  1
  O  O0  1  0.53396100  0.60032000  0.42988600  1
  O  O1  1  0.03396100  0.89968000  0.57011400  1
  O  O2  1  0.46603900  0.10032000  0.07011400  1
  O  O3  1  0.96603900  0.39968000  0.92988600  1
  O  O4  1  0.48285700  0.77701200  0.19786200  1
  O  O5  1  0.98285700  0.72298800  0.80213800  1
  O  O6  1  0.51714300  0.27701200  0.30213800  1
  O  O7  1  0.01714300  0.22298800  0.69786200  1
  O  O8  1  0.95087600  0.74289100  0.18956100  1
  O  O9  1  0.45087600  0.75710900  0.81043900  1
  O  O10  1  0.04912400  0.24289100  0.31043900  1
  O  O11  1  0.54912400  0.25710900  0.68956100  1
  O  O12  1  0.01994000  0.73142000  0.99664700  1
  O  O13  1  0.51994000  0.76858000  0.00335300  1
  O  O14  1  0.03284500  0.56538200  0.43655800  1
  O  O15  1  0.48006000  0.26858000  0.49664700  1
  O  O16  1  0.25433400  0.25786100  0.59828000  1
  O  O17  1  0.75433400  0.24213900  0.40172000  1
  O  O18  1  0.74566600  0.75786100  0.90172000  1
  O  O19  1  0.24566600  0.74213900  0.09828000  1
  O  O20  1  0.24216200  0.08534900  0.96500200  1
  O  O21  1  0.74216200  0.41465100  0.03499800  1
  O  O22  1  0.75783800  0.58534900  0.53499800  1
  O  O23  1  0.25783800  0.91465100  0.46500200  1
  O  O24  1  0.24228300  0.42850500  0.83269500  1
  O  O25  1  0.74228300  0.07149500  0.16730500  1
  O  O26  1  0.75771700  0.92850500  0.66730500  1
  O  O27  1  0.25771700  0.57149500  0.33269500  1
  O  O28  1  0.01489400  0.07206900  0.86183800  1
  O  O29  1  0.51489400  0.42793100  0.13816200  1
  O  O30  1  0.98510600  0.57206900  0.63816200  1
  O  O31  1  0.48510600  0.92793100  0.36183800  1
  O  O32  1  0.51762300  0.10375100  0.86841900  1
  O  O33  1  0.01762300  0.39624900  0.13158100  1
  O  O34  1  0.48237700  0.60375100  0.63158100  1
  O  O35  1  0.98237700  0.89624900  0.36841900  1
  O  O36  1  0.73533900  0.05438500  0.76516600  1
  O  O37  1  0.23533900  0.44561500  0.23483400  1
  O  O38  1  0.26466100  0.55438500  0.73483400  1
  O  O39  1  0.76466100  0.94561500  0.26516600  1
  O  O40  1  0.46715500  0.43461800  0.93655800  1
  O  O41  1  0.96715500  0.06538200  0.06344200  1
  O  O42  1  0.53284500  0.93461800  0.56344200  1
  O  O43  1  0.98006000  0.23142000  0.50335300  1
loop_
_geom_bond_atom_site_label_1
_geom_bond_atom_site_label_2
_geom_bond_distance
_geom_bond_site_symmetry_2
O0 W6 1.883785 1_555
O0 W8 1.959270 1_555
O1 W7 1.883785 1_455
O1 W9 1.959270 1_565
O2 W0 1.883785 1_555
O2 W10 1.959270 1_545
O3 W5 1.883785 1_655
O3 W11 1.959270 1_555
O4 P0 1.542975 1_555
O4 W2 2.049134 1_555
O5 P1 1.542975 1_655
O5 W3 2.049134 1_555
O6 P2 1.542975 1_555
O6 W4 2.049134 1_555
O7 P3 1.542975 1_455
O7 W1 2.049134 1_555
O8 P0 1.538803 1_555
O8 W2 2.039513 1_655
O9 P1 1.538803 1_555
O9 W3 2.039513 1_555
O10 P2 1.538803 1_555
O10 W4 2.039513 1_455
O11 P3 1.538803 1_555
O11 W1 2.039513 1_555
O12 W11 1.910249 1_455
O12 W10 1.919159 1_556
O13 W10 1.910249 1_555
O13 W11 1.919159 1_554
O14 W6 1.890008 1_555
O14 W8 1.957012 1_455
O15 W8 1.910249 1_555
O15 W9 1.919159 1_555
O16 W1 1.847021 1_555
O16 W9 1.995765 1_555
O17 W4 1.847021 1_555
O17 W8 1.995765 1_555
O18 W3 1.847021 1_555
O18 W11 1.995765 1_555
O19 W2 1.847021 1_555
O19 W10 1.995765 1_555
O20 W5 1.886583 1_555
O20 W10 1.949543 1_546
O21 W0 1.886583 1_555
O21 W11 1.949543 1_554
O22 W7 1.886583 1_555
O22 W8 1.949543 1_555
O23 W6 1.886583 1_555
O23 W9 1.949543 1_565
O24 P1 1.536677 1_555
O24 W5 2.040969 1_555
O25 P0 1.536677 1_545
O25 W0 2.040969 1_555
O26 P3 1.536677 1_565
O26 W7 2.040969 1_555
O27 P2 1.536677 1_555
O27 W6 2.040969 1_555
O28 W3 1.867052 1_445
O28 W5 1.997210 1_555
O29 W2 1.867052 1_555
O29 W0 1.997210 1_555
O30 W1 1.867052 1_655
O30 W7 1.997210 1_555
O31 W4 1.867052 1_565
O31 W6 1.997210 1_555
O32 W3 1.872229 1_545
O32 W5 1.989597 1_555
O33 W2 1.872229 1_555
O33 W0 1.989597 1_455
O34 W1 1.872229 1_555
O34 W7 1.989597 1_555
O35 W4 1.872229 1_565
O35 W6 1.989597 1_655
O36 P3 1.539448 1_555
O36 W3 2.003577 1_545
O37 P2 1.539448 1_555
O37 W2 2.003577 1_555
O38 P1 1.539448 1_555
O38 W1 2.003577 1_555
O39 P0 1.539448 1_555
O39 W4 2.003577 1_565
O40 W5 1.890008 1_555
O40 W11 1.957012 1_555
O41 W0 1.890008 1_555
O41 W10 1.957012 1_645
O42 W7 1.890008 1_555
O42 W9 1.957012 1_565
O43 W9 1.910249 1_655
O43 W8 1.919159 1_555
