# generated using pymatgen
data_MgTi(CuS)4
_symmetry_space_group_name_H-M   'P 1'
_cell_length_a   5.57727575
_cell_length_b   5.57727610
_cell_length_c   6.79749576
_cell_angle_alpha   114.22022320
_cell_angle_beta   114.22021944
_cell_angle_gamma   89.99998974
_symmetry_Int_Tables_number   1
_chemical_formula_structural   MgTi(CuS)4
_chemical_formula_sum   'Mg1 Ti1 Cu4 S4'
_cell_volume   172.21872691
_cell_formula_units_Z   1
loop_
 _symmetry_equiv_pos_site_id
 _symmetry_equiv_pos_as_xyz
  1  'x, y, z'
loop_
 _atom_site_type_symbol
 _atom_site_label
 _atom_site_symmetry_multiplicity
 _atom_site_fract_x
 _atom_site_fract_y
 _atom_site_fract_z
 _atom_site_occupancy
  Mg  Mg0  1  0.75000000  0.25000000  0.50000000  1
  Ti  Ti0  1  0.00000000  0.00000000  0.00000000  1
  Cu  Cu0  1  0.49947400  0.99947400  0.99894900  1
  Cu  Cu1  1  0.00052600  0.50052600  0.00105100  1
  Cu  Cu2  1  0.25550800  0.25550800  0.51101400  1
  Cu  Cu3  1  0.74449200  0.74449200  0.48898600  1
  S  S0  1  0.88185900  0.86919300  0.25095600  1
  S  S1  1  0.61823600  0.11814100  0.74904400  1
  S  S2  1  0.13080700  0.63090100  0.74904400  1
  S  S3  1  0.36909900  0.38176400  0.25095600  1
loop_
_geom_bond_atom_site_label_1
_geom_bond_atom_site_label_2
_geom_bond_distance
_geom_bond_site_symmetry_2
Mg0 S2 2.447222 1_655
Mg0 S3 2.447225 1_555
Mg0 S0 2.447228 1_545
Mg0 S1 2.447231 1_555
Cu0 S1 2.368144 1_565
Cu0 S2 2.368147 1_555
Cu0 S3 2.456505 1_566
Cu0 S0 2.456508 1_556
Cu0 Mg0 2.774074 1_566
Cu0 Ti0 2.788641 1_566
Cu0 Ti0 2.788647 1_666
Cu1 S0 2.368144 1_455
Cu1 S3 2.368147 1_555
Cu1 S2 2.456499 1_554
Cu1 S1 2.456515 1_454
Cu1 Mg0 2.774074 1_454
Cu1 Ti0 2.788641 1_565
Cu1 Ti0 2.788647 1_555
Cu2 S2 2.372541 1_555
Cu2 S1 2.372545 1_555
Cu2 S3 2.441789 1_555
Cu2 S0 2.441792 1_445
Cu2 Mg0 2.789299 1_555
Cu2 Mg0 2.789310 1_455
Cu2 Ti0 2.829234 1_555
Cu3 S3 2.372531 1_555
Cu3 S0 2.372554 1_555
Cu3 S1 2.441788 1_565
Cu3 S2 2.441792 1_655
Cu3 Mg0 2.789299 1_555
Cu3 Mg0 2.789310 1_565
Cu3 Ti0 2.829234 1_666
S0 Ti0 2.412414 1_665
S1 Ti0 2.412417 1_656
S2 Ti0 2.412420 1_566
S3 Ti0 2.412424 1_555
