# generated using pymatgen
data_Na4Cd3Se5
_symmetry_space_group_name_H-M   'P 1'
_cell_length_a   4.26260889
_cell_length_b   14.10003254
_cell_length_c   20.25571435
_cell_angle_alpha   90.00000000
_cell_angle_beta   90.00000000
_cell_angle_gamma   90.00000000
_symmetry_Int_Tables_number   1
_chemical_formula_structural   Na4Cd3Se5
_chemical_formula_sum   'Na16 Cd12 Se20'
_cell_volume   1217.42766124
_cell_formula_units_Z   4
loop_
 _symmetry_equiv_pos_site_id
 _symmetry_equiv_pos_as_xyz
  1  'x, y, z'
loop_
 _atom_site_type_symbol
 _atom_site_label
 _atom_site_symmetry_multiplicity
 _atom_site_fract_x
 _atom_site_fract_y
 _atom_site_fract_z
 _atom_site_occupancy
  Na  Na0  1  0.25000000  0.27620370  0.83374816  1
  Na  Na1  1  0.75000000  0.72379630  0.16625184  1
  Na  Na2  1  0.25000000  0.77620370  0.66625184  1
  Na  Na3  1  0.75000000  0.22379630  0.33374816  1
  Na  Na4  1  0.25000000  0.11108223  0.94819343  1
  Na  Na5  1  0.75000000  0.88891777  0.05180657  1
  Na  Na6  1  0.25000000  0.61108223  0.55180657  1
  Na  Na7  1  0.75000000  0.38891777  0.44819343  1
  Na  Na8  1  0.25000000  0.00654713  0.41850420  1
  Na  Na9  1  0.75000000  0.99345287  0.58149580  1
  Na  Na10  1  0.25000000  0.50654713  0.08149580  1
  Na  Na11  1  0.75000000  0.49345287  0.91850420  1
  Na  Na12  1  0.25000000  0.50153604  0.73278840  1
  Na  Na13  1  0.75000000  0.49846396  0.26721160  1
  Na  Na14  1  0.25000000  0.00153604  0.76721160  1
  Na  Na15  1  0.75000000  0.99846396  0.23278840  1
  Cd  Cd0  1  0.25000000  0.57582510  0.37006564  1
  Cd  Cd1  1  0.75000000  0.42417490  0.62993436  1
  Cd  Cd2  1  0.25000000  0.07582510  0.12993436  1
  Cd  Cd3  1  0.75000000  0.92417490  0.87006564  1
  Cd  Cd4  1  0.25000000  0.31713027  0.21690337  1
  Cd  Cd5  1  0.75000000  0.68286973  0.78309663  1
  Cd  Cd6  1  0.25000000  0.81713027  0.28309663  1
  Cd  Cd7  1  0.75000000  0.18286973  0.71690337  1
  Cd  Cd8  1  0.25000000  0.20633564  0.53532523  1
  Cd  Cd9  1  0.75000000  0.79366436  0.46467477  1
  Cd  Cd10  1  0.25000000  0.70633564  0.96467477  1
  Cd  Cd11  1  0.75000000  0.29366436  0.03532523  1
  Se  Se0  1  0.25000000  0.11434213  0.65152154  1
  Se  Se1  1  0.75000000  0.36196970  0.75302502  1
  Se  Se2  1  0.75000000  0.86196970  0.74697498  1
  Se  Se3  1  0.25000000  0.13803030  0.25302502  1
  Se  Se4  1  0.75000000  0.14596252  0.46818690  1
  Se  Se5  1  0.25000000  0.85403748  0.53181310  1
  Se  Se6  1  0.75000000  0.64596252  0.03181310  1
  Se  Se7  1  0.25000000  0.35403748  0.96818690  1
  Se  Se8  1  0.75000000  0.11453343  0.84357659  1
  Se  Se9  1  0.25000000  0.88546657  0.15642341  1
  Se  Se10  1  0.75000000  0.61453343  0.65642341  1
  Se  Se11  1  0.25000000  0.38546657  0.34357659  1
  Se  Se12  1  0.75000000  0.10657265  0.05404396  1
  Se  Se13  1  0.25000000  0.89342735  0.94595604  1
  Se  Se14  1  0.75000000  0.60657265  0.44595604  1
  Se  Se15  1  0.25000000  0.39342735  0.55404396  1
  Se  Se16  1  0.25000000  0.61434213  0.84847846  1
  Se  Se17  1  0.75000000  0.38565787  0.15152154  1
  Se  Se18  1  0.25000000  0.63803030  0.24697498  1
  Se  Se19  1  0.75000000  0.88565787  0.34847846  1
loop_
_geom_bond_atom_site_label_1
_geom_bond_atom_site_label_2
_geom_bond_distance
_geom_bond_site_symmetry_2
Na0 Se7 2.935980 1_555
Na0 Se1 2.945919 1_455
Na0 Se1 2.945919 1_555
Na0 Se8 3.127054 1_555
Na0 Se8 3.127054 1_455
Na1 Se6 2.935980 1_555
Na1 Se18 2.945919 1_655
Na1 Se18 2.945919 1_555
Na1 Se9 3.127054 1_555
Na1 Se9 3.127054 1_655
Na2 Se5 2.935980 1_555
Na2 Se2 2.945919 1_455
Na2 Se2 2.945919 1_555
Na2 Se10 3.127054 1_555
Na2 Se10 3.127054 1_455
Na3 Se4 2.935980 1_555
Na3 Se3 2.945919 1_655
Na3 Se3 2.945919 1_555
Na3 Se11 3.127054 1_655
Na3 Se11 3.127054 1_555
Na4 Se8 3.005888 1_555
Na4 Se8 3.005888 1_455
Na4 Se12 3.023834 1_556
Na4 Se12 3.023834 1_456
Na4 Se13 3.069275 1_545
Na4 Se7 3.449532 1_555
Na5 Se9 3.005888 1_555
Na5 Se9 3.005888 1_655
Na5 Se13 3.023834 1_554
Na5 Se13 3.023834 1_654
Na5 Se12 3.069275 1_565
Na5 Se6 3.449532 1_555
Na6 Se10 3.005888 1_455
Na6 Se10 3.005888 1_555
Na6 Se14 3.023834 1_555
Na6 Se14 3.023834 1_455
Na6 Se15 3.069275 1_555
Na6 Se5 3.449532 1_555
Na7 Se11 3.005888 1_655
Na7 Se11 3.005888 1_555
Na7 Se15 3.023834 1_655
Na7 Se15 3.023834 1_555
Na7 Se14 3.069275 1_555
Na7 Se4 3.449532 1_555
Na8 Se4 3.069110 1_455
Na8 Se4 3.069110 1_555
Na8 Se19 3.075686 1_445
Na8 Se19 3.075686 1_545
Na8 Se5 3.145140 1_545
Na9 Se5 3.069110 1_555
Na9 Se5 3.069110 1_655
Na9 Se0 3.075686 1_665
Na9 Se0 3.075686 1_565
Na9 Se4 3.145140 1_565
Na10 Se6 3.069110 1_555
Na10 Se6 3.069110 1_455
Na10 Se17 3.075686 1_555
Na10 Se17 3.075686 1_455
Na10 Se7 3.145140 1_554
Na11 Se7 3.069110 1_655
Na11 Se7 3.069110 1_555
Na11 Se16 3.075686 1_555
Na11 Se16 3.075686 1_655
Na11 Se6 3.145140 1_556
Na12 Se16 2.832201 1_555
Na12 Se1 2.929688 1_455
Na12 Se1 2.929688 1_555
Na12 Se10 3.077927 1_455
Na12 Se10 3.077927 1_555
Na13 Se17 2.832201 1_555
Na13 Se18 2.929688 1_655
Na13 Se18 2.929688 1_555
Na13 Se11 3.077927 1_655
Na13 Se11 3.077927 1_555
Na14 Se0 2.832201 1_555
Na14 Se2 2.929688 1_445
Na14 Se2 2.929688 1_545
Na14 Se8 3.077927 1_555
Na14 Se8 3.077927 1_455
Na15 Se19 2.832201 1_555
Na15 Se3 2.929688 1_565
Na15 Se3 2.929688 1_665
Na15 Se9 3.077927 1_555
Na15 Se9 3.077927 1_655
Cd0 Se18 2.643064 1_555
Cd0 Se14 2.663352 1_555
Cd0 Se14 2.663352 1_455
Cd0 Se11 2.737166 1_555
Cd1 Se1 2.643064 1_555
Cd1 Se15 2.663352 1_555
Cd1 Se15 2.663352 1_655
Cd1 Se10 2.737166 1_555
Cd2 Se3 2.643064 1_555
Cd2 Se12 2.663352 1_555
Cd2 Se12 2.663352 1_455
Cd2 Se9 2.737166 1_545
Cd3 Se2 2.643064 1_555
Cd3 Se13 2.663352 1_655
Cd3 Se13 2.663352 1_555
Cd3 Se8 2.737166 1_565
Cd4 Se3 2.629175 1_555
Cd4 Se17 2.688866 1_455
Cd4 Se17 2.688866 1_555
Cd4 Se11 2.740810 1_555
Cd5 Se2 2.629175 1_555
Cd5 Se16 2.688866 1_555
Cd5 Se16 2.688866 1_655
Cd5 Se10 2.740810 1_555
Cd6 Se18 2.629175 1_555
Cd6 Se19 2.688866 1_455
Cd6 Se19 2.688866 1_555
Cd6 Se9 2.740810 1_555
Cd7 Se1 2.629175 1_555
Cd7 Se0 2.688866 1_655
Cd7 Se0 2.688866 1_555
Cd7 Se8 2.740810 1_555
Cd8 Se15 2.665108 1_555
Cd8 Se4 2.667683 1_555
Cd8 Se4 2.667683 1_455
Cd8 Se0 2.687399 1_555
Cd9 Se14 2.665108 1_555
Cd9 Se5 2.667683 1_655
Cd9 Se5 2.667683 1_555
Cd9 Se19 2.687399 1_555
Cd10 Se13 2.665108 1_555
Cd10 Se6 2.667683 1_556
Cd10 Se6 2.667683 1_456
Cd10 Se16 2.687399 1_555
Cd11 Se12 2.665108 1_555
Cd11 Se7 2.667683 1_554
Cd11 Se7 2.667683 1_654
Cd11 Se17 2.687399 1_555
