# generated using pymatgen
data_Na3LaZr3(PO4)6
_symmetry_space_group_name_H-M   'P 1'
_cell_length_a   9.12523584
_cell_length_b   9.14421055
_cell_length_c   23.43686356
_cell_angle_alpha   89.80322069
_cell_angle_beta   90.17910612
_cell_angle_gamma   120.37381065
_symmetry_Int_Tables_number   1
_chemical_formula_structural   Na3LaZr3(PO4)6
_chemical_formula_sum   'Na9 La3 Zr9 P18 O72'
_cell_volume   1687.20974062
_cell_formula_units_Z   3
loop_
 _symmetry_equiv_pos_site_id
 _symmetry_equiv_pos_as_xyz
  1  'x, y, z'
loop_
 _atom_site_type_symbol
 _atom_site_label
 _atom_site_symmetry_multiplicity
 _atom_site_fract_x
 _atom_site_fract_y
 _atom_site_fract_z
 _atom_site_occupancy
  Na  Na0  1  0.35970564  0.35309989  0.24621443  1
  Na  Na1  1  0.63321495  0.62882397  0.74981976  1
  Na  Na2  1  0.96983608  0.29707525  0.41601279  1
  Na  Na3  1  0.00004119  0.98713791  0.50298977  1
  Na  Na4  1  0.99978809  0.99997991  0.00345132  1
  Na  Na5  1  0.66653992  0.31926156  0.83593221  1
  Na  Na6  1  0.66839144  0.33379693  0.32868560  1
  Na  Na7  1  0.33233407  0.68009888  0.16495754  1
  Na  Na8  1  0.31739256  0.66626821  0.66594369  1
  La  La0  1  0.99470752  0.98224487  0.35500346  1
  La  La1  1  0.66810260  0.32210688  0.68473696  1
  La  La2  1  0.67938218  0.33377142  0.17499399  1
  Zr  Zr0  1  0.00397087  0.00314415  0.85740810  1
  Zr  Zr1  1  0.00349189  0.00489622  0.64696387  1
  Zr  Zr2  1  0.99611067  0.99674060  0.14665524  1
  Zr  Zr3  1  0.66588108  0.33464286  0.98246451  1
  Zr  Zr4  1  0.65897199  0.33428509  0.48373906  1
  Zr  Zr5  1  0.33426813  0.66451998  0.01455900  1
  Zr  Zr6  1  0.33937204  0.66879184  0.52050267  1
  Zr  Zr7  1  0.33707650  0.67694248  0.31365208  1
  Zr  Zr8  1  0.32601678  0.66702126  0.81569218  1
  P  P0  1  0.29309083  0.99374461  0.24802223  1
  P  P1  1  0.69096105  0.70126021  0.24789451  1
  P  P2  1  0.00940273  0.30139196  0.25336552  1
  P  P3  1  0.28213734  0.29479179  0.75307086  1
  P  P4  1  0.00994531  0.72463658  0.75276251  1
  P  P5  1  0.71128147  0.98907044  0.75383595  1
  P  P6  1  0.96762384  0.32929636  0.57984877  1
  P  P7  1  0.35958272  0.02983825  0.58188466  1
  P  P8  1  0.67132709  0.63665000  0.58538621  1
  P  P9  1  0.97561703  0.64409508  0.07917085  1
  P  P10  1  0.66816697  0.02769014  0.07956925  1
  P  P11  1  0.36068470  0.33157391  0.08255233  1
  P  P12  1  0.62354258  0.66176110  0.91452189  1
  P  P13  1  0.03620618  0.37450460  0.91665468  1
  P  P14  1  0.33812778  0.96114197  0.91649893  1
  P  P15  1  0.61693865  0.96768388  0.41967765  1
  P  P16  1  0.34650715  0.38922980  0.41728297  1
  P  P17  1  0.03984057  0.65153337  0.42065408  1
  O  O0  1  0.21810789  0.02020407  0.30227014  1
  O  O1  1  0.78734173  0.77360862  0.30310326  1
  O  O2  1  0.99577645  0.21341870  0.31051778  1
  O  O3  1  0.18836785  0.18891582  0.80561943  1
  O  O4  1  0.00135201  0.81997113  0.80503098  1
  O  O5  1  0.81594646  -0.00417262  0.80604249  1
  O  O6  1  0.79909368  0.97457697  0.69871326  1
  O  O7  1  0.18230469  0.20500434  0.69783011  1
  O  O8  1  0.02533010  0.82624656  0.69749379  1
  O  O9  1  0.79266643  0.81172767  0.19540582  1
  O  O10  1  0.02341411  0.19657596  0.20223508  1
  O  O11  1  0.17856045  0.97670203  0.19553566  1
  O  O12  1  0.90034720  0.36552253  0.63387306  1
  O  O13  1  0.45872008  0.09304379  0.63712441  1
  O  O14  1  0.63827114  0.54362250  0.64223603  1
  O  O15  1  0.92377530  0.55088235  0.13575461  1
  O  O16  1  0.62594521  0.07948176  0.13581066  1
  O  O17  1  0.44995357  0.36708310  0.14014600  1
  O  O18  1  0.46862835  0.31039247  0.03459953  1
  O  O19  1  0.84724114  0.53802142  0.03064680  1
  O  O20  1  0.69176486  0.15574550  0.03094386  1
  O  O21  1  0.46023876  0.15191921  0.53143649  1
  O  O22  1  0.68994385  0.53222225  0.53569721  1
  O  O23  1  0.85081930  0.30683772  0.52746752  1
  O  O24  1  0.53317811  0.68622794  0.96504162  1
  O  O25  1  0.14821636  0.46041342  0.96818598  1
  O  O26  1  0.31274034  0.84858448  0.96768138  1
  O  O27  1  0.52132528  0.86098032  0.47135259  1
  O  O28  1  0.34092748  0.49161004  0.46766292  1
  O  O29  1  0.14500273  0.65412477  0.47151569  1
  O  O30  1  0.12907500  0.64102538  0.36474719  1
  O  O31  1  0.51784084  0.87550819  0.36406592  1
  O  O32  1  0.36064677  0.48671496  0.36041040  1
  O  O33  1  0.12547290  0.48654671  0.86285006  1
  O  O34  1  0.36021805  0.87360358  0.86242660  1
  O  O35  1  0.51683426  0.63926761  0.85918162  1
  O  O36  1  0.01622776  0.80425308  0.42381675  1
  O  O37  1  0.79896438  -0.00043568  0.42086415  1
  O  O38  1  0.18193002  0.21684077  0.41905260  1
  O  O39  1  0.01691238  0.19678845  0.91017038  1
  O  O40  1  0.17982585  0.98122463  0.91014380  1
  O  O41  1  0.80381659  0.82051781  0.90959473  1
  O  O42  1  0.97688183  0.16436687  0.58655421  1
  O  O43  1  0.18536658  0.02097260  0.58613674  1
  O  O44  1  0.83628366  0.81302023  0.58789983  1
  O  O45  1  0.98300586  0.81765457  0.08394165  1
  O  O46  1  0.83483461  0.02059299  0.08517321  1
  O  O47  1  0.18349015  0.16671935  0.08598325  1
  O  O48  1  0.68871194  0.14313121  0.75423347  1
  O  O49  1  0.46470478  0.32600638  0.75250314  1
  O  O50  1  0.84475277  0.55153915  0.75184923  1
  O  O51  1  0.64962118  0.51626227  0.24325233  1
  O  O52  1  0.86162683  0.33322498  0.24752496  1
  O  O53  1  0.46992598  0.15091709  0.24236188  1
  O  O54  1  0.63959187  0.50183489  0.92302444  1
  O  O55  1  0.85896210  0.35666434  0.92298814  1
  O  O56  1  0.49778416  0.13955852  0.92319403  1
  O  O57  1  0.63012493  0.14481279  0.42258449  1
  O  O58  1  0.50675989  0.37064632  0.42316026  1
  O  O59  1  0.86338717  0.48256986  0.42298608  1
  O  O60  1  0.33536256  0.48235420  0.06784570  1
  O  O61  1  0.15377225  0.67302903  0.06575658  1
  O  O62  1  0.52056745  0.84859199  0.06579391  1
  O  O63  1  0.32892965  0.84987895  0.57161521  1
  O  O64  1  0.52043331  0.66441923  0.57347894  1
  O  O65  1  0.15071925  0.47866189  0.57115944  1
  O  O66  1  0.30182457  0.82794592  0.25314027  1
  O  O67  1  0.51691455  0.69752816  0.25134104  1
  O  O68  1  0.18392173  0.47516807  0.25389817  1
  O  O69  1  0.29747967  0.47406341  0.75635088  1
  O  O70  1  0.16971879  0.70363107  0.75680023  1
  O  O71  1  0.53392705  0.81970616  0.75680483  1
loop_
_geom_bond_atom_site_label_1
_geom_bond_atom_site_label_2
_geom_bond_distance
_geom_bond_site_symmetry_2
Na0 O51 2.288791 1_555
Na0 O68 2.380185 1_555
Na0 O53 2.513964 1_555
Na0 O17 2.603544 1_555
Na0 O67 2.724753 1_555
Na0 O10 2.841960 1_555
Na0 O0 2.944046 1_555
Na0 O32 2.944092 1_555
Na1 O71 2.344462 1_555
Na1 O50 2.367836 1_555
Na1 O49 2.393625 1_555
Na1 O14 2.649016 1_555
Na1 O69 2.651247 1_555
Na1 O35 2.797804 1_555
Na2 O59 2.348722 1_555
Na2 O37 2.356802 1_555
Na2 O38 2.392474 1_655
Na2 O2 2.637064 1_555
Na2 O57 2.684893 1_555
Na2 O23 2.850999 1_555
Na3 O43 2.491492 1_565
Na3 O44 2.513760 1_455
Na3 O36 2.556265 1_555
Na3 O42 2.622497 1_465
Na3 O37 2.696602 1_465
Na3 O38 2.739189 1_565
Na4 O45 2.466524 1_555
Na4 O46 2.505413 1_565
Na4 O47 2.508290 1_665
Na4 O39 2.780905 1_664
Na4 O41 2.786060 1_554
Na4 O40 2.796554 1_654
Na5 O48 2.579600 1_555
Na5 O56 2.586858 1_555
Na5 O55 2.595789 1_555
Na5 O49 2.703849 1_555
Na5 O54 2.730522 1_555
Na5 O50 2.745475 1_555
Na6 O52 2.599589 1_555
Na6 O51 2.662012 1_555
Na6 O53 2.665930 1_555
Na6 O57 2.705512 1_555
Na6 O59 2.729389 1_555
Na6 O58 2.778439 1_555
Na7 O66 2.565160 1_555
Na7 O67 2.582763 1_555
Na7 O68 2.667427 1_555
Na7 O61 2.816992 1_555
Na7 O62 2.837194 1_555
Na7 O60 2.920579 1_555
Na8 O70 2.637324 1_555
Na8 O69 2.695454 1_555
Na8 O63 2.741299 1_555
Na8 O65 2.749088 1_555
Na8 O71 2.756492 1_555
Na8 O64 2.861192 1_555
La0 O1 2.247383 1_555
La0 O0 2.258533 1_665
La0 O2 2.349420 1_565
La0 O36 2.364712 1_655
La0 O37 2.429649 1_565
La0 O38 2.464505 1_665
La1 O12 2.287304 1_555
La1 O13 2.288822 1_555
La1 O48 2.378604 1_555
La1 O14 2.389845 1_555
La1 O49 2.460572 1_555
La1 O50 2.461864 1_555
La2 O15 2.298601 1_555
La2 O16 2.313709 1_555
La2 O52 2.376132 1_555
La2 O53 2.389709 1_555
La2 O17 2.403221 1_555
La2 O51 2.428378 1_555
O0 P0 1.522548 1_545
O1 P1 1.515180 1_555
O2 P2 1.532729 1_655
O3 P3 1.531959 1_555
O3 Zr0 2.073223 1_555
O4 P4 1.530956 1_555
O4 Zr0 2.070376 1_565
O5 P5 1.531877 1_545
O5 Zr0 2.066188 1_655
O6 P5 1.563239 1_555
O6 Zr1 2.125005 1_665
O7 P3 1.556828 1_555
O7 Zr1 2.101276 1_555
O8 P4 1.556226 1_555
O8 Zr1 2.103645 1_565
O9 P1 1.563833 1_555
O9 Zr2 2.106634 1_555
O10 P2 1.582334 1_555
O10 Zr2 2.156838 1_445
O11 P0 1.567904 1_555
O11 Zr2 2.100717 1_455
O12 P6 1.517625 1_555
O13 P7 1.515787 1_555
O14 P8 1.524826 1_555
O15 P9 1.515703 1_555
O16 P10 1.517290 1_555
O17 P11 1.523041 1_555
O18 P11 1.572318 1_555
O18 Zr3 2.095311 1_554
O19 P9 1.567369 1_555
O19 Zr3 2.088762 1_554
O20 P10 1.566413 1_555
O20 Zr3 2.097411 1_554
O21 P7 1.564801 1_555
O21 Zr4 2.064184 1_555
O22 P8 1.571568 1_555
O22 Zr4 2.081935 1_555
O23 P6 1.567664 1_555
O23 Zr4 2.146967 1_555
O24 P12 1.525261 1_555
O24 Zr5 2.080397 1_556
O25 P13 1.518967 1_555
O25 Zr5 2.084469 1_556
O26 P14 1.517921 1_555
O26 Zr5 2.097352 1_556
O27 P15 1.522371 1_555
O27 Zr6 2.054126 1_555
O28 P16 1.526229 1_555
O28 Zr6 2.048411 1_555
O29 P17 1.520673 1_555
O29 Zr6 2.056642 1_555
O30 P17 1.573465 1_555
O30 Zr7 2.127353 1_555
O31 P15 1.567263 1_555
O31 Zr7 2.094638 1_555
O32 P16 1.569887 1_555
O32 Zr7 2.153316 1_555
O33 P13 1.567461 1_555
O33 Zr8 2.059114 1_555
O34 P14 1.568165 1_555
O34 Zr8 2.069158 1_555
O35 P12 1.569740 1_555
O35 Zr8 2.137586 1_555
O36 P17 1.518964 1_555
O37 P15 1.534552 1_545
O38 P16 1.532288 1_555
O39 P13 1.551499 1_555
O39 Zr0 2.116885 1_555
O40 P14 1.552207 1_555
O40 Zr0 2.110465 1_565
O41 P12 1.553040 1_555
O41 Zr0 2.129813 1_665
O42 P6 1.559964 1_555
O42 Zr1 2.128776 1_655
O43 P7 1.553850 1_555
O43 Zr1 2.138924 1_555
O44 P8 1.554152 1_555
O44 Zr1 2.149174 1_665
O45 P9 1.558454 1_555
O45 Zr2 2.161890 1_555
O46 P10 1.559824 1_555
O46 Zr2 2.144514 1_545
O47 P11 1.558340 1_555
O47 Zr2 2.161926 1_445
O48 P5 1.523362 1_545
O49 P3 1.541536 1_555
O50 P4 1.537944 1_655
O51 P1 1.539972 1_555
O52 P2 1.522309 1_655
O53 P0 1.530290 1_545
O54 P12 1.553761 1_555
O54 Zr3 2.165589 1_555
O55 P13 1.548908 1_655
O55 Zr3 2.177745 1_555
O56 P14 1.550975 1_545
O56 Zr3 2.168251 1_555
O57 P15 1.564025 1_545
O57 Zr4 2.163066 1_555
O58 P16 1.560827 1_555
O58 Zr4 2.122975 1_555
O59 P17 1.570646 1_655
O59 Zr4 2.188828 1_555
O60 P11 1.546485 1_555
O60 Zr5 2.082547 1_555
O61 P9 1.542535 1_455
O61 Zr5 2.073950 1_555
O62 P10 1.539692 1_565
O62 Zr5 2.066999 1_555
O63 P7 1.543027 1_565
O63 Zr6 2.088060 1_555
O64 P8 1.545647 1_555
O64 Zr6 2.080062 1_555
O65 P6 1.546274 1_455
O65 Zr6 2.089891 1_555
O66 P0 1.562106 1_555
O66 Zr7 2.110523 1_555
O67 P1 1.573559 1_555
O67 Zr7 2.135865 1_555
O68 P2 1.581845 1_555
O68 Zr7 2.171760 1_555
O69 P3 1.575281 1_555
O69 Zr8 2.159924 1_555
O70 P4 1.566443 1_555
O70 Zr8 2.125727 1_555
O71 P5 1.577281 1_555
O71 Zr8 2.185854 1_555
