# generated using pymatgen
data_Na6Zr4Al4Si5S7O48
_symmetry_space_group_name_H-M   'P 1'
_cell_length_a   17.61787733
_cell_length_b   8.83029877
_cell_length_c   22.58351568
_cell_angle_alpha   90.10600188
_cell_angle_beta   89.51911702
_cell_angle_gamma   120.28769640
_symmetry_Int_Tables_number   1
_chemical_formula_structural   Na6Zr4Al4Si5S7O48
_chemical_formula_sum   'Na18 Zr12 Al12 Si15 S21 O144'
_cell_volume   3033.66674071
_cell_formula_units_Z   3
loop_
 _symmetry_equiv_pos_site_id
 _symmetry_equiv_pos_as_xyz
  1  'x, y, z'
loop_
 _atom_site_type_symbol
 _atom_site_label
 _atom_site_symmetry_multiplicity
 _atom_site_fract_x
 _atom_site_fract_y
 _atom_site_fract_z
 _atom_site_occupancy
  Na  Na0  1  0.00138095  0.62625112  0.25901594  1
  Na  Na1  1  0.49550638  0.65366472  0.25221495  1
  Na  Na2  1  0.99459343  0.34275095  0.74870262  1
  Na  Na3  1  0.50262128  0.36319360  0.75320918  1
  Na  Na4  1  0.66363115  0.29926139  0.91689701  1
  Na  Na5  1  0.16433065  0.02772698  0.43346716  1
  Na  Na6  1  -0.00020418  0.99201158  0.50251327  1
  Na  Na7  1  0.50940617  0.98978694  0.50173488  1
  Na  Na8  1  0.01032469  0.02545112  0.99662284  1
  Na  Na9  1  0.50418269  0.01855126  0.99643419  1
  Na  Na10  1  0.33025817  0.31879790  0.83075273  1
  Na  Na11  1  0.82588762  0.32386413  0.82574228  1
  Na  Na12  1  0.33527011  0.34248675  0.32939744  1
  Na  Na13  1  0.82608833  0.33648796  0.33208521  1
  Na  Na14  1  0.19279671  0.66089961  0.17287602  1
  Na  Na15  1  0.68034961  0.65418229  0.16617915  1
  Na  Na16  1  0.18226939  0.70917729  0.66771548  1
  Na  Na17  1  0.69060510  0.70220982  0.67742035  1
  Zr  Zr0  1  0.50087330  0.01907926  0.34892587  1
  Zr  Zr1  1  0.00105998  0.98097566  0.84871202  1
  Zr  Zr2  1  0.00208056  0.98654525  0.64996157  1
  Zr  Zr3  1  0.50347130  0.99866920  0.64432305  1
  Zr  Zr4  1  0.99649296  0.00623321  0.13956154  1
  Zr  Zr5  1  0.50097273  0.01848501  0.14903563  1
  Zr  Zr6  1  0.32933329  0.32981348  0.97112944  1
  Zr  Zr7  1  0.83094726  0.33303861  0.47183078  1
  Zr  Zr8  1  0.16605060  0.66467727  0.02171564  1
  Zr  Zr9  1  0.66286220  0.65166561  0.02421988  1
  Zr  Zr10  1  0.16222154  0.67337130  0.52542957  1
  Zr  Zr11  1  0.66643507  0.66618560  0.52326535  1
  Al  Al0  1  0.00094363  0.99448877  0.35166683  1
  Al  Al1  1  0.50277611  0.01552349  0.84977596  1
  Al  Al2  1  0.32222739  0.34298381  0.67621902  1
  Al  Al3  1  0.82143081  0.30899816  0.69909501  1
  Al  Al4  1  0.33168931  0.35146446  0.19253166  1
  Al  Al5  1  0.81895303  0.30465963  0.17399870  1
  Al  Al6  1  0.82567803  0.31156685  0.98306964  1
  Al  Al7  1  0.33533915  0.34752704  0.48996543  1
  Al  Al8  1  0.17243709  0.66564421  0.31863349  1
  Al  Al9  1  0.66337492  0.64385704  0.31460168  1
  Al  Al10  1  0.16498116  0.68580973  0.81345850  1
  Al  Al11  1  0.66818026  0.65248906  0.81073771  1
  Si  Si0  1  0.34600889  0.70459986  0.25305609  1
  Si  Si1  1  0.50111747  0.32006479  0.24746883  1
  Si  Si2  1  0.64545228  0.29418168  0.75326002  1
  Si  Si3  1  0.00313406  0.68439212  0.74634596  1
  Si  Si4  1  0.84716985  0.98934852  0.75397062  1
  Si  Si5  1  0.19120010  0.06124999  0.58151665  1
  Si  Si6  1  0.69882850  0.05663424  0.58745077  1
  Si  Si7  1  0.33431230  0.62335695  0.58082911  1
  Si  Si8  1  0.83030840  0.04877859  0.08045248  1
  Si  Si9  1  0.19801570  0.34227554  0.08728947  1
  Si  Si10  1  0.68963775  0.32343858  0.08021042  1
  Si  Si11  1  0.52390430  0.37472860  0.90867432  1
  Si  Si12  1  0.16148023  0.95079618  0.91599292  1
  Si  Si13  1  0.66253993  0.37246475  0.41522704  1
  Si  Si14  1  0.02625272  0.67468602  0.40632296  1
  S  S0  1  0.14557428  0.00217435  0.25164807  1
  S  S1  1  0.65914565  0.01184100  0.25120432  1
  S  S2  1  0.85288495  0.70799729  0.25376256  1
  S  S3  1  0.99879935  0.28443323  0.25571044  1
  S  S4  1  0.15913482  0.30795292  0.75187453  1
  S  S5  1  0.49528230  0.70503787  0.75517885  1
  S  S6  1  0.35070860  0.99549414  0.75295250  1
  S  S7  1  0.46946854  0.33412517  0.58612938  1
  S  S8  1  0.97294012  0.32432291  0.58578635  1
  S  S9  1  0.83430546  0.61808357  0.58474942  1
  S  S10  1  0.47277774  0.61774986  0.08770942  1
  S  S11  1  0.96911099  0.60076478  0.08747454  1
  S  S12  1  0.33203282  0.05207548  0.08618218  1
  S  S13  1  0.31306368  0.68207926  0.90753942  1
  S  S14  1  0.81268986  0.65735547  0.91777907  1
  S  S15  1  0.01318463  0.37381833  0.91576079  1
  S  S16  1  0.66625848  0.95746969  0.91437637  1
  S  S17  1  0.31160911  0.96102066  0.41611232  1
  S  S18  1  0.81282060  0.94470188  0.40758527  1
  S  S19  1  0.16430301  0.37076823  0.41146936  1
  S  S20  1  0.51547028  0.65389878  0.41526400  1
  O  O0  1  0.10375229  0.02774429  0.30594743  1
  O  O1  1  0.61926046  0.04404374  0.30477315  1
  O  O2  1  0.41654081  0.79347130  0.30782322  1
  O  O3  1  0.91341911  0.80653179  0.30324412  1
  O  O4  1  0.48560637  0.19004766  0.30413421  1
  O  O5  1  0.98962093  0.17033880  0.30661148  1
  O  O6  1  0.11922815  0.19559042  0.80525812  1
  O  O7  1  0.59853793  0.17031378  0.81173801  1
  O  O8  1  0.48073346  0.79116151  0.80698916  1
  O  O9  1  0.98841764  0.78220251  0.80390401  1
  O  O10  1  0.41004058  0.01784804  0.80290075  1
  O  O11  1  0.91852745  0.03754067  0.80820885  1
  O  O12  1  0.38326336  0.96518373  0.69634831  1
  O  O13  1  0.89845220  0.96158039  0.69632312  1
  O  O14  1  0.09938668  0.23095060  0.70015866  1
  O  O15  1  0.57333914  0.19892623  0.69906134  1
  O  O16  1  0.02951328  0.82597472  0.69146304  1
  O  O17  1  0.50084733  0.80161391  0.69959208  1
  O  O18  1  0.39679700  0.83060450  0.19535391  1
  O  O19  1  0.88926070  0.80392334  0.19746183  1
  O  O20  1  0.00383428  0.19893292  0.19996304  1
  O  O21  1  0.52590508  0.23200068  0.19186226  1
  O  O22  1  0.08627595  0.97020498  0.20072981  1
  O  O23  1  0.59904805  0.96905197  0.19984325  1
  O  O24  1  0.42831251  0.34845261  0.64202661  1
  O  O25  1  0.93434840  0.34125269  0.64081827  1
  O  O26  1  0.24766424  0.15025656  0.64061468  1
  O  O27  1  0.75587381  0.16062926  0.64319042  1
  O  O28  1  0.32966602  0.52297669  0.64203611  1
  O  O29  1  0.83164108  0.52393294  0.63751547  1
  O  O30  1  0.43260210  0.52180457  0.14338669  1
  O  O31  1  0.92802666  0.50570208  0.14431786  1
  O  O32  1  0.32993596  0.14311028  0.13942259  1
  O  O33  1  0.83083863  0.14044832  0.14300041  1
  O  O34  1  0.25267089  0.34764593  0.14412462  1
  O  O35  1  0.74499601  0.34804034  0.14016363  1
  O  O36  1  0.23799045  0.32948971  0.02367043  1
  O  O37  1  0.73645161  0.31705160  0.01849312  1
  O  O38  1  0.42376548  0.52707359  0.03428074  1
  O  O39  1  0.91766707  0.51794169  0.03430028  1
  O  O40  1  0.33830916  0.14431752  0.03021554  1
  O  O41  1  0.84613534  0.16435792  0.02157375  1
  O  O42  1  0.23950765  0.16058336  0.51880074  1
  O  O43  1  0.74046919  0.14993831  0.52346901  1
  O  O44  1  0.34890145  0.53729662  0.52109828  1
  O  O45  1  0.84068183  0.53889914  0.52819248  1
  O  O46  1  0.41933773  0.32032069  0.53218338  1
  O  O47  1  0.92572331  0.31970545  0.53128057  1
  O  O48  1  0.27430535  0.70051165  0.96468818  1
  O  O49  1  0.77460221  0.68053440  0.97335162  1
  O  O50  1  0.07055754  0.46467509  0.96857814  1
  O  O51  1  0.58554676  0.46038319  0.96748334  1
  O  O52  1  0.15971688  0.85043332  0.97788521  1
  O  O53  1  0.65783297  0.86006559  0.96945618  1
  O  O54  1  0.27363576  0.86438241  0.47193874  1
  O  O55  1  0.77519269  0.84927638  0.46428726  1
  O  O56  1  0.15109052  0.44550205  0.46601949  1
  O  O57  1  0.65942549  0.47054535  0.47613894  1
  O  O58  1  0.08959388  0.71678187  0.46400804  1
  O  O59  1  0.57197934  0.67823513  0.46754316  1
  O  O60  1  0.07541030  0.65155247  0.34813278  1
  O  O61  1  0.55970665  0.64737989  0.35935554  1
  O  O62  1  0.25553349  0.86670952  0.36470101  1
  O  O63  1  0.75441299  0.85106512  0.35752564  1
  O  O64  1  0.17836254  0.48515255  0.35953301  1
  O  O65  1  0.66560396  0.48321653  0.35757111  1
  O  O66  1  0.05778777  0.46859188  0.86036784  1
  O  O67  1  0.57432238  0.49995690  0.85256149  1
  O  O68  1  0.16446881  0.84302777  0.85954325  1
  O  O69  1  0.68016625  0.87634102  0.86213641  1
  O  O70  1  0.25411196  0.65753652  0.85789446  1
  O  O71  1  0.75649092  0.63235977  0.86627836  1
  O  O72  1  0.01621194  0.85188518  0.40039002  1
  O  O73  1  0.50208188  0.80574622  0.41337545  1
  O  O74  1  0.39923446  0.97696530  0.41114782  1
  O  O75  1  0.90123180  0.96327743  0.40059648  1
  O  O76  1  0.08341430  0.19267565  0.40336641  1
  O  O77  1  0.57753000  0.17312783  0.41645282  1
  O  O78  1  0.00016266  0.19511593  0.91516452  1
  O  O79  1  0.50949564  0.17450974  0.90511307  1
  O  O80  1  0.07731372  0.98057095  0.91732030  1
  O  O81  1  0.58521508  0.97384468  0.91029400  1
  O  O82  1  0.40111149  0.83878190  0.90107927  1
  O  O83  1  0.90054879  0.81688316  0.91258013  1
  O  O84  1  0.47873473  0.17739126  0.58736671  1
  O  O85  1  0.98147269  0.16521316  0.58534000  1
  O  O86  1  0.09425930  0.04539868  0.58328595  1
  O  O87  1  0.59922788  0.03167971  0.58992350  1
  O  O88  1  0.41541107  0.82656403  0.58509279  1
  O  O89  1  0.91304649  0.80051228  0.58377866  1
  O  O90  1  0.48127290  0.79319788  0.08863360  1
  O  O91  1  0.98136474  0.78018710  0.09170588  1
  O  O92  1  0.41101762  0.02848428  0.08571301  1
  O  O93  1  0.91432447  0.01314177  0.08454495  1
  O  O94  1  0.09827653  0.16556347  0.09129834  1
  O  O95  1  0.59283055  0.14305592  0.08373732  1
  O  O96  1  0.34653159  0.15970878  0.75017725  1
  O  O97  1  0.84241414  0.16569889  0.74571032  1
  O  O98  1  0.24519560  0.31731497  0.74222881  1
  O  O99  1  0.74131316  0.31937341  0.74497702  1
  O  O100  1  0.41932089  0.51993051  0.75036548  1
  O  O101  1  0.91673918  0.49824331  0.73531185  1
  O  O102  1  0.33699625  0.51265909  0.24539362  1
  O  O103  1  0.84783779  0.53487471  0.25158480  1
  O  O104  1  0.41256235  0.33013772  0.23834378  1
  O  O105  1  0.92229105  0.31119102  0.25451565  1
  O  O106  1  0.23335364  0.15962438  0.24536090  1
  O  O107  1  0.74542477  0.17590876  0.24150587  1
  O  O108  1  0.32223147  0.52322386  0.91069434  1
  O  O109  1  0.82246232  0.49847900  0.92105949  1
  O  O110  1  0.43032267  0.36737946  0.91726413  1
  O  O111  1  0.92857016  0.37242762  0.92257078  1
  O  O112  1  0.25024391  0.14599506  0.91509830  1
  O  O113  1  0.74474037  0.14483268  0.91906713  1
  O  O114  1  0.32034604  0.13752352  0.41725193  1
  O  O115  1  0.82379877  0.12292364  0.41012850  1
  O  O116  1  0.24126358  0.34372092  0.41496285  1
  O  O117  1  0.75104797  0.35522181  0.41501920  1
  O  O118  1  0.43004033  0.48436069  0.42149491  1
  O  O119  1  0.93169869  0.49684259  0.41442324  1
  O  O120  1  0.18556427  0.51518585  0.08311584  1
  O  O121  1  0.67448617  0.49306387  0.08015484  1
  O  O122  1  0.05760939  0.61715819  0.08382864  1
  O  O123  1  0.56175052  0.63595927  0.08447660  1
  O  O124  1  0.25154653  0.87226018  0.08557546  1
  O  O125  1  0.74166595  0.85737534  0.07755697  1
  O  O126  1  0.17491380  0.85962762  0.57964884  1
  O  O127  1  0.68636879  0.85806887  0.58139417  1
  O  O128  1  0.24238528  0.62692697  0.57463942  1
  O  O129  1  0.75369715  0.63657061  0.58331086  1
  O  O130  1  0.06331527  0.48376007  0.58128707  1
  O  O131  1  0.55823352  0.49544697  0.58216765  1
  O  O132  1  0.15356047  0.84299556  0.25590035  1
  O  O133  1  0.67154029  0.86072815  0.26095552  1
  O  O134  1  0.25172749  0.69303591  0.26400756  1
  O  O135  1  0.76446219  0.68746719  0.26138839  1
  O  O136  1  0.08049375  0.45768243  0.25833129  1
  O  O137  1  0.58470457  0.52031298  0.25700394  1
  O  O138  1  0.17166010  0.48441685  0.76163496  1
  O  O139  1  0.65233623  0.48709676  0.75696504  1
  O  O140  1  0.08655037  0.65199688  0.75637739  1
  O  O141  1  0.57710240  0.69822879  0.75917334  1
  O  O142  1  0.26128894  0.84051201  0.76202415  1
  O  O143  1  0.75281323  0.82019169  0.76659497  1
loop_
_geom_bond_atom_site_label_1
_geom_bond_atom_site_label_2
_geom_bond_distance
_geom_bond_site_symmetry_2
Na0 O60 2.355818 1_555
Na0 O132 2.382777 1_555
Na0 O105 2.404778 1_455
Na0 O103 2.408792 1_455
Na0 O136 2.500168 1_555
Na0 O31 2.858536 1_455
Na0 O3 2.896559 1_455
Na0 O22 2.931551 1_555
Na1 O137 2.395353 1_555
Na1 O102 2.423203 1_555
Na1 O104 2.487666 1_555
Na1 O2 2.594991 1_555
Na1 O61 2.691965 1_555
Na1 O133 2.699918 1_555
Na1 O23 2.708155 1_555
Na1 O30 2.712541 1_555
Na2 O97 2.326289 1_555
Na2 O140 2.377424 1_655
Na2 O101 2.401295 1_555
Na2 O25 2.663068 1_555
Na2 O11 2.684303 1_555
Na2 O14 2.717641 1_655
Na2 O138 2.731183 1_655
Na2 O66 2.760911 1_655
Na3 O139 2.292157 1_555
Na3 O96 2.411262 1_555
Na3 O100 2.474708 1_555
Na3 O141 2.564798 1_555
Na3 O67 2.566560 1_555
Na3 O15 2.634849 1_555
Na3 O24 2.813808 1_555
Na3 O10 2.860771 1_555
Na4 O79 2.377422 1_555
Na4 O113 2.422989 1_555
Na4 O109 2.443815 1_555
Na4 O81 2.487077 1_545
Na4 O37 2.603779 1_556
Na4 O7 2.640114 1_555
Na4 O51 2.676509 1_555
Na4 O71 2.786048 1_555
Na5 O42 2.304673 1_555
Na5 O72 2.391652 1_545
Na5 O114 2.434252 1_555
Na5 O116 2.444912 1_555
Na5 O58 2.468510 1_545
Na5 O76 2.594276 1_555
Na6 O86 2.361315 1_565
Na6 O89 2.433311 1_455
Na6 O85 2.533667 1_465
Na6 O72 2.696840 1_555
Na6 O76 2.765819 1_565
Na6 O75 2.828041 1_455
Na7 O77 2.404920 1_565
Na7 O88 2.431816 1_555
Na7 O87 2.463180 1_565
Na7 O73 2.533850 1_555
Na7 O84 2.765813 1_565
Na7 O74 2.794564 1_555
Na8 O80 2.278387 1_545
Na8 O78 2.438667 1_555
Na8 O93 2.563970 1_456
Na8 O94 2.572027 1_556
Na8 O83 2.681513 1_445
Na8 O91 2.906196 1_446
Na9 O95 2.418025 1_556
Na9 O79 2.456801 1_555
Na9 O81 2.548988 1_545
Na9 O92 2.618394 1_556
Na9 O82 2.756826 1_545
Na9 O90 2.765742 1_546
Na10 O112 2.395805 1_555
Na10 O96 2.398947 1_555
Na10 O100 2.462789 1_555
Na10 O98 2.504629 1_555
Na10 O110 2.529994 1_555
Na10 O108 2.603654 1_555
Na11 O99 2.352517 1_555
Na11 O97 2.386234 1_555
Na11 O101 2.564068 1_555
Na11 O113 2.582076 1_555
Na11 O109 2.663489 1_555
Na11 O111 2.742034 1_555
Na12 O102 2.412764 1_555
Na12 O104 2.489287 1_555
Na12 O116 2.538022 1_555
Na12 O106 2.560177 1_555
Na12 O118 2.573305 1_555
Na12 O114 2.608803 1_555
Na13 O117 2.336875 1_555
Na13 O103 2.417383 1_555
Na13 O107 2.494023 1_555
Na13 O119 2.513057 1_555
Na13 O105 2.514344 1_555
Na13 O115 2.568805 1_555
Na14 O134 2.265091 1_555
Na14 O120 2.368601 1_555
Na14 O124 2.544112 1_555
Na14 O136 2.688240 1_555
Na14 O132 2.768970 1_555
Na15 O121 2.377796 1_555
Na15 O137 2.527001 1_555
Na15 O125 2.532552 1_555
Na15 O135 2.552914 1_555
Na15 O123 2.742395 1_555
Na15 O133 2.863094 1_555
Na16 O126 2.434146 1_555
Na16 O140 2.489208 1_555
Na16 O142 2.496256 1_555
Na16 O128 2.607769 1_555
Na16 O130 2.830267 1_555
Na16 O138 2.847365 1_555
Na17 O143 2.284689 1_555
Na17 O139 2.447500 1_555
Na17 O129 2.587304 1_555
Na17 O127 2.592288 1_555
Na17 O141 2.697409 1_555
Al0 O72 1.794586 1_555
Al0 O3 1.941227 1_455
Al0 O5 1.951417 1_465
Al0 O75 1.965503 1_455
Al0 O0 1.966271 1_565
Al0 O76 1.998258 1_565
Al1 O7 1.762535 1_555
Al1 O79 1.837132 1_555
Al1 O10 1.962988 1_555
Al1 O82 2.034309 1_545
Al1 O8 2.057363 1_545
Al1 O81 2.164988 1_545
Al2 O28 1.712313 1_555
Al2 O26 1.739566 1_555
Al2 O98 1.942289 1_555
Al2 O24 1.994145 1_555
Al2 O100 2.348148 1_555
Al2 O96 2.512601 1_555
Al3 O27 1.770998 1_555
Al3 O99 1.783237 1_555
Al3 O97 1.824666 1_555
Al3 O101 1.862428 1_555
Al3 O25 2.270841 1_555
Al3 O29 2.286858 1_555
Al4 O34 1.764180 1_555
Al4 O102 1.822451 1_555
Al4 O104 1.852583 1_555
Al4 O30 1.982610 1_555
Al4 O106 2.075331 1_555
Al4 O32 2.181649 1_555
Al5 O33 1.713644 1_555
Al5 O35 1.717434 1_555
Al5 O107 1.944894 1_555
Al5 O31 1.958395 1_555
Al5 O103 2.533754 1_555
Al6 O41 1.748651 1_556
Al6 O37 1.780165 1_556
Al6 O113 2.049212 1_555
Al6 O39 2.081028 1_556
Al6 O111 2.102390 1_555
Al6 O109 2.189217 1_555
Al7 O44 1.718738 1_555
Al7 O42 1.781535 1_555
Al7 O46 1.881468 1_555
Al7 O118 2.136548 1_555
Al7 O116 2.368101 1_555
Al7 O114 2.388945 1_555
Al8 O60 1.774263 1_555
Al8 O134 1.778525 1_555
Al8 O64 1.891854 1_555
Al8 O62 1.942883 1_555
Al8 O136 2.208630 1_555
Al8 O132 2.260920 1_555
Al9 O65 1.737036 1_555
Al9 O137 1.817405 1_555
Al9 O63 1.979746 1_555
Al9 O135 2.009539 1_555
Al9 O61 2.093915 1_555
Al9 O133 2.209890 1_555
Al10 O68 1.737158 1_555
Al10 O140 1.809021 1_555
Al10 O142 1.931089 1_555
Al10 O70 1.989481 1_555
Al10 O66 2.165179 1_555
Al10 O138 2.178809 1_555
Al11 O143 1.778565 1_555
Al11 O67 1.781162 1_555
Al11 O139 1.809281 1_555
Al11 O71 2.082801 1_555
Al11 O141 2.186496 1_555
Al11 O69 2.207672 1_555
O0 S0 1.499745 1_555
O1 S1 1.491374 1_555
O1 Zr0 2.212520 1_555
O2 Si0 1.651756 1_555
O2 Zr0 2.017080 1_565
O3 S2 1.491170 1_555
O4 Si1 1.647280 1_555
O4 Zr0 1.947972 1_555
O5 S3 1.483045 1_555
O6 S4 1.489550 1_555
O6 Zr1 2.209438 1_545
O7 Si2 1.642783 1_555
O8 S5 1.483708 1_555
O9 Si3 1.648909 1_655
O9 Zr1 1.938373 1_655
O10 S6 1.488242 1_545
O11 Si4 1.657169 1_545
O11 Zr1 1.989227 1_645
O12 S6 1.475116 1_555
O12 Zr3 2.298007 1_555
O13 Si4 1.665486 1_555
O13 Zr2 2.010185 1_655
O14 S4 1.493375 1_555
O14 Zr2 2.274502 1_545
O15 Si2 1.662577 1_555
O15 Zr3 1.998045 1_545
O16 Si3 1.650833 1_555
O16 Zr2 1.956059 1_555
O17 S5 1.493426 1_555
O17 Zr3 2.124568 1_555
O18 Si0 1.648732 1_555
O18 Zr5 2.029272 1_565
O19 S2 1.479049 1_555
O19 Zr4 2.243480 1_565
O20 S3 1.491662 1_455
O20 Zr4 2.131958 1_455
O21 Si1 1.643826 1_555
O21 Zr5 1.961671 1_555
O22 S0 1.488253 1_565
O22 Zr4 2.248869 1_465
O23 S1 1.491532 1_565
O23 Zr5 2.299692 1_565
O24 S7 1.487235 1_555
O25 S8 1.454943 1_555
O26 Si5 1.618129 1_555
O27 Si6 1.588694 1_555
O28 Si7 1.622498 1_555
O29 S9 1.441100 1_555
O30 S10 1.477813 1_555
O31 S11 1.500673 1_555
O32 S12 1.455629 1_555
O33 Si8 1.624499 1_555
O34 Si9 1.597301 1_555
O35 Si10 1.624484 1_555
O36 Si9 1.623450 1_555
O36 Zr6 1.990224 1_554
O37 Si10 1.628927 1_555
O38 S10 1.469405 1_555
O38 Zr6 2.223398 1_554
O39 S11 1.464513 1_555
O40 S12 1.477767 1_555
O40 Zr6 2.182075 1_554
O41 Si8 1.612201 1_555
O42 Si5 1.652607 1_555
O43 Si6 1.637613 1_555
O43 Zr7 1.972599 1_555
O44 Si7 1.628066 1_555
O45 S9 1.485405 1_555
O45 Zr7 2.152816 1_555
O46 S7 1.479205 1_555
O47 S8 1.480418 1_555
O47 Zr7 2.200223 1_555
O48 S13 1.501665 1_555
O48 Zr8 2.178941 1_556
O49 S14 1.480101 1_555
O49 Zr9 2.171885 1_556
O50 S15 1.512233 1_555
O50 Zr8 2.102035 1_556
O51 Si11 1.645396 1_555
O51 Zr9 2.012638 1_556
O52 Si12 1.648075 1_555
O52 Zr8 1.968566 1_556
O53 S16 1.476879 1_555
O53 Zr9 2.258010 1_556
O54 S17 1.476228 1_555
O54 Zr10 2.187538 1_555
O55 S18 1.488472 1_555
O55 Zr11 2.213523 1_555
O56 S19 1.467811 1_555
O56 Zr10 2.341742 1_555
O57 Si13 1.639407 1_555
O57 Zr11 1.978034 1_555
O58 Si14 1.638534 1_555
O58 Zr10 2.057855 1_555
O59 S20 1.494743 1_555
O59 Zr11 2.139721 1_555
O60 Si14 1.636181 1_555
O61 S20 1.494440 1_555
O62 S17 1.484378 1_555
O63 S18 1.475964 1_555
O64 S19 1.484724 1_555
O65 Si13 1.614007 1_555
O66 S15 1.485537 1_555
O67 Si11 1.616535 1_555
O68 Si12 1.605767 1_555
O69 S16 1.460880 1_555
O70 S13 1.474540 1_555
O71 S14 1.476380 1_555
O72 Si14 1.666725 1_555
O73 S20 1.474707 1_555
O73 Zr0 2.391388 1_565
O74 S17 1.481059 1_555
O74 Zr0 2.146468 1_565
O75 S18 1.488706 1_555
O76 S19 1.510035 1_555
O77 Si13 1.637839 1_555
O77 Zr0 2.042980 1_555
O78 S15 1.475700 1_555
O78 Zr1 2.418116 1_545
O79 Si11 1.656448 1_555
O80 Si12 1.631350 1_555
O80 Zr1 2.060415 1_555
O81 S16 1.509492 1_555
O82 S13 1.474486 1_555
O83 S14 1.480630 1_555
O83 Zr1 2.166198 1_655
O84 S7 1.473441 1_555
O84 Zr3 2.246267 1_545
O85 S8 1.486489 1_555
O85 Zr2 2.312124 1_645
O86 Si5 1.641896 1_555
O86 Zr2 2.070101 1_545
O87 Si6 1.655053 1_555
O87 Zr3 1.977582 1_545
O88 Si7 1.638939 1_555
O88 Zr3 2.038349 1_555
O89 S9 1.505136 1_555
O89 Zr2 2.196386 1_655
O90 S10 1.479555 1_555
O90 Zr5 2.289146 1_565
O91 S11 1.490198 1_555
O91 Zr4 2.164144 1_565
O92 S12 1.507332 1_555
O92 Zr5 2.178105 1_555
O93 Si8 1.664558 1_555
O93 Zr4 1.939754 1_555
O94 Si9 1.662202 1_555
O94 Zr4 1.952202 1_455
O95 Si10 1.646293 1_555
O95 Zr5 2.043030 1_555
O96 S6 1.489994 1_545
O97 Si4 1.612364 1_545
O98 S4 1.490390 1_555
O99 Si2 1.597699 1_555
O100 S5 1.506609 1_555
O101 Si3 1.600612 1_655
O102 Si0 1.629645 1_555
O103 S2 1.486608 1_555
O104 Si1 1.621696 1_555
O105 S3 1.481658 1_555
O106 S0 1.474125 1_555
O107 S1 1.493894 1_555
O108 S13 1.492629 1_555
O108 Zr6 2.241048 1_555
O109 S14 1.499191 1_555
O110 Si11 1.626912 1_555
O110 Zr6 2.031080 1_555
O111 S15 1.491229 1_655
O112 Si12 1.642455 1_545
O112 Zr6 1.979406 1_555
O113 S16 1.534485 1_545
O114 S17 1.487089 1_545
O115 S18 1.486683 1_545
O115 Zr7 2.271054 1_555
O116 S19 1.493383 1_555
O117 Si13 1.641358 1_555
O117 Zr7 1.993827 1_555
O118 S20 1.500252 1_555
O119 Si14 1.622299 1_655
O119 Zr7 2.074191 1_555
O120 Si9 1.651365 1_555
O120 Zr8 2.063012 1_555
O121 Si10 1.648668 1_555
O121 Zr9 1.974645 1_555
O122 S11 1.492958 1_455
O122 Zr8 2.223132 1_555
O123 S10 1.494043 1_555
O123 Zr9 2.180625 1_555
O124 S12 1.503745 1_565
O124 Zr8 2.224940 1_555
O125 Si8 1.624392 1_565
O125 Zr9 2.038184 1_555
O126 Si5 1.654849 1_565
O126 Zr10 1.969904 1_555
O127 Si6 1.659113 1_565
O127 Zr11 2.029012 1_555
O128 Si7 1.642809 1_555
O128 Zr10 2.002540 1_555
O129 S9 1.509690 1_555
O129 Zr11 2.170847 1_555
O130 S8 1.504759 1_455
O130 Zr10 2.111646 1_555
O131 S7 1.494634 1_555
O131 Zr11 2.177687 1_555
O132 S0 1.484901 1_565
O133 S1 1.473952 1_565
O134 Si0 1.628728 1_555
O135 S2 1.483266 1_555
O136 S3 1.481739 1_455
O137 Si1 1.648951 1_555
O138 S4 1.475828 1_555
O139 Si2 1.647684 1_555
O140 Si3 1.650093 1_555
O141 S5 1.476243 1_555
O142 S6 1.489170 1_555
O143 Si4 1.601520 1_555
