# generated using pymatgen
data_Na7Hf3Ta(SiO4)6
_symmetry_space_group_name_H-M   'P 1'
_cell_length_a   9.16462482
_cell_length_b   9.16318110
_cell_length_c   22.81635165
_cell_angle_alpha   90.05448821
_cell_angle_beta   89.91956033
_cell_angle_gamma   120.06472758
_symmetry_Int_Tables_number   1
_chemical_formula_structural   Na7Hf3Ta(SiO4)6
_chemical_formula_sum   'Na21 Hf9 Ta3 Si18 O72'
_cell_volume   1658.26416280
_cell_formula_units_Z   3
loop_
 _symmetry_equiv_pos_site_id
 _symmetry_equiv_pos_as_xyz
  1  'x, y, z'
loop_
 _atom_site_type_symbol
 _atom_site_label
 _atom_site_symmetry_multiplicity
 _atom_site_fract_x
 _atom_site_fract_y
 _atom_site_fract_z
 _atom_site_occupancy
  Na  Na0  1  0.36969433  0.36522816  0.24939708  1
  Na  Na1  1  0.63779631  0.63469012  0.74981943  1
  Na  Na2  1  0.99699784  0.36278736  0.74965507  1
  Na  Na3  1  0.36525959  0.00288525  0.74973051  1
  Na  Na4  1  0.30077022  0.33356855  0.58281133  1
  Na  Na5  1  0.03268693  0.69913320  0.58278137  1
  Na  Na6  1  0.66646334  0.96720054  0.58277382  1
  Na  Na7  1  0.30565711  0.96950880  0.08330660  1
  Na  Na8  1  0.66387663  0.69530053  0.08332128  1
  Na  Na9  1  0.03088112  0.33599379  0.08292571  1
  Na  Na10  1  0.96414221  0.66556281  0.91793000  1
  Na  Na11  1  0.70285417  0.03452858  0.91800759  1
  Na  Na12  1  0.96683867  0.29868721  0.41546055  1
  Na  Na13  1  0.33200807  0.03391492  0.41577297  1
  Na  Na14  1  0.70124517  0.66758133  0.41542898  1
  Na  Na15  1  0.00014887  0.00011451  0.49892688  1
  Na  Na16  1  0.00682485  0.00656033  0.99836844  1
  Na  Na17  1  0.66040801  0.33293014  0.83588443  1
  Na  Na18  1  0.67286301  0.33318240  0.32946979  1
  Na  Na19  1  0.33292352  0.67225057  0.16757596  1
  Na  Na20  1  0.33325250  0.66672458  0.66509858  1
  Hf  Hf0  1  0.99886644  0.99941035  0.35045328  1
  Hf  Hf1  1  0.00475050  0.00433570  0.85328446  1
  Hf  Hf2  1  0.00017961  0.00011400  0.64876636  1
  Hf  Hf3  1  0.66696170  0.33349446  0.68479860  1
  Hf  Hf4  1  0.67133474  0.33297033  0.18741923  1
  Hf  Hf5  1  0.66149999  0.33278864  0.98070622  1
  Hf  Hf6  1  0.66655997  0.33341194  0.48016133  1
  Hf  Hf7  1  0.33301949  0.66555140  0.01860411  1
  Hf  Hf8  1  0.33316648  0.66658083  0.51772304  1
  Ta  Ta0  1  0.99917834  0.99887474  0.14948986  1
  Ta  Ta1  1  0.33322741  0.67038185  0.31098505  1
  Ta  Ta2  1  0.33399112  0.66636012  0.81569055  1
  Si  Si0  1  0.29149744  0.99784205  0.25035841  1
  Si  Si1  1  0.70709010  0.70772304  0.25076169  1
  Si  Si2  1  0.99860840  0.29260316  0.25093876  1
  Si  Si3  1  0.29324952  0.29469417  0.75001435  1
  Si  Si4  1  0.00145861  0.70737770  0.75095758  1
  Si  Si5  1  0.70586369  0.99867835  0.75083570  1
  Si  Si6  1  0.96004427  0.33309603  0.58312993  1
  Si  Si7  1  0.37315175  0.03982612  0.58323738  1
  Si  Si8  1  0.66664632  0.62687703  0.58322988  1
  Si  Si9  1  0.95802197  0.62644579  0.08333598  1
  Si  Si10  1  0.66841187  0.04260993  0.08336658  1
  Si  Si11  1  0.37367673  0.33168111  0.08516921  1
  Si  Si12  1  0.62433187  0.66411483  0.91662260  1
  Si  Si13  1  0.04185526  0.37359328  0.91711939  1
  Si  Si14  1  0.33346578  0.95957816  0.91691714  1
  Si  Si15  1  0.62378892  0.95634323  0.41593523  1
  Si  Si16  1  0.33266349  0.37645177  0.41541048  1
  Si  Si17  1  0.04382590  0.66739356  0.41583498  1
  O  O0  1  0.20518854  0.03067108  0.30777116  1
  O  O1  1  0.82141053  0.79552729  0.30854272  1
  O  O2  1  0.97602528  0.17919454  0.30876662  1
  O  O3  1  0.20258341  0.16812838  0.80480218  1
  O  O4  1  0.96616788  0.79330798  0.80761547  1
  O  O5  1  0.82648595  0.03269124  0.80746247  1
  O  O6  1  0.78818313  0.96085691  0.69280288  1
  O  O7  1  0.17381468  0.21393429  0.69178525  1
  O  O8  1  0.03923962  0.82753722  0.69292139  1
  O  O9  1  0.80362871  0.83135271  0.19297853  1
  O  O10  1  0.03223302  0.19785805  0.19351657  1
  O  O11  1  0.16804427  0.97177302  0.19264909  1
  O  O12  1  0.87393420  0.36685747  0.64101886  1
  O  O13  1  0.49302881  0.12618917  0.64103367  1
  O  O14  1  0.63318967  0.50692136  0.64100412  1
  O  O15  1  0.86836196  0.50131379  0.13820294  1
  O  O16  1  0.63141654  0.13132606  0.13825294  1
  O  O17  1  0.49227691  0.36770640  0.14220019  1
  O  O18  1  0.45955415  0.29254605  0.02843911  1
  O  O19  1  0.83937904  0.54626508  0.02463670  1
  O  O20  1  0.70753640  0.16129307  0.02453334  1
  O  O21  1  0.46032951  0.16124969  0.52584480  1
  O  O22  1  0.70101639  0.53970184  0.52583649  1
  O  O23  1  0.83855089  0.29902539  0.52584410  1
  O  O24  1  0.53913030  0.70061473  0.97347884  1
  O  O25  1  0.15708334  0.46289243  0.97462824  1
  O  O26  1  0.30071714  0.83897995  0.97387034  1
  O  O27  1  0.54068250  0.83992524  0.47456389  1
  O  O28  1  0.29962547  0.46041791  0.47396400  1
  O  O29  1  0.16028626  0.70083354  0.47444592  1
  O  O30  1  0.14332392  0.63673836  0.36089173  1
  O  O31  1  0.49395339  0.85634809  0.36102282  1
  O  O32  1  0.36333380  0.50176419  0.35899129  1
  O  O33  1  0.13938534  0.49928509  0.85951535  1
  O  O34  1  0.36022186  0.86090783  0.85921118  1
  O  O35  1  0.50277663  0.64271657  0.85886392  1
  O  O36  1  0.02472042  0.83510420  0.41039531  1
  O  O37  1  0.81082747  0.97595676  0.41068490  1
  O  O38  1  0.16500366  0.18862119  0.41075387  1
  O  O39  1  0.01461573  0.18499586  0.91038081  1
  O  O40  1  0.16016946  0.96546148  0.90968462  1
  O  O41  1  0.80878529  0.83494131  0.90936782  1
  O  O42  1  0.97671055  0.16343367  0.58922366  1
  O  O43  1  0.18664166  0.02288437  0.58926268  1
  O  O44  1  0.83654611  0.81344856  0.58927581  1
  O  O45  1  0.97735293  0.81645471  0.09181362  1
  O  O46  1  0.83895335  0.02329861  0.09223012  1
  O  O47  1  0.18296033  0.16091327  0.09203652  1
  O  O48  1  0.68432159  0.16508612  0.74444184  1
  O  O49  1  0.48116080  0.31619892  0.74427553  1
  O  O50  1  0.83485126  0.51928016  0.74441939  1
  O  O51  1  0.67685970  0.51856514  0.24344523  1
  O  O52  1  0.83519078  0.31305481  0.24380140  1
  O  O53  1  0.47160451  0.16948332  0.24285246  1
  O  O54  1  0.64882251  0.50018728  0.92010018  1
  O  O55  1  0.85789213  0.36302229  0.92013146  1
  O  O56  1  0.50997228  0.13887048  0.92023369  1
  O  O57  1  0.63852006  0.14194169  0.42082055  1
  O  O58  1  0.50343413  0.36114641  0.42096890  1
  O  O59  1  0.85808539  0.49639529  0.42084822  1
  O  O60  1  0.35089097  0.49760603  0.07765970  1
  O  O61  1  0.14750858  0.65043830  0.07772687  1
  O  O62  1  0.50264213  0.85307943  0.07739387  1
  O  O63  1  0.35555689  0.85318280  0.57822331  1
  O  O64  1  0.49756445  0.64432623  0.57821249  1
  O  O65  1  0.14680696  0.50240589  0.57820864  1
  O  O66  1  0.30599572  0.82678388  0.25758988  1
  O  O67  1  0.51755107  0.68815029  0.25749880  1
  O  O68  1  0.17777841  0.47508608  0.25735794  1
  O  O69  1  0.31088763  0.48301658  0.75819184  1
  O  O70  1  0.17215398  0.68907980  0.75827606  1
  O  O71  1  0.51654850  0.82784241  0.75793219  1
loop_
_geom_bond_atom_site_label_1
_geom_bond_atom_site_label_2
_geom_bond_distance
_geom_bond_site_symmetry_2
Na0 O53 2.406105 1_555
Na0 O68 2.431582 1_555
Na0 O51 2.439960 1_555
Na0 O67 2.570644 1_555
Na0 O17 2.685436 1_555
Na0 O32 2.808571 1_555
Na0 O10 2.966051 1_555
Na0 O0 2.969191 1_555
Na1 O50 2.511496 1_555
Na1 O71 2.524054 1_555
Na1 O49 2.529019 1_555
Na1 O69 2.602103 1_555
Na1 O14 2.735299 1_555
Na1 O35 2.794442 1_555
Na1 O6 2.898191 1_555
Na1 O4 2.921113 1_555
Na2 O48 2.511295 1_555
Na2 O69 2.520460 1_655
Na2 O50 2.532720 1_555
Na2 O70 2.597260 1_655
Na2 O12 2.732660 1_555
Na2 O33 2.813930 1_655
Na2 O7 2.904280 1_655
Na2 O5 2.931974 1_555
Na3 O49 2.516136 1_555
Na3 O70 2.517852 1_545
Na3 O48 2.533514 1_555
Na3 O71 2.599924 1_545
Na3 O13 2.733133 1_555
Na3 O34 2.807146 1_545
Na3 O3 2.889144 1_555
Na3 O8 2.895818 1_545
Na4 O64 2.495306 1_555
Na4 O43 2.497426 1_555
Na4 O65 2.565820 1_555
Na4 O42 2.575307 1_455
Na4 O7 2.730692 1_555
Na4 O28 2.745305 1_555
Na4 O21 2.936863 1_555
Na4 O14 2.953966 1_555
Na5 O44 2.497194 1_455
Na5 O65 2.498523 1_555
Na5 O63 2.563855 1_555
Na5 O43 2.572773 1_565
Na5 O29 2.729713 1_555
Na5 O8 2.761722 1_555
Na5 O22 2.935970 1_455
Na5 O12 2.952361 1_455
Na6 O42 2.493456 1_565
Na6 O63 2.497792 1_555
Na6 O64 2.563443 1_555
Na6 O44 2.576425 1_555
Na6 O27 2.727670 1_555
Na6 O6 2.761029 1_555
Na6 O23 2.935410 1_565
Na6 O13 2.954025 1_565
Na7 O62 2.518788 1_555
Na7 O47 2.520897 1_565
Na7 O61 2.533556 1_555
Na7 O45 2.613097 1_455
Na7 O26 2.758202 1_554
Na7 O11 2.798620 1_555
Na7 O18 2.852609 1_565
Na7 O16 2.873127 1_565
Na8 O60 2.514012 1_555
Na8 O45 2.515762 1_555
Na8 O62 2.536415 1_555
Na8 O46 2.610899 1_565
Na8 O24 2.766679 1_554
Na8 O9 2.803160 1_555
Na8 O19 2.904494 1_555
Na8 O17 2.925834 1_555
Na9 O46 2.509816 1_455
Na9 O61 2.524490 1_555
Na9 O60 2.540936 1_555
Na9 O47 2.607933 1_555
Na9 O25 2.728615 1_554
Na9 O10 2.826858 1_555
Na9 O15 2.890614 1_455
Na9 O20 2.893610 1_455
Na10 O40 2.422398 1_655
Na10 O55 2.435443 1_555
Na10 O54 2.502348 1_555
Na10 O41 2.586435 1_555
Na10 O19 2.678581 1_556
Na10 O4 2.772977 1_555
Na10 O26 2.960552 1_655
Na10 O33 3.019788 1_655
Na11 O56 2.394681 1_555
Na11 O41 2.470586 1_545
Na11 O39 2.479257 1_655
Na11 O55 2.606966 1_555
Na11 O20 2.683939 1_556
Na11 O5 2.767082 1_555
Na11 O24 2.935502 1_545
Na11 O34 3.032039 1_545
Na12 O59 2.469595 1_555
Na12 O38 2.482224 1_655
Na12 O37 2.562177 1_545
Na12 O57 2.607803 1_555
Na12 O2 2.686787 1_555
Na12 O23 2.778618 1_555
Na12 O30 2.956894 1_655
Na12 O28 2.959514 1_655
Na13 O57 2.469536 1_555
Na13 O36 2.474835 1_545
Na13 O38 2.557336 1_555
Na13 O58 2.598656 1_555
Na13 O0 2.719802 1_555
Na13 O21 2.771210 1_555
Na13 O29 2.961972 1_545
Na13 O31 2.970040 1_545
Na14 O58 2.467095 1_555
Na14 O37 2.482299 1_555
Na14 O36 2.568614 1_655
Na14 O59 2.608037 1_555
Na14 O1 2.690553 1_555
Na14 O22 2.778860 1_555
Na14 O27 2.966213 1_555
Na14 O32 2.974905 1_555
Na15 O38 2.587820 1_555
Na15 O37 2.595609 1_445
Na15 O36 2.598317 1_545
Na15 O42 2.616353 1_455
Na15 O44 2.617568 1_445
Na15 O43 2.620062 1_555
Na16 O39 2.568579 1_555
Na16 O40 2.594607 1_545
Na16 O47 2.624875 1_556
Na16 O41 2.652399 1_445
Na16 O45 2.680895 1_446
Na16 O46 2.683908 1_456
Na17 O54 2.491822 1_555
Na17 O56 2.511837 1_555
Na17 O55 2.560327 1_555
Na17 O49 2.616796 1_555
Na17 O50 2.662508 1_555
Na17 O48 2.663977 1_555
Na18 O52 2.516717 1_555
Na18 O51 2.585181 1_555
Na18 O53 2.605812 1_555
Na18 O59 2.631617 1_555
Na18 O57 2.639437 1_555
Na18 O58 2.687680 1_555
Na19 O66 2.574341 1_555
Na19 O61 2.607441 1_555
Na19 O62 2.610337 1_555
Na19 O67 2.618383 1_555
Na19 O68 2.628125 1_555
Na19 O60 2.655901 1_555
Na20 O64 2.557390 1_555
Na20 O65 2.557955 1_555
Na20 O63 2.558384 1_555
Na20 O71 2.647090 1_555
Na20 O70 2.652334 1_555
Na20 O69 2.654644 1_555
Hf0 O1 2.001565 1_555
Hf0 O2 2.002862 1_565
Hf0 O0 2.014565 1_665
Hf0 O37 2.127771 1_555
Hf0 O36 2.134390 1_655
Hf0 O38 2.138582 1_665
Hf1 O3 2.008603 1_555
Hf1 O5 2.064039 1_455
Hf1 O4 2.064474 1_445
Hf1 O39 2.071707 1_555
Hf1 O40 2.079912 1_545
Hf1 O41 2.115742 1_445
Hf2 O6 2.051491 1_445
Hf2 O7 2.052130 1_555
Hf2 O8 2.053050 1_545
Hf2 O43 2.108015 1_555
Hf2 O44 2.109075 1_445
Hf2 O42 2.111565 1_455
Hf3 O12 2.025695 1_555
Hf3 O13 2.028150 1_555
Hf3 O14 2.028875 1_555
Hf3 O49 2.118899 1_555
Hf3 O50 2.119676 1_555
Hf3 O48 2.123470 1_555
Hf4 O15 2.026757 1_555
Hf4 O16 2.031305 1_555
Hf4 O52 2.055166 1_555
Hf4 O17 2.094607 1_555
Hf4 O51 2.106793 1_555
Hf4 O53 2.108087 1_555
Hf5 O18 2.014622 1_556
Hf5 O19 2.072290 1_556
Hf5 O20 2.077467 1_556
Hf5 O54 2.112243 1_555
Hf5 O56 2.125541 1_555
Hf5 O55 2.172688 1_555
Hf6 O21 2.038987 1_555
Hf6 O22 2.039118 1_555
Hf6 O23 2.042810 1_555
Hf6 O58 2.123809 1_555
Hf6 O59 2.124481 1_555
Hf6 O57 2.126523 1_555
Hf7 O25 2.013935 1_554
Hf7 O24 2.029391 1_554
Hf7 O26 2.032269 1_554
Hf7 O60 2.113709 1_555
Hf7 O61 2.118341 1_555
Hf7 O62 2.119807 1_555
Hf8 O28 2.018789 1_555
Hf8 O27 2.020036 1_555
Hf8 O29 2.021639 1_555
Hf8 O65 2.123119 1_555
Hf8 O63 2.125089 1_555
Hf8 O64 2.128518 1_555
O0 Si0 1.633056 1_545
O1 Si1 1.624909 1_555
O2 Si2 1.627868 1_555
O3 Si3 1.622462 1_555
O4 Si4 1.627203 1_655
O5 Si5 1.626811 1_545
O6 Si5 1.643409 1_555
O7 Si3 1.643611 1_555
O8 Si4 1.644727 1_555
O9 Si1 1.673203 1_555
O9 Ta0 1.947867 1_555
O10 Si2 1.682250 1_455
O10 Ta0 1.967051 1_445
O11 Si0 1.674415 1_555
O11 Ta0 1.953521 1_455
O12 Si6 1.644369 1_555
O13 Si7 1.644134 1_555
O14 Si8 1.644318 1_555
O15 Si9 1.616445 1_555
O16 Si10 1.617745 1_555
O17 Si11 1.620880 1_555
O18 Si11 1.643917 1_555
O19 Si9 1.648510 1_555
O20 Si10 1.650426 1_555
O21 Si7 1.643223 1_555
O22 Si8 1.643494 1_555
O23 Si6 1.643358 1_555
O24 Si12 1.631696 1_555
O25 Si13 1.625580 1_555
O26 Si14 1.633761 1_555
O27 Si15 1.641118 1_555
O28 Si16 1.642805 1_555
O29 Si17 1.642236 1_555
O30 Si17 1.653688 1_555
O30 Ta1 1.969300 1_555
O31 Si15 1.653713 1_555
O31 Ta1 1.965444 1_555
O32 Si16 1.653181 1_555
O32 Ta1 2.023446 1_555
O33 Si13 1.679571 1_555
O33 Ta2 1.945919 1_555
O34 Si14 1.682287 1_555
O34 Ta2 1.946704 1_555
O35 Si12 1.673601 1_555
O35 Ta2 1.936623 1_555
O36 Si17 1.636378 1_555
O37 Si15 1.635761 1_555
O38 Si16 1.638559 1_555
O39 Si13 1.624750 1_555
O40 Si14 1.624513 1_555
O41 Si12 1.638190 1_555
O42 Si6 1.642553 1_555
O43 Si7 1.642619 1_555
O44 Si8 1.642920 1_555
O45 Si9 1.670503 1_555
O45 Ta0 2.056062 1_555
O46 Si10 1.671252 1_555
O46 Ta0 2.061150 1_545
O47 Si11 1.669550 1_555
O47 Ta0 2.061947 1_445
O48 Si5 1.639354 1_545
O49 Si3 1.637416 1_555
O50 Si4 1.639405 1_655
O51 Si1 1.620908 1_555
O52 Si2 1.608286 1_555
O53 Si0 1.620519 1_545
O54 Si12 1.628204 1_555
O55 Si13 1.640915 1_655
O56 Si14 1.630594 1_545
O57 Si15 1.640905 1_545
O58 Si16 1.644884 1_555
O59 Si17 1.641098 1_655
O60 Si11 1.644169 1_555
O61 Si9 1.642346 1_455
O62 Si10 1.642945 1_565
O63 Si7 1.639328 1_565
O64 Si8 1.639702 1_555
O65 Si6 1.639600 1_455
O66 Si0 1.646501 1_555
O66 Ta1 1.990711 1_555
O67 Si1 1.661417 1_555
O67 Ta1 2.021978 1_555
O68 Si2 1.662187 1_455
O68 Ta1 2.043392 1_555
O69 Si3 1.660943 1_555
O69 Ta2 2.056344 1_555
O70 Si4 1.663372 1_555
O70 Ta2 2.067505 1_555
O71 Si5 1.662930 1_555
O71 Ta2 2.059706 1_555
