# generated using pymatgen
data_ErAsSe
_symmetry_space_group_name_H-M   'P 1'
_cell_length_a   3.88639300
_cell_length_b   3.89998600
_cell_length_c   8.73310900
_cell_angle_alpha   90.00000000
_cell_angle_beta   90.00000000
_cell_angle_gamma   90.00000000
_symmetry_Int_Tables_number   1
_chemical_formula_structural   ErAsSe
_chemical_formula_sum   'Er2 As2 Se2'
_cell_volume   132.36667021
_cell_formula_units_Z   2
loop_
 _symmetry_equiv_pos_site_id
 _symmetry_equiv_pos_as_xyz
  1  'x, y, z'
loop_
 _atom_site_type_symbol
 _atom_site_label
 _atom_site_symmetry_multiplicity
 _atom_site_fract_x
 _atom_site_fract_y
 _atom_site_fract_z
 _atom_site_occupancy
  Er  Er0  1  0.75000000  0.25000000  0.72193400  1
  Er  Er1  1  0.25000000  0.75000000  0.27806600  1
  As  As0  1  0.25000000  0.25000000  0.00165000  1
  As  As1  1  0.75000000  0.75000000  0.99835000  1
  Se  Se0  1  0.75000000  0.25000000  0.37564800  1
  Se  Se1  1  0.25000000  0.75000000  0.62435200  1
loop_
_geom_bond_atom_site_label_1
_geom_bond_atom_site_label_2
_geom_bond_distance
_geom_bond_site_symmetry_2
Er0 Se1 2.881791 1_555
Er0 Se1 2.881791 1_655
Er0 Se1 2.881791 1_545
Er0 Se1 2.881791 1_645
Er0 Se0 3.024153 1_555
Er1 Se0 2.881791 1_455
Er1 Se0 2.881791 1_555
Er1 Se0 2.881791 1_565
Er1 Se0 2.881791 1_465
Er1 Se1 3.024153 1_555
As0 As1 2.753056 1_444
As0 As1 2.753056 1_454
As0 As1 2.753056 1_544
As0 As1 2.753056 1_554
As0 Er1 3.103180 1_555
As0 Er1 3.103180 1_545
As0 Er0 3.121416 1_454
As0 Er0 3.121416 1_554
As1 Er0 3.103180 1_565
As1 Er0 3.103180 1_555
As1 Er1 3.121416 1_556
As1 Er1 3.121416 1_656
