# generated using pymatgen
data_RbClO4
_symmetry_space_group_name_H-M   'P 1'
_cell_length_a   5.75550407
_cell_length_b   7.45068550
_cell_length_c   9.20562458
_cell_angle_alpha   90.00000000
_cell_angle_beta   90.00000000
_cell_angle_gamma   90.00000000
_symmetry_Int_Tables_number   1
_chemical_formula_structural   RbClO4
_chemical_formula_sum   'Rb4 Cl4 O16'
_cell_volume   394.75974239
_cell_formula_units_Z   4
loop_
 _symmetry_equiv_pos_site_id
 _symmetry_equiv_pos_as_xyz
  1  'x, y, z'
loop_
 _atom_site_type_symbol
 _atom_site_label
 _atom_site_symmetry_multiplicity
 _atom_site_fract_x
 _atom_site_fract_y
 _atom_site_fract_z
 _atom_site_occupancy
  Rb  Rb0  1  0.25000000  0.33833951  0.68316590  1
  Rb  Rb1  1  0.75000000  0.66166049  0.31683410  1
  Rb  Rb2  1  0.75000000  0.83833951  0.81683410  1
  Rb  Rb3  1  0.25000000  0.16166049  0.18316590  1
  Cl  Cl0  1  0.25000000  0.80823258  0.56615038  1
  Cl  Cl1  1  0.75000000  0.19176742  0.43384962  1
  Cl  Cl2  1  0.75000000  0.30823258  0.93384962  1
  Cl  Cl3  1  0.25000000  0.69176742  0.06615038  1
  O  O0  1  0.54534871  0.30434144  0.42104850  1
  O  O1  1  0.04534871  0.69565856  0.57895150  1
  O  O2  1  0.45465129  0.80434144  0.07895150  1
  O  O3  1  0.95465129  0.19565856  0.92104850  1
  O  O4  1  0.45465129  0.69565856  0.57895150  1
  O  O5  1  0.95465129  0.30434144  0.42104850  1
  O  O6  1  0.54534871  0.19565856  0.92104850  1
  O  O7  1  0.04534871  0.80434144  0.07895150  1
  O  O8  1  0.25000000  0.60374949  0.92706804  1
  O  O9  1  0.75000000  0.39625051  0.07293196  1
  O  O10  1  0.75000000  0.10374949  0.57293196  1
  O  O11  1  0.25000000  0.89625051  0.42706804  1
  O  O12  1  0.25000000  0.56145591  0.18230555  1
  O  O13  1  0.75000000  0.43854409  0.81769445  1
  O  O14  1  0.75000000  0.06145591  0.31769445  1
  O  O15  1  0.25000000  0.93854409  0.68230555  1
loop_
_geom_bond_atom_site_label_1
_geom_bond_atom_site_label_2
_geom_bond_distance
_geom_bond_site_symmetry_2
Cl0 O11 1.438519 1_555
Cl0 O15 1.444309 1_555
Cl0 O4 1.450784 1_555
Cl0 O1 1.450784 1_555
Cl1 O10 1.438519 1_555
Cl1 O14 1.444309 1_555
Cl1 O0 1.450784 1_555
Cl1 O5 1.450784 1_555
Cl2 O9 1.438519 1_556
Cl2 O13 1.444309 1_555
Cl2 O3 1.450784 1_555
Cl2 O6 1.450784 1_555
Cl3 O8 1.438519 1_554
Cl3 O12 1.444309 1_555
Cl3 O2 1.450784 1_555
Cl3 O7 1.450784 1_555
O0 Rb0 2.962450 1_555
O0 Rb3 2.969039 1_555
O0 Rb1 3.065198 1_555
O1 Rb1 2.962450 1_455
O1 Rb2 2.969039 1_455
O1 Rb0 3.065198 1_555
O2 Rb2 2.962450 1_554
O2 Rb1 2.969039 1_555
O2 Rb3 3.065198 1_565
O3 Rb3 2.962450 1_656
O3 Rb0 2.969039 1_655
O3 Rb2 3.065198 1_545
O4 Rb1 2.962450 1_555
O4 Rb2 2.969039 1_555
O4 Rb0 3.065198 1_555
O5 Rb0 2.962450 1_655
O5 Rb3 2.969039 1_655
O5 Rb1 3.065198 1_555
O6 Rb3 2.962450 1_556
O6 Rb0 2.969039 1_555
O6 Rb2 3.065198 1_545
O7 Rb2 2.962450 1_454
O7 Rb1 2.969039 1_455
O7 Rb3 3.065198 1_565
O8 Rb0 2.991939 1_555
O9 Rb1 2.991939 1_555
O10 Rb2 2.991939 1_545
O11 Rb3 2.991939 1_565
O12 Rb3 2.978760 1_555
O12 Rb1 3.220643 1_455
O12 Rb1 3.220643 1_555
O13 Rb2 2.978760 1_555
O13 Rb0 3.220643 1_655
O13 Rb0 3.220643 1_555
O14 Rb1 2.978760 1_545
O14 Rb3 3.220643 1_655
O14 Rb3 3.220643 1_555
O15 Rb0 2.978760 1_565
O15 Rb2 3.220643 1_555
O15 Rb2 3.220643 1_455
