# generated using pymatgen
data_Cd2H3ClO3
_symmetry_space_group_name_H-M   'P 1'
_cell_length_a   6.92518400
_cell_length_b   7.59971000
_cell_length_c   10.04201800
_cell_angle_alpha   90.00000000
_cell_angle_beta   90.00000000
_cell_angle_gamma   90.00000000
_symmetry_Int_Tables_number   1
_chemical_formula_structural   Cd2H3ClO3
_chemical_formula_sum   'Cd8 H12 Cl4 O12'
_cell_volume   528.50528268
_cell_formula_units_Z   4
loop_
 _symmetry_equiv_pos_site_id
 _symmetry_equiv_pos_as_xyz
  1  'x, y, z'
loop_
 _atom_site_type_symbol
 _atom_site_label
 _atom_site_symmetry_multiplicity
 _atom_site_fract_x
 _atom_site_fract_y
 _atom_site_fract_z
 _atom_site_occupancy
  Cd  Cd0  1  0.30914900  0.75000000  0.76241000  1
  Cd  Cd1  1  0.80914900  0.75000000  0.73759000  1
  Cd  Cd2  1  0.69085100  0.25000000  0.23759000  1
  Cd  Cd3  1  0.19085100  0.25000000  0.26241000  1
  Cd  Cd4  1  0.50000000  0.00000000  0.50000000  1
  Cd  Cd5  1  0.00000000  0.50000000  0.00000000  1
  Cd  Cd6  1  0.50000000  0.50000000  0.50000000  1
  Cd  Cd7  1  0.00000000  0.00000000  0.00000000  1
  H  H0  1  0.92656800  0.95390500  0.27959100  1
  H  H1  1  0.42656800  0.54609500  0.22040900  1
  H  H2  1  0.07343200  0.45390500  0.72040900  1
  H  H3  1  0.57343200  0.04609500  0.77959100  1
  H  H4  1  0.07343200  0.04609500  0.72040900  1
  H  H5  1  0.57343200  0.45390500  0.77959100  1
  H  H6  1  0.92656800  0.54609500  0.27959100  1
  H  H7  1  0.42656800  0.95390500  0.22040900  1
  H  H8  1  0.19230500  0.75000000  0.48690300  1
  H  H9  1  0.69230500  0.75000000  0.01309700  1
  H  H10  1  0.80769500  0.25000000  0.51309700  1
  H  H11  1  0.30769500  0.25000000  0.98690300  1
  Cl  Cl0  1  0.18986800  0.25000000  0.53860600  1
  Cl  Cl1  1  0.68986800  0.25000000  0.96139400  1
  Cl  Cl2  1  0.81013200  0.75000000  0.46139400  1
  Cl  Cl3  1  0.31013200  0.75000000  0.03860600  1
  O  O0  1  0.17890100  0.25000000  0.02650600  1
  O  O1  1  0.67890100  0.25000000  0.47349400  1
  O  O2  1  0.82109900  0.75000000  0.97349400  1
  O  O3  1  0.32109900  0.75000000  0.52650600  1
  O  O4  1  0.44329100  0.05394800  0.28048700  1
  O  O5  1  0.94329100  0.44605200  0.21951300  1
  O  O6  1  0.55670900  0.55394800  0.71951300  1
  O  O7  1  0.05670900  0.94605200  0.78048700  1
  O  O8  1  0.55670900  0.94605200  0.71951300  1
  O  O9  1  0.05670900  0.55394800  0.78048700  1
  O  O10  1  0.44329100  0.44605200  0.28048700  1
  O  O11  1  0.94329100  0.05394800  0.21951300  1
loop_
_geom_bond_atom_site_label_1
_geom_bond_atom_site_label_2
_geom_bond_distance
_geom_bond_site_symmetry_2
Cd0 O7 2.304137 1_555
Cd0 O9 2.304137 1_555
Cd0 O6 2.311849 1_555
Cd0 O8 2.311849 1_555
Cd0 O3 2.370397 1_555
Cd0 Cl3 2.773574 1_556
Cd1 O6 2.304137 1_555
Cd1 O8 2.304137 1_555
Cd1 O9 2.311849 1_655
Cd1 O7 2.311849 1_655
Cd1 O2 2.370397 1_555
Cd1 Cl2 2.773574 1_555
Cd2 O11 2.304137 1_555
Cd2 O5 2.304137 1_555
Cd2 O10 2.311849 1_555
Cd2 O4 2.311849 1_555
Cd2 O1 2.370397 1_555
Cd2 Cl1 2.773574 1_554
Cd3 O10 2.304137 1_555
Cd3 O4 2.304137 1_555
Cd3 O11 2.311849 1_455
Cd3 O5 2.311849 1_455
Cd3 O0 2.370397 1_555
Cd3 Cl0 2.773574 1_555
Cd4 O8 2.276290 1_545
Cd4 O4 2.276290 1_555
Cd4 O3 2.283747 1_545
Cd4 O1 2.283747 1_555
Cd4 Cl2 2.893567 1_545
Cd4 Cl0 2.893567 1_555
Cd5 O9 2.276290 1_554
Cd5 O5 2.276290 1_455
Cd5 O2 2.283747 1_454
Cd5 O0 2.283747 1_555
Cd5 Cl3 2.893567 1_555
Cd5 Cl1 2.893567 1_454
Cd6 O6 2.276290 1_555
Cd6 O10 2.276290 1_555
Cd6 O3 2.283747 1_555
Cd6 O1 2.283747 1_555
Cd6 Cl2 2.893567 1_555
Cd6 Cl0 2.893567 1_555
Cd7 O7 2.276290 1_544
Cd7 O11 2.276290 1_455
Cd7 O2 2.283747 1_444
Cd7 O0 2.283747 1_555
Cd7 Cl3 2.893567 1_545
Cd7 Cl1 2.893567 1_454
H0 O11 0.977467 1_565
H1 O10 0.977467 1_555
H2 O9 0.977467 1_555
H3 O8 0.977467 1_545
H4 O7 0.977467 1_545
H5 O6 0.977467 1_555
H6 O5 0.977467 1_555
H7 O4 0.977467 1_565
H8 O3 0.976568 1_555
H9 O2 0.976568 1_554
H10 O1 0.976568 1_555
H11 O0 0.976568 1_556
