# generated using pymatgen
data_MgFeCo5O12
_symmetry_space_group_name_H-M   'P 1'
_cell_length_a   5.00817413
_cell_length_b   4.95756839
_cell_length_c   9.86042474
_cell_angle_alpha   94.19038830
_cell_angle_beta   98.31789340
_cell_angle_gamma   59.66175712
_symmetry_Int_Tables_number   1
_chemical_formula_structural   MgFeCo5O12
_chemical_formula_sum   'Mg1 Fe1 Co5 O12'
_cell_volume   209.06982356
_cell_formula_units_Z   1
loop_
 _symmetry_equiv_pos_site_id
 _symmetry_equiv_pos_as_xyz
  1  'x, y, z'
loop_
 _atom_site_type_symbol
 _atom_site_label
 _atom_site_symmetry_multiplicity
 _atom_site_fract_x
 _atom_site_fract_y
 _atom_site_fract_z
 _atom_site_occupancy
  Mg  Mg0  1  0.90795600  0.00000000  0.75276500  1
  Fe  Fe0  1  0.99893700  0.00000000  0.04326800  1
  Co  Co0  1  0.17831600  0.66909000  0.49651400  1
  Co  Co1  1  0.64992500  0.66570000  0.98865100  1
  Co  Co2  1  0.31562500  0.33430000  0.98865100  1
  Co  Co3  1  0.84740800  0.33091000  0.49651400  1
  Co  Co4  1  0.51131100  0.00000000  0.49483100  1
  O  O0  1  0.01372800  0.62351500  0.09634200  1
  O  O1  1  0.27976200  0.67501300  0.89420300  1
  O  O2  1  0.14610800  0.33648600  0.40468000  1
  O  O3  1  0.48259500  0.66351400  0.40468000  1
  O  O4  1  0.55339900  0.32220800  0.59830100  1
  O  O5  1  0.17523000  0.00000000  0.60777800  1
  O  O6  1  0.87560900  0.67779200  0.59830100  1
  O  O7  1  0.63724300  0.37648500  0.09634200  1
  O  O8  1  0.38703900  0.00000000  0.09610900  1
  O  O9  1  0.95477600  0.32498700  0.89420300  1
  O  O10  1  0.63416500  0.00000000  0.89499500  1
  O  O11  1  0.84836600  0.00000000  0.39537400  1
loop_
_geom_bond_atom_site_label_1
_geom_bond_atom_site_label_2
_geom_bond_distance
_geom_bond_site_symmetry_2
Mg0 O5 2.095055 1_655
Mg0 O10 2.098433 1_555
Mg0 O1 2.134111 1_645
Mg0 O9 2.134113 1_555
Mg0 O6 2.175334 1_545
Mg0 O4 2.175337 1_555
Fe0 O0 1.937746 1_645
Fe0 O7 1.937747 1_555
Fe0 O8 1.938135 1_655
Fe0 O1 2.167302 1_644
Fe0 O9 2.167304 1_554
Fe0 O10 2.168438 1_554
Co0 O11 1.854775 1_465
Co0 O3 1.869756 1_555
Co0 O2 1.890266 1_555
Co0 O5 1.900375 1_565
Co0 O6 1.917113 1_455
Co0 O4 1.984120 1_555
Co1 O7 1.876546 1_556
Co1 O8 1.882954 1_566
Co1 O0 1.891749 1_656
Co1 O9 1.904649 1_555
Co1 O10 1.917339 1_565
Co1 O1 1.930406 1_555
Co2 O0 1.876547 1_556
Co2 O8 1.882954 1_556
Co2 O7 1.891749 1_556
Co2 O1 1.904647 1_555
Co2 O10 1.917340 1_555
Co2 O9 1.930402 1_455
Co3 O11 1.854779 1_555
Co3 O2 1.869743 1_655
Co3 O3 1.890268 1_555
Co3 O5 1.900371 1_655
Co3 O4 1.917130 1_555
Co3 O6 1.984120 1_555
Co4 O3 1.892687 1_545
Co4 O2 1.892689 1_555
Co4 O4 1.917468 1_555
Co4 O6 1.917473 1_545
Co4 O11 2.071271 1_555
Co4 O5 2.148418 1_555
