# generated using pymatgen
data_Er6Fe23
_symmetry_space_group_name_H-M   'P 1'
_cell_length_a   8.45317731
_cell_length_b   8.45317731
_cell_length_c   8.45317731
_cell_angle_alpha   60.00000000
_cell_angle_beta   60.00000000
_cell_angle_gamma   60.00000000
_symmetry_Int_Tables_number   1
_chemical_formula_structural   Er6Fe23
_chemical_formula_sum   'Er6 Fe23'
_cell_volume   427.11511268
_cell_formula_units_Z   1
loop_
 _symmetry_equiv_pos_site_id
 _symmetry_equiv_pos_as_xyz
  1  'x, y, z'
loop_
 _atom_site_type_symbol
 _atom_site_label
 _atom_site_symmetry_multiplicity
 _atom_site_fract_x
 _atom_site_fract_y
 _atom_site_fract_z
 _atom_site_occupancy
  Er  Er0  1  0.79046200  0.20953800  0.79046200  1
  Er  Er1  1  0.20953800  0.20953800  0.79046200  1
  Er  Er2  1  0.79046200  0.79046200  0.20953800  1
  Er  Er3  1  0.79046200  0.20953800  0.20953800  1
  Er  Er4  1  0.20953800  0.79046200  0.79046200  1
  Er  Er5  1  0.20953800  0.79046200  0.20953800  1
  Fe  Fe0  1  0.82477000  0.82477000  0.82477000  1
  Fe  Fe1  1  0.47431000  0.17523000  0.17523000  1
  Fe  Fe2  1  0.17523000  0.17523000  0.47431000  1
  Fe  Fe3  1  0.17523000  0.47431000  0.17523000  1
  Fe  Fe4  1  0.82477000  0.82477000  0.52569000  1
  Fe  Fe5  1  0.82477000  0.52569000  0.82477000  1
  Fe  Fe6  1  0.50000000  0.50000000  0.50000000  1
  Fe  Fe7  1  0.00000000  0.50000000  0.00000000  1
  Fe  Fe8  1  0.50000000  0.00000000  0.00000000  1
  Fe  Fe9  1  0.00000000  0.50000000  0.50000000  1
  Fe  Fe10  1  0.50000000  0.00000000  0.50000000  1
  Fe  Fe11  1  0.00000000  0.00000000  0.50000000  1
  Fe  Fe12  1  0.50000000  0.50000000  0.00000000  1
  Fe  Fe13  1  0.37850700  0.37850700  0.37850700  1
  Fe  Fe14  1  0.13552200  0.62149300  0.62149200  1
  Fe  Fe15  1  0.62149200  0.13552200  0.62149200  1
  Fe  Fe16  1  0.62149300  0.62149300  0.13552200  1
  Fe  Fe17  1  0.37850800  0.86447800  0.37850700  1
  Fe  Fe18  1  0.37850800  0.37850700  0.86447700  1
  Fe  Fe19  1  0.86447700  0.37850800  0.37850700  1
  Fe  Fe20  1  0.62149300  0.62149300  0.62149200  1
  Fe  Fe21  1  0.17523000  0.17523000  0.17523000  1
  Fe  Fe22  1  0.52569000  0.82477000  0.82477000  1
loop_
_geom_bond_atom_site_label_1
_geom_bond_atom_site_label_2
_geom_bond_distance
_geom_bond_site_symmetry_2
Er0 Fe18 2.880821 1_555
Er0 Fe20 2.880827 1_555
Er0 Fe19 2.880828 1_555
Er0 Fe15 2.880834 1_555
Er0 Fe0 2.990756 1_545
Er0 Fe2 2.990756 1_655
Er0 Fe1 2.990756 1_556
Er0 Fe5 2.990756 1_555
Er0 Fe12 3.027540 1_556
Er0 Fe11 3.027540 1_655
Er0 Fe9 3.027540 1_655
Er0 Fe8 3.027540 1_556
Er0 Er2 3.542524 1_546
Er0 Er1 3.542524 1_655
Er0 Er3 3.542524 1_556
Er0 Er4 3.542524 1_645
Er1 Fe15 2.880819 1_555
Er1 Fe18 2.880821 1_555
Er1 Fe13 2.880825 1_555
Er1 Fe14 2.880827 1_555
Er1 Fe2 2.990756 1_555
Er1 Fe22 2.990756 1_545
Er1 Fe5 2.990756 1_455
Er1 Fe21 2.990756 1_556
Er1 Fe9 3.027540 1_555
Er1 Fe10 3.027540 1_555
Er1 Fe7 3.027540 1_556
Er1 Fe8 3.027540 1_556
Er1 Er3 3.542524 1_456
Er1 Er5 3.542524 1_546
Er1 Er4 3.542524 1_545
Er2 Fe20 2.880819 1_555
Er2 Fe16 2.880819 1_555
Er2 Fe17 2.880819 1_555
Er2 Fe19 2.880821 1_555
Er2 Fe0 2.990756 1_554
Er2 Fe3 2.990756 1_655
Er2 Fe1 2.990756 1_565
Er2 Fe4 2.990756 1_555
Er2 Fe8 3.027540 1_565
Er2 Fe9 3.027540 1_655
Er2 Fe10 3.027540 1_565
Er2 Fe7 3.027540 1_655
Er2 Er3 3.542524 1_565
Er2 Er4 3.542524 1_654
Er2 Er5 3.542524 1_655
Er3 Fe15 2.880819 1_555
Er3 Fe19 2.880821 1_555
Er3 Fe13 2.880825 1_555
Er3 Fe16 2.880827 1_555
Er3 Fe5 2.990756 1_554
Er3 Fe4 2.990756 1_545
Er3 Fe1 2.990756 1_555
Er3 Fe21 2.990756 1_655
Er3 Fe10 3.027540 1_555
Er3 Fe11 3.027540 1_655
Er3 Fe12 3.027540 1_555
Er3 Fe7 3.027540 1_655
Er3 Er5 3.542524 1_645
Er4 Fe17 2.880827 1_555
Er4 Fe20 2.880827 1_555
Er4 Fe14 2.880827 1_555
Er4 Fe18 2.880828 1_555
Er4 Fe0 2.990756 1_455
Er4 Fe2 2.990756 1_565
Er4 Fe3 2.990756 1_556
Er4 Fe22 2.990756 1_555
Er4 Fe12 3.027540 1_556
Er4 Fe11 3.027540 1_565
Er4 Fe7 3.027540 1_556
Er4 Fe10 3.027540 1_565
Er4 Er5 3.542524 1_556
Er5 Fe14 2.880819 1_555
Er5 Fe13 2.880825 1_555
Er5 Fe17 2.880827 1_555
Er5 Fe16 2.880827 1_555
Er5 Fe3 2.990756 1_555
Er5 Fe22 2.990756 1_554
Er5 Fe4 2.990756 1_455
Er5 Fe21 2.990756 1_565
Er5 Fe9 3.027540 1_555
Er5 Fe11 3.027540 1_565
Er5 Fe12 3.027540 1_555
Er5 Fe8 3.027540 1_565
Fe0 Fe7 2.446656 1_656
Fe0 Fe8 2.446656 1_566
Fe0 Fe11 2.446656 1_665
Fe0 Fe5 2.528176 1_555
Fe0 Fe22 2.528176 1_555
Fe0 Fe4 2.528176 1_555
Fe0 Fe16 2.594367 1_556
Fe0 Fe14 2.594372 1_655
Fe0 Fe15 2.594376 1_565
Fe1 Fe12 2.446656 1_555
Fe1 Fe10 2.446656 1_555
Fe1 Fe8 2.446656 1_555
Fe1 Fe21 2.528176 1_555
Fe1 Fe3 2.528176 1_555
Fe1 Fe2 2.528176 1_555
Fe1 Fe13 2.594365 1_555
Fe1 Fe17 2.594367 1_545
Fe1 Fe18 2.594375 1_554
Fe2 Fe9 2.446656 1_555
Fe2 Fe21 2.528176 1_555
Fe2 Fe3 2.528176 1_555
Fe3 Fe9 2.446656 1_555
Fe3 Fe7 2.446656 1_555
Fe4 Fe9 2.446656 1_655
Fe4 Fe5 2.528176 1_555
Fe5 Fe7 2.446656 1_656
Fe5 Fe9 2.446656 1_655
Fe10 Fe2 2.446656 1_555
Fe10 Fe4 2.446656 1_545
Fe10 Fe22 2.446656 1_545
Fe10 Fe15 2.613342 1_555
Fe10 Fe13 2.613349 1_555
Fe10 Fe20 2.613349 1_545
Fe10 Fe17 2.613349 1_545
Fe11 Fe4 2.446656 1_445
Fe11 Fe21 2.446656 1_555
Fe11 Fe2 2.446656 1_555
Fe11 Fe14 2.613349 1_545
Fe11 Fe17 2.613356 1_545
Fe11 Fe15 2.613356 1_455
Fe11 Fe19 2.613356 1_455
Fe12 Fe3 2.446656 1_555
Fe12 Fe22 2.446656 1_554
Fe12 Fe5 2.446656 1_554
Fe12 Fe13 2.613349 1_555
Fe12 Fe16 2.613356 1_555
Fe12 Fe20 2.613356 1_554
Fe12 Fe18 2.613356 1_554
Fe13 Fe6 2.515631 1_555
Fe13 Fe2 2.594365 1_555
Fe13 Fe3 2.594365 1_555
Fe13 Fe9 2.613349 1_555
Fe13 Fe15 2.904788 1_555
Fe13 Fe14 2.904794 1_555
Fe13 Fe16 2.904800 1_555
Fe14 Fe6 2.515624 1_555
Fe14 Fe4 2.594367 1_455
Fe14 Fe5 2.594372 1_455
Fe14 Fe9 2.613349 1_555
Fe14 Fe7 2.613356 1_556
Fe14 Fe17 2.904794 1_555
Fe14 Fe18 2.904794 1_555
Fe15 Fe6 2.515624 1_555
Fe15 Fe22 2.594367 1_545
Fe15 Fe4 2.594367 1_545
Fe15 Fe8 2.613356 1_556
Fe15 Fe18 2.904788 1_555
Fe15 Fe19 2.904794 1_555
Fe16 Fe6 2.515624 1_555
Fe16 Fe5 2.594372 1_554
Fe16 Fe22 2.594372 1_554
Fe16 Fe7 2.613349 1_655
Fe16 Fe8 2.613349 1_565
Fe16 Fe19 2.904782 1_555
Fe16 Fe17 2.904788 1_555
Fe17 Fe6 2.515624 1_555
Fe17 Fe21 2.594372 1_565
Fe17 Fe2 2.594372 1_565
Fe17 Fe8 2.613349 1_565
Fe17 Fe20 2.904788 1_555
Fe18 Fe6 2.515617 1_555
Fe18 Fe21 2.594375 1_556
Fe18 Fe3 2.594379 1_556
Fe18 Fe8 2.613349 1_556
Fe18 Fe7 2.613356 1_556
Fe18 Fe20 2.904794 1_555
Fe19 Fe6 2.515617 1_555
Fe19 Fe21 2.594375 1_655
Fe19 Fe3 2.594375 1_655
Fe19 Fe2 2.594379 1_655
Fe19 Fe7 2.613349 1_655
Fe19 Fe9 2.613356 1_655
Fe19 Fe20 2.904788 1_555
Fe20 Fe6 2.515624 1_555
Fe20 Fe4 2.594367 1_555
Fe20 Fe5 2.594372 1_555
Fe20 Fe22 2.594372 1_555
Fe20 Fe9 2.613349 1_655
Fe21 Fe7 2.446656 1_555
Fe21 Fe8 2.446656 1_555
Fe21 Fe3 2.528176 1_555
Fe22 Fe8 2.446656 1_566
Fe22 Fe5 2.528176 1_555
Fe22 Fe4 2.528176 1_555
