# generated using pymatgen
data_Na4ZrZn3SiS5O24
_symmetry_space_group_name_H-M   'P 1'
_cell_length_a   8.92909873
_cell_length_b   8.93004928
_cell_length_c   22.78566701
_cell_angle_alpha   89.99613412
_cell_angle_beta   90.69790609
_cell_angle_gamma   120.01465748
_symmetry_Int_Tables_number   1
_chemical_formula_structural   Na4ZrZn3SiS5O24
_chemical_formula_sum   'Na12 Zr3 Zn9 Si3 S15 O72'
_cell_volume   1573.06605420
_cell_formula_units_Z   3
loop_
 _symmetry_equiv_pos_site_id
 _symmetry_equiv_pos_as_xyz
  1  'x, y, z'
loop_
 _atom_site_type_symbol
 _atom_site_label
 _atom_site_symmetry_multiplicity
 _atom_site_fract_x
 _atom_site_fract_y
 _atom_site_fract_z
 _atom_site_occupancy
  Na  Na0  1  0.36427826  0.36484238  0.24948650  1
  Na  Na1  1  0.31154498  0.34218239  0.58767729  1
  Na  Na2  1  0.02720406  0.70028385  0.58288327  1
  Na  Na3  1  0.98715084  0.67839504  0.91676572  1
  Na  Na4  1  0.70247856  0.03045191  0.91098437  1
  Na  Na5  1  0.30947350  0.28719454  0.91779903  1
  Na  Na6  1  0.97608043  0.98705701  0.49831594  1
  Na  Na7  1  0.01400031  0.01138757  0.00279675  1
  Na  Na8  1  0.66634242  0.32452902  0.82456955  1
  Na  Na9  1  0.67905003  0.32921530  0.32756878  1
  Na  Na10  1  0.33135465  0.67698925  0.16518339  1
  Na  Na11  1  0.36046217  0.67753489  0.66170007  1
  Zr  Zr0  1  0.66705373  0.32523441  0.98531514  1
  Zr  Zr1  1  0.67075232  0.34437133  0.48028321  1
  Zr  Zr2  1  0.32451648  0.66975846  0.81432786  1
  Zn  Zn0  1  0.99465578  0.99635962  0.34637469  1
  Zn  Zn1  1  0.01373218  0.01587464  0.84866463  1
  Zn  Zn2  1  0.97329093  0.98389991  0.65035534  1
  Zn  Zn3  1  0.99635011  0.99498778  0.15324974  1
  Zn  Zn4  1  0.66125233  0.34183924  0.68137080  1
  Zn  Zn5  1  0.67610562  0.33395879  0.18287266  1
  Zn  Zn6  1  0.30800687  0.65914837  0.01500086  1
  Zn  Zn7  1  0.36134592  0.67766987  0.51377898  1
  Zn  Zn8  1  0.33312561  0.67851224  0.31718036  1
  Si  Si0  1  0.66482086  0.63468668  0.58627959  1
  Si  Si1  1  0.04088987  0.36939133  0.91887362  1
  Si  Si2  1  0.32881777  0.95903085  0.91868380  1
  S  S0  1  0.29269485  -0.00031348  0.25002538  1
  S  S1  1  0.70428840  0.70448315  0.24989649  1
  S  S2  1  0.00025498  0.29336968  0.25025438  1
  S  S3  1  0.29723264  0.29230427  0.74824575  1
  S  S4  1  0.99385347  0.70450089  0.74946942  1
  S  S5  1  0.70669928  0.00472514  0.75001113  1
  S  S6  1  0.95997954  0.33275128  0.58504819  1
  S  S7  1  0.37598941  0.03952446  0.58460693  1
  S  S8  1  0.96307853  0.63346703  0.08683250  1
  S  S9  1  0.66714027  0.03090945  0.08694500  1
  S  S10  1  0.36861850  0.33526255  0.08653604  1
  S  S11  1  0.62483968  0.66733487  0.91856656  1
  S  S12  1  0.63092311  0.95979224  0.41492652  1
  S  S13  1  0.32445291  0.36725266  0.41496454  1
  S  S14  1  0.04732086  0.67218728  0.41703007  1
  O  O0  1  0.21403308  0.03051311  0.30250696  1
  O  O1  1  0.80922774  0.78355418  0.30349516  1
  O  O2  1  0.97506670  0.18948380  0.30357211  1
  O  O3  1  0.21659789  0.19673504  0.80281666  1
  O  O4  1  0.97880904  0.78648050  0.80368131  1
  O  O5  1  0.80278909  0.02154556  0.80576859  1
  O  O6  1  0.78826786  0.98053356  0.69849887  1
  O  O7  1  0.19134811  0.21136937  0.69486271  1
  O  O8  1  0.01947222  0.80758079  0.69622969  1
  O  O9  1  0.78302284  0.80804132  0.19707553  1
  O  O10  1  0.02974305  0.21365399  0.19762915  1
  O  O11  1  0.18804480  0.97423470  0.19622066  1
  O  O12  1  0.87795026  0.35516571  0.63688086  1
  O  O13  1  0.48224588  0.11258470  0.63740175  1
  O  O14  1  0.62235819  0.50382559  0.64015467  1
  O  O15  1  0.87107887  0.52245088  0.13652125  1
  O  O16  1  0.64556289  0.12247549  0.13646224  1
  O  O17  1  0.47503350  0.35153260  0.13922258  1
  O  O18  1  0.45822363  0.31545553  0.03200617  1
  O  O19  1  0.86009854  0.54890794  0.03022084  1
  O  O20  1  0.68818282  0.13856972  0.03062508  1
  O  O21  1  0.46488401  0.14925266  0.53167713  1
  O  O22  1  0.69609153  0.53380512  0.52835094  1
  O  O23  1  0.84915958  0.30459073  0.53097207  1
  O  O24  1  0.55122317  0.69878907  0.97019864  1
  O  O25  1  0.17084778  0.44438329  0.97377722  1
  O  O26  1  0.29825381  0.84248564  0.97494641  1
  O  O27  1  0.55359987  0.86071995  0.46871456  1
  O  O28  1  0.30599421  0.44748491  0.46917751  1
  O  O29  1  0.14333059  0.68895590  0.47264841  1
  O  O30  1  0.12546348  0.64322066  0.36531764  1
  O  O31  1  0.52287378  0.88216387  0.36219299  1
  O  O32  1  0.35581746  0.47375150  0.36206684  1
  O  O33  1  0.12912468  0.49849629  0.86140014  1
  O  O34  1  0.38037172  0.87866299  0.86141005  1
  O  O35  1  0.51285704  0.63148111  0.86473285  1
  O  O36  1  0.02122664  0.82243067  0.41130067  1
  O  O37  1  0.80550036  0.98049100  0.40981834  1
  O  O38  1  0.17313208  0.19182806  0.40927049  1
  O  O39  1  0.99880110  0.17228196  0.90912025  1
  O  O40  1  0.15897429  0.97795686  0.90870745  1
  O  O41  1  0.79958068  0.81510256  0.90890892  1
  O  O42  1  0.98966425  0.18368933  0.58814463  1
  O  O43  1  0.20715918  0.03623436  0.58746160  1
  O  O44  1  0.84842214  0.81709340  0.58711716  1
  O  O45  1  0.97417718  0.80427153  0.08939205  1
  O  O46  1  0.82913012  0.02431963  0.08978616  1
  O  O47  1  0.19777143  0.17576718  0.08786539  1
  O  O48  1  0.68543555  0.15828808  0.74452343  1
  O  O49  1  0.47010294  0.30820267  0.74594922  1
  O  O50  1  0.84419832  0.52730440  0.74563370  1
  O  O51  1  0.68031987  0.52499818  0.24483345  1
  O  O52  1  0.84553547  0.31444413  0.24363356  1
  O  O53  1  0.46714210  0.16158850  0.24485725  1
  O  O54  1  0.64014767  0.50694044  0.92405642  1
  O  O55  1  0.85268615  0.36521094  0.92493273  1
  O  O56  1  0.50077821  0.15731376  0.92379998  1
  O  O57  1  0.64810640  0.13662027  0.42182144  1
  O  O58  1  0.48579029  0.34883139  0.42198195  1
  O  O59  1  0.86815008  0.50812080  0.42116962  1
  O  O60  1  0.35846418  0.49360714  0.08077888  1
  O  O61  1  0.13396293  0.64722365  0.08295837  1
  O  O62  1  0.51307028  0.86022118  0.07937928  1
  O  O63  1  0.33982792  0.85959565  0.57616570  1
  O  O64  1  0.48668601  0.64114333  0.57717534  1
  O  O65  1  0.12937638  0.49453755  0.57741652  1
  O  O66  1  0.31357491  0.84522347  0.25614564  1
  O  O67  1  0.52517870  0.67994460  0.25503997  1
  O  O68  1  0.16205436  0.46767449  0.25638273  1
  O  O69  1  0.31762405  0.47108437  0.75342707  1
  O  O70  1  0.15758946  0.69040327  0.75315009  1
  O  O71  1  0.53073861  0.84200234  0.75342449  1
loop_
_geom_bond_atom_site_label_1
_geom_bond_atom_site_label_2
_geom_bond_distance
_geom_bond_site_symmetry_2
Na0 O68 2.407123 1_555
Na0 O53 2.412350 1_555
Na0 O67 2.439090 1_555
Na0 O51 2.447389 1_555
Na0 O17 2.735442 1_555
Na0 O32 2.758713 1_555
Na0 O10 2.832185 1_555
Na0 O0 2.864414 1_555
Na1 O64 2.337198 1_555
Na1 O43 2.405315 1_555
Na1 O42 2.488952 1_455
Na1 O65 2.599286 1_555
Na1 O14 2.669673 1_555
Na1 O7 2.700082 1_555
Na1 O28 2.867102 1_555
Na1 O21 2.978916 1_555
Na2 O44 2.305528 1_455
Na2 O63 2.424235 1_555
Na2 O65 2.429676 1_555
Na2 O43 2.601223 1_565
Na2 O29 2.750062 1_555
Na2 O8 2.768377 1_555
Na2 O22 2.829956 1_455
Na2 O12 2.952707 1_455
Na3 O40 2.333345 1_655
Na3 O55 2.438025 1_555
Na3 O41 2.523033 1_555
Na3 O54 2.690448 1_555
Na3 O26 2.731199 1_655
Na3 O4 2.764687 1_555
Na3 O33 2.802874 1_655
Na3 O19 2.840026 1_556
Na4 O39 2.292770 1_555
Na4 O41 2.474136 1_545
Na4 O56 2.581935 1_555
Na4 O5 2.584523 1_555
Na4 O55 2.610553 1_555
Na4 O34 2.721430 1_545
Na4 O24 2.908357 1_545
Na4 O20 2.917567 1_556
Na5 O40 2.399036 1_545
Na5 O39 2.434363 1_455
Na5 O56 2.501637 1_555
Na5 O54 2.604276 1_555
Na5 O25 2.628007 1_555
Na5 O3 2.735246 1_555
Na5 O18 2.860113 1_556
Na5 O35 2.946128 1_555
Na6 O44 2.453982 1_555
Na6 O37 2.495071 1_555
Na6 O36 2.620614 1_655
Na6 O42 2.658722 1_565
Na6 O38 2.724690 1_665
Na6 O43 2.750930 1_665
Na7 O47 2.473392 1_555
Na7 O45 2.607524 1_445
Na7 O40 2.610631 1_544
Na7 O39 2.612742 1_454
Na7 O46 2.633904 1_455
Na7 O41 2.803199 1_444
Na8 O48 2.412611 1_555
Na8 O49 2.443106 1_555
Na8 O50 2.495628 1_555
Na8 O56 2.720293 1_555
Na8 O55 2.726317 1_555
Na8 O54 2.870796 1_555
Na9 O52 2.480016 1_555
Na9 O53 2.540217 1_555
Na9 O51 2.567295 1_555
Na9 O59 2.676947 1_555
Na9 O57 2.680506 1_555
Na9 O58 2.833612 1_555
Na10 O61 2.477556 1_555
Na10 O62 2.559928 1_555
Na10 O66 2.612488 1_555
Na10 O60 2.616766 1_555
Na10 O67 2.656302 1_555
Na10 O68 2.710433 1_555
Na11 O64 2.346184 1_555
Na11 O71 2.554571 1_555
Na11 O63 2.601183 1_555
Na11 O65 2.673333 1_555
Na11 O69 2.688313 1_555
Na11 O70 2.817248 1_555
O0 S0 1.487637 1_555
O0 Zn0 2.092642 1_445
O1 S1 1.475949 1_555
O1 Zn0 2.029865 1_555
O2 S2 1.478147 1_655
O2 Zn0 2.062391 1_545
O3 S3 1.483173 1_555
O3 Zn1 2.024859 1_555
O4 S4 1.477292 1_555
O4 Zn1 2.167394 1_665
O5 S5 1.489077 1_555
O5 Zn1 2.134518 1_655
O6 S5 1.460507 1_565
O6 Zn2 1.981951 1_555
O7 S3 1.477930 1_555
O7 Zn2 2.222850 1_445
O8 S4 1.472151 1_455
O8 Zn2 2.093001 1_455
O9 S1 1.472431 1_555
O9 Zn3 2.068162 1_555
O10 S2 1.486354 1_555
O10 Zn3 2.082048 1_445
O11 S0 1.479017 1_565
O11 Zn3 2.049222 1_455
O12 S6 1.462595 1_555
O12 Zn4 2.145488 1_555
O13 S7 1.458075 1_555
O13 Zn4 2.106493 1_555
O14 Si0 1.607544 1_555
O14 Zn4 1.894610 1_555
O15 S8 1.465354 1_555
O15 Zn5 2.022980 1_555
O16 S9 1.463486 1_555
O16 Zn5 2.058466 1_555
O17 S10 1.482999 1_555
O17 Zn5 2.115573 1_555
O18 S10 1.543071 1_555
O18 Zr0 2.121759 1_554
O19 S8 1.535002 1_555
O19 Zr0 2.126176 1_554
O20 S9 1.559303 1_555
O20 Zr0 2.046892 1_554
O21 S7 1.513199 1_555
O21 Zr1 2.152723 1_555
O22 Si0 1.700760 1_555
O22 Zr1 1.929705 1_555
O23 S6 1.510630 1_555
O23 Zr1 2.125831 1_555
O24 S11 1.448677 1_555
O24 Zn6 2.273452 1_556
O25 Si1 1.596044 1_555
O25 Zn6 1.919053 1_556
O26 Si2 1.589123 1_555
O26 Zn6 1.913507 1_556
O27 S12 1.473387 1_555
O27 Zn7 1.977039 1_555
O28 S13 1.479743 1_555
O28 Zn7 2.115202 1_555
O29 S14 1.486114 1_555
O29 Zn7 2.197696 1_555
O30 S14 1.463827 1_555
O30 Zn8 2.050716 1_555
O31 S12 1.468979 1_555
O31 Zn8 2.026131 1_555
O32 S13 1.475562 1_555
O32 Zn8 2.189969 1_555
O33 Si1 1.667664 1_555
O33 Zr2 1.977173 1_555
O34 Si2 1.665936 1_555
O34 Zr2 1.983998 1_555
O35 S11 1.502280 1_555
O35 Zr2 2.189078 1_555
O36 S14 1.477640 1_555
O36 Zn0 2.239883 1_455
O37 S12 1.481142 1_555
O37 Zn0 2.186902 1_555
O38 S13 1.474688 1_555
O38 Zn0 2.191378 1_445
O39 Si1 1.620227 1_655
O39 Zn1 2.014252 1_655
O40 Si2 1.621167 1_555
O40 Zn1 2.016021 1_565
O41 S11 1.474001 1_555
O41 Zn1 2.321422 1_665
O42 S6 1.483124 1_555
O42 Zn2 2.226564 1_545
O43 S7 1.495237 1_555
O43 Zn2 2.393592 1_445
O44 Si0 1.633690 1_555
O44 Zn2 1.959047 1_555
O45 S8 1.479319 1_555
O45 Zn3 2.170918 1_555
O46 S9 1.477386 1_555
O46 Zn3 2.174337 1_545
O47 S10 1.477872 1_555
O47 Zn3 2.284866 1_445
O48 S5 1.480573 1_555
O48 Zn4 2.269406 1_555
O49 S3 1.479272 1_555
O49 Zn4 2.171815 1_555
O50 S4 1.476122 1_555
O50 Zn4 2.188827 1_555
O51 S1 1.511408 1_555
O51 Zn5 2.199968 1_555
O52 S2 1.490558 1_655
O52 Zn5 2.109166 1_555
O53 S0 1.510588 1_555
O53 Zn5 2.244129 1_555
O54 S11 1.510406 1_555
O54 Zr0 2.240656 1_555
O55 Si1 1.669547 1_655
O55 Zr0 2.057018 1_555
O56 Si2 1.667984 1_545
O56 Zr0 2.034659 1_555
O57 S12 1.516174 1_545
O57 Zr1 2.208095 1_555
O58 S13 1.536041 1_555
O58 Zr1 2.122798 1_555
O59 S14 1.540654 1_655
O59 Zr1 2.130321 1_555
O60 S10 1.467258 1_555
O60 Zn6 2.298759 1_555
O61 S8 1.472017 1_455
O61 Zn6 2.171908 1_555
O62 S9 1.463571 1_565
O62 Zn6 2.318257 1_555
O63 S7 1.484069 1_565
O63 Zn7 2.239696 1_555
O64 Si0 1.630959 1_555
O64 Zn7 1.942004 1_555
O65 S6 1.491820 1_455
O65 Zn7 2.398177 1_555
O66 S0 1.487774 1_565
O66 Zn8 2.105878 1_555
O67 S1 1.507790 1_555
O67 Zn8 2.232245 1_555
O68 S2 1.508279 1_555
O68 Zn8 2.206544 1_555
O69 S3 1.518102 1_555
O69 Zr2 2.228474 1_555
O70 S4 1.530202 1_455
O70 Zr2 2.103101 1_555
O71 S5 1.518235 1_565
O71 Zr2 2.216020 1_555
