# generated using pymatgen
data_V2OF5
_symmetry_space_group_name_H-M   'P 1'
_cell_length_a   5.09509342
_cell_length_b   13.24987021
_cell_length_c   5.10403640
_cell_angle_alpha   89.94566487
_cell_angle_beta   59.77337024
_cell_angle_gamma   89.77176843
_symmetry_Int_Tables_number   1
_chemical_formula_structural   V2OF5
_chemical_formula_sum   'V6 O3 F15'
_cell_volume   297.72004526
_cell_formula_units_Z   3
loop_
 _symmetry_equiv_pos_site_id
 _symmetry_equiv_pos_as_xyz
  1  'x, y, z'
loop_
 _atom_site_type_symbol
 _atom_site_label
 _atom_site_symmetry_multiplicity
 _atom_site_fract_x
 _atom_site_fract_y
 _atom_site_fract_z
 _atom_site_occupancy
  V  V0  1  0.30446272  0.82800240  0.35729510  1
  V  V1  1  0.68271599  0.66978918  0.65989943  1
  V  V2  1  0.68278671  0.16125079  0.67623399  1
  V  V3  1  0.00930509  0.49620116  0.98348182  1
  V  V4  1  0.98770314  0.00310307  0.99623000  1
  V  V5  1  0.31429849  0.33779333  0.35978770  1
  O  O0  1  0.01429257  0.75080964  0.57453418  1
  O  O1  1  0.09677157  0.41502097  0.65146803  1
  O  O2  1  0.89612604  0.08311661  0.75355157  1
  F  F0  1  0.00058373  0.24924959  0.38785620  1
  F  F1  1  0.27477947  0.91673721  0.67406483  1
  F  F2  1  0.72902282  0.58292471  0.93720131  1
  F  F3  1  0.61481332  0.74967729  0.38655272  1
  F  F4  1  0.40204899  0.75268752  0.98804104  1
  F  F5  1  0.28272583  0.41716394  0.05260101  1
  F  F6  1  0.71230176  0.08261177  0.33961744  1
  F  F7  1  0.68222936  0.41428025  0.26352074  1
  F  F8  1  0.31095376  0.08764923  0.94836858  1
  F  F9  1  0.06651786  0.92276165  0.27846883  1
  F  F10  1  0.93893572  0.58088511  0.33698889  1
  F  F11  1  0.59831879  0.25592145  -0.00209326  1
  F  F12  1  0.40252761  0.24476531  0.59604760  1
  F  F13  1  0.66614004  0.91167179  0.07219825  1
  F  F14  1  0.32963962  0.58592801  0.72808397  1
loop_
_geom_bond_atom_site_label_1
_geom_bond_atom_site_label_2
_geom_bond_distance
_geom_bond_site_symmetry_2
O0 V0 1.679499 1_555
O0 V1 1.862476 1_455
O1 V5 1.680580 1_555
O1 V3 1.861867 1_555
O2 V2 1.682617 1_555
O2 V4 1.857784 1_555
F0 V5 1.932840 1_555
F0 V2 1.939063 1_455
F1 V4 1.929101 1_465
F1 V0 1.943000 1_555
F2 V1 1.927316 1_555
F2 V3 1.934320 1_655
F3 V1 1.914918 1_555
F3 V0 1.955532 1_555
F4 V1 1.906846 1_555
F4 V0 1.962449 1_556
F5 V3 1.909032 1_554
F5 V5 1.959490 1_555
F6 V4 1.914725 1_554
F6 V2 1.949916 1_555
F7 V3 1.900406 1_654
F7 V5 1.967118 1_555
F8 V4 1.906896 1_455
F8 V2 1.957604 1_555
F9 V0 1.919919 1_555
F9 V4 1.986398 1_464
F10 V1 1.906133 1_555
F10 V3 1.998096 1_654
F11 V2 1.934541 1_554
F11 V5 1.995650 1_555
F12 V5 1.927204 1_555
F12 V2 2.001494 1_555
F13 V4 1.917705 1_564
F13 V0 2.013865 1_555
F14 V3 1.909690 1_555
F14 V1 1.994206 1_555
