# generated using pymatgen
data_K2CdN12
_symmetry_space_group_name_H-M   'P 1'
_cell_length_a   7.56542638
_cell_length_b   7.56542638
_cell_length_c   8.98291054
_cell_angle_alpha   86.07210062
_cell_angle_beta   86.07210062
_cell_angle_gamma   29.75520334
_symmetry_Int_Tables_number   1
_chemical_formula_structural   K2CdN12
_chemical_formula_sum   'K2 Cd1 N12'
_cell_volume   254.52502832
_cell_formula_units_Z   1
loop_
 _symmetry_equiv_pos_site_id
 _symmetry_equiv_pos_as_xyz
  1  'x, y, z'
loop_
 _atom_site_type_symbol
 _atom_site_label
 _atom_site_symmetry_multiplicity
 _atom_site_fract_x
 _atom_site_fract_y
 _atom_site_fract_z
 _atom_site_occupancy
  K  K0  1  0.65343500  0.65343500  0.82478700  1
  K  K1  1  0.34656500  0.34656500  0.17521300  1
  Cd  Cd0  1  0.00000000  0.00000000  0.50000000  1
  N  N0  1  0.60147700  0.60147700  0.49385700  1
  N  N1  1  0.39852300  0.39852300  0.50614300  1
  N  N2  1  0.67229500  0.67229500  0.41692400  1
  N  N3  1  0.32770500  0.32770500  0.58307600  1
  N  N4  1  0.74174000  0.74174000  0.34421700  1
  N  N5  1  0.25826000  0.25826000  0.65578300  1
  N  N6  1  0.00010100  0.00010100  0.76105200  1
  N  N7  1  0.99989900  0.99989900  0.23894800  1
  N  N8  1  0.93324200  0.93324200  0.84612700  1
  N  N9  1  0.06675800  0.06675800  0.15387300  1
  N  N10  1  0.86938300  0.86938300  0.93367500  1
  N  N11  1  0.13061700  0.13061700  0.06632500  1
loop_
_geom_bond_atom_site_label_1
_geom_bond_atom_site_label_2
_geom_bond_distance
_geom_bond_site_symmetry_2
K0 N5 2.845678 1_565
K0 N5 2.845678 1_655
K0 N11 2.913680 1_566
K0 N11 2.913680 1_656
K0 N6 3.051363 1_565
K0 N6 3.051363 1_655
K0 N0 3.120021 1_555
K0 N10 3.371526 1_555
K1 N4 2.845678 1_455
K1 N4 2.845678 1_545
K1 N10 2.913680 1_454
K1 N10 2.913680 1_544
K1 N7 3.051363 1_455
K1 N7 3.051363 1_545
K1 N1 3.120021 1_555
K1 N11 3.371526 1_555
Cd0 N6 2.345112 1_555
Cd0 N7 2.345112 1_445
Cd0 N0 2.442689 1_545
Cd0 N0 2.442689 1_455
Cd0 N1 2.442689 1_545
Cd0 N1 2.442689 1_455
N0 N2 1.203595 1_555
N1 N3 1.203595 1_555
N2 N4 1.167844 1_555
N3 N5 1.167844 1_555
N6 N8 1.197519 1_445
N7 N9 1.197519 1_665
N10 N8 1.177476 1_555
N11 N9 1.177476 1_555
