# generated using pymatgen
data_NaHf2Sc2P3(SO8)3
_symmetry_space_group_name_H-M   'P 1'
_cell_length_a   8.85072988
_cell_length_b   8.85926461
_cell_length_c   23.05316272
_cell_angle_alpha   90.09502368
_cell_angle_beta   89.88156068
_cell_angle_gamma   120.03480487
_symmetry_Int_Tables_number   1
_chemical_formula_structural   NaHf2Sc2P3(SO8)3
_chemical_formula_sum   'Na3 Hf6 Sc6 P9 S9 O72'
_cell_volume   1564.89226962
_cell_formula_units_Z   3
loop_
 _symmetry_equiv_pos_site_id
 _symmetry_equiv_pos_as_xyz
  1  'x, y, z'
loop_
 _atom_site_type_symbol
 _atom_site_label
 _atom_site_symmetry_multiplicity
 _atom_site_fract_x
 _atom_site_fract_y
 _atom_site_fract_z
 _atom_site_occupancy
  Na  Na0  1  0.67449988  0.33458818  0.83396971  1
  Na  Na1  1  0.66421274  0.33797741  0.33131081  1
  Na  Na2  1  0.34101762  0.67191726  0.16934747  1
  Hf  Hf0  1  0.00736389  0.99354818  0.35478902  1
  Hf  Hf1  1  0.99256287  0.00058349  0.85545541  1
  Hf  Hf2  1  0.99452677  0.99193348  0.64768994  1
  Hf  Hf3  1  0.99769227  0.99804830  0.14483018  1
  Hf  Hf4  1  0.33295227  0.65896196  0.02115185  1
  Hf  Hf5  1  0.32607024  0.66118983  0.51796893  1
  Sc  Sc0  1  0.67351771  0.33308402  0.68893421  1
  Sc  Sc1  1  0.65106587  0.32713299  0.18653192  1
  Sc  Sc2  1  0.66684587  0.32399239  0.98375982  1
  Sc  Sc3  1  0.66536033  0.33902911  0.47730655  1
  Sc  Sc4  1  0.33403123  0.66480677  0.31261937  1
  Sc  Sc5  1  0.32406188  0.66646406  0.81006023  1
  P  P0  1  0.29027226  0.99791399  0.24941647  1
  P  P1  1  0.70986947  0.70906017  0.25004421  1
  P  P2  1  0.99862473  0.71039377  0.75086741  1
  P  P3  1  0.70775721  0.99833573  0.75040582  1
  P  P4  1  0.66567269  0.04350272  0.08408109  1
  P  P5  1  0.37748205  0.33128543  0.08308542  1
  P  P6  1  0.04235906  0.37961937  0.91556422  1
  P  P7  1  0.33305236  0.37705290  0.41548952  1
  P  P8  1  0.04314735  0.66337748  0.41571833  1
  S  S0  1  0.99852814  0.28901051  0.25023017  1
  S  S1  1  0.28947857  0.28917623  0.75007225  1
  S  S2  1  0.95560376  0.33203090  0.58310422  1
  S  S3  1  0.37821585  0.04435372  0.58338996  1
  S  S4  1  0.66468949  0.62160263  0.58352841  1
  S  S5  1  0.95563379  0.62184429  0.08367932  1
  S  S6  1  0.62064169  0.66291972  0.91563834  1
  S  S7  1  0.33387246  0.95668810  0.91602528  1
  S  S8  1  0.62319398  0.95716795  0.41638535  1
  O  O0  1  0.20328861  0.02778846  0.30393013  1
  O  O1  1  0.82423122  0.80101512  0.30434788  1
  O  O2  1  0.97277971  0.18122508  0.30251176  1
  O  O3  1  0.20832115  0.17753651  0.80193285  1
  O  O4  1  0.97103821  0.80018020  0.80409706  1
  O  O5  1  0.82870007  0.03133257  0.80354202  1
  O  O6  1  0.80073271  0.97643165  0.69605674  1
  O  O7  1  0.18047525  0.20586434  0.69760860  1
  O  O8  1  0.02548537  0.82539256  0.69612980  1
  O  O9  1  0.79863980  0.82492833  0.19606150  1
  O  O10  1  0.02655620  0.20766754  0.19783989  1
  O  O11  1  0.17531596  0.97385161  0.19595326  1
  O  O12  1  0.87852472  0.36361344  0.63512267  1
  O  O13  1  0.48549602  0.12350329  0.63536985  1
  O  O14  1  0.63621093  0.51472003  0.63530035  1
  O  O15  1  0.88228225  0.51555021  0.13547384  1
  O  O16  1  0.63461204  0.12557135  0.13770015  1
  O  O17  1  0.49126155  0.36938857  0.13700259  1
  O  O18  1  0.46062195  0.30668531  0.02846865  1
  O  O19  1  0.85182841  0.54685922  0.03100017  1
  O  O20  1  0.69605726  0.15347736  0.02929977  1
  O  O21  1  0.45638811  0.15197194  0.53160672  1
  O  O22  1  0.69732296  0.54543745  0.53176149  1
  O  O23  1  0.84811358  0.30262092  0.53161738  1
  O  O24  1  0.54320140  0.69530385  0.96834295  1
  O  O25  1  0.15784189  0.46555700  0.97000200  1
  O  O26  1  0.30616779  0.84920432  0.96834772  1
  O  O27  1  0.54162472  0.84793520  0.46935396  1
  O  O28  1  0.30815043  0.46561793  0.47101593  1
  O  O29  1  0.15800530  0.69405816  0.47100996  1
  O  O30  1  0.12786006  0.63512094  0.36277050  1
  O  O31  1  0.51473638  0.87968739  0.36521643  1
  O  O32  1  0.36635048  0.49321567  0.36299962  1
  O  O33  1  0.13121911  0.49223248  0.86225258  1
  O  O34  1  0.36375090  0.87779914  0.86441341  1
  O  O35  1  0.51482138  0.63845165  0.86423353  1
  O  O36  1  0.02392003  0.82607290  0.40919669  1
  O  O37  1  0.79697883  0.97533029  0.40921318  1
  O  O38  1  0.16894301  0.19766438  0.40788764  1
  O  O39  1  0.02688984  0.19823331  0.90676172  1
  O  O40  1  0.17677887  0.97394008  0.90780396  1
  O  O41  1  0.79630777  0.82195059  0.90891802  1
  O  O42  1  0.97904331  0.17936563  0.59267092  1
  O  O43  1  0.20217514  0.02416229  0.59262263  1
  O  O44  1  0.82154245  0.79820969  0.59194064  1
  O  O45  1  0.97779425  0.79779184  0.09108642  1
  O  O46  1  0.82570202  0.02096775  0.09315857  1
  O  O47  1  0.19498603  0.17359308  0.09332724  1
  O  O48  1  0.69181837  0.16273670  0.74245320  1
  O  O49  1  0.46301083  0.30531143  0.74272737  1
  O  O50  1  0.83435803  0.53023389  0.74239892  1
  O  O51  1  0.69627122  0.53010246  0.24384392  1
  O  O52  1  0.84372568  0.30772816  0.24370236  1
  O  O53  1  0.47146318  0.16222855  0.24483380  1
  O  O54  1  0.64351189  0.51099428  0.92351651  1
  O  O55  1  0.85958936  0.35716277  0.92332416  1
  O  O56  1  0.48804298  0.13295073  0.92266291  1
  O  O57  1  0.64237699  0.13123443  0.42515075  1
  O  O58  1  0.49322861  0.35451374  0.42534963  1
  O  O59  1  0.86149489  0.50287812  0.42547527  1
  O  O60  1  0.35516073  0.49576699  0.07500153  1
  O  O61  1  0.13497891  0.64554732  0.07536151  1
  O  O62  1  0.50206841  0.85900959  0.07383527  1
  O  O63  1  0.35749477  0.86878113  0.57442036  1
  O  O64  1  0.51242840  0.64557291  0.57437601  1
  O  O65  1  0.13189435  0.48851031  0.57492158  1
  O  O66  1  0.30678630  0.83506924  0.25660101  1
  O  O67  1  0.52888398  0.69177908  0.25639313  1
  O  O68  1  0.15647967  0.46236593  0.25559610  1
  O  O69  1  0.30701396  0.45996273  0.75727559  1
  O  O70  1  0.15968624  0.69315104  0.75783516  1
  O  O71  1  0.53194747  0.83706984  0.75954433  1
loop_
_geom_bond_atom_site_label_1
_geom_bond_atom_site_label_2
_geom_bond_distance
_geom_bond_site_symmetry_2
Na0 O55 2.579038 1_555
Na0 O50 2.647121 1_555
Na0 O48 2.648411 1_555
Na0 O56 2.672490 1_555
Na0 O54 2.682384 1_555
Na0 O49 2.742970 1_555
Na1 O51 2.563004 1_555
Na1 O53 2.579475 1_555
Na1 O52 2.662016 1_555
Na1 O58 2.686767 1_555
Na1 O59 2.710533 1_555
Na1 O57 2.780115 1_555
Na2 O67 2.557774 1_555
Na2 O66 2.579384 1_555
Na2 O68 2.651594 1_555
Na2 O62 2.694683 1_555
Na2 O60 2.713797 1_555
Na2 O61 2.768163 1_555
Hf0 O0 1.984918 1_565
Hf0 O36 2.005150 1_555
Hf0 O1 2.030362 1_455
Hf0 O38 2.055406 1_565
Hf0 O37 2.181199 1_455
Hf0 O2 2.197326 1_465
Hf1 O5 2.003398 1_555
Hf1 O39 2.004852 1_655
Hf1 O4 2.060483 1_545
Hf1 O41 2.070385 1_545
Hf1 O40 2.136533 1_645
Hf1 O3 2.150937 1_655
Hf2 O8 1.977475 1_655
Hf2 O6 1.990194 1_555
Hf2 O44 2.076472 1_555
Hf2 O7 2.122041 1_665
Hf2 O43 2.130025 1_665
Hf2 O42 2.149493 1_565
Hf3 O46 2.023635 1_565
Hf3 O9 2.035552 1_555
Hf3 O47 2.038761 1_665
Hf3 O11 2.062106 1_655
Hf3 O45 2.096283 1_555
Hf3 O10 2.127489 1_665
Hf4 O60 1.990345 1_555
Hf4 O25 2.017625 1_554
Hf4 O62 2.049700 1_555
Hf4 O61 2.104543 1_555
Hf4 O24 2.107302 1_554
Hf4 O26 2.187827 1_554
Hf5 O29 1.977539 1_555
Hf5 O28 1.979434 1_555
Hf5 O65 2.093598 1_555
Hf5 O27 2.114372 1_555
Hf5 O63 2.152853 1_555
Hf5 O64 2.160678 1_555
O0 P0 1.562351 1_545
O1 P1 1.559413 1_555
O2 S0 1.483661 1_555
O3 S1 1.487515 1_555
O4 P2 1.545344 1_555
O5 P3 1.556531 1_545
O6 P3 1.561862 1_555
O7 S1 1.492429 1_555
O8 P2 1.564408 1_455
O9 P1 1.553242 1_555
O10 S0 1.488078 1_455
O11 P0 1.544953 1_555
O12 S2 1.472526 1_555
O12 Sc0 2.098777 1_555
O13 S3 1.471257 1_555
O13 Sc0 2.156241 1_555
O14 S4 1.465672 1_555
O14 Sc0 2.183430 1_555
O15 S5 1.456874 1_555
O15 Sc1 2.221863 1_555
O16 P4 1.525720 1_555
O16 Sc1 2.052033 1_555
O17 P5 1.528562 1_555
O17 Sc1 1.995615 1_555
O18 P5 1.526458 1_555
O18 Sc2 2.032210 1_554
O19 S5 1.466695 1_555
O19 Sc2 2.128182 1_554
O20 P4 1.535198 1_555
O20 Sc2 1.961732 1_554
O21 S3 1.467243 1_555
O21 Sc3 2.159429 1_555
O22 S4 1.467623 1_555
O22 Sc3 2.115616 1_555
O23 S2 1.461951 1_555
O23 Sc3 2.195432 1_555
O24 S6 1.490162 1_555
O25 P6 1.556413 1_555
O26 S7 1.480076 1_555
O27 S8 1.499887 1_555
O28 P7 1.572060 1_555
O29 P8 1.568323 1_555
O30 P8 1.515854 1_555
O30 Sc4 2.060941 1_555
O31 S8 1.458250 1_555
O31 Sc4 2.145854 1_555
O32 P7 1.519612 1_555
O32 Sc4 2.045527 1_555
O33 P6 1.529358 1_555
O33 Sc5 2.025780 1_555
O34 S7 1.467995 1_555
O34 Sc5 2.129437 1_555
O35 S6 1.459113 1_555
O35 Sc5 2.213821 1_555
O36 P8 1.541251 1_555
O37 S8 1.473206 1_555
O38 P7 1.534758 1_555
O39 P6 1.555954 1_555
O40 S7 1.485392 1_555
O41 S6 1.494396 1_555
O42 S2 1.484250 1_555
O43 S3 1.491540 1_555
O44 S4 1.496201 1_555
O45 S5 1.480061 1_555
O46 P4 1.540845 1_555
O47 P5 1.535260 1_555
O48 P3 1.543209 1_545
O48 Sc0 2.019331 1_555
O49 S1 1.478945 1_555
O49 Sc0 2.145284 1_555
O50 P2 1.541606 1_555
O50 Sc0 2.026666 1_555
O51 P1 1.535194 1_555
O51 Sc1 2.100760 1_555
O52 S0 1.468241 1_555
O52 Sc1 2.231077 1_555
O53 P0 1.537818 1_545
O53 Sc1 2.034838 1_555
O54 S6 1.469431 1_555
O54 Sc2 2.251086 1_555
O55 P6 1.537892 1_655
O55 Sc2 2.104118 1_555
O56 S7 1.480150 1_545
O56 Sc2 2.161669 1_555
O57 S8 1.478088 1_545
O57 Sc3 2.120090 1_555
O58 P7 1.544736 1_555
O58 Sc3 1.997951 1_555
O59 P8 1.538952 1_655
O59 Sc3 2.005732 1_555
O60 P5 1.576828 1_555
O61 S5 1.505223 1_455
O62 P4 1.566826 1_565
O63 S3 1.486380 1_565
O64 S4 1.481048 1_555
O65 S2 1.492069 1_455
O66 P0 1.530397 1_555
O66 Sc4 2.091171 1_555
O67 P1 1.537662 1_555
O67 Sc4 2.071395 1_555
O68 S0 1.476195 1_455
O68 Sc4 2.143248 1_555
O69 S1 1.450918 1_555
O69 Sc5 2.137155 1_555
O70 P2 1.516653 1_455
O70 Sc5 1.993611 1_555
O71 P3 1.510305 1_555
O71 Sc5 2.058909 1_555
