# generated using pymatgen
data_TmAsSe
_symmetry_space_group_name_H-M   'P 1'
_cell_length_a   3.87337900
_cell_length_b   3.88647800
_cell_length_c   8.70227000
_cell_angle_alpha   90.00000000
_cell_angle_beta   90.00000000
_cell_angle_gamma   90.00000000
_symmetry_Int_Tables_number   1
_chemical_formula_structural   TmAsSe
_chemical_formula_sum   'Tm2 As2 Se2'
_cell_volume   131.00225187
_cell_formula_units_Z   2
loop_
 _symmetry_equiv_pos_site_id
 _symmetry_equiv_pos_as_xyz
  1  'x, y, z'
loop_
 _atom_site_type_symbol
 _atom_site_label
 _atom_site_symmetry_multiplicity
 _atom_site_fract_x
 _atom_site_fract_y
 _atom_site_fract_z
 _atom_site_occupancy
  Tm  Tm0  1  0.75000000  0.25000000  0.72219800  1
  Tm  Tm1  1  0.25000000  0.75000000  0.27780200  1
  As  As0  1  0.25000000  0.25000000  0.00161600  1
  As  As1  1  0.75000000  0.75000000  0.99838400  1
  Se  Se0  1  0.75000000  0.25000000  0.37618400  1
  Se  Se1  1  0.25000000  0.75000000  0.62381600  1
loop_
_geom_bond_atom_site_label_1
_geom_bond_atom_site_label_2
_geom_bond_distance
_geom_bond_site_symmetry_2
As0 As1 2.743672 1_444
As0 As1 2.743672 1_554
As0 As1 2.743672 1_454
As0 As1 2.743672 1_544
As0 Tm1 3.090749 1_555
As0 Tm1 3.090749 1_545
As0 Tm0 3.108585 1_454
As0 Tm0 3.108585 1_554
As1 Tm0 3.090749 1_555
As1 Tm0 3.090749 1_565
As1 Tm1 3.108585 1_556
As1 Tm1 3.108585 1_656
Se0 Tm1 2.874010 1_655
Se0 Tm1 2.874010 1_555
Se0 Tm1 2.874010 1_645
Se0 Tm1 2.874010 1_545
Se0 Tm0 3.011107 1_555
Se1 Tm0 2.874010 1_465
Se1 Tm0 2.874010 1_455
Se1 Tm0 2.874010 1_555
Se1 Tm0 2.874010 1_565
Se1 Tm1 3.011107 1_555
