# generated using pymatgen
data_Na2LaNb3Si2(PO6)4
_symmetry_space_group_name_H-M   'P 1'
_cell_length_a   9.00624086
_cell_length_b   9.01968172
_cell_length_c   23.25152316
_cell_angle_alpha   90.04544491
_cell_angle_beta   90.02585314
_cell_angle_gamma   119.97749133
_symmetry_Int_Tables_number   1
_chemical_formula_structural   Na2LaNb3Si2(PO6)4
_chemical_formula_sum   'Na6 La3 Nb9 Si6 P12 O72'
_cell_volume   1636.11913514
_cell_formula_units_Z   3
loop_
 _symmetry_equiv_pos_site_id
 _symmetry_equiv_pos_as_xyz
  1  'x, y, z'
loop_
 _atom_site_type_symbol
 _atom_site_label
 _atom_site_symmetry_multiplicity
 _atom_site_fract_x
 _atom_site_fract_y
 _atom_site_fract_z
 _atom_site_occupancy
  Na  Na0  1  0.99529025  0.99763106  0.49912495  1
  Na  Na1  1  0.99709226  0.99693813  0.00247109  1
  Na  Na2  1  0.66857983  0.33395659  0.83402522  1
  Na  Na3  1  0.66647393  0.33598383  0.32696915  1
  Na  Na4  1  0.33352498  0.66060360  0.16452247  1
  Na  Na5  1  0.32636944  0.66160804  0.66900294  1
  La  La0  1  0.99811804  0.00039994  0.35989697  1
  La  La1  1  0.67081727  0.33526374  0.68774724  1
  La  La2  1  0.66421993  0.33509045  0.17701792  1
  Nb  Nb0  1  0.00045140  0.00019163  0.85941552  1
  Nb  Nb1  1  0.99918483  0.00225017  0.64589064  1
  Nb  Nb2  1  0.00328005  0.00361723  0.14655974  1
  Nb  Nb3  1  0.66129973  0.33179979  0.97867340  1
  Nb  Nb4  1  0.66993754  0.32884762  0.47949614  1
  Nb  Nb5  1  0.33312692  0.66448605  0.01512155  1
  Nb  Nb6  1  0.33611025  0.66776002  0.52083466  1
  Nb  Nb7  1  0.33814564  0.67143966  0.31116854  1
  Nb  Nb8  1  0.33233569  0.66607169  0.81468450  1
  Si  Si0  1  0.96486756  0.33364052  0.58287839  1
  Si  Si1  1  0.36442456  0.33521619  0.08135507  1
  Si  Si2  1  0.61964871  0.66219319  0.91519397  1
  Si  Si3  1  0.04088835  0.38042010  0.91519265  1
  Si  Si4  1  0.33812256  0.95670239  0.91557887  1
  Si  Si5  1  0.61165123  0.95870438  0.41904368  1
  P  P0  1  0.28852737  0.98780224  0.25010855  1
  P  P1  1  0.70078282  0.71051332  0.24975691  1
  P  P2  1  0.01148520  0.30140887  0.24996287  1
  P  P3  1  0.27287839  0.28750280  0.75319128  1
  P  P4  1  0.01485368  0.72757993  0.75306481  1
  P  P5  1  0.71124997  0.98380773  0.75323257  1
  P  P6  1  0.36697641  0.03664248  0.58124290  1
  P  P7  1  0.66995112  0.63193750  0.58150749  1
  P  P8  1  0.96947349  0.63695517  0.07981836  1
  P  P9  1  0.66692051  0.03032330  0.07967458  1
  P  P10  1  0.35297130  0.39555967  0.41915111  1
  P  P11  1  0.04422655  0.64940313  0.41927954  1
  O  O0  1  0.21286245  0.01037311  0.30466694  1
  O  O1  1  0.79712867  0.78909475  0.30462198  1
  O  O2  1  0.98915461  0.20121591  0.30412114  1
  O  O3  1  0.17314206  0.17990044  0.80593471  1
  O  O4  1  0.00770507  0.82777142  0.80612588  1
  O  O5  1  0.81976099  -0.00656060  0.80601776  1
  O  O6  1  0.80570274  0.97441338  0.69672475  1
  O  O7  1  0.16918438  0.19289656  0.69658931  1
  O  O8  1  0.02501064  0.82954547  0.69681584  1
  O  O9  1  0.79822894  0.82501735  0.19567909  1
  O  O10  1  0.02458038  0.19677842  0.19542703  1
  O  O11  1  0.17146394  0.97284030  0.19584476  1
  O  O12  1  0.90583118  0.38189977  0.64062548  1
  O  O13  1  0.47031119  0.09429960  0.63613105  1
  O  O14  1  0.62234852  0.53028207  0.63674449  1
  O  O15  1  0.92080986  0.53999610  0.13600534  1
  O  O16  1  0.62230661  0.08206327  0.13599723  1
  O  O17  1  0.46442977  0.38556669  0.14041973  1
  O  O18  1  0.47255222  0.30528943  0.02807326  1
  O  O19  1  0.84158770  0.53589317  0.02991234  1
  O  O20  1  0.69702839  0.15835024  0.02960511  1
  O  O21  1  0.46144115  0.16066218  0.52976315  1
  O  O22  1  0.69651290  0.53675144  0.53023851  1
  O  O23  1  0.82883541  0.30246303  0.52810632  1
  O  O24  1  0.52914578  0.69535656  0.96981755  1
  O  O25  1  0.16670438  0.47206349  0.96934483  1
  O  O26  1  0.30431435  0.83444457  0.97006404  1
  O  O27  1  0.49841211  0.84426703  0.47279381  1
  O  O28  1  0.34360188  0.49457578  0.47192479  1
  O  O29  1  0.14866805  0.65161389  0.47196282  1
  O  O30  1  0.13035316  0.63347242  0.36280813  1
  O  O31  1  0.49782602  0.85962570  0.35945854  1
  O  O32  1  0.36298151  0.49750996  0.36293823  1
  O  O33  1  0.13618707  0.50242343  0.85802850  1
  O  O34  1  0.36600205  0.86271295  0.85827765  1
  O  O35  1  0.49741624  0.63313130  0.85811307  1
  O  O36  1  0.02719720  0.80716765  0.42279933  1
  O  O37  1  0.79771742  0.98295725  0.42567359  1
  O  O38  1  0.19749859  0.21887669  0.42212341  1
  O  O39  1  0.01926761  0.18908156  0.90673040  1
  O  O40  1  0.17135557  0.98324996  0.90680376  1
  O  O41  1  0.81178601  0.83050352  0.90705723  1
  O  O42  1  0.97508076  0.15491797  0.59235705  1
  O  O43  1  0.18794060  0.02351888  0.58951968  1
  O  O44  1  0.83736426  0.81013889  0.59013338  1
  O  O45  1  0.97645773  0.81346134  0.08782796  1
  O  O46  1  0.83366805  0.01759115  0.08756210  1
  O  O47  1  0.17545402  0.15548331  0.09093712  1
  O  O48  1  0.69322290  0.14235503  0.75378660  1
  O  O49  1  0.44890487  0.30441795  0.75375932  1
  O  O50  1  0.85477706  0.55175523  0.75479309  1
  O  O51  1  0.66576935  0.52851530  0.24579287  1
  O  O52  1  0.86457664  0.33589947  0.24383754  1
  O  O53  1  0.47156193  0.13116247  0.24387120  1
  O  O54  1  0.64106662  0.49401178  0.92583315  1
  O  O55  1  0.85295047  0.35992643  0.92604168  1
  O  O56  1  0.50827772  0.14587933  0.92551788  1
  O  O57  1  0.62018245  0.14750608  0.42535843  1
  O  O58  1  0.52023689  0.38600915  0.42459525  1
  O  O59  1  0.86187945  0.48511934  0.42464749  1
  O  O60  1  0.32944447  0.49243141  0.06645991  1
  O  O61  1  0.15214624  0.67142707  0.06577939  1
  O  O62  1  0.51517717  0.84983928  0.06592861  1
  O  O63  1  0.33043253  0.85159611  0.56914634  1
  O  O64  1  0.52273921  0.67140048  0.56930537  1
  O  O65  1  0.15932496  0.48715110  0.56897204  1
  O  O66  1  0.28730278  0.81094329  0.25462189  1
  O  O67  1  0.52107265  0.70531566  0.25484790  1
  O  O68  1  0.18612760  0.47557914  0.25405001  1
  O  O69  1  0.28430910  0.46559106  0.75512178  1
  O  O70  1  0.18086670  0.71367058  0.75569757  1
  O  O71  1  0.53307228  0.81729636  0.75513025  1
loop_
_geom_bond_atom_site_label_1
_geom_bond_atom_site_label_2
_geom_bond_distance
_geom_bond_site_symmetry_2
Na0 O37 2.421170 1_555
Na0 O36 2.583077 1_655
Na0 O38 2.623214 1_665
Na0 O44 2.639206 1_555
Na0 O42 2.645487 1_565
Na0 O43 2.659631 1_665
Na1 O46 2.528139 1_565
Na1 O45 2.531874 1_555
Na1 O47 2.559939 1_665
Na1 O41 2.729173 1_554
Na1 O40 2.760941 1_654
Na1 O39 2.767609 1_664
Na2 O50 2.604170 1_555
Na2 O48 2.625864 1_555
Na2 O49 2.633903 1_555
Na2 O55 2.645175 1_555
Na2 O56 2.654943 1_555
Na2 O54 2.656204 1_555
Na3 O51 2.567971 1_555
Na3 O52 2.631338 1_555
Na3 O53 2.641624 1_555
Na3 O57 2.756117 1_555
Na3 O58 2.772334 1_555
Na3 O59 2.773203 1_555
Na4 O68 2.583549 1_555
Na4 O67 2.596397 1_555
Na4 O66 2.638423 1_555
Na4 O60 2.727603 1_555
Na4 O62 2.839767 1_555
Na4 O61 2.847034 1_555
Na5 O69 2.572151 1_555
Na5 O70 2.572343 1_555
Na5 O71 2.612985 1_555
Na5 O65 2.788262 1_555
Na5 O63 2.876184 1_555
Na5 O64 2.890880 1_555
La0 O1 2.259941 1_545
La0 O2 2.262508 1_555
La0 O0 2.286109 1_655
La0 O37 2.310942 1_545
La0 O38 2.378670 1_655
La0 O36 2.388563 1_645
La1 O12 2.229452 1_555
La1 O14 2.336909 1_555
La1 O13 2.344539 1_555
La1 O50 2.397499 1_555
La1 O48 2.404344 1_555
La1 O49 2.423929 1_555
La2 O17 2.233158 1_555
La2 O16 2.322945 1_555
La2 O15 2.324254 1_555
La2 O51 2.360582 1_555
La2 O53 2.372303 1_555
La2 O52 2.377873 1_555
Nb0 O40 1.959681 1_545
Nb0 O39 1.962155 1_555
Nb0 O41 1.965278 1_445
Nb0 O4 2.014116 1_545
Nb0 O3 2.019476 1_555
Nb0 O5 2.022988 1_455
Nb1 O42 1.947787 1_555
Nb1 O7 2.013669 1_655
Nb1 O6 2.015359 1_545
Nb1 O8 2.060940 1_645
Nb1 O44 2.068429 1_545
Nb1 O43 2.078752 1_655
Nb2 O47 1.958435 1_555
Nb2 O10 2.006476 1_555
Nb2 O11 2.025766 1_545
Nb2 O9 2.083696 1_445
Nb2 O46 2.102838 1_455
Nb2 O45 2.108766 1_445
Nb3 O18 1.965245 1_556
Nb3 O56 1.981079 1_555
Nb3 O54 1.988076 1_555
Nb3 O55 2.026335 1_555
Nb3 O19 2.110067 1_556
Nb3 O20 2.111674 1_556
Nb4 O23 1.929092 1_555
Nb4 O57 1.929883 1_555
Nb4 O59 2.042398 1_555
Nb4 O21 2.086024 1_555
Nb4 O58 2.099343 1_555
Nb4 O22 2.124498 1_555
Nb5 O60 1.945732 1_555
Nb5 O25 1.946208 1_554
Nb5 O24 1.953122 1_554
Nb5 O26 1.978572 1_554
Nb5 O62 2.033396 1_555
Nb5 O61 2.037559 1_555
Nb6 O27 1.896767 1_555
Nb6 O28 1.959711 1_555
Nb6 O65 1.963183 1_555
Nb6 O29 1.978550 1_555
Nb6 O64 2.009851 1_555
Nb6 O63 2.023791 1_555
Nb7 O31 1.940656 1_555
Nb7 O67 2.005492 1_555
Nb7 O66 2.024719 1_555
Nb7 O32 2.076898 1_555
Nb7 O68 2.082494 1_555
Nb7 O30 2.103198 1_555
Nb8 O33 1.927010 1_555
Nb8 O34 1.929921 1_555
Nb8 O35 1.938795 1_555
Nb8 O70 2.123888 1_555
Nb8 O71 2.141818 1_555
Nb8 O69 2.142153 1_555
O0 P0 1.501365 1_545
O1 P1 1.505212 1_555
O2 P2 1.504422 1_655
O3 P3 1.544169 1_555
O4 P4 1.548999 1_555
O5 P5 1.543657 1_545
O6 P5 1.590593 1_555
O7 P3 1.591579 1_555
O8 P4 1.575655 1_555
O9 P1 1.585933 1_555
O10 P2 1.619239 1_555
O11 P0 1.605627 1_555
O12 Si0 1.583046 1_555
O13 P6 1.509822 1_555
O14 P7 1.511154 1_555
O15 P8 1.510951 1_555
O16 P9 1.510346 1_555
O17 Si1 1.578818 1_555
O18 Si1 1.679068 1_555
O19 P8 1.565866 1_555
O20 P9 1.565839 1_555
O21 P6 1.568403 1_555
O22 P7 1.555400 1_555
O23 Si0 1.689872 1_555
O24 Si2 1.615838 1_555
O25 Si3 1.616690 1_555
O26 Si4 1.606452 1_555
O27 Si5 1.618234 1_555
O28 P10 1.544053 1_555
O29 P11 1.538146 1_555
O30 P11 1.567933 1_555
O31 Si5 1.688267 1_555
O32 P10 1.575190 1_555
O33 Si3 1.665461 1_555
O34 Si4 1.663759 1_555
O35 Si2 1.658873 1_555
O36 P11 1.507657 1_555
O37 Si5 1.585296 1_555
O38 P10 1.508440 1_555
O39 Si3 1.648837 1_555
O40 Si4 1.647422 1_555
O41 Si2 1.646329 1_555
O42 Si0 1.674624 1_555
O43 P6 1.568627 1_555
O44 P7 1.573042 1_555
O45 P8 1.572464 1_555
O46 P9 1.572979 1_555
O47 Si1 1.678686 1_555
O48 P5 1.517745 1_545
O49 P3 1.514930 1_555
O50 P4 1.520021 1_655
O51 P1 1.511656 1_555
O52 P2 1.509592 1_655
O53 P0 1.510250 1_545
O54 Si2 1.640879 1_555
O55 Si3 1.628048 1_655
O56 Si4 1.642962 1_545
O57 Si5 1.672207 1_545
O58 P10 1.556378 1_555
O59 P11 1.573832 1_655
O60 Si1 1.636191 1_555
O61 P8 1.548986 1_455
O62 P9 1.547731 1_565
O63 P6 1.556731 1_565
O64 P7 1.560905 1_555
O65 Si0 1.633041 1_455
O66 P0 1.593273 1_555
O67 P1 1.600047 1_555
O68 P2 1.575203 1_555
O69 P3 1.558024 1_555
O70 P4 1.562802 1_555
O71 P5 1.557053 1_555
