# generated using pymatgen
data_HfAl
_symmetry_space_group_name_H-M   'P 1'
_cell_length_a   3.26291996
_cell_length_b   4.24826328
_cell_length_c   5.64041793
_cell_angle_alpha   90.00000000
_cell_angle_beta   106.81273860
_cell_angle_gamma   90.00000000
_symmetry_Int_Tables_number   1
_chemical_formula_structural   HfAl
_chemical_formula_sum   'Hf2 Al2'
_cell_volume   74.84397903
_cell_formula_units_Z   2
loop_
 _symmetry_equiv_pos_site_id
 _symmetry_equiv_pos_as_xyz
  1  'x, y, z'
loop_
 _atom_site_type_symbol
 _atom_site_label
 _atom_site_symmetry_multiplicity
 _atom_site_fract_x
 _atom_site_fract_y
 _atom_site_fract_z
 _atom_site_occupancy
  Hf  Hf0  1  0.83676677  0.25000000  0.67353354  1
  Hf  Hf1  1  0.16323323  0.75000000  0.32646646  1
  Al  Al0  1  0.57037648  0.25000000  0.14075397  1
  Al  Al1  1  0.42962352  0.75000000  0.85924603  1
loop_
_geom_bond_atom_site_label_1
_geom_bond_atom_site_label_2
_geom_bond_distance
_geom_bond_site_symmetry_2
Al0 Al1 2.611932 1_554
Al0 Al1 2.611932 1_544
Al0 Hf1 2.859902 1_545
Al0 Hf1 2.859902 1_555
Al0 Hf1 2.859904 1_645
Al0 Hf1 2.859904 1_655
Al0 Hf0 2.876647 1_555
Al0 Hf0 3.004252 1_454
Al0 Hf0 3.004254 1_554
Al1 Hf0 2.859902 1_565
Al1 Hf0 2.859902 1_555
Al1 Hf0 2.859904 1_465
Al1 Hf0 2.859904 1_455
Al1 Hf1 2.876647 1_555
Al1 Hf1 3.004252 1_656
Al1 Hf1 3.004254 1_556
