# generated using pymatgen
data_MnS
_symmetry_space_group_name_H-M   'P 1'
_cell_length_a   3.95357707
_cell_length_b   3.95357778
_cell_length_c   6.34252886
_cell_angle_alpha   90.00000000
_cell_angle_beta   90.00000000
_cell_angle_gamma   59.99998914
_symmetry_Int_Tables_number   1
_chemical_formula_structural   MnS
_chemical_formula_sum   'Mn2 S2'
_cell_volume   85.85656972
_cell_formula_units_Z   2
loop_
 _symmetry_equiv_pos_site_id
 _symmetry_equiv_pos_as_xyz
  1  'x, y, z'
loop_
 _atom_site_type_symbol
 _atom_site_label
 _atom_site_symmetry_multiplicity
 _atom_site_fract_x
 _atom_site_fract_y
 _atom_site_fract_z
 _atom_site_occupancy
  Mn  Mn0  1  0.66666600  0.66666700  0.00115533  1
  Mn  Mn1  1  0.33333400  0.33333300  0.50113856  1
  S  S0  1  0.33333400  0.33333300  0.87384570  1
  S  S1  1  0.66666600  0.66666700  0.37385940  1
loop_
_geom_bond_atom_site_label_1
_geom_bond_atom_site_label_2
_geom_bond_distance
_geom_bond_site_symmetry_2
Mn0 S1 2.363886 1_555
Mn0 S0 2.421208 1_564
Mn0 S0 2.421208 1_554
Mn0 S0 2.421214 1_654
Mn1 S0 2.363906 1_555
Mn1 S1 2.421143 1_545
Mn1 S1 2.421144 1_555
Mn1 S1 2.421149 1_455
