# generated using pymatgen
data_Na3La4P3(SO8)3
_symmetry_space_group_name_H-M   'P 1'
_cell_length_a   9.55300105
_cell_length_b   9.55539121
_cell_length_c   25.19242290
_cell_angle_alpha   89.45350581
_cell_angle_beta   90.53266702
_cell_angle_gamma   120.17364382
_symmetry_Int_Tables_number   1
_chemical_formula_structural   Na3La4P3(SO8)3
_chemical_formula_sum   'Na9 La12 P9 S9 O72'
_cell_volume   1987.92800404
_cell_formula_units_Z   3
loop_
 _symmetry_equiv_pos_site_id
 _symmetry_equiv_pos_as_xyz
  1  'x, y, z'
loop_
 _atom_site_type_symbol
 _atom_site_label
 _atom_site_symmetry_multiplicity
 _atom_site_fract_x
 _atom_site_fract_y
 _atom_site_fract_z
 _atom_site_occupancy
  Na  Na0  1  0.35457197  0.35502479  0.25232005  1
  Na  Na1  1  0.68788917  0.02116398  0.91676596  1
  Na  Na2  1  0.97935456  0.31082735  0.41666097  1
  Na  Na3  1  0.00831266  0.99789430  0.49963166  1
  Na  Na4  1  0.00065932  0.99107795  0.00056943  1
  Na  Na5  1  0.65793317  0.33539554  0.83339182  1
  Na  Na6  1  0.66618122  0.33366369  0.33345038  1
  Na  Na7  1  0.33214610  0.68553112  0.16652942  1
  Na  Na8  1  0.33328642  0.66666765  0.66677569  1
  La  La0  1  0.00869161  0.99430864  0.34976192  1
  La  La1  1  0.00223975  0.99422070  0.84977664  1
  La  La2  1  0.99145139  0.00773737  0.64978991  1
  La  La3  1  0.99499738  0.00242004  0.14993655  1
  La  La4  1  0.67535255  0.32565078  0.68367630  1
  La  La5  1  0.67578194  0.31828295  0.18319631  1
  La  La6  1  0.66048629  0.33487301  0.98359868  1
  La  La7  1  0.66247078  0.33841940  0.48378256  1
  La  La8  1  0.34118760  0.67618210  0.01671916  1
  La  La9  1  0.32349229  0.65755180  0.51710055  1
  La  La10  1  0.32467636  0.67280658  0.31698971  1
  La  La11  1  0.34363027  0.67513188  0.81640664  1
  P  P0  1  0.29916020  0.00444988  0.24831546  1
  P  P1  1  0.00498057  0.29782770  0.25239075  1
  P  P2  1  0.70191571  -0.00000143  0.75193994  1
  P  P3  1  0.96445724  0.33307181  0.58129226  1
  P  P4  1  0.66813201  0.03293284  0.08077519  1
  P  P5  1  0.63231669  0.66970414  0.91680626  1
  P  P6  1  0.33642219  0.96575201  0.91651741  1
  P  P7  1  0.33086033  0.36927280  0.41455804  1
  P  P8  1  0.03173400  0.66227236  0.41757024  1
  S  S0  1  0.69583758  0.69536906  0.24991168  1
  S  S1  1  0.30027998  0.29955730  0.74957709  1
  S  S2  1  -0.00004803  0.70141469  0.74903934  1
  S  S3  1  0.36596405  0.03351709  0.58374967  1
  S  S4  1  0.66708802  0.63213560  0.58423899  1
  S  S5  1  0.96611020  0.63291106  0.08342357  1
  S  S6  1  0.36744893  0.33411754  0.08524462  1
  S  S7  1  0.03275235  0.36591145  0.91678165  1
  S  S8  1  0.63610788  0.96905016  0.41704869  1
  O  O0  1  0.21789852  0.02485337  0.29868182  1
  O  O1  1  0.79239022  0.77334519  0.29780875  1
  O  O2  1  0.98470773  0.19991461  0.30401129  1
  O  O3  1  0.22142574  0.20178704  0.79771782  1
  O  O4  1  0.98404547  0.77960557  0.79742308  1
  O  O5  1  0.79856442  0.01623908  0.80369700  1
  O  O6  1  0.79177590  0.98568916  0.70313318  1
  O  O7  1  0.20271276  0.21791748  0.70172369  1
  O  O8  1  0.01737642  0.80012586  0.70138230  1
  O  O9  1  0.77511013  0.79265066  0.20189286  1
  O  O10  1  0.02221545  0.20900224  0.20367017  1
  O  O11  1  0.19427900  0.98468925  0.19889725  1
  O  O12  1  0.87488104  0.34780358  0.63026044  1
  O  O13  1  0.46405049  0.11545206  0.63164230  1
  O  O14  1  0.64931537  0.53306511  0.63200835  1
  O  O15  1  0.88440151  0.53657357  0.13154157  1
  O  O16  1  0.65249404  0.12119379  0.12984355  1
  O  O17  1  0.46245109  0.35134226  0.13413681  1
  O  O18  1  0.45082218  0.31918279  0.03780403  1
  O  O19  1  0.86842861  0.55247207  0.03537254  1
  O  O20  1  0.68344076  0.13101237  0.02922961  1
  O  O21  1  0.44468685  0.13115825  0.53566683  1
  O  O22  1  0.68257604  0.55386577  0.53595939  1
  O  O23  1  0.86781839  0.31709210  0.52967195  1
  O  O24  1  0.54810911  0.69075726  0.96590449  1
  O  O25  1  0.12832997  0.44366453  0.96465358  1
  O  O26  1  0.31492143  0.86321511  0.96673555  1
  O  O27  1  0.55581123  0.87210431  0.46517113  1
  O  O28  1  0.31212927  0.45883994  0.46303321  1
  O  O29  1  0.13689158  0.68361356  0.46728207  1
  O  O30  1  0.11412048  0.64141658  0.36775681  1
  O  O31  1  0.54051611  0.89142233  0.36898935  1
  O  O32  1  0.35068260  0.46648008  0.36273102  1
  O  O33  1  0.11096968  0.46197609  0.86850618  1
  O  O34  1  0.35770614  0.88157070  0.86725622  1
  O  O35  1  0.52948819  0.64818021  0.86645974  1
  O  O36  1  0.00750348  0.80913594  0.41307743  1
  O  O37  1  0.80158666  0.99061281  0.41369940  1
  O  O38  1  0.16782423  0.20329563  0.41252055  1
  O  O39  1  0.01042507  0.19931312  0.91292177  1
  O  O40  1  0.18939588  0.99047106  0.91115480  1
  O  O41  1  0.79810578  0.83232168  0.91240971  1
  O  O42  1  0.98112826  0.17966677  0.58645286  1
  O  O43  1  0.20275502  0.01547464  0.58774614  1
  O  O44  1  0.81548909  0.79429479  0.58773751  1
  O  O45  1  0.98342378  0.79595977  0.08646268  1
  O  O46  1  0.82153917  0.01730441  0.08574189  1
  O  O47  1  0.20524961  0.18559539  0.08727249  1
  O  O48  1  0.68553346  0.15370542  0.74688687  1
  O  O49  1  0.46382309  0.31774030  0.74564657  1
  O  O50  1  0.85118665  0.53902615  0.74561045  1
  O  O51  1  0.67402415  0.52948240  0.24571565  1
  O  O52  1  0.85754620  0.32242116  0.24671121  1
  O  O53  1  0.46432865  0.16806009  0.24449015  1
  O  O54  1  0.65674178  0.52239222  0.92204040  1
  O  O55  1  0.86604949  0.34367017  0.92028637  1
  O  O56  1  0.49912030  0.13166591  0.92073068  1
  O  O57  1  0.65715154  0.13502144  0.42058215  1
  O  O58  1  0.47800711  0.34497493  0.42110027  1
  O  O59  1  0.86686842  0.49937569  0.42171070  1
  O  O60  1  0.34951079  0.47876236  0.08024927  1
  O  O61  1  0.12750319  0.64654059  0.08030821  1
  O  O62  1  0.51350156  0.86265862  0.07940947  1
  O  O63  1  0.35315161  0.87240991  0.58030827  1
  O  O64  1  0.52208363  0.65069794  0.58031099  1
  O  O65  1  0.13579344  0.48673359  0.57994703  1
  O  O66  1  0.32455295  0.85796486  0.25300869  1
  O  O67  1  0.53085807  0.67525309  0.25342928  1
  O  O68  1  0.16739675  0.46361647  0.25457659  1
  O  O69  1  0.31341523  0.46073453  0.75301495  1
  O  O70  1  0.14461431  0.68257212  0.75306886  1
  O  O71  1  0.53092099  0.84633646  0.75332658  1
loop_
_geom_bond_atom_site_label_1
_geom_bond_atom_site_label_2
_geom_bond_distance
_geom_bond_site_symmetry_2
Na0 O68 2.478971 1_555
Na0 O53 2.494694 1_555
Na0 O51 2.647613 1_555
Na0 O67 2.649629 1_555
Na1 O41 2.508492 1_545
Na1 O56 2.509232 1_555
Na1 O39 2.670337 1_655
Na1 O55 2.670442 1_555
Na2 O38 2.484651 1_655
Na2 O59 2.523876 1_555
Na2 O37 2.651474 1_545
Na2 O57 2.666565 1_555
Na3 O38 2.822006 1_565
Na3 O43 2.832476 1_565
Na3 O36 2.840523 1_555
Na3 O37 2.894250 1_455
Na3 O42 2.899094 1_465
Na3 O44 2.914759 1_455
Na4 O45 2.794024 1_455
Na4 O41 2.830495 1_454
Na4 O46 2.846824 1_465
Na4 O47 2.896878 1_565
Na4 O40 2.900206 1_554
Na4 O39 2.928620 1_564
Na5 O56 2.818522 1_555
Na5 O49 2.823087 1_555
Na5 O54 2.877051 1_555
Na5 O48 2.894108 1_555
Na5 O50 2.909897 1_555
Na5 O55 2.918113 1_555
Na6 O59 2.839540 1_555
Na6 O53 2.857433 1_555
Na6 O51 2.859229 1_555
Na6 O57 2.861465 1_555
Na6 O58 2.896995 1_555
Na6 O52 2.899080 1_555
Na7 O66 2.767316 1_555
Na7 O62 2.781244 1_555
Na7 O61 2.807680 1_555
Na7 O67 2.917514 1_555
Na7 O68 2.917854 1_555
Na7 O60 3.012273 1_555
Na8 O71 2.828917 1_555
Na8 O65 2.834539 1_555
Na8 O69 2.859871 1_555
Na8 O63 2.863043 1_555
Na8 O70 2.890014 1_555
Na8 O64 2.894311 1_555
La0 O0 2.278074 1_565
La0 O36 2.366740 1_555
La0 O2 2.375949 1_465
La0 O38 2.400493 1_565
La0 O1 2.461185 1_455
La0 O37 2.549122 1_455
La1 O5 2.354252 1_465
La1 O40 2.366590 1_555
La1 O41 2.379877 1_455
La1 O4 2.379972 1_455
La1 O3 2.421742 1_565
La1 O39 2.506068 1_565
La2 O6 2.264321 1_545
La2 O42 2.316162 1_555
La2 O7 2.396838 1_655
La2 O44 2.448403 1_545
La2 O8 2.474848 1_645
La2 O43 2.535677 1_655
La3 O10 2.307619 1_655
La3 O11 2.334711 1_645
La3 O46 2.358840 1_555
La3 O9 2.431448 1_545
La3 O47 2.462159 1_655
La3 O45 2.509745 1_545
La4 O12 2.263959 1_555
La4 O48 2.313568 1_555
La4 O13 2.398454 1_555
La4 O50 2.445859 1_555
La4 O14 2.474770 1_555
La4 O49 2.535598 1_555
La5 O16 2.241495 1_555
La5 O52 2.336120 1_555
La5 O53 2.371963 1_555
La5 O15 2.415297 1_555
La5 O17 2.524563 1_555
La5 O51 2.578535 1_555
La6 O20 2.355023 1_556
La6 O54 2.372188 1_555
La6 O18 2.375715 1_556
La6 O56 2.378942 1_555
La6 O19 2.412900 1_556
La6 O55 2.509402 1_555
La7 O23 2.362507 1_555
La7 O59 2.369693 1_555
La7 O22 2.377454 1_555
La7 O58 2.379109 1_555
La7 O21 2.412135 1_555
La7 O57 2.504639 1_555
La8 O26 2.290097 1_554
La8 O24 2.309220 1_554
La8 O62 2.331476 1_555
La8 O60 2.493443 1_555
La8 O25 2.501220 1_554
La8 O61 2.506883 1_555
La9 O29 2.283310 1_555
La9 O28 2.304731 1_555
La9 O65 2.333977 1_555
La9 O64 2.491183 1_555
La9 O27 2.503797 1_555
La9 O63 2.510005 1_555
La10 O30 2.281577 1_555
La10 O66 2.382428 1_555
La10 O32 2.391702 1_555
La10 O68 2.392124 1_555
La10 O31 2.450199 1_555
La10 O67 2.540806 1_555
La11 O35 2.284857 1_555
La11 O34 2.308383 1_555
La11 O71 2.337468 1_555
La11 O70 2.498592 1_555
La11 O33 2.502738 1_555
La11 O69 2.508001 1_555
O0 P0 1.557498 1_555
O1 S0 1.472249 1_555
O2 P1 1.550271 1_655
O3 S1 1.482907 1_555
O4 S2 1.483909 1_655
O5 P2 1.553738 1_555
O6 P2 1.551853 1_565
O7 S1 1.482147 1_555
O8 S2 1.477530 1_555
O9 S0 1.479499 1_555
O10 P1 1.555023 1_555
O11 P0 1.542909 1_565
O12 P3 1.554973 1_555
O13 S3 1.485338 1_555
O14 S4 1.481121 1_555
O15 S5 1.483282 1_555
O16 P4 1.552942 1_555
O17 S6 1.483506 1_555
O18 S6 1.489396 1_555
O19 S5 1.484137 1_555
O20 P4 1.558365 1_555
O21 S3 1.481014 1_555
O22 S4 1.480715 1_555
O23 P3 1.551291 1_555
O24 P5 1.550303 1_555
O25 S7 1.467929 1_555
O26 P6 1.543232 1_555
O27 S8 1.482503 1_555
O28 P7 1.560061 1_555
O29 P8 1.547484 1_555
O30 P8 1.553954 1_555
O31 S8 1.471614 1_555
O32 P7 1.551771 1_555
O33 S7 1.478555 1_555
O34 P6 1.554549 1_555
O35 P5 1.547477 1_555
O36 P8 1.535830 1_555
O37 S8 1.491070 1_555
O38 P7 1.568659 1_555
O39 S7 1.500126 1_555
O40 P6 1.541473 1_555
O41 P5 1.568832 1_555
O42 P3 1.556155 1_555
O43 S3 1.484299 1_555
O44 S4 1.486804 1_555
O45 S5 1.484441 1_555
O46 P4 1.549799 1_555
O47 S6 1.485652 1_555
O48 P2 1.557237 1_555
O49 S1 1.486787 1_555
O50 S2 1.489428 1_655
O51 S0 1.495968 1_555
O52 P1 1.545229 1_655
O53 P0 1.569480 1_555
O54 P5 1.542494 1_555
O55 S7 1.500364 1_655
O56 P6 1.569563 1_545
O57 S8 1.498450 1_545
O58 P7 1.542752 1_555
O59 P8 1.565187 1_655
O60 S6 1.479824 1_555
O61 S5 1.483387 1_455
O62 P4 1.553895 1_565
O63 S3 1.485031 1_565
O64 S4 1.484658 1_555
O65 P3 1.555726 1_455
O66 P0 1.539375 1_565
O67 S0 1.492137 1_555
O68 P1 1.565001 1_555
O69 S1 1.484340 1_555
O70 S2 1.483139 1_555
O71 P2 1.553869 1_565
