# generated using pymatgen
data_MgMo2W(SeS2)2
_symmetry_space_group_name_H-M   'P 1'
_cell_length_a   3.23513200
_cell_length_b   3.23515359
_cell_length_c   36.62826806
_cell_angle_alpha   89.99390383
_cell_angle_beta   90.00000000
_cell_angle_gamma   119.99975877
_symmetry_Int_Tables_number   1
_chemical_formula_structural   MgMo2W(SeS2)2
_chemical_formula_sum   'Mg1 Mo2 W1 Se2 S4'
_cell_volume   331.99762539
_cell_formula_units_Z   1
loop_
 _symmetry_equiv_pos_site_id
 _symmetry_equiv_pos_as_xyz
  1  'x, y, z'
loop_
 _atom_site_type_symbol
 _atom_site_label
 _atom_site_symmetry_multiplicity
 _atom_site_fract_x
 _atom_site_fract_y
 _atom_site_fract_z
 _atom_site_occupancy
  Mg  Mg0  1  0.33329200  0.66658600  0.46844800  1
  Mo  Mo0  1  0.33331800  0.66663400  0.11593200  1
  Mo  Mo1  1  0.33332900  0.66665600  0.58887300  1
  W  W0  1  0.66665700  0.33331500  0.34003700  1
  Se  Se0  1  0.33335100  0.66670100  0.38710500  1
  Se  Se1  1  0.33334300  0.66668700  0.29312100  1
  S  S0  1  0.66671300  0.33342500  0.07359700  1
  S  S1  1  0.66671800  0.33343700  0.54628700  1
  S  S2  1  0.66659600  0.33319100  0.15825400  1
  S  S3  1  0.66661800  0.33323600  0.63109800  1
loop_
_geom_bond_atom_site_label_1
_geom_bond_atom_site_label_2
_geom_bond_distance
_geom_bond_site_symmetry_2
Mg0 Se0 2.979453 1_555
Mo0 S2 2.427217 1_565
Mo0 S2 2.427341 1_555
Mo0 S2 2.427343 1_455
Mo0 S0 2.427539 1_555
Mo0 S0 2.427542 1_455
Mo0 S0 2.427733 1_565
Mo1 S3 2.424999 1_565
Mo1 S3 2.425048 1_555
Mo1 S3 2.425052 1_455
Mo1 S1 2.433431 1_555
Mo1 S1 2.433438 1_455
Mo1 S1 2.433593 1_565
Se0 W0 2.541585 1_565
Se0 W0 2.541970 1_555
Se0 W0 2.541975 1_455
Se1 W0 2.538029 1_555
Se1 W0 2.538030 1_455
Se1 W0 2.538152 1_565
