# generated using pymatgen
data_NaCa2Nb2P3(SO8)3
_symmetry_space_group_name_H-M   'P 1'
_cell_length_a   9.02809965
_cell_length_b   9.01682566
_cell_length_c   23.27934414
_cell_angle_alpha   90.19413360
_cell_angle_beta   89.85496105
_cell_angle_gamma   120.03979275
_symmetry_Int_Tables_number   1
_chemical_formula_structural   NaCa2Nb2P3(SO8)3
_chemical_formula_sum   'Na3 Ca6 Nb6 P9 S9 O72'
_cell_volume   1640.49311324
_cell_formula_units_Z   3
loop_
 _symmetry_equiv_pos_site_id
 _symmetry_equiv_pos_as_xyz
  1  'x, y, z'
loop_
 _atom_site_type_symbol
 _atom_site_label
 _atom_site_symmetry_multiplicity
 _atom_site_fract_x
 _atom_site_fract_y
 _atom_site_fract_z
 _atom_site_occupancy
  Na  Na0  1  0.98403712  0.00000440  0.99974633  1
  Na  Na1  1  0.68209003  0.35052751  0.83501732  1
  Na  Na2  1  0.65679472  0.32510317  0.34133595  1
  Ca  Ca0  1  0.99447666  0.99855956  0.85913046  1
  Ca  Ca1  1  0.99603824  0.99735840  0.14607125  1
  Ca  Ca2  1  0.67817228  0.33747045  0.68054585  1
  Ca  Ca3  1  0.67152600  0.33781958  0.97444920  1
  Ca  Ca4  1  0.66943649  0.32670699  0.48642251  1
  Ca  Ca5  1  0.33926805  0.66904722  0.30854331  1
  Nb  Nb0  1  0.99711983  0.99266452  0.35522610  1
  Nb  Nb1  1  0.00102255  0.99725907  0.64788932  1
  Nb  Nb2  1  0.66048871  0.32267491  0.19051132  1
  Nb  Nb3  1  0.33922728  0.66584181  0.02516239  1
  Nb  Nb4  1  0.33442665  0.65653463  0.51341182  1
  Nb  Nb5  1  0.32582047  0.65966438  0.81051087  1
  P  P0  1  0.28695514  0.00645142  0.24966919  1
  P  P1  1  0.71773473  0.70346698  0.24905106  1
  P  P2  1  0.00322705  0.71220769  0.75252878  1
  P  P3  1  0.97608040  0.33514666  0.58371442  1
  P  P4  1  0.66250586  0.04467226  0.08092902  1
  P  P5  1  0.60948951  0.66620823  0.91613088  1
  P  P6  1  0.05539847  0.38880183  0.91809501  1
  P  P7  1  0.62812813  0.95726431  0.41406799  1
  P  P8  1  0.32911807  0.36597450  0.41239399  1
  S  S0  1  0.98840984  0.28288460  0.25063677  1
  S  S1  1  0.28900089  0.29216646  0.75100015  1
  S  S2  1  0.70475820  0.99316532  0.75087379  1
  S  S3  1  0.35939249  0.02248623  0.58367504  1
  S  S4  1  0.66478893  0.64024495  0.58356011  1
  S  S5  1  0.96107193  0.61927010  0.08232541  1
  S  S6  1  0.38192257  0.33972729  0.08276382  1
  S  S7  1  0.33325436  0.94246508  0.91702828  1
  S  S8  1  0.04469937  0.67187299  0.41545593  1
  O  O0  1  0.19813497  0.03919064  0.30404600  1
  O  O1  1  0.84132477  0.79900902  0.30379795  1
  O  O2  1  0.95625650  0.16973557  0.30207564  1
  O  O3  1  0.21146329  0.19374386  0.80230141  1
  O  O4  1  0.98428749  0.79776261  0.80469261  1
  O  O5  1  0.80859532  0.02286081  0.80156465  1
  O  O6  1  0.79412025  0.97065875  0.69875641  1
  O  O7  1  0.17804583  0.20693690  0.69896915  1
  O  O8  1  0.02634363  0.83116011  0.69769593  1
  O  O9  1  0.79619997  0.80573589  0.19650821  1
  O  O10  1  0.01145761  0.21114936  0.19826566  1
  O  O11  1  0.19665224  0.99632085  0.19549774  1
  O  O12  1  0.91347495  0.38143860  0.63670597  1
  O  O13  1  0.46367231  0.09171431  0.63483865  1
  O  O14  1  0.62486164  0.53388930  0.63426060  1
  O  O15  1  0.87829380  0.51151900  0.13425278  1
  O  O16  1  0.63791938  0.13826867  0.13675456  1
  O  O17  1  0.48989749  0.36596271  0.13516948  1
  O  O18  1  0.45953537  0.31925049  0.03128592  1
  O  O19  1  0.85988865  0.54392091  0.03102145  1
  O  O20  1  0.67969905  0.14779105  0.02889015  1
  O  O21  1  0.42149553  0.13350322  0.53399819  1
  O  O22  1  0.70992448  0.57726678  0.53313481  1
  O  O23  1  0.86383976  0.28189847  0.53170397  1
  O  O24  1  0.50789124  0.67222742  0.97187238  1
  O  O25  1  0.16290842  0.49434349  0.97146308  1
  O  O26  1  0.32490456  0.84331539  0.96950851  1
  O  O27  1  0.52935122  0.83439705  0.46892483  1
  O  O28  1  0.30655673  0.46740481  0.46848633  1
  O  O29  1  0.15610763  0.69573284  0.46798454  1
  O  O30  1  0.11815175  0.64479917  0.36452310  1
  O  O31  1  0.52048816  0.87673977  0.36276034  1
  O  O32  1  0.34926743  0.47405719  0.36210136  1
  O  O33  1  0.15717060  0.49659980  0.86131690  1
  O  O34  1  0.34100709  0.85085761  0.86339408  1
  O  O35  1  0.50273760  0.66471189  0.86172189  1
  O  O36  1  0.04000019  0.83770683  0.41043277  1
  O  O37  1  0.80644680  0.96085602  0.40540411  1
  O  O38  1  0.15554375  0.18928085  0.40564043  1
  O  O39  1  0.05335228  0.22081180  0.91902078  1
  O  O40  1  0.17776653  0.95341334  0.91701554  1
  O  O41  1  0.77967996  0.82993391  0.91953620  1
  O  O42  1  0.00416571  0.17718729  0.60211348  1
  O  O43  1  0.18179072  0.00141146  0.59795036  1
  O  O44  1  0.81672596  0.81837574  0.59732013  1
  O  O45  1  0.99684990  0.79485559  0.08816366  1
  O  O46  1  0.80608047  0.00813432  0.08814574  1
  O  O47  1  0.20759878  0.19991688  0.08894295  1
  O  O48  1  0.67291686  0.13466942  0.74193614  1
  O  O49  1  0.46103609  0.32199205  0.74169750  1
  O  O50  1  0.85724766  0.53277442  0.74319201  1
  O  O51  1  0.71273721  0.52133827  0.23964825  1
  O  O52  1  0.82033674  0.29112577  0.24410258  1
  O  O53  1  0.47626517  0.18397409  0.24134656  1
  O  O54  1  0.61173366  0.50025352  0.91355548  1
  O  O55  1  0.88581552  0.38249766  0.91331225  1
  O  O56  1  0.48932508  0.10871295  0.91574743  1
  O  O57  1  0.66514830  0.13707909  0.42499273  1
  O  O58  1  0.47587733  0.33771960  0.42557283  1
  O  O59  1  0.87105712  0.53190942  0.42538300  1
  O  O60  1  0.37107343  0.50430351  0.07693903  1
  O  O61  1  0.13458112  0.62887377  0.07500699  1
  O  O62  1  0.48935877  0.86152000  0.07326086  1
  O  O63  1  0.32933084  0.84816866  0.57064207  1
  O  O64  1  0.51664079  0.66758858  0.57120590  1
  O  O65  1  0.15921316  0.49033883  0.56641830  1
  O  O66  1  0.32692143  0.86962749  0.26075671  1
  O  O67  1  0.53962357  0.65900600  0.26097293  1
  O  O68  1  0.12298043  0.45493571  0.25992935  1
  O  O69  1  0.29925179  0.46611723  0.75645003  1
  O  O70  1  0.17583375  0.70285437  0.76011525  1
  O  O71  1  0.53521945  0.82981372  0.75667680  1
loop_
_geom_bond_atom_site_label_1
_geom_bond_atom_site_label_2
_geom_bond_distance
_geom_bond_site_symmetry_2
Na0 O41 2.531296 1_545
Na0 O39 2.580528 1_655
Na0 O46 2.630893 1_556
Na0 O40 2.767271 1_645
Na0 O45 2.812994 1_546
Na0 O47 2.826276 1_656
Na1 O55 2.504116 1_555
Na1 O54 2.530771 1_555
Na1 O50 2.678708 1_555
Na1 O56 2.743505 1_555
Na1 O49 2.876194 1_555
Na1 O48 2.881219 1_555
Na2 O58 2.587371 1_555
Na2 O57 2.612239 1_555
Na2 O59 2.725837 1_555
Na2 O53 2.759794 1_555
Na2 O52 2.797976 1_555
Na2 O51 2.849082 1_555
Ca0 O4 2.170447 1_555
Ca0 O5 2.245352 1_565
Ca0 O41 2.257962 1_555
Ca0 O39 2.271725 1_665
Ca0 O3 2.288229 1_665
Ca0 O40 2.325768 1_655
Ca1 O9 2.121551 1_555
Ca1 O11 2.152186 1_655
Ca1 O10 2.219938 1_665
Ca1 O46 2.224481 1_565
Ca1 O45 2.268918 1_555
Ca1 O47 2.294235 1_665
Ca2 O12 2.204559 1_555
Ca2 O50 2.232894 1_555
Ca2 O48 2.306297 1_555
Ca2 O14 2.323429 1_555
Ca2 O13 2.343237 1_555
Ca2 O49 2.366898 1_555
Ca3 O20 2.165483 1_556
Ca3 O19 2.215973 1_556
Ca3 O18 2.260407 1_556
Ca3 O55 2.267220 1_555
Ca3 O54 2.292505 1_555
Ca3 O56 2.330419 1_555
Ca4 O57 2.210774 1_555
Ca4 O23 2.253216 1_555
Ca4 O58 2.292885 1_555
Ca4 O21 2.316974 1_555
Ca4 O59 2.321349 1_555
Ca4 O22 2.361968 1_555
Ca5 O67 2.158601 1_555
Ca5 O31 2.168794 1_555
Ca5 O66 2.176482 1_555
Ca5 O32 2.197322 1_555
Ca5 O68 2.245643 1_555
Ca5 O30 2.298454 1_555
Nb0 O37 1.976813 1_555
Nb0 O1 1.999025 1_555
Nb0 O38 2.005427 1_665
Nb0 O0 2.029570 1_665
Nb0 O36 2.076061 1_655
Nb0 O2 2.195826 1_565
Nb1 O42 1.932347 1_565
Nb1 O43 1.986411 1_565
Nb1 O8 1.998893 1_555
Nb1 O44 2.016426 1_455
Nb1 O6 2.119219 1_455
Nb1 O7 2.124104 1_565
Nb2 O53 1.910045 1_555
Nb2 O51 1.970436 1_555
Nb2 O16 2.005075 1_555
Nb2 O52 2.035314 1_555
Nb2 O17 2.190750 1_555
Nb2 O15 2.265175 1_555
Nb3 O24 1.940128 1_554
Nb3 O62 1.950357 1_555
Nb3 O25 2.005079 1_554
Nb3 O60 2.022370 1_555
Nb3 O61 2.060629 1_555
Nb3 O26 2.116159 1_554
Nb4 O28 1.903929 1_555
Nb4 O65 1.974809 1_555
Nb4 O27 1.979342 1_555
Nb4 O64 2.091022 1_555
Nb4 O29 2.101386 1_555
Nb4 O63 2.196934 1_555
Nb5 O33 1.907946 1_555
Nb5 O70 1.975015 1_555
Nb5 O35 1.977608 1_555
Nb5 O69 2.062656 1_555
Nb5 O34 2.063061 1_555
Nb5 O71 2.143693 1_555
O0 P0 1.600586 1_555
O1 P1 1.627507 1_555
O2 S0 1.506348 1_555
O3 S1 1.443894 1_555
O4 P2 1.491185 1_655
O5 S2 1.447472 1_545
O6 S2 1.523599 1_555
O7 S1 1.513352 1_555
O8 P2 1.614672 1_555
O9 P1 1.482405 1_555
O10 S0 1.440890 1_455
O11 P0 1.480937 1_565
O12 P3 1.498220 1_555
O13 S3 1.451499 1_555
O14 S4 1.449849 1_555
O15 S5 1.496718 1_555
O16 P4 1.621445 1_555
O17 S6 1.505897 1_555
O18 S6 1.443932 1_555
O19 S5 1.449523 1_555
O20 P4 1.489421 1_555
O21 S3 1.447896 1_555
O22 S4 1.446104 1_555
O23 P3 1.496150 1_555
O24 P5 1.603572 1_555
O25 P6 1.569878 1_555
O26 S7 1.495651 1_555
O27 P7 1.633435 1_555
O28 P8 1.661358 1_555
O29 S8 1.530046 1_555
O30 S8 1.435731 1_555
O31 P7 1.480447 1_555
O32 P8 1.477412 1_555
O33 P6 1.626171 1_555
O34 S7 1.515443 1_555
O35 P5 1.589454 1_555
O36 S8 1.521875 1_555
O37 P7 1.606125 1_555
O38 P8 1.587007 1_555
O39 P6 1.505801 1_555
O40 S7 1.455690 1_555
O41 P5 1.508414 1_555
O42 P3 1.625612 1_455
O43 S3 1.552460 1_555
O44 S4 1.535209 1_555
O45 S5 1.454702 1_555
O46 P4 1.498649 1_555
O47 S6 1.449304 1_555
O48 S2 1.457127 1_545
O49 S1 1.453271 1_555
O50 P2 1.505333 1_655
O51 P1 1.634098 1_555
O52 S0 1.563726 1_555
O53 P0 1.667988 1_555
O54 P5 1.507618 1_555
O55 P6 1.507751 1_655
O56 S7 1.455577 1_545
O57 P7 1.503422 1_545
O58 P8 1.501697 1_555
O59 S8 1.457055 1_655
O60 S6 1.541771 1_555
O61 S5 1.534032 1_455
O62 P4 1.617868 1_565
O63 S3 1.485370 1_565
O64 S4 1.504987 1_555
O65 P3 1.593075 1_455
O66 P0 1.472136 1_565
O67 P1 1.475296 1_555
O68 S0 1.428826 1_455
O69 S1 1.529111 1_555
O70 P2 1.612362 1_555
O71 S2 1.507855 1_555
