# generated using pymatgen
data_MgMn6(O5F)2
_symmetry_space_group_name_H-M   'P 1'
_cell_length_a   11.10648727
_cell_length_b   6.84246724
_cell_length_c   2.95189605
_cell_angle_alpha   89.98662439
_cell_angle_beta   90.01141049
_cell_angle_gamma   106.66276639
_symmetry_Int_Tables_number   1
_chemical_formula_structural   MgMn6(O5F)2
_chemical_formula_sum   'Mg1 Mn6 O10 F2'
_cell_volume   214.91171879
_cell_formula_units_Z   1
loop_
 _symmetry_equiv_pos_site_id
 _symmetry_equiv_pos_as_xyz
  1  'x, y, z'
loop_
 _atom_site_type_symbol
 _atom_site_label
 _atom_site_symmetry_multiplicity
 _atom_site_fract_x
 _atom_site_fract_y
 _atom_site_fract_z
 _atom_site_occupancy
  Mg  Mg0  1  0.82831300  0.66362800  0.51180000  1
  Mn  Mn0  1  0.04429900  0.03110200  0.01052200  1
  Mn  Mn1  1  0.34268300  0.15510600  0.51038500  1
  Mn  Mn2  1  0.02497500  0.49706400  0.51068300  1
  Mn  Mn3  1  0.64032900  0.30315000  0.01125000  1
  Mn  Mn4  1  0.32817600  0.68097800  0.01065700  1
  Mn  Mn5  1  0.62797700  0.83152600  0.51170800  1
  O  O0  1  0.15730200  0.05877000  0.51025200  1
  O  O1  1  0.02919200  0.32133600  0.01065300  1
  O  O2  1  0.96898700  0.66291500  0.01133300  1
  O  O3  1  0.63236300  0.01245200  0.01161400  1
  O  O4  1  0.52324500  0.28542900  0.51102400  1
  O  O5  1  0.21096800  0.62737800  0.51056600  1
  O  O6  1  0.44453400  0.70771500  0.51076700  1
  O  O7  1  0.75868500  0.36385400  0.51142600  1
  O  O8  1  0.69141100  0.67776100  0.01138200  1
  O  O9  1  0.34775600  0.97915200  0.01040700  1
  F  F0  1  0.32639700  0.35387300  0.01052500  1
  F  F1  1  0.90365900  0.96389800  0.51137900  1
loop_
_geom_bond_atom_site_label_1
_geom_bond_atom_site_label_2
_geom_bond_distance
_geom_bond_site_symmetry_2
Mg0 O7 1.973768 1_555
Mg0 O8 2.140406 1_556
Mg0 O8 2.141659 1_555
Mg0 O2 2.149164 1_556
Mg0 O2 2.151485 1_555
Mn0 O0 1.910559 1_555
Mn0 O0 1.912107 1_554
Mn0 O1 2.040369 1_555
Mn0 O2 2.416214 1_445
Mn1 O9 1.915554 1_546
Mn1 O9 1.915904 1_545
Mn1 O4 1.947130 1_555
Mn1 O0 1.973675 1_555
Mn2 O1 1.912483 1_556
Mn2 O1 1.913067 1_555
Mn2 O5 2.001499 1_555
Mn2 O2 2.061750 1_455
Mn2 O2 2.065051 1_456
Mn3 O7 1.940295 1_554
Mn3 O7 1.940834 1_555
Mn3 O4 1.947416 1_555
Mn3 O4 1.948078 1_554
Mn3 O3 1.965551 1_555
Mn3 O8 2.461345 1_555
Mn4 O5 1.932216 1_555
Mn4 O5 1.932361 1_554
Mn4 O6 1.935483 1_554
Mn4 O6 1.935651 1_555
Mn4 O9 1.988832 1_555
Mn5 O3 1.918020 1_565
Mn5 O3 1.918023 1_566
Mn5 O6 1.969491 1_555
Mn5 O8 2.050093 1_556
Mn5 O8 2.052033 1_555
F0 Mn1 2.049320 1_555
F0 Mn1 2.050424 1_554
F0 Mn4 2.232620 1_555
F1 Mg0 1.983838 1_555
F1 Mn0 2.099951 1_666
F1 Mn0 2.103790 1_665
