# generated using pymatgen
data_MgZn2(SbO3)4
_symmetry_space_group_name_H-M   'P 1'
_cell_length_a   4.97977000
_cell_length_b   4.97977000
_cell_length_c   9.73843400
_cell_angle_alpha   90.00000000
_cell_angle_beta   90.00000000
_cell_angle_gamma   90.00000000
_symmetry_Int_Tables_number   1
_chemical_formula_structural   MgZn2(SbO3)4
_chemical_formula_sum   'Mg1 Zn2 Sb4 O12'
_cell_volume   241.49475028
_cell_formula_units_Z   1
loop_
 _symmetry_equiv_pos_site_id
 _symmetry_equiv_pos_as_xyz
  1  'x, y, z'
loop_
 _atom_site_type_symbol
 _atom_site_label
 _atom_site_symmetry_multiplicity
 _atom_site_fract_x
 _atom_site_fract_y
 _atom_site_fract_z
 _atom_site_occupancy
  Mg  Mg0  1  0.50000000  0.00000000  0.25000000  1
  Zn  Zn0  1  0.00000000  0.00000000  0.99944400  1
  Zn  Zn1  1  0.50000000  0.50000000  0.50055600  1
  Sb  Sb0  1  0.50000000  0.50000000  0.81826600  1
  Sb  Sb1  1  0.00000000  0.00000000  0.36271000  1
  Sb  Sb2  1  0.50000000  0.50000000  0.13729000  1
  Sb  Sb3  1  0.00000000  0.00000000  0.68173400  1
  O  O0  1  0.69950100  0.69872600  0.67248200  1
  O  O1  1  0.30049900  0.30127400  0.67248200  1
  O  O2  1  0.69219700  0.70760500  0.33505800  1
  O  O3  1  0.20760500  0.80780300  0.16494200  1
  O  O4  1  0.79239500  0.19219700  0.16494200  1
  O  O5  1  0.80127400  0.19950100  0.82751800  1
  O  O6  1  0.31399800  0.31159600  0.97977000  1
  O  O7  1  0.18840400  0.81399800  0.52023000  1
  O  O8  1  0.81159600  0.18600200  0.52023000  1
  O  O9  1  0.68600200  0.68840400  0.97977000  1
  O  O10  1  0.30780300  0.29239500  0.33505800  1
  O  O11  1  0.19872600  0.80049900  0.82751800  1
loop_
_geom_bond_atom_site_label_1
_geom_bond_atom_site_label_2
_geom_bond_distance
_geom_bond_site_symmetry_2
Mg0 O3 1.929321 1_545
Mg0 O4 1.929321 1_555
Mg0 O2 1.929321 1_545
Mg0 O10 1.929321 1_555
O0 Sb0 1.995465 1_555
O0 Sb3 2.120897 1_665
O0 Zn1 2.183931 1_555
O1 Sb0 1.995465 1_555
O1 Sb3 2.120897 1_555
O1 Zn1 2.183931 1_555
O2 Sb1 2.131212 1_665
O2 Zn1 2.140649 1_555
O2 Sb2 2.386234 1_555
O3 Sb2 2.131212 1_555
O3 Zn0 2.140649 1_564
O3 Sb1 2.386234 1_565
O4 Sb2 2.131212 1_555
O4 Zn0 2.140649 1_654
O4 Sb1 2.386234 1_655
O5 Sb3 1.995465 1_655
O5 Sb0 2.120897 1_555
O5 Zn0 2.183931 1_655
O6 Sb2 2.022701 1_556
O6 Sb0 2.052281 1_555
O6 Zn0 2.211192 1_555
O7 Sb1 2.022701 1_565
O7 Sb3 2.052281 1_565
O7 Zn1 2.211192 1_555
O8 Sb1 2.022701 1_655
O8 Sb3 2.052281 1_655
O8 Zn1 2.211192 1_555
O9 Sb2 2.022701 1_556
O9 Sb0 2.052281 1_555
O9 Zn0 2.211192 1_665
O10 Sb1 2.131212 1_555
O10 Zn1 2.140649 1_555
O10 Sb2 2.386234 1_555
O11 Sb3 1.995465 1_565
O11 Sb0 2.120897 1_555
O11 Zn0 2.183931 1_565
