# generated using pymatgen
data_Y2MgCr3O9
_symmetry_space_group_name_H-M   'P 1'
_cell_length_a   3.80503501
_cell_length_b   3.80492526
_cell_length_c   11.74713365
_cell_angle_alpha   90.00150975
_cell_angle_beta   89.99403330
_cell_angle_gamma   90.00488635
_symmetry_Int_Tables_number   1
_chemical_formula_structural   Y2MgCr3O9
_chemical_formula_sum   'Y2 Mg1 Cr3 O9'
_cell_volume   170.07351728
_cell_formula_units_Z   1
loop_
 _symmetry_equiv_pos_site_id
 _symmetry_equiv_pos_as_xyz
  1  'x, y, z'
loop_
 _atom_site_type_symbol
 _atom_site_label
 _atom_site_symmetry_multiplicity
 _atom_site_fract_x
 _atom_site_fract_y
 _atom_site_fract_z
 _atom_site_occupancy
  Y  Y0  1  0.99991600  0.00006700  0.98230600  1
  Y  Y1  1  0.00009600  0.99993700  0.35105900  1
  Mg  Mg0  1  0.99999900  0.00000000  0.66664300  1
  Cr  Cr0  1  0.49999200  0.50001000  0.16664100  1
  Cr  Cr1  1  0.49998000  0.49999300  0.50157600  1
  Cr  Cr2  1  0.50002100  0.49999900  0.83182500  1
  O  O0  1  0.49987200  0.50001400  0.00242800  1
  O  O1  1  0.50011900  0.49998000  0.33089700  1
  O  O2  1  0.50000300  0.50000000  0.66666600  1
  O  O3  1  0.49999700  0.00000100  0.16665400  1
  O  O4  1  0.49988900  0.99999600  0.48498300  1
  O  O5  1  0.50011900  0.00000300  0.84832900  1
  O  O6  1  0.99999700  0.50000000  0.16665900  1
  O  O7  1  0.99998800  0.50002100  0.48496800  1
  O  O8  1  0.00001800  0.49997700  0.84836800  1
loop_
_geom_bond_atom_site_label_1
_geom_bond_atom_site_label_2
_geom_bond_distance
_geom_bond_site_symmetry_2
Mg0 O2 2.690402 1_545
Mg0 O2 2.690423 1_655
Mg0 O2 2.690631 1_555
Mg0 O2 2.690653 1_645
Cr0 O3 1.902428 1_565
Cr0 O3 1.902497 1_555
Cr0 O6 1.902498 1_455
Cr0 O6 1.902537 1_555
Cr0 O0 1.929032 1_555
Cr0 O1 1.929537 1_555
Cr1 O4 1.912406 1_545
Cr1 O4 1.912439 1_555
Cr1 O7 1.912485 1_455
Cr1 O7 1.912505 1_555
Cr1 O2 1.939334 1_555
Cr1 O1 2.004989 1_555
Cr2 O5 1.912306 1_555
Cr2 O5 1.912326 1_565
Cr2 O8 1.912408 1_555
Cr2 O8 1.912426 1_655
Cr2 O2 1.940145 1_555
Cr2 O0 2.004096 1_556
O0 Y0 2.700529 1_454
O0 Y0 2.700959 1_554
O0 Y0 2.701023 1_564
O0 Y0 2.701051 1_464
O1 Y1 2.700654 1_655
O1 Y1 2.700971 1_555
O1 Y1 2.700981 1_545
O1 Y1 2.701121 1_645
O3 Y0 2.882220 1_554
O3 Y1 2.882678 1_545
O3 Y0 2.882925 1_454
O3 Y1 2.883473 1_645
O4 Y1 2.468244 1_555
O4 Y1 2.469206 1_655
O5 Y0 2.468653 1_555
O5 Y0 2.469591 1_455
O6 Y0 2.882375 1_554
O6 Y0 2.882787 1_564
O6 Y1 2.882800 1_655
O6 Y1 2.883191 1_645
O7 Y1 2.468356 1_655
O7 Y1 2.468785 1_645
O8 Y0 2.468556 1_455
O8 Y0 2.469020 1_465
