# generated using pymatgen
data_MgTe4Mo2(WS2)2
_symmetry_space_group_name_H-M   'P 1'
_cell_length_a   3.36775351
_cell_length_b   3.36798812
_cell_length_c   43.34238772
_cell_angle_alpha   90.00067061
_cell_angle_beta   90.12694471
_cell_angle_gamma   120.00246802
_symmetry_Int_Tables_number   1
_chemical_formula_structural   MgTe4Mo2(WS2)2
_chemical_formula_sum   'Mg1 Te4 Mo2 W2 S4'
_cell_volume   425.73767463
_cell_formula_units_Z   1
loop_
 _symmetry_equiv_pos_site_id
 _symmetry_equiv_pos_as_xyz
  1  'x, y, z'
loop_
 _atom_site_type_symbol
 _atom_site_label
 _atom_site_symmetry_multiplicity
 _atom_site_fract_x
 _atom_site_fract_y
 _atom_site_fract_z
 _atom_site_occupancy
  Mg  Mg0  1  0.33211800  0.66609800  0.37407400  1
  Te  Te0  1  0.33461000  0.66734700  0.70149400  1
  Te  Te1  1  0.66542000  0.33267600  0.05030000  1
  Te  Te2  1  0.66843800  0.33419700  0.13740100  1
  Te  Te3  1  0.33130800  0.66570500  0.61387900  1
  Mo  Mo0  1  0.33353300  0.66673600  0.09383100  1
  Mo  Mo1  1  0.66644700  0.33324400  0.27770500  1
  W  W0  1  0.32996300  0.66493600  0.47745000  1
  W  W1  1  0.66645700  0.33327600  0.65769800  1
  S  S0  1  0.33427100  0.66715800  0.31244900  1
  S  S1  1  0.66211100  0.33099800  0.44241500  1
  S  S2  1  0.66498500  0.33244700  0.51225400  1
  S  S3  1  0.33176800  0.66590000  0.24321400  1
loop_
_geom_bond_atom_site_label_1
_geom_bond_atom_site_label_2
_geom_bond_distance
_geom_bond_site_symmetry_2
Mg0 S0 2.670998 1_555
Te0 W1 2.716901 1_455
Te0 W1 2.717549 1_555
Te0 W1 2.717597 1_565
Te3 W1 2.717677 1_455
Te3 W1 2.718207 1_565
Te3 W1 2.718253 1_555
Mo0 Te1 2.708826 1_455
Mo0 Te1 2.709589 1_555
Mo0 Te1 2.709599 1_565
Mo0 Te2 2.710453 1_555
Mo0 Te2 2.710457 1_565
Mo0 Te2 2.710636 1_455
Mo1 S3 2.452515 1_655
Mo1 S3 2.452727 1_545
Mo1 S3 2.452734 1_555
Mo1 S0 2.458900 1_655
Mo1 S0 2.459581 1_555
Mo1 S0 2.459592 1_545
S1 W0 2.466683 1_655
S1 W0 2.467292 1_545
S1 W0 2.467327 1_555
S2 W0 2.460045 1_655
S2 W0 2.461390 1_545
S2 W0 2.461418 1_555
