# generated using pymatgen
data_Na2NbGa3P4(SO12)2
_symmetry_space_group_name_H-M   'P 1'
_cell_length_a   8.57618418
_cell_length_b   8.57498079
_cell_length_c   22.32322532
_cell_angle_alpha   90.03601759
_cell_angle_beta   89.79027060
_cell_angle_gamma   119.98325275
_symmetry_Int_Tables_number   1
_chemical_formula_structural   Na2NbGa3P4(SO12)2
_chemical_formula_sum   'Na6 Nb3 Ga9 P12 S6 O72'
_cell_volume   1421.95144862
_cell_formula_units_Z   3
loop_
 _symmetry_equiv_pos_site_id
 _symmetry_equiv_pos_as_xyz
  1  'x, y, z'
loop_
 _atom_site_type_symbol
 _atom_site_label
 _atom_site_symmetry_multiplicity
 _atom_site_fract_x
 _atom_site_fract_y
 _atom_site_fract_z
 _atom_site_occupancy
  Na  Na0  1  0.99701270  0.99629330  0.49967063  1
  Na  Na1  1  0.00278443  0.00011562  0.99885100  1
  Na  Na2  1  0.66667517  0.33256317  0.83013434  1
  Na  Na3  1  0.67354242  0.33652584  0.33237771  1
  Na  Na4  1  0.33104203  0.66059320  0.16161276  1
  Na  Na5  1  0.33359080  0.66658493  0.66615376  1
  Nb  Nb0  1  0.66406279  0.34025256  0.97857626  1
  Nb  Nb1  1  0.33105159  0.66669261  0.31130971  1
  Nb  Nb2  1  0.33264545  0.66713579  0.81048171  1
  Ga  Ga0  1  0.98114149  0.98927663  0.35154276  1
  Ga  Ga1  1  0.00047734  0.00026772  0.85174334  1
  Ga  Ga2  1  0.00045618  0.00000281  0.65434039  1
  Ga  Ga3  1  0.99889262  0.00179856  0.14565299  1
  Ga  Ga4  1  0.66672337  0.33376807  0.69008016  1
  Ga  Ga5  1  0.67787889  0.35056982  0.18426922  1
  Ga  Ga6  1  0.67490354  0.33276406  0.48036227  1
  Ga  Ga7  1  0.32536156  0.65801699  0.01797287  1
  Ga  Ga8  1  0.33480855  0.67607614  0.51660444  1
  P  P0  1  0.71931533  0.71129596  0.24836027  1
  P  P1  1  0.98956588  0.27725977  0.24894043  1
  P  P2  1  0.28766460  0.28073864  0.74917231  1
  P  P3  1  0.99275863  0.71233836  0.74925505  1
  P  P4  1  0.71971724  0.00730344  0.74922596  1
  P  P5  1  0.96440234  0.63037171  0.08521018  1
  P  P6  1  0.37193263  0.33385443  0.08656669  1
  P  P7  1  0.62507098  0.67826468  0.91782322  1
  P  P8  1  0.04688396  0.37149755  0.91748009  1
  P  P9  1  0.32524704  0.95071040  0.91836833  1
  P  P10  1  0.62631059  0.96041115  0.41900272  1
  P  P11  1  0.03924106  0.66945630  0.41883131  1
  S  S0  1  0.28915972  0.00765998  0.24956300  1
  S  S1  1  0.95869198  0.33321242  0.58338228  1
  S  S2  1  0.37670027  0.04498722  0.58313524  1
  S  S3  1  0.66608773  0.62301561  0.58275416  1
  S  S4  1  0.66491779  0.04142021  0.08491844  1
  S  S5  1  0.33242495  0.37287661  0.41836229  1
  O  O0  1  0.21142102  0.03316801  0.30507105  1
  O  O1  1  0.82605323  0.78760947  0.30608892  1
  O  O2  1  0.96892038  0.17391340  0.30717540  1
  O  O3  1  0.20854076  0.17252405  0.80608613  1
  O  O4  1  0.96377462  0.79135661  0.80616647  1
  O  O5  1  0.82728706  0.03584008  0.80603730  1
  O  O6  1  0.78834906  0.96254825  0.69168882  1
  O  O7  1  0.17451520  0.21202231  0.69182659  1
  O  O8  1  0.03791667  0.82572835  0.69173556  1
  O  O9  1  0.79364266  0.82992052  0.19297553  1
  O  O10  1  0.03731493  0.20642022  0.19322070  1
  O  O11  1  0.17806264  0.96574480  0.19592939  1
  O  O12  1  0.87806274  0.36667968  0.63700077  1
  O  O13  1  0.48935837  0.12424408  0.63691621  1
  O  O14  1  0.63368596  0.51076949  0.63685954  1
  O  O15  1  0.88060230  0.50855311  0.13977886  1
  O  O16  1  0.63385049  0.12232996  0.13885994  1
  O  O17  1  0.49218574  0.36341919  0.14084864  1
  O  O18  1  0.46309497  0.30247494  0.02913921  1
  O  O19  1  0.84019511  0.53605366  0.02893627  1
  O  O20  1  0.69633959  0.15464007  0.03013406  1
  O  O21  1  0.45715002  0.15577210  0.52827894  1
  O  O22  1  0.69677339  0.54210697  0.52801536  1
  O  O23  1  0.84752723  0.30091978  0.52877002  1
  O  O24  1  0.53960094  0.70143942  0.97426311  1
  O  O25  1  0.15803887  0.45545386  0.97330359  1
  O  O26  1  0.30064148  0.83936431  0.97420643  1
  O  O27  1  0.54209078  0.83849916  0.47392476  1
  O  O28  1  0.29979002  0.45441603  0.47198072  1
  O  O29  1  0.15815099  0.69967487  0.47372951  1
  O  O30  1  0.12972191  0.63553761  0.36222103  1
  O  O31  1  0.50537782  0.86821843  0.36246850  1
  O  O32  1  0.36507337  0.48749275  0.36356244  1
  O  O33  1  0.12840756  0.49417056  0.86127444  1
  O  O34  1  0.36525253  0.87026888  0.86146148  1
  O  O35  1  0.50494222  0.63487760  0.86136999  1
  O  O36  1  0.02834596  0.84044127  0.40882352  1
  O  O37  1  0.81210239  0.97860627  0.41089590  1
  O  O38  1  0.17200126  0.19543514  0.40992983  1
  O  O39  1  0.02263948  0.18529925  0.90918456  1
  O  O40  1  0.16440857  0.97660501  0.90973703  1
  O  O41  1  0.81325936  0.83653940  0.90969191  1
  O  O42  1  0.97635750  0.17007936  0.58909009  1
  O  O43  1  0.19501030  0.02527986  0.58883575  1
  O  O44  1  0.82875431  0.80424540  0.58853870  1
  O  O45  1  0.97320439  0.81284342  0.09023902  1
  O  O46  1  0.83003401  0.02797547  0.08885460  1
  O  O47  1  0.18746868  0.16140531  0.09026910  1
  O  O48  1  0.68999160  0.16879139  0.74194969  1
  O  O49  1  0.47871035  0.30997337  0.74193776  1
  O  O50  1  0.83133117  0.52126021  0.74201284  1
  O  O51  1  0.68643582  0.51877977  0.24369601  1
  O  O52  1  0.82760909  0.30609736  0.24280512  1
  O  O53  1  0.47269290  0.16185693  0.24341092  1
  O  O54  1  0.63966994  0.50213488  0.92312173  1
  O  O55  1  0.85863847  0.35744118  0.92424122  1
  O  O56  1  0.50064508  0.13915789  0.92434092  1
  O  O57  1  0.63713885  0.14455124  0.42407810  1
  O  O58  1  0.49773147  0.36050329  0.42375179  1
  O  O59  1  0.85360469  0.49774306  0.42401415  1
  O  O60  1  0.36015755  0.50428987  0.07695258  1
  O  O61  1  0.14866570  0.64617611  0.07631264  1
  O  O62  1  0.50400500  0.86291386  0.07764438  1
  O  O63  1  0.35927858  0.86257015  0.57726487  1
  O  O64  1  0.50081955  0.63926713  0.57621998  1
  O  O65  1  0.14048501  0.49734762  0.57607970  1
  O  O66  1  0.30765575  0.84008163  0.25617567  1
  O  O67  1  0.52633981  0.69174818  0.25839015  1
  O  O68  1  0.16358988  0.47214114  0.25861745  1
  O  O69  1  0.30879618  0.47299269  0.75654531  1
  O  O70  1  0.16416816  0.69146691  0.75641032  1
  O  O71  1  0.52739689  0.83581410  0.75654275  1
loop_
_geom_bond_atom_site_label_1
_geom_bond_atom_site_label_2
_geom_bond_distance
_geom_bond_site_symmetry_2
Na0 O37 2.499473 1_555
Na0 O36 2.514475 1_655
Na0 O44 2.517499 1_555
Na0 O42 2.548366 1_565
Na0 O43 2.551347 1_665
Na0 O38 2.569501 1_665
Na1 O40 2.485546 1_545
Na1 O39 2.507666 1_555
Na1 O41 2.512409 1_445
Na1 O45 2.529465 1_446
Na1 O47 2.533142 1_556
Na1 O46 2.572967 1_456
Na2 O48 2.482283 1_555
Na2 O50 2.486334 1_555
Na2 O49 2.494612 1_555
Na2 O54 2.608852 1_555
Na2 O56 2.612035 1_555
Na2 O55 2.615877 1_555
Na3 O52 2.477238 1_555
Na3 O51 2.490636 1_555
Na3 O59 2.523137 1_555
Na3 O57 2.546303 1_555
Na3 O53 2.568537 1_555
Na3 O58 2.600605 1_555
Na4 O60 2.399644 1_555
Na4 O61 2.432240 1_555
Na4 O62 2.476959 1_555
Na4 O68 2.650484 1_555
Na4 O67 2.668798 1_555
Na4 O66 2.677040 1_555
Na5 O63 2.537949 1_555
Na5 O64 2.540941 1_555
Na5 O70 2.550315 1_555
Na5 O65 2.551541 1_555
Na5 O69 2.553600 1_555
Na5 O71 2.559292 1_555
Nb0 O18 1.943636 1_556
Nb0 O54 1.948705 1_555
Nb0 O19 1.959522 1_556
Nb0 O56 1.999453 1_555
Nb0 O55 2.004276 1_555
Nb0 O20 2.092734 1_556
Nb1 O68 1.960744 1_555
Nb1 O30 1.967047 1_555
Nb1 O67 1.967979 1_555
Nb1 O31 1.988324 1_555
Nb1 O66 2.016911 1_555
Nb1 O32 2.063943 1_555
Nb2 O70 1.975500 1_555
Nb2 O71 1.975969 1_555
Nb2 O34 1.979997 1_555
Nb2 O69 1.980392 1_555
Nb2 O33 1.986068 1_555
Nb2 O35 1.992900 1_555
Ga0 O1 1.870257 1_555
Ga0 O2 1.914997 1_565
Ga0 O37 1.928483 1_555
Ga0 O36 1.987470 1_655
Ga0 O0 2.088236 1_665
Ga0 O38 2.150299 1_665
Ga1 O3 1.938778 1_555
Ga1 O4 1.944179 1_445
Ga1 O5 1.950524 1_455
Ga1 O39 1.973726 1_555
Ga1 O41 1.989098 1_445
Ga1 O40 1.998130 1_545
Ga2 O6 1.874188 1_445
Ga2 O8 1.875286 1_545
Ga2 O7 1.878462 1_555
Ga2 O43 2.142497 1_555
Ga2 O42 2.144170 1_455
Ga2 O44 2.164712 1_445
Ga3 O10 1.933180 1_655
Ga3 O9 1.944740 1_545
Ga3 O47 1.947411 1_655
Ga3 O45 1.961320 1_545
Ga3 O46 2.023336 1_555
Ga3 O11 2.050416 1_645
Ga4 O49 1.907742 1_555
Ga4 O50 1.913861 1_555
Ga4 O48 1.915137 1_555
Ga4 O13 2.056514 1_555
Ga4 O14 2.056691 1_555
Ga4 O12 2.059657 1_555
Ga5 O15 1.865282 1_555
Ga5 O17 1.916939 1_555
Ga5 O51 1.933459 1_555
Ga5 O52 2.001057 1_555
Ga5 O16 2.064520 1_555
Ga5 O53 2.144235 1_555
Ga6 O59 1.937390 1_555
Ga6 O57 1.940689 1_555
Ga6 O23 1.962186 1_555
Ga6 O22 2.012896 1_555
Ga6 O21 2.022293 1_555
Ga6 O58 2.082793 1_555
Ga7 O25 1.894104 1_554
Ga7 O26 1.936648 1_554
Ga7 O24 1.941685 1_554
Ga7 O61 1.958233 1_555
Ga7 O60 1.989582 1_555
Ga7 O62 2.128420 1_555
Ga8 O27 1.876788 1_555
Ga8 O29 1.889354 1_555
Ga8 O63 2.024607 1_555
Ga8 O28 2.030897 1_555
Ga8 O65 2.079058 1_555
Ga8 O64 2.088368 1_555
O0 S0 1.472112 1_555
O1 P0 1.528319 1_555
O2 P1 1.532841 1_555
O3 P2 1.517076 1_555
O4 P3 1.516537 1_555
O5 P4 1.517189 1_555
O6 P4 1.537229 1_565
O7 P2 1.537617 1_555
O8 P3 1.538069 1_455
O9 P0 1.522290 1_555
O10 P1 1.525707 1_455
O11 S0 1.461502 1_565
O12 S1 1.478185 1_555
O13 S2 1.479157 1_555
O14 S3 1.481254 1_555
O15 P5 1.528531 1_555
O16 S4 1.477729 1_555
O17 P6 1.530899 1_555
O18 P6 1.590467 1_555
O19 P5 1.585662 1_555
O20 S4 1.499471 1_555
O21 S2 1.489373 1_555
O22 S3 1.490914 1_555
O23 S1 1.488647 1_555
O24 P7 1.517467 1_555
O25 P8 1.517097 1_555
O26 P9 1.519235 1_555
O27 P10 1.535626 1_555
O28 S5 1.480527 1_555
O29 P11 1.534150 1_555
O30 P11 1.581670 1_555
O31 P10 1.575491 1_555
O32 S5 1.504923 1_555
O33 P8 1.558768 1_555
O34 P9 1.561903 1_555
O35 P7 1.553637 1_555
O36 P11 1.531619 1_555
O37 P10 1.531475 1_555
O38 S5 1.467195 1_555
O39 P8 1.514893 1_555
O40 P9 1.515668 1_555
O41 P7 1.512804 1_555
O42 S1 1.486000 1_555
O43 S2 1.485983 1_555
O44 S3 1.487311 1_555
O45 P5 1.532431 1_555
O46 S4 1.479985 1_555
O47 P6 1.535333 1_555
O48 P4 1.536994 1_555
O49 P2 1.536557 1_555
O50 P3 1.536723 1_555
O51 P0 1.533070 1_555
O52 P1 1.534235 1_555
O53 S0 1.470772 1_555
O54 P7 1.581150 1_555
O55 P8 1.564427 1_655
O56 P9 1.569535 1_545
O57 P10 1.538826 1_545
O58 S5 1.478922 1_555
O59 P11 1.540111 1_655
O60 P6 1.529788 1_555
O61 P5 1.529305 1_455
O62 S4 1.471001 1_565
O63 S2 1.500860 1_565
O64 S3 1.499531 1_555
O65 S1 1.497818 1_455
O66 S0 1.529749 1_565
O67 P0 1.592888 1_555
O68 P1 1.604932 1_455
O69 P2 1.574482 1_555
O70 P3 1.575842 1_455
O71 P4 1.575963 1_565
