# generated using pymatgen
data_Na14La6Nb2Si9(SO16)3
_symmetry_space_group_name_H-M   'P 1'
_cell_length_a   19.27491368
_cell_length_b   9.61296472
_cell_length_c   23.53604365
_cell_angle_alpha   90.13469981
_cell_angle_beta   89.47690227
_cell_angle_gamma   119.91537288
_symmetry_Int_Tables_number   1
_chemical_formula_structural   Na14La6Nb2Si9(SO16)3
_chemical_formula_sum   'Na42 La18 Nb6 Si27 S9 O144'
_cell_volume   3779.75889925
_cell_formula_units_Z   3
loop_
 _symmetry_equiv_pos_site_id
 _symmetry_equiv_pos_as_xyz
  1  'x, y, z'
loop_
 _atom_site_type_symbol
 _atom_site_label
 _atom_site_symmetry_multiplicity
 _atom_site_fract_x
 _atom_site_fract_y
 _atom_site_fract_z
 _atom_site_occupancy
  Na  Na0  1  0.81489790  0.00955459  0.23722587  1
  Na  Na1  1  0.68944803  0.36713267  0.23776849  1
  Na  Na2  1  0.50049224  0.62157090  0.24018937  1
  Na  Na3  1  0.31364897  0.61801428  0.73719698  1
  Na  Na4  1  0.99117027  0.35792549  0.74195904  1
  Na  Na5  1  0.18723891  0.01181492  0.73731125  1
  Na  Na6  1  0.14837855  0.32383006  0.58852527  1
  Na  Na7  1  0.65857482  0.33661864  0.59453538  1
  Na  Na8  1  0.01499287  0.69894193  0.58989723  1
  Na  Na9  1  0.51134690  0.68152046  0.58673920  1
  Na  Na10  1  0.32490892  0.97619015  0.59059696  1
  Na  Na11  1  0.83569957  0.97841612  0.59524201  1
  Na  Na12  1  0.15609561  0.98029096  0.09049423  1
  Na  Na13  1  0.65610938  0.97020590  0.08266972  1
  Na  Na14  1  0.33359842  0.68832942  0.09091483  1
  Na  Na15  1  0.82820276  0.68171155  0.08622492  1
  Na  Na16  1  0.01174948  0.34082734  0.08300743  1
  Na  Na17  1  0.51576618  0.34417328  0.08194698  1
  Na  Na18  1  0.49150389  0.67381153  0.91249803  1
  Na  Na19  1  0.97917398  0.64711084  0.90721283  1
  Na  Na20  1  0.36424385  0.06187681  0.91112945  1
  Na  Na21  1  0.85420583  0.05224610  0.90965066  1
  Na  Na22  1  0.15668663  0.29641844  0.91707596  1
  Na  Na23  1  0.66179768  0.28773401  0.92145874  1
  Na  Na24  1  0.48005211  0.31424758  0.41351198  1
  Na  Na25  1  0.98900087  0.30396934  0.41998382  1
  Na  Na26  1  0.15866219  0.03556061  0.42717434  1
  Na  Na27  1  0.65913879  0.01580382  0.42459923  1
  Na  Na28  1  0.35265903  0.65107479  0.42300051  1
  Na  Na29  1  0.86257370  0.66704034  0.41603660  1
  Na  Na30  1  0.00639259  0.00277049  0.51098625  1
  Na  Na31  1  0.50365011  0.98592758  0.50747052  1
  Na  Na32  1  0.00194913  0.02213637  0.99988703  1
  Na  Na33  1  0.50748455  0.01192186  0.99659324  1
  Na  Na34  1  0.35038958  0.33739476  0.82017290  1
  Na  Na35  1  0.83646699  0.32062411  0.82913370  1
  Na  Na36  1  0.33634798  0.33532434  0.33707798  1
  Na  Na37  1  0.85043135  0.36378232  0.32206534  1
  Na  Na38  1  0.16790974  0.67119583  0.16166602  1
  Na  Na39  1  0.66860355  0.66723499  0.16305189  1
  Na  Na40  1  0.16603705  0.66748336  0.66470871  1
  Na  Na41  1  0.67082145  0.66782942  0.66655902  1
  La  La0  1  0.00122239  0.99692770  0.34239873  1
  La  La1  1  0.50142564  0.99989695  0.34327702  1
  La  La2  1  0.99872948  0.00213348  0.84048474  1
  La  La3  1  0.50158731  0.00729382  0.84127352  1
  La  La4  1  0.33914118  0.33233128  0.68101038  1
  La  La5  1  0.83126401  0.33509909  0.68365871  1
  La  La6  1  0.33110238  0.32111485  0.18271653  1
  La  La7  1  0.84027294  0.34627836  0.18131203  1
  La  La8  1  0.33979999  0.33699879  0.99425713  1
  La  La9  1  0.83578951  0.33075437  0.98978800  1
  La  La10  1  0.33429546  0.33719830  0.49289204  1
  La  La11  1  0.83773065  0.33986011  0.49792836  1
  La  La12  1  0.16336088  0.65771552  0.01737947  1
  La  La13  1  0.66337520  0.66723211  0.01571523  1
  La  La14  1  0.16266241  0.65925551  0.51871291  1
  La  La15  1  0.66368433  0.66951252  0.51856944  1
  La  La16  1  0.66193585  0.66511997  0.30755483  1
  La  La17  1  0.16059599  0.65763012  0.80727842  1
  Nb  Nb0  1  0.99450448  0.99074860  0.65515001  1
  Nb  Nb1  1  0.49580183  0.98924913  0.65032682  1
  Nb  Nb2  1  0.99515182  0.00344403  0.14924226  1
  Nb  Nb3  1  0.50606339  0.01779076  0.14823506  1
  Nb  Nb4  1  0.15340642  0.63565353  0.31358999  1
  Nb  Nb5  1  0.65814649  0.68567927  0.81031083  1
  Si  Si0  1  0.64716524  0.99921567  0.24733346  1
  Si  Si1  1  0.84986882  0.70960642  0.25088558  1
  Si  Si2  1  0.00259120  0.29626918  0.25268672  1
  Si  Si3  1  0.50034826  0.29808188  0.25088870  1
  Si  Si4  1  0.14691990  0.29469220  0.74841003  1
  Si  Si5  1  0.00145189  0.70191456  0.75133436  1
  Si  Si6  1  0.50149306  0.70856930  0.75265493  1
  Si  Si7  1  0.34923787  0.98992503  0.75128316  1
  Si  Si8  1  0.84393065  0.98607630  0.75333325  1
  Si  Si9  1  0.48807018  0.31727490  0.58017391  1
  Si  Si10  1  0.98649357  0.31886874  0.58677988  1
  Si  Si11  1  0.17194490  0.02525009  0.58577316  1
  Si  Si12  1  0.67510675  0.02821481  0.58310634  1
  Si  Si13  1  0.33666666  0.64998676  0.58661638  1
  Si  Si14  1  0.83814959  0.65332694  0.58122766  1
  Si  Si15  1  0.48598973  0.65297496  0.08911999  1
  Si  Si16  1  0.98829981  0.65780251  0.08134940  1
  Si  Si17  1  0.33846454  0.02182041  0.08241824  1
  Si  Si18  1  0.83560279  0.02353583  0.08731366  1
  Si  Si19  1  0.17695438  0.32348820  0.08481132  1
  Si  Si20  1  0.67731672  0.32955473  0.08514317  1
  Si  Si21  1  0.01227055  0.35610296  0.91777794  1
  Si  Si22  1  0.51973605  0.37805502  0.91259082  1
  Si  Si23  1  0.66795605  0.97245191  0.91521841  1
  Si  Si24  1  0.16867760  0.36636167  0.41437646  1
  Si  Si25  1  0.01572242  0.65973809  0.41448740  1
  Si  Si26  1  0.51114518  0.66478897  0.41602096  1
  S  S0  1  0.15034805  0.97709651  0.25091512  1
  S  S1  1  0.34185707  0.70160504  0.25010611  1
  S  S2  1  0.64859642  0.32046431  0.74846373  1
  S  S3  1  0.31930105  0.66394344  0.91625527  1
  S  S4  1  0.81193677  0.66200923  0.91345877  1
  S  S5  1  0.16979746  0.97811066  0.91717286  1
  S  S6  1  0.30916135  0.95694894  0.41093566  1
  S  S7  1  0.81895273  0.97560562  0.41542756  1
  S  S8  1  0.66959884  0.36120534  0.41626727  1
  O  O0  1  0.11446130  0.99205777  0.30389677  1
  O  O1  1  0.61024097  0.01408633  0.30791937  1
  O  O2  1  0.38746376  0.77400847  0.30311894  1
  O  O3  1  0.88899167  0.77714107  0.31249438  1
  O  O4  1  0.49506556  0.21497185  0.31206840  1
  O  O5  1  0.99749610  0.21575261  0.31302410  1
  O  O6  1  0.11412064  0.21041208  0.81014950  1
  O  O7  1  0.61393601  0.23388241  0.80347586  1
  O  O8  1  0.49506463  0.77741715  0.81351586  1
  O  O9  1  0.99824287  0.77382421  0.81335403  1
  O  O10  1  0.38855676  0.00142033  0.81316222  1
  O  O11  1  0.89038321  0.01053905  0.81266024  1
  O  O12  1  0.41629672  0.99422367  0.70072730  1
  O  O13  1  0.89861073  0.97041202  0.69900204  1
  O  O14  1  0.08021701  0.16850343  0.69917952  1
  O  O15  1  0.59776303  0.22516866  0.69984006  1
  O  O16  1  0.99840118  0.82329507  0.69972177  1
  O  O17  1  0.51248215  0.83637248  0.69944373  1
  O  O18  1  0.38440907  0.80136397  0.20002451  1
  O  O19  1  0.91647415  0.84033428  0.20030742  1
  O  O20  1  0.01361827  0.19200450  0.19886620  1
  O  O21  1  0.49842138  0.17178733  0.19863046  1
  O  O22  1  0.10067648  0.96513673  0.20045552  1
  O  O23  1  0.58294333  0.99755241  0.19696480  1
  O  O24  1  0.44601832  0.37597312  0.62646412  1
  O  O25  1  0.94281771  0.35961071  0.63767623  1
  O  O26  1  0.23467010  0.11078520  0.63717211  1
  O  O27  1  0.74443017  0.12219477  0.62884566  1
  O  O28  1  0.31769225  0.53253241  0.64005229  1
  O  O29  1  0.81272782  0.50890141  0.62625862  1
  O  O30  1  0.44352888  0.53247545  0.14229339  1
  O  O31  1  0.94768606  0.51920113  0.12894879  1
  O  O32  1  0.31417755  0.11299306  0.12957585  1
  O  O33  1  0.81689143  0.09980292  0.14202851  1
  O  O34  1  0.24347841  0.36606208  0.13305557  1
  O  O35  1  0.73356449  0.35835562  0.13911453  1
  O  O36  1  0.20926855  0.28460593  0.02479482  1
  O  O37  1  0.70968295  0.28485102  0.02715428  1
  O  O38  1  0.43104056  0.58282005  0.03140815  1
  O  O39  1  0.93321713  0.59785224  0.02375416  1
  O  O40  1  0.36217185  0.12935347  0.02319341  1
  O  O41  1  0.85838305  0.13743185  0.03081270  1
  O  O42  1  0.20785167  0.13300415  0.52661968  1
  O  O43  1  0.70459471  0.12546544  0.52168375  1
  O  O44  1  0.35864227  0.58309684  0.52876113  1
  O  O45  1  0.85862042  0.59376291  0.52002620  1
  O  O46  1  0.43441961  0.26897128  0.52150935  1
  O  O47  1  0.93477569  0.28396546  0.52727497  1
  O  O48  1  0.28029670  0.67894855  0.96874287  1
  O  O49  1  0.77937203  0.67627303  0.96912162  1
  O  O50  1  0.06277855  0.44074359  0.97564125  1
  O  O51  1  0.56436645  0.44743943  0.97259915  1
  O  O52  1  0.16631878  0.88831433  0.96926984  1
  O  O53  1  0.66004000  0.87462832  0.97274911  1
  O  O54  1  0.27661252  0.87732418  0.46647046  1
  O  O55  1  0.77881930  0.87953936  0.46739584  1
  O  O56  1  0.16112198  0.45199848  0.47094285  1
  O  O57  1  0.66492881  0.44449630  0.46788488  1
  O  O58  1  0.06737113  0.68389505  0.47056556  1
  O  O59  1  0.56582033  0.68931263  0.47204948  1
  O  O60  1  0.07715698  0.65188855  0.35890801  1
  O  O61  1  0.55803122  0.65184923  0.35909937  1
  O  O62  1  0.25728399  0.85684448  0.36366290  1
  O  O63  1  0.77105532  0.88980907  0.36478778  1
  O  O64  1  0.16926675  0.49547851  0.35954285  1
  O  O65  1  0.67517523  0.45600807  0.36507210  1
  O  O66  1  0.06134385  0.46684180  0.86233860  1
  O  O67  1  0.58143409  0.50762563  0.85989401  1
  O  O68  1  0.17585696  0.89329463  0.86643638  1
  O  O69  1  0.66924050  0.84923942  0.86016681  1
  O  O70  1  0.27138429  0.65439733  0.86608647  1
  O  O71  1  0.76063881  0.65977865  0.86655965  1
  O  O72  1  0.00644104  0.81802012  0.40887394  1
  O  O73  1  0.49686709  0.82216898  0.41635483  1
  O  O74  1  0.39126582  0.98042752  0.40664231  1
  O  O75  1  0.90014142  0.99594438  0.41378896  1
  O  O76  1  0.08937154  0.18974081  0.41045925  1
  O  O77  1  0.59534030  0.19985756  0.41583077  1
  O  O78  1  0.00172501  0.17381938  0.91836008  1
  O  O79  1  0.50879136  0.19754508  0.90855319  1
  O  O80  1  0.09589948  0.99115669  0.91673570  1
  O  O81  1  0.58768884  0.98919081  0.91178530  1
  O  O82  1  0.40110173  0.80760865  0.91462807  1
  O  O83  1  0.89513268  0.80104177  0.91016393  1
  O  O84  1  0.49108546  0.15137952  0.59960991  1
  O  O85  1  0.98848931  0.14928071  0.59891909  1
  O  O86  1  0.08323454  0.01391410  0.59754115  1
  O  O87  1  0.58901224  0.02667190  0.59993019  1
  O  O88  1  0.42485858  0.82530381  0.59870301  1
  O  O89  1  0.92231725  0.82402735  0.59684329  1
  O  O90  1  0.48943224  0.82871702  0.10168211  1
  O  O91  1  0.99274479  0.83208489  0.10058179  1
  O  O92  1  0.42145842  0.01531607  0.09886792  1
  O  O93  1  0.92342082  0.02142257  0.09832859  1
  O  O94  1  0.08989644  0.15328027  0.10064157  1
  O  O95  1  0.58574798  0.16095287  0.09534267  1
  O  O96  1  0.33042329  0.13610833  0.74665828  1
  O  O97  1  0.83686242  0.14470579  0.74451741  1
  O  O98  1  0.23621766  0.31945113  0.74232738  1
  O  O99  1  0.72900097  0.34189048  0.74456115  1
  O  O100  1  0.42248121  0.53730422  0.74474995  1
  O  O101  1  0.92966229  0.51696555  0.74843557  1
  O  O102  1  0.33419924  0.54040879  0.24602128  1
  O  O103  1  0.83085607  0.52546208  0.24621735  1
  O  O104  1  0.42866951  0.34106540  0.24825489  1
  O  O105  1  0.92372189  0.31060594  0.24547732  1
  O  O106  1  0.23107255  0.11794107  0.24675831  1
  O  O107  1  0.73628853  0.15329091  0.24339074  1
  O  O108  1  0.32442543  0.51445221  0.91839459  1
  O  O109  1  0.81500024  0.50906837  0.91227491  1
  O  O110  1  0.43291570  0.37328571  0.91035227  1
  O  O111  1  0.92489572  0.35045889  0.91775087  1
  O  O112  1  0.24250208  0.14157011  0.91801249  1
  O  O113  1  0.75142704  0.14248612  0.91027197  1
  O  O114  1  0.31341184  0.11692775  0.41022504  1
  O  O115  1  0.82301624  0.13433947  0.41841742  1
  O  O116  1  0.25273970  0.36517547  0.40927155  1
  O  O117  1  0.74183967  0.34247104  0.41758885  1
  O  O118  1  0.42427198  0.49402524  0.41852100  1
  O  O119  1  0.93080827  0.49024791  0.41141128  1
  O  O120  1  0.15583863  0.46905832  0.08332220  1
  O  O121  1  0.65820731  0.47552597  0.08246494  1
  O  O122  1  0.08247687  0.70406600  0.07762714  1
  O  O123  1  0.57751578  0.68703253  0.08375831  1
  O  O124  1  0.26628602  0.83525740  0.07994285  1
  O  O125  1  0.76665530  0.83718072  0.08100456  1
  O  O126  1  0.15629276  0.84222930  0.58245283  1
  O  O127  1  0.65248549  0.83943554  0.58303426  1
  O  O128  1  0.26920369  0.70234296  0.58092584  1
  O  O129  1  0.76642060  0.69814941  0.57987155  1
  O  O130  1  0.07910835  0.46594720  0.58395369  1
  O  O131  1  0.58217303  0.45858205  0.57684761  1
  O  O132  1  0.15662547  0.82588803  0.25336988  1
  O  O133  1  0.64414012  0.82648031  0.24055338  1
  O  O134  1  0.26058145  0.68779761  0.25524171  1
  O  O135  1  0.76888182  0.72219963  0.24088412  1
  O  O136  1  0.08763600  0.48529864  0.25738670  1
  O  O137  1  0.58863773  0.46058158  0.24138620  1
  O  O138  1  0.14507180  0.46261284  0.74129427  1
  O  O139  1  0.65168135  0.47895553  0.75023187  1
  O  O140  1  0.09018501  0.71811485  0.74083238  1
  O  O141  1  0.58639296  0.69331033  0.75635326  1
  O  O142  1  0.26918702  0.81510033  0.74104301  1
  O  O143  1  0.75306181  0.81512350  0.76038889  1
loop_
_geom_bond_atom_site_label_1
_geom_bond_atom_site_label_2
_geom_bond_distance
_geom_bond_site_symmetry_2
Na0 O33 2.397623 1_555
Na0 O135 2.445509 1_545
Na0 O107 2.511833 1_555
Na0 O105 2.600520 1_555
Na0 O133 2.855633 1_545
Na1 O103 2.378185 1_555
Na1 O35 2.481153 1_555
Na1 O137 2.515471 1_555
Na1 O107 2.629259 1_555
Na2 O104 2.344738 1_555
Na2 O133 2.471185 1_555
Na2 O30 2.519289 1_555
Na2 O137 2.811777 1_555
Na2 O102 2.898187 1_555
Na2 O61 2.979623 1_555
Na3 O142 2.439131 1_555
Na3 O28 2.441463 1_555
Na3 O98 2.491022 1_555
Na3 O100 2.581645 1_555
Na3 O138 2.819982 1_555
Na4 O101 2.360014 1_555
Na4 O138 2.614255 1_655
Na4 O25 2.636283 1_555
Na4 O97 2.639640 1_555
Na5 O96 2.411140 1_555
Na5 O140 2.491538 1_545
Na5 O26 2.529720 1_555
Na5 O98 2.620393 1_555
Na6 O130 2.341668 1_555
Na6 O86 2.600812 1_555
Na6 O85 2.683909 1_455
Na6 O14 2.955911 1_555
Na6 O42 2.975973 1_555
Na6 O56 2.989775 1_555
Na7 O131 2.334994 1_555
Na7 O87 2.589459 1_555
Na7 O29 2.693554 1_555
Na7 O15 2.715022 1_555
Na7 O84 2.804874 1_555
Na8 O126 2.365636 1_555
Na8 O89 2.607623 1_455
Na8 O86 2.638086 1_565
Na9 O127 2.364306 1_555
Na9 O88 2.656440 1_555
Na9 O24 2.718331 1_555
Na9 O59 2.874935 1_555
Na9 O87 2.897493 1_565
Na9 O44 2.951307 1_555
Na9 O17 3.033605 1_555
Na9 O131 3.069334 1_555
Na10 O128 2.305859 1_555
Na10 O126 2.844925 1_555
Na10 O26 2.846797 1_565
Na11 O129 2.363993 1_555
Na11 O85 2.560775 1_565
Na11 O89 2.732100 1_555
Na11 O13 2.754671 1_555
Na11 O27 2.832905 1_565
Na12 O122 2.324196 1_555
Na12 O94 2.561164 1_565
Na12 O91 2.741040 1_455
Na12 O22 2.767015 1_555
Na12 O32 2.815377 1_565
Na13 O123 2.364742 1_555
Na13 O53 2.756383 1_554
Na13 O95 2.785858 1_565
Na13 O37 2.966612 1_565
Na14 O124 2.362333 1_555
Na14 O90 2.622340 1_555
Na14 O92 2.734380 1_565
Na14 O18 2.775947 1_555
Na14 O34 2.865973 1_555
Na14 O38 2.891927 1_555
Na14 O120 3.003378 1_555
Na14 O48 3.048302 1_554
Na15 O125 2.329810 1_555
Na15 O91 2.776116 1_555
Na15 O93 2.853231 1_565
Na15 O121 2.863457 1_555
Na15 O39 2.911440 1_555
Na15 O49 2.912485 1_554
Na15 O35 2.976630 1_555
Na16 O120 2.412167 1_555
Na16 O93 2.689989 1_455
Na16 O50 2.701722 1_554
Na16 O31 2.777222 1_455
Na16 O41 2.891472 1_455
Na16 O94 2.900885 1_555
Na17 O121 2.382262 1_555
Na17 O95 2.720506 1_555
Na17 O51 2.743523 1_554
Na17 O92 2.778052 1_555
Na17 O123 2.892892 1_555
Na17 O40 2.984069 1_555
Na18 O8 2.522640 1_555
Na18 O110 2.523905 1_555
Na18 O82 2.631846 1_555
Na18 O81 2.649940 1_555
Na18 O108 2.794494 1_555
Na18 O38 2.981787 1_556
Na19 O9 2.459689 1_555
Na19 O111 2.512177 1_555
Na19 O83 2.684549 1_555
Na19 O109 2.755753 1_555
Na19 O39 2.841808 1_556
Na19 O80 2.938394 1_655
Na20 O79 2.416630 1_555
Na20 O10 2.473767 1_555
Na20 O110 2.600256 1_555
Na20 O40 2.719346 1_556
Na20 O112 2.811590 1_555
Na20 O82 2.867057 1_545
Na21 O11 2.470531 1_555
Na21 O78 2.487537 1_655
Na21 O111 2.493401 1_555
Na21 O113 2.528007 1_555
Na21 O83 2.890361 1_545
Na21 O41 2.955767 1_556
Na22 O80 2.560200 1_545
Na22 O78 2.607423 1_555
Na22 O6 2.653570 1_555
Na22 O112 2.721944 1_555
Na22 O36 2.762388 1_556
Na22 O108 2.844219 1_555
Na23 O81 2.498483 1_545
Na23 O79 2.646956 1_555
Na23 O109 2.649032 1_555
Na23 O37 2.666244 1_556
Na23 O113 2.720191 1_555
Na23 O7 2.897173 1_555
Na24 O118 2.450832 1_555
Na24 O4 2.635748 1_555
Na24 O46 2.646981 1_555
Na24 O74 2.788815 1_545
Na24 O114 2.801358 1_555
Na24 O77 2.930870 1_555
Na25 O119 2.552376 1_555
Na25 O75 2.581955 1_545
Na25 O76 2.666214 1_655
Na25 O5 2.684072 1_555
Na25 O47 2.694382 1_555
Na25 O115 2.773873 1_555
Na26 O76 2.474264 1_555
Na26 O42 2.529608 1_555
Na26 O72 2.658224 1_545
Na26 O114 2.705659 1_555
Na26 O116 2.786924 1_555
Na26 O0 3.000550 1_545
Na27 O43 2.490796 1_555
Na27 O77 2.619488 1_555
Na27 O117 2.726550 1_555
Na27 O73 2.736362 1_545
Na27 O115 2.774782 1_555
Na27 O1 2.908887 1_555
Na27 O59 2.946519 1_545
Na28 O73 2.426736 1_555
Na28 O116 2.468729 1_555
Na28 O118 2.504163 1_555
Na28 O44 2.593151 1_555
Na28 O74 2.894205 1_555
Na28 O2 2.999672 1_555
Na29 O72 2.408903 1_655
Na29 O45 2.538394 1_555
Na29 O3 2.601969 1_555
Na29 O119 2.618386 1_555
Na29 O117 2.812204 1_555
Na29 O75 2.870582 1_555
Na30 O86 2.500206 1_555
Na30 O89 2.615546 1_445
Na30 O85 2.616085 1_455
Na30 O76 2.910345 1_555
Na30 O72 2.985241 1_545
Na30 O75 3.063108 1_445
Na31 O73 2.622607 1_555
Na31 O88 2.630278 1_555
Na31 O87 2.648532 1_565
Na31 O84 2.765772 1_565
Na31 O77 2.886282 1_565
Na32 O78 2.414044 1_555
Na32 O93 2.754076 1_456
Na32 O80 2.769208 1_545
Na32 O94 2.830908 1_556
Na32 O91 2.945391 1_446
Na32 O83 2.984825 1_445
Na33 O81 2.588510 1_545
Na33 O79 2.729458 1_555
Na33 O95 2.760901 1_556
Na33 O82 2.796622 1_545
Na33 O92 2.919856 1_556
Na33 O90 2.955303 1_546
Na34 O100 2.466286 1_555
Na34 O96 2.477816 1_555
Na34 O110 2.581659 1_555
Na34 O98 2.814784 1_555
Na35 O113 2.534669 1_555
Na35 O97 2.612051 1_555
Na35 O111 2.629082 1_555
Na35 O101 2.639956 1_555
Na35 O109 2.828086 1_555
Na35 O99 2.965495 1_555
Na36 O116 2.444483 1_555
Na36 O118 2.518044 1_555
Na36 O114 2.577653 1_555
Na36 O104 2.715633 1_555
Na36 O102 2.929894 1_555
Na36 O106 2.971808 1_555
Na37 O105 2.485093 1_555
Na37 O103 2.520921 1_555
Na37 O119 2.543416 1_555
Na37 O107 2.824870 1_555
Na37 O117 2.994355 1_555
Na37 O115 3.020895 1_555
Na38 O124 2.597552 1_555
Na38 O120 2.601912 1_555
Na38 O132 2.686267 1_555
Na38 O122 2.702807 1_555
Na38 O134 2.802237 1_555
Na38 O136 2.803630 1_555
Na39 O135 2.532247 1_555
Na39 O133 2.565962 1_555
Na39 O137 2.575361 1_555
Na39 O121 2.579928 1_555
Na39 O125 2.615025 1_555
Na39 O123 2.645076 1_555
Na40 O140 2.498464 1_555
Na40 O142 2.536444 1_555
Na40 O138 2.549618 1_555
Na40 O126 2.634717 1_555
Na40 O130 2.641270 1_555
Na40 O128 2.687349 1_555
Na41 O139 2.578047 1_555
Na41 O129 2.653594 1_555
Na41 O143 2.684226 1_555
Na41 O127 2.705593 1_555
Na41 O141 2.739909 1_555
Na41 O131 2.835776 1_555
La0 O5 2.250896 1_465
La0 O3 2.258521 1_455
La0 O72 2.367251 1_555
La0 O0 2.377607 1_555
La0 O76 2.404762 1_565
La0 O75 2.557580 1_455
La1 O1 2.189417 1_565
La1 O4 2.256266 1_565
La1 O2 2.388361 1_555
La1 O73 2.397136 1_555
La1 O74 2.512929 1_555
La1 O77 2.541268 1_565
La2 O11 2.233875 1_555
La2 O6 2.236359 1_655
La2 O9 2.279837 1_545
La2 O78 2.445258 1_655
La2 O83 2.553153 1_545
La2 O80 2.645599 1_645
La3 O8 2.245754 1_545
La3 O10 2.256307 1_555
La3 O7 2.344027 1_555
La3 O79 2.368256 1_555
La3 O81 2.424550 1_545
La3 O82 2.581273 1_545
La4 O24 2.271598 1_555
La4 O26 2.324900 1_555
La4 O100 2.363566 1_555
La4 O28 2.369307 1_555
La4 O96 2.380425 1_555
La4 O98 2.395251 1_555
La5 O27 2.294485 1_555
La5 O25 2.302921 1_555
La5 O29 2.314958 1_555
La5 O97 2.371766 1_555
La5 O101 2.389759 1_555
La5 O99 2.453673 1_555
La6 O32 2.240108 1_555
La6 O34 2.274131 1_555
La6 O30 2.304147 1_555
La6 O104 2.375839 1_555
La6 O106 2.451260 1_555
La6 O102 2.555147 1_555
La7 O31 2.258061 1_555
La7 O35 2.346547 1_555
La7 O105 2.362714 1_555
La7 O33 2.367287 1_555
La7 O103 2.372325 1_555
La7 O107 2.417462 1_555
La8 O38 2.305363 1_556
La8 O40 2.346152 1_556
La8 O36 2.409391 1_556
La8 O110 2.560629 1_555
La8 O108 2.591136 1_555
La8 O112 2.607313 1_555
La9 O41 2.323569 1_556
La9 O111 2.341835 1_555
La9 O37 2.401953 1_556
La9 O39 2.442660 1_556
La9 O113 2.554667 1_555
La9 O109 2.672119 1_555
La10 O44 2.326357 1_555
La10 O42 2.371355 1_555
La10 O118 2.386113 1_555
La10 O46 2.428287 1_555
La10 O116 2.626314 1_555
La10 O114 2.752450 1_555
La11 O47 2.300544 1_555
La11 O45 2.325410 1_555
La11 O43 2.418558 1_555
La11 O119 2.610589 1_555
La11 O115 2.630423 1_555
La11 O117 2.665056 1_555
La12 O50 2.250730 1_554
La12 O122 2.299858 1_555
La12 O120 2.337874 1_555
La12 O124 2.383513 1_555
La12 O48 2.434611 1_554
La12 O52 2.466550 1_554
La13 O51 2.267011 1_554
La13 O53 2.267174 1_554
La13 O123 2.367296 1_555
La13 O121 2.387854 1_555
La13 O125 2.406944 1_555
La13 O49 2.443551 1_554
La14 O56 2.272778 1_555
La14 O58 2.277503 1_555
La14 O130 2.321171 1_555
La14 O126 2.357766 1_555
La14 O128 2.395075 1_555
La14 O54 2.469963 1_555
La15 O59 2.278166 1_555
La15 O131 2.292906 1_555
La15 O127 2.313200 1_555
La15 O129 2.363339 1_555
La15 O55 2.438316 1_555
La15 O57 2.478226 1_555
La16 O61 2.280474 1_555
La16 O137 2.354226 1_555
La16 O133 2.358511 1_555
La16 O135 2.414418 1_555
La16 O63 2.531858 1_555
La16 O65 2.543484 1_555
La17 O66 2.273576 1_555
La17 O138 2.334762 1_555
La17 O140 2.335765 1_555
La17 O142 2.427734 1_555
La17 O68 2.546627 1_555
La17 O70 2.568495 1_555
Nb0 O16 1.956354 1_555
Nb0 O14 1.982492 1_665
Nb0 O13 2.031140 1_555
Nb0 O89 2.046481 1_555
Nb0 O85 2.067840 1_565
Nb0 O86 2.095761 1_665
Nb1 O88 1.923978 1_555
Nb1 O12 1.948711 1_555
Nb1 O84 2.003563 1_565
Nb1 O87 2.020548 1_565
Nb1 O17 2.021268 1_555
Nb1 O15 2.438740 1_565
Nb2 O93 1.909707 1_555
Nb2 O19 1.951062 1_545
Nb2 O91 1.985743 1_545
Nb2 O94 2.015943 1_655
Nb2 O20 2.032367 1_655
Nb2 O22 2.553332 1_645
Nb3 O95 1.915077 1_555
Nb3 O21 1.956036 1_555
Nb3 O23 1.966920 1_545
Nb3 O92 2.001430 1_555
Nb3 O90 2.005661 1_545
Nb3 O18 2.531087 1_545
Nb4 O64 1.871557 1_555
Nb4 O60 1.876541 1_555
Nb4 O136 1.907875 1_555
Nb4 O132 2.292231 1_555
Nb4 O134 2.307218 1_555
Nb4 O62 2.388272 1_555
Nb5 O69 1.885549 1_555
Nb5 O141 1.914331 1_555
Nb5 O67 1.982768 1_555
Nb5 O143 1.993211 1_555
Nb5 O139 2.388945 1_555
Nb5 O71 2.501454 1_555
O0 S0 1.461761 1_555
O1 Si0 1.625515 1_545
O2 S1 1.489847 1_555
O3 Si1 1.618621 1_555
O4 Si3 1.625929 1_555
O5 Si2 1.597567 1_655
O6 Si4 1.626486 1_555
O7 S2 1.500046 1_555
O8 Si6 1.606025 1_555
O9 Si5 1.627466 1_655
O10 Si7 1.625886 1_545
O11 Si8 1.618015 1_545
O12 Si7 1.734100 1_555
O13 Si8 1.703367 1_555
O14 Si4 1.712318 1_555
O15 S2 1.493035 1_555
O16 Si5 1.707917 1_655
O17 Si6 1.692788 1_555
O18 S1 1.478130 1_555
O19 Si1 1.736207 1_555
O20 Si2 1.689957 1_555
O21 Si3 1.713754 1_555
O22 S0 1.500210 1_555
O23 Si0 1.716073 1_555
O24 Si9 1.612309 1_555
O25 Si10 1.614097 1_555
O26 Si11 1.622259 1_555
O27 Si12 1.605658 1_555
O28 Si13 1.605216 1_555
O29 Si14 1.615488 1_555
O30 Si15 1.618751 1_555
O31 Si16 1.610516 1_555
O32 Si17 1.616896 1_555
O33 Si18 1.605231 1_555
O34 Si19 1.613049 1_555
O35 Si20 1.609275 1_555
O36 Si19 1.654272 1_555
O37 Si20 1.638820 1_555
O38 Si15 1.652604 1_555
O39 Si16 1.645970 1_555
O40 Si17 1.656614 1_555
O41 Si18 1.636037 1_555
O42 Si11 1.662651 1_555
O43 Si12 1.657791 1_555
O44 Si13 1.644410 1_555
O45 Si14 1.664183 1_555
O46 Si9 1.653941 1_555
O47 Si10 1.660542 1_555
O48 S3 1.484075 1_555
O49 S4 1.482933 1_555
O50 Si21 1.641160 1_555
O51 Si22 1.620218 1_555
O52 S5 1.482845 1_555
O53 Si23 1.612489 1_555
O54 S6 1.482789 1_555
O55 S7 1.490890 1_555
O56 Si24 1.606949 1_555
O57 S8 1.480006 1_555
O58 Si25 1.605921 1_555
O59 Si26 1.637450 1_555
O60 Si25 1.783100 1_555
O61 Si26 1.648104 1_555
O62 S6 1.489733 1_555
O63 S7 1.486296 1_555
O64 Si24 1.788704 1_555
O65 S8 1.482916 1_555
O66 Si21 1.646248 1_555
O67 Si22 1.734020 1_555
O68 S5 1.480618 1_555
O69 Si23 1.761755 1_555
O70 S3 1.480046 1_555
O71 S4 1.481621 1_555
O72 Si25 1.624034 1_555
O73 Si26 1.667283 1_555
O74 S6 1.485448 1_555
O75 S7 1.477293 1_555
O76 Si24 1.625110 1_555
O77 S8 1.496777 1_555
O78 Si21 1.660363 1_555
O79 Si22 1.642876 1_555
O80 S5 1.491018 1_555
O81 Si23 1.636072 1_555
O82 S3 1.490626 1_555
O83 S4 1.491400 1_555
O84 Si9 1.688850 1_555
O85 Si10 1.675036 1_555
O86 Si11 1.678670 1_555
O87 Si12 1.695379 1_555
O88 Si13 1.720436 1_555
O89 Si14 1.677028 1_555
O90 Si15 1.682884 1_555
O91 Si16 1.695014 1_555
O92 Si17 1.680486 1_555
O93 Si18 1.724859 1_555
O94 Si19 1.698425 1_555
O95 Si20 1.714775 1_555
O96 Si7 1.621066 1_545
O97 Si8 1.611259 1_545
O98 Si4 1.620724 1_555
O99 S2 1.460072 1_555
O100 Si6 1.602287 1_555
O101 Si5 1.620998 1_655
O102 S1 1.484463 1_555
O103 Si1 1.622545 1_555
O104 Si3 1.629263 1_555
O105 Si2 1.603929 1_655
O106 S0 1.469791 1_545
O107 Si0 1.616549 1_545
O108 S3 1.489773 1_555
O109 S4 1.500721 1_555
O110 Si22 1.652392 1_555
O111 Si21 1.657757 1_655
O112 S5 1.495758 1_545
O113 Si23 1.627332 1_545
O114 S6 1.498820 1_545
O115 S7 1.489917 1_545
O116 Si24 1.629347 1_555
O117 S8 1.491047 1_555
O118 Si26 1.661012 1_555
O119 Si25 1.637203 1_655
O120 Si19 1.641240 1_555
O121 Si20 1.620193 1_555
O122 Si16 1.640932 1_455
O123 Si15 1.629538 1_555
O124 Si17 1.633278 1_565
O125 Si18 1.620216 1_565
O126 Si11 1.631830 1_565
O127 Si12 1.641377 1_565
O128 Si13 1.618154 1_555
O129 Si14 1.641108 1_555
O130 Si10 1.634304 1_455
O131 Si9 1.637570 1_555
O132 S0 1.518805 1_555
O133 Si0 1.639656 1_555
O134 S1 1.508516 1_555
O135 Si1 1.643829 1_555
O136 Si2 1.741430 1_555
O137 Si3 1.652080 1_555
O138 Si4 1.641262 1_555
O139 S2 1.495299 1_555
O140 Si5 1.654492 1_555
O141 Si6 1.717297 1_555
O142 Si7 1.637572 1_555
O143 Si8 1.709076 1_555
