# generated using pymatgen
data_Na5Sc3Si3Sn(SO8)3
_symmetry_space_group_name_H-M   'P 1'
_cell_length_a   9.06434900
_cell_length_b   9.05340232
_cell_length_c   22.76504906
_cell_angle_alpha   90.67620182
_cell_angle_beta   90.11241316
_cell_angle_gamma   120.15953796
_symmetry_Int_Tables_number   1
_chemical_formula_structural   Na5Sc3Si3Sn(SO8)3
_chemical_formula_sum   'Na15 Sc9 Si9 Sn3 S9 O72'
_cell_volume   1615.09807799
_cell_formula_units_Z   3
loop_
 _symmetry_equiv_pos_site_id
 _symmetry_equiv_pos_as_xyz
  1  'x, y, z'
loop_
 _atom_site_type_symbol
 _atom_site_label
 _atom_site_symmetry_multiplicity
 _atom_site_fract_x
 _atom_site_fract_y
 _atom_site_fract_z
 _atom_site_occupancy
  Na  Na0  1  0.64499354  0.00693755  0.25577467  1
  Na  Na1  1  0.00269659  0.62424130  0.24868505  1
  Na  Na2  1  0.62888696  0.63661189  0.74661729  1
  Na  Na3  1  0.37203199  0.01235990  0.75571222  1
  Na  Na4  1  0.66800260  0.95277130  0.58547996  1
  Na  Na5  1  0.96886053  0.68071354  0.92217493  1
  Na  Na6  1  0.69256624  0.01467574  0.91179787  1
  Na  Na7  1  0.96372967  0.30412053  0.41022636  1
  Na  Na8  1  0.70902899  0.68176313  0.42340598  1
  Na  Na9  1  0.00102787  0.97580462  0.50210310  1
  Na  Na10  1  0.00623935  0.98478858  0.99909191  1
  Na  Na11  1  0.64779751  0.32299407  0.83195669  1
  Na  Na12  1  0.66490116  0.32220422  0.33409432  1
  Na  Na13  1  0.30771250  0.63821139  0.16106697  1
  Na  Na14  1  0.33198464  0.64086081  0.66658607  1
  Sc  Sc0  1  0.99311874  0.00146937  0.35344907  1
  Sc  Sc1  1  0.00678312  0.01021849  0.85141635  1
  Sc  Sc2  1  0.99208561  0.99914961  0.65149136  1
  Sc  Sc3  1  0.00340304  0.00341662  0.14485562  1
  Sc  Sc4  1  0.65831887  0.33746587  0.68740945  1
  Sc  Sc5  1  0.68355882  0.34190590  0.18262075  1
  Sc  Sc6  1  0.33298417  0.67798030  0.01849784  1
  Sc  Sc7  1  0.33959264  0.67469033  0.51723680  1
  Sc  Sc8  1  0.32044454  0.66337714  0.31816124  1
  Si  Si0  1  0.00423390  0.29561484  0.25012905  1
  Si  Si1  1  0.28727602  0.29435183  0.75020687  1
  Si  Si2  1  0.70581700  0.00547343  0.75099984  1
  Si  Si3  1  0.66655159  0.63143076  0.58409109  1
  Si  Si4  1  0.96736378  0.63166684  0.08376430  1
  Si  Si5  1  0.62893244  0.66637120  0.91838911  1
  Si  Si6  1  0.33263549  0.96170634  0.91736890  1
  Si  Si7  1  0.62463049  0.96378715  0.41695390  1
  Si  Si8  1  0.03940424  0.67022327  0.41765261  1
  Sn  Sn0  1  0.65762070  0.34129995  0.98201751  1
  Sn  Sn1  1  0.67422471  0.34022877  0.48296544  1
  Sn  Sn2  1  0.35138225  0.67078223  0.81637958  1
  S  S0  1  0.29264584  0.00242773  0.24973740  1
  S  S1  1  0.70478936  0.70580828  0.24944208  1
  S  S2  1  0.00329820  0.70655761  0.75098056  1
  S  S3  1  0.96160587  0.33376081  0.58391974  1
  S  S4  1  0.37352419  0.04314929  0.58260708  1
  S  S5  1  0.66821559  0.04187490  0.08308012  1
  S  S6  1  0.37298623  0.33290552  0.08463177  1
  S  S7  1  0.04404408  0.37787320  0.91747148  1
  S  S8  1  0.33513602  0.37386706  0.41684808  1
  O  O0  1  0.21215676  0.02291719  0.30310290  1
  O  O1  1  0.81120710  0.78108960  0.30387381  1
  O  O2  1  0.97205516  0.18182008  0.30977233  1
  O  O3  1  0.20709031  0.16920953  0.80583078  1
  O  O4  1  0.97361152  0.78193987  0.80471152  1
  O  O5  1  0.81226425  0.02155030  0.81049508  1
  O  O6  1  0.78582320  0.96239220  0.69277528  1
  O  O7  1  0.17611560  0.20110319  0.69140383  1
  O  O8  1  0.03202153  0.81533150  0.69928866  1
  O  O9  1  0.79112499  0.81401286  0.19866747  1
  O  O10  1  0.01654817  0.18924254  0.19454907  1
  O  O11  1  0.18432758  0.97152257  0.19738904  1
  O  O12  1  0.87174909  0.35380147  0.63393663  1
  O  O13  1  0.48159963  0.12377949  0.63551084  1
  O  O14  1  0.65011951  0.51678947  0.64060889  1
  O  O15  1  0.87164709  0.51722749  0.14228884  1
  O  O16  1  0.64606174  0.12555481  0.13635115  1
  O  O17  1  0.48103243  0.35161011  0.13611367  1
  O  O18  1  0.44375844  0.29739917  0.02953514  1
  O  O19  1  0.84690708  0.53852019  0.02372370  1
  O  O20  1  0.68912596  0.14552138  0.02960459  1
  O  O21  1  0.45700328  0.14808350  0.52928865  1
  O  O22  1  0.68851877  0.54225474  0.52193426  1
  O  O23  1  0.85425999  0.29817548  0.52756812  1
  O  O24  1  0.52933802  0.69229889  0.97229693  1
  O  O25  1  0.14628915  0.45847624  0.97003002  1
  O  O26  1  0.29738622  0.83376584  0.97103987  1
  O  O27  1  0.54351185  0.84297896  0.47387227  1
  O  O28  1  0.30812667  0.45196513  0.46982303  1
  O  O29  1  0.15462298  0.68364356  0.47361485  1
  O  O30  1  0.11406756  0.62613809  0.35806794  1
  O  O31  1  0.51643534  0.87786577  0.35642036  1
  O  O32  1  0.36513565  0.48239585  0.36483070  1
  O  O33  1  0.11733004  0.48502557  0.86426804  1
  O  O34  1  0.37081831  0.88264877  0.85590749  1
  O  O35  1  0.52057113  0.62693513  0.85587702  1
  O  O36  1  0.00869689  0.83183192  0.41077216  1
  O  O37  1  0.81946661  0.99173717  0.41185011  1
  O  O38  1  0.18236699  0.20321735  0.40967278  1
  O  O39  1  0.02035751  0.20504907  0.91144333  1
  O  O40  1  0.16477411  0.97916738  0.91129386  1
  O  O41  1  0.81811054  0.83819503  0.91357036  1
  O  O42  1  0.97380110  0.17687421  0.58761200  1
  O  O43  1  0.20355292  0.02306784  0.58718902  1
  O  O44  1  0.83653288  0.82386384  0.58525039  1
  O  O45  1  0.98073562  0.81855060  0.08884053  1
  O  O46  1  0.82245024  0.02687653  0.08756593  1
  O  O47  1  0.20115208  0.17959844  0.08903220  1
  O  O48  1  0.67529720  0.16719800  0.74335146  1
  O  O49  1  0.48480880  0.32687867  0.74508813  1
  O  O50  1  0.85014189  0.53580889  0.74349101  1
  O  O51  1  0.68533081  0.53302089  0.24354651  1
  O  O52  1  0.82632794  0.31061467  0.24580926  1
  O  O53  1  0.46627429  0.15330372  0.24402468  1
  O  O54  1  0.66019347  0.49981663  0.92047901  1
  O  O55  1  0.86752937  0.35636461  0.92215383  1
  O  O56  1  0.51958288  0.14389271  0.92563909  1
  O  O57  1  0.64771148  0.15735436  0.42483947  1
  O  O58  1  0.49068399  0.35767681  0.42186525  1
  O  O59  1  0.84331373  0.49445971  0.42105975  1
  O  O60  1  0.36195528  0.48820388  0.07940419  1
  O  O61  1  0.15099806  0.64165283  0.07967507  1
  O  O62  1  0.51455629  0.87097411  0.07927445  1
  O  O63  1  0.36306822  0.87408906  0.57714614  1
  O  O64  1  0.49672242  0.65313919  0.57973171  1
  O  O65  1  0.12985326  0.48664775  0.57763029  1
  O  O66  1  0.31211784  0.84654932  0.25403939  1
  O  O67  1  0.53705287  0.69418187  0.25536387  1
  O  O68  1  0.16821157  0.49148687  0.25323846  1
  O  O69  1  0.30599876  0.48631310  0.75556945  1
  O  O70  1  0.15874166  0.69181884  0.75685756  1
  O  O71  1  0.50939961  0.82974536  0.75270912  1
loop_
_geom_bond_atom_site_label_1
_geom_bond_atom_site_label_2
_geom_bond_distance
_geom_bond_site_symmetry_2
Na0 O52 2.405677 1_555
Na0 O67 2.488051 1_545
Na0 O53 2.572050 1_555
Na0 O31 2.584266 1_545
Na0 O66 2.609580 1_545
Na0 O2 2.833736 1_555
Na0 O16 2.933110 1_555
Na0 O9 2.961962 1_545
Na1 O68 2.349531 1_555
Na1 O52 2.460943 1_455
Na1 O66 2.500549 1_555
Na1 O51 2.565230 1_455
Na1 O15 2.644477 1_455
Na1 O30 2.681741 1_555
Na2 O49 2.426461 1_555
Na2 O71 2.479386 1_555
Na2 O69 2.542884 1_555
Na2 O50 2.588087 1_555
Na2 O35 2.662068 1_555
Na2 O14 2.680970 1_555
Na2 O6 2.846290 1_555
Na3 O48 2.396049 1_555
Na3 O49 2.510762 1_555
Na3 O71 2.520829 1_545
Na3 O70 2.554296 1_545
Na3 O34 2.575314 1_545
Na3 O3 2.766816 1_555
Na3 O13 2.925900 1_555
Na3 O8 2.955785 1_545
Na4 O44 2.342421 1_555
Na4 O64 2.354817 1_555
Na4 O42 2.479562 1_565
Na4 O63 2.489904 1_555
Na4 O6 2.646814 1_555
Na4 O27 2.742060 1_555
Na5 O40 2.389964 1_655
Na5 O41 2.429288 1_555
Na5 O54 2.430136 1_555
Na5 O55 2.599283 1_555
Na5 O19 2.621794 1_556
Na5 O26 2.798152 1_655
Na5 O4 2.830364 1_555
Na6 O41 2.382800 1_545
Na6 O56 2.400582 1_555
Na6 O5 2.538662 1_555
Na6 O39 2.579438 1_655
Na6 O55 2.681763 1_555
Na6 O34 2.828416 1_545
Na6 O24 2.892755 1_545
Na6 O20 2.925605 1_556
Na7 O37 2.448729 1_545
Na7 O59 2.470349 1_555
Na7 O57 2.504243 1_555
Na7 O2 2.546798 1_555
Na7 O38 2.565382 1_655
Na7 O30 2.803978 1_655
Na7 O23 2.843136 1_555
Na8 O36 2.368737 1_655
Na8 O37 2.478386 1_555
Na8 O59 2.536152 1_555
Na8 O22 2.548217 1_555
Na8 O58 2.586395 1_555
Na8 O27 2.805105 1_555
Na8 O1 2.881303 1_555
Na8 O32 3.004357 1_555
Na9 O44 2.389543 1_455
Na9 O36 2.460553 1_555
Na9 O43 2.546017 1_565
Na9 O37 2.680102 1_455
Na9 O42 2.744741 1_465
Na9 O38 2.843171 1_565
Na10 O41 2.472173 1_455
Na10 O40 2.478883 1_555
Na10 O45 2.493541 1_456
Na10 O47 2.682129 1_566
Na10 O46 2.758635 1_466
Na10 O39 2.795113 1_565
Na11 O49 2.477310 1_555
Na11 O54 2.525599 1_555
Na11 O48 2.531482 1_555
Na11 O56 2.593456 1_555
Na11 O55 2.763899 1_555
Na11 O50 2.772601 1_555
Na12 O59 2.519374 1_555
Na12 O52 2.520363 1_555
Na12 O57 2.521838 1_555
Na12 O53 2.632341 1_555
Na12 O58 2.663863 1_555
Na12 O51 2.768638 1_555
Na13 O61 2.342550 1_555
Na13 O68 2.480864 1_555
Na13 O60 2.481363 1_555
Na13 O62 2.749425 1_555
Na13 O66 2.805111 1_555
Na13 O67 2.843383 1_555
Na14 O69 2.419569 1_555
Na14 O64 2.449816 1_555
Na14 O71 2.549426 1_555
Na14 O65 2.599131 1_555
Na14 O70 2.760471 1_555
Na14 O63 2.861733 1_555
O0 S0 1.475382 1_555
O0 Sc0 2.218127 1_455
O1 S1 1.498409 1_555
O1 Sc0 2.146436 1_565
O2 Si0 1.650045 1_655
O2 Sc0 2.010450 1_555
O3 Si1 1.620306 1_555
O3 Sc1 1.965204 1_555
O4 S2 1.483400 1_655
O4 Sc1 2.194219 1_665
O5 Si2 1.623485 1_555
O5 Sc1 2.040773 1_655
O6 Si2 1.646433 1_565
O6 Sc2 1.969431 1_555
O7 Si1 1.622730 1_555
O7 Sc2 1.959928 1_445
O8 S2 1.480971 1_555
O8 Sc2 2.175093 1_455
O9 S1 1.472450 1_555
O9 Sc3 2.210642 1_665
O10 Si0 1.618836 1_555
O10 Sc3 1.969119 1_555
O11 S0 1.474437 1_565
O11 Sc3 2.163185 1_565
O12 S3 1.462896 1_555
O12 Sc4 2.229892 1_555
O13 S4 1.482932 1_555
O13 Sc4 2.128192 1_555
O14 Si3 1.622271 1_555
O14 Sc4 1.984467 1_555
O15 Si4 1.653821 1_555
O15 Sc5 1.894852 1_555
O16 S5 1.488987 1_555
O16 Sc5 2.083875 1_555
O17 S6 1.478364 1_555
O17 Sc5 2.157619 1_555
O18 S6 1.512918 1_555
O18 Sn0 2.080912 1_554
O19 Si4 1.677279 1_555
O19 Sn0 1.977031 1_554
O20 S5 1.499195 1_555
O20 Sn0 2.224743 1_554
O21 S4 1.502296 1_555
O21 Sn1 2.150535 1_555
O22 Si3 1.682071 1_555
O22 Sn1 1.967799 1_555
O23 S3 1.538382 1_555
O23 Sn1 2.113287 1_555
O24 Si5 1.608292 1_555
O24 Sc6 2.017301 1_556
O25 S7 1.455514 1_555
O25 Sc6 2.142927 1_556
O26 Si6 1.612344 1_555
O26 Sc6 1.937118 1_556
O27 Si7 1.626333 1_555
O27 Sc7 1.981245 1_555
O28 S8 1.472825 1_555
O28 Sc7 2.163766 1_555
O29 Si8 1.610016 1_555
O29 Sc7 1.983870 1_555
O30 Si8 1.649094 1_555
O30 Sc8 1.954122 1_555
O31 Si7 1.633635 1_555
O31 Sc8 2.042807 1_555
O32 S8 1.483877 1_555
O32 Sc8 2.164228 1_555
O33 S7 1.494215 1_555
O33 Sn2 2.232694 1_555
O34 Si6 1.678371 1_555
O34 Sn2 2.034458 1_555
O35 Si5 1.657580 1_555
O35 Sn2 1.983101 1_555
O36 Si8 1.630073 1_555
O36 Sc0 2.084713 1_465
O37 Si7 1.658000 1_555
O37 Sc0 2.030905 1_565
O38 S8 1.474646 1_555
O38 Sc0 2.169076 1_455
O39 S7 1.473197 1_555
O39 Sc1 2.172130 1_555
O40 Si6 1.612645 1_555
O40 Sc1 2.096160 1_565
O41 Si5 1.642186 1_555
O41 Sc1 2.176586 1_665
O42 S3 1.482311 1_555
O42 Sc2 2.247972 1_545
O43 S4 1.461933 1_555
O43 Sc2 2.337805 1_445
O44 Si3 1.646624 1_555
O44 Sc2 2.113587 1_555
O45 Si4 1.637056 1_555
O45 Sc3 2.018052 1_665
O46 S5 1.474411 1_555
O46 Sc3 2.187365 1_655
O47 S6 1.481251 1_555
O47 Sc3 2.134487 1_555
O48 Si2 1.632003 1_555
O48 Sc4 2.075023 1_555
O49 Si1 1.666743 1_555
O49 Sc4 2.016549 1_555
O50 S2 1.477318 1_655
O50 Sc4 2.162770 1_555
O51 S1 1.487921 1_555
O51 Sc5 2.198418 1_555
O52 Si0 1.687701 1_655
O52 Sc5 2.048150 1_555
O53 S0 1.484764 1_555
O53 Sc5 2.331653 1_555
O54 Si5 1.669506 1_555
O54 Sn0 2.009142 1_555
O55 S7 1.515701 1_655
O55 Sn0 2.291254 1_555
O56 Si6 1.676439 1_545
O56 Sn0 2.024727 1_555
O57 Si7 1.664654 1_545
O57 Sn1 2.024126 1_555
O58 S8 1.493281 1_555
O58 Sn1 2.233313 1_555
O59 Si8 1.690815 1_655
O59 Sn1 2.046802 1_555
O60 S6 1.464956 1_555
O60 Sc6 2.334855 1_555
O61 Si4 1.623909 1_455
O61 Sc6 2.060001 1_555
O62 S5 1.473888 1_565
O62 Sc6 2.172652 1_555
O63 S4 1.488887 1_565
O63 Sc7 2.172321 1_555
O64 Si3 1.649867 1_555
O64 Sc7 2.090107 1_555
O65 S3 1.465133 1_455
O65 Sc7 2.283902 1_555
O66 S0 1.511884 1_565
O66 Sc8 2.251458 1_555
O67 S1 1.476911 1_555
O67 Sc8 2.333816 1_555
O68 Si0 1.645307 1_555
O68 Sc8 2.071284 1_555
O69 Si1 1.662095 1_555
O69 Sn2 2.031661 1_555
O70 S2 1.486461 1_555
O70 Sn2 2.291813 1_555
O71 Si2 1.690559 1_565
O71 Sn2 2.051773 1_555
