# generated using pymatgen
data_Na4MgIn(PO4)3
_symmetry_space_group_name_H-M   'P 1'
_cell_length_a   9.13254338
_cell_length_b   9.13254306
_cell_length_c   22.06304831
_cell_angle_alpha   90.00000000
_cell_angle_beta   90.00000000
_cell_angle_gamma   120.00000116
_symmetry_Int_Tables_number   1
_chemical_formula_structural   Na4MgIn(PO4)3
_chemical_formula_sum   'Na24 Mg6 In6 P18 O72'
_cell_volume   1593.60107861
_cell_formula_units_Z   6
loop_
 _symmetry_equiv_pos_site_id
 _symmetry_equiv_pos_as_xyz
  1  'x, y, z'
loop_
 _atom_site_type_symbol
 _atom_site_label
 _atom_site_symmetry_multiplicity
 _atom_site_fract_x
 _atom_site_fract_y
 _atom_site_fract_z
 _atom_site_occupancy
  Na  Na0  1  0.63656272  0.00668621  0.24839937  1
  Na  Na1  1  0.37012349  0.36343728  0.24839937  1
  Na  Na2  1  0.99331379  0.62987651  0.24839937  1
  Na  Na3  1  0.63656272  0.62987651  0.74839937  1
  Na  Na4  1  0.99331379  0.36343728  0.74839937  1
  Na  Na5  1  0.37012349  0.00668621  0.74839937  1
  Na  Na6  1  0.30322972  0.34001921  0.58173237  1
  Na  Na7  1  0.03679049  0.69677028  0.58173237  1
  Na  Na8  1  0.65998079  0.96320951  0.58173237  1
  Na  Na9  1  0.30322972  0.96320951  0.08173237  1
  Na  Na10  1  0.65998079  0.69677028  0.08173237  1
  Na  Na11  1  0.03679049  0.34001921  0.08173237  1
  Na  Na12  1  0.96989572  0.67335321  0.91506637  1
  Na  Na13  1  0.70345649  0.03010428  0.91506637  1
  Na  Na14  1  0.32664679  0.29654351  0.91506637  1
  Na  Na15  1  0.96989572  0.29654351  0.41506637  1
  Na  Na16  1  0.32664679  0.03010428  0.41506637  1
  Na  Na17  1  0.70345649  0.67335321  0.41506637  1
  Na  Na18  1  0.00000000  0.00000000  0.49678968  1
  Na  Na19  1  0.00000000  0.00000000  0.99678968  1
  Na  Na20  1  0.66666700  0.33333300  0.83012268  1
  Na  Na21  1  0.66666700  0.33333300  0.33012268  1
  Na  Na22  1  0.33333300  0.66666700  0.16345668  1
  Na  Na23  1  0.33333300  0.66666700  0.66345668  1
  Mg  Mg0  1  0.00000000  0.00000000  0.34862557  1
  Mg  Mg1  1  0.00000000  0.00000000  0.84862557  1
  Mg  Mg2  1  0.66666700  0.33333300  0.68195857  1
  Mg  Mg3  1  0.66666700  0.33333300  0.18195857  1
  Mg  Mg4  1  0.33333300  0.66666700  0.01529257  1
  Mg  Mg5  1  0.33333300  0.66666700  0.51529257  1
  In  In0  1  0.00000000  0.00000000  0.65454285  1
  In  In1  1  0.00000000  0.00000000  0.15454285  1
  In  In2  1  0.66666700  0.33333300  0.98787585  1
  In  In3  1  0.66666700  0.33333300  0.48787585  1
  In  In4  1  0.33333300  0.66666700  0.32120985  1
  In  In5  1  0.33333300  0.66666700  0.82120985  1
  P  P0  1  0.30139053  0.00045076  0.25153553  1
  P  P1  1  0.69906023  0.69860947  0.25153553  1
  P  P2  1  0.99954924  0.30093977  0.25153553  1
  P  P3  1  0.30139053  0.30093977  0.75153553  1
  P  P4  1  0.99954924  0.69860947  0.75153553  1
  P  P5  1  0.69906023  0.00045076  0.75153553  1
  P  P6  1  0.96805753  0.33378376  0.58486853  1
  P  P7  1  0.36572723  0.03194247  0.58486853  1
  P  P8  1  0.66621624  0.63427277  0.58486853  1
  P  P9  1  0.96805753  0.63427277  0.08486853  1
  P  P10  1  0.66621624  0.03194247  0.08486853  1
  P  P11  1  0.36572723  0.33378376  0.08486853  1
  P  P12  1  0.63472353  0.66711776  0.91820253  1
  P  P13  1  0.03239323  0.36527647  0.91820253  1
  P  P14  1  0.33288224  0.96760677  0.91820253  1
  P  P15  1  0.63472353  0.96760677  0.41820253  1
  P  P16  1  0.33288224  0.36527647  0.41820253  1
  P  P17  1  0.03239323  0.66711776  0.41820253  1
  O  O0  1  0.21089931  0.02224673  0.30644945  1
  O  O1  1  0.81134742  0.78910069  0.30644945  1
  O  O2  1  0.97775327  0.18865258  0.30644945  1
  O  O3  1  0.21089931  0.18865258  0.80644945  1
  O  O4  1  0.97775327  0.78910069  0.80644945  1
  O  O5  1  0.81134742  0.02224673  0.80644945  1
  O  O6  1  0.77179528  0.96695471  0.69243297  1
  O  O7  1  0.19515943  0.22820472  0.69243297  1
  O  O8  1  0.03304529  0.80484057  0.69243297  1
  O  O9  1  0.77179528  0.80484057  0.19243297  1
  O  O10  1  0.03304529  0.22820472  0.19243297  1
  O  O11  1  0.19515943  0.96695471  0.19243297  1
  O  O12  1  0.87756631  0.35557973  0.63978245  1
  O  O13  1  0.47801442  0.12243369  0.63978245  1
  O  O14  1  0.64442027  0.52198558  0.63978245  1
  O  O15  1  0.87756631  0.52198558  0.13978245  1
  O  O16  1  0.64442027  0.12243369  0.13978245  1
  O  O17  1  0.47801442  0.35557973  0.13978245  1
  O  O18  1  0.43846228  0.30028771  0.02576597  1
  O  O19  1  0.86182643  0.56153772  0.02576597  1
  O  O20  1  0.69971229  0.13817357  0.02576597  1
  O  O21  1  0.43846228  0.13817357  0.52576597  1
  O  O22  1  0.69971229  0.56153772  0.52576597  1
  O  O23  1  0.86182643  0.30028771  0.52576597  1
  O  O24  1  0.54423231  0.68891373  0.97311645  1
  O  O25  1  0.14468042  0.45576769  0.97311645  1
  O  O26  1  0.31108627  0.85531958  0.97311645  1
  O  O27  1  0.54423231  0.85531958  0.47311645  1
  O  O28  1  0.31108627  0.45576769  0.47311645  1
  O  O29  1  0.14468042  0.68891373  0.47311645  1
  O  O30  1  0.10512828  0.63362171  0.35909997  1
  O  O31  1  0.52849243  0.89487172  0.35909997  1
  O  O32  1  0.36637829  0.47150757  0.35909997  1
  O  O33  1  0.10512828  0.47150757  0.85909997  1
  O  O34  1  0.36637829  0.89487172  0.85909997  1
  O  O35  1  0.52849243  0.63362171  0.85909997  1
  O  O36  1  0.01612024  0.82811272  0.41301896  1
  O  O37  1  0.81199248  0.98387976  0.41301896  1
  O  O38  1  0.17188728  0.18800752  0.41301896  1
  O  O39  1  0.01612024  0.18800752  0.91301896  1
  O  O40  1  0.17188728  0.98387976  0.91301896  1
  O  O41  1  0.81199248  0.82811272  0.91301896  1
  O  O42  1  0.98837794  0.17366873  0.58817768  1
  O  O43  1  0.18529079  0.01162206  0.58817768  1
  O  O44  1  0.82633127  0.81470921  0.58817768  1
  O  O45  1  0.98837794  0.81470921  0.08817768  1
  O  O46  1  0.82633127  0.01162206  0.08817768  1
  O  O47  1  0.18529079  0.17366873  0.08817768  1
  O  O48  1  0.68278724  0.16144572  0.74635196  1
  O  O49  1  0.47865948  0.31721276  0.74635196  1
  O  O50  1  0.83855428  0.52134052  0.74635196  1
  O  O51  1  0.68278724  0.52134052  0.24635196  1
  O  O52  1  0.83855428  0.31721276  0.24635196  1
  O  O53  1  0.47865948  0.16144572  0.24635196  1
  O  O54  1  0.65504494  0.50700173  0.92151068  1
  O  O55  1  0.85195779  0.34495506  0.92151068  1
  O  O56  1  0.49299827  0.14804221  0.92151068  1
  O  O57  1  0.65504494  0.14804221  0.42151068  1
  O  O58  1  0.49299827  0.34495506  0.42151068  1
  O  O59  1  0.85195779  0.50700173  0.42151068  1
  O  O60  1  0.34945324  0.49477972  0.07968596  1
  O  O61  1  0.14532548  0.65054676  0.07968596  1
  O  O62  1  0.50522028  0.85467452  0.07968596  1
  O  O63  1  0.34945324  0.85467452  0.57968596  1
  O  O64  1  0.50522028  0.65054676  0.57968596  1
  O  O65  1  0.14532548  0.49477972  0.57968596  1
  O  O66  1  0.32171094  0.84033573  0.25484468  1
  O  O67  1  0.51862379  0.67828906  0.25484468  1
  O  O68  1  0.15966427  0.48137621  0.25484468  1
  O  O69  1  0.32171094  0.48137621  0.75484468  1
  O  O70  1  0.15966427  0.67828906  0.75484468  1
  O  O71  1  0.51862379  0.84033573  0.75484468  1
loop_
_geom_bond_atom_site_label_1
_geom_bond_atom_site_label_2
_geom_bond_distance
_geom_bond_site_symmetry_2
Na0 O53 2.473308 1_555
Na0 O52 2.493168 1_555
Na0 O66 2.495556 1_545
Na0 O16 2.605671 1_555
Na0 O67 2.635272 1_545
Na0 O31 2.640887 1_545
Na0 O9 2.953735 1_545
Na0 O2 2.988802 1_555
Na1 O51 2.473316 1_555
Na1 O53 2.493175 1_555
Na1 O67 2.495556 1_555
Na1 O17 2.605674 1_555
Na1 O68 2.635280 1_555
Na1 O32 2.640889 1_555
Na1 O10 2.953735 1_555
Na1 O0 2.988801 1_555
Na2 O52 2.473316 1_555
Na2 O51 2.493167 1_555
Na2 O68 2.495548 1_655
Na2 O15 2.605672 1_555
Na2 O66 2.635273 1_655
Na2 O30 2.640885 1_655
Na2 O11 2.953735 1_655
Na2 O1 2.988802 1_555
Na3 O49 2.473316 1_555
Na3 O50 2.493175 1_555
Na3 O69 2.495556 1_555
Na3 O14 2.605674 1_555
Na3 O71 2.635280 1_555
Na3 O35 2.640889 1_555
Na3 O6 2.953735 1_555
Na3 O4 2.988802 1_555
Na4 O50 2.473308 1_555
Na4 O48 2.493168 1_555
Na4 O70 2.495556 1_655
Na4 O12 2.605671 1_555
Na4 O69 2.635272 1_655
Na4 O33 2.640887 1_655
Na4 O7 2.953735 1_655
Na4 O5 2.988801 1_555
Na5 O48 2.473316 1_555
Na5 O49 2.493167 1_555
Na5 O71 2.495548 1_545
Na5 O13 2.605672 1_555
Na5 O70 2.635273 1_545
Na5 O34 2.640885 1_545
Na5 O8 2.953735 1_545
Na5 O3 2.988802 1_555
Na6 O65 2.473324 1_555
Na6 O64 2.493173 1_555
Na6 O42 2.495556 1_455
Na6 O28 2.605656 1_555
Na6 O43 2.635272 1_555
Na6 O7 2.640887 1_555
Na6 O21 2.953735 1_555
Na6 O14 2.988802 1_555
Na7 O63 2.473308 1_555
Na7 O65 2.493159 1_555
Na7 O43 2.495556 1_565
Na7 O29 2.605648 1_555
Na7 O44 2.635280 1_455
Na7 O8 2.640889 1_555
Na7 O22 2.953735 1_455
Na7 O12 2.988801 1_455
Na8 O64 2.473308 1_555
Na8 O63 2.493177 1_555
Na8 O44 2.495548 1_555
Na8 O27 2.605652 1_555
Na8 O42 2.635273 1_565
Na8 O6 2.640885 1_555
Na8 O23 2.953735 1_565
Na8 O13 2.988802 1_565
Na9 O61 2.473308 1_555
Na9 O62 2.493159 1_555
Na9 O45 2.495556 1_455
Na9 O26 2.605648 1_554
Na9 O47 2.635280 1_565
Na9 O11 2.640889 1_555
Na9 O18 2.953735 1_565
Na9 O16 2.988802 1_565
Na10 O62 2.473324 1_555
Na10 O60 2.493173 1_555
Na10 O46 2.495556 1_565
Na10 O24 2.605656 1_554
Na10 O45 2.635272 1_555
Na10 O9 2.640887 1_555
Na10 O19 2.953735 1_555
Na10 O17 2.988801 1_555
Na11 O60 2.473308 1_555
Na11 O61 2.493177 1_555
Na11 O47 2.495548 1_555
Na11 O25 2.605652 1_554
Na11 O46 2.635273 1_455
Na11 O10 2.640885 1_555
Na11 O20 2.953735 1_455
Na11 O15 2.988802 1_455
Na12 O41 2.473308 1_555
Na12 O40 2.493168 1_655
Na12 O54 2.495547 1_555
Na12 O4 2.605671 1_555
Na12 O55 2.635280 1_555
Na12 O19 2.640866 1_556
Na12 O33 2.953735 1_655
Na12 O26 2.988802 1_655
Na13 O39 2.473316 1_655
Na13 O41 2.493175 1_545
Na13 O55 2.495546 1_555
Na13 O5 2.605674 1_555
Na13 O56 2.635263 1_555
Na13 O20 2.640863 1_556
Na13 O34 2.953735 1_545
Na13 O24 2.988801 1_545
Na14 O40 2.473316 1_545
Na14 O39 2.493167 1_555
Na14 O56 2.495562 1_555
Na14 O3 2.605672 1_555
Na14 O54 2.635278 1_555
Na14 O18 2.640870 1_556
Na14 O35 2.953735 1_555
Na14 O25 2.988802 1_555
Na15 O37 2.473316 1_545
Na15 O38 2.493175 1_655
Na15 O57 2.495546 1_555
Na15 O2 2.605674 1_555
Na15 O59 2.635263 1_555
Na15 O23 2.640863 1_555
Na15 O30 2.953735 1_655
Na15 O28 2.988802 1_655
Na16 O38 2.473308 1_555
Na16 O36 2.493168 1_545
Na16 O58 2.495547 1_555
Na16 O0 2.605671 1_555
Na16 O57 2.635281 1_555
Na16 O21 2.640866 1_555
Na16 O31 2.953735 1_545
Na16 O29 2.988801 1_545
Na17 O36 2.473316 1_655
Na17 O37 2.493167 1_555
Na17 O59 2.495562 1_555
Na17 O1 2.605672 1_555
Na17 O58 2.635278 1_555
Na17 O22 2.640870 1_555
Na17 O32 2.953735 1_555
Na17 O27 2.988802 1_555
Na18 O38 2.476474 1_555
Na18 O36 2.476474 1_545
Na18 O37 2.476475 1_445
Na18 O44 2.600111 1_445
Na18 O42 2.600111 1_455
Na18 O43 2.600111 1_555
Na19 O39 2.476474 1_555
Na19 O41 2.476474 1_445
Na19 O40 2.476475 1_545
Na19 O45 2.600111 1_446
Na19 O47 2.600111 1_556
Na19 O46 2.600111 1_456
Na20 O50 2.476474 1_555
Na20 O48 2.476474 1_555
Na20 O49 2.476475 1_555
Na20 O56 2.600111 1_555
Na20 O54 2.600111 1_555
Na20 O55 2.600111 1_555
Na21 O51 2.476474 1_555
Na21 O53 2.476474 1_555
Na21 O52 2.476475 1_555
Na21 O57 2.600111 1_555
Na21 O59 2.600111 1_555
Na21 O58 2.600111 1_555
Na22 O62 2.476474 1_555
Na22 O60 2.476474 1_555
Na22 O61 2.476475 1_555
Na22 O68 2.600111 1_555
Na22 O66 2.600111 1_555
Na22 O67 2.600111 1_555
Na23 O63 2.476474 1_555
Na23 O65 2.476474 1_555
Na23 O64 2.476475 1_555
Na23 O69 2.600111 1_555
Na23 O71 2.600111 1_555
Na23 O70 2.600111 1_555
Mg0 O1 2.055606 1_445
Mg0 O2 2.055606 1_455
Mg0 O0 2.055606 1_555
Mg0 O38 2.176091 1_555
Mg0 O36 2.176091 1_545
Mg0 O37 2.176091 1_445
Mg1 O4 2.055606 1_445
Mg1 O3 2.055606 1_555
Mg1 O5 2.055606 1_455
Mg1 O39 2.176091 1_555
Mg1 O41 2.176091 1_445
Mg1 O40 2.176091 1_545
Mg2 O13 2.055606 1_555
Mg2 O14 2.055606 1_555
Mg2 O12 2.055606 1_555
Mg2 O50 2.176091 1_555
Mg2 O48 2.176091 1_555
Mg2 O49 2.176091 1_555
Mg3 O16 2.055606 1_555
Mg3 O15 2.055606 1_555
Mg3 O17 2.055606 1_555
Mg3 O51 2.176091 1_555
Mg3 O53 2.176091 1_555
Mg3 O52 2.176091 1_555
Mg4 O25 2.055606 1_554
Mg4 O26 2.055606 1_554
Mg4 O24 2.055606 1_554
Mg4 O62 2.176091 1_555
Mg4 O60 2.176091 1_555
Mg4 O61 2.176091 1_555
Mg5 O28 2.055606 1_555
Mg5 O27 2.055606 1_555
Mg5 O29 2.055606 1_555
Mg5 O63 2.176091 1_555
Mg5 O65 2.176091 1_555
Mg5 O64 2.176091 1_555
In0 O7 2.122357 1_555
In0 O8 2.122357 1_545
In0 O6 2.122357 1_445
In0 O44 2.199785 1_445
In0 O42 2.199785 1_455
In0 O43 2.199785 1_555
In1 O10 2.122357 1_555
In1 O9 2.122357 1_445
In1 O11 2.122357 1_545
In1 O45 2.199785 1_445
In1 O47 2.199785 1_555
In1 O46 2.199785 1_455
In2 O19 2.122357 1_556
In2 O20 2.122357 1_556
In2 O18 2.122357 1_556
In2 O56 2.199785 1_555
In2 O54 2.199785 1_555
In2 O55 2.199785 1_555
In3 O22 2.122357 1_555
In3 O21 2.122357 1_555
In3 O23 2.122357 1_555
In3 O57 2.199785 1_555
In3 O59 2.199785 1_555
In3 O58 2.199785 1_555
In4 O31 2.122357 1_555
In4 O32 2.122357 1_555
In4 O30 2.122357 1_555
In4 O68 2.199785 1_555
In4 O66 2.199785 1_555
In4 O67 2.199785 1_555
In5 O34 2.122357 1_555
In5 O33 2.122357 1_555
In5 O35 2.122357 1_555
In5 O69 2.199785 1_555
In5 O71 2.199785 1_555
In5 O70 2.199785 1_555
O0 P0 1.534595 1_555
O1 P1 1.534595 1_555
O2 P2 1.534595 1_555
O3 P3 1.534595 1_555
O4 P4 1.534595 1_555
O5 P5 1.534595 1_555
O6 P5 1.561532 1_565
O7 P3 1.561532 1_555
O8 P4 1.561532 1_455
O9 P1 1.561532 1_555
O10 P2 1.561532 1_455
O11 P0 1.561532 1_565
O12 P6 1.534595 1_555
O13 P7 1.534595 1_555
O14 P8 1.534595 1_555
O15 P9 1.534595 1_555
O16 P10 1.534595 1_555
O17 P11 1.534595 1_555
O18 P11 1.561532 1_555
O19 P9 1.561532 1_555
O20 P10 1.561532 1_555
O21 P7 1.561532 1_555
O22 P8 1.561532 1_555
O23 P6 1.561532 1_555
O24 P12 1.534595 1_555
O25 P13 1.534595 1_555
O26 P14 1.534595 1_555
O27 P15 1.534595 1_555
O28 P16 1.534595 1_555
O29 P17 1.534595 1_555
O30 P17 1.561532 1_555
O31 P15 1.561532 1_555
O32 P16 1.561532 1_555
O33 P13 1.561532 1_555
O34 P14 1.561532 1_555
O35 P12 1.561532 1_555
O36 P17 1.554167 1_555
O37 P15 1.554176 1_555
O38 P16 1.554172 1_555
O39 P13 1.554176 1_555
O40 P14 1.554167 1_555
O41 P12 1.554172 1_555
O42 P6 1.565033 1_555
O43 P7 1.565042 1_555
O44 P8 1.565038 1_555
O45 P9 1.565042 1_555
O46 P10 1.565033 1_555
O47 P11 1.565038 1_555
O48 P5 1.554167 1_555
O49 P3 1.554176 1_555
O50 P4 1.554172 1_555
O51 P1 1.554176 1_555
O52 P2 1.554167 1_555
O53 P0 1.554172 1_555
O54 P12 1.565046 1_555
O55 P13 1.565028 1_655
O56 P14 1.565035 1_545
O57 P15 1.565028 1_545
O58 P16 1.565046 1_555
O59 P17 1.565035 1_655
O60 P11 1.554179 1_555
O61 P9 1.554161 1_455
O62 P10 1.554169 1_565
O63 P7 1.554161 1_565
O64 P8 1.554179 1_555
O65 P6 1.554169 1_455
O66 P0 1.565033 1_565
O67 P1 1.565042 1_555
O68 P2 1.565038 1_455
O69 P3 1.565042 1_555
O70 P4 1.565033 1_455
O71 P5 1.565038 1_565
