# generated using pymatgen
data_RbV5Se8
_symmetry_space_group_name_H-M   'P 1'
_cell_length_a   3.70292112
_cell_length_b   9.03229082
_cell_length_c   9.56887490
_cell_angle_alpha   104.07424138
_cell_angle_beta   102.01493644
_cell_angle_gamma   89.62081412
_symmetry_Int_Tables_number   1
_chemical_formula_structural   RbV5Se8
_chemical_formula_sum   'Rb1 V5 Se8'
_cell_volume   303.30484338
_cell_formula_units_Z   1
loop_
 _symmetry_equiv_pos_site_id
 _symmetry_equiv_pos_as_xyz
  1  'x, y, z'
loop_
 _atom_site_type_symbol
 _atom_site_label
 _atom_site_symmetry_multiplicity
 _atom_site_fract_x
 _atom_site_fract_y
 _atom_site_fract_z
 _atom_site_occupancy
  Rb  Rb0  1  0.49829137  0.50288709  0.00512397  1
  V  V0  1  0.01160451  0.00679770  0.98768709  1
  V  V1  1  0.35432352  0.01445309  0.69998580  1
  V  V2  1  0.62628573  -0.02022201  0.30725132  1
  V  V3  1  0.28894220  0.64695787  0.57315667  1
  V  V4  1  0.71031717  0.34883649  0.42612930  1
  Se  Se0  1  0.58894726  0.16135916  0.14743653  1
  Se  Se1  1  0.43906148  0.83096398  0.85247804  1
  Se  Se2  1  0.06988687  0.82424267  0.17062261  1
  Se  Se3  1  0.91653618  0.18510770  0.82522048  1
  Se  Se4  1  0.15616301  0.48704455  0.32481460  1
  Se  Se5  1  0.84445046  0.51117565  0.67497308  1
  Se  Se6  1  0.23444454  0.15884390  0.48104135  1
  Se  Se7  1  0.76074469  0.84155114  0.52407916  1
loop_
_geom_bond_atom_site_label_1
_geom_bond_atom_site_label_2
_geom_bond_distance
_geom_bond_site_symmetry_2
Rb0 Se2 3.444263 1_655
Rb0 Se3 3.460820 1_454
Rb0 Se2 3.492666 1_555
Rb0 Se3 3.499788 1_554
Rb0 Se4 3.523991 1_655
Rb0 Se5 3.574354 1_454
Rb0 Se4 3.579413 1_555
Rb0 Se1 3.595247 1_554
Rb0 Se0 3.649935 1_555
Rb0 Se5 3.664860 1_554
Se0 V2 2.485243 1_555
Se0 V0 2.548938 1_554
Se0 V0 2.581525 1_654
Se0 V4 2.737867 1_555
Se1 V1 2.439891 1_565
Se1 V0 2.553738 1_565
Se1 V0 2.567918 1_665
Se1 V3 2.729144 1_555
Se2 V2 2.439521 1_565
Se2 V2 2.520178 1_465
Se2 V0 2.659216 1_564
Se3 V0 2.473263 1_655
Se3 V1 2.500286 1_555
Se3 V1 2.513415 1_655
Se4 V3 2.414259 1_555
Se4 V4 2.536796 1_555
Se4 V4 2.550689 1_455
Se5 V4 2.426058 1_555
Se5 V3 2.529418 1_555
Se5 V3 2.537288 1_655
Se6 V4 2.637725 1_455
Se6 V2 2.674330 1_555
Se6 V4 2.681437 1_555
Se6 V1 2.687231 1_555
Se6 V2 2.762907 1_455
Se7 V2 2.633059 1_565
Se7 V3 2.666225 1_655
Se7 V3 2.673129 1_555
Se7 V1 2.698532 1_565
Se7 V1 2.707379 1_665
