# generated using pymatgen
data_Ti3(BiO3)4
_symmetry_space_group_name_H-M   'P 1'
_cell_length_a   16.70806185
_cell_length_b   16.70806185
_cell_length_c   5.42117964
_cell_angle_alpha   90.00000000
_cell_angle_beta   90.00000000
_cell_angle_gamma   161.17610497
_symmetry_Int_Tables_number   1
_chemical_formula_structural   Ti3(BiO3)4
_chemical_formula_sum   'Ti6 Bi8 O24'
_cell_volume   488.30559653
_cell_formula_units_Z   2
loop_
 _symmetry_equiv_pos_site_id
 _symmetry_equiv_pos_as_xyz
  1  'x, y, z'
loop_
 _atom_site_type_symbol
 _atom_site_label
 _atom_site_symmetry_multiplicity
 _atom_site_fract_x
 _atom_site_fract_y
 _atom_site_fract_z
 _atom_site_occupancy
  Ti  Ti0  1  0.82598864  0.08090172  0.49752172  1
  Ti  Ti1  1  0.08090172  0.82598864  0.50247828  1
  Ti  Ti2  1  0.32598864  0.58090172  0.00247828  1
  Ti  Ti3  1  0.58090172  0.32598864  0.99752172  1
  Ti  Ti4  1  0.95921199  0.95921199  0.50000000  1
  Ti  Ti5  1  0.45921199  0.45921199  0.00000000  1
  Bi  Bi0  1  0.81502945  0.23778186  0.97762707  1
  Bi  Bi1  1  0.23778186  0.81502945  0.02237293  1
  Bi  Bi2  1  0.31502945  0.73778186  0.52237293  1
  Bi  Bi3  1  0.73778186  0.31502945  0.47762707  1
  Bi  Bi4  1  0.93570450  0.06774461  0.99805459  1
  Bi  Bi5  1  0.06774461  0.93570450  0.00194541  1
  Bi  Bi6  1  0.43570450  0.56774461  0.50194541  1
  Bi  Bi7  1  0.56774461  0.43570450  0.49805459  1
  O  O0  1  0.51768435  0.76502217  0.29795070  1
  O  O1  1  0.76502217  0.51768435  0.70204930  1
  O  O2  1  0.01768435  0.26502217  0.20204930  1
  O  O3  1  0.26502217  0.01768435  0.79795070  1
  O  O4  1  0.60021465  0.81914880  0.77554962  1
  O  O5  1  0.81914880  0.60021465  0.22445038  1
  O  O6  1  0.10021465  0.31914880  0.72445038  1
  O  O7  1  0.31914880  0.10021465  0.27554962  1
  O  O8  1  0.76780254  0.12817895  0.55979730  1
  O  O9  1  0.12817895  0.76780254  0.44020270  1
  O  O10  1  0.26780254  0.62817895  0.94020270  1
  O  O11  1  0.62817895  0.26780254  0.05979730  1
  O  O12  1  0.85334796  0.97031684  0.42737624  1
  O  O13  1  0.97031684  0.85334796  0.57262376  1
  O  O14  1  0.18766963  0.16832113  0.24577525  1
  O  O15  1  0.16832113  0.18766963  0.75422475  1
  O  O16  1  0.68766963  0.66832113  0.25422475  1
  O  O17  1  0.66832113  0.68766963  0.74577525  1
  O  O18  1  0.00352500  0.50260720  0.24105122  1
  O  O19  1  0.50260720  0.00352500  0.75894878  1
  O  O20  1  0.50352500  0.00260720  0.25894878  1
  O  O21  1  0.00260720  0.50352500  0.74105122  1
  O  O22  1  0.47031684  0.35334796  0.92737624  1
  O  O23  1  0.35334796  0.47031684  0.07262376  1
loop_
_geom_bond_atom_site_label_1
_geom_bond_atom_site_label_2
_geom_bond_distance
_geom_bond_site_symmetry_2
Bi0 O21 2.199775 1_655
Bi0 O18 2.270789 1_656
Bi0 O19 2.301415 1_555
Bi0 O20 2.477898 1_556
Bi0 O8 2.524189 1_555
Bi0 O10 2.530952 1_655
Bi1 O20 2.199775 1_565
Bi1 O19 2.270789 1_564
Bi1 O18 2.301415 1_555
Bi1 O21 2.477898 1_554
Bi1 O9 2.524189 1_555
Bi1 O11 2.530952 1_565
Bi2 O19 2.199775 1_565
Bi2 O20 2.270789 1_565
Bi2 O21 2.301415 1_555
Bi2 O18 2.477898 1_555
Bi2 O10 2.524189 1_555
Bi2 O8 2.530952 1_565
Bi3 O18 2.199775 1_655
Bi3 O21 2.270789 1_655
Bi3 O20 2.301415 1_555
Bi3 O19 2.477898 1_555
Bi3 O11 2.524189 1_555
Bi3 O9 2.530952 1_655
Bi4 O23 2.290752 1_656
Bi4 O2 2.327438 1_656
Bi4 O6 2.354338 1_655
Bi4 O12 2.391640 1_546
Bi4 O4 2.460354 1_545
Bi4 O15 2.474969 1_655
Bi5 O22 2.290752 1_564
Bi5 O3 2.327438 1_564
Bi5 O7 2.354338 1_565
Bi5 O13 2.391640 1_454
Bi5 O5 2.460354 1_455
Bi5 O14 2.474969 1_565
Bi6 O12 2.290752 1_555
Bi6 O0 2.327438 1_555
Bi6 O4 2.354338 1_555
Bi6 O23 2.391640 1_555
Bi6 O6 2.460354 1_555
Bi6 O17 2.474969 1_555
Bi7 O13 2.290752 1_555
Bi7 O1 2.327438 1_555
Bi7 O5 2.354338 1_555
Bi7 O22 2.391640 1_555
Bi7 O7 2.460354 1_555
Bi7 O16 2.474969 1_555
O0 Ti2 1.906774 1_555
O0 Ti0 2.023537 1_565
O1 Ti3 1.906774 1_555
O1 Ti1 2.023537 1_655
O2 Ti0 1.906774 1_455
O2 Ti2 2.023537 1_555
O3 Ti1 1.906774 1_545
O3 Ti3 2.023537 1_555
O4 Ti2 1.955962 1_556
O4 Ti0 2.097112 1_565
O5 Ti3 1.955962 1_554
O5 Ti1 2.097112 1_655
O6 Ti0 1.955962 1_455
O6 Ti2 2.097112 1_556
O7 Ti1 1.955962 1_545
O7 Ti3 2.097112 1_554
O8 Ti0 1.771097 1_555
O9 Ti1 1.771097 1_555
O10 Ti2 1.771097 1_556
O11 Ti3 1.771097 1_554
O12 Ti4 1.984762 1_555
O12 Ti0 2.316521 1_565
O13 Ti4 1.984762 1_555
O13 Ti1 2.316521 1_655
O14 Ti4 1.852164 1_445
O14 Ti5 2.058770 1_555
O15 Ti4 1.852164 1_445
O15 Ti5 2.058770 1_556
O16 Ti5 1.852164 1_555
O16 Ti4 2.058770 1_555
O17 Ti5 1.852164 1_556
O17 Ti4 2.058770 1_555
O22 Ti5 1.984762 1_556
O22 Ti3 2.316521 1_555
O23 Ti5 1.984762 1_555
O23 Ti2 2.316521 1_555
