# generated using pymatgen
data_MgV2(AuS2)2
_symmetry_space_group_name_H-M   'P 1'
_cell_length_a   3.24141700
_cell_length_b   3.24141635
_cell_length_c   16.99444900
_cell_angle_alpha   90.00000000
_cell_angle_beta   90.00000000
_cell_angle_gamma   119.99999647
_symmetry_Int_Tables_number   1
_chemical_formula_structural   MgV2(AuS2)2
_chemical_formula_sum   'Mg1 V2 Au2 S4'
_cell_volume   154.63487900
_cell_formula_units_Z   1
loop_
 _symmetry_equiv_pos_site_id
 _symmetry_equiv_pos_as_xyz
  1  'x, y, z'
loop_
 _atom_site_type_symbol
 _atom_site_label
 _atom_site_symmetry_multiplicity
 _atom_site_fract_x
 _atom_site_fract_y
 _atom_site_fract_z
 _atom_site_occupancy
  Mg  Mg0  1  0.33333300  0.66666700  0.57643400  1
  V  V0  1  0.33333300  0.66666700  0.23091700  1
  V  V1  1  0.66666700  0.33333300  0.78576700  1
  Au  Au0  1  0.00000000  0.00000000  0.00877600  1
  Au  Au1  1  0.00000000  0.00000000  0.46351900  1
  S  S0  1  0.00000000  0.00000000  0.31521800  1
  S  S1  1  0.00000000  0.00000000  0.86969100  1
  S  S2  1  0.00000000  0.00000000  0.14740300  1
  S  S3  1  0.00000000  0.00000000  0.69810800  1
loop_
_geom_bond_atom_site_label_1
_geom_bond_atom_site_label_2
_geom_bond_distance
_geom_bond_site_symmetry_2
Mg0 S3 2.788903 1_565
Mg0 S3 2.788905 1_555
Mg0 S3 2.788905 1_665
Au0 S2 2.355889 1_555
Au0 S1 2.363673 1_554
Au1 S0 2.520294 1_555
Au1 Mg0 2.680399 1_545
Au1 Mg0 2.680401 1_555
Au1 Mg0 2.680401 1_445
S0 V0 2.356849 1_545
S0 V0 2.356851 1_555
S0 V0 2.356851 1_445
S1 V1 2.352960 1_455
S1 V1 2.352962 1_445
S1 V1 2.352962 1_555
S2 V0 2.348743 1_545
S2 V0 2.348745 1_555
S2 V0 2.348745 1_445
S3 V1 2.391967 1_455
S3 V1 2.391970 1_445
S3 V1 2.391970 1_555
