# generated using pymatgen
data_Na3Nb2Si3Ge2(PO8)3
_symmetry_space_group_name_H-M   'P 1'
_cell_length_a   8.69641689
_cell_length_b   8.70555094
_cell_length_c   22.31663835
_cell_angle_alpha   90.37309579
_cell_angle_beta   89.42675409
_cell_angle_gamma   120.08763804
_symmetry_Int_Tables_number   1
_chemical_formula_structural   Na3Nb2Si3Ge2(PO8)3
_chemical_formula_sum   'Na9 Nb6 Si9 Ge6 P9 O72'
_cell_volume   1461.80495662
_cell_formula_units_Z   3
loop_
 _symmetry_equiv_pos_site_id
 _symmetry_equiv_pos_as_xyz
  1  'x, y, z'
loop_
 _atom_site_type_symbol
 _atom_site_label
 _atom_site_symmetry_multiplicity
 _atom_site_fract_x
 _atom_site_fract_y
 _atom_site_fract_z
 _atom_site_occupancy
  Na  Na0  1  0.99972830  0.63276813  0.25062554  1
  Na  Na1  1  0.66569155  0.96756553  0.58358568  1
  Na  Na2  1  0.66721100  0.70063667  0.08304869  1
  Na  Na3  1  0.00956977  0.99992889  0.50160044  1
  Na  Na4  1  0.00972173  0.00951469  0.00165483  1
  Na  Na5  1  0.66869943  0.33484622  0.83344481  1
  Na  Na6  1  0.65887764  0.32535025  0.33130944  1
  Na  Na7  1  0.33324280  0.66660708  0.16681340  1
  Na  Na8  1  0.32487283  0.66109187  0.66530948  1
  Nb  Nb0  1  0.99461808  0.99222672  0.35592882  1
  Nb  Nb1  1  0.98885787  0.99369732  0.85785458  1
  Nb  Nb2  1  0.66744069  0.32991673  0.68804611  1
  Nb  Nb3  1  0.67214057  0.34038869  0.97939677  1
  Nb  Nb4  1  0.66296037  0.33085561  0.47595136  1
  Nb  Nb5  1  0.33193554  0.66578236  0.80926358  1
  Si  Si0  1  0.69936353  0.70502051  0.24687740  1
  Si  Si1  1  0.00049760  0.71747323  0.74714453  1
  Si  Si2  1  0.72017653  0.99888840  0.74603249  1
  Si  Si3  1  0.36084795  0.03309071  0.58313314  1
  Si  Si4  1  0.96794382  0.62940845  0.08710381  1
  Si  Si5  1  0.60816510  0.66455129  0.92097255  1
  Si  Si6  1  0.05487451  0.38485976  0.91962862  1
  Si  Si7  1  0.60701378  0.94037890  0.41709739  1
  Si  Si8  1  0.06081784  0.66580605  0.41531593  1
  Ge  Ge0  1  0.00623434  0.99573021  0.64733381  1
  Ge  Ge1  1  0.99855845  0.99774850  0.14842140  1
  Ge  Ge2  1  0.66814966  0.33561540  0.18522804  1
  Ge  Ge3  1  0.32479615  0.66480565  0.02035373  1
  Ge  Ge4  1  0.33090602  0.67150808  0.51913646  1
  Ge  Ge5  1  0.34108166  0.66914609  0.31390496  1
  P  P0  1  0.29493438  0.00493705  0.24701955  1
  P  P1  1  0.99946877  0.28644282  0.24745824  1
  P  P2  1  0.27903674  0.27991162  0.74774552  1
  P  P3  1  0.96742189  0.33737878  0.58189181  1
  P  P4  1  0.66458623  0.62648852  0.58284514  1
  P  P5  1  0.66716815  0.04589522  0.08644358  1
  P  P6  1  0.37101907  0.32857069  0.08680759  1
  P  P7  1  0.33312472  0.94931406  0.91938791  1
  P  P8  1  0.33176246  0.39080736  0.41708031  1
  O  O0  1  0.21193092  0.03811458  0.30395370  1
  O  O1  1  0.83567413  0.79758115  0.30456098  1
  O  O2  1  0.97076274  0.17255009  0.30388359  1
  O  O3  1  0.20275405  0.17146152  0.80542211  1
  O  O4  1  0.97019382  0.80249490  0.80835749  1
  O  O5  1  0.83665090  0.03394992  0.80687428  1
  O  O6  1  0.80629680  0.97121587  0.68515373  1
  O  O7  1  0.16668646  0.20127733  0.69158882  1
  O  O8  1  0.03863285  0.83818795  0.68860913  1
  O  O9  1  0.79295447  0.83119817  0.18813645  1
  O  O10  1  0.03485098  0.20206344  0.19146168  1
  O  O11  1  0.16769744  0.96315036  0.19272430  1
  O  O12  1  0.87932921  0.36954569  0.63826086  1
  O  O13  1  0.49919349  0.12907026  0.63937409  1
  O  O14  1  0.63799727  0.51009769  0.63843504  1
  O  O15  1  0.87336329  0.50182172  0.14542378  1
  O  O16  1  0.63147595  0.13109864  0.14206309  1
  O  O17  1  0.49918485  0.37020948  0.14078623  1
  O  O18  1  0.45414917  0.29523674  0.02979979  1
  O  O19  1  0.83159800  0.53705897  0.02948058  1
  O  O20  1  0.69626669  0.16016766  0.02998418  1
  O  O21  1  0.46477106  0.16370627  0.52575249  1
  O  O22  1  0.69767178  0.54020023  0.52718694  1
  O  O23  1  0.84178336  0.30159562  0.52786760  1
  O  O24  1  0.53003959  0.70212187  0.98235949  1
  O  O25  1  0.17313194  0.47116987  0.97824890  1
  O  O26  1  0.29966200  0.83561300  0.97543326  1
  O  O27  1  0.53720192  0.82999985  0.47938823  1
  O  O28  1  0.29984243  0.46828575  0.47454017  1
  O  O29  1  0.17431941  0.70173805  0.47553523  1
  O  O30  1  0.13506248  0.62930382  0.35218783  1
  O  O31  1  0.49171663  0.86200876  0.35709884  1
  O  O32  1  0.36822865  0.50098374  0.35948757  1
  O  O33  1  0.13266625  0.50112599  0.85859024  1
  O  O34  1  0.36498461  0.87007408  0.86159184  1
  O  O35  1  0.49774630  0.63725841  0.85998550  1
  O  O36  1  0.03754700  0.84246091  0.40876440  1
  O  O37  1  0.81080324  0.97389305  0.40966643  1
  O  O38  1  0.16886685  0.20239983  0.41030008  1
  O  O39  1  0.03379024  0.18941732  0.91306630  1
  O  O40  1  0.16944840  0.97136443  0.91278481  1
  O  O41  1  0.80901493  0.83644946  0.91509085  1
  O  O42  1  0.97280977  0.16423425  0.58902238  1
  O  O43  1  0.17229630  0.02622974  0.58971332  1
  O  O44  1  0.82976642  0.81499333  0.58817182  1
  O  O45  1  0.97430253  0.82183246  0.09260970  1
  O  O46  1  0.83673783  0.02836921  0.09153396  1
  O  O47  1  0.18578968  0.16166241  0.09417146  1
  O  O48  1  0.69550557  0.17323527  0.74233276  1
  O  O49  1  0.46776923  0.30392260  0.74145810  1
  O  O50  1  0.82340786  0.52150673  0.74227287  1
  O  O51  1  0.69260527  0.51216270  0.24101321  1
  O  O52  1  0.82994765  0.30459414  0.24205422  1
  O  O53  1  0.48053791  0.17168507  0.23937728  1
  O  O54  1  0.63128270  0.48931250  0.92497418  1
  O  O55  1  0.85313261  0.35570333  0.92512961  1
  O  O56  1  0.49982709  0.13487704  0.92508466  1
  O  O57  1  0.63585752  0.14183208  0.42323056  1
  O  O58  1  0.49907198  0.36974229  0.42284159  1
  O  O59  1  0.85820751  0.49662404  0.42296668  1
  O  O60  1  0.36285814  0.50159387  0.08018121  1
  O  O61  1  0.16158538  0.64840787  0.07701295  1
  O  O62  1  0.50393938  0.85665590  0.07986313  1
  O  O63  1  0.35808550  0.84400029  0.57711308  1
  O  O64  1  0.49565870  0.64190244  0.57742129  1
  O  O65  1  0.15116949  0.50318267  0.57528037  1
  O  O66  1  0.30391618  0.83187339  0.25357739  1
  O  O67  1  0.50501151  0.68537431  0.25719623  1
  O  O68  1  0.16280813  0.47642844  0.25380634  1
  O  O69  1  0.30327255  0.46749006  0.75315611  1
  O  O70  1  0.17263423  0.69238414  0.75365047  1
  O  O71  1  0.52407925  0.82587692  0.75299078  1
loop_
_geom_bond_atom_site_label_1
_geom_bond_atom_site_label_2
_geom_bond_distance
_geom_bond_site_symmetry_2
Na0 O66 2.326202 1_655
Na0 O51 2.340682 1_555
Na0 O68 2.409843 1_655
Na0 O52 2.479479 1_555
Na0 O30 2.571588 1_655
Na0 O15 2.603804 1_555
Na0 O1 2.745613 1_555
Na0 O11 2.806051 1_655
Na1 O63 2.335489 1_555
Na1 O42 2.344842 1_565
Na1 O44 2.390712 1_555
Na1 O64 2.457396 1_555
Na1 O6 2.578653 1_555
Na1 O27 2.600766 1_555
Na1 O13 2.757839 1_565
Na1 O23 2.809148 1_565
Na2 O60 2.327139 1_555
Na2 O45 2.339684 1_555
Na2 O62 2.408903 1_555
Na2 O46 2.476015 1_565
Na2 O24 2.557707 1_554
Na2 O9 2.599626 1_555
Na2 O19 2.735961 1_555
Na2 O17 2.804666 1_555
Na3 O43 2.376267 1_565
Na3 O44 2.495097 1_455
Na3 O42 2.522709 1_465
Na3 O36 2.553049 1_555
Na3 O38 2.592189 1_565
Na3 O37 2.630715 1_455
Na4 O39 2.471544 1_554
Na4 O47 2.521082 1_555
Na4 O40 2.524284 1_544
Na4 O45 2.531922 1_445
Na4 O41 2.537963 1_444
Na4 O46 2.548750 1_455
Na5 O50 2.527197 1_555
Na5 O48 2.539728 1_555
Na5 O54 2.544820 1_555
Na5 O55 2.561412 1_555
Na5 O56 2.606262 1_555
Na5 O49 2.633029 1_555
Na6 O51 2.518758 1_555
Na6 O53 2.520264 1_555
Na6 O52 2.533576 1_555
Na6 O57 2.552331 1_555
Na6 O58 2.593205 1_555
Na6 O59 2.617592 1_555
Na7 O61 2.467458 1_555
Na7 O67 2.477459 1_555
Na7 O60 2.488488 1_555
Na7 O66 2.491169 1_555
Na7 O62 2.495570 1_555
Na7 O68 2.496148 1_555
Na8 O70 2.452775 1_555
Na8 O63 2.461953 1_555
Na8 O65 2.480121 1_555
Na8 O64 2.503394 1_555
Na8 O71 2.535243 1_555
Na8 O69 2.537214 1_555
Nb0 O37 1.930617 1_555
Nb0 O36 1.935567 1_655
Nb0 O1 1.937537 1_555
Nb0 O2 2.052188 1_565
Nb0 O0 2.069227 1_665
Nb0 O38 2.084279 1_665
Nb1 O5 1.915628 1_565
Nb1 O4 1.930258 1_555
Nb1 O41 1.946206 1_555
Nb1 O39 1.971981 1_665
Nb1 O3 2.077959 1_665
Nb1 O40 2.086801 1_655
Nb2 O48 1.936234 1_555
Nb2 O13 1.954434 1_555
Nb2 O50 1.955600 1_555
Nb2 O49 2.013779 1_555
Nb2 O12 2.018787 1_555
Nb2 O14 2.045181 1_555
Nb3 O55 1.927543 1_555
Nb3 O19 1.931107 1_556
Nb3 O54 1.942464 1_555
Nb3 O20 2.034184 1_556
Nb3 O18 2.056584 1_556
Nb3 O56 2.058036 1_555
Nb4 O57 1.933682 1_555
Nb4 O21 1.947125 1_555
Nb4 O59 1.972053 1_555
Nb4 O58 2.018287 1_555
Nb4 O22 2.036673 1_555
Nb4 O23 2.064630 1_555
Nb5 O33 1.939407 1_555
Nb5 O35 1.953851 1_555
Nb5 O70 1.967987 1_555
Nb5 O71 1.989328 1_555
Nb5 O34 2.019026 1_555
Nb5 O69 2.038760 1_555
Ge0 O8 1.793861 1_555
Ge0 O6 1.839036 1_455
Ge0 O43 1.841849 1_565
Ge0 O7 1.904067 1_565
Ge0 O44 2.041177 1_455
Ge0 O42 2.095166 1_465
Ge1 O9 1.862924 1_555
Ge1 O45 1.896756 1_555
Ge1 O10 1.899167 1_665
Ge1 O11 1.925868 1_655
Ge1 O47 1.951048 1_665
Ge1 O46 2.019764 1_565
Ge2 O15 1.861048 1_555
Ge2 O51 1.899982 1_555
Ge2 O16 1.901070 1_555
Ge2 O17 1.926187 1_555
Ge2 O53 1.951239 1_555
Ge2 O52 2.020438 1_555
Ge3 O25 1.799739 1_554
Ge3 O61 1.843105 1_555
Ge3 O24 1.844509 1_554
Ge3 O26 1.900919 1_554
Ge3 O62 2.093775 1_555
Ge3 O60 2.101450 1_555
Ge4 O29 1.805425 1_555
Ge4 O27 1.846985 1_555
Ge4 O63 1.899938 1_555
Ge4 O28 1.922673 1_555
Ge4 O65 1.961767 1_555
Ge4 O64 2.054994 1_555
Ge5 O31 1.806415 1_555
Ge5 O30 1.846701 1_555
Ge5 O67 1.848839 1_555
Ge5 O32 1.898525 1_555
Ge5 O66 2.101541 1_555
Ge5 O68 2.102732 1_555
O0 P0 1.550723 1_555
O1 Si0 1.664619 1_555
O2 P1 1.546878 1_555
O3 P2 1.535889 1_555
O4 Si1 1.630531 1_655
O5 Si2 1.635501 1_545
O6 Si2 1.618963 1_555
O7 P2 1.528571 1_555
O8 Si1 1.606417 1_555
O9 Si0 1.639662 1_555
O10 P1 1.550123 1_455
O11 P0 1.562810 1_565
O12 P3 1.561736 1_555
O13 Si3 1.652137 1_555
O14 P4 1.547544 1_555
O15 Si4 1.638761 1_555
O16 P5 1.548660 1_555
O17 P6 1.562336 1_555
O18 P6 1.553231 1_555
O19 Si4 1.663495 1_555
O20 P5 1.548797 1_555
O21 Si3 1.647714 1_555
O22 P4 1.545088 1_555
O23 P3 1.557112 1_555
O24 Si5 1.625942 1_555
O25 Si6 1.604044 1_555
O26 P7 1.532592 1_555
O27 Si7 1.624795 1_555
O28 P8 1.531554 1_555
O29 Si8 1.609245 1_555
O30 Si8 1.638378 1_555
O31 Si7 1.610196 1_555
O32 P8 1.541230 1_555
O33 Si6 1.628070 1_555
O34 P7 1.545686 1_555
O35 Si5 1.619908 1_555
O36 Si8 1.656191 1_555
O37 Si7 1.652200 1_555
O38 P8 1.546382 1_555
O39 Si6 1.623096 1_555
O40 P7 1.537254 1_555
O41 Si5 1.638512 1_555
O42 P3 1.540653 1_555
O43 Si3 1.615835 1_555
O44 P4 1.551748 1_555
O45 Si4 1.651933 1_555
O46 P5 1.562030 1_555
O47 P6 1.544056 1_555
O48 Si2 1.638600 1_545
O49 P2 1.552102 1_555
O50 Si1 1.631150 1_655
O51 Si0 1.654616 1_555
O52 P1 1.565322 1_555
O53 P0 1.545979 1_555
O54 Si5 1.638700 1_555
O55 Si6 1.645336 1_655
O56 P7 1.542836 1_545
O57 Si7 1.647367 1_545
O58 P8 1.561648 1_555
O59 Si8 1.642632 1_655
O60 P6 1.551137 1_555
O61 Si4 1.620960 1_455
O62 P5 1.551414 1_565
O63 Si3 1.638879 1_565
O64 P4 1.546683 1_555
O65 P3 1.531044 1_455
O66 P0 1.555152 1_565
O67 Si0 1.625371 1_555
O68 P1 1.555211 1_455
O69 P2 1.542226 1_555
O70 Si1 1.625515 1_555
O71 Si2 1.619646 1_555
