# generated using pymatgen
data_NdH2ClO2
_symmetry_space_group_name_H-M   'P 1'
_cell_length_a   3.89593100
_cell_length_b   6.30131400
_cell_length_c   6.88595359
_cell_angle_alpha   112.56324403
_cell_angle_beta   90.00000000
_cell_angle_gamma   90.00000000
_symmetry_Int_Tables_number   1
_chemical_formula_structural   NdH2ClO2
_chemical_formula_sum   'Nd2 H4 Cl2 O4'
_cell_volume   156.10720179
_cell_formula_units_Z   2
loop_
 _symmetry_equiv_pos_site_id
 _symmetry_equiv_pos_as_xyz
  1  'x, y, z'
loop_
 _atom_site_type_symbol
 _atom_site_label
 _atom_site_symmetry_multiplicity
 _atom_site_fract_x
 _atom_site_fract_y
 _atom_site_fract_z
 _atom_site_occupancy
  Nd  Nd0  1  0.75000000  0.30888600  0.13291600  1
  Nd  Nd1  1  0.25000000  0.69111400  0.86708400  1
  H  H0  1  0.25000000  0.69228300  0.30473900  1
  H  H1  1  0.75000000  0.30771700  0.69526100  1
  H  H2  1  0.25000000  0.11688400  0.78353100  1
  H  H3  1  0.75000000  0.88311600  0.21646900  1
  Cl  Cl0  1  0.25000000  0.24961000  0.44403500  1
  Cl  Cl1  1  0.75000000  0.75039000  0.55596500  1
  O  O0  1  0.75000000  0.89935400  0.08108200  1
  O  O1  1  0.25000000  0.10064600  0.91891800  1
  O  O2  1  0.75000000  0.42886000  0.83607600  1
  O  O3  1  0.25000000  0.57114000  0.16392400  1
loop_
_geom_bond_atom_site_label_1
_geom_bond_atom_site_label_2
_geom_bond_distance
_geom_bond_site_symmetry_2
Nd0 O2 2.436272 1_554
Nd0 O0 2.465765 1_545
Nd0 O1 2.490778 1_654
Nd0 O1 2.490778 1_554
Nd0 O3 2.510037 1_555
Nd0 O3 2.510037 1_655
Nd1 O3 2.436272 1_556
Nd1 O1 2.465765 1_565
Nd1 O0 2.490778 1_456
Nd1 O0 2.490778 1_556
Nd1 O2 2.510037 1_555
Nd1 O2 2.510037 1_455
H0 O3 0.977193 1_555
H1 O2 0.977193 1_555
H2 O1 0.976113 1_555
H3 O0 0.976113 1_555
Cl0 Nd0 3.022885 1_455
Cl0 Nd0 3.022885 1_555
Cl0 Nd1 3.163321 1_555
Cl1 Nd1 3.022885 1_555
Cl1 Nd1 3.022885 1_655
Cl1 Nd0 3.163321 1_555
