# generated using pymatgen
data_Na5ZrAl3(PO4)6
_symmetry_space_group_name_H-M   'P 1'
_cell_length_a   8.67331032
_cell_length_b   8.65890335
_cell_length_c   21.92284219
_cell_angle_alpha   89.92868387
_cell_angle_beta   90.04557314
_cell_angle_gamma   120.00798477
_symmetry_Int_Tables_number   1
_chemical_formula_structural   Na5ZrAl3(PO4)6
_chemical_formula_sum   'Na15 Zr3 Al9 P18 O72'
_cell_volume   1425.73881267
_cell_formula_units_Z   3
loop_
 _symmetry_equiv_pos_site_id
 _symmetry_equiv_pos_as_xyz
  1  'x, y, z'
loop_
 _atom_site_type_symbol
 _atom_site_label
 _atom_site_symmetry_multiplicity
 _atom_site_fract_x
 _atom_site_fract_y
 _atom_site_fract_z
 _atom_site_occupancy
  Na  Na0  1  0.63398957  0.99953337  0.25354600  1
  Na  Na1  1  0.36506098  0.36594326  0.25387168  1
  Na  Na2  1  0.00061001  0.63549007  0.25353930  1
  Na  Na3  1  0.63571820  0.63178403  0.74797959  1
  Na  Na4  1  0.00032619  0.36375494  0.74797444  1
  Na  Na5  1  0.02864635  0.69799168  0.58160789  1
  Na  Na6  1  0.66647327  0.97082204  0.58127005  1
  Na  Na7  1  0.66683090  0.69625271  0.08234186  1
  Na  Na8  1  0.02855154  0.33053698  0.08256571  1
  Na  Na9  1  0.01060068  0.01162339  0.49580134  1
  Na  Na10  1  0.00927990  0.99878717  0.99646621  1
  Na  Na11  1  0.65564412  0.32139130  0.83210484  1
  Na  Na12  1  0.66647055  0.33343342  0.33512546  1
  Na  Na13  1  0.33216018  0.67554345  0.16598616  1
  Na  Na14  1  0.33294834  0.66493444  0.66202482  1
  Zr  Zr0  1  0.66578431  0.33326219  0.97982227  1
  Zr  Zr1  1  0.66376688  0.33213911  0.47644567  1
  Zr  Zr2  1  0.33400405  0.67350437  0.81213294  1
  Al  Al0  1  0.00072416  -0.00007324  0.35588338  1
  Al  Al1  1  0.00263084  0.00164463  0.85393368  1
  Al  Al2  1  0.00531977  0.00481163  0.64726120  1
  Al  Al3  1  0.00398528  0.99917167  0.15014906  1
  Al  Al4  1  0.66011069  0.32759952  0.68478294  1
  Al  Al5  1  0.66576393  0.33197701  0.18486781  1
  Al  Al6  1  0.33262147  0.67209531  0.01723262  1
  Al  Al7  1  0.33239017  0.66064107  0.51554879  1
  Al  Al8  1  0.33298714  0.66655303  0.31751194  1
  P  P0  1  0.28749487  0.00123830  0.25073997  1
  P  P1  1  0.71324206  0.71200843  0.24993702  1
  P  P2  1  0.99881887  0.28685020  0.24997350  1
  P  P3  1  0.28805531  0.27296105  0.74899384  1
  P  P4  1  0.99186421  0.71492543  0.74760766  1
  P  P5  1  0.72319695  0.01059156  0.74751030  1
  P  P6  1  0.96501976  0.33365774  0.58638502  1
  P  P7  1  0.37005894  0.04041345  0.58609585  1
  P  P8  1  0.66298143  0.62680722  0.58670152  1
  P  P9  1  0.96639562  0.63343919  0.08740670  1
  P  P10  1  0.66365447  0.03514181  0.08772154  1
  P  P11  1  0.36815500  0.32916118  0.08762915  1
  P  P12  1  0.63309274  0.68230832  0.91792043  1
  P  P13  1  0.04877061  0.36744919  0.91820675  1
  P  P14  1  0.31762150  0.95232434  0.91880142  1
  P  P15  1  0.62335297  0.94243679  0.41467743  1
  P  P16  1  0.31924588  0.37701091  0.41355356  1
  P  P17  1  0.05706511  0.68004168  0.41483033  1
  O  O0  1  0.20432353  0.03986335  0.30593471  1
  O  O1  1  0.83709097  0.79794784  0.30470907  1
  O  O2  1  0.96124254  0.16285529  0.30467835  1
  O  O3  1  0.20202902  0.16799901  0.80718334  1
  O  O4  1  0.96400171  0.80031913  0.80454196  1
  O  O5  1  0.83640132  0.03829044  0.80475534  1
  O  O6  1  0.80390086  0.97485448  0.69040072  1
  O  O7  1  0.16727487  0.19387324  0.69341617  1
  O  O8  1  0.01954633  0.82414140  0.68971741  1
  O  O9  1  0.79374853  0.82829380  0.19203492  1
  O  O10  1  0.03373649  0.20617602  0.19202579  1
  O  O11  1  0.16731652  0.96345813  0.19431929  1
  O  O12  1  0.87718429  0.37039148  0.64247859  1
  O  O13  1  0.49929380  0.12985828  0.63989345  1
  O  O14  1  0.63570892  0.51005393  0.64351283  1
  O  O15  1  0.87627062  0.50676712  0.14280854  1
  O  O16  1  0.63579854  0.12564150  0.14382065  1
  O  O17  1  0.49451738  0.36716845  0.14273712  1
  O  O18  1  0.45029109  0.29740820  0.03067728  1
  O  O19  1  0.84359946  0.55210411  0.03152449  1
  O  O20  1  0.70820654  0.15816104  0.03193754  1
  O  O21  1  0.45075569  0.15342164  0.52839523  1
  O  O22  1  0.70620698  0.54631288  0.53108832  1
  O  O23  1  0.84071579  0.29287654  0.53075450  1
  O  O24  1  0.53622356  0.69743103  0.97507546  1
  O  O25  1  0.16128891  0.46397429  0.97527798  1
  O  O26  1  0.30050261  0.83669182  0.97446764  1
  O  O27  1  0.53488974  0.83752455  0.47386697  1
  O  O28  1  0.30129904  0.46750716  0.47120585  1
  O  O29  1  0.16282645  0.69776064  0.47388297  1
  O  O30  1  0.13850056  0.64700097  0.35694223  1
  O  O31  1  0.50894376  0.86081596  0.35676482  1
  O  O32  1  0.35276204  0.48991980  0.35506635  1
  O  O33  1  0.12434802  0.47988389  0.85926114  1
  O  O34  1  0.35705739  0.87713597  0.86063488  1
  O  O35  1  0.52072772  0.64519714  0.85903080  1
  O  O36  1  0.03556891  0.84433633  0.40815555  1
  O  O37  1  0.80915664  0.96405858  0.40802411  1
  O  O38  1  0.15543225  0.19097727  0.40761289  1
  O  O39  1  0.03169001  0.18470797  0.91080607  1
  O  O40  1  0.15154616  0.96744456  0.91041818  1
  O  O41  1  0.81553680  0.84819074  0.91014252  1
  O  O42  1  0.97962425  0.16488202  0.59372763  1
  O  O43  1  0.18228987  0.01433605  0.59354406  1
  O  O44  1  0.83122563  0.81569777  0.59292559  1
  O  O45  1  0.97982275  0.81603093  0.09527703  1
  O  O46  1  0.83226912  0.01603379  0.09479475  1
  O  O47  1  0.18059750  0.16679628  0.09489944  1
  O  O48  1  0.70067771  0.17592142  0.74120936  1
  O  O49  1  0.47850269  0.30383575  0.74206811  1
  O  O50  1  0.82626049  0.52251022  0.74278570  1
  O  O51  1  0.69100274  0.52186175  0.24204576  1
  O  O52  1  0.83112346  0.30925965  0.24238866  1
  O  O53  1  0.47735893  0.16870510  0.24208732  1
  O  O54  1  0.65054891  0.51349259  0.92186875  1
  O  O55  1  0.86301711  0.35048958  0.92239244  1
  O  O56  1  0.48682341  0.13828200  0.92265551  1
  O  O57  1  0.64198945  0.13099299  0.41857242  1
  O  O58  1  0.48963154  0.35957513  0.41847122  1
  O  O59  1  0.86908660  0.50997595  0.41925577  1
  O  O60  1  0.35315704  0.50018309  0.07905845  1
  O  O61  1  0.14648066  0.64216396  0.07765487  1
  O  O62  1  0.49970741  0.84931359  0.07796910  1
  O  O63  1  0.35377449  0.85343578  0.57796824  1
  O  O64  1  0.49907249  0.64909019  0.57710738  1
  O  O65  1  0.14616878  0.50475669  0.57655870  1
  O  O66  1  0.31208835  0.83468345  0.25690000  1
  O  O67  1  0.52352562  0.68880357  0.25622147  1
  O  O68  1  0.16480800  0.47747830  0.25620517  1
  O  O69  1  0.31152511  0.46685787  0.75263026  1
  O  O70  1  0.15455415  0.68476046  0.75056058  1
  O  O71  1  0.53630559  0.83971479  0.75107659  1
loop_
_geom_bond_atom_site_label_1
_geom_bond_atom_site_label_2
_geom_bond_distance
_geom_bond_site_symmetry_2
Na0 O67 2.362594 1_555
Na0 O52 2.363940 1_565
Na0 O66 2.419036 1_555
Na0 O53 2.458337 1_565
Na0 O31 2.536457 1_555
Na0 O16 2.637308 1_565
Na0 O2 2.701250 1_565
Na0 O9 2.828423 1_555
Na1 O53 2.365918 1_555
Na1 O68 2.372778 1_555
Na1 O67 2.421595 1_555
Na1 O51 2.462627 1_555
Na1 O32 2.491236 1_555
Na1 O17 2.681264 1_555
Na1 O0 2.697348 1_555
Na1 O10 2.834112 1_555
Na2 O51 2.366286 1_455
Na2 O66 2.370225 1_555
Na2 O68 2.419141 1_555
Na2 O52 2.459234 1_455
Na2 O30 2.540878 1_555
Na2 O15 2.664306 1_455
Na2 O1 2.692707 1_455
Na2 O11 2.779844 1_555
Na3 O50 2.281247 1_555
Na3 O71 2.354332 1_555
Na3 O69 2.437168 1_555
Na3 O49 2.463223 1_555
Na3 O14 2.522300 1_555
Na3 O35 2.656256 1_555
Na3 O4 2.759916 1_555
Na3 O6 2.864446 1_555
Na4 O48 2.278980 1_455
Na4 O69 2.383747 1_555
Na4 O70 2.408267 1_555
Na4 O50 2.501408 1_455
Na4 O12 2.559308 1_455
Na4 O33 2.653390 1_555
Na4 O5 2.738493 1_455
Na4 O7 2.797987 1_555
Na5 O65 2.357417 1_555
Na5 O43 2.386961 1_565
Na5 O44 2.403994 1_455
Na5 O63 2.444109 1_555
Na5 O8 2.628609 1_555
Na5 O29 2.634092 1_555
Na5 O22 2.664104 1_455
Na5 O12 2.796278 1_455
Na6 O63 2.374141 1_555
Na6 O42 2.389572 1_565
Na6 O44 2.414495 1_555
Na6 O64 2.414944 1_555
Na6 O27 2.619857 1_555
Na6 O23 2.658279 1_565
Na6 O6 2.664554 1_555
Na6 O13 2.766800 1_565
Na7 O60 2.380996 1_555
Na7 O45 2.389322 1_555
Na7 O62 2.405791 1_555
Na7 O46 2.414063 1_565
Na7 O24 2.611618 1_554
Na7 O9 2.654373 1_555
Na7 O19 2.658939 1_555
Na7 O17 2.800079 1_555
Na8 O61 2.361712 1_555
Na8 O47 2.385592 1_555
Na8 O46 2.397474 1_455
Na8 O60 2.440001 1_555
Na8 O25 2.619082 1_554
Na8 O10 2.638534 1_555
Na8 O20 2.651538 1_455
Na8 O15 2.800175 1_455
Na9 O38 2.402640 1_555
Na9 O36 2.481616 1_545
Na9 O37 2.490417 1_445
Na9 O43 2.601857 1_555
Na9 O42 2.608971 1_455
Na9 O44 2.681134 1_445
Na10 O40 2.344081 1_555
Na10 O39 2.415800 1_565
Na10 O41 2.432050 1_455
Na10 O47 2.611797 1_566
Na10 O45 2.617233 1_456
Na10 O46 2.694724 1_466
Na11 O49 2.458065 1_555
Na11 O48 2.491902 1_555
Na11 O56 2.504647 1_555
Na11 O50 2.544657 1_555
Na11 O54 2.592908 1_555
Na11 O55 2.599739 1_555
Na12 O57 2.466742 1_555
Na12 O58 2.468815 1_555
Na12 O59 2.478232 1_555
Na12 O51 2.552729 1_555
Na12 O52 2.553669 1_555
Na12 O53 2.558684 1_555
Na13 O62 2.430885 1_555
Na13 O61 2.440878 1_555
Na13 O66 2.479692 1_555
Na13 O60 2.500967 1_555
Na13 O68 2.542881 1_555
Na13 O67 2.546779 1_555
Na14 O64 2.400658 1_555
Na14 O63 2.406378 1_555
Na14 O65 2.410992 1_555
Na14 O70 2.542068 1_555
Na14 O71 2.558239 1_555
Na14 O69 2.568078 1_555
Al0 O38 1.898738 1_555
Al0 O36 1.903281 1_545
Al0 O37 1.910423 1_445
Al0 O0 1.956607 1_555
Al0 O2 1.961218 1_455
Al0 O1 1.962448 1_445
Al1 O3 1.903589 1_555
Al1 O40 1.915308 1_545
Al1 O39 1.932740 1_555
Al1 O4 1.934835 1_445
Al1 O41 1.938982 1_445
Al1 O5 1.948332 1_455
Al2 O7 1.838127 1_555
Al2 O8 1.875681 1_545
Al2 O6 1.887422 1_445
Al2 O43 1.904102 1_555
Al2 O42 1.911184 1_455
Al2 O44 1.977172 1_445
Al3 O11 1.864237 1_555
Al3 O9 1.912603 1_455
Al3 O10 1.913977 1_565
Al3 O45 1.917733 1_455
Al3 O47 1.922216 1_565
Al3 O46 1.981491 1_465
Al4 O13 1.859806 1_555
Al4 O14 1.920913 1_555
Al4 O49 1.943938 1_555
Al4 O48 1.958686 1_555
Al4 O12 1.961197 1_555
Al4 O50 2.027736 1_555
Al5 O17 1.897839 1_555
Al5 O16 1.899623 1_555
Al5 O15 1.926026 1_555
Al5 O53 1.982575 1_555
Al5 O52 1.991113 1_555
Al5 O51 1.991795 1_555
Al6 O26 1.838810 1_554
Al6 O25 1.903979 1_554
Al6 O24 1.906645 1_554
Al6 O62 2.001374 1_555
Al6 O61 2.003073 1_555
Al6 O60 2.084337 1_555
Al7 O28 1.834933 1_555
Al7 O29 1.889579 1_555
Al7 O27 1.890493 1_555
Al7 O65 2.009450 1_555
Al7 O64 2.015555 1_555
Al7 O63 2.095089 1_555
Al8 O32 1.818099 1_555
Al8 O31 1.825609 1_555
Al8 O30 1.826919 1_555
Al8 O66 2.043699 1_555
Al8 O68 2.056244 1_555
Al8 O67 2.063503 1_555
O0 P0 1.529742 1_555
O1 P1 1.532993 1_555
O2 P2 1.531230 1_555
O3 P3 1.526574 1_555
O4 P4 1.531193 1_555
O5 P5 1.536154 1_555
O6 P5 1.540208 1_565
O7 P3 1.527547 1_555
O8 P4 1.527424 1_455
O9 P1 1.551683 1_555
O10 P2 1.551767 1_455
O11 P0 1.543150 1_565
O12 P6 1.561609 1_555
O13 P7 1.542419 1_555
O14 P8 1.545092 1_555
O15 P9 1.558802 1_555
O16 P10 1.541825 1_555
O17 P11 1.551499 1_555
O18 P11 1.529756 1_555
O18 Zr0 2.062698 1_554
O19 P9 1.543048 1_555
O19 Zr0 2.081689 1_554
O20 P10 1.537979 1_555
O20 Zr0 2.071848 1_554
O21 P7 1.536489 1_555
O21 Zr1 2.060182 1_555
O22 P8 1.541758 1_555
O22 Zr1 2.081285 1_555
O23 P6 1.546805 1_555
O23 Zr1 2.099166 1_555
O24 P12 1.550865 1_555
O25 P13 1.549570 1_555
O26 P14 1.537003 1_555
O27 P15 1.548931 1_555
O28 P16 1.536387 1_555
O29 P17 1.548808 1_555
O30 P17 1.547814 1_555
O31 P15 1.547521 1_555
O32 P16 1.548415 1_555
O33 P13 1.551554 1_555
O33 Zr2 2.033268 1_555
O34 P14 1.546748 1_555
O34 Zr2 1.982736 1_555
O35 P12 1.550999 1_555
O35 Zr2 2.033159 1_555
O36 P17 1.531253 1_555
O37 P15 1.533586 1_555
O38 P16 1.530181 1_555
O39 P13 1.522562 1_555
O40 P14 1.521147 1_555
O41 P12 1.523994 1_555
O42 P6 1.536954 1_555
O43 P7 1.537019 1_555
O44 P8 1.560795 1_555
O45 P9 1.536070 1_555
O46 P10 1.559415 1_555
O47 P11 1.536399 1_555
O48 P5 1.544597 1_555
O49 P3 1.543241 1_555
O50 P4 1.567377 1_555
O51 P1 1.568747 1_555
O52 P2 1.569276 1_555
O53 P0 1.569017 1_555
O54 P12 1.545376 1_555
O54 Zr0 2.065957 1_555
O55 P13 1.545695 1_655
O55 Zr0 2.069173 1_555
O56 P14 1.545987 1_545
O56 Zr0 2.052145 1_555
O57 P15 1.560592 1_545
O57 Zr1 2.086862 1_555
O58 P16 1.562435 1_555
O58 Zr1 2.075565 1_555
O59 P17 1.560297 1_655
O59 Zr1 2.090518 1_555
O60 P11 1.561130 1_555
O61 P9 1.540621 1_455
O62 P10 1.539018 1_565
O63 P7 1.563611 1_565
O64 P8 1.541524 1_555
O65 P6 1.543160 1_455
O66 P0 1.565502 1_565
O67 P1 1.560934 1_555
O68 P2 1.561798 1_455
O69 P3 1.589047 1_555
O69 Zr2 2.144253 1_555
O70 P4 1.559477 1_455
O70 Zr2 2.098116 1_555
O71 P5 1.556863 1_565
O71 Zr2 2.101128 1_555
