# generated using pymatgen
data_MgMn6(O5F)2
_symmetry_space_group_name_H-M   'P 1'
_cell_length_a   5.14881730
_cell_length_b   7.50875356
_cell_length_c   5.75022930
_cell_angle_alpha   97.60213890
_cell_angle_beta   99.04568930
_cell_angle_gamma   84.91900586
_symmetry_Int_Tables_number   1
_chemical_formula_structural   MgMn6(O5F)2
_chemical_formula_sum   'Mg1 Mn6 O10 F2'
_cell_volume   217.09420799
_cell_formula_units_Z   1
loop_
 _symmetry_equiv_pos_site_id
 _symmetry_equiv_pos_as_xyz
  1  'x, y, z'
loop_
 _atom_site_type_symbol
 _atom_site_label
 _atom_site_symmetry_multiplicity
 _atom_site_fract_x
 _atom_site_fract_y
 _atom_site_fract_z
 _atom_site_occupancy
  Mg  Mg0  1  0.98278444  0.49154443  0.97523111  1
  Mn  Mn0  1  0.52535580  0.01756066  0.49049480  1
  Mn  Mn1  1  0.50197224  0.68210215  0.16849909  1
  Mn  Mn2  1  0.47046641  0.31707804  0.86653156  1
  Mn  Mn3  1  0.02493358  0.69385480  0.63229986  1
  Mn  Mn4  1  0.99289309  0.31699379  0.36678194  1
  Mn  Mn5  1  0.00114119  0.01165427  0.01001860  1
  O  O0  1  0.87065170  0.45553582  0.62293317  1
  O  O1  1  0.83399934  0.10550062  0.30001555  1
  O  O2  1  0.67918353  0.09531032  0.81809806  1
  O  O3  1  0.69282867  0.77990645  0.46501823  1
  O  O4  1  0.69453413  0.43878050  0.13931848  1
  O  O5  1  0.30545437  0.57013310  0.87427936  1
  O  O6  1  0.32139764  0.24573002  0.54164099  1
  O  O7  1  0.29619170  0.90720674  0.21762114  1
  O  O8  1  0.14367061  0.24007118  0.06136185  1
  O  O9  1  0.15376804  0.91818864  0.74051278  1
  F  F0  1  0.83827934  0.76166141  0.98450521  1
  F  F1  1  0.17049418  0.55833108  0.32007522  1
loop_
_geom_bond_atom_site_label_1
_geom_bond_atom_site_label_2
_geom_bond_distance
_geom_bond_site_symmetry_2
Mg0 O4 1.973151 1_556
Mg0 O5 2.003219 1_655
Mg0 O0 2.006299 1_555
Mg0 O8 2.082873 1_656
Mn0 O3 1.909815 1_545
Mn0 O6 1.941570 1_555
Mn0 O7 1.946245 1_545
Mn0 O2 1.959229 1_555
Mn0 O1 2.255138 1_555
Mn1 O3 1.918818 1_555
Mn1 O7 1.926114 1_555
Mn1 O5 1.956785 1_554
Mn1 O4 1.999896 1_555
Mn2 O2 1.913048 1_555
Mn2 O6 1.929613 1_555
Mn2 O4 1.965957 1_556
Mn2 O5 2.009446 1_555
Mn2 O8 2.314545 1_556
Mn3 O9 1.858884 1_555
Mn3 O3 1.928271 1_455
Mn3 O0 2.012210 1_455
Mn3 O5 2.087506 1_555
Mn4 O1 1.818971 1_555
Mn4 O0 1.848772 1_555
Mn4 O6 1.898806 1_655
Mn4 O8 2.025230 1_655
Mn4 O4 2.083928 1_555
Mn5 O9 1.873290 1_544
Mn5 O8 1.894256 1_555
Mn5 O2 1.945297 1_454
Mn5 O7 1.953056 1_545
Mn5 O1 2.012661 1_455
F0 Mg0 2.094457 1_555
F0 Mn5 2.101328 1_666
F0 Mn1 2.324041 1_556
F0 Mn3 2.353094 1_655
F1 Mg0 2.082719 1_454
F1 Mn3 2.150624 1_555
F1 Mn4 2.166033 1_455
F1 Mn1 2.345066 1_555
