# generated using pymatgen
data_Zn(AsO2)2
_symmetry_space_group_name_H-M   'P 1'
_cell_length_a   5.02781666
_cell_length_b   4.56109558
_cell_length_c   17.65356353
_cell_angle_alpha   89.48623711
_cell_angle_beta   90.00000000
_cell_angle_gamma   90.00000000
_symmetry_Int_Tables_number   1
_chemical_formula_structural   Zn(AsO2)2
_chemical_formula_sum   'Zn4 As8 O16'
_cell_volume   404.82146391
_cell_formula_units_Z   4
loop_
 _symmetry_equiv_pos_site_id
 _symmetry_equiv_pos_as_xyz
  1  'x, y, z'
loop_
 _atom_site_type_symbol
 _atom_site_label
 _atom_site_symmetry_multiplicity
 _atom_site_fract_x
 _atom_site_fract_y
 _atom_site_fract_z
 _atom_site_occupancy
  Zn  Zn0  1  0.98872475  0.74551661  0.25171260  1
  Zn  Zn1  1  0.48872475  0.25448339  0.24828740  1
  Zn  Zn2  1  0.01127525  0.25448339  0.74828740  1
  Zn  Zn3  1  0.51127525  0.74551661  0.75171260  1
  As  As0  1  0.27423772  0.51397224  0.40815171  1
  As  As1  1  0.77423772  0.48602776  0.09184829  1
  As  As2  1  0.72576228  0.48602776  0.59184829  1
  As  As3  1  0.22576228  0.51397224  0.90815171  1
  As  As4  1  0.71533589  0.01186917  0.40567427  1
  As  As5  1  0.21533589  0.98813083  0.09432573  1
  As  As6  1  0.28466411  0.98813083  0.59432573  1
  As  As7  1  0.78466411  0.01186917  0.90567427  1
  O  O0  1  0.23677699  0.49359530  0.30846083  1
  O  O1  1  0.73677699  0.50640470  0.19153917  1
  O  O2  1  0.76322301  0.50640470  0.69153917  1
  O  O3  1  0.26322301  0.49359530  0.80846083  1
  O  O4  1  0.73655876  0.99775702  0.30592104  1
  O  O5  1  0.23655876  0.00224298  0.19407896  1
  O  O6  1  0.26344124  0.00224298  0.69407896  1
  O  O7  1  0.76344124  0.99775702  0.80592104  1
  O  O8  1  0.37117165  0.89445536  0.41538914  1
  O  O9  1  0.87117165  0.10554464  0.08461086  1
  O  O10  1  0.62882835  0.10554464  0.58461086  1
  O  O11  1  0.12882835  0.89445536  0.91538914  1
  O  O12  1  0.88160674  0.39291827  0.91093427  1
  O  O13  1  0.38160674  0.60708173  0.58906573  1
  O  O14  1  0.11839326  0.60708173  0.08906573  1
  O  O15  1  0.61839326  0.39291827  0.41093427  1
loop_
_geom_bond_atom_site_label_1
_geom_bond_atom_site_label_2
_geom_bond_distance
_geom_bond_site_symmetry_2
As0 O0 1.773215 1_555
As0 O8 1.808178 1_555
As0 O15 1.816837 1_555
As1 O1 1.773215 1_555
As1 O9 1.808178 1_555
As1 O14 1.816837 1_655
As2 O2 1.773215 1_555
As2 O10 1.808178 1_555
As2 O13 1.816837 1_555
As3 O3 1.773215 1_555
As3 O11 1.808178 1_555
As3 O12 1.816837 1_455
As4 O4 1.765979 1_545
As4 O15 1.808241 1_555
As4 O8 1.819019 1_545
As5 O5 1.765979 1_565
As5 O14 1.808241 1_555
As5 O9 1.819019 1_465
As6 O6 1.765979 1_565
As6 O13 1.808241 1_555
As6 O10 1.819019 1_565
As7 O7 1.765979 1_545
As7 O12 1.808241 1_555
As7 O11 1.819019 1_645
O0 Zn0 1.964351 1_455
O0 Zn1 1.985772 1_555
O1 Zn1 1.964351 1_555
O1 Zn0 1.985772 1_555
O2 Zn2 1.964351 1_655
O2 Zn3 1.985772 1_555
O3 Zn3 1.964351 1_555
O3 Zn2 1.985772 1_555
O4 Zn0 1.966368 1_555
O4 Zn1 1.984345 1_565
O5 Zn1 1.966368 1_555
O5 Zn0 1.984345 1_445
O6 Zn2 1.966368 1_555
O6 Zn3 1.984345 1_545
O7 Zn3 1.966368 1_555
O7 Zn2 1.984345 1_665
