# generated using pymatgen
data_MgMn4Zn2O8
_symmetry_space_group_name_H-M   'P 1'
_cell_length_a   3.03821878
_cell_length_b   5.24713527
_cell_length_c   11.42679951
_cell_angle_alpha   99.28268297
_cell_angle_beta   85.69015583
_cell_angle_gamma   102.41067321
_symmetry_Int_Tables_number   1
_chemical_formula_structural   MgMn4Zn2O8
_chemical_formula_sum   'Mg1 Mn4 Zn2 O8'
_cell_volume   175.42387552
_cell_formula_units_Z   1
loop_
 _symmetry_equiv_pos_site_id
 _symmetry_equiv_pos_as_xyz
  1  'x, y, z'
loop_
 _atom_site_type_symbol
 _atom_site_label
 _atom_site_symmetry_multiplicity
 _atom_site_fract_x
 _atom_site_fract_y
 _atom_site_fract_z
 _atom_site_occupancy
  Mg  Mg0  1  0.70465153  0.39704021  0.77243547  1
  Mn  Mn0  1  0.76133648  0.71994037  0.09365340  1
  Mn  Mn1  1  0.08089253  0.20763588  0.97963347  1
  Mn  Mn2  1  0.03916313  0.78328511  0.38152961  1
  Mn  Mn3  1  0.20704301  0.32988333  0.53048569  1
  Zn  Zn0  1  0.45091658  0.88159290  0.64984862  1
  Zn  Zn1  1  0.50369744  0.24870830  0.23613378  1
  O  O0  1  0.44337120  0.50763858  0.38281788  1
  O  O1  1  0.82379696  0.60046935  0.63935878  1
  O  O2  1  0.67812428  0.45311321  0.94514278  1
  O  O3  1  0.08332364  0.47939537  0.14876777  1
  O  O4  1  0.89410736  0.97475766  0.23841709  1
  O  O5  1  0.12264704  0.15470623  0.74007973  1
  O  O6  1  0.49049521  -0.03125512  0.01854398  1
  O  O7  1  0.59143561  0.03058962  0.49315294  1
loop_
_geom_bond_atom_site_label_1
_geom_bond_atom_site_label_2
_geom_bond_distance
_geom_bond_site_symmetry_2
Mg0 O2 1.945944 1_555
Mg0 O5 1.959141 1_655
Mg0 O1 1.964078 1_555
Mg0 O5 1.964796 1_555
Mn0 O3 1.956140 1_655
Mn0 O4 1.960028 1_555
Mn0 O6 2.011834 1_565
Mn0 O2 2.012407 1_554
Mn0 O3 2.275298 1_555
Mn0 O6 2.486217 1_665
Mn1 O6 2.019891 1_456
Mn1 O2 2.039258 1_555
Mn1 O2 2.055628 1_455
Mn1 O6 2.061819 1_556
Mn1 O3 2.208424 1_556
Mn1 O5 2.702574 1_555
Mn2 O0 2.060654 1_455
Mn2 O0 2.091265 1_555
Mn2 O4 2.169461 1_455
Mn2 O7 2.231144 1_565
Mn2 O7 2.263880 1_465
Mn3 O0 2.066514 1_555
Mn3 O7 2.123558 1_555
Mn3 O7 2.188084 1_455
Mn3 O1 2.200541 1_455
Mn3 O1 2.389932 1_555
Mn3 O5 2.676416 1_555
O0 Zn1 2.003773 1_555
O1 Zn0 2.028439 1_555
O1 Zn0 2.142372 1_655
O3 Zn1 2.184582 1_455
O3 Zn1 2.310630 1_555
O4 Zn1 2.055128 1_565
O4 Zn1 2.087491 1_665
O5 Zn0 2.023504 1_545
O5 Zn0 2.421636 1_445
O7 Zn0 2.047616 1_545
