# generated using pymatgen
data_Na3TaAl3P5SO24
_symmetry_space_group_name_H-M   'P 1'
_cell_length_a   8.51168914
_cell_length_b   8.48926006
_cell_length_c   21.90206757
_cell_angle_alpha   89.67309158
_cell_angle_beta   90.15190557
_cell_angle_gamma   119.97600079
_symmetry_Int_Tables_number   1
_chemical_formula_structural   Na3TaAl3P5SO24
_chemical_formula_sum   'Na9 Ta3 Al9 P15 S3 O72'
_cell_volume   1370.87934554
_cell_formula_units_Z   3
loop_
 _symmetry_equiv_pos_site_id
 _symmetry_equiv_pos_as_xyz
  1  'x, y, z'
loop_
 _atom_site_type_symbol
 _atom_site_label
 _atom_site_symmetry_multiplicity
 _atom_site_fract_x
 _atom_site_fract_y
 _atom_site_fract_z
 _atom_site_occupancy
  Na  Na0  1  0.63909126  0.63685475  0.74687099  1
  Na  Na1  1  0.30262197  0.96813214  0.08576495  1
  Na  Na2  1  0.33180455  0.02873560  0.41217834  1
  Na  Na3  1  0.98667806  0.99990956  0.50095699  1
  Na  Na4  1  0.99102556  0.00045182  0.99918593  1
  Na  Na5  1  0.66671375  0.32361383  0.82991839  1
  Na  Na6  1  0.66987361  0.33650898  0.32715913  1
  Na  Na7  1  0.33344421  0.66134126  0.16794470  1
  Na  Na8  1  0.32390734  0.66223186  0.66068541  1
  Ta  Ta0  1  0.66833401  0.33418395  0.98014002  1
  Ta  Ta1  1  0.67796590  0.34241792  0.47878309  1
  Ta  Ta2  1  0.32813500  0.66599236  0.81015029  1
  Al  Al0  1  0.00162937  0.00184911  0.35257410  1
  Al  Al1  1  0.00085374  0.00165017  0.85301049  1
  Al  Al2  1  0.99405240  0.00099078  0.64712367  1
  Al  Al3  1  0.00152002  0.99832016  0.14762829  1
  Al  Al4  1  0.67484637  0.33788852  0.68698065  1
  Al  Al5  1  0.65816374  0.32607871  0.18509042  1
  Al  Al6  1  0.33381038  0.66232395  0.02093395  1
  Al  Al7  1  0.33398655  0.65701281  0.51839566  1
  Al  Al8  1  0.33380367  0.67351959  0.31346500  1
  P  P0  1  0.28953082  0.99991297  0.25004277  1
  P  P1  1  0.28354166  0.27171101  0.74814613  1
  P  P2  1  0.99527192  0.71924092  0.74781487  1
  P  P3  1  0.72473576  0.01439148  0.74903750  1
  P  P4  1  0.96410796  0.33563713  0.58728380  1
  P  P5  1  0.66610092  0.62983228  0.58742667  1
  P  P6  1  0.95705622  0.62224633  0.08822242  1
  P  P7  1  0.67072434  0.03832898  0.08725835  1
  P  P8  1  0.37409298  0.33909077  0.08712045  1
  P  P9  1  0.62662978  0.67808868  0.91802843  1
  P  P10  1  0.05014343  0.37241102  0.91917450  1
  P  P11  1  0.32259280  0.95003663  0.91916227  1
  P  P12  1  0.62215210  0.94154451  0.41583369  1
  P  P13  1  0.32396553  0.38311327  0.41417011  1
  P  P14  1  0.05754648  0.67356703  0.41471037  1
  S  S0  1  0.71288647  0.71273432  0.25017948  1
  S  S1  1  0.00019950  0.28760857  0.24976203  1
  S  S2  1  0.37353978  0.03969937  0.58554563  1
  O  O0  1  0.20274040  0.03002828  0.30785110  1
  O  O1  1  0.82474453  0.79591718  0.30525189  1
  O  O2  1  0.96779066  0.17387869  0.30509435  1
  O  O3  1  0.20190598  0.16652257  0.80688026  1
  O  O4  1  0.96132762  0.79784331  0.80571519  1
  O  O5  1  0.83145568  0.03662030  0.80730859  1
  O  O6  1  0.79587275  0.96166482  0.69332252  1
  O  O7  1  0.16743247  0.19676259  0.69158391  1
  O  O8  1  0.03159460  0.83491152  0.69107556  1
  O  O9  1  0.79443154  0.82667992  0.19508339  1
  O  O10  1  0.02835379  0.20358500  0.19497785  1
  O  O11  1  0.17205754  0.97001136  0.19246663  1
  O  O12  1  0.86830937  0.36457252  0.64088122  1
  O  O13  1  0.49164246  0.12898303  0.63818199  1
  O  O14  1  0.63371745  0.50731076  0.64334168  1
  O  O15  1  0.86386871  0.49777839  0.14226700  1
  O  O16  1  0.62754351  0.12708344  0.14038497  1
  O  O17  1  0.49719925  0.36891857  0.14143059  1
  O  O18  1  0.45893254  0.29625436  0.02908279  1
  O  O19  1  0.83868440  0.53817663  0.02882849  1
  O  O20  1  0.70336217  0.15982563  0.02821340  1
  O  O21  1  0.45463089  0.15133440  0.52741771  1
  O  O22  1  0.69491415  0.53396947  0.52956997  1
  O  O23  1  0.84059650  0.30215135  0.52827378  1
  O  O24  1  0.53352748  0.70043410  0.97313868  1
  O  O25  1  0.16431615  0.46469635  0.97454226  1
  O  O26  1  0.30063911  0.83946869  0.97663959  1
  O  O27  1  0.53641966  0.83387886  0.47426616  1
  O  O28  1  0.29711455  0.46146535  0.47285508  1
  O  O29  1  0.17105650  0.70694887  0.47262076  1
  O  O30  1  0.13350244  0.63350175  0.35832776  1
  O  O31  1  0.49868066  0.86955364  0.35988240  1
  O  O32  1  0.36462641  0.50120607  0.35776043  1
  O  O33  1  0.13069898  0.49265727  0.86045019  1
  O  O34  1  0.36066309  0.86615354  0.86159156  1
  O  O35  1  0.51029950  0.63844426  0.85835028  1
  O  O36  1  0.02810783  0.83772017  0.40768408  1
  O  O37  1  0.81222338  0.97153912  0.40662982  1
  O  O38  1  0.16292992  0.18733316  0.40746350  1
  O  O39  1  0.02782887  0.18605776  0.90973254  1
  O  O40  1  0.15783203  0.97080591  0.90938973  1
  O  O41  1  0.81378279  0.84154722  0.90915585  1
  O  O42  1  0.97907456  0.16397242  0.59163515  1
  O  O43  1  0.19513011  0.02591146  0.59026879  1
  O  O44  1  0.83996267  0.81375879  0.59118327  1
  O  O45  1  0.97818151  0.81311402  0.09291091  1
  O  O46  1  0.83993606  0.02325047  0.09464015  1
  O  O47  1  0.18784573  0.16407137  0.09279067  1
  O  O48  1  0.69316111  0.17409675  0.74064366  1
  O  O49  1  0.47956291  0.30790551  0.74148673  1
  O  O50  1  0.82945511  0.52592625  0.74214893  1
  O  O51  1  0.69673940  0.53081513  0.24363604  1
  O  O52  1  0.83676269  0.30763113  0.24316914  1
  O  O53  1  0.48022261  0.17186934  0.24270242  1
  O  O54  1  0.64184176  0.50213344  0.92328968  1
  O  O55  1  0.85991767  0.35791018  0.92292797  1
  O  O56  1  0.49785604  0.14056375  0.92305360  1
  O  O57  1  0.63914393  0.13728886  0.42433954  1
  O  O58  1  0.49513700  0.35404794  0.42303791  1
  O  O59  1  0.86189441  0.50172900  0.42179521  1
  O  O60  1  0.35806307  0.50670329  0.07629440  1
  O  O61  1  0.14614706  0.64539557  0.07768373  1
  O  O62  1  0.49740097  0.85477172  0.07629760  1
  O  O63  1  0.35893199  0.86113692  0.57769031  1
  O  O64  1  0.49646278  0.64487927  0.57665194  1
  O  O65  1  0.14678525  0.50753385  0.57571828  1
  O  O66  1  0.30857762  0.82810119  0.25705491  1
  O  O67  1  0.52944664  0.69246330  0.25650476  1
  O  O68  1  0.16552713  0.46928173  0.25618227  1
  O  O69  1  0.31127310  0.47268379  0.75502528  1
  O  O70  1  0.16581029  0.69514786  0.75420311  1
  O  O71  1  0.52871063  0.83720640  0.75620818  1
loop_
_geom_bond_atom_site_label_1
_geom_bond_atom_site_label_2
_geom_bond_distance
_geom_bond_site_symmetry_2
Na0 O50 2.247148 1_555
Na0 O71 2.327915 1_555
Na0 O49 2.422753 1_555
Na0 O69 2.423591 1_555
Na0 O14 2.516094 1_555
Na0 O6 2.655930 1_555
Na0 O35 2.681941 1_555
Na0 O4 2.703191 1_555
Na1 O62 2.305677 1_555
Na1 O47 2.317861 1_565
Na1 O61 2.381084 1_555
Na1 O45 2.398089 1_455
Na1 O11 2.593977 1_555
Na1 O26 2.630001 1_554
Na1 O16 2.678125 1_565
Na1 O18 2.708579 1_565
Na2 O36 2.265627 1_545
Na2 O57 2.313795 1_555
Na2 O58 2.405258 1_555
Na2 O38 2.412685 1_555
Na2 O0 2.535061 1_555
Na2 O31 2.664562 1_545
Na2 O29 2.705606 1_545
Na2 O21 2.734110 1_555
Na3 O44 2.442817 1_555
Na3 O42 2.451668 1_565
Na3 O37 2.482575 1_555
Na3 O38 2.563032 1_665
Na3 O43 2.572611 1_665
Na3 O36 2.591242 1_655
Na4 O39 2.427786 1_655
Na4 O41 2.442302 1_545
Na4 O40 2.514896 1_645
Na4 O46 2.515893 1_556
Na4 O45 2.558371 1_546
Na4 O47 2.574480 1_656
Na5 O48 2.408558 1_555
Na5 O49 2.465965 1_555
Na5 O50 2.482540 1_555
Na5 O56 2.527660 1_555
Na5 O55 2.539579 1_555
Na5 O54 2.623346 1_555
Na6 O51 2.389664 1_555
Na6 O53 2.395845 1_555
Na6 O52 2.414310 1_555
Na6 O59 2.580551 1_555
Na6 O58 2.624009 1_555
Na6 O57 2.641746 1_555
Na7 O68 2.466995 1_555
Na7 O60 2.470591 1_555
Na7 O67 2.482648 1_555
Na7 O66 2.488208 1_555
Na7 O61 2.497735 1_555
Na7 O62 2.521980 1_555
Na8 O65 2.344199 1_555
Na8 O63 2.389391 1_555
Na8 O64 2.408317 1_555
Na8 O70 2.545794 1_555
Na8 O69 2.580795 1_555
Na8 O71 2.655360 1_555
Al0 O0 1.882540 1_555
Al0 O37 1.912877 1_445
Al0 O38 1.913693 1_555
Al0 O2 1.923161 1_455
Al0 O36 1.934487 1_545
Al0 O1 1.944093 1_445
Al1 O3 1.872939 1_555
Al1 O5 1.893602 1_455
Al1 O4 1.901743 1_445
Al1 O39 1.925706 1_555
Al1 O40 1.927646 1_545
Al1 O41 1.929653 1_445
Al2 O6 1.850187 1_545
Al2 O7 1.856926 1_655
Al2 O8 1.857324 1_645
Al2 O42 1.887809 1_555
Al2 O44 1.917879 1_545
Al2 O43 2.042332 1_655
Al3 O11 1.862136 1_555
Al3 O46 1.887555 1_465
Al3 O45 1.912022 1_455
Al3 O47 1.923162 1_565
Al3 O9 1.932961 1_455
Al3 O10 1.945706 1_565
Al4 O12 1.848194 1_555
Al4 O48 1.880451 1_555
Al4 O14 1.894828 1_555
Al4 O50 1.911641 1_555
Al4 O49 1.958851 1_555
Al4 O13 1.992090 1_555
Al5 O17 1.846827 1_555
Al5 O16 1.859573 1_555
Al5 O15 1.874244 1_555
Al5 O53 1.899974 1_555
Al5 O52 2.044244 1_555
Al5 O51 2.055678 1_555
Al6 O60 1.873772 1_555
Al6 O25 1.876562 1_554
Al6 O24 1.883149 1_554
Al6 O26 1.920565 1_554
Al6 O62 1.954162 1_555
Al6 O61 1.973859 1_555
Al7 O28 1.829143 1_555
Al7 O27 1.887992 1_555
Al7 O64 1.919023 1_555
Al7 O29 1.919202 1_555
Al7 O65 1.922852 1_555
Al7 O63 2.095472 1_555
Al8 O30 1.847669 1_555
Al8 O31 1.857549 1_555
Al8 O32 1.875052 1_555
Al8 O66 1.885816 1_555
Al8 O67 2.023961 1_555
Al8 O68 2.040942 1_555
O0 P0 1.552910 1_545
O1 S0 1.480493 1_555
O2 S1 1.482976 1_655
O3 P1 1.518763 1_555
O4 P2 1.530084 1_555
O5 P3 1.521474 1_555
O6 P3 1.528734 1_565
O7 P1 1.513402 1_555
O8 P2 1.512909 1_455
O9 S0 1.481158 1_555
O10 S1 1.479207 1_555
O11 P0 1.548475 1_555
O12 P4 1.520452 1_555
O13 S2 1.468510 1_555
O14 P5 1.535697 1_555
O15 P6 1.516559 1_555
O16 P7 1.531572 1_555
O17 P8 1.519442 1_555
O18 P8 1.594388 1_555
O18 Ta0 1.965263 1_554
O19 P6 1.581708 1_555
O19 Ta0 1.934486 1_554
O20 P7 1.585478 1_555
O20 Ta0 1.951912 1_554
O21 S2 1.527292 1_555
O21 Ta1 2.071060 1_555
O22 P5 1.594061 1_555
O22 Ta1 1.920361 1_555
O23 P4 1.598368 1_555
O23 Ta1 1.915367 1_555
O24 P9 1.509567 1_555
O25 P10 1.507493 1_555
O26 P11 1.520926 1_555
O27 P12 1.526723 1_555
O28 P13 1.519847 1_555
O29 P14 1.531833 1_555
O30 P14 1.512413 1_555
O31 P12 1.529582 1_555
O32 P13 1.514160 1_555
O33 P10 1.567391 1_555
O33 Ta2 1.929596 1_555
O34 P11 1.563652 1_555
O34 Ta2 1.945113 1_555
O35 P9 1.570764 1_555
O35 Ta2 1.980944 1_555
O36 P14 1.541005 1_555
O37 P12 1.520635 1_555
O38 P13 1.545298 1_555
O39 P10 1.511567 1_555
O40 P11 1.512834 1_555
O41 P9 1.513472 1_555
O42 P4 1.527389 1_555
O43 S2 1.467490 1_555
O44 P5 1.525308 1_555
O45 P6 1.542397 1_555
O46 P7 1.516471 1_555
O47 P8 1.543163 1_555
O48 P3 1.518277 1_555
O49 P1 1.545307 1_555
O50 P2 1.545141 1_555
O51 S0 1.488219 1_555
O52 S1 1.489936 1_655
O53 P0 1.556385 1_545
O54 P9 1.566045 1_555
O54 Ta0 1.983319 1_555
O55 P10 1.563634 1_655
O55 Ta0 1.987375 1_555
O56 P11 1.561591 1_545
O56 Ta0 2.000259 1_555
O57 P12 1.606295 1_545
O57 Ta1 2.002529 1_555
O58 P13 1.605777 1_555
O58 Ta1 2.015990 1_555
O59 P14 1.580075 1_655
O59 Ta1 1.926973 1_555
O60 P8 1.513104 1_555
O61 P6 1.538739 1_455
O62 P7 1.538651 1_565
O63 S2 1.468817 1_565
O64 P5 1.529390 1_555
O65 P4 1.530308 1_455
O66 P0 1.552693 1_555
O67 S0 1.489664 1_555
O68 S1 1.487052 1_555
O69 P1 1.609209 1_555
O69 Ta2 1.989388 1_555
O70 P2 1.569630 1_455
O70 Ta2 1.949623 1_555
O71 P3 1.600594 1_565
O71 Ta2 1.983567 1_555
