# generated using pymatgen
data_Li2Ni(PO3)5
_symmetry_space_group_name_H-M   'P 1'
_cell_length_a   13.37107600
_cell_length_b   5.15853000
_cell_length_c   8.80455782
_cell_angle_alpha   78.52288009
_cell_angle_beta   90.00000000
_cell_angle_gamma   90.00000000
_symmetry_Int_Tables_number   1
_chemical_formula_structural   Li2Ni(PO3)5
_chemical_formula_sum   'Li4 Ni2 P10 O30'
_cell_volume   595.15189759
_cell_formula_units_Z   2
loop_
 _symmetry_equiv_pos_site_id
 _symmetry_equiv_pos_as_xyz
  1  'x, y, z'
loop_
 _atom_site_type_symbol
 _atom_site_label
 _atom_site_symmetry_multiplicity
 _atom_site_fract_x
 _atom_site_fract_y
 _atom_site_fract_z
 _atom_site_occupancy
  Li  Li0  1  0.88387600  0.93572300  0.10186700  1
  Li  Li1  1  0.61612400  0.93572300  0.10186700  1
  Li  Li2  1  0.11612400  0.06427700  0.89813300  1
  Li  Li3  1  0.38387600  0.06427700  0.89813300  1
  Ni  Ni0  1  0.00000000  0.50000000  0.50000000  1
  Ni  Ni1  1  0.50000000  0.50000000  0.50000000  1
  P  P0  1  0.63921600  0.00613000  0.51530100  1
  P  P1  1  0.07617400  0.34090800  0.18706200  1
  P  P2  1  0.13921600  0.99387000  0.48469900  1
  P  P3  1  0.75000000  0.45563200  0.01100000  1
  P  P4  1  0.92382600  0.65909200  0.81293800  1
  P  P5  1  0.36078400  0.99387000  0.48469900  1
  P  P6  1  0.86078400  0.00613000  0.51530100  1
  P  P7  1  0.42382600  0.34090800  0.18706200  1
  P  P8  1  0.25000000  0.54436800  0.98900000  1
  P  P9  1  0.57617400  0.65909200  0.81293800  1
  O  O0  1  0.85546200  0.86258400  0.69278600  1
  O  O1  1  0.25000000  0.28722000  0.93455200  1
  O  O2  1  0.25000000  0.80560800  0.88004000  1
  O  O3  1  0.00716900  0.48640900  0.27906500  1
  O  O4  1  0.34302400  0.55375400  0.10835300  1
  O  O5  1  0.75000000  0.96422000  0.45885500  1
  O  O6  1  0.75000000  0.19439200  0.11996000  1
  O  O7  1  0.64453800  0.86258400  0.69278600  1
  O  O8  1  0.65697600  0.44624600  0.89164700  1
  O  O9  1  0.14453800  0.13741600  0.30721400  1
  O  O10  1  0.25000000  0.03578000  0.54114500  1
  O  O11  1  0.12524200  0.69970300  0.49373900  1
  O  O12  1  0.62524200  0.30029700  0.50626100  1
  O  O13  1  0.75000000  0.71278000  0.06544800  1
  O  O14  1  0.96943300  0.80398200  0.92607400  1
  O  O15  1  0.87475800  0.30029700  0.50626100  1
  O  O16  1  0.46943300  0.19601800  0.07392600  1
  O  O17  1  0.57236600  0.85986700  0.42310300  1
  O  O18  1  0.15697600  0.55375400  0.10835300  1
  O  O19  1  0.84302400  0.44624600  0.89164700  1
  O  O20  1  0.07236600  0.14013300  0.57689700  1
  O  O21  1  0.92763400  0.85986700  0.42310300  1
  O  O22  1  0.03056700  0.19601800  0.07392600  1
  O  O23  1  0.35546200  0.13741600  0.30721400  1
  O  O24  1  0.99283100  0.51359100  0.72093500  1
  O  O25  1  0.37475800  0.69970300  0.49373900  1
  O  O26  1  0.42763400  0.14013300  0.57689700  1
  O  O27  1  0.49283100  0.48640900  0.27906500  1
  O  O28  1  0.50716900  0.51359100  0.72093500  1
  O  O29  1  0.53056700  0.80398200  0.92607400  1
loop_
_geom_bond_atom_site_label_1
_geom_bond_atom_site_label_2
_geom_bond_distance
_geom_bond_site_symmetry_2
Li0 O14 2.141206 1_554
Li0 O13 2.185530 1_555
Li0 O6 2.257166 1_565
Li0 O22 2.362027 1_665
Li1 O29 2.141206 1_554
Li1 O13 2.185530 1_555
Li1 O6 2.257166 1_565
Li1 O16 2.362027 1_565
Li2 O22 2.141206 1_556
Li2 O1 2.185530 1_555
Li2 O2 2.257166 1_545
Li2 O14 2.362027 1_445
Li3 O16 2.141206 1_556
Li3 O1 2.185530 1_555
Li3 O2 2.257166 1_545
Li3 O29 2.362027 1_545
Ni0 O11 1.961135 1_555
Ni0 O15 1.961135 1_455
Ni0 O3 1.962732 1_555
Ni0 O24 1.962732 1_455
Ni0 O20 2.083424 1_555
Ni0 O21 2.083424 1_455
Ni1 O12 1.961135 1_555
Ni1 O25 1.961135 1_555
Ni1 O27 1.962732 1_555
Ni1 O28 1.962732 1_555
Ni1 O26 2.083424 1_555
Ni1 O17 2.083424 1_555
O0 P6 1.592123 1_565
O0 P4 1.617001 1_555
O1 P8 1.497497 1_555
O2 P8 1.490611 1_555
O3 P1 1.520792 1_555
O4 P7 1.596958 1_555
O4 P8 1.635235 1_554
O5 P0 1.590831 1_565
O5 P6 1.590831 1_565
O6 P3 1.490611 1_555
O7 P0 1.592123 1_565
O7 P9 1.617001 1_555
O8 P9 1.596958 1_555
O8 P3 1.635235 1_556
O9 P2 1.592123 1_545
O9 P1 1.617001 1_555
O10 P5 1.590831 1_545
O10 P2 1.590831 1_545
O11 P2 1.515221 1_555
O12 P0 1.515221 1_555
O13 P3 1.497497 1_555
O14 P4 1.489641 1_555
O15 P6 1.515221 1_555
O16 P7 1.489641 1_555
O17 P0 1.506967 1_565
O18 P1 1.596958 1_555
O18 P8 1.635235 1_554
O19 P4 1.596958 1_555
O19 P3 1.635235 1_556
O20 P2 1.506967 1_545
O21 P6 1.506967 1_565
O22 P1 1.489641 1_555
O23 P5 1.592123 1_545
O23 P7 1.617001 1_555
O24 P4 1.520792 1_555
O25 P5 1.515221 1_555
O26 P5 1.506967 1_545
O27 P7 1.520792 1_555
O28 P9 1.520792 1_555
O29 P9 1.489641 1_555
