# generated using pymatgen
data_Na3ScTiSi2SO12
_symmetry_space_group_name_H-M   'P 1'
_cell_length_a   9.01341767
_cell_length_b   9.01341736
_cell_length_c   22.43937230
_cell_angle_alpha   88.68338558
_cell_angle_beta   91.31661440
_cell_angle_gamma   119.54154898
_symmetry_Int_Tables_number   1
_chemical_formula_structural   Na3ScTiSi2SO12
_chemical_formula_sum   'Na18 Sc6 Ti6 Si12 S6 O72'
_cell_volume   1585.45712156
_cell_formula_units_Z   6
loop_
 _symmetry_equiv_pos_site_id
 _symmetry_equiv_pos_as_xyz
  1  'x, y, z'
loop_
 _atom_site_type_symbol
 _atom_site_label
 _atom_site_symmetry_multiplicity
 _atom_site_fract_x
 _atom_site_fract_y
 _atom_site_fract_z
 _atom_site_occupancy
  Na  Na0  1  0.63020733  0.00183162  0.24628173  1
  Na  Na1  1  0.99863678  0.63873730  0.24861361  1
  Na  Na2  1  0.99816838  0.36979267  0.74628173  1
  Na  Na3  1  0.36126270  0.00136322  0.74861361  1
  Na  Na4  1  0.29687433  0.33516462  0.57961473  1
  Na  Na5  1  0.66530378  0.97207030  0.58194661  1
  Na  Na6  1  0.66483538  0.70312567  0.07961473  1
  Na  Na7  1  0.02792970  0.33469622  0.08194661  1
  Na  Na8  1  0.96354033  0.66849862  0.91294873  1
  Na  Na9  1  0.33196978  0.30540430  0.91528061  1
  Na  Na10  1  0.33150138  0.03645967  0.41294873  1
  Na  Na11  1  0.69459570  0.66803022  0.41528061  1
  Na  Na12  1  0.00087203  0.01380190  0.49806273  1
  Na  Na13  1  0.98619810  0.99912797  0.99806273  1
  Na  Na14  1  0.66753903  0.34713490  0.83139573  1
  Na  Na15  1  0.65286510  0.33246097  0.33139573  1
  Na  Na16  1  0.33420503  0.68046890  0.16472973  1
  Na  Na17  1  0.31953110  0.66579497  0.66472973  1
  Sc  Sc0  1  0.00600950  0.00717365  0.35156332  1
  Sc  Sc1  1  0.99282635  0.99399050  0.85156332  1
  Sc  Sc2  1  0.67267650  0.34050665  0.68489632  1
  Sc  Sc3  1  0.65949335  0.32732350  0.18489632  1
  Sc  Sc4  1  0.33934250  0.67384065  0.01823032  1
  Sc  Sc5  1  0.32615935  0.66065750  0.51823032  1
  Ti  Ti0  1  0.03099407  0.01441032  0.64708951  1
  Ti  Ti1  1  0.98558968  0.96900593  0.14708951  1
  Ti  Ti2  1  0.69766107  0.34774332  0.98042251  1
  Ti  Ti3  1  0.65225668  0.30233893  0.48042251  1
  Ti  Ti4  1  0.36432707  0.68107732  0.31375651  1
  Ti  Ti5  1  0.31892268  0.63567293  0.81375651  1
  Si  Si0  1  0.29171983  0.99895441  0.25206857  1
  Si  Si1  1  0.70827089  0.70306791  0.25204268  1
  Si  Si2  1  0.29693209  0.29172911  0.75204268  1
  Si  Si3  1  0.00104559  0.70828017  0.75206857  1
  Si  Si4  1  0.95838683  0.33228741  0.58540157  1
  Si  Si5  1  0.37493789  0.03640091  0.58537568  1
  Si  Si6  1  0.96359909  0.62506211  0.08537568  1
  Si  Si7  1  0.66771259  0.04161317  0.08540157  1
  Si  Si8  1  0.62505283  0.66562141  0.91873557  1
  Si  Si9  1  0.04160389  0.36973491  0.91870968  1
  Si  Si10  1  0.63026509  0.95839611  0.41870968  1
  Si  Si11  1  0.33437859  0.37494717  0.41873557  1
  S  S0  1  0.00578980  0.29497180  0.24845455  1
  S  S1  1  0.70502820  0.99421020  0.74845455  1
  S  S2  1  0.67245680  0.62830480  0.58178755  1
  S  S3  1  0.37169520  0.32754320  0.08178755  1
  S  S4  1  0.33912280  0.96163880  0.91512155  1
  S  S5  1  0.03836120  0.66087720  0.41512155  1
  O  O0  1  0.20766083  0.02417954  0.31059930  1
  O  O1  1  0.82402982  0.79378371  0.30955623  1
  O  O2  1  0.97493278  0.18519635  0.30153074  1
  O  O3  1  0.20621629  0.17597018  0.80955623  1
  O  O4  1  0.97582046  0.79233917  0.81059930  1
  O  O5  1  0.81480365  0.02506722  0.80153074  1
  O  O6  1  0.78320234  0.97095828  0.69492824  1
  O  O7  1  0.16935069  0.20352117  0.69174639  1
  O  O8  1  0.03026213  0.84355300  0.69450759  1
  O  O9  1  0.79647883  0.83064931  0.19174639  1
  O  O10  1  0.02904172  0.21679766  0.19492824  1
  O  O11  1  0.15644700  0.96973787  0.19450759  1
  O  O12  1  0.87432783  0.35751254  0.64393230  1
  O  O13  1  0.49069682  0.12711671  0.64288923  1
  O  O14  1  0.64159978  0.51852935  0.63486374  1
  O  O15  1  0.87288329  0.50930318  0.14288923  1
  O  O16  1  0.64248746  0.12567217  0.14393230  1
  O  O17  1  0.48147065  0.35840022  0.13486374  1
  O  O18  1  0.44986934  0.30429128  0.02826124  1
  O  O19  1  0.83601769  0.53685417  0.02507939  1
  O  O20  1  0.69692913  0.17688600  0.02784059  1
  O  O21  1  0.46314583  0.16398231  0.52507939  1
  O  O22  1  0.69570872  0.55013066  0.52826124  1
  O  O23  1  0.82311400  0.30307087  0.52784059  1
  O  O24  1  0.54099383  0.69084654  0.97726630  1
  O  O25  1  0.15736282  0.46045071  0.97622323  1
  O  O26  1  0.30826578  0.85186335  0.96819774  1
  O  O27  1  0.53954929  0.84263718  0.47622323  1
  O  O28  1  0.30915346  0.45900617  0.47726630  1
  O  O29  1  0.14813665  0.69173422  0.46819774  1
  O  O30  1  0.11653534  0.63762528  0.36159524  1
  O  O31  1  0.50268369  0.87018817  0.35841339  1
  O  O32  1  0.36359513  0.51022000  0.36117459  1
  O  O33  1  0.12981183  0.49731631  0.85841339  1
  O  O34  1  0.36237472  0.88346466  0.86159524  1
  O  O35  1  0.48978000  0.63640487  0.86117459  1
  O  O36  1  0.02083943  0.81743035  0.41100396  1
  O  O37  1  0.81274728  0.97122345  0.41083308  1
  O  O38  1  0.17872881  0.18137159  0.41246492  1
  O  O39  1  0.02877655  0.18725272  0.91083308  1
  O  O40  1  0.18256965  0.97916057  0.91100396  1
  O  O41  1  0.81862841  0.82127119  0.91246492  1
  O  O42  1  0.96351110  0.14844673  0.59019108  1
  O  O43  1  0.18840923  0.03297858  0.58930067  1
  O  O44  1  0.82104845  0.80163147  0.58916111  1
  O  O45  1  0.96702142  0.81159077  0.08930067  1
  O  O46  1  0.85155327  0.03648890  0.09019108  1
  O  O47  1  0.19836853  0.17895155  0.08916111  1
  O  O48  1  0.68750643  0.15076335  0.74433696  1
  O  O49  1  0.47941428  0.30455645  0.74416608  1
  O  O50  1  0.84539581  0.51470459  0.74579792  1
  O  O51  1  0.69544355  0.52058572  0.24416608  1
  O  O52  1  0.84923665  0.31249357  0.24433696  1
  O  O53  1  0.48529541  0.15460419  0.24579792  1
  O  O54  1  0.63017810  0.48177973  0.92352408  1
  O  O55  1  0.85507623  0.36631158  0.92263367  1
  O  O56  1  0.48771545  0.13496447  0.92249411  1
  O  O57  1  0.63368842  0.14492377  0.42263367  1
  O  O58  1  0.51822027  0.36982190  0.42352408  1
  O  O59  1  0.86503553  0.51228455  0.42249411  1
  O  O60  1  0.35417243  0.48409735  0.07767096  1
  O  O61  1  0.14608028  0.63789045  0.07750008  1
  O  O62  1  0.51206181  0.84803859  0.07913192  1
  O  O63  1  0.36210955  0.85391972  0.57750008  1
  O  O64  1  0.51590265  0.64582757  0.57767096  1
  O  O65  1  0.15196141  0.48793819  0.57913192  1
  O  O66  1  0.29684410  0.81511373  0.25685808  1
  O  O67  1  0.52174223  0.69964558  0.25596767  1
  O  O68  1  0.15438145  0.46829847  0.25582811  1
  O  O69  1  0.30035442  0.47825777  0.75596767  1
  O  O70  1  0.18488627  0.70315590  0.75685808  1
  O  O71  1  0.53170153  0.84561855  0.75582811  1
loop_
_geom_bond_atom_site_label_1
_geom_bond_atom_site_label_2
_geom_bond_distance
_geom_bond_site_symmetry_2
Na0 O53 2.318305 1_555
Na0 O67 2.403839 1_545
Na0 O52 2.507429 1_555
Na0 O16 2.510953 1_555
Na0 O66 2.635328 1_545
Na0 O31 2.776863 1_545
Na0 O9 2.928397 1_545
Na0 O2 2.962449 1_555
Na1 O66 2.358632 1_655
Na1 O51 2.394742 1_555
Na1 O68 2.541965 1_655
Na1 O52 2.563544 1_555
Na1 O15 2.640770 1_555
Na1 O30 2.728062 1_655
Na1 O11 2.850688 1_655
Na1 O1 2.942027 1_555
Na2 O50 2.318305 1_555
Na2 O69 2.403839 1_655
Na2 O48 2.507429 1_555
Na2 O12 2.510953 1_555
Na2 O70 2.635328 1_655
Na2 O33 2.776863 1_655
Na2 O7 2.928397 1_655
Na2 O5 2.962448 1_555
Na3 O70 2.358632 1_545
Na3 O49 2.394742 1_555
Na3 O71 2.541965 1_545
Na3 O48 2.563544 1_555
Na3 O13 2.640770 1_555
Na3 O34 2.728062 1_545
Na3 O8 2.850688 1_545
Na3 O3 2.942027 1_555
Na4 O65 2.318321 1_555
Na4 O43 2.403839 1_555
Na4 O64 2.507434 1_555
Na4 O28 2.510938 1_555
Na4 O42 2.635328 1_455
Na4 O7 2.776863 1_555
Na4 O21 2.928397 1_555
Na4 O14 2.962449 1_555
Na5 O42 2.358632 1_565
Na5 O63 2.394751 1_555
Na5 O44 2.541965 1_555
Na5 O64 2.563535 1_555
Na5 O27 2.640750 1_555
Na5 O6 2.728062 1_555
Na5 O23 2.850688 1_565
Na5 O13 2.942027 1_565
Na6 O62 2.318321 1_555
Na6 O45 2.403839 1_555
Na6 O60 2.507434 1_555
Na6 O24 2.510938 1_554
Na6 O46 2.635328 1_565
Na6 O9 2.776863 1_555
Na6 O19 2.928397 1_555
Na6 O17 2.962448 1_555
Na7 O46 2.358632 1_455
Na7 O61 2.394751 1_555
Na7 O47 2.541965 1_555
Na7 O60 2.563535 1_555
Na7 O25 2.640750 1_554
Na7 O10 2.728062 1_555
Na7 O20 2.850688 1_455
Na7 O15 2.942027 1_455
Na8 O41 2.318305 1_555
Na8 O55 2.403847 1_555
Na8 O40 2.507429 1_655
Na8 O4 2.510953 1_555
Na8 O54 2.635319 1_555
Na8 O19 2.776843 1_556
Na8 O33 2.928397 1_655
Na8 O26 2.962449 1_655
Na9 O54 2.358637 1_555
Na9 O39 2.394742 1_555
Na9 O56 2.541980 1_555
Na9 O40 2.563544 1_545
Na9 O3 2.640770 1_555
Na9 O18 2.728046 1_556
Na9 O35 2.850688 1_555
Na9 O25 2.942027 1_555
Na10 O38 2.318305 1_555
Na10 O57 2.403847 1_555
Na10 O36 2.507429 1_545
Na10 O0 2.510953 1_555
Na10 O58 2.635319 1_555
Na10 O21 2.776843 1_555
Na10 O31 2.928397 1_545
Na10 O29 2.962448 1_545
Na11 O58 2.358637 1_555
Na11 O37 2.394742 1_555
Na11 O59 2.541980 1_555
Na11 O36 2.563544 1_655
Na11 O1 2.640770 1_555
Na11 O22 2.728046 1_555
Na11 O32 2.850688 1_555
Na11 O27 2.942027 1_555
Na12 O37 2.468627 1_445
Na12 O38 2.482140 1_555
Na12 O42 2.531853 1_455
Na12 O43 2.578334 1_555
Na12 O44 2.716435 1_445
Na12 O36 2.733264 1_545
Na13 O39 2.468627 1_665
Na13 O41 2.482140 1_555
Na13 O46 2.531853 1_566
Na13 O45 2.578334 1_556
Na13 O47 2.716435 1_666
Na13 O40 2.733264 1_655
Na14 O49 2.468627 1_555
Na14 O50 2.482140 1_555
Na14 O54 2.531853 1_555
Na14 O55 2.578334 1_555
Na14 O56 2.716435 1_555
Na14 O48 2.733264 1_555
Na15 O51 2.468627 1_555
Na15 O53 2.482140 1_555
Na15 O58 2.531853 1_555
Na15 O57 2.578334 1_555
Na15 O59 2.716435 1_555
Na15 O52 2.733264 1_555
Na16 O61 2.468627 1_555
Na16 O62 2.482140 1_555
Na16 O66 2.531853 1_555
Na16 O67 2.578334 1_555
Na16 O68 2.716435 1_555
Na16 O60 2.733264 1_555
Na17 O63 2.468627 1_555
Na17 O65 2.482140 1_555
Na17 O70 2.531853 1_555
Na17 O69 2.578334 1_555
Na17 O71 2.716435 1_555
Na17 O64 2.733264 1_555
O0 Si0 1.606259 1_545
O0 Sc0 1.991874 1_555
O1 Si1 1.602533 1_555
O1 Sc0 2.044404 1_665
O2 S0 1.471237 1_655
O2 Sc0 2.063882 1_655
O3 Si2 1.602533 1_555
O3 Sc1 2.044404 1_445
O4 Si3 1.606259 1_655
O4 Sc1 1.991874 1_555
O5 S1 1.471237 1_545
O5 Sc1 2.063882 1_545
O6 S1 1.476185 1_555
O6 Ti0 2.349959 1_665
O7 Si2 1.691593 1_555
O7 Ti0 1.841111 1_555
O8 Si3 1.688466 1_555
O8 Ti0 1.849009 1_565
O9 Si1 1.691593 1_555
O9 Ti1 1.841111 1_555
O10 S0 1.476185 1_555
O10 Ti1 2.349959 1_445
O11 Si0 1.688466 1_555
O11 Ti1 1.849009 1_455
O12 Si4 1.606259 1_555
O12 Sc2 1.991874 1_555
O13 Si5 1.602533 1_555
O13 Sc2 2.044404 1_555
O14 S2 1.471237 1_555
O14 Sc2 2.063882 1_555
O15 Si6 1.602533 1_555
O15 Sc3 2.044404 1_555
O16 Si7 1.606259 1_555
O16 Sc3 1.991874 1_555
O17 S3 1.471237 1_555
O17 Sc3 2.063882 1_555
O18 S3 1.476185 1_555
O18 Ti2 2.349959 1_554
O19 Si6 1.691593 1_555
O19 Ti2 1.841111 1_554
O20 Si7 1.688466 1_555
O20 Ti2 1.849009 1_554
O21 Si5 1.691593 1_555
O21 Ti3 1.841111 1_555
O22 S2 1.476185 1_555
O22 Ti3 2.349959 1_555
O23 Si4 1.688466 1_555
O23 Ti3 1.849009 1_555
O24 Si8 1.606259 1_555
O24 Sc4 1.991874 1_556
O25 Si9 1.602533 1_555
O25 Sc4 2.044404 1_556
O26 S4 1.471237 1_555
O26 Sc4 2.063882 1_556
O27 Si10 1.602533 1_555
O27 Sc5 2.044404 1_555
O28 Si11 1.606259 1_555
O28 Sc5 1.991874 1_555
O29 S5 1.471237 1_555
O29 Sc5 2.063882 1_555
O30 S5 1.476185 1_555
O30 Ti4 2.349959 1_555
O31 Si10 1.691593 1_555
O31 Ti4 1.841111 1_555
O32 Si11 1.688466 1_555
O32 Ti4 1.849009 1_555
O33 Si9 1.691593 1_555
O33 Ti5 1.841111 1_555
O34 S4 1.476185 1_555
O34 Ti5 2.349959 1_555
O35 Si8 1.688466 1_555
O35 Ti5 1.849009 1_555
O36 S5 1.495901 1_555
O36 Sc0 2.198689 1_565
O37 Si10 1.604628 1_555
O37 Sc0 2.106724 1_665
O38 Si11 1.618851 1_555
O38 Sc0 2.084921 1_555
O39 Si9 1.604627 1_555
O39 Sc1 2.106724 1_445
O40 S4 1.495901 1_555
O40 Sc1 2.198689 1_455
O41 Si8 1.618851 1_555
O41 Sc1 2.084921 1_555
O42 Si4 1.681220 1_555
O42 Ti0 2.019340 1_655
O43 Si5 1.670594 1_555
O43 Ti0 1.887618 1_555
O44 S2 1.483312 1_555
O44 Ti0 2.317649 1_665
O45 Si6 1.670594 1_555
O45 Ti1 1.887618 1_555
O46 Si7 1.681220 1_555
O46 Ti1 2.019340 1_545
O47 S3 1.483312 1_555
O47 Ti1 2.317649 1_445
O48 S1 1.495901 1_545
O48 Sc2 2.198689 1_555
O49 Si2 1.604628 1_555
O49 Sc2 2.106724 1_555
O50 Si3 1.618851 1_655
O50 Sc2 2.084921 1_555
O51 Si1 1.604627 1_555
O51 Sc3 2.106724 1_555
O52 S0 1.495901 1_655
O52 Sc3 2.198689 1_555
O53 Si0 1.618851 1_545
O53 Sc3 2.084921 1_555
O54 Si8 1.681232 1_555
O54 Ti2 2.019340 1_555
O55 Si9 1.670579 1_655
O55 Ti2 1.887618 1_555
O56 S4 1.483307 1_545
O56 Ti2 2.317649 1_555
O57 Si10 1.670579 1_545
O57 Ti3 1.887618 1_555
O58 Si11 1.681233 1_555
O58 Ti3 2.019340 1_555
O59 S5 1.483307 1_655
O59 Ti3 2.317649 1_555
O60 S3 1.495914 1_555
O60 Sc4 2.198689 1_555
O61 Si6 1.604612 1_455
O61 Sc4 2.106724 1_555
O62 Si7 1.618846 1_565
O62 Sc4 2.084921 1_555
O63 Si5 1.604612 1_565
O63 Sc5 2.106724 1_555
O64 S2 1.495914 1_555
O64 Sc5 2.198689 1_555
O65 Si4 1.618846 1_455
O65 Sc5 2.084921 1_555
O66 Si0 1.681220 1_555
O66 Ti4 2.019340 1_555
O67 Si1 1.670594 1_555
O67 Ti4 1.887618 1_555
O68 S0 1.483312 1_555
O68 Ti4 2.317649 1_555
O69 Si2 1.670594 1_555
O69 Ti5 1.887618 1_555
O70 Si3 1.681220 1_555
O70 Ti5 2.019340 1_555
O71 S1 1.483312 1_555
O71 Ti5 2.317649 1_555
