# generated using pymatgen
data_Na6CaHf7Si6(SO8)6
_symmetry_space_group_name_H-M   'P 1'
_cell_length_a   18.04727991
_cell_length_b   8.99648979
_cell_length_c   23.43064391
_cell_angle_alpha   89.98901830
_cell_angle_beta   90.01380157
_cell_angle_gamma   119.89213186
_symmetry_Int_Tables_number   1
_chemical_formula_structural   Na6CaHf7Si6(SO8)6
_chemical_formula_sum   'Na18 Ca3 Hf21 Si18 S18 O144'
_cell_volume   3298.15238979
_cell_formula_units_Z   3
loop_
 _symmetry_equiv_pos_site_id
 _symmetry_equiv_pos_as_xyz
  1  'x, y, z'
loop_
 _atom_site_type_symbol
 _atom_site_label
 _atom_site_symmetry_multiplicity
 _atom_site_fract_x
 _atom_site_fract_y
 _atom_site_fract_z
 _atom_site_occupancy
  Na  Na0  1  0.68665674  0.38124085  0.25227434  1
  Na  Na1  1  0.99584119  0.64912489  0.25286232  1
  Na  Na2  1  0.99639779  0.35351313  0.75338677  1
  Na  Na3  1  0.49256753  0.35822656  0.74916476  1
  Na  Na4  1  0.19369674  0.01795410  0.75381995  1
  Na  Na5  1  0.68525980  0.00976103  0.75051364  1
  Na  Na6  1  0.99774067  0.99818739  0.49095429  1
  Na  Na7  1  0.50682307  0.00189017  0.49814198  1
  Na  Na8  1  0.01097067  0.01622752  0.99836412  1
  Na  Na9  1  0.50284850  0.98869308  0.99755033  1
  Na  Na10  1  0.33062079  0.33255477  0.82543070  1
  Na  Na11  1  0.82763787  0.32407651  0.82872368  1
  Na  Na12  1  0.33359781  0.33126426  0.32932522  1
  Na  Na13  1  0.83367551  0.33604128  0.33660060  1
  Na  Na14  1  0.17158200  0.66669809  0.16515583  1
  Na  Na15  1  0.66302888  0.66342239  0.17239144  1
  Na  Na16  1  0.17722727  0.66734297  0.67047655  1
  Na  Na17  1  0.66982667  0.66395377  0.66794334  1
  Ca  Ca0  1  0.33347890  0.34007078  0.68670731  1
  Ca  Ca1  1  0.82933438  0.33336712  0.68446625  1
  Ca  Ca2  1  0.83345917  0.33222536  0.18472405  1
  Hf  Hf0  1  0.00174069  0.98915076  0.35733139  1
  Hf  Hf1  1  0.50228975  0.01035404  0.35637573  1
  Hf  Hf2  1  0.00671231  0.01865571  0.85721936  1
  Hf  Hf3  1  0.50354667  0.99932786  0.85044464  1
  Hf  Hf4  1  0.99719651  0.00562323  0.64969160  1
  Hf  Hf5  1  0.50011318  0.00202376  0.65380390  1
  Hf  Hf6  1  0.00547628  0.99647542  0.15043629  1
  Hf  Hf7  1  0.49925668  0.00084366  0.14675928  1
  Hf  Hf8  1  0.33402717  0.33787636  0.18643876  1
  Hf  Hf9  1  0.32545895  0.33196931  0.98353761  1
  Hf  Hf10  1  0.83302449  0.32451085  0.97566364  1
  Hf  Hf11  1  0.33512951  0.34603704  0.47709530  1
  Hf  Hf12  1  0.83121478  0.33041065  0.47364416  1
  Hf  Hf13  1  0.16157980  0.65630351  0.01695777  1
  Hf  Hf14  1  0.65814795  0.67140447  0.01927536  1
  Hf  Hf15  1  0.16180086  0.65670228  0.51500237  1
  Hf  Hf16  1  0.66645210  0.67009377  0.51128780  1
  Hf  Hf17  1  0.16368883  0.66217183  0.31628752  1
  Hf  Hf18  1  0.66708662  0.66276404  0.31704521  1
  Hf  Hf19  1  0.17053411  0.66976415  0.81667667  1
  Hf  Hf20  1  0.67058016  0.67891527  0.81044390  1
  Si  Si0  1  0.14879763  0.00251836  0.25191923  1
  Si  Si1  1  0.85322679  0.71544046  0.25023385  1
  Si  Si2  1  0.49864990  0.29148871  0.24993649  1
  Si  Si3  1  0.14413858  0.29438147  0.75072368  1
  Si  Si4  1  0.64604233  0.29460825  0.75190871  1
  Si  Si5  1  0.49976454  0.70883783  0.75160857  1
  Si  Si6  1  0.35300848  0.99107644  0.75241435  1
  Si  Si7  1  0.85696000  0.99760967  0.75256834  1
  Si  Si8  1  0.47610219  0.62256175  0.08326781  1
  Si  Si9  1  0.18520244  0.33545502  0.08559547  1
  Si  Si10  1  0.02125683  0.37877474  0.91518019  1
  Si  Si11  1  0.16843618  0.95964780  0.91721947  1
  Si  Si12  1  0.66276489  0.95742298  0.91592325  1
  Si  Si13  1  0.81294162  0.95539966  0.41510704  1
  Si  Si14  1  0.16615599  0.37375682  0.41544032  1
  Si  Si15  1  0.66560162  0.37670247  0.41665455  1
  Si  Si16  1  0.02100709  0.66454784  0.41695789  1
  Si  Si17  1  0.52176522  0.66924626  0.41498415  1
  S  S0  1  0.64045126  0.99389143  0.25041639  1
  S  S1  1  0.35601297  0.71365662  0.25040063  1
  S  S2  1  0.00295599  0.28898290  0.25162779  1
  S  S3  1  0.00164010  0.71637862  0.75136870  1
  S  S4  1  0.48245466  0.33321591  0.58172083  1
  S  S5  1  0.98215351  0.33449295  0.58274226  1
  S  S6  1  0.18463017  0.03379071  0.58228019  1
  S  S7  1  0.68392617  0.03376855  0.58205544  1
  S  S8  1  0.33343147  0.63347582  0.58091511  1
  S  S9  1  0.83345076  0.63205819  0.58174039  1
  S  S10  1  0.98045646  0.62832143  0.08213361  1
  S  S11  1  0.33343429  0.04390825  0.08361688  1
  S  S12  1  0.83298495  0.03572826  0.08116660  1
  S  S13  1  0.68560116  0.33412589  0.08205130  1
  S  S14  1  0.31254714  0.66757386  0.91823887  1
  S  S15  1  0.81035655  0.66490302  0.91836999  1
  S  S16  1  0.52103582  0.37698224  0.91713501  1
  S  S17  1  0.31044772  0.95571711  0.41752875  1
  O  O0  1  0.10084780  0.02683403  0.30614875  1
  O  O1  1  0.59762720  0.01620467  0.30125818  1
  O  O2  1  0.40756393  0.79293980  0.30164430  1
  O  O3  1  0.91787244  0.81100885  0.30343669  1
  O  O4  1  0.48789256  0.16579872  0.30414056  1
  O  O5  1  0.99264202  0.18836647  0.30223290  1
  O  O6  1  0.09525532  0.16919079  0.80518381  1
  O  O7  1  0.59782101  0.17048912  0.80633827  1
  O  O8  1  0.49013027  0.80574087  0.80701532  1
  O  O9  1  0.99045578  0.79703776  0.80223192  1
  O  O10  1  0.41363898  0.01888837  0.80749530  1
  O  O11  1  0.91645871  0.01473413  0.80645779  1
  O  O12  1  0.39886189  0.96437964  0.69483797  1
  O  O13  1  0.90005869  0.96878084  0.69379265  1
  O  O14  1  0.08108027  0.19677004  0.69439801  1
  O  O15  1  0.58435091  0.20686163  0.69479164  1
  O  O16  1  0.01401018  0.82210410  0.69877337  1
  O  O17  1  0.52019826  0.83534072  0.69519219  1
  O  O18  1  0.39809662  0.81868340  0.19836073  1
  O  O19  1  0.90140403  0.83058956  0.19239458  1
  O  O20  1  0.01431283  0.21086731  0.19852230  1
  O  O21  1  0.51317238  0.18986247  0.19505493  1
  O  O22  1  0.08491865  0.96120505  0.19543599  1
  O  O23  1  0.58884189  0.97514282  0.19791643  1
  O  O24  1  0.44732982  0.35773975  0.63487016  1
  O  O25  1  0.95000291  0.36334114  0.63645017  1
  O  O26  1  0.23213901  0.10206089  0.63528724  1
  O  O27  1  0.73117413  0.10218585  0.63560641  1
  O  O28  1  0.31719382  0.53320576  0.63270190  1
  O  O29  1  0.82130505  0.53598791  0.63438176  1
  O  O30  1  0.43319103  0.50556017  0.13931318  1
  O  O31  1  0.94784514  0.53273217  0.13521186  1
  O  O32  1  0.32106034  0.12295030  0.13485169  1
  O  O33  1  0.81606702  0.10281118  0.13272558  1
  O  O34  1  0.24663649  0.35794236  0.13956260  1
  O  O35  1  0.73217741  0.36026593  0.13520167  1
  O  O36  1  0.23069630  0.30562221  0.02857597  1
  O  O37  1  0.73001450  0.30926708  0.03260293  1
  O  O38  1  0.42003757  0.53035582  0.02609883  1
  O  O39  1  0.92486808  0.53757020  0.03260827  1
  O  O40  1  0.34834322  0.15024464  0.03188637  1
  O  O41  1  0.84286985  0.14914519  0.03106292  1
  O  O42  1  0.22909634  0.14539341  0.53234221  1
  O  O43  1  0.73039006  0.14655050  0.53302404  1
  O  O44  1  0.34314371  0.54077329  0.53074245  1
  O  O45  1  0.84472359  0.54376887  0.53181320  1
  O  O46  1  0.42575364  0.31298422  0.53220235  1
  O  O47  1  0.92776296  0.31328024  0.53336339  1
  O  O48  1  0.27007627  0.68809368  0.96903031  1
  O  O49  1  0.76842562  0.68646113  0.96940190  1
  O  O50  1  0.08086449  0.46796201  0.97112695  1
  O  O51  1  0.57698717  0.46348156  0.96794560  1
  O  O52  1  0.15938343  0.83982834  0.97228442  1
  O  O53  1  0.65518603  0.83894926  0.97124351  1
  O  O54  1  0.27057566  0.84961072  0.46866855  1
  O  O55  1  0.76738872  0.83928451  0.47208326  1
  O  O56  1  0.15847788  0.47486614  0.47148595  1
  O  O57  1  0.65054846  0.46359383  0.47265742  1
  O  O58  1  0.08273191  0.69210810  0.47148091  1
  O  O59  1  0.57866830  0.69846510  0.47238938  1
  O  O60  1  0.06566757  0.63764355  0.35928619  1
  O  O61  1  0.56443555  0.63607172  0.35936402  1
  O  O62  1  0.25840492  0.87862083  0.36565867  1
  O  O63  1  0.75115485  0.86980771  0.35991647  1
  O  O64  1  0.18530836  0.50193367  0.36082875  1
  O  O65  1  0.68158813  0.48484860  0.35783600  1
  O  O66  1  0.06352666  0.48928340  0.85726731  1
  O  O67  1  0.56234799  0.47942505  0.86529941  1
  O  O68  1  0.18044971  0.86965363  0.85889472  1
  O  O69  1  0.68039508  0.87155991  0.85997649  1
  O  O70  1  0.25972201  0.64048917  0.86615370  1
  O  O71  1  0.75759801  0.63427182  0.86663908  1
  O  O72  1  0.01318385  0.83467693  0.41337163  1
  O  O73  1  0.50451174  0.83003150  0.40668575  1
  O  O74  1  0.39573741  0.97174888  0.41048560  1
  O  O75  1  0.90782832  0.98156622  0.40864276  1
  O  O76  1  0.08160872  0.19055845  0.41012987  1
  O  O77  1  0.58090441  0.18448863  0.40991947  1
  O  O78  1  0.00756873  0.18576963  0.91272977  1
  O  O79  1  0.51252594  0.20469698  0.91367231  1
  O  O80  1  0.08054078  0.96901374  0.91105996  1
  O  O81  1  0.57877005  0.97879727  0.91417216  1
  O  O82  1  0.39703497  0.82236644  0.91275220  1
  O  O83  1  0.89627960  0.81421119  0.91139027  1
  O  O84  1  0.48969056  0.17403715  0.58459309  1
  O  O85  1  0.99142308  0.17714986  0.58700445  1
  O  O86  1  0.09704929  0.01353349  0.58725474  1
  O  O87  1  0.59765888  0.01945251  0.58540823  1
  O  O88  1  0.41243352  0.80405147  0.58428623  1
  O  O89  1  0.91331846  0.80554909  0.58691107  1
  O  O90  1  0.49025711  0.81753799  0.09254857  1
  O  O91  1  0.98787954  0.80116234  0.08601433  1
  O  O92  1  0.41115840  0.02466163  0.09106985  1
  O  O93  1  0.91114602  0.02235393  0.08532670  1
  O  O94  1  0.08910364  0.16617396  0.09196679  1
  O  O95  1  0.59851810  0.17656979  0.08708077  1
  O  O96  1  0.34378742  0.15936038  0.74786269  1
  O  O97  1  0.85030774  0.17004209  0.74860476  1
  O  O98  1  0.23326060  0.29950029  0.74793159  1
  O  O99  1  0.73668864  0.30272317  0.74977705  1
  O  O100  1  0.42362212  0.51614036  0.74988678  1
  O  O101  1  0.92938849  0.54218321  0.74521043  1
  O  O102  1  0.34669659  0.54134190  0.24363301  1
  O  O103  1  0.84377970  0.52307946  0.24794267  1
  O  O104  1  0.41418348  0.30930061  0.24252677  1
  O  O105  1  0.92959554  0.31848216  0.24583641  1
  O  O106  1  0.24203518  0.16854179  0.24154040  1
  O  O107  1  0.72422099  0.15194265  0.24586328  1
  O  O108  1  0.32113912  0.51237627  0.92373745  1
  O  O109  1  0.81960870  0.50912245  0.92719392  1
  O  O110  1  0.43661621  0.36214819  0.92510170  1
  O  O111  1  0.92721981  0.36289084  0.92645193  1
  O  O112  1  0.25425428  0.14982055  0.92489747  1
  O  O113  1  0.74867303  0.14709400  0.92707770  1
  O  O114  1  0.32052173  0.12827948  0.42602670  1
  O  O115  1  0.82124134  0.14413790  0.42696781  1
  O  O116  1  0.25113323  0.35352100  0.42741577  1
  O  O117  1  0.74877736  0.35255417  0.42590327  1
  O  O118  1  0.42726685  0.49526575  0.42722720  1
  O  O119  1  0.92810617  0.49491098  0.42641310  1
  O  O120  1  0.17884020  0.51077886  0.07698511  1
  O  O121  1  0.67516179  0.48555135  0.07126569  1
  O  O122  1  0.06786562  0.65215998  0.07360592  1
  O  O123  1  0.57322302  0.64500556  0.07560346  1
  O  O124  1  0.25839178  0.87076595  0.07640715  1
  O  O125  1  0.75763904  0.86079368  0.07040221  1
  O  O126  1  0.17546449  0.86034236  0.57303845  1
  O  O127  1  0.67374958  0.85976358  0.57460135  1
  O  O128  1  0.25829349  0.65781649  0.57122955  1
  O  O129  1  0.75755730  0.65482113  0.57446026  1
  O  O130  1  0.07031578  0.48675553  0.57446218  1
  O  O131  1  0.56899864  0.48616947  0.57385026  1
  O  O132  1  0.15291827  0.82141308  0.25760366  1
  O  O133  1  0.64865198  0.84063220  0.25452519  1
  O  O134  1  0.27031121  0.69786570  0.25529026  1
  O  O135  1  0.75674113  0.68976479  0.25368374  1
  O  O136  1  0.08184583  0.46647183  0.25571074  1
  O  O137  1  0.58743604  0.47497248  0.25486908  1
  O  O138  1  0.14360388  0.47580265  0.75573129  1
  O  O139  1  0.64597448  0.47467737  0.75987672  1
  O  O140  1  0.08231057  0.70557067  0.75527292  1
  O  O141  1  0.58976435  0.70186424  0.75820120  1
  O  O142  1  0.25563862  0.82265408  0.75613790  1
  O  O143  1  0.76062723  0.82973228  0.75567073  1
loop_
_geom_bond_atom_site_label_1
_geom_bond_atom_site_label_2
_geom_bond_distance
_geom_bond_site_symmetry_2
Na0 O137 2.329460 1_555
Na0 O135 2.409520 1_555
Na0 O103 2.464334 1_555
Na0 O107 2.476232 1_555
Na0 O65 2.660971 1_555
Na0 O35 2.896695 1_555
Na1 O103 2.393416 1_555
Na1 O132 2.464000 1_655
Na1 O105 2.600040 1_555
Na1 O3 2.747610 1_555
Na1 O136 2.766945 1_655
Na1 O22 2.788977 1_655
Na1 O60 2.818649 1_655
Na1 O31 2.922611 1_555
Na2 O97 2.313133 1_555
Na2 O138 2.314732 1_655
Na2 O101 2.534957 1_555
Na2 O66 2.721898 1_655
Na2 O140 2.746425 1_655
Na2 O25 2.878982 1_555
Na2 O14 2.895567 1_655
Na2 O11 2.921221 1_555
Na3 O100 2.308414 1_555
Na3 O96 2.371334 1_555
Na3 O139 2.436046 1_555
Na3 O141 2.697072 1_555
Na3 O24 2.798858 1_555
Na3 O15 2.910536 1_555
Na3 O67 2.968182 1_555
Na3 O10 2.980233 1_555
Na4 O98 2.267561 1_555
Na4 O96 2.353828 1_555
Na4 O142 2.509457 1_545
Na4 O140 2.511818 1_545
Na4 O68 2.753106 1_545
Na4 O26 2.871260 1_555
Na5 O99 2.317331 1_555
Na5 O141 2.432520 1_545
Na5 O97 2.583145 1_555
Na5 O143 2.585249 1_545
Na5 O27 2.817841 1_555
Na5 O69 2.832273 1_545
Na5 O17 2.890699 1_545
Na5 O7 2.927122 1_555
Na6 O72 2.440478 1_655
Na6 O75 2.476232 1_555
Na6 O76 2.502332 1_665
Na6 O89 2.783545 1_555
Na6 O85 2.802591 1_565
Na6 O86 2.841482 1_665
Na7 O77 2.563189 1_555
Na7 O87 2.575568 1_555
Na7 O73 2.630801 1_545
Na7 O84 2.660076 1_555
Na7 O88 2.668697 1_545
Na7 O74 2.787002 1_545
Na8 O78 2.539347 1_555
Na8 O80 2.544487 1_545
Na8 O94 2.592639 1_556
Na8 O91 2.707423 1_446
Na8 O93 2.738836 1_456
Na8 O83 2.826671 1_445
Na9 O81 2.413467 1_555
Na9 O82 2.642844 1_555
Na9 O90 2.650900 1_556
Na9 O95 2.707277 1_566
Na9 O79 2.707343 1_565
Na9 O92 2.860091 1_566
Na10 O100 2.432128 1_555
Na10 O98 2.439462 1_555
Na10 O96 2.481490 1_555
Na10 O112 2.788438 1_555
Na10 O108 2.868726 1_555
Na10 O110 2.945254 1_555
Na11 O99 2.416006 1_555
Na11 O97 2.485607 1_555
Na11 O101 2.731305 1_555
Na11 O113 2.759582 1_555
Na11 O111 2.822757 1_555
Na11 O109 2.890983 1_555
Na12 O104 2.564822 1_555
Na12 O106 2.587022 1_555
Na12 O102 2.685636 1_555
Na12 O118 2.794637 1_555
Na12 O116 2.799315 1_555
Na12 O114 2.844889 1_555
Na13 O103 2.621625 1_555
Na13 O119 2.635736 1_555
Na13 O117 2.641288 1_555
Na13 O115 2.669626 1_555
Na13 O105 2.796215 1_555
Na13 O107 2.811320 1_555
Na14 O120 2.537147 1_555
Na14 O132 2.685455 1_555
Na14 O134 2.685889 1_555
Na14 O124 2.698572 1_555
Na14 O136 2.731646 1_555
Na14 O122 2.806462 1_555
Na15 O135 2.478632 1_555
Na15 O137 2.482884 1_555
Na15 O133 2.593496 1_555
Na15 O123 2.743709 1_555
Na15 O121 2.928112 1_555
Na15 O125 2.959267 1_555
Na16 O142 2.451979 1_555
Na16 O138 2.506976 1_555
Na16 O140 2.754853 1_555
Na16 O128 2.771654 1_555
Na16 O126 2.877772 1_555
Na16 O130 2.880660 1_555
Na17 O143 2.588115 1_555
Na17 O139 2.644485 1_555
Na17 O141 2.677573 1_555
Na17 O129 2.728132 1_555
Na17 O127 2.786715 1_555
Na17 O131 2.797927 1_555
Ca0 O100 2.185933 1_555
Ca0 O98 2.192125 1_555
Ca0 O96 2.243075 1_555
Ca0 O28 2.283545 1_555
Ca0 O24 2.323325 1_555
Ca0 O26 2.340508 1_555
Ca1 O99 2.180588 1_555
Ca1 O29 2.232351 1_555
Ca1 O27 2.258775 1_555
Ca1 O97 2.261399 1_555
Ca1 O101 2.331116 1_555
Ca1 O25 2.344509 1_555
Ca2 O103 2.204320 1_555
Ca2 O31 2.269361 1_555
Ca2 O33 2.279859 1_555
Ca2 O35 2.282449 1_555
Ca2 O105 2.299654 1_555
Ca2 O107 2.320075 1_555
Hf0 O72 1.995830 1_555
Hf0 O3 2.009004 1_455
Hf0 O0 2.036845 1_565
Hf0 O75 2.051419 1_455
Hf0 O76 2.070754 1_565
Hf0 O5 2.279936 1_465
Hf1 O77 1.955912 1_555
Hf1 O4 1.970406 1_555
Hf1 O73 2.021637 1_545
Hf1 O1 2.131142 1_555
Hf1 O74 2.182013 1_545
Hf1 O2 2.249417 1_545
Hf2 O6 1.928044 1_555
Hf2 O78 1.982378 1_555
Hf2 O11 2.002688 1_455
Hf2 O80 2.039185 1_545
Hf2 O9 2.266928 1_445
Hf2 O83 2.304917 1_445
Hf3 O8 1.925491 1_555
Hf3 O7 1.929450 1_565
Hf3 O10 1.990029 1_565
Hf3 O81 2.086997 1_555
Hf3 O82 2.304580 1_555
Hf3 O79 2.310224 1_565
Hf4 O13 1.916363 1_545
Hf4 O14 1.936841 1_655
Hf4 O16 2.153827 1_645
Hf4 O85 2.169982 1_555
Hf4 O89 2.231430 1_545
Hf4 O86 2.294801 1_655
Hf5 O12 1.939600 1_545
Hf5 O15 1.958837 1_555
Hf5 O17 1.965087 1_545
Hf5 O84 2.312786 1_555
Hf5 O87 2.327666 1_555
Hf5 O88 2.349463 1_545
Hf6 O22 1.928867 1_555
Hf6 O19 1.981888 1_455
Hf6 O94 2.046707 1_565
Hf6 O20 2.170065 1_565
Hf6 O91 2.216165 1_455
Hf6 O93 2.381886 1_465
Hf7 O21 1.951982 1_555
Hf7 O90 2.023130 1_545
Hf7 O23 2.115590 1_545
Hf7 O18 2.121014 1_545
Hf7 O92 2.148228 1_555
Hf7 O95 2.200276 1_555
Hf8 O30 2.001782 1_555
Hf8 O34 2.002313 1_555
Hf8 O106 2.055062 1_555
Hf8 O104 2.062875 1_555
Hf8 O102 2.186871 1_555
Hf8 O32 2.191858 1_555
Hf9 O36 1.921283 1_556
Hf9 O38 2.014143 1_556
Hf9 O112 2.031151 1_555
Hf9 O108 2.174566 1_555
Hf9 O40 2.190619 1_556
Hf9 O110 2.330467 1_555
Hf10 O113 1.933650 1_555
Hf10 O111 1.937628 1_555
Hf10 O41 2.117559 1_556
Hf10 O109 2.122919 1_555
Hf10 O37 2.236463 1_556
Hf10 O39 2.243845 1_556
Hf11 O118 1.925582 1_555
Hf11 O116 1.938634 1_555
Hf11 O44 2.102006 1_555
Hf11 O114 2.196620 1_555
Hf11 O46 2.216780 1_555
Hf11 O42 2.270074 1_555
Hf12 O115 1.933068 1_555
Hf12 O117 1.949088 1_555
Hf12 O119 1.973187 1_555
Hf12 O43 2.232287 1_555
Hf12 O45 2.266237 1_555
Hf12 O47 2.298727 1_555
Hf13 O50 1.919867 1_554
Hf13 O52 1.971755 1_554
Hf13 O120 2.048128 1_555
Hf13 O122 2.135835 1_555
Hf13 O48 2.149335 1_554
Hf13 O124 2.314170 1_555
Hf14 O53 1.902906 1_554
Hf14 O123 1.945606 1_555
Hf14 O51 2.088065 1_554
Hf14 O125 2.124265 1_555
Hf14 O121 2.210124 1_555
Hf14 O49 2.253263 1_554
Hf15 O56 1.903199 1_555
Hf15 O58 1.905208 1_555
Hf15 O130 2.118665 1_555
Hf15 O54 2.156096 1_555
Hf15 O128 2.179409 1_555
Hf15 O126 2.194725 1_555
Hf16 O55 1.927582 1_555
Hf16 O59 1.951402 1_555
Hf16 O57 1.954999 1_555
Hf16 O127 2.215086 1_555
Hf16 O131 2.253804 1_555
Hf16 O129 2.266519 1_555
Hf17 O60 1.950596 1_555
Hf17 O64 1.969623 1_555
Hf17 O132 2.063363 1_555
Hf17 O136 2.168850 1_555
Hf17 O62 2.175816 1_555
Hf17 O134 2.287731 1_555
Hf18 O65 1.990164 1_555
Hf18 O63 1.990883 1_555
Hf18 O61 2.007548 1_555
Hf18 O135 2.119032 1_555
Hf18 O137 2.149946 1_555
Hf18 O133 2.312289 1_555
Hf19 O68 1.980977 1_555
Hf19 O66 2.035994 1_555
Hf19 O142 2.039010 1_555
Hf19 O70 2.103717 1_555
Hf19 O138 2.115561 1_555
Hf19 O140 2.284456 1_555
Hf20 O143 1.982808 1_555
Hf20 O141 1.991838 1_555
Hf20 O69 2.019091 1_555
Hf20 O139 2.040694 1_555
Hf20 O71 2.233547 1_555
Hf20 O67 2.279147 1_555
O0 Si0 1.612618 1_555
O1 S0 1.487236 1_545
O2 S1 1.467750 1_555
O3 Si1 1.629175 1_555
O4 Si2 1.646231 1_555
O5 S2 1.446266 1_655
O6 Si3 1.638500 1_555
O7 Si4 1.631584 1_555
O8 Si5 1.620875 1_555
O9 S3 1.460834 1_655
O10 Si6 1.628517 1_545
O11 Si7 1.614191 1_545
O12 Si6 1.661685 1_555
O13 Si7 1.664493 1_555
O14 Si3 1.676788 1_555
O15 Si4 1.666559 1_555
O16 S3 1.503743 1_555
O17 Si5 1.661296 1_555
O18 S1 1.497030 1_555
O19 Si1 1.663729 1_555
O20 S2 1.492712 1_555
O21 Si2 1.672609 1_555
O22 Si0 1.670642 1_565
O23 S0 1.500692 1_555
O24 S4 1.463295 1_555
O25 S5 1.462258 1_555
O26 S6 1.459383 1_555
O27 S7 1.468657 1_555
O28 S8 1.451971 1_555
O29 S9 1.458516 1_555
O30 Si8 1.618520 1_555
O31 S10 1.458793 1_555
O32 S11 1.468124 1_555
O33 S12 1.449475 1_555
O34 Si9 1.626332 1_555
O35 S13 1.454420 1_555
O36 Si9 1.658720 1_555
O37 S13 1.487976 1_555
O38 Si8 1.633813 1_555
O39 S10 1.484245 1_555
O40 S11 1.483196 1_555
O41 S12 1.506434 1_555
O42 S6 1.489316 1_555
O43 S7 1.484740 1_555
O44 S8 1.501479 1_555
O45 S9 1.484023 1_555
O46 S4 1.496767 1_555
O47 S5 1.466759 1_555
O48 S14 1.476285 1_555
O49 S15 1.478786 1_555
O50 Si10 1.630586 1_555
O51 S16 1.503034 1_555
O52 Si11 1.636259 1_555
O53 Si12 1.639845 1_555
O54 S17 1.476524 1_555
O55 Si13 1.641129 1_555
O56 Si14 1.642334 1_555
O57 Si15 1.618317 1_555
O58 Si16 1.630509 1_555
O59 Si17 1.631948 1_555
O60 Si16 1.652058 1_555
O61 Si17 1.615609 1_555
O62 S17 1.480120 1_555
O63 Si13 1.628630 1_555
O64 Si14 1.639790 1_555
O65 Si15 1.627589 1_555
O66 Si10 1.629623 1_555
O67 S16 1.481720 1_555
O68 Si11 1.656985 1_555
O69 Si12 1.631529 1_555
O70 S14 1.491848 1_555
O71 S15 1.479773 1_555
O72 Si16 1.607781 1_555
O73 Si17 1.635829 1_555
O74 S17 1.481941 1_555
O75 Si13 1.615282 1_555
O76 Si14 1.597950 1_555
O77 Si15 1.648347 1_555
O78 Si10 1.628431 1_555
O79 S16 1.481664 1_555
O80 Si11 1.636246 1_555
O81 Si12 1.620820 1_555
O82 S14 1.471170 1_555
O83 S15 1.469541 1_555
O84 S4 1.502900 1_555
O85 S5 1.509195 1_555
O86 S6 1.502681 1_555
O87 S7 1.498952 1_555
O88 S8 1.487674 1_555
O89 S9 1.511955 1_555
O90 Si8 1.656170 1_555
O91 S10 1.495505 1_555
O92 S11 1.506661 1_555
O93 S12 1.477450 1_555
O94 Si9 1.648298 1_555
O95 S13 1.507525 1_555
O96 Si6 1.606926 1_545
O97 Si7 1.617127 1_545
O98 Si3 1.587326 1_555
O99 Si4 1.601578 1_555
O100 Si5 1.587717 1_555
O101 S3 1.462953 1_655
O102 S1 1.482195 1_555
O103 Si1 1.653111 1_555
O104 Si2 1.619544 1_555
O105 S2 1.480481 1_655
O106 Si0 1.617542 1_555
O107 S0 1.475181 1_545
O108 S14 1.485203 1_555
O109 S15 1.505952 1_555
O110 S16 1.473536 1_555
O111 Si10 1.651920 1_655
O112 Si11 1.648352 1_545
O113 Si12 1.657352 1_545
O114 S17 1.483776 1_545
O115 Si13 1.652109 1_545
O116 Si14 1.655864 1_555
O117 Si15 1.634724 1_555
O118 Si17 1.667364 1_555
O119 Si16 1.624455 1_655
O120 Si9 1.649891 1_555
O121 S13 1.486904 1_555
O122 S10 1.495774 1_455
O123 Si8 1.671105 1_555
O124 S11 1.478629 1_565
O125 S12 1.502136 1_565
O126 S6 1.500672 1_565
O127 S7 1.492762 1_565
O128 S8 1.494690 1_555
O129 S9 1.492140 1_555
O130 S5 1.507738 1_455
O131 S4 1.491583 1_555
O132 Si0 1.672905 1_565
O133 S0 1.461365 1_555
O134 S1 1.485465 1_555
O135 Si1 1.640481 1_555
O136 S2 1.523125 1_555
O137 Si2 1.633806 1_555
O138 Si3 1.641206 1_555
O139 Si4 1.631355 1_555
O140 S3 1.509453 1_555
O141 Si5 1.663561 1_555
O142 Si6 1.654548 1_555
O143 Si7 1.640640 1_555
