# generated using pymatgen
data_Ca2Hf7O16
_symmetry_space_group_name_H-M   'P 1'
_cell_length_a   9.48469139
_cell_length_b   9.48469139
_cell_length_c   9.48469232
_cell_angle_alpha   38.79600297
_cell_angle_beta   38.79600300
_cell_angle_gamma   38.79600833
_symmetry_Int_Tables_number   1
_chemical_formula_structural   Ca2Hf7O16
_chemical_formula_sum   'Ca2 Hf7 O16'
_cell_volume   301.11080065
_cell_formula_units_Z   1
loop_
 _symmetry_equiv_pos_site_id
 _symmetry_equiv_pos_as_xyz
  1  'x, y, z'
loop_
 _atom_site_type_symbol
 _atom_site_label
 _atom_site_symmetry_multiplicity
 _atom_site_fract_x
 _atom_site_fract_y
 _atom_site_fract_z
 _atom_site_occupancy
  Ca  Ca0  1  0.33331192  0.33331192  0.33331192  1
  Ca  Ca1  1  0.66668808  0.66668808  0.66668808  1
  Hf  Hf0  1  0.48640596  0.74383095  0.11260538  1
  Hf  Hf1  1  0.74383095  0.11260538  0.48640596  1
  Hf  Hf2  1  0.11260538  0.48640596  0.74383095  1
  Hf  Hf3  1  0.51359404  0.25616905  0.88739462  1
  Hf  Hf4  1  0.25616905  0.88739462  0.51359404  1
  Hf  Hf5  1  0.88739462  0.51359404  0.25616905  1
  Hf  Hf6  1  -0.00000000  0.00000000  -0.00000000  1
  O  O0  1  0.59019987  0.85024213  0.15094492  1
  O  O1  1  0.85024213  0.15094492  0.59019987  1
  O  O2  1  0.15094492  0.59019987  0.85024213  1
  O  O3  1  0.40980013  0.14975787  0.84905508  1
  O  O4  1  0.14975787  0.84905508  0.40980013  1
  O  O5  1  0.84905508  0.40980013  0.14975787  1
  O  O6  1  0.32798745  0.76126737  0.03280992  1
  O  O7  1  0.76126737  0.03280992  0.32798745  1
  O  O8  1  0.03280992  0.32798745  0.76126737  1
  O  O9  1  0.76240656  0.76240656  0.76240656  1
  O  O10  1  0.23759344  0.23759344  0.23759344  1
  O  O11  1  0.57324859  0.57324859  0.57324859  1
  O  O12  1  0.42675141  0.42675141  0.42675141  1
  O  O13  1  0.96719008  0.67201255  0.23873263  1
  O  O14  1  0.23873263  0.96719008  0.67201255  1
  O  O15  1  0.67201255  0.23873263  0.96719008  1
loop_
_geom_bond_atom_site_label_1
_geom_bond_atom_site_label_2
_geom_bond_distance
_geom_bond_site_symmetry_2
Ca0 O12 2.455440 1_555
Ca0 O14 2.481577 1_545
Ca0 O15 2.481578 1_554
Ca0 O13 2.481578 1_455
Ca0 O10 2.515328 1_555
Ca0 O6 2.544278 1_555
Ca0 O7 2.544278 1_555
Ca0 O8 2.544278 1_555
Ca1 O11 2.455440 1_555
Ca1 O7 2.481577 1_565
Ca1 O6 2.481578 1_556
Ca1 O8 2.481578 1_655
Ca1 O9 2.515328 1_555
Ca1 O15 2.544278 1_555
Ca1 O14 2.544278 1_555
Ca1 O13 2.544278 1_555
Hf0 O6 2.011956 1_555
Hf0 O9 2.041959 1_554
Hf0 O12 2.073470 1_555
Hf0 O4 2.127265 1_555
Hf0 O0 2.190636 1_555
Hf0 O3 2.251346 1_564
Hf0 O5 2.270515 1_555
Hf1 O7 2.011956 1_555
Hf1 O9 2.041959 1_545
Hf1 O12 2.073470 1_555
Hf1 O5 2.127264 1_555
Hf1 O1 2.190636 1_555
Hf1 O4 2.251346 1_645
Hf1 O3 2.270515 1_555
Hf2 O8 2.011956 1_555
Hf2 O9 2.041960 1_455
Hf2 O12 2.073470 1_555
Hf2 O3 2.127265 1_555
Hf2 O2 2.190636 1_555
Hf2 O5 2.251346 1_456
Hf2 O4 2.270515 1_555
Hf3 O15 2.011956 1_555
Hf3 O10 2.041959 1_556
Hf3 O11 2.073470 1_555
Hf3 O1 2.127265 1_555
Hf3 O3 2.190636 1_555
Hf3 O0 2.251346 1_546
Hf3 O2 2.270515 1_555
Hf4 O14 2.011956 1_555
Hf4 O10 2.041959 1_565
Hf4 O11 2.073470 1_555
Hf4 O2 2.127264 1_555
Hf4 O4 2.190636 1_555
Hf4 O1 2.251346 1_465
Hf4 O0 2.270515 1_555
Hf5 O13 2.011956 1_555
Hf5 O10 2.041960 1_655
Hf5 O11 2.073470 1_555
Hf5 O0 2.127265 1_555
Hf5 O5 2.190636 1_555
Hf5 O2 2.251346 1_654
Hf5 O1 2.270515 1_555
Hf6 O8 2.081389 1_554
Hf6 O13 2.081389 1_445
Hf6 O6 2.081389 1_545
Hf6 O15 2.081389 1_454
Hf6 O14 2.081389 1_544
Hf6 O7 2.081389 1_455
