# generated using pymatgen
data_NdNiSn
_symmetry_space_group_name_H-M   'P 1'
_cell_length_a   4.57745054
_cell_length_b   7.47496024
_cell_length_c   7.61447591
_cell_angle_alpha   90.00000000
_cell_angle_beta   90.00000000
_cell_angle_gamma   90.00000000
_symmetry_Int_Tables_number   1
_chemical_formula_structural   NdNiSn
_chemical_formula_sum   'Nd4 Ni4 Sn4'
_cell_volume   260.53889349
_cell_formula_units_Z   4
loop_
 _symmetry_equiv_pos_site_id
 _symmetry_equiv_pos_as_xyz
  1  'x, y, z'
loop_
 _atom_site_type_symbol
 _atom_site_label
 _atom_site_symmetry_multiplicity
 _atom_site_fract_x
 _atom_site_fract_y
 _atom_site_fract_z
 _atom_site_occupancy
  Nd  Nd0  1  0.25000000  0.52115297  0.80212699  1
  Nd  Nd1  1  0.75000000  0.47884703  0.19787301  1
  Nd  Nd2  1  0.25000000  0.02115297  0.69787301  1
  Nd  Nd3  1  0.75000000  0.97884703  0.30212699  1
  Ni  Ni0  1  0.75000000  0.18740755  0.91761239  1
  Ni  Ni1  1  0.25000000  0.31259245  0.41761239  1
  Ni  Ni2  1  0.75000000  0.68740755  0.58238761  1
  Ni  Ni3  1  0.25000000  0.81259245  0.08238761  1
  Sn  Sn0  1  0.25000000  0.18558010  0.09070943  1
  Sn  Sn1  1  0.75000000  0.31441990  0.59070943  1
  Sn  Sn2  1  0.25000000  0.68558010  0.40929057  1
  Sn  Sn3  1  0.75000000  0.81441990  0.90929057  1
loop_
_geom_bond_atom_site_label_1
_geom_bond_atom_site_label_2
_geom_bond_distance
_geom_bond_site_symmetry_2
Nd0 Ni3 3.049586 1_556
Nd0 Ni2 3.095526 1_455
Nd0 Ni2 3.095526 1_555
Nd0 Sn1 3.196537 1_555
Nd0 Sn1 3.196537 1_455
Nd0 Sn2 3.233913 1_555
Nd0 Sn3 3.272563 1_555
Nd0 Sn3 3.272563 1_455
Nd0 Ni1 3.317060 1_555
Nd0 Sn0 3.334760 1_556
Nd0 Ni0 3.497890 1_455
Nd0 Ni0 3.497890 1_555
Nd1 Ni0 3.049586 1_554
Nd1 Ni1 3.095526 1_555
Nd1 Ni1 3.095526 1_655
Nd1 Sn2 3.196537 1_655
Nd1 Sn2 3.196537 1_555
Nd1 Sn1 3.233913 1_555
Nd1 Sn0 3.272563 1_555
Nd1 Sn0 3.272563 1_655
Nd1 Ni2 3.317060 1_555
Nd1 Sn3 3.334760 1_554
Nd1 Ni3 3.497890 1_555
Nd1 Ni3 3.497890 1_655
Nd2 Ni1 3.049586 1_555
Nd2 Ni0 3.095526 1_455
Nd2 Ni0 3.095526 1_555
Nd2 Sn3 3.196537 1_545
Nd2 Sn3 3.196537 1_445
Nd2 Sn0 3.233913 1_556
Nd2 Sn1 3.272563 1_455
Nd2 Sn1 3.272563 1_555
Nd2 Ni3 3.317060 1_546
Nd2 Sn2 3.334760 1_545
Nd2 Ni2 3.497890 1_545
Nd2 Ni2 3.497890 1_445
Nd3 Ni2 3.049586 1_555
Nd3 Ni3 3.095526 1_655
Nd3 Ni3 3.095526 1_555
Nd3 Sn0 3.196537 1_665
Nd3 Sn0 3.196537 1_565
Nd3 Sn3 3.233913 1_554
Nd3 Sn2 3.272563 1_555
Nd3 Sn2 3.272563 1_655
Nd3 Ni0 3.317060 1_564
Nd3 Sn1 3.334760 1_565
Nd3 Ni1 3.497890 1_565
Nd3 Ni1 3.497890 1_665
Ni0 Sn0 2.641153 1_556
Ni0 Sn0 2.641153 1_656
Ni0 Sn1 2.664108 1_555
Ni0 Sn3 2.788788 1_545
Ni1 Sn1 2.641153 1_555
Ni1 Sn1 2.641153 1_455
Ni1 Sn0 2.664108 1_555
Ni1 Sn2 2.788788 1_555
Ni2 Sn2 2.641153 1_555
Ni2 Sn2 2.641153 1_655
Ni2 Sn3 2.664108 1_555
Ni2 Sn1 2.788788 1_555
Ni3 Sn3 2.641153 1_554
Ni3 Sn3 2.641153 1_454
Ni3 Sn2 2.664108 1_555
Ni3 Sn0 2.788788 1_565
