# generated using pymatgen
data_MgTi6(N2O3)2
_symmetry_space_group_name_H-M   'P 1'
_cell_length_a   3.78603300
_cell_length_b   5.42458315
_cell_length_c   10.15569700
_cell_angle_alpha   90.00750576
_cell_angle_beta   90.00000000
_cell_angle_gamma   110.42431983
_symmetry_Int_Tables_number   1
_chemical_formula_structural   MgTi6(N2O3)2
_chemical_formula_sum   'Mg1 Ti6 N4 O6'
_cell_volume   195.46192348
_cell_formula_units_Z   1
loop_
 _symmetry_equiv_pos_site_id
 _symmetry_equiv_pos_as_xyz
  1  'x, y, z'
loop_
 _atom_site_type_symbol
 _atom_site_label
 _atom_site_symmetry_multiplicity
 _atom_site_fract_x
 _atom_site_fract_y
 _atom_site_fract_z
 _atom_site_occupancy
  Mg  Mg0  1  0.50582200  0.01164500  0.77271500  1
  Ti  Ti0  1  0.18982600  0.37965200  0.24501100  1
  Ti  Ti1  1  0.16053700  0.32107500  0.96276200  1
  Ti  Ti2  1  0.11989300  0.23978500  0.53755400  1
  Ti  Ti3  1  0.78783900  0.57567800  0.73831300  1
  Ti  Ti4  1  0.86394100  0.72788200  0.03451900  1
  Ti  Ti5  1  0.86453700  0.72907600  0.43213600  1
  N  N0  1  0.31918200  0.63836400  0.08352300  1
  N  N1  1  0.03447300  0.06894600  0.37098600  1
  N  N2  1  0.65252500  0.30505100  0.60553300  1
  N  N3  1  0.68823800  0.37647400  0.90896100  1
  O  O0  1  0.30000800  0.60001800  0.43891200  1
  O  O1  1  0.30620600  0.61241200  0.75430000  1
  O  O2  1  0.05129400  0.10258800  0.11404900  1
  O  O3  1  0.74458100  0.48916200  0.26815200  1
  O  O4  1  0.96874300  0.93748500  0.87010200  1
  O  O5  1  0.94235300  0.88470900  0.61246900  1
loop_
_geom_bond_atom_site_label_1
_geom_bond_atom_site_label_2
_geom_bond_distance
_geom_bond_site_symmetry_2
Mg0 O1 2.038098 1_545
Mg0 O4 2.168851 1_445
Mg0 O4 2.168857 1_545
Mg0 N2 2.260114 1_555
Mg0 N3 2.313761 1_555
Mg0 O5 2.578383 1_545
Mg0 O5 2.578389 1_445
N0 Ti4 2.009562 1_455
N0 Ti4 2.009562 1_555
N0 Ti1 2.026121 1_554
N0 Ti0 2.102373 1_555
N1 Ti5 1.836052 1_445
N1 Ti2 1.901418 1_555
N1 Ti0 2.032765 1_555
N2 Ti3 1.926278 1_555
N2 Ti2 2.042090 1_555
N2 Ti2 2.042097 1_655
N3 Ti1 1.990322 1_655
N3 Ti1 1.990333 1_555
N3 Ti3 2.007347 1_555
N3 Ti4 2.194665 1_556
O0 Ti5 2.004668 1_455
O0 Ti5 2.004668 1_555
O0 Ti2 2.087489 1_555
O0 Ti0 2.265409 1_555
O1 Ti3 1.909119 1_555
O1 Ti3 1.909119 1_455
O1 Ti1 2.583861 1_555
O2 Ti1 1.895973 1_554
O2 Ti0 1.937059 1_555
O2 Ti4 2.068898 1_445
O3 Ti0 1.987114 1_655
O3 Ti0 1.987114 1_555
O3 Ti5 2.064064 1_555
O3 Ti4 2.665190 1_555
O4 Ti4 1.980904 1_556
O4 Ti1 2.165071 1_665
O4 Ti3 2.274546 1_555
O5 Ti2 1.958936 1_665
O5 Ti5 1.994893 1_555
O5 Ti3 2.025315 1_555
