# generated using pymatgen
data_BaYMgTiCuO5
_symmetry_space_group_name_H-M   'P 1'
_cell_length_a   3.94113716
_cell_length_b   3.94122315
_cell_length_c   9.44867661
_cell_angle_alpha   90.02924551
_cell_angle_beta   90.03066167
_cell_angle_gamma   90.01028859
_symmetry_Int_Tables_number   1
_chemical_formula_structural   BaYMgTiCuO5
_chemical_formula_sum   'Ba1 Y1 Mg1 Ti1 Cu1 O5'
_cell_volume   146.76531622
_cell_formula_units_Z   1
loop_
 _symmetry_equiv_pos_site_id
 _symmetry_equiv_pos_as_xyz
  1  'x, y, z'
loop_
 _atom_site_type_symbol
 _atom_site_label
 _atom_site_symmetry_multiplicity
 _atom_site_fract_x
 _atom_site_fract_y
 _atom_site_fract_z
 _atom_site_occupancy
  Ba  Ba0  1  0.99993200  0.99993400  0.04814500  1
  Y  Y0  1  0.00024100  0.00022800  0.41073000  1
  Mg  Mg0  1  0.99990100  0.99990700  0.70396200  1
  Ti  Ti0  1  0.50001600  0.50001800  0.73667900  1
  Cu  Cu0  1  0.50005300  0.50005100  0.27985300  1
  O  O0  1  0.99991800  0.49978700  0.62664100  1
  O  O1  1  0.49977700  0.99992700  0.62662500  1
  O  O2  1  0.00007600  0.50002300  0.28659000  1
  O  O3  1  0.50002800  0.00006900  0.28657900  1
  O  O4  1  0.50005300  0.50005100  0.93211200  1
loop_
_geom_bond_atom_site_label_1
_geom_bond_atom_site_label_2
_geom_bond_distance
_geom_bond_site_symmetry_2
Ba0 O3 2.992553 1_665
Ba0 O2 2.992678 1_665
Ba0 O4 2.993133 1_554
Ba0 O3 2.993642 1_565
Ba0 O2 2.993730 1_655
Ba0 O4 2.994942 1_564
Ba0 O4 2.994999 1_654
Ba0 O4 2.995876 1_664
Mg0 O0 2.101586 1_565
Mg0 O1 2.101601 1_655
Mg0 O0 2.101774 1_555
Mg0 O1 2.101784 1_555
Cu0 O2 1.971540 1_555
Cu0 O3 1.971598 1_555
Cu0 O2 1.971653 1_655
Cu0 O3 1.971675 1_565
O0 Ti0 2.227885 1_655
O0 Ti0 2.228187 1_555
O0 Y0 2.834478 1_655
O0 Y0 2.838340 1_665
O1 Ti0 2.227992 1_565
O1 Ti0 2.228297 1_555
O1 Y0 2.834242 1_565
O1 Y0 2.838299 1_665
O2 Y0 2.293102 1_555
O2 Y0 2.293461 1_565
O3 Y0 2.293116 1_555
O3 Y0 2.293480 1_655
O4 Ti0 1.846583 1_555
