# generated using pymatgen
data_MgFe3(OF)3
_symmetry_space_group_name_H-M   'P 1'
_cell_length_a   5.33239249
_cell_length_b   5.65050826
_cell_length_c   5.33329978
_cell_angle_alpha   118.23243803
_cell_angle_beta   60.00153463
_cell_angle_gamma   118.32556669
_symmetry_Int_Tables_number   1
_chemical_formula_structural   MgFe3(OF)3
_chemical_formula_sum   'Mg1 Fe3 O3 F3'
_cell_volume   116.49728276
_cell_formula_units_Z   1
loop_
 _symmetry_equiv_pos_site_id
 _symmetry_equiv_pos_as_xyz
  1  'x, y, z'
loop_
 _atom_site_type_symbol
 _atom_site_label
 _atom_site_symmetry_multiplicity
 _atom_site_fract_x
 _atom_site_fract_y
 _atom_site_fract_z
 _atom_site_occupancy
  Mg  Mg0  1  0.84782700  0.54397700  0.84756600  1
  Fe  Fe0  1  0.12068800  0.36343300  0.12103100  1
  Fe  Fe1  1  0.36620800  0.10222000  0.36798700  1
  Fe  Fe2  1  0.65771600  0.97419500  0.65767300  1
  O  O0  1  0.07283200  0.26185100  0.46069700  1
  O  O1  1  0.46035900  0.26266100  0.72783200  1
  O  O2  1  0.72713000  0.26103400  0.07272500  1
  F  F0  1  0.23212500  0.76974300  0.96352300  1
  F  F1  1  0.57459500  0.76941700  0.23196700  1
  F  F2  1  0.96432000  0.76882000  0.57280000  1
loop_
_geom_bond_atom_site_label_1
_geom_bond_atom_site_label_2
_geom_bond_distance
_geom_bond_site_symmetry_2
Mg0 O1 2.108495 1_555
Mg0 O0 2.113234 1_655
Mg0 O2 2.116463 1_556
Fe0 O2 2.013112 1_455
Fe0 O1 2.013299 1_554
Fe0 O0 2.014638 1_555
Fe1 O1 1.908555 1_555
Fe1 O0 1.910246 1_555
Fe1 O2 1.912205 1_555
Fe2 O2 2.125932 1_566
Fe2 O0 2.126334 1_665
Fe2 O1 2.135739 1_565
F0 Mg0 2.061375 1_455
F0 Fe2 2.176901 1_555
F0 Fe1 2.264349 1_566
F0 Fe0 2.522024 1_556
F1 Mg0 2.062064 1_554
F1 Fe2 2.173528 1_555
F1 Fe1 2.276747 1_565
F1 Fe0 2.519871 1_555
F2 Mg0 2.061469 1_555
F2 Fe2 2.188163 1_555
F2 Fe1 2.260466 1_665
F2 Fe0 2.515856 1_655
