# generated using pymatgen
data_MgFe12(OF)12
_symmetry_space_group_name_H-M   'P 1'
_cell_length_a   9.70970753
_cell_length_b   14.46644343
_cell_length_c   3.09991100
_cell_angle_alpha   90.00000000
_cell_angle_beta   90.00000000
_cell_angle_gamma   92.09718897
_symmetry_Int_Tables_number   1
_chemical_formula_structural   MgFe12(OF)12
_chemical_formula_sum   'Mg1 Fe12 O12 F12'
_cell_volume   435.13714181
_cell_formula_units_Z   1
loop_
 _symmetry_equiv_pos_site_id
 _symmetry_equiv_pos_as_xyz
  1  'x, y, z'
loop_
 _atom_site_type_symbol
 _atom_site_label
 _atom_site_symmetry_multiplicity
 _atom_site_fract_x
 _atom_site_fract_y
 _atom_site_fract_z
 _atom_site_occupancy
  Mg  Mg0  1  0.47424000  0.81918200  0.00000000  1
  Fe  Fe0  1  0.98913200  0.02224800  0.00000000  1
  Fe  Fe1  1  0.02219400  0.32877700  0.00000000  1
  Fe  Fe2  1  0.00763800  0.66123200  0.00000000  1
  Fe  Fe3  1  0.22747700  0.16829200  0.50000000  1
  Fe  Fe4  1  0.25214100  0.48280100  0.50000000  1
  Fe  Fe5  1  0.21008700  0.87248200  0.50000000  1
  Fe  Fe6  1  0.49854200  0.34456600  0.00000000  1
  Fe  Fe7  1  0.50413000  0.00534600  0.00000000  1
  Fe  Fe8  1  0.54711500  0.63157200  0.00000000  1
  Fe  Fe9  1  0.74067900  0.15715400  0.50000000  1
  Fe  Fe10  1  0.74567600  0.48219200  0.50000000  1
  Fe  Fe11  1  0.74348400  0.82789900  0.50000000  1
  O  O0  1  0.09644900  0.26680500  0.50000000  1
  O  O1  1  0.06077300  0.94475800  0.50000000  1
  O  O2  1  0.15796500  0.10319500  0.00000000  1
  O  O3  1  0.15369400  0.43457400  0.00000000  1
  O  O4  1  0.32730300  0.91033100  0.00000000  1
  O  O5  1  0.40720800  0.39807600  0.50000000  1
  O  O6  1  0.56775200  0.91781600  0.50000000  1
  O  O7  1  0.63819700  0.58604300  0.50000000  1
  O  O8  1  0.64438600  0.10016400  0.00000000  1
  O  O9  1  0.66891600  0.41740300  0.00000000  1
  O  O10  1  0.65735500  0.76525400  0.00000000  1
  O  O11  1  0.89365500  0.07817100  0.50000000  1
  F  F0  1  0.12251300  0.60171700  0.50000000  1
  F  F1  1  0.14444200  0.77845300  0.00000000  1
  F  F2  1  0.34956900  0.23170600  0.00000000  1
  F  F3  1  0.35336800  0.56233600  0.00000000  1
  F  F4  1  0.40391000  0.06993700  0.50000000  1
  F  F5  1  0.40512100  0.74646900  0.50000000  1
  F  F6  1  0.58676000  0.26176900  0.50000000  1
  F  F7  1  0.83423900  0.23847600  0.00000000  1
  F  F8  1  0.82905900  0.90384400  0.00000000  1
  F  F9  1  0.87398300  0.54934200  0.00000000  1
  F  F10  1  0.91354000  0.39215800  0.50000000  1
  F  F11  1  0.90445300  0.73838300  0.50000000  1
loop_
_geom_bond_atom_site_label_1
_geom_bond_atom_site_label_2
_geom_bond_distance
_geom_bond_site_symmetry_2
Mg0 O10 1.967589 1_555
Mg0 O4 1.977856 1_555
Mg0 O6 2.273313 1_554
Mg0 O6 2.273313 1_555
Fe0 O2 1.979430 1_655
Fe0 O11 1.992781 1_555
Fe0 O11 1.992781 1_554
Fe0 O1 2.049381 1_644
Fe0 O1 2.049381 1_645
Fe1 O0 1.942483 1_554
Fe1 O0 1.942483 1_555
Fe1 O3 1.956964 1_555
Fe3 O2 1.923078 1_556
Fe3 O2 1.923078 1_555
Fe3 O0 1.944816 1_555
Fe4 O3 1.937532 1_555
Fe4 O3 1.937532 1_556
Fe4 O5 1.975938 1_555
Fe5 O1 1.818264 1_555
Fe5 O4 1.987939 1_556
Fe5 O4 1.987939 1_555
Fe6 O9 1.928559 1_555
Fe6 O5 1.959157 1_554
Fe6 O5 1.959157 1_555
Fe7 O8 1.897210 1_555
Fe7 O6 2.108225 1_545
Fe7 O6 2.108225 1_544
Fe7 O4 2.159741 1_545
Fe8 O7 1.913356 1_554
Fe8 O7 1.913356 1_555
Fe8 O10 2.175828 1_555
Fe9 O11 1.906837 1_555
Fe9 O8 1.974799 1_555
Fe9 O8 1.974799 1_556
Fe10 O7 1.860349 1_555
Fe10 O9 1.945559 1_555
Fe10 O9 1.945559 1_556
Fe11 O10 1.966611 1_556
Fe11 O10 1.966611 1_555
Fe11 O6 2.183106 1_555
F0 Fe2 2.111407 1_555
F0 Fe2 2.111407 1_556
F0 Fe4 2.168427 1_555
F1 Fe2 2.115474 1_555
F1 Fe5 2.143711 1_554
F1 Fe5 2.143711 1_555
F2 Fe3 2.137686 1_555
F2 Fe3 2.137686 1_554
F2 Fe6 2.141290 1_555
F3 Fe8 2.098644 1_555
F3 Fe4 2.146977 1_554
F3 Fe4 2.146977 1_555
F4 Fe7 2.070979 1_556
F4 Fe7 2.070979 1_555
F4 Fe3 2.266638 1_555
F5 Mg0 1.976763 1_555
F5 Mg0 1.976763 1_556
F6 Fe6 2.155421 1_556
F6 Fe6 2.155421 1_555
F6 Fe9 2.165524 1_555
F7 Fe9 2.129182 1_555
F7 Fe9 2.129182 1_554
F7 Fe1 2.205131 1_655
F8 Fe11 2.057425 1_555
F8 Fe11 2.057425 1_554
F8 Fe0 2.270431 1_565
F9 Fe2 2.037264 1_655
F9 Fe10 2.193062 1_555
F9 Fe10 2.193062 1_554
F10 Fe1 2.104016 1_655
F10 Fe1 2.104016 1_656
F10 Fe10 2.123303 1_555
F11 Fe11 2.065903 1_555
F11 Fe2 2.175702 1_655
F11 Fe2 2.175702 1_656
