# generated using pymatgen
data_Na2MgMn2O4
_symmetry_space_group_name_H-M   'P 1'
_cell_length_a   2.94264458
_cell_length_b   5.57413486
_cell_length_c   11.69004488
_cell_angle_alpha   90.00000000
_cell_angle_beta   90.00000000
_cell_angle_gamma   105.30488420
_symmetry_Int_Tables_number   1
_chemical_formula_structural   Na2MgMn2O4
_chemical_formula_sum   'Na2 Mg1 Mn2 O4'
_cell_volume   184.94790513
_cell_formula_units_Z   1
loop_
 _symmetry_equiv_pos_site_id
 _symmetry_equiv_pos_as_xyz
  1  'x, y, z'
loop_
 _atom_site_type_symbol
 _atom_site_label
 _atom_site_symmetry_multiplicity
 _atom_site_fract_x
 _atom_site_fract_y
 _atom_site_fract_z
 _atom_site_occupancy
  Na  Na0  1  0.69556677  0.39113353  0.25000000  1
  Na  Na1  1  0.09959962  0.19919923  0.75000000  1
  Mg  Mg0  1  0.96682764  0.93365428  0.25000000  1
  Mn  Mn0  1  0.04745014  0.09490028  0.49437169  1
  Mn  Mn1  1  0.04745014  0.09490028  0.00562831  1
  O  O0  1  0.51668400  0.03336800  0.36704711  1
  O  O1  1  0.57570235  0.15140470  0.59884401  1
  O  O2  1  0.57570235  0.15140470  0.90115599  1
  O  O3  1  0.51668400  0.03336800  0.13295289  1
loop_
_geom_bond_atom_site_label_1
_geom_bond_atom_site_label_2
_geom_bond_distance
_geom_bond_site_symmetry_2
Na0 O3 2.360527 1_555
Na0 O0 2.360527 1_555
Na1 O2 2.313694 1_555
Na1 O1 2.313694 1_555
Na1 O2 2.313694 1_455
Na1 O1 2.313694 1_455
Mg0 O3 2.079519 1_665
Mg0 O0 2.079519 1_665
Mg0 O3 2.079521 1_565
Mg0 O0 2.079521 1_565
Mn0 O1 1.936135 1_555
Mn0 O1 1.936135 1_455
Mn0 O0 2.118881 1_455
Mn0 O0 2.118881 1_555
Mn1 O2 1.936135 1_454
Mn1 O2 1.936135 1_554
Mn1 O3 2.118881 1_455
Mn1 O3 2.118881 1_555
