# generated using pymatgen
data_Na6Hf3MgGe2(PO6)4
_symmetry_space_group_name_H-M   'P 1'
_cell_length_a   15.85304802
_cell_length_b   9.16442340
_cell_length_c   9.13443628
_cell_angle_alpha   90.62115843
_cell_angle_beta   124.44458304
_cell_angle_gamma   90.04552909
_symmetry_Int_Tables_number   1
_chemical_formula_structural   Na6Hf3MgGe2(PO6)4
_chemical_formula_sum   'Na12 Hf6 Mg2 Ge4 P8 O48'
_cell_volume   1094.31143802
_cell_formula_units_Z   2
loop_
 _symmetry_equiv_pos_site_id
 _symmetry_equiv_pos_as_xyz
  1  'x, y, z'
loop_
 _atom_site_type_symbol
 _atom_site_label
 _atom_site_symmetry_multiplicity
 _atom_site_fract_x
 _atom_site_fract_y
 _atom_site_fract_z
 _atom_site_occupancy
  Na  Na0  1  0.25077427  0.74825653  0.99975440  1
  Na  Na1  1  0.74219068  0.74576630  0.48053980  1
  Na  Na2  1  0.75077427  0.24825653  0.99975440  1
  Na  Na3  1  0.24219068  0.24576630  0.48053980  1
  Na  Na4  1  0.51083811  0.09519730  0.77046213  1
  Na  Na5  1  0.49655767  0.88470048  0.23239838  1
  Na  Na6  1  0.01083811  0.59519730  0.77046213  1
  Na  Na7  1  0.99655767  0.38470048  0.23239838  1
  Na  Na8  1  0.79729314  0.92688152  0.21119474  1
  Na  Na9  1  0.18589154  0.07949797  0.80888398  1
  Na  Na10  1  0.29729314  0.42688152  0.21119474  1
  Na  Na11  1  0.68589154  0.57949797  0.80888398  1
  Hf  Hf0  1  0.10640248  0.75431941  0.55887710  1
  Hf  Hf1  1  0.89820836  0.75457812  0.93580320  1
  Hf  Hf2  1  0.89434751  0.24749947  0.44176464  1
  Hf  Hf3  1  0.60640248  0.25431941  0.55887710  1
  Hf  Hf4  1  0.39820836  0.25457812  0.93580320  1
  Hf  Hf5  1  0.39434751  0.74749947  0.44176464  1
  Mg  Mg0  1  0.09952828  0.24283036  0.05865601  1
  Mg  Mg1  1  0.59952828  0.74283036  0.05865601  1
  Ge  Ge0  1  0.65047945  0.89950923  0.75117695  1
  Ge  Ge1  1  0.34950962  0.09991177  0.25284851  1
  Ge  Ge2  1  0.15047945  0.39950923  0.75117695  1
  Ge  Ge3  1  0.84950962  0.59991177  0.25284851  1
  P  P0  1  0.99882376  0.95890991  0.74585819  1
  P  P1  1  0.00139559  0.04472527  0.25502833  1
  P  P2  1  0.49882376  0.45890991  0.74585819  1
  P  P3  1  0.50139559  0.54472527  0.25502833  1
  P  P4  1  0.35812158  0.89636490  0.76492856  1
  P  P5  1  0.64488772  0.10574174  0.24098806  1
  P  P6  1  0.85812158  0.39636490  0.76492856  1
  P  P7  1  0.14488772  0.60574174  0.24098806  1
  O  O0  1  0.15883154  0.59142461  0.74183961  1
  O  O1  1  0.85673984  0.56756984  0.75894326  1
  O  O2  1  0.84767789  0.40648827  0.25305216  1
  O  O3  1  0.14831346  0.43890272  0.24744608  1
  O  O4  1  0.65883154  0.09142461  0.74183961  1
  O  O5  1  0.35673984  0.06756984  0.75894326  1
  O  O6  1  0.34767789  0.90648827  0.25305216  1
  O  O7  1  0.64831346  0.93890272  0.24744608  1
  O  O8  1  0.43047846  0.54574853  0.57147868  1
  O  O9  1  0.56145165  0.56040238  0.90486490  1
  O  O10  1  0.56502158  0.45323993  0.42584982  1
  O  O11  1  0.44324682  0.43580295  0.09371193  1
  O  O12  1  0.93047846  0.04574853  0.57147868  1
  O  O13  1  0.06145165  0.06040238  0.90486490  1
  O  O14  1  0.06502158  0.95323993  0.42584982  1
  O  O15  1  0.94324682  0.93580295  0.09371193  1
  O  O16  1  0.25718944  0.84665553  0.74200499  1
  O  O17  1  0.74979210  0.80946812  0.75266216  1
  O  O18  1  0.74062115  0.16572418  0.25320523  1
  O  O19  1  0.25335262  0.19086627  0.24775082  1
  O  O20  1  0.75718944  0.34665553  0.74200499  1
  O  O21  1  0.24979210  0.30946812  0.75266216  1
  O  O22  1  0.24062115  0.66572418  0.25320523  1
  O  O23  1  0.75335262  0.69086627  0.24775082  1
  O  O24  1  0.35961833  0.84589585  0.60197790  1
  O  O25  1  0.64887750  0.86841512  0.93551571  1
  O  O26  1  0.64403755  0.16463973  0.40041211  1
  O  O27  1  0.35439078  0.13799947  0.06589113  1
  O  O28  1  0.85961833  0.34589585  0.60197790  1
  O  O29  1  0.14887750  0.36841512  0.93551571  1
  O  O30  1  0.14403755  0.66463973  0.40041211  1
  O  O31  1  0.85439078  0.63799947  0.06589113  1
  O  O32  1  0.45121249  0.84034666  0.93669103  1
  O  O33  1  0.53572136  0.82560985  0.56112124  1
  O  O34  1  0.54759580  0.16282664  0.06704402  1
  O  O35  1  0.46908528  0.16414700  0.43666201  1
  O  O36  1  0.95121249  0.34034666  0.93669103  1
  O  O37  1  0.03572136  0.32560985  0.56112124  1
  O  O38  1  0.04759580  0.66282664  0.06704402  1
  O  O39  1  0.96908528  0.66414700  0.43666201  1
  O  O40  1  0.07795813  0.86410372  0.73444637  1
  O  O41  1  0.92939238  0.84789863  0.75948209  1
  O  O42  1  0.91512708  0.12703105  0.25695740  1
  O  O43  1  0.06901500  0.15410366  0.24182640  1
  O  O44  1  0.57795813  0.36410372  0.73444637  1
  O  O45  1  0.42939238  0.34789863  0.75948209  1
  O  O46  1  0.41512708  0.62703105  0.25695740  1
  O  O47  1  0.56901500  0.65410366  0.24182640  1
loop_
_geom_bond_atom_site_label_1
_geom_bond_atom_site_label_2
_geom_bond_distance
_geom_bond_site_symmetry_2
Na0 O6 2.391451 1_556
Na0 O0 2.404023 1_555
Na0 O22 2.533205 1_556
Na0 O46 2.584402 1_556
Na0 O16 2.585239 1_555
Na0 O40 2.656267 1_555
Na1 O23 2.282234 1_555
Na1 O17 2.482648 1_555
Na1 O47 2.486387 1_555
Na1 O7 2.526357 1_555
Na1 O1 2.702305 1_555
Na1 O41 2.750560 1_555
Na2 O2 2.391451 1_556
Na2 O4 2.404023 1_555
Na2 O18 2.533205 1_556
Na2 O42 2.584402 1_556
Na2 O20 2.585239 1_555
Na2 O44 2.656267 1_555
Na3 O19 2.282234 1_555
Na3 O21 2.482648 1_555
Na3 O43 2.486387 1_555
Na3 O3 2.526357 1_555
Na3 O5 2.702305 1_555
Na3 O45 2.750560 1_555
Na4 O5 2.398070 1_555
Na4 O34 2.498036 1_556
Na4 O4 2.503554 1_555
Na4 O45 2.627484 1_555
Na4 O44 2.779025 1_555
Na4 O25 2.779264 1_545
Na4 O35 2.809567 1_555
Na5 O7 2.382440 1_555
Na5 O47 2.385108 1_555
Na5 O32 2.399426 1_554
Na5 O6 2.479846 1_555
Na5 O33 2.760765 1_555
Na5 O46 2.761742 1_555
Na5 O27 2.998100 1_565
Na6 O1 2.398070 1_455
Na6 O38 2.498036 1_556
Na6 O0 2.503554 1_555
Na6 O41 2.627484 1_455
Na6 O40 2.779025 1_555
Na6 O29 2.779264 1_555
Na6 O39 2.809567 1_455
Na7 O3 2.382440 1_655
Na7 O43 2.385108 1_655
Na7 O36 2.399426 1_554
Na7 O2 2.479846 1_555
Na7 O37 2.760765 1_655
Na7 O42 2.761742 1_555
Na7 O31 2.998100 1_555
Na8 O25 2.330361 1_554
Na8 O23 2.356153 1_555
Na8 O18 2.473949 1_565
Na8 O42 2.474541 1_565
Na8 O7 2.565953 1_555
Na8 O12 2.921223 1_565
Na9 O27 2.410548 1_556
Na9 O40 2.436404 1_545
Na9 O21 2.517988 1_555
Na9 O13 2.578824 1_555
Na9 O16 2.638335 1_545
Na10 O29 2.330361 1_554
Na10 O19 2.356153 1_555
Na10 O22 2.473949 1_555
Na10 O46 2.474541 1_555
Na10 O3 2.565953 1_555
Na10 O8 2.921223 1_555
Na11 O31 2.410548 1_556
Na11 O44 2.436404 1_555
Na11 O17 2.517988 1_555
Na11 O9 2.578824 1_555
Na11 O20 2.638335 1_555
Hf0 O39 1.973851 1_455
Hf0 O30 2.019547 1_555
Hf0 O0 2.048709 1_555
Hf0 O14 2.092458 1_555
Hf0 O40 2.138067 1_555
Hf0 O16 2.161285 1_555
Hf1 O31 1.999013 1_556
Hf1 O15 2.032196 1_556
Hf1 O17 2.038405 1_555
Hf1 O41 2.121252 1_555
Hf1 O38 2.136860 1_656
Hf1 O1 2.171643 1_555
Hf2 O37 1.985069 1_655
Hf2 O28 2.035093 1_555
Hf2 O2 2.062826 1_555
Hf2 O12 2.105229 1_555
Hf2 O18 2.165221 1_555
Hf2 O42 2.183194 1_555
Hf3 O35 1.973851 1_555
Hf3 O26 2.019547 1_555
Hf3 O4 2.048709 1_555
Hf3 O10 2.092458 1_555
Hf3 O44 2.138067 1_555
Hf3 O20 2.161285 1_555
Hf4 O27 1.999013 1_556
Hf4 O11 2.032196 1_556
Hf4 O21 2.038405 1_555
Hf4 O45 2.121252 1_555
Hf4 O34 2.136860 1_556
Hf4 O5 2.171643 1_555
Hf5 O33 1.985069 1_555
Hf5 O24 2.035093 1_555
Hf5 O6 2.062826 1_555
Hf5 O8 2.105229 1_555
Hf5 O22 2.165221 1_555
Hf5 O46 2.183194 1_555
Mg0 O13 2.030054 1_554
Mg0 O29 2.055226 1_554
Mg0 O19 2.100436 1_555
Mg0 O36 2.151735 1_454
Mg0 O43 2.153848 1_555
Mg0 O3 2.285325 1_555
Mg1 O9 2.030054 1_554
Mg1 O25 2.055226 1_554
Mg1 O23 2.100436 1_555
Mg1 O32 2.151735 1_554
Mg1 O47 2.153848 1_555
Mg1 O7 2.285325 1_555
Ge0 O25 1.725079 1_555
Ge0 O4 1.770260 1_565
Ge0 O17 1.771441 1_555
Ge0 O33 1.783829 1_555
Ge1 O19 1.715596 1_555
Ge1 O35 1.770720 1_555
Ge1 O6 1.772868 1_545
Ge1 O27 1.790700 1_555
Ge2 O29 1.725079 1_555
Ge2 O0 1.770260 1_555
Ge2 O21 1.771441 1_555
Ge2 O37 1.783829 1_555
Ge3 O23 1.715596 1_555
Ge3 O39 1.770720 1_555
Ge3 O2 1.772868 1_555
Ge3 O31 1.790700 1_555
O1 P6 1.570278 1_555
O3 P7 1.530583 1_555
O5 P4 1.570278 1_545
O7 P5 1.530583 1_565
O8 P2 1.555967 1_555
O9 P2 1.516051 1_555
O10 P3 1.550601 1_555
O11 P3 1.564467 1_555
O12 P0 1.555967 1_545
O13 P0 1.516051 1_445
O14 P1 1.550601 1_565
O15 P1 1.564467 1_665
O16 P4 1.558654 1_555
O18 P5 1.556822 1_555
O20 P6 1.558654 1_555
O22 P7 1.556822 1_555
O24 P4 1.566860 1_555
O26 P5 1.554786 1_555
O28 P6 1.566860 1_555
O30 P7 1.554786 1_555
O32 P4 1.517400 1_555
O34 P5 1.556995 1_555
O36 P6 1.517400 1_555
O38 P7 1.556995 1_555
O40 P0 1.577111 1_455
O41 P0 1.554977 1_555
O42 P1 1.571066 1_655
O43 P1 1.521711 1_555
O44 P2 1.577111 1_555
O45 P2 1.554977 1_555
O46 P3 1.571066 1_555
O47 P3 1.521711 1_555
