# generated using pymatgen
data_RbMgIn(MoO4)2
_symmetry_space_group_name_H-M   'P 1'
_cell_length_a   5.93287739
_cell_length_b   5.93287760
_cell_length_c   10.40745073
_cell_angle_alpha   90.00000000
_cell_angle_beta   90.00000000
_cell_angle_gamma   119.99999879
_symmetry_Int_Tables_number   1
_chemical_formula_structural   RbMgIn(MoO4)2
_chemical_formula_sum   'Rb1 Mg1 In1 Mo2 O8'
_cell_volume   317.25301801
_cell_formula_units_Z   1
loop_
 _symmetry_equiv_pos_site_id
 _symmetry_equiv_pos_as_xyz
  1  'x, y, z'
loop_
 _atom_site_type_symbol
 _atom_site_label
 _atom_site_symmetry_multiplicity
 _atom_site_fract_x
 _atom_site_fract_y
 _atom_site_fract_z
 _atom_site_occupancy
  Rb  Rb0  1  -0.00000000  -0.00000000  0.38767991  1
  Mg  Mg0  1  -0.00000000  -0.00000000  0.75364318  1
  In  In0  1  -0.00000000  -0.00000000  0.01617609  1
  Mo  Mo0  1  0.66666700  0.33333300  0.81392830  1
  Mo  Mo1  1  0.33333300  0.66666700  0.19927956  1
  O  O0  1  0.30727332  0.15363716  0.86926028  1
  O  O1  1  0.84636284  0.15363716  0.86926028  1
  O  O2  1  0.84636284  0.69272668  0.86926028  1
  O  O3  1  0.16494259  0.83505741  0.14854018  1
  O  O4  1  0.33333300  0.66666700  0.36828530  1
  O  O5  1  0.66666700  0.33333300  0.64093930  1
  O  O6  1  0.16494259  0.32988417  0.14854018  1
  O  O7  1  0.67011583  0.83505741  0.14854018  1
loop_
_geom_bond_atom_site_label_1
_geom_bond_atom_site_label_2
_geom_bond_distance
_geom_bond_site_symmetry_2
Mg0 O0 1.985049 1_555
Mg0 O2 1.985049 1_445
Mg0 O1 1.985053 1_455
Mg0 Rb0 3.808745 1_555
In0 O7 2.184163 1_445
In0 O6 2.184164 1_555
In0 O3 2.184167 1_545
In0 O0 2.197825 1_554
In0 O2 2.197826 1_444
In0 O1 2.197829 1_454
Mo0 O5 1.800374 1_555
Mo0 O1 1.934273 1_555
Mo0 O0 1.934283 1_555
Mo0 O2 1.934283 1_555
Mo1 O4 1.758919 1_555
Mo1 O3 1.809170 1_555
Mo1 O7 1.809180 1_555
Mo1 O6 1.809180 1_555
O3 Rb0 3.011176 1_565
O4 Rb0 3.431287 1_565
O4 Rb0 3.431292 1_665
O4 Rb0 3.431292 1_555
O6 Rb0 3.011173 1_555
O7 Rb0 3.011173 1_665
