# generated using pymatgen
data_K2HgS2
_symmetry_space_group_name_H-M   'P 1'
_cell_length_a   7.09201891
_cell_length_b   8.06295231
_cell_length_c   10.82740396
_cell_angle_alpha   90.00000000
_cell_angle_beta   90.00000000
_cell_angle_gamma   90.00000000
_symmetry_Int_Tables_number   1
_chemical_formula_structural   K2HgS2
_chemical_formula_sum   'K8 Hg4 S8'
_cell_volume   619.13922070
_cell_formula_units_Z   4
loop_
 _symmetry_equiv_pos_site_id
 _symmetry_equiv_pos_as_xyz
  1  'x, y, z'
loop_
 _atom_site_type_symbol
 _atom_site_label
 _atom_site_symmetry_multiplicity
 _atom_site_fract_x
 _atom_site_fract_y
 _atom_site_fract_z
 _atom_site_occupancy
  K  K0  1  0.75000000  0.95185878  0.11248916  1
  K  K1  1  0.25000000  0.54814122  0.11248916  1
  K  K2  1  0.50000000  0.25000000  0.60455882  1
  K  K3  1  -0.00000000  0.25000000  0.60455882  1
  K  K4  1  0.50000000  0.75000000  0.39544118  1
  K  K5  1  -0.00000000  0.75000000  0.39544118  1
  K  K6  1  0.25000000  0.04814122  0.88751084  1
  K  K7  1  0.75000000  0.45185878  0.88751084  1
  Hg  Hg0  1  0.75000000  0.83655107  0.71466503  1
  Hg  Hg1  1  0.75000000  0.33655107  0.28533497  1
  Hg  Hg2  1  0.25000000  0.66344893  0.71466503  1
  Hg  Hg3  1  0.25000000  0.16344893  0.28533497  1
  S  S0  1  0.75000000  0.07613021  0.83543342  1
  S  S1  1  0.25000000  0.41491862  0.39217864  1
  S  S2  1  0.75000000  0.58508138  0.60782136  1
  S  S3  1  0.25000000  0.42386979  0.83543342  1
  S  S4  1  0.25000000  0.91491862  0.60782136  1
  S  S5  1  0.75000000  0.57613021  0.16456658  1
  S  S6  1  0.25000000  0.92386979  0.16456658  1
  S  S7  1  0.75000000  0.08508138  0.39217864  1
loop_
_geom_bond_atom_site_label_1
_geom_bond_atom_site_label_2
_geom_bond_distance
_geom_bond_site_symmetry_2
K0 S5 3.081509 1_555
K0 S0 3.162714 1_564
K0 S7 3.213176 1_565
K0 S6 3.597646 1_555
K0 S6 3.597646 1_655
K1 S6 3.081509 1_555
K1 S3 3.162714 1_554
K1 S1 3.213176 1_555
K1 S5 3.597646 1_455
K1 S5 3.597646 1_555
K2 S7 3.193673 1_555
K2 S1 3.193673 1_555
K2 S4 3.231752 1_545
K2 S2 3.231752 1_555
K2 S0 3.370125 1_555
K2 S3 3.370125 1_555
K3 S7 3.193673 1_455
K3 S1 3.193673 1_555
K3 S4 3.231752 1_545
K3 S2 3.231752 1_455
K3 S0 3.370125 1_455
K3 S3 3.370125 1_555
K4 S2 3.193673 1_555
K4 S4 3.193673 1_555
K4 S1 3.231752 1_555
K4 S7 3.231752 1_565
K4 S6 3.370125 1_555
K4 S5 3.370125 1_555
K5 S4 3.193673 1_555
K5 S2 3.193673 1_455
K5 S1 3.231752 1_555
K5 S7 3.231752 1_465
K5 S6 3.370125 1_555
K5 S5 3.370125 1_455
K6 S3 3.081509 1_555
K6 S6 3.162714 1_546
K6 S4 3.213176 1_545
K6 S0 3.597646 1_555
K6 S0 3.597646 1_455
K7 S0 3.081509 1_555
K7 S5 3.162714 1_556
K7 S2 3.213176 1_555
K7 S3 3.597646 1_555
K7 S3 3.597646 1_655
Hg0 S0 2.332673 1_565
Hg0 S2 2.334393 1_555
Hg0 K7 3.622609 1_555
Hg1 S5 2.332673 1_555
Hg1 S7 2.334393 1_555
Hg1 K0 3.622609 1_545
Hg2 S3 2.332673 1_555
Hg2 S4 2.334393 1_555
Hg2 K6 3.622609 1_565
Hg3 S6 2.332673 1_545
Hg3 S1 2.334393 1_555
Hg3 K1 3.622609 1_555
