# generated using pymatgen
data_Yb4MgTi4Cd4(SbO7)4
_symmetry_space_group_name_H-M   'P 1'
_cell_length_a   7.36732467
_cell_length_b   14.71888301
_cell_length_c   12.77859197
_cell_angle_alpha   29.95834628
_cell_angle_beta   54.42648073
_cell_angle_gamma   59.51018122
_symmetry_Int_Tables_number   1
_chemical_formula_structural   Yb4MgTi4Cd4(SbO7)4
_chemical_formula_sum   'Yb4 Mg1 Ti4 Cd4 Sb4 O28'
_cell_volume   562.81211241
_cell_formula_units_Z   1
loop_
 _symmetry_equiv_pos_site_id
 _symmetry_equiv_pos_as_xyz
  1  'x, y, z'
loop_
 _atom_site_type_symbol
 _atom_site_label
 _atom_site_symmetry_multiplicity
 _atom_site_fract_x
 _atom_site_fract_y
 _atom_site_fract_z
 _atom_site_occupancy
  Yb  Yb0  1  0.00803900  0.98678200  0.00821500  1
  Yb  Yb1  1  0.96357000  0.22317000  0.51179800  1
  Yb  Yb2  1  0.51297500  0.50506100  0.97590500  1
  Yb  Yb3  1  0.03297100  0.25376100  0.98841100  1
  Mg  Mg0  1  0.18467200  0.49378600  0.27501700  1
  Ti  Ti0  1  0.51209000  0.24594700  0.00898300  1
  Ti  Ti1  1  0.48706600  0.01782700  0.49132600  1
  Ti  Ti2  1  0.99897600  0.48443800  0.54141500  1
  Ti  Ti3  1  0.49016400  0.23896600  0.51671200  1
  Cd  Cd0  1  0.02087900  0.49820400  0.99270600  1
  Cd  Cd1  1  0.50375700  0.99340800  0.01807600  1
  Cd  Cd2  1  0.98113900  0.78006800  0.95172400  1
  Cd  Cd3  1  0.99080000  0.75945600  0.49752300  1
  Sb  Sb0  1  0.49794700  0.75067700  0.99713000  1
  Sb  Sb1  1  0.99882900  0.00708500  0.48236600  1
  Sb  Sb2  1  0.52816100  0.49240700  0.49986300  1
  Sb  Sb3  1  0.51112500  0.75220700  0.49724200  1
  O  O0  1  0.13848900  0.99357800  0.12861900  1
  O  O1  1  0.18332100  0.20043300  0.16412700  1
  O  O2  1  0.16706700  0.00483400  0.56347100  1
  O  O3  1  0.12431400  0.50432000  0.13175200  1
  O  O4  1  0.59116200  0.00225900  0.17490300  1
  O  O5  1  0.54769100  0.20311300  0.18239800  1
  O  O6  1  0.18654200  0.30656700  0.57714000  1
  O  O7  1  0.40037800  0.19468100  0.44146500  1
  O  O8  1  0.17706800  0.69504000  0.18406800  1
  O  O9  1  0.19761200  0.49267000  0.57917400  1
  O  O10  1  0.81561100  0.01369000  0.40866400  1
  O  O11  1  0.42586900  0.99939600  0.82322100  1
  O  O12  1  0.52685100  0.49891800  0.17895800  1
  O  O13  1  0.59096700  0.30981700  0.54970500  1
  O  O14  1  0.81453700  0.19952600  0.42078300  1
  O  O15  1  0.59127900  0.69584100  0.17053300  1
  O  O16  1  0.17862900  0.80382600  0.56161200  1
  O  O17  1  0.44331900  0.29473800  0.82468000  1
  O  O18  1  0.45361500  0.70026800  0.41493200  1
  O  O19  1  0.43137700  0.50120600  0.81955500  1
  O  O20  1  0.84952800  0.47757000  0.44446800  1
  O  O21  1  0.82910400  0.30282000  0.83529500  1
  O  O22  1  0.56433500  0.79840500  0.58430100  1
  O  O23  1  0.83626100  0.69875000  0.42621200  1
  O  O24  1  0.42006100  0.81137600  0.81367000  1
  O  O25  1  0.89072400  0.50479000  0.86492900  1
  O  O26  1  0.82587600  0.79418800  0.81858400  1
  O  O27  1  0.86681900  0.99761100  0.87834000  1
loop_
_geom_bond_atom_site_label_1
_geom_bond_atom_site_label_2
_geom_bond_distance
_geom_bond_site_symmetry_2
Mg0 O3 1.989647 1_555
Mg0 O8 2.017569 1_555
Mg0 O6 2.021784 1_555
Mg0 O12 2.073598 1_555
Mg0 O20 2.079447 1_455
Cd0 O25 2.246781 1_455
Cd0 O3 2.380758 1_556
Cd0 O19 2.494888 1_555
Cd0 O1 2.555688 1_556
Cd0 O26 2.562340 1_455
Cd0 O16 2.617203 1_555
Cd0 O14 2.645210 1_456
Cd1 O27 2.183177 1_554
Cd1 O0 2.193993 1_555
Cd1 O18 2.448206 1_555
Cd1 O17 2.502099 1_564
Cd1 O4 2.546909 1_565
Cd1 O15 2.684148 1_555
Cd1 O11 2.787082 1_554
Cd1 O13 2.861298 1_564
Cd2 O27 2.195635 1_555
Cd2 O3 2.275500 1_656
Cd2 O26 2.378353 1_555
Cd2 O2 2.384623 1_665
Cd2 O15 2.422310 1_556
Cd2 O24 2.692097 1_655
Cd3 O25 2.217937 1_555
Cd3 O0 2.229324 1_655
Cd3 O16 2.484860 1_655
Cd3 O10 2.529712 1_565
Cd3 O23 2.564250 1_555
Cd3 O22 2.578749 1_555
Cd3 O9 2.740189 1_655
Cd3 O18 2.809061 1_655
O0 Yb3 2.278272 1_564
O0 Yb0 2.320693 1_555
O1 Sb1 1.981034 1_455
O1 Ti0 2.001047 1_555
O1 Yb3 2.417114 1_554
O2 Sb1 2.001237 1_455
O2 Ti1 2.016855 1_555
O2 Yb1 2.365793 1_455
O3 Yb2 2.350425 1_554
O3 Yb1 2.360131 1_455
O4 Ti0 1.959376 1_555
O4 Sb3 1.991858 1_545
O4 Yb0 2.557533 1_645
O5 Ti0 1.861313 1_555
O5 Ti1 1.936638 1_555
O5 Yb2 2.468054 1_554
O5 Yb3 2.945127 1_654
O6 Ti3 1.911288 1_555
O6 Ti2 1.990967 1_455
O6 Yb0 2.674593 1_546
O7 Ti1 1.871476 1_555
O7 Ti3 2.012619 1_555
O7 Yb1 2.694124 1_455
O7 Yb2 2.821539 1_554
O8 Sb0 1.992474 1_554
O8 Ti2 2.193434 1_455
O8 Yb0 2.479687 1_555
O9 Ti2 1.868655 1_455
O9 Sb2 2.020712 1_555
O9 Yb3 2.503560 1_555
O10 Sb1 1.976307 1_555
O10 Ti1 1.991327 1_555
O10 Yb3 2.597108 1_654
O11 Ti3 1.898403 1_565
O11 Sb0 1.981352 1_555
O11 Yb0 2.539961 1_556
O12 Sb0 2.007804 1_554
O12 Ti3 2.101914 1_555
O12 Yb2 2.577591 1_554
O13 Ti3 1.931025 1_555
O13 Sb2 1.989343 1_555
O13 Yb1 2.316756 1_555
O14 Sb1 1.990980 1_555
O14 Ti3 1.991862 1_555
O14 Yb1 2.292206 1_555
O15 Sb0 2.035871 1_554
O15 Sb2 2.047819 1_555
O16 Sb1 2.005057 1_465
O16 Sb3 2.025914 1_555
O17 Sb2 1.996316 1_555
O17 Ti0 2.099402 1_556
O17 Yb3 2.486999 1_555
O18 Sb2 2.018595 1_555
O18 Sb3 2.027499 1_555
O19 Ti0 1.994421 1_556
O19 Sb3 1.994620 1_555
O19 Yb2 2.446394 1_555
O20 Sb2 1.986851 1_555
O20 Ti2 2.161989 1_555
O20 Yb1 2.744704 1_555
O21 Ti2 1.829383 1_555
O21 Ti0 1.953200 1_556
O21 Yb3 2.544811 1_655
O21 Yb0 2.759452 1_646
O22 Sb3 1.985550 1_555
O22 Ti1 2.106802 1_565
O22 Yb2 2.417213 1_555
O23 Ti2 1.929789 1_555
O23 Sb3 1.994004 1_555
O23 Yb0 2.539015 1_655
O24 Ti1 1.977894 1_565
O24 Sb0 2.009754 1_555
O24 Yb2 2.723443 1_555
O25 Yb3 2.265463 1_655
O25 Yb2 2.272185 1_555
O26 Sb0 2.019251 1_555
O26 Sb1 2.062921 1_565
O27 Yb1 2.245144 1_565
O27 Yb0 2.290098 1_656
