# generated using pymatgen
data_La2SiSn2S5O24
_symmetry_space_group_name_H-M   'P 1'
_cell_length_a   9.19104221
_cell_length_b   9.24782563
_cell_length_c   23.84748304
_cell_angle_alpha   89.73682570
_cell_angle_beta   90.10182650
_cell_angle_gamma   120.02154894
_symmetry_Int_Tables_number   1
_chemical_formula_structural   La2SiSn2S5O24
_chemical_formula_sum   'La6 Si3 Sn6 S15 O72'
_cell_volume   1755.00585295
_cell_formula_units_Z   3
loop_
 _symmetry_equiv_pos_site_id
 _symmetry_equiv_pos_as_xyz
  1  'x, y, z'
loop_
 _atom_site_type_symbol
 _atom_site_label
 _atom_site_symmetry_multiplicity
 _atom_site_fract_x
 _atom_site_fract_y
 _atom_site_fract_z
 _atom_site_occupancy
  La  La0  1  0.98782435  0.00164505  0.36677799  1
  La  La1  1  0.00505535  0.00374951  0.86232666  1
  La  La2  1  0.68182645  0.33623849  0.68020465  1
  La  La3  1  0.65414823  0.33325883  0.18354787  1
  La  La4  1  0.65199096  0.33046675  0.98862148  1
  La  La5  1  0.32833209  0.66274082  0.80411036  1
  Si  Si0  1  0.97441513  0.33683664  0.57974147  1
  Si  Si1  1  0.34921785  0.33193184  0.08449817  1
  Si  Si2  1  0.59505027  0.95114036  0.42030390  1
  Sn  Sn0  1  0.99885190  0.00684076  0.64027539  1
  Sn  Sn1  1  0.00585391  0.00498243  0.15037170  1
  Sn  Sn2  1  0.67357165  0.31682424  0.48094056  1
  Sn  Sn3  1  0.33236555  0.66047559  0.02269505  1
  Sn  Sn4  1  0.33394425  0.66490217  0.52031249  1
  Sn  Sn5  1  0.33692663  0.67242981  0.31654373  1
  S  S0  1  0.27798390  0.97560245  0.25178290  1
  S  S1  1  0.70185414  0.72139417  0.24976745  1
  S  S2  1  0.02222127  0.30863524  0.25164502  1
  S  S3  1  0.28129435  0.27869429  0.74440060  1
  S  S4  1  0.00051823  0.72880816  0.74374277  1
  S  S5  1  0.72115014  0.99712986  0.74560393  1
  S  S6  1  0.36025968  0.02982313  0.58015909  1
  S  S7  1  0.67010726  0.63589532  0.57913108  1
  S  S8  1  0.98240659  0.65170818  0.08414494  1
  S  S9  1  0.66789072  0.01656698  0.08426424  1
  S  S10  1  0.61343674  0.66775397  0.92021580  1
  S  S11  1  0.04844343  0.38629863  0.92115674  1
  S  S12  1  0.33494120  0.94171928  0.92181925  1
  S  S13  1  0.35852320  0.39691914  0.42021119  1
  S  S14  1  0.04128164  0.64490749  0.41883750  1
  O  O0  1  0.20027812  0.00244510  0.30078288  1
  O  O1  1  0.80660434  0.80124996  0.29872187  1
  O  O2  1  0.99438234  0.20402112  0.30120931  1
  O  O3  1  0.20315142  0.18564357  0.79653616  1
  O  O4  1  0.98850939  0.80873285  0.79528424  1
  O  O5  1  0.81595911  0.01288398  0.79705173  1
  O  O6  1  0.80668098  0.97964247  0.69448644  1
  O  O7  1  0.17555566  0.19100377  0.69404357  1
  O  O8  1  0.01708253  0.83089907  0.69189745  1
  O  O9  1  0.78129539  0.82760460  0.19721608  1
  O  O10  1  0.05224271  0.23097689  0.20055723  1
  O  O11  1  0.17339897  0.95122673  0.19937711  1
  O  O12  1  0.90122690  0.37699343  0.63509598  1
  O  O13  1  0.46283712  0.09828656  0.63077460  1
  O  O14  1  0.63456704  0.53401367  0.63018960  1
  O  O15  1  0.91092818  0.53936296  0.13277442  1
  O  O16  1  0.63380768  0.09089126  0.13329483  1
  O  O17  1  0.47512719  0.36975218  0.13739827  1
  O  O18  1  0.42704068  0.29163467  0.02953121  1
  O  O19  1  0.87801774  0.58079577  0.03385721  1
  O  O20  1  0.70788226  0.12425850  0.03442636  1
  O  O21  1  0.43829355  0.14585212  0.53116813  1
  O  O22  1  0.70053995  0.55519333  0.52985676  1
  O  O23  1  0.84266590  0.29786958  0.52638763  1
  O  O24  1  0.52723011  0.68607288  0.97082811  1
  O  O25  1  0.15440059  0.47454679  0.97129409  1
  O  O26  1  0.31857782  0.83924656  0.97332440  1
  O  O27  1  0.50914545  0.83366723  0.47493633  1
  O  O28  1  0.32340002  0.47236565  0.46901485  1
  O  O29  1  0.14713266  0.66922149  0.46819732  1
  O  O30  1  0.11242503  0.61223624  0.36651920  1
  O  O31  1  0.48472072  0.86845130  0.36153177  1
  O  O32  1  0.38306575  0.49704500  0.36726007  1
  O  O33  1  0.12760288  0.47997888  0.86909210  1
  O  O34  1  0.34670151  0.86103451  0.87031991  1
  O  O35  1  0.51840386  0.65190446  0.86862974  1
  O  O36  1  0.02855352  0.79547518  0.41221700  1
  O  O37  1  0.77859854  0.97108282  0.41392116  1
  O  O38  1  0.21289936  0.22936568  0.41350334  1
  O  O39  1  0.03972089  0.22262238  0.91939605  1
  O  O40  1  0.18206872  0.95528550  0.92061735  1
  O  O41  1  0.77933723  0.82073303  0.91832530  1
  O  O42  1  0.99101817  0.16776534  0.58905068  1
  O  O43  1  0.18900725  0.01027111  0.58831800  1
  O  O44  1  0.82450812  0.80467966  0.58756319  1
  O  O45  1  0.99574733  0.81730729  0.09563753  1
  O  O46  1  0.81321182  0.98929406  0.09546171  1
  O  O47  1  0.16418090  0.16294144  0.09644762  1
  O  O48  1  0.70150157  0.14440468  0.74114944  1
  O  O49  1  0.44828384  0.29820368  0.73915301  1
  O  O50  1  0.84900256  0.56376542  0.74033987  1
  O  O51  1  0.68298920  0.55601809  0.24206678  1
  O  O52  1  0.88051763  0.33511605  0.24179577  1
  O  O53  1  0.44838316  0.11656296  0.24300533  1
  O  O54  1  0.63308588  0.52066361  0.92533075  1
  O  O55  1  0.88174820  0.36673946  0.92673463  1
  O  O56  1  0.48605406  0.10647267  0.92580077  1
  O  O57  1  0.61015114  0.13610724  0.42660581  1
  O  O58  1  0.51488389  0.38807116  0.42907413  1
  O  O59  1  0.86975406  0.49657009  0.42603522  1
  O  O60  1  0.32989160  0.49773190  0.07418950  1
  O  O61  1  0.15641552  0.68171586  0.07380578  1
  O  O62  1  0.51567113  0.84978875  0.07354234  1
  O  O63  1  0.33720271  0.86198481  0.56989369  1
  O  O64  1  0.52416023  0.66090088  0.57033723  1
  O  O65  1  0.16123289  0.49804105  0.56753042  1
  O  O66  1  0.28527798  0.81600590  0.25713531  1
  O  O67  1  0.53101108  0.70527323  0.25594424  1
  O  O68  1  0.18230439  0.47812044  0.25981913  1
  O  O69  1  0.29120501  0.44304661  0.74646848  1
  O  O70  1  0.15290706  0.71419138  0.74521151  1
  O  O71  1  0.55494475  0.84435591  0.74755096  1
loop_
_geom_bond_atom_site_label_1
_geom_bond_atom_site_label_2
_geom_bond_distance
_geom_bond_site_symmetry_2
La0 O37 2.121947 1_545
La0 O38 2.368544 1_655
La0 O36 2.375568 1_645
La0 O1 2.402490 1_545
La0 O2 2.410779 1_555
La0 O0 2.507238 1_655
La1 O41 2.329676 1_445
La1 O39 2.330053 1_555
La1 O40 2.344359 1_545
La1 O3 2.351031 1_555
La1 O4 2.362835 1_445
La1 O5 2.363678 1_455
La2 O12 2.146873 1_555
La2 O48 2.364033 1_555
La2 O50 2.372671 1_555
La2 O14 2.393652 1_555
La2 O13 2.422069 1_555
La2 O49 2.440913 1_555
La3 O17 2.139678 1_555
La3 O51 2.395870 1_555
La3 O53 2.407081 1_555
La3 O16 2.469710 1_555
La3 O15 2.481253 1_555
La3 O52 2.492541 1_555
La4 O18 2.148583 1_556
La4 O54 2.383802 1_555
La4 O56 2.391736 1_555
La4 O19 2.457892 1_556
La4 O55 2.459200 1_555
La4 O20 2.460236 1_556
La5 O69 2.337527 1_555
La5 O71 2.338149 1_555
La5 O33 2.351088 1_555
La5 O70 2.356347 1_555
La5 O35 2.365054 1_555
La5 O34 2.366462 1_555
O0 S0 1.456087 1_545
O1 S1 1.458653 1_555
O2 S2 1.463348 1_655
O3 S3 1.475476 1_555
O4 S4 1.469601 1_655
O5 S5 1.468551 1_545
O6 S5 1.504189 1_555
O6 Sn0 2.101146 1_565
O7 S3 1.503471 1_555
O7 Sn0 2.104099 1_455
O8 S4 1.513040 1_555
O8 Sn0 2.108230 1_465
O9 S1 1.530599 1_555
O9 Sn1 2.191371 1_665
O10 S2 1.511199 1_555
O10 Sn1 2.260871 1_555
O11 S0 1.522551 1_555
O11 Sn1 2.176813 1_565
O12 Si0 1.609536 1_555
O13 S6 1.467095 1_555
O14 S7 1.469664 1_555
O15 S8 1.471238 1_555
O16 S9 1.470328 1_555
O17 Si1 1.626914 1_555
O18 Si1 1.625822 1_555
O19 S8 1.470472 1_555
O20 S9 1.471012 1_555
O21 S6 1.500696 1_555
O21 Sn2 2.276258 1_555
O22 S7 1.494699 1_555
O22 Sn2 2.399464 1_555
O23 Si0 1.666476 1_555
O23 Sn2 1.971194 1_555
O24 S10 1.500956 1_555
O24 Sn3 2.091555 1_556
O25 S11 1.501179 1_555
O25 Sn3 2.081446 1_556
O26 S12 1.508857 1_555
O26 Sn3 2.080070 1_556
O27 Si2 1.622761 1_555
O27 Sn4 1.917195 1_555
O28 S13 1.476391 1_555
O28 Sn4 2.126772 1_555
O29 S14 1.470409 1_555
O29 Sn4 2.134207 1_555
O30 S14 1.509820 1_555
O30 Sn5 2.200262 1_555
O31 Si2 1.675198 1_555
O31 Sn5 1.957294 1_555
O32 S13 1.511313 1_555
O32 Sn5 2.222989 1_555
O33 S11 1.477866 1_555
O34 S12 1.471847 1_555
O35 S10 1.472249 1_555
O36 S14 1.462316 1_555
O37 Si2 1.610117 1_555
O38 S13 1.464314 1_555
O39 S11 1.475964 1_555
O40 S12 1.472060 1_555
O41 S10 1.472946 1_555
O42 Si0 1.659119 1_555
O42 Sn0 1.949973 1_555
O43 S6 1.504650 1_555
O43 Sn0 2.131352 1_455
O44 S7 1.508651 1_555
O44 Sn0 2.158657 1_565
O45 S8 1.500423 1_555
O45 Sn1 2.140954 1_665
O46 S9 1.501363 1_565
O46 Sn1 2.146430 1_665
O47 Si1 1.659498 1_555
O47 Sn1 1.940986 1_555
O48 S5 1.464100 1_545
O49 S3 1.458503 1_555
O50 S4 1.466049 1_655
O51 S1 1.462832 1_555
O52 S2 1.459087 1_655
O53 S0 1.466861 1_545
O54 S10 1.463569 1_555
O55 S11 1.456347 1_655
O56 S12 1.463820 1_545
O57 Si2 1.653034 1_545
O57 Sn2 1.963207 1_555
O58 S13 1.494358 1_555
O58 Sn2 2.244760 1_555
O59 S14 1.493796 1_655
O59 Sn2 2.172084 1_555
O60 Si1 1.646779 1_555
O60 Sn3 1.929381 1_555
O61 S8 1.500767 1_455
O61 Sn3 2.113408 1_555
O62 S9 1.498222 1_565
O62 Sn3 2.105850 1_555
O63 S6 1.479237 1_565
O63 Sn4 2.164672 1_555
O64 S7 1.485185 1_555
O64 Sn4 2.130245 1_555
O65 Si0 1.640694 1_455
O65 Sn4 1.925673 1_555
O66 S0 1.515381 1_555
O66 Sn5 2.146276 1_555
O67 S1 1.508610 1_555
O67 Sn5 2.196759 1_555
O68 S2 1.534153 1_555
O68 Sn5 2.130414 1_555
O69 S3 1.477486 1_555
O70 S4 1.473243 1_555
O71 S5 1.473706 1_555
