# generated using pymatgen
data_Na3InGa(PO4)3
_symmetry_space_group_name_H-M   'P 1'
_cell_length_a   15.48733754
_cell_length_b   8.93595017
_cell_length_c   8.94786280
_cell_angle_alpha   90.02801947
_cell_angle_beta   124.97055605
_cell_angle_gamma   89.95319037
_symmetry_Int_Tables_number   1
_chemical_formula_structural   Na3InGa(PO4)3
_chemical_formula_sum   'Na12 In4 Ga4 P12 O48'
_cell_volume   1014.74607523
_cell_formula_units_Z   4
loop_
 _symmetry_equiv_pos_site_id
 _symmetry_equiv_pos_as_xyz
  1  'x, y, z'
loop_
 _atom_site_type_symbol
 _atom_site_label
 _atom_site_symmetry_multiplicity
 _atom_site_fract_x
 _atom_site_fract_y
 _atom_site_fract_z
 _atom_site_occupancy
  Na  Na0  1  0.24219706  0.77515504  0.99391739  1
  Na  Na1  1  0.74727531  0.72032707  0.50125812  1
  Na  Na2  1  0.74795808  0.27661007  0.00172564  1
  Na  Na3  1  0.24120403  0.21899503  0.49336769  1
  Na  Na4  1  0.50085290  0.10386201  0.75263929  1
  Na  Na5  1  0.50234088  0.89367404  0.24642225  1
  Na  Na6  1  0.00341726  0.61775920  0.75227244  1
  Na  Na7  1  0.99987429  0.38349211  0.24357243  1
  Na  Na8  1  0.81464825  0.93819879  0.22712652  1
  Na  Na9  1  0.81403978  0.06685596  0.72467594  1
  Na  Na10  1  0.30345070  0.43446111  0.20692177  1
  Na  Na11  1  0.30903293  0.55731796  0.72790689  1
  In  In0  1  0.10281035  0.75987541  0.55044159  1
  In  In1  1  0.60179912  0.25810797  0.55203955  1
  In  In2  1  0.39755855  0.74867328  0.44146995  1
  In  In3  1  0.60406849  0.74089595  0.05233001  1
  Ga  Ga0  1  0.89926497  0.74983720  0.94513885  1
  Ga  Ga1  1  0.90017271  0.25081810  0.44510812  1
  Ga  Ga2  1  0.10058833  0.24312547  0.04848559  1
  Ga  Ga3  1  0.39827993  0.25020954  0.94330040  1
  P  P0  1  0.99792217  0.95943818  0.74799143  1
  P  P1  1  0.99890929  0.04999427  0.24098458  1
  P  P2  1  0.49466857  0.44183731  0.74645619  1
  P  P3  1  0.49582569  0.54841184  0.23889265  1
  P  P4  1  0.35565010  0.90290372  0.76412352  1
  P  P5  1  0.65590393  0.89271702  0.74557932  1
  P  P6  1  0.65264428  0.10948516  0.24454543  1
  P  P7  1  0.35132489  0.10737403  0.24993630  1
  P  P8  1  0.86080386  0.39998949  0.75594620  1
  P  P9  1  0.14696752  0.38822567  0.74497001  1
  P  P10  1  0.14547541  0.60051694  0.23777367  1
  P  P11  1  0.85842684  0.59942322  0.25802905  1
  O  O0  1  0.15629182  0.56314319  0.74519145  1
  O  O1  1  0.85528935  0.57346498  0.76091898  1
  O  O2  1  0.85367015  0.42583925  0.25971790  1
  O  O3  1  0.15265855  0.42606786  0.22999467  1
  O  O4  1  0.66672375  0.06644810  0.74480459  1
  O  O5  1  0.34698046  0.07569463  0.76739498  1
  O  O6  1  0.34522847  0.93416797  0.24212800  1
  O  O7  1  0.66388603  0.93563908  0.24253192  1
  O  O8  1  0.42596612  0.53337784  0.56798448  1
  O  O9  1  0.55643811  0.54026369  0.91456154  1
  O  O10  1  0.55528913  0.45965295  0.41680035  1
  O  O11  1  0.43517339  0.44841124  0.06646827  1
  O  O12  1  0.92844019  0.05127355  0.56827832  1
  O  O13  1  0.05888932  0.06158632  0.91541589  1
  O  O14  1  0.07082913  0.96283340  0.41824865  1
  O  O15  1  0.92866802  0.94680467  0.07347733  1
  O  O16  1  0.26440400  0.81962441  0.75243097  1
  O  O17  1  0.75069194  0.81844452  0.75874830  1
  O  O18  1  0.74797344  0.18079842  0.25583552  1
  O  O19  1  0.25409017  0.18021672  0.23068505  1
  O  O20  1  0.76743271  0.32570275  0.74687339  1
  O  O21  1  0.24428336  0.32280979  0.75913856  1
  O  O22  1  0.23786705  0.66944620  0.23973527  1
  O  O23  1  0.76467331  0.67439357  0.24572452  1
  O  O24  1  0.35989830  0.86886391  0.59932322  1
  O  O25  1  0.65664175  0.86262175  0.91574600  1
  O  O26  1  0.65736033  0.13769213  0.41961523  1
  O  O27  1  0.36389021  0.15875534  0.09840789  1
  O  O28  1  0.86329593  0.36033323  0.58971228  1
  O  O29  1  0.14659899  0.35442988  0.91478636  1
  O  O30  1  0.15650010  0.62863744  0.41878162  1
  O  O31  1  0.86607274  0.64267647  0.09834582  1
  O  O32  1  0.45662319  0.84911726  0.94320690  1
  O  O33  1  0.55345663  0.83966932  0.56686737  1
  O  O34  1  0.54767936  0.16508158  0.07107897  1
  O  O35  1  0.44885378  0.15682702  0.43889657  1
  O  O36  1  0.96198044  0.34162742  0.93458077  1
  O  O37  1  0.04568189  0.33083011  0.56618757  1
  O  O38  1  0.04192012  0.66382843  0.07014850  1
  O  O39  1  0.95593132  0.65607005  0.44195007  1
  O  O40  1  0.07619998  0.85312750  0.74659265  1
  O  O41  1  0.91878521  0.85784271  0.75832916  1
  O  O42  1  0.91926054  0.14889299  0.25367306  1
  O  O43  1  0.07207389  0.15688026  0.22431790  1
  O  O44  1  0.57518319  0.33590626  0.75035848  1
  O  O45  1  0.41300812  0.34296467  0.75271237  1
  O  O46  1  0.40904621  0.64648944  0.23010230  1
  O  O47  1  0.57686335  0.65616155  0.24784126  1
loop_
_geom_bond_atom_site_label_1
_geom_bond_atom_site_label_2
_geom_bond_distance
_geom_bond_site_symmetry_2
Na0 O6 2.331534 1_556
Na0 O40 2.338599 1_555
Na0 O16 2.407933 1_555
Na0 O22 2.430226 1_556
Na0 O46 2.490582 1_556
Na0 O0 2.630254 1_555
Na1 O1 2.337293 1_555
Na1 O47 2.361581 1_555
Na1 O17 2.436849 1_555
Na1 O23 2.484794 1_555
Na1 O41 2.618270 1_555
Na1 O7 2.702262 1_555
Na2 O2 2.335781 1_555
Na2 O44 2.366328 1_554
Na2 O18 2.429857 1_555
Na2 O20 2.504631 1_554
Na2 O42 2.562195 1_555
Na2 O4 2.660608 1_554
Na3 O5 2.393885 1_555
Na3 O43 2.395285 1_555
Na3 O19 2.494257 1_555
Na3 O21 2.527064 1_555
Na3 O45 2.572236 1_555
Na3 O3 2.674651 1_555
Na4 O44 2.378245 1_555
Na4 O5 2.474171 1_555
Na4 O35 2.482482 1_555
Na4 O45 2.532248 1_555
Na4 O34 2.564063 1_556
Na4 O4 2.630768 1_555
Na4 O24 2.762058 1_545
Na4 O25 2.925158 1_545
Na5 O47 2.411647 1_555
Na5 O32 2.412104 1_554
Na5 O6 2.438141 1_555
Na5 O33 2.545531 1_555
Na5 O7 2.550047 1_555
Na5 O46 2.598265 1_555
Na5 O26 2.942895 1_565
Na5 O27 2.949951 1_565
Na6 O1 2.372878 1_455
Na6 O40 2.401343 1_555
Na6 O0 2.453135 1_555
Na6 O39 2.455177 1_455
Na6 O41 2.529879 1_455
Na6 O38 2.582669 1_556
Na7 O43 2.365881 1_655
Na7 O2 2.380064 1_555
Na7 O3 2.467704 1_655
Na7 O42 2.468899 1_555
Na7 O36 2.503581 1_554
Na7 O37 2.590576 1_655
Na7 O31 2.873186 1_555
Na7 O30 2.964236 1_655
Na8 O42 2.406141 1_565
Na8 O7 2.416681 1_555
Na8 O18 2.476240 1_565
Na8 O23 2.516912 1_555
Na8 O25 2.528333 1_554
Na8 O12 2.697806 1_565
Na8 O15 2.792426 1_555
Na9 O41 2.376206 1_545
Na9 O4 2.389332 1_555
Na9 O20 2.464103 1_555
Na9 O26 2.479157 1_555
Na9 O17 2.515960 1_545
Na9 O15 2.773458 1_546
Na9 O12 2.821085 1_555
Na10 O22 2.421752 1_555
Na10 O46 2.433756 1_555
Na10 O29 2.442841 1_554
Na10 O19 2.445579 1_555
Na10 O3 2.460728 1_555
Na10 O8 2.791446 1_555
Na11 O21 2.408379 1_555
Na11 O45 2.428362 1_555
Na11 O0 2.457976 1_555
Na11 O30 2.479230 1_555
Na11 O16 2.488119 1_555
Na11 O11 2.675171 1_556
Na11 O8 2.888384 1_555
In0 O14 2.064635 1_555
In0 O39 2.109169 1_455
In0 O30 2.138818 1_555
In0 O16 2.152012 1_555
In0 O40 2.184466 1_555
In0 O0 2.271407 1_555
In1 O10 2.056116 1_555
In1 O26 2.113847 1_555
In1 O44 2.153836 1_555
In1 O35 2.169915 1_555
In1 O20 2.204447 1_555
In1 O4 2.220654 1_555
In2 O24 2.104890 1_555
In2 O8 2.146199 1_555
In2 O33 2.155587 1_555
In2 O22 2.181825 1_555
In2 O46 2.196852 1_555
In2 O6 2.220249 1_555
In3 O9 2.058073 1_554
In3 O25 2.117348 1_554
In3 O32 2.131791 1_554
In3 O23 2.144551 1_555
In3 O47 2.158246 1_555
In3 O7 2.230571 1_555
Ga0 O31 1.967340 1_556
Ga0 O38 1.971876 1_656
Ga0 O15 2.005966 1_556
Ga0 O17 2.012863 1_555
Ga0 O1 2.092185 1_555
Ga0 O41 2.097206 1_555
Ga1 O28 1.950128 1_555
Ga1 O37 1.991634 1_655
Ga1 O12 2.008329 1_555
Ga1 O18 2.059410 1_555
Ga1 O2 2.085112 1_555
Ga1 O42 2.104659 1_555
Ga2 O13 1.893352 1_554
Ga2 O29 1.976800 1_554
Ga2 O36 1.977754 1_454
Ga2 O43 2.015569 1_555
Ga2 O19 2.044868 1_555
Ga2 O3 2.111572 1_555
Ga3 O27 1.930521 1_556
Ga3 O11 1.988930 1_556
Ga3 O45 2.023577 1_555
Ga3 O5 2.026493 1_555
Ga3 O34 2.050612 1_556
Ga3 O21 2.077952 1_555
O0 P9 1.569724 1_555
O1 P8 1.554467 1_555
O2 P11 1.553438 1_555
O3 P10 1.567092 1_555
O4 P5 1.562051 1_545
O5 P4 1.551484 1_545
O6 P7 1.549816 1_565
O7 P6 1.564309 1_565
O8 P2 1.550340 1_555
O9 P2 1.517198 1_555
O10 P3 1.526709 1_555
O11 P3 1.549176 1_555
O12 P0 1.559968 1_545
O13 P0 1.532187 1_445
O14 P1 1.528954 1_465
O15 P1 1.552868 1_565
O16 P4 1.547233 1_555
O17 P5 1.552300 1_555
O18 P6 1.557736 1_555
O19 P7 1.556366 1_555
O20 P8 1.550908 1_555
O21 P9 1.552069 1_555
O22 P10 1.549134 1_555
O23 P11 1.544164 1_555
O24 P4 1.543396 1_555
O25 P5 1.539903 1_555
O26 P6 1.546376 1_555
O27 P7 1.546040 1_555
O28 P8 1.550744 1_555
O29 P9 1.552575 1_555
O30 P10 1.548606 1_555
O31 P11 1.549036 1_555
O32 P4 1.539887 1_555
O33 P5 1.546385 1_555
O34 P6 1.551032 1_555
O35 P7 1.551895 1_555
O36 P8 1.552617 1_555
O37 P9 1.551377 1_555
O38 P10 1.543948 1_555
O39 P11 1.548096 1_555
O40 P0 1.545263 1_455
O41 P0 1.570591 1_555
O42 P1 1.572963 1_555
O43 P1 1.553737 1_455
O44 P2 1.549308 1_555
O45 P2 1.570429 1_555
O46 P3 1.567657 1_555
O47 P3 1.547694 1_555
