# generated using pymatgen
data_Pr2MgV2O8
_symmetry_space_group_name_H-M   'P 1'
_cell_length_a   6.30529792
_cell_length_b   6.30529767
_cell_length_c   6.42789569
_cell_angle_alpha   106.02512018
_cell_angle_beta   106.02510596
_cell_angle_gamma   116.44634470
_symmetry_Int_Tables_number   1
_chemical_formula_structural   Pr2MgV2O8
_chemical_formula_sum   'Pr2 Mg1 V2 O8'
_cell_volume   194.85062222
_cell_formula_units_Z   1
loop_
 _symmetry_equiv_pos_site_id
 _symmetry_equiv_pos_as_xyz
  1  'x, y, z'
loop_
 _atom_site_type_symbol
 _atom_site_label
 _atom_site_symmetry_multiplicity
 _atom_site_fract_x
 _atom_site_fract_y
 _atom_site_fract_z
 _atom_site_occupancy
  Pr  Pr0  1  0.87618500  0.12381500  0.75000000  1
  Pr  Pr1  1  0.15081400  0.84918600  0.25000000  1
  Mg  Mg0  1  0.85608200  0.14391800  0.25000000  1
  V  V0  1  0.60106700  0.39893300  0.25000000  1
  V  V1  1  0.37542200  0.62457800  0.75000000  1
  O  O0  1  0.80977900  0.36267800  0.09452900  1
  O  O1  1  0.80797300  0.75187800  0.42424700  1
  O  O2  1  0.63732200  0.19022100  0.40547100  1
  O  O3  1  0.17632300  0.26333400  0.53721700  1
  O  O4  1  0.19742400  0.60859600  0.92805700  1
  O  O5  1  0.24812200  0.19202700  0.07575300  1
  O  O6  1  0.73666600  0.82367700  0.96278300  1
  O  O7  1  0.39140400  0.80257600  0.57194300  1
loop_
_geom_bond_atom_site_label_1
_geom_bond_atom_site_label_2
_geom_bond_distance
_geom_bond_site_symmetry_2
Mg0 O6 1.967911 1_544
Mg0 O3 1.967911 1_655
Mg0 O2 1.986257 1_555
Mg0 O0 1.986257 1_555
O0 V0 1.910689 1_555
O0 Pr1 2.505628 1_655
O0 Pr0 2.565196 1_554
O1 V0 1.772011 1_555
O1 Pr0 2.441802 1_565
O1 Pr1 2.615105 1_655
O2 V0 1.910689 1_555
O2 Pr1 2.505628 1_545
O2 Pr0 2.565196 1_555
O3 V1 1.849279 1_555
O3 Pr0 2.614682 1_455
O3 Pr1 2.655846 1_545
O4 V1 1.803300 1_555
O4 Pr1 2.381125 1_556
O4 Pr0 2.455546 1_455
O5 V0 1.772011 1_555
O5 Pr0 2.441803 1_454
O5 Pr1 2.615105 1_545
O6 V1 1.849279 1_555
O6 Pr0 2.614682 1_565
O6 Pr1 2.655846 1_656
O7 V1 1.803300 1_555
O7 Pr1 2.381126 1_555
O7 Pr0 2.455547 1_565
