# generated using pymatgen
data_Li3Cr2(PO4)3
_symmetry_space_group_name_H-M   'P 1'
_cell_length_a   8.70288200
_cell_length_b   8.42861600
_cell_length_c   12.21249113
_cell_angle_alpha   87.78714390
_cell_angle_beta   90.00000000
_cell_angle_gamma   90.00000000
_symmetry_Int_Tables_number   1
_chemical_formula_structural   Li3Cr2(PO4)3
_chemical_formula_sum   'Li12 Cr8 P12 O48'
_cell_volume   895.15788315
_cell_formula_units_Z   4
loop_
 _symmetry_equiv_pos_site_id
 _symmetry_equiv_pos_as_xyz
  1  'x, y, z'
loop_
 _atom_site_type_symbol
 _atom_site_label
 _atom_site_symmetry_multiplicity
 _atom_site_fract_x
 _atom_site_fract_y
 _atom_site_fract_z
 _atom_site_occupancy
  Li  Li0  1  0.80907100  0.71346000  0.94830700  1
  Li  Li1  1  0.19092900  0.28654000  0.05169300  1
  Li  Li2  1  0.50000000  0.50000000  0.00000000  1
  Li  Li3  1  0.00000000  0.00000000  0.00000000  1
  Li  Li4  1  0.89520100  0.00000000  0.25000000  1
  Li  Li5  1  0.59901900  0.50000000  0.25000000  1
  Li  Li6  1  0.10479900  0.00000000  0.75000000  1
  Li  Li7  1  0.19092900  0.71346000  0.44830700  1
  Li  Li8  1  0.50000000  0.50000000  0.50000000  1
  Li  Li9  1  0.40098100  0.50000000  0.75000000  1
  Li  Li10  1  0.80907100  0.28654000  0.55169300  1
  Li  Li11  1  0.00000000  0.00000000  0.50000000  1
  Cr  Cr0  1  0.99923200  0.71854900  0.14193800  1
  Cr  Cr1  1  0.99923200  0.28145100  0.35806200  1
  Cr  Cr2  1  0.49744300  0.21763200  0.14377400  1
  Cr  Cr3  1  0.49744300  0.78236800  0.35622600  1
  Cr  Cr4  1  0.50255700  0.21763200  0.64377400  1
  Cr  Cr5  1  0.50255700  0.78236800  0.85622600  1
  Cr  Cr6  1  0.00076800  0.71854900  0.64193800  1
  Cr  Cr7  1  0.00076800  0.28145100  0.85806200  1
  P  P0  1  0.36022800  0.15406600  0.89303500  1
  P  P1  1  0.79758500  0.00000000  0.75000000  1
  P  P2  1  0.85311000  0.64997700  0.39730100  1
  P  P3  1  0.14689000  0.35002300  0.60269900  1
  P  P4  1  0.63977200  0.84593400  0.10696500  1
  P  P5  1  0.63977200  0.15406600  0.39303500  1
  P  P6  1  0.85311000  0.35002300  0.10269900  1
  P  P7  1  0.28745200  0.50000000  0.25000000  1
  P  P8  1  0.71254800  0.50000000  0.75000000  1
  P  P9  1  0.14689000  0.64997700  0.89730100  1
  P  P10  1  0.36022800  0.84593400  0.60696500  1
  P  P11  1  0.20241500  0.00000000  0.25000000  1
  O  O0  1  0.41181400  0.25258200  0.99207100  1
  O  O1  1  0.19046900  0.37808300  0.31386600  1
  O  O2  1  0.67592900  0.34570300  0.08708400  1
  O  O3  1  0.19046900  0.62191700  0.18613400  1
  O  O4  1  0.39703800  0.42945100  0.16181200  1
  O  O5  1  0.09112300  0.06790300  0.33781900  1
  O  O6  1  0.58154800  0.01483300  0.10893200  1
  O  O7  1  0.29553700  0.12851400  0.18751800  1
  O  O8  1  0.70446300  0.87148600  0.81248200  1
  O  O9  1  0.41845200  0.98516700  0.89106800  1
  O  O10  1  0.90887700  0.93209700  0.66218100  1
  O  O11  1  0.60296200  0.57054900  0.83818800  1
  O  O12  1  0.80953100  0.37808300  0.81386600  1
  O  O13  1  0.32407100  0.65429700  0.91291600  1
  O  O14  1  0.80953100  0.62191700  0.68613400  1
  O  O15  1  0.05719800  0.74741100  0.98330600  1
  O  O16  1  0.90887700  0.06790300  0.83781900  1
  O  O17  1  0.94280200  0.25258900  0.01669400  1
  O  O18  1  0.94280200  0.74741100  0.48330600  1
  O  O19  1  0.40835900  0.74699700  0.71049700  1
  O  O20  1  0.10843400  0.47149600  0.90691600  1
  O  O21  1  0.09568000  0.73121100  0.78788500  1
  O  O22  1  0.60296200  0.42945100  0.66181200  1
  O  O23  1  0.58154800  0.98516700  0.39106800  1
  O  O24  1  0.40835900  0.25300300  0.78950300  1
  O  O25  1  0.18028500  0.85846900  0.59384700  1
  O  O26  1  0.70446300  0.12851400  0.68751800  1
  O  O27  1  0.90432000  0.73121100  0.28788500  1
  O  O28  1  0.89156600  0.47149600  0.40691600  1
  O  O29  1  0.41181400  0.74741800  0.50792900  1
  O  O30  1  0.67592900  0.65429700  0.41291600  1
  O  O31  1  0.18028500  0.14153100  0.90615300  1
  O  O32  1  0.81971500  0.85846900  0.09384700  1
  O  O33  1  0.32407100  0.34570300  0.58708400  1
  O  O34  1  0.58818600  0.25258200  0.49207100  1
  O  O35  1  0.10843400  0.52850400  0.59308400  1
  O  O36  1  0.09568000  0.26878900  0.71211500  1
  O  O37  1  0.29553700  0.87148600  0.31248200  1
  O  O38  1  0.81971500  0.14153100  0.40615300  1
  O  O39  1  0.59164100  0.74699700  0.21049700  1
  O  O40  1  0.09112300  0.93209700  0.16218100  1
  O  O41  1  0.39703800  0.57054900  0.33818800  1
  O  O42  1  0.90432000  0.26878900  0.21211500  1
  O  O43  1  0.89156600  0.52850400  0.09308400  1
  O  O44  1  0.59164100  0.25300300  0.28950300  1
  O  O45  1  0.05719800  0.25258900  0.51669400  1
  O  O46  1  0.58818600  0.74741800  0.00792900  1
  O  O47  1  0.41845200  0.01483300  0.60893200  1
loop_
_geom_bond_atom_site_label_1
_geom_bond_atom_site_label_2
_geom_bond_distance
_geom_bond_site_symmetry_2
Li0 O46 2.079319 1_556
Li0 O32 2.197578 1_556
Li0 O15 2.221963 1_655
Li0 O8 2.276785 1_555
Li0 O43 2.420530 1_556
Li0 O11 2.569453 1_555
Li1 O0 2.079319 1_554
Li1 O31 2.197578 1_554
Li1 O17 2.221963 1_455
Li1 O7 2.276785 1_555
Li1 O20 2.420530 1_554
Li1 O4 2.569453 1_555
Li2 O46 2.227744 1_555
Li2 O0 2.227744 1_554
Li2 O4 2.229542 1_555
Li2 O11 2.229542 1_554
Li2 O13 2.249402 1_554
Li2 O2 2.249402 1_555
Li3 O40 2.189025 1_545
Li3 O16 2.189025 1_454
Li3 O17 2.203500 1_455
Li3 O15 2.203500 1_544
Li3 O31 2.256717 1_554
Li3 O32 2.256717 1_445
Li4 O5 2.105353 1_655
Li4 O40 2.105353 1_645
Li4 O42 2.296082 1_555
Li4 O27 2.296082 1_545
Li4 O38 2.380547 1_555
Li4 O32 2.380547 1_545
Li5 O39 2.119758 1_555
Li5 O44 2.119758 1_555
Li5 O41 2.157053 1_555
Li5 O4 2.157053 1_555
Li5 O30 2.509523 1_555
Li5 O2 2.509523 1_555
Li6 O16 2.105353 1_455
Li6 O10 2.105353 1_445
Li6 O36 2.296082 1_555
Li6 O21 2.296082 1_545
Li6 O31 2.380547 1_555
Li6 O25 2.380547 1_545
Li7 O29 2.079319 1_555
Li7 O25 2.197578 1_555
Li7 O18 2.221963 1_455
Li7 O37 2.276785 1_555
Li7 O35 2.420530 1_555
Li7 O41 2.569453 1_555
Li8 O29 2.227744 1_555
Li8 O34 2.227744 1_555
Li8 O41 2.229542 1_555
Li8 O22 2.229542 1_555
Li8 O33 2.249402 1_555
Li8 O30 2.249402 1_555
Li9 O19 2.119758 1_555
Li9 O24 2.119758 1_555
Li9 O11 2.157053 1_555
Li9 O22 2.157053 1_555
Li9 O13 2.509523 1_555
Li9 O33 2.509523 1_555
Li10 O34 2.079319 1_555
Li10 O38 2.197578 1_555
Li10 O45 2.221963 1_655
Li10 O26 2.276785 1_555
Li10 O28 2.420530 1_555
Li10 O22 2.569453 1_555
Li11 O5 2.189025 1_555
Li11 O10 2.189025 1_445
Li11 O45 2.203500 1_555
Li11 O18 2.203500 1_445
Li11 O38 2.256717 1_455
Li11 O25 2.256717 1_545
Cr0 O3 1.921114 1_655
Cr0 O43 1.968137 1_555
Cr0 O27 1.971100 1_555
Cr0 O40 1.993669 1_655
Cr0 O15 2.007580 1_654
Cr0 O32 2.030542 1_555
Cr1 O1 1.921114 1_655
Cr1 O28 1.968137 1_555
Cr1 O42 1.971100 1_555
Cr1 O5 1.993669 1_655
Cr1 O45 2.007580 1_655
Cr1 O38 2.030542 1_555
Cr2 O6 1.922171 1_555
Cr2 O7 1.976422 1_555
Cr2 O44 1.992310 1_555
Cr2 O2 1.999928 1_555
Cr2 O4 2.007459 1_555
Cr2 O0 2.008077 1_554
Cr3 O23 1.922171 1_555
Cr3 O37 1.976422 1_555
Cr3 O39 1.992310 1_555
Cr3 O30 1.999928 1_555
Cr3 O41 2.007459 1_555
Cr3 O29 2.008077 1_555
Cr4 O47 1.922171 1_555
Cr4 O26 1.976422 1_555
Cr4 O24 1.992310 1_555
Cr4 O33 1.999928 1_555
Cr4 O22 2.007459 1_555
Cr4 O34 2.008077 1_555
Cr5 O9 1.922171 1_555
Cr5 O8 1.976422 1_555
Cr5 O19 1.992310 1_555
Cr5 O13 1.999928 1_555
Cr5 O11 2.007459 1_555
Cr5 O46 2.008077 1_556
Cr6 O14 1.921114 1_455
Cr6 O35 1.968137 1_555
Cr6 O21 1.971100 1_555
Cr6 O10 1.993669 1_455
Cr6 O18 2.007580 1_455
Cr6 O25 2.030542 1_555
Cr7 O12 1.921114 1_455
Cr7 O20 1.968137 1_555
Cr7 O36 1.971100 1_555
Cr7 O16 1.993669 1_455
Cr7 O17 2.007580 1_456
Cr7 O31 2.030542 1_555
O0 P0 1.559304 1_555
O1 P7 1.521441 1_555
O2 P6 1.554332 1_555
O3 P7 1.521441 1_555
O4 P7 1.572428 1_555
O5 P11 1.569492 1_555
O6 P4 1.512142 1_545
O7 P11 1.532495 1_555
O8 P1 1.532495 1_565
O9 P0 1.512142 1_565
O10 P1 1.569492 1_565
O11 P8 1.572428 1_555
O12 P8 1.521441 1_555
O13 P9 1.554332 1_555
O14 P8 1.521441 1_555
O15 P9 1.566379 1_555
O16 P1 1.569492 1_555
O17 P6 1.566379 1_555
O18 P2 1.566379 1_555
O19 P10 1.545346 1_555
O20 P9 1.541174 1_555
O21 P9 1.543475 1_555
O22 P8 1.572428 1_555
O23 P5 1.512142 1_565
O24 P0 1.545346 1_555
O25 P10 1.577323 1_555
O26 P1 1.532495 1_555
O27 P2 1.543475 1_555
O28 P2 1.541174 1_555
O29 P10 1.559304 1_555
O30 P2 1.554332 1_555
O31 P0 1.577323 1_555
O32 P4 1.577323 1_555
O33 P3 1.554332 1_555
O34 P5 1.559304 1_555
O35 P3 1.541174 1_555
O36 P3 1.543475 1_555
O37 P11 1.532495 1_565
O38 P5 1.577323 1_555
O39 P4 1.545346 1_555
O40 P11 1.569492 1_565
O41 P7 1.572428 1_555
O42 P6 1.543475 1_555
O43 P6 1.541174 1_555
O44 P5 1.545346 1_555
O45 P3 1.566379 1_555
O46 P4 1.559304 1_555
O47 P10 1.512142 1_545
