# generated using pymatgen
data_Pu(CoSi)2
_symmetry_space_group_name_H-M   'P 1'
_cell_length_a   5.61519305
_cell_length_b   5.61519305
_cell_length_c   5.61519305
_cell_angle_alpha   139.88208137
_cell_angle_beta   139.88208137
_cell_angle_gamma   58.03238499
_symmetry_Int_Tables_number   1
_chemical_formula_structural   Pu(CoSi)2
_chemical_formula_sum   'Pu1 Co2 Si2'
_cell_volume   72.85517921
_cell_formula_units_Z   1
loop_
 _symmetry_equiv_pos_site_id
 _symmetry_equiv_pos_as_xyz
  1  'x, y, z'
loop_
 _atom_site_type_symbol
 _atom_site_label
 _atom_site_symmetry_multiplicity
 _atom_site_fract_x
 _atom_site_fract_y
 _atom_site_fract_z
 _atom_site_occupancy
  Pu  Pu0  1  0.00000000  0.00000000  0.00000000  1
  Co  Co0  1  0.75000000  0.25000000  0.50000000  1
  Co  Co1  1  0.25000000  0.75000000  0.50000000  1
  Si  Si0  1  0.62975060  0.62975060  -0.00000000  1
  Si  Si1  1  0.37024940  0.37024940  0.00000000  1
loop_
_geom_bond_atom_site_label_1
_geom_bond_atom_site_label_2
_geom_bond_distance
_geom_bond_site_symmetry_2
Pu0 Si0 3.007024 1_455
Pu0 Si0 3.007024 1_444
Pu0 Si0 3.007024 1_545
Pu0 Si0 3.007024 1_556
Pu0 Si1 3.007024 1_545
Pu0 Si1 3.007024 1_444
Pu0 Si1 3.007024 1_455
Pu0 Si1 3.007024 1_556
Co0 Si1 2.259173 1_656
Co0 Si1 2.259173 1_555
Co0 Si0 2.259173 1_545
Co0 Si0 2.259173 1_556
Co0 Pu0 3.120451 1_555
Co0 Pu0 3.120451 1_656
Co0 Pu0 3.120451 1_666
Co0 Pu0 3.120451 1_655
Co1 Si1 2.259173 1_555
Co1 Si1 2.259173 1_566
Co1 Si0 2.259173 1_455
Co1 Si0 2.259173 1_556
Co1 Pu0 3.120451 1_666
Co1 Pu0 3.120451 1_566
Co1 Pu0 3.120451 1_555
Co1 Pu0 3.120451 1_565
Si0 Si1 2.548504 1_555
