# generated using pymatgen
data_KLaPrSbO6
_symmetry_space_group_name_H-M   'P 1'
_cell_length_a   8.51621982
_cell_length_b   8.51526245
_cell_length_c   8.34458198
_cell_angle_alpha   90.00000000
_cell_angle_beta   90.00000000
_cell_angle_gamma   90.00000000
_symmetry_Int_Tables_number   1
_chemical_formula_structural   KLaPrSbO6
_chemical_formula_sum   'K4 La4 Pr4 Sb4 O24'
_cell_volume   605.13111805
_cell_formula_units_Z   4
loop_
 _symmetry_equiv_pos_site_id
 _symmetry_equiv_pos_as_xyz
  1  'x, y, z'
loop_
 _atom_site_type_symbol
 _atom_site_label
 _atom_site_symmetry_multiplicity
 _atom_site_fract_x
 _atom_site_fract_y
 _atom_site_fract_z
 _atom_site_occupancy
  K  K0  1  -0.00000000  0.50000000  0.50000000  1
  K  K1  1  0.50000000  -0.00000000  0.50000000  1
  K  K2  1  0.50000000  -0.00000000  -0.00000000  1
  K  K3  1  -0.00000000  0.50000000  -0.00000000  1
  La  La0  1  0.50000000  0.50000000  -0.00000000  1
  La  La1  1  -0.00000000  -0.00000000  0.50000000  1
  La  La2  1  -0.00000000  -0.00000000  -0.00000000  1
  La  La3  1  0.50000000  0.50000000  0.50000000  1
  Pr  Pr0  1  0.75000000  0.75000000  0.75000000  1
  Pr  Pr1  1  0.25000000  0.25000000  0.75000000  1
  Pr  Pr2  1  0.25000000  0.75000000  0.25000000  1
  Pr  Pr3  1  0.75000000  0.25000000  0.25000000  1
  Sb  Sb0  1  0.25000000  0.25000000  0.25000000  1
  Sb  Sb1  1  0.75000000  0.75000000  0.25000000  1
  Sb  Sb2  1  0.75000000  0.25000000  0.75000000  1
  Sb  Sb3  1  0.25000000  0.75000000  0.75000000  1
  O  O0  1  0.02037538  0.23951944  0.30024619  1
  O  O1  1  0.97962462  0.76048056  0.30024619  1
  O  O2  1  0.97962462  0.23951944  0.69975381  1
  O  O3  1  0.02037538  0.76048056  0.69975381  1
  O  O4  1  0.23641580  0.02034777  0.30074043  1
  O  O5  1  0.23641580  0.97965223  0.69925957  1
  O  O6  1  0.76358420  0.97965223  0.30074043  1
  O  O7  1  0.76358420  0.02034777  0.69925957  1
  O  O8  1  0.19921309  0.19925674  0.02292578  1
  O  O9  1  0.80078691  0.19925674  0.97707422  1
  O  O10  1  0.19921309  0.80074326  0.97707422  1
  O  O11  1  0.80078691  0.80074326  0.02292578  1
  O  O12  1  0.47962462  0.26048056  0.19975381  1
  O  O13  1  0.52037538  0.73951944  0.19975381  1
  O  O14  1  0.52037538  0.26048056  0.80024619  1
  O  O15  1  0.47962462  0.73951944  0.80024619  1
  O  O16  1  0.26358420  0.47965223  0.19925957  1
  O  O17  1  0.26358420  0.52034777  0.80074043  1
  O  O18  1  0.73641580  0.52034777  0.19925957  1
  O  O19  1  0.73641580  0.47965223  0.80074043  1
  O  O20  1  0.30078691  0.30074326  0.47707422  1
  O  O21  1  0.69921309  0.30074326  0.52292578  1
  O  O22  1  0.30078691  0.69925674  0.52292578  1
  O  O23  1  0.69921309  0.69925674  0.47707422  1
loop_
_geom_bond_atom_site_label_1
_geom_bond_atom_site_label_2
_geom_bond_distance
_geom_bond_site_symmetry_2
K0 O1 2.779987 1_455
K0 O0 2.779987 1_555
K0 O2 2.779987 1_455
K0 O3 2.779987 1_555
K0 O22 3.078489 1_555
K0 O23 3.078489 1_455
K0 O20 3.078489 1_555
K0 O21 3.078489 1_455
K1 O6 2.798853 1_545
K1 O7 2.798853 1_555
K1 O5 2.798853 1_545
K1 O4 2.798853 1_555
K1 O21 3.077841 1_555
K1 O20 3.077841 1_555
K1 O22 3.077841 1_545
K1 O23 3.077841 1_545
K2 O13 2.779987 1_545
K2 O15 2.779987 1_544
K2 O12 2.779987 1_555
K2 O14 2.779987 1_554
K2 O11 3.078489 1_545
K2 O10 3.078489 1_544
K2 O8 3.078489 1_555
K2 O9 3.078489 1_554
K3 O17 2.798853 1_554
K3 O18 2.798853 1_455
K3 O19 2.798853 1_454
K3 O16 2.798853 1_555
K3 O8 3.077841 1_555
K3 O9 3.077841 1_454
K3 O11 3.077841 1_455
K3 O10 3.077841 1_554
La0 O19 2.616940 1_554
La0 O17 2.616940 1_554
La0 O18 2.616940 1_555
La0 O16 2.616940 1_555
La0 O12 2.639770 1_555
La0 O14 2.639770 1_554
La0 O15 2.639770 1_554
La0 O13 2.639770 1_555
La1 O4 2.616940 1_555
La1 O5 2.616940 1_545
La1 O6 2.616940 1_445
La1 O7 2.616940 1_455
La1 O0 2.639770 1_555
La1 O2 2.639770 1_455
La1 O1 2.639770 1_445
La1 O3 2.639770 1_545
La2 O11 2.407016 1_445
La2 O10 2.407016 1_544
La2 O9 2.407016 1_454
La2 O8 2.407016 1_555
La3 O23 2.407016 1_555
La3 O22 2.407016 1_555
La3 O21 2.407016 1_555
La3 O20 2.407016 1_555
O0 Sb0 2.001968 1_555
O0 Pr3 2.342140 1_455
O1 Sb1 2.001968 1_555
O1 Pr2 2.342140 1_655
O2 Sb2 2.001968 1_555
O2 Pr1 2.342140 1_655
O3 Sb3 2.001968 1_555
O3 Pr0 2.342140 1_455
O4 Sb0 2.004203 1_555
O4 Pr2 2.343553 1_545
O5 Sb3 2.004203 1_555
O5 Pr1 2.343553 1_565
O6 Sb1 2.004203 1_555
O6 Pr3 2.343553 1_565
O7 Sb2 2.004203 1_555
O7 Pr0 2.343553 1_545
O8 Sb0 1.991027 1_555
O8 Pr1 2.358083 1_554
O9 Sb2 1.991027 1_555
O9 Pr3 2.358083 1_556
O10 Sb3 1.991027 1_555
O10 Pr2 2.358083 1_556
O11 Sb1 1.991027 1_555
O11 Pr0 2.358083 1_554
O12 Sb0 2.001968 1_555
O12 Pr3 2.342140 1_555
O13 Sb1 2.001968 1_555
O13 Pr2 2.342140 1_555
O14 Sb2 2.001968 1_555
O14 Pr1 2.342140 1_555
O15 Sb3 2.001968 1_555
O15 Pr0 2.342140 1_555
O16 Sb0 2.004203 1_555
O16 Pr2 2.343553 1_555
O17 Sb3 2.004203 1_555
O17 Pr1 2.343553 1_555
O18 Sb1 2.004203 1_555
O18 Pr3 2.343553 1_555
O19 Sb2 2.004203 1_555
O19 Pr0 2.343553 1_555
O20 Sb0 1.991027 1_555
O20 Pr1 2.358083 1_555
O21 Sb2 1.991027 1_555
O21 Pr3 2.358083 1_555
O22 Sb3 1.991027 1_555
O22 Pr2 2.358083 1_555
O23 Sb1 1.991027 1_555
O23 Pr0 2.358083 1_555
