# generated using pymatgen
data_Y2O3
_symmetry_space_group_name_H-M   'P 1'
_cell_length_a   9.18664497
_cell_length_b   9.18664550
_cell_length_c   9.18664537
_cell_angle_alpha   109.47122258
_cell_angle_beta   109.47122375
_cell_angle_gamma   109.47121308
_symmetry_Int_Tables_number   1
_chemical_formula_structural   Y2O3
_chemical_formula_sum   'Y16 O24'
_cell_volume   596.82769092
_cell_formula_units_Z   8
loop_
 _symmetry_equiv_pos_site_id
 _symmetry_equiv_pos_as_xyz
  1  'x, y, z'
loop_
 _atom_site_type_symbol
 _atom_site_label
 _atom_site_symmetry_multiplicity
 _atom_site_fract_x
 _atom_site_fract_y
 _atom_site_fract_z
 _atom_site_occupancy
  Y  Y0  1  0.25000000  0.71745644  0.46745644  1
  Y  Y1  1  0.03254356  0.75000000  0.78254356  1
  Y  Y2  1  0.78254356  0.03254356  0.75000000  1
  Y  Y3  1  0.46745644  0.25000000  0.71745644  1
  Y  Y4  1  0.71745644  0.46745644  0.25000000  1
  Y  Y5  1  0.75000000  0.78254356  0.03254356  1
  Y  Y6  1  0.75000000  0.28254356  0.53254356  1
  Y  Y7  1  0.96745644  0.25000000  0.21745644  1
  Y  Y8  1  0.21745644  0.96745644  0.25000000  1
  Y  Y9  1  0.53254356  0.75000000  0.28254356  1
  Y  Y10  1  0.28254356  0.53254356  0.75000000  1
  Y  Y11  1  0.25000000  0.21745644  0.96745644  1
  Y  Y12  1  -0.00000000  0.50000000  -0.00000000  1
  Y  Y13  1  0.50000000  -0.00000000  -0.00000000  1
  Y  Y14  1  -0.00000000  -0.00000000  0.50000000  1
  Y  Y15  1  0.50000000  0.50000000  0.50000000  1
  O  O0  1  0.03166182  0.48915020  0.76093209  1
  O  O1  1  0.22822011  0.27072973  0.73906791  1
  O  O2  1  0.27177989  0.01084980  0.04251062  1
  O  O3  1  0.22927027  0.45748938  0.46833818  1
  O  O4  1  0.45748938  0.46833818  0.22927027  1
  O  O5  1  0.76093209  0.03166182  0.48915020  1
  O  O6  1  0.27072973  0.73906791  0.22822011  1
  O  O7  1  0.04251062  0.27177989  0.01084980  1
  O  O8  1  0.48915020  0.76093209  0.03166182  1
  O  O9  1  0.73906791  0.22822011  0.27072973  1
  O  O10  1  0.01084980  0.04251062  0.27177989  1
  O  O11  1  0.46833818  0.22927027  0.45748938  1
  O  O12  1  0.96833818  0.51084980  0.23906791  1
  O  O13  1  0.77177989  0.72926927  0.26093209  1
  O  O14  1  0.72822011  0.98915020  0.95748938  1
  O  O15  1  0.77073073  0.54251062  0.53166182  1
  O  O16  1  0.53166182  0.77073073  0.54251062  1
  O  O17  1  0.98915020  0.95748938  0.72822011  1
  O  O18  1  0.26093209  0.77177989  0.72926927  1
  O  O19  1  0.51084980  0.23906791  0.96833818  1
  O  O20  1  0.95748938  0.72822011  0.98915020  1
  O  O21  1  0.72926927  0.26093209  0.77177989  1
  O  O22  1  0.23906791  0.96833818  0.51084980  1
  O  O23  1  0.54251062  0.53166182  0.77073073  1
loop_
_geom_bond_atom_site_label_1
_geom_bond_atom_site_label_2
_geom_bond_distance
_geom_bond_site_symmetry_2
O0 Y10 2.247090 1_555
O0 Y6 2.269720 1_455
O0 Y12 2.284127 1_556
O0 Y1 2.334677 1_555
O1 Y10 2.247093 1_555
O1 Y11 2.269723 1_555
O1 Y14 2.284131 1_555
O1 Y3 2.334658 1_555
O2 Y8 2.247091 1_545
O2 Y11 2.269710 1_554
O2 Y13 2.284141 1_555
O2 Y1 2.334669 1_544
O3 Y7 2.247091 1_455
O3 Y10 2.269721 1_555
O3 Y15 2.284129 1_555
O3 Y0 2.334668 1_555
O4 Y11 2.247091 1_554
O4 Y9 2.269721 1_555
O4 Y15 2.284129 1_555
O4 Y4 2.334667 1_555
O5 Y6 2.247090 1_555
O5 Y9 2.269720 1_545
O5 Y14 2.284127 1_655
O5 Y2 2.334677 1_555
O6 Y9 2.247093 1_555
O6 Y8 2.269723 1_555
O6 Y12 2.284131 1_555
O6 Y0 2.334658 1_555
O7 Y11 2.247091 1_554
O7 Y7 2.269710 1_455
O7 Y12 2.284141 1_555
O7 Y2 2.334669 1_454
O8 Y9 2.247090 1_555
O8 Y10 2.269720 1_554
O8 Y13 2.284127 1_565
O8 Y5 2.334677 1_555
O9 Y6 2.247093 1_555
O9 Y7 2.269723 1_555
O9 Y13 2.284131 1_555
O9 Y4 2.334658 1_555
O10 Y7 2.247091 1_455
O10 Y8 2.269710 1_545
O10 Y14 2.284141 1_555
O10 Y5 2.334669 1_445
O11 Y8 2.247091 1_545
O11 Y6 2.269721 1_555
O11 Y15 2.284129 1_555
O11 Y3 2.334668 1_555
O12 Y4 2.247090 1_555
O12 Y0 2.269720 1_655
O12 Y12 2.284127 1_655
O12 Y7 2.334677 1_555
O13 Y4 2.247084 1_555
O13 Y5 2.269728 1_555
O13 Y14 2.284136 1_665
O13 Y9 2.334662 1_555
O14 Y2 2.247091 1_565
O14 Y5 2.269710 1_556
O14 Y13 2.284141 1_566
O14 Y7 2.334669 1_566
O15 Y1 2.247087 1_655
O15 Y4 2.269719 1_555
O15 Y15 2.284138 1_555
O15 Y6 2.334665 1_555
O16 Y2 2.247087 1_565
O16 Y0 2.269719 1_555
O16 Y15 2.284138 1_555
O16 Y9 2.334665 1_555
O17 Y1 2.247091 1_655
O17 Y2 2.269710 1_565
O17 Y14 2.284141 1_665
O17 Y11 2.334669 1_665
O18 Y0 2.247084 1_555
O18 Y1 2.269728 1_555
O18 Y13 2.284136 1_566
O18 Y10 2.334662 1_555
O19 Y3 2.247090 1_555
O19 Y4 2.269720 1_556
O19 Y13 2.284127 1_556
O19 Y11 2.334677 1_555
O20 Y5 2.247091 1_556
O20 Y1 2.269710 1_655
O20 Y12 2.284141 1_656
O20 Y8 2.334669 1_656
O21 Y3 2.247084 1_555
O21 Y2 2.269728 1_555
O21 Y12 2.284136 1_656
O21 Y6 2.334662 1_555
O22 Y0 2.247090 1_555
O22 Y3 2.269720 1_565
O22 Y14 2.284127 1_565
O22 Y8 2.334677 1_555
O23 Y5 2.247087 1_556
O23 Y3 2.269719 1_555
O23 Y15 2.284138 1_555
O23 Y10 2.334665 1_555
