# generated using pymatgen
data_Na2Ta5Al3Si6(SO8)6
_symmetry_space_group_name_H-M   'P 1'
_cell_length_a   17.48215456
_cell_length_b   8.71196200
_cell_length_c   22.55345592
_cell_angle_alpha   89.88728862
_cell_angle_beta   90.08401614
_cell_angle_gamma   120.19188340
_symmetry_Int_Tables_number   1
_chemical_formula_structural   Na2Ta5Al3Si6(SO8)6
_chemical_formula_sum   'Na6 Ta15 Al9 Si18 S18 O144'
_cell_volume   2969.00393622
_cell_formula_units_Z   3
loop_
 _symmetry_equiv_pos_site_id
 _symmetry_equiv_pos_as_xyz
  1  'x, y, z'
loop_
 _atom_site_type_symbol
 _atom_site_label
 _atom_site_symmetry_multiplicity
 _atom_site_fract_x
 _atom_site_fract_y
 _atom_site_fract_z
 _atom_site_occupancy
  Na  Na0  1  0.99505313  0.98332828  0.49764649  1
  Na  Na1  1  0.50151845  0.99902569  0.99828726  1
  Na  Na2  1  0.33401270  0.31991881  0.84042412  1
  Na  Na3  1  0.83207042  0.33759108  0.83979193  1
  Na  Na4  1  0.32647933  0.32412798  0.33815844  1
  Na  Na5  1  0.83712443  0.34262053  0.34454730  1
  Ta  Ta0  1  0.49461400  0.99455030  0.36231542  1
  Ta  Ta1  1  0.00566389  0.00552690  0.86425848  1
  Ta  Ta2  1  0.49903841  0.00154879  0.63949525  1
  Ta  Ta3  1  -0.00016605  0.01075157  0.14538987  1
  Ta  Ta4  1  0.32800902  0.33489988  0.69174022  1
  Ta  Ta5  1  0.82570267  0.32723643  0.68448362  1
  Ta  Ta6  1  0.33985147  0.34449946  0.19146161  1
  Ta  Ta7  1  0.83315738  0.31940948  0.18994169  1
  Ta  Ta8  1  0.16509120  0.66578026  0.02061525  1
  Ta  Ta9  1  0.66481014  0.66022924  0.02479757  1
  Ta  Ta10  1  0.16710962  0.67334305  0.52113519  1
  Ta  Ta11  1  0.67417542  0.66393946  0.52484044  1
  Ta  Ta12  1  0.16395392  0.67932056  0.30766773  1
  Ta  Ta13  1  0.16650253  0.67171131  0.80814916  1
  Ta  Ta14  1  0.66488269  0.64754387  0.81310880  1
  Al  Al0  1  0.00746118  0.00146969  0.35391660  1
  Al  Al1  1  0.50540750  0.03757395  0.85256022  1
  Al  Al2  1  0.99551195  0.00595481  0.64596417  1
  Al  Al3  1  0.49375788  0.97494539  0.14400499  1
  Al  Al4  1  0.34426272  0.34195191  0.97561742  1
  Al  Al5  1  0.83607331  0.32779766  0.97385608  1
  Al  Al6  1  0.33137977  0.33345687  0.47982019  1
  Al  Al7  1  0.82854194  0.36687846  0.47729864  1
  Al  Al8  1  0.67214977  0.66679973  0.31703529  1
  Si  Si0  1  0.14054401  0.00529909  0.25089346  1
  Si  Si1  1  0.36003162  0.72627127  0.24863133  1
  Si  Si2  1  0.99921462  0.27591157  0.25820999  1
  Si  Si3  1  0.13358622  0.27477487  0.74685935  1
  Si  Si4  1  0.64128630  0.27642789  0.75152901  1
  Si  Si5  1  0.36234124  0.00268706  0.75158912  1
  Si  Si6  1  0.69325727  0.05527342  0.57502173  1
  Si  Si7  1  0.33180873  0.61070161  0.57748367  1
  Si  Si8  1  0.84630596  0.63788610  0.58220692  1
  Si  Si9  1  0.47236574  0.62574783  0.07840399  1
  Si  Si10  1  0.83395744  0.05150398  0.07652647  1
  Si  Si11  1  0.80865570  0.65168440  0.92060841  1
  Si  Si12  1  0.01793789  0.38363179  0.91654199  1
  Si  Si13  1  0.51774275  0.36541618  0.91846324  1
  Si  Si14  1  0.17699788  0.97077443  0.91818205  1
  Si  Si15  1  0.30695047  0.97001656  0.41834765  1
  Si  Si16  1  0.67243227  0.38841429  0.41299418  1
  Si  Si17  1  0.01492399  0.66430473  0.41630781  1
  S  S0  1  0.64056800  0.98870987  0.25083636  1
  S  S1  1  0.85229642  0.71427641  0.25183555  1
  S  S2  1  0.50747187  0.29204454  0.24915909  1
  S  S3  1  0.99887478  0.71591453  0.74812064  1
  S  S4  1  0.50149961  0.72094139  0.75231745  1
  S  S5  1  0.85850520  0.00197812  0.74969277  1
  S  S6  1  0.47325424  0.33442868  0.58086571  1
  S  S7  1  0.97543928  0.32645788  0.58234271  1
  S  S8  1  0.18803123  0.04923791  0.58279280  1
  S  S9  1  0.97455408  0.61764263  0.08164435  1
  S  S10  1  0.33767246  0.04970215  0.08291549  1
  S  S11  1  0.19291807  0.33291248  0.08184532  1
  S  S12  1  0.68671518  0.32369381  0.08413872  1
  S  S13  1  0.31305538  0.66677677  0.91632928  1
  S  S14  1  0.66363856  0.95474638  0.91619328  1
  S  S15  1  0.81081216  0.95448116  0.41381763  1
  S  S16  1  0.16653752  0.37407462  0.41735492  1
  S  S17  1  0.52390122  0.65984278  0.41515588  1
  O  O0  1  0.09909943  0.04141468  0.30809970  1
  O  O1  1  0.60522962  0.03041678  0.30359740  1
  O  O2  1  0.42363439  0.80858651  0.30692875  1
  O  O3  1  0.90901046  0.78631757  0.30390177  1
  O  O4  1  0.48837732  0.17664519  0.30230320  1
  O  O5  1  0.97657854  0.14379774  0.31239893  1
  O  O6  1  0.09340723  0.15324739  0.80635717  1
  O  O7  1  0.60211088  0.16088094  0.81017678  1
  O  O8  1  0.48328492  0.79265286  0.80502273  1
  O  O9  1  0.98261527  0.78815159  0.80271717  1
  O  O10  1  0.41885060  0.03041828  0.81027858  1
  O  O11  1  0.91198637  0.02603031  0.80307265  1
  O  O12  1  0.40365415  0.97155841  0.69109123  1
  O  O13  1  0.89569327  0.97060003  0.69593115  1
  O  O14  1  0.07792858  0.18059991  0.68894962  1
  O  O15  1  0.58386255  0.19141504  0.69182393  1
  O  O16  1  0.01042770  0.82156104  0.69530200  1
  O  O17  1  0.51314045  0.82116763  0.69687035  1
  O  O18  1  0.40599369  0.84566855  0.19153678  1
  O  O19  1  0.89383039  0.81989214  0.19633455  1
  O  O20  1  0.00853011  0.18861127  0.19473911  1
  O  O21  1  0.51975174  0.21232776  0.19547413  1
  O  O22  1  0.08140924  0.97260570  0.19038159  1
  O  O23  1  0.59041878  0.96935322  0.19630148  1
  O  O24  1  0.43430283  0.35814335  0.63545300  1
  O  O25  1  0.93699045  0.35825802  0.63760213  1
  O  O26  1  0.24455578  0.12759935  0.63701609  1
  O  O27  1  0.75065177  0.13234148  0.63899554  1
  O  O28  1  0.32080164  0.49349732  0.63833210  1
  O  O29  1  0.82365486  0.50458376  0.64030549  1
  O  O30  1  0.42817374  0.49884591  0.13843147  1
  O  O31  1  0.93422671  0.50968167  0.13691312  1
  O  O32  1  0.31855854  0.12254636  0.13658698  1
  O  O33  1  0.82159684  0.14527376  0.13897290  1
  O  O34  1  0.24498104  0.35754338  0.13666689  1
  O  O35  1  0.74410271  0.35657904  0.13795435  1
  O  O36  1  0.23023674  0.30282356  0.02898676  1
  O  O37  1  0.72634855  0.29630382  0.03118603  1
  O  O38  1  0.40679516  0.52226447  0.02442673  1
  O  O39  1  0.92201658  0.53877179  0.02926071  1
  O  O40  1  0.34744473  0.15484280  0.02958968  1
  O  O41  1  0.84781539  0.18457466  0.02430250  1
  O  O42  1  0.23090997  0.15590441  0.52967631  1
  O  O43  1  0.74667782  0.18283469  0.52195614  1
  O  O44  1  0.34705401  0.51452650  0.52241542  1
  O  O45  1  0.85868782  0.54825529  0.52505089  1
  O  O46  1  0.41908658  0.30462958  0.52809764  1
  O  O47  1  0.92158004  0.29725684  0.53018858  1
  O  O48  1  0.26959956  0.69559254  0.97098093  1
  O  O49  1  0.76469674  0.69770150  0.97582307  1
  O  O50  1  0.08359372  0.47323608  0.97567298  1
  O  O51  1  0.58393450  0.47006852  0.97394804  1
  O  O52  1  0.15846994  0.83625879  0.97594719  1
  O  O53  1  0.65149626  0.84461624  0.96984239  1
  O  O54  1  0.26525751  0.84008854  0.47640541  1
  O  O55  1  0.76605255  0.83832672  0.46821554  1
  O  O56  1  0.15342456  0.46027189  0.47104365  1
  O  O57  1  0.65182670  0.47338707  0.47223256  1
  O  O58  1  0.08242484  0.69597277  0.47424384  1
  O  O59  1  0.57631012  0.68998159  0.46901809  1
  O  O60  1  0.06823480  0.63982675  0.35980206  1
  O  O61  1  0.56631051  0.64107838  0.36092996  1
  O  O62  1  0.24926673  0.87377633  0.35983952  1
  O  O63  1  0.75296648  0.86804914  0.36088631  1
  O  O64  1  0.18300338  0.48454421  0.36426743  1
  O  O65  1  0.68279903  0.50822352  0.35617284  1
  O  O66  1  0.07063029  0.50906228  0.86055335  1
  O  O67  1  0.56699627  0.49500695  0.85891238  1
  O  O68  1  0.18807593  0.87095257  0.86084448  1
  O  O69  1  0.68058012  0.87578398  0.86249191  1
  O  O70  1  0.25664029  0.64038980  0.86376374  1
  O  O71  1  0.74775465  0.63004790  0.86061003  1
  O  O72  1  0.00720509  0.84238580  0.40751307  1
  O  O73  1  0.51627860  0.82492260  0.40877146  1
  O  O74  1  0.40447502  0.98388260  0.40856601  1
  O  O75  1  0.89616416  0.96026091  0.40972504  1
  O  O76  1  0.08486499  0.19783289  0.41294999  1
  O  O77  1  0.58376359  0.19155251  0.40231430  1
  O  O78  1  0.01223800  0.19177811  0.90942585  1
  O  O79  1  0.51272156  0.17556483  0.91341524  1
  O  O80  1  0.08349543  0.96797059  0.91059558  1
  O  O81  1  0.58216302  0.96385158  0.90946669  1
  O  O82  1  0.40117811  0.82343348  0.91143183  1
  O  O83  1  0.90314827  0.82377671  0.90295123  1
  O  O84  1  0.48490589  0.17681867  0.58684463  1
  O  O85  1  0.98687864  0.16978762  0.59157844  1
  O  O86  1  0.10038721  0.02914069  0.59008121  1
  O  O87  1  0.59716166  0.03187141  0.59231675  1
  O  O88  1  0.41784512  0.80544717  0.59111253  1
  O  O89  1  0.92785289  0.83305281  0.59525345  1
  O  O90  1  0.48888698  0.82496003  0.08870756  1
  O  O91  1  0.98669144  0.79599827  0.09076115  1
  O  O92  1  0.41844226  0.03651207  0.09044256  1
  O  O93  1  0.91848544  0.02503723  0.09120999  1
  O  O94  1  0.10147853  0.17653793  0.08997680  1
  O  O95  1  0.59732383  0.16952816  0.09463129  1
  O  O96  1  0.35011594  0.17701697  0.74002123  1
  O  O97  1  0.85307255  0.16790904  0.74390712  1
  O  O98  1  0.23601399  0.30377640  0.74213869  1
  O  O99  1  0.74372001  0.31015390  0.74431634  1
  O  O100  1  0.42286830  0.53408833  0.74389837  1
  O  O101  1  0.92287248  0.53045467  0.74257274  1
  O  O102  1  0.34977051  0.52471491  0.24198422  1
  O  O103  1  0.84029136  0.53129667  0.24073406  1
  O  O104  1  0.42225235  0.30145631  0.24317885  1
  O  O105  1  0.91321418  0.30897000  0.24347658  1
  O  O106  1  0.24135259  0.17217834  0.23885708  1
  O  O107  1  0.73262822  0.15772849  0.24299762  1
  O  O108  1  0.31559595  0.50190036  0.92406601  1
  O  O109  1  0.81479193  0.47644020  0.93023804  1
  O  O110  1  0.42465923  0.35949301  0.92294677  1
  O  O111  1  0.92207063  0.35975310  0.92289891  1
  O  O112  1  0.25673379  0.16480018  0.93147952  1
  O  O113  1  0.74310214  0.13315074  0.92366010  1
  O  O114  1  0.32194615  0.16567835  0.42907583  1
  O  O115  1  0.81911772  0.12759363  0.42113916  1
  O  O116  1  0.24553102  0.35415177  0.42561789  1
  O  O117  1  0.75405538  0.35670944  0.42053774  1
  O  O118  1  0.43377718  0.50479638  0.42006032  1
  O  O119  1  0.92359556  0.47990020  0.42600286  1
  O  O120  1  0.18374933  0.49443231  0.07672443  1
  O  O121  1  0.68028628  0.48798183  0.07910102  1
  O  O122  1  0.06498717  0.63490740  0.07717125  1
  O  O123  1  0.56889567  0.64036543  0.07118986  1
  O  O124  1  0.25880459  0.86478058  0.07565060  1
  O  O125  1  0.74679518  0.85781820  0.07359824  1
  O  O126  1  0.18000935  0.86989712  0.57785377  1
  O  O127  1  0.67539103  0.85292637  0.56830611  1
  O  O128  1  0.24361747  0.62888698  0.57132490  1
  O  O129  1  0.75443331  0.64850644  0.57469005  1
  O  O130  1  0.06521107  0.48832087  0.57611390  1
  O  O131  1  0.56267723  0.49503383  0.57493688  1
  O  O132  1  0.15197155  0.83157816  0.25468210  1
  O  O133  1  0.65455165  0.83761796  0.26058638  1
  O  O134  1  0.26208696  0.68856395  0.26261607  1
  O  O135  1  0.76514202  0.70000021  0.25846551  1
  O  O136  1  0.08450420  0.47002849  0.26141327  1
  O  O137  1  0.58088452  0.47293584  0.25923644  1
  O  O138  1  0.15110194  0.47421486  0.76018965  1
  O  O139  1  0.65428775  0.47822389  0.75755251  1
  O  O140  1  0.08046566  0.70195004  0.75510231  1
  O  O141  1  0.58125330  0.70316884  0.75846488  1
  O  O142  1  0.26204711  0.83323518  0.75968719  1
  O  O143  1  0.76728514  0.84957412  0.75793232  1
loop_
_geom_bond_atom_site_label_1
_geom_bond_atom_site_label_2
_geom_bond_distance
_geom_bond_site_symmetry_2
Na0 O72 2.441034 1_655
Na0 O89 2.527744 1_555
Na0 O75 2.569671 1_555
Na0 O76 2.578748 1_665
Na0 O86 2.673791 1_665
Na0 O85 2.719393 1_565
Na1 O79 2.398824 1_565
Na1 O90 2.481822 1_556
Na1 O81 2.557271 1_555
Na1 O82 2.560705 1_555
Na1 O92 2.650356 1_566
Na1 O95 2.689397 1_566
Na2 O110 2.353389 1_555
Na2 O112 2.455544 1_555
Na2 O108 2.588960 1_555
Na2 O96 2.668762 1_555
Na2 O98 2.759772 1_555
Na2 O100 2.777123 1_555
Na3 O111 2.390246 1_555
Na3 O109 2.468724 1_555
Na3 O113 2.525533 1_555
Na3 O99 2.588521 1_555
Na3 O101 2.731977 1_555
Na3 O97 2.749079 1_555
Na4 O114 2.448606 1_555
Na4 O116 2.518808 1_555
Na4 O118 2.537669 1_555
Na4 O106 2.646377 1_555
Na4 O102 2.682611 1_555
Na4 O104 2.788517 1_555
Na5 O117 2.291006 1_555
Na5 O119 2.296218 1_555
Na5 O115 2.447051 1_555
Na5 O105 2.730431 1_555
Na5 O103 2.842632 1_555
Na5 O107 2.867039 1_555
Al0 O0 1.788320 1_555
Al0 O72 1.835532 1_545
Al0 O5 1.836583 1_455
Al0 O76 2.050765 1_555
Al0 O3 2.122711 1_445
Al0 O75 2.191294 1_445
Al1 O7 1.760648 1_555
Al1 O10 1.761855 1_555
Al1 O79 1.787922 1_555
Al1 O81 2.172283 1_545
Al1 O8 2.242696 1_545
Al1 O82 2.267567 1_545
Al2 O14 1.768501 1_655
Al2 O89 1.785188 1_545
Al2 O85 1.942610 1_555
Al2 O13 1.968202 1_545
Al2 O16 2.073702 1_645
Al2 O86 2.150372 1_655
Al3 O18 1.741776 1_555
Al3 O90 1.778818 1_555
Al3 O92 2.045420 1_565
Al3 O95 2.074427 1_565
Al3 O23 2.079858 1_555
Al3 O21 2.212135 1_565
Al4 O38 1.774988 1_556
Al4 O110 1.788314 1_555
Al4 O112 1.827736 1_555
Al4 O40 2.055530 1_556
Al4 O108 2.058882 1_555
Al4 O36 2.204697 1_556
Al5 O41 1.773367 1_556
Al5 O111 1.800391 1_555
Al5 O109 1.805988 1_555
Al5 O113 2.007225 1_555
Al5 O39 2.103108 1_556
Al5 O37 2.214319 1_556
Al6 O44 1.748376 1_555
Al6 O114 1.799185 1_555
Al6 O46 1.995236 1_555
Al6 O42 2.002092 1_555
Al6 O116 2.011283 1_555
Al6 O118 2.135605 1_555
Al7 O45 1.761232 1_555
Al7 O117 1.794953 1_555
Al7 O43 1.823005 1_555
Al7 O119 1.850614 1_555
Al7 O47 2.328096 1_555
Al7 O115 2.375174 1_555
Al8 O65 1.725044 1_555
Al8 O63 1.886659 1_555
Al8 O135 2.000834 1_555
Al8 O61 2.010310 1_555
Al8 O133 2.093321 1_555
Al8 O137 2.095154 1_555
O0 Si0 1.588142 1_555
O1 S0 1.469451 1_545
O1 Ta0 2.233630 1_545
O2 Si1 1.636081 1_555
O2 Ta0 1.925186 1_555
O3 S1 1.459270 1_555
O4 S2 1.489180 1_555
O4 Ta0 2.127338 1_545
O5 Si2 1.585167 1_555
O6 Si3 1.632225 1_555
O6 Ta1 1.930862 1_555
O7 Si4 1.592463 1_555
O8 S4 1.452173 1_555
O9 S3 1.475483 1_555
O9 Ta1 2.217289 1_665
O10 Si5 1.594912 1_555
O11 S5 1.472443 1_555
O11 Ta1 2.214682 1_655
O12 Si5 1.630401 1_565
O12 Ta2 1.941470 1_565
O13 S5 1.466268 1_565
O14 Si3 1.588475 1_555
O15 Si4 1.619161 1_555
O15 Ta2 1.965550 1_555
O16 S3 1.454782 1_455
O17 S4 1.478300 1_555
O17 Ta2 2.141377 1_565
O18 Si1 1.594634 1_555
O19 S1 1.505609 1_555
O19 Ta3 2.102060 1_665
O20 Si2 1.668434 1_455
O20 Ta3 1.852620 1_555
O21 S2 1.465749 1_555
O22 Si0 1.647317 1_565
O22 Ta3 1.909188 1_565
O23 S0 1.469285 1_555
O24 S6 1.472084 1_555
O24 Ta4 2.175563 1_555
O25 S7 1.507619 1_555
O25 Ta5 2.110031 1_555
O26 S8 1.503097 1_555
O26 Ta4 2.065624 1_555
O27 Si6 1.691539 1_555
O27 Ta5 1.849092 1_555
O28 Si7 1.661503 1_555
O28 Ta4 1.882546 1_555
O29 Si8 1.659948 1_555
O29 Ta5 1.852205 1_555
O30 Si9 1.670356 1_555
O30 Ta6 1.879762 1_555
O31 S9 1.505479 1_555
O31 Ta7 2.086296 1_555
O32 S10 1.482278 1_555
O32 Ta6 2.166412 1_555
O33 Si10 1.697222 1_555
O33 Ta7 1.833447 1_555
O34 S11 1.484752 1_555
O34 Ta6 2.115159 1_555
O35 S12 1.506800 1_555
O35 Ta7 2.098489 1_555
O36 S11 1.446057 1_555
O37 S12 1.460524 1_555
O38 Si9 1.602998 1_555
O39 S9 1.441096 1_555
O40 S10 1.467490 1_555
O41 Si10 1.582070 1_555
O42 S8 1.469082 1_555
O43 Si6 1.579152 1_555
O44 Si7 1.595383 1_555
O45 Si8 1.578947 1_555
O46 S6 1.459840 1_555
O47 S7 1.446329 1_555
O48 S13 1.534671 1_555
O48 Ta8 2.046019 1_556
O49 Si11 1.617616 1_555
O49 Ta9 1.951099 1_556
O50 Si12 1.674441 1_555
O50 Ta8 1.862734 1_556
O51 Si13 1.635646 1_555
O51 Ta9 1.925008 1_556
O52 Si14 1.670029 1_555
O52 Ta8 1.844127 1_556
O53 S14 1.490294 1_555
O53 Ta9 2.130299 1_556
O54 Si15 1.641405 1_555
O54 Ta10 1.887956 1_555
O55 S15 1.530687 1_555
O55 Ta11 2.015688 1_555
O56 S16 1.503400 1_555
O56 Ta10 2.083280 1_555
O57 Si16 1.654169 1_555
O57 Ta11 1.915808 1_555
O58 Si17 1.686847 1_555
O58 Ta10 1.907159 1_555
O59 S17 1.462914 1_555
O59 Ta11 2.224109 1_555
O60 Si17 1.656087 1_555
O60 Ta12 1.930333 1_555
O61 S17 1.482377 1_555
O62 Si15 1.615922 1_555
O62 Ta12 1.985016 1_555
O63 S15 1.499629 1_555
O64 S16 1.469853 1_555
O64 Ta12 2.275617 1_555
O65 Si16 1.603044 1_555
O66 Si12 1.619476 1_555
O66 Ta13 1.955608 1_555
O67 Si13 1.685100 1_555
O67 Ta14 1.863881 1_555
O68 Si14 1.624995 1_555
O68 Ta13 1.978884 1_555
O69 S14 1.495691 1_555
O69 Ta14 2.174526 1_555
O70 S13 1.483458 1_555
O70 Ta13 2.134531 1_555
O71 Si11 1.671848 1_555
O71 Ta14 1.867306 1_555
O72 Si17 1.635171 1_555
O73 S17 1.516150 1_555
O73 Ta0 1.995187 1_555
O74 Si15 1.662506 1_555
O74 Ta0 1.853935 1_555
O75 S15 1.470491 1_555
O76 S16 1.483646 1_555
O77 Si16 1.651932 1_555
O77 Ta0 1.870835 1_545
O78 Si12 1.631818 1_555
O78 Ta1 1.871466 1_555
O79 Si13 1.615856 1_555
O80 Si14 1.631228 1_555
O80 Ta1 1.868922 1_565
O81 S14 1.473463 1_555
O82 S13 1.460610 1_555
O83 Si11 1.625978 1_555
O83 Ta1 1.904098 1_665
O84 S6 1.491832 1_555
O84 Ta2 2.043061 1_555
O85 S7 1.489849 1_555
O86 S8 1.461552 1_555
O87 Si6 1.634960 1_555
O87 Ta2 1.921729 1_555
O88 Si7 1.633809 1_555
O88 Ta2 1.920410 1_565
O89 Si8 1.603954 1_555
O90 Si9 1.626868 1_555
O91 S9 1.473498 1_555
O91 Ta3 2.155693 1_665
O92 S10 1.482657 1_555
O93 Si10 1.639359 1_555
O93 Ta3 1.924439 1_655
O94 S11 1.501486 1_555
O94 Ta3 2.055139 1_555
O95 S12 1.480147 1_555
O96 Si5 1.656840 1_555
O96 Ta4 1.937662 1_555
O97 S5 1.501023 1_555
O97 Ta5 2.147232 1_555
O98 Si3 1.681378 1_555
O98 Ta4 1.875526 1_555
O99 Si4 1.670651 1_555
O99 Ta5 1.920320 1_555
O100 S4 1.524919 1_555
O100 Ta4 2.062308 1_555
O101 S3 1.494220 1_555
O101 Ta5 2.171220 1_555
O102 Si1 1.679928 1_555
O102 Ta6 1.877781 1_555
O103 S1 1.520804 1_555
O103 Ta7 2.124079 1_555
O104 S2 1.538413 1_555
O104 Ta6 2.028042 1_555
O105 Si2 1.699255 1_555
O105 Ta7 1.883481 1_555
O106 Si0 1.648046 1_555
O106 Ta6 1.939215 1_555
O107 S0 1.551100 1_545
O107 Ta7 2.003562 1_555
O108 S13 1.469290 1_555
O109 Si11 1.597782 1_555
O110 Si13 1.605303 1_555
O111 Si12 1.588273 1_655
O112 Si14 1.587819 1_545
O113 S14 1.484114 1_545
O114 Si15 1.607762 1_545
O115 S15 1.450352 1_545
O116 S16 1.487330 1_555
O117 Si16 1.592779 1_555
O118 S17 1.475997 1_555
O119 Si17 1.611736 1_655
O120 S11 1.498426 1_555
O120 Ta8 2.101727 1_555
O121 S12 1.495057 1_555
O121 Ta9 2.055518 1_555
O122 S9 1.514427 1_455
O122 Ta8 2.072129 1_555
O123 Si9 1.635571 1_555
O123 Ta9 1.910213 1_555
O124 S10 1.513125 1_565
O124 Ta8 2.091918 1_555
O125 Si10 1.608595 1_565
O125 Ta9 1.936526 1_555
O126 S8 1.501152 1_565
O126 Ta10 2.058833 1_555
O127 Si6 1.635609 1_565
O127 Ta11 1.908750 1_555
O128 Si7 1.632919 1_555
O128 Ta10 1.932651 1_555
O129 Si8 1.663000 1_555
O129 Ta11 1.853440 1_555
O130 S7 1.498408 1_455
O130 Ta10 2.102300 1_555
O131 S6 1.489756 1_555
O131 Ta11 2.087191 1_555
O132 Si0 1.625205 1_565
O132 Ta12 1.871880 1_555
O133 S0 1.470762 1_555
O134 Si1 1.604598 1_555
O134 Ta12 1.961613 1_555
O135 S1 1.472862 1_555
O136 Si2 1.597615 1_455
O136 Ta12 1.948860 1_555
O137 S2 1.465810 1_555
O138 Si3 1.633940 1_555
O138 Ta13 1.934788 1_555
O139 Si4 1.661253 1_555
O139 Ta14 1.874037 1_555
O140 S3 1.499323 1_455
O140 Ta13 2.038410 1_555
O141 S4 1.484471 1_555
O141 Ta14 2.143864 1_555
O142 Si5 1.638117 1_565
O142 Ta13 1.897367 1_555
O143 S5 1.486881 1_565
O143 Ta14 2.163347 1_555
