# generated using pymatgen
data_Na4Mg(MoO4)2
_symmetry_space_group_name_H-M   'P 1'
_cell_length_a   6.57343673
_cell_length_b   6.57343647
_cell_length_c   6.57164100
_cell_angle_alpha   60.00902996
_cell_angle_beta   60.00903128
_cell_angle_gamma   60.03079167
_symmetry_Int_Tables_number   1
_chemical_formula_structural   Na4Mg(MoO4)2
_chemical_formula_sum   'Na4 Mg1 Mo2 O8'
_cell_volume   200.86489686
_cell_formula_units_Z   1
loop_
 _symmetry_equiv_pos_site_id
 _symmetry_equiv_pos_as_xyz
  1  'x, y, z'
loop_
 _atom_site_type_symbol
 _atom_site_label
 _atom_site_symmetry_multiplicity
 _atom_site_fract_x
 _atom_site_fract_y
 _atom_site_fract_z
 _atom_site_occupancy
  Na  Na0  1  0.98082800  0.98082800  0.98171000  1
  Na  Na1  1  0.98082800  0.98082800  0.55663400  1
  Na  Na2  1  0.97946700  0.55946100  0.98053600  1
  Na  Na3  1  0.55946100  0.97946700  0.98053600  1
  Mg  Mg0  1  0.12628200  0.12628200  0.12371800  1
  Mo  Mo0  1  0.37576700  0.37576700  0.37423300  1
  Mo  Mo1  1  0.62499000  0.62499000  0.62501000  1
  O  O0  1  0.73681100  0.73681100  0.73682100  1
  O  O1  1  0.25019900  0.25019900  0.75028500  1
  O  O2  1  0.24990900  0.75209700  0.24899800  1
  O  O3  1  0.75209700  0.24990900  0.24899800  1
  O  O4  1  0.73678000  0.28957200  0.73682400  1
  O  O5  1  0.28957200  0.73678000  0.73682400  1
  O  O6  1  0.25019900  0.25019900  0.24931800  1
  O  O7  1  0.73681100  0.73681100  0.28955600  1
loop_
_geom_bond_atom_site_label_1
_geom_bond_atom_site_label_2
_geom_bond_distance
_geom_bond_site_symmetry_2
Na0 O7 2.306682 1_556
Na0 O4 2.312000 1_565
Na0 O5 2.312000 1_655
Na0 O3 2.506675 1_566
Na0 O2 2.506675 1_656
Na0 O1 2.516284 1_665
Na1 O0 2.306684 1_555
Na1 O4 2.312000 1_565
Na1 O5 2.312000 1_655
Na1 O3 2.506665 1_565
Na1 O2 2.506665 1_655
Na1 O6 2.516283 1_665
Na2 O7 2.301748 1_556
Na2 O0 2.301753 1_555
Na2 O5 2.307083 1_655
Na2 O3 2.510028 1_556
Na2 O1 2.521519 1_655
Na2 O6 2.521523 1_656
Na3 O7 2.301748 1_556
Na3 O0 2.301753 1_555
Na3 O4 2.307083 1_565
Na3 O2 2.510028 1_556
Na3 O1 2.521519 1_565
Na3 O6 2.521523 1_566
Mg0 O1 2.003865 1_554
Mg0 O6 2.003871 1_555
Mg0 O2 2.008887 1_545
Mg0 O3 2.008887 1_455
Mg0 Na1 2.323083 1_445
Mg0 Na0 2.323083 1_444
Mg0 Na2 2.325648 1_454
Mg0 Na3 2.325648 1_544
Mo0 O6 2.017906 1_555
Mo0 O1 2.017911 1_555
Mo0 O2 2.020399 1_555
Mo0 O3 2.020399 1_555
Mo1 O0 1.800054 1_555
Mo1 O7 1.800059 1_555
Mo1 O4 1.800752 1_555
Mo1 O5 1.800752 1_555
