# generated using pymatgen
data_ErSi2
_symmetry_space_group_name_H-M   'P 1'
_cell_length_a   4.07006973
_cell_length_b   4.07007148
_cell_length_c   3.86152680
_cell_angle_alpha   90.00000000
_cell_angle_beta   90.00000000
_cell_angle_gamma   120.00000193
_symmetry_Int_Tables_number   1
_chemical_formula_structural   ErSi2
_chemical_formula_sum   'Er1 Si2'
_cell_volume   55.39793330
_cell_formula_units_Z   1
loop_
 _symmetry_equiv_pos_site_id
 _symmetry_equiv_pos_as_xyz
  1  'x, y, z'
loop_
 _atom_site_type_symbol
 _atom_site_label
 _atom_site_symmetry_multiplicity
 _atom_site_fract_x
 _atom_site_fract_y
 _atom_site_fract_z
 _atom_site_occupancy
  Er  Er0  1  -0.00000000  0.00000000  0.00000000  1
  Si  Si0  1  0.66666700  0.33333300  0.50000000  1
  Si  Si1  1  0.33333300  0.66666700  0.50000000  1
loop_
_geom_bond_atom_site_label_1
_geom_bond_atom_site_label_2
_geom_bond_distance
_geom_bond_site_symmetry_2
Er0 Si0 3.041326 1_454
Er0 Si1 3.041326 1_544
Er0 Si1 3.041326 1_545
Er0 Si0 3.041326 1_455
Er0 Si0 3.041328 1_554
Er0 Si0 3.041328 1_555
Er0 Si1 3.041328 1_444
Er0 Si1 3.041328 1_445
Er0 Si1 3.041329 1_554
Er0 Si0 3.041329 1_444
Er0 Si0 3.041329 1_445
Er0 Si1 3.041329 1_555
Si0 Si1 2.349853 1_655
Si0 Si1 2.349854 1_545
Si0 Si1 2.349861 1_555
