# generated using pymatgen
data_Na6Mg2Nb4Si6(SO12)3
_symmetry_space_group_name_H-M   'P 1'
_cell_length_a   8.98081798
_cell_length_b   8.98081768
_cell_length_c   22.70048472
_cell_angle_alpha   90.00000000
_cell_angle_beta   90.00000000
_cell_angle_gamma   120.00000111
_symmetry_Int_Tables_number   1
_chemical_formula_structural   Na6Mg2Nb4Si6(SO12)3
_chemical_formula_sum   'Na12 Mg4 Nb8 Si12 S6 O72'
_cell_volume   1585.61421908
_cell_formula_units_Z   2
loop_
 _symmetry_equiv_pos_site_id
 _symmetry_equiv_pos_as_xyz
  1  'x, y, z'
loop_
 _atom_site_type_symbol
 _atom_site_label
 _atom_site_symmetry_multiplicity
 _atom_site_fract_x
 _atom_site_fract_y
 _atom_site_fract_z
 _atom_site_occupancy
  Na  Na0  1  0.96700308  0.67916496  0.91642497  1
  Na  Na1  1  0.71216089  0.03299692  0.91642497  1
  Na  Na2  1  0.32083504  0.28783911  0.91642497  1
  Na  Na3  1  0.96700308  0.28783911  0.41642497  1
  Na  Na4  1  0.32083504  0.03299692  0.41642497  1
  Na  Na5  1  0.71216089  0.67916496  0.41642497  1
  Na  Na6  1  -0.00000000  0.00000000  0.49257576  1
  Na  Na7  1  -0.00000000  0.00000000  0.99257576  1
  Na  Na8  1  0.66666700  0.33333300  0.82749888  1
  Na  Na9  1  0.66666700  0.33333300  0.32749888  1
  Na  Na10  1  0.33333300  0.66666700  0.16218340  1
  Na  Na11  1  0.33333300  0.66666700  0.66218340  1
  Mg  Mg0  1  -0.00000000  0.00000000  0.35275902  1
  Mg  Mg1  1  -0.00000000  0.00000000  0.85275902  1
  Mg  Mg2  1  0.66666700  0.33333300  0.68079202  1
  Mg  Mg3  1  0.66666700  0.33333300  0.18079202  1
  Nb  Nb0  1  -0.00000000  0.00000000  0.63909661  1
  Nb  Nb1  1  -0.00000000  0.00000000  0.13909661  1
  Nb  Nb2  1  0.66666700  0.33333300  0.98290148  1
  Nb  Nb3  1  0.66666700  0.33333300  0.48290148  1
  Nb  Nb4  1  0.33333300  0.66666700  0.02315392  1
  Nb  Nb5  1  0.33333300  0.66666700  0.52315392  1
  Nb  Nb6  1  0.33333300  0.66666700  0.31492948  1
  Nb  Nb7  1  0.33333300  0.66666700  0.81492948  1
  Si  Si0  1  0.95475244  0.33943254  0.58719723  1
  Si  Si1  1  0.38468110  0.04524756  0.58719723  1
  Si  Si2  1  0.66056746  0.61531890  0.58719723  1
  Si  Si3  1  0.95475244  0.61531890  0.08719723  1
  Si  Si4  1  0.66056746  0.04524756  0.08719723  1
  Si  Si5  1  0.38468110  0.33943254  0.08719723  1
  Si  Si6  1  0.62389749  0.66557507  0.91690392  1
  Si  Si7  1  0.04167659  0.37610251  0.91690392  1
  Si  Si8  1  0.33442493  0.95832341  0.91690392  1
  Si  Si9  1  0.62389749  0.95832341  0.41690392  1
  Si  Si10  1  0.33442493  0.37610251  0.41690392  1
  Si  Si11  1  0.04167659  0.66557507  0.41690392  1
  S  S0  1  0.29128155  0.00101135  0.25139813  1
  S  S1  1  0.70972980  0.70871845  0.25139813  1
  S  S2  1  0.99898865  0.29027020  0.25139813  1
  S  S3  1  0.29128155  0.29027020  0.75139813  1
  S  S4  1  0.99898865  0.70871845  0.75139813  1
  S  S5  1  0.70972980  0.00101135  0.75139813  1
  O  O0  1  0.20703535  0.01189073  0.30603446  1
  O  O1  1  0.80485538  0.79296465  0.30603446  1
  O  O2  1  0.98810927  0.19514462  0.30603446  1
  O  O3  1  0.20703535  0.19514462  0.80603446  1
  O  O4  1  0.98810927  0.79296465  0.80603446  1
  O  O5  1  0.80485538  0.01189073  0.80603446  1
  O  O6  1  0.79966517  0.98069006  0.69912895  1
  O  O7  1  0.18102489  0.20033483  0.69912895  1
  O  O8  1  0.01930994  0.81897511  0.69912895  1
  O  O9  1  0.79966517  0.81897511  0.19912895  1
  O  O10  1  0.01930994  0.20033483  0.19912895  1
  O  O11  1  0.18102489  0.98069006  0.19912895  1
  O  O12  1  0.87968009  0.37187838  0.64452478  1
  O  O13  1  0.49219929  0.12031991  0.64452478  1
  O  O14  1  0.62812162  0.50780071  0.64452478  1
  O  O15  1  0.87968009  0.50780071  0.14452478  1
  O  O16  1  0.62812162  0.12031991  0.14452478  1
  O  O17  1  0.49219929  0.37187838  0.14452478  1
  O  O18  1  0.46485443  0.30199074  0.02507838  1
  O  O19  1  0.83713731  0.53514557  0.02507838  1
  O  O20  1  0.69800926  0.16286269  0.02507838  1
  O  O21  1  0.46485443  0.16286269  0.52507838  1
  O  O22  1  0.69800926  0.53514557  0.52507838  1
  O  O23  1  0.83713731  0.30199074  0.52507838  1
  O  O24  1  0.52708906  0.69628223  0.97132481  1
  O  O25  1  0.16919218  0.47291094  0.97132481  1
  O  O26  1  0.30371777  0.83080782  0.97132481  1
  O  O27  1  0.52708906  0.83080782  0.47132481  1
  O  O28  1  0.30371777  0.47291094  0.47132481  1
  O  O29  1  0.16919218  0.69628223  0.47132481  1
  O  O30  1  0.13823836  0.63106090  0.35867637  1
  O  O31  1  0.49282154  0.86176164  0.35867637  1
  O  O32  1  0.36893910  0.50717846  0.35867637  1
  O  O33  1  0.13823836  0.50717846  0.85867637  1
  O  O34  1  0.36893910  0.86176164  0.85867637  1
  O  O35  1  0.49282154  0.63106090  0.85867637  1
  O  O36  1  0.02038019  0.83152036  0.40974951  1
  O  O37  1  0.81114018  0.97961981  0.40974951  1
  O  O38  1  0.16847964  0.18885982  0.40974951  1
  O  O39  1  0.02038019  0.18885982  0.90974951  1
  O  O40  1  0.16847964  0.97961981  0.90974951  1
  O  O41  1  0.81114018  0.83152036  0.90974951  1
  O  O42  1  0.97536051  0.16267430  0.59349368  1
  O  O43  1  0.18731379  0.02463949  0.59349368  1
  O  O44  1  0.83732570  0.81268621  0.59349368  1
  O  O45  1  0.97536051  0.81268621  0.09349368  1
  O  O46  1  0.83732570  0.02463949  0.09349368  1
  O  O47  1  0.18731379  0.16267430  0.09349368  1
  O  O48  1  0.68687052  0.15007228  0.74733318  1
  O  O49  1  0.46320275  0.31312948  0.74733318  1
  O  O50  1  0.84992772  0.53679725  0.74733318  1
  O  O51  1  0.68687052  0.53679725  0.24733318  1
  O  O52  1  0.84992772  0.31312948  0.24733318  1
  O  O53  1  0.46320275  0.15007228  0.24733318  1
  O  O54  1  0.63083910  0.48673199  0.92063285  1
  O  O55  1  0.85589388  0.36916090  0.92063285  1
  O  O56  1  0.51326801  0.14410612  0.92063285  1
  O  O57  1  0.63083910  0.14410612  0.42063285  1
  O  O58  1  0.51326801  0.36916090  0.42063285  1
  O  O59  1  0.85589388  0.48673199  0.42063285  1
  O  O60  1  0.34710772  0.49588149  0.07333569  1
  O  O61  1  0.14877277  0.65289228  0.07333569  1
  O  O62  1  0.50411851  0.85122723  0.07333569  1
  O  O63  1  0.34710772  0.85122723  0.57333569  1
  O  O64  1  0.50411851  0.65289228  0.57333569  1
  O  O65  1  0.14877277  0.49588149  0.57333569  1
  O  O66  1  0.30178030  0.83589368  0.25346655  1
  O  O67  1  0.53411238  0.69821970  0.25346655  1
  O  O68  1  0.16410632  0.46588762  0.25346655  1
  O  O69  1  0.30178030  0.46588762  0.75346655  1
  O  O70  1  0.16410632  0.69821970  0.75346655  1
  O  O71  1  0.53411238  0.83589368  0.75346655  1
loop_
_geom_bond_atom_site_label_1
_geom_bond_atom_site_label_2
_geom_bond_distance
_geom_bond_site_symmetry_2
Na0 O40 2.386533 1_655
Na0 O41 2.402040 1_555
Na0 O55 2.444970 1_555
Na0 O54 2.625423 1_555
Na0 O4 2.677003 1_555
Na0 O19 2.758299 1_556
Na0 O26 2.904133 1_655
Na0 O33 2.973966 1_655
Na1 O41 2.386540 1_545
Na1 O39 2.402048 1_655
Na1 O56 2.444954 1_555
Na1 O55 2.625421 1_555
Na1 O5 2.677006 1_555
Na1 O20 2.758294 1_556
Na1 O24 2.904133 1_545
Na1 O34 2.973966 1_545
Na2 O39 2.386532 1_555
Na2 O40 2.402048 1_545
Na2 O54 2.444968 1_555
Na2 O56 2.625438 1_555
Na2 O3 2.677004 1_555
Na2 O18 2.758302 1_556
Na2 O25 2.904133 1_555
Na2 O35 2.973966 1_555
Na3 O38 2.386540 1_655
Na3 O37 2.402048 1_545
Na3 O59 2.444954 1_555
Na3 O57 2.625421 1_555
Na3 O2 2.677006 1_555
Na3 O23 2.758294 1_555
Na3 O28 2.904133 1_655
Na3 O30 2.973966 1_655
Na4 O36 2.386533 1_545
Na4 O38 2.402040 1_555
Na4 O57 2.444970 1_555
Na4 O58 2.625423 1_555
Na4 O0 2.677003 1_555
Na4 O21 2.758299 1_555
Na4 O29 2.904133 1_545
Na4 O31 2.973966 1_545
Na5 O37 2.386532 1_555
Na5 O36 2.402048 1_655
Na5 O58 2.444968 1_555
Na5 O59 2.625438 1_555
Na5 O1 2.677004 1_555
Na5 O22 2.758302 1_555
Na5 O27 2.904133 1_555
Na5 O32 2.973966 1_555
Na6 O38 2.476894 1_555
Na6 O37 2.476894 1_445
Na6 O36 2.476894 1_545
Na6 O44 2.784740 1_445
Na6 O42 2.784740 1_455
Na6 O43 2.784740 1_555
Na7 O39 2.476894 1_555
Na7 O41 2.476894 1_445
Na7 O40 2.476894 1_545
Na7 O45 2.784740 1_446
Na7 O47 2.784740 1_556
Na7 O46 2.784740 1_456
Na8 O48 2.520314 1_555
Na8 O50 2.520314 1_555
Na8 O49 2.520314 1_555
Na8 O56 2.629545 1_555
Na8 O55 2.629545 1_555
Na8 O54 2.629545 1_555
Na9 O52 2.520314 1_555
Na9 O53 2.520314 1_555
Na9 O51 2.520314 1_555
Na9 O57 2.629545 1_555
Na9 O59 2.629545 1_555
Na9 O58 2.629545 1_555
Na10 O62 2.573985 1_555
Na10 O60 2.573985 1_555
Na10 O61 2.573985 1_555
Na10 O68 2.667326 1_555
Na10 O66 2.667326 1_555
Na10 O67 2.667326 1_555
Na11 O63 2.573985 1_555
Na11 O65 2.573985 1_555
Na11 O64 2.573985 1_555
Na11 O69 2.667326 1_555
Na11 O71 2.667326 1_555
Na11 O70 2.667326 1_555
Mg0 O38 2.067258 1_555
Mg0 O37 2.067258 1_445
Mg0 O36 2.067258 1_545
Mg0 O1 2.096435 1_445
Mg0 O2 2.096435 1_455
Mg0 O0 2.096435 1_555
Mg1 O39 2.067258 1_555
Mg1 O41 2.067258 1_445
Mg1 O40 2.067258 1_545
Mg1 O4 2.096435 1_445
Mg1 O3 2.096435 1_555
Mg1 O5 2.096435 1_455
Mg2 O13 1.948098 1_555
Mg2 O14 1.948098 1_555
Mg2 O12 1.948098 1_555
Mg2 O48 2.306939 1_555
Mg2 O50 2.306939 1_555
Mg2 O49 2.306939 1_555
Mg3 O16 1.948098 1_555
Mg3 O15 1.948098 1_555
Mg3 O17 1.948098 1_555
Mg3 O52 2.306939 1_555
Mg3 O53 2.306939 1_555
Mg3 O51 2.306939 1_555
Nb0 O44 1.891633 1_445
Nb0 O42 1.891633 1_455
Nb0 O43 1.891633 1_555
Nb0 O7 2.193673 1_555
Nb0 O8 2.193673 1_545
Nb0 O6 2.193673 1_445
Nb1 O45 1.891633 1_445
Nb1 O47 1.891633 1_555
Nb1 O46 1.891633 1_455
Nb1 O10 2.193673 1_555
Nb1 O9 2.193673 1_445
Nb1 O11 2.193673 1_545
Nb2 O19 1.941828 1_556
Nb2 O20 1.941828 1_556
Nb2 O18 1.941828 1_556
Nb2 O56 2.107792 1_555
Nb2 O55 2.107792 1_555
Nb2 O54 2.107792 1_555
Nb3 O22 1.941828 1_555
Nb3 O21 1.941828 1_555
Nb3 O23 1.941828 1_555
Nb3 O57 2.107792 1_555
Nb3 O59 2.107792 1_555
Nb3 O58 2.107792 1_555
Nb4 O62 1.963475 1_555
Nb4 O60 1.963475 1_555
Nb4 O61 1.963475 1_555
Nb4 O26 2.005018 1_554
Nb4 O25 2.005018 1_554
Nb4 O24 2.005018 1_554
Nb5 O63 1.963475 1_555
Nb5 O65 1.963475 1_555
Nb5 O64 1.963475 1_555
Nb5 O29 2.005018 1_555
Nb5 O27 2.005018 1_555
Nb5 O28 2.005018 1_555
Nb6 O31 1.896857 1_555
Nb6 O32 1.896857 1_555
Nb6 O30 1.896857 1_555
Nb6 O68 2.183443 1_555
Nb6 O66 2.183443 1_555
Nb6 O67 2.183443 1_555
Nb7 O34 1.896857 1_555
Nb7 O33 1.896857 1_555
Nb7 O35 1.896857 1_555
Nb7 O69 2.183443 1_555
Nb7 O71 2.183443 1_555
Nb7 O70 2.183443 1_555
O0 S0 1.481279 1_555
O1 S1 1.481279 1_555
O2 S2 1.481279 1_555
O3 S3 1.481279 1_555
O4 S4 1.481279 1_555
O5 S5 1.481279 1_555
O6 S5 1.496980 1_565
O7 S3 1.496980 1_555
O8 S4 1.496979 1_455
O9 S1 1.496979 1_555
O10 S2 1.496980 1_455
O11 S0 1.496980 1_565
O12 Si0 1.558677 1_555
O13 Si1 1.558677 1_555
O14 Si2 1.558677 1_555
O15 Si3 1.558677 1_555
O16 Si4 1.558677 1_555
O17 Si5 1.558677 1_555
O18 Si5 1.691767 1_555
O19 Si3 1.691767 1_555
O20 Si4 1.691767 1_555
O21 Si1 1.691767 1_555
O22 Si2 1.691767 1_555
O23 Si0 1.691767 1_555
O24 Si6 1.611791 1_555
O25 Si7 1.611791 1_555
O26 Si8 1.611791 1_555
O27 Si9 1.611791 1_555
O28 Si10 1.611791 1_555
O29 Si11 1.611791 1_555
O30 Si11 1.692354 1_555
O31 Si9 1.692354 1_555
O32 Si10 1.692354 1_555
O33 Si7 1.692354 1_555
O34 Si8 1.692354 1_555
O35 Si6 1.692354 1_555
O36 Si11 1.602829 1_555
O37 Si9 1.602838 1_555
O38 Si10 1.602834 1_555
O39 Si7 1.602838 1_555
O40 Si8 1.602829 1_555
O41 Si6 1.602834 1_555
O42 Si0 1.693643 1_555
O43 Si1 1.693652 1_555
O44 Si2 1.693648 1_555
O45 Si3 1.693652 1_555
O46 Si4 1.693643 1_555
O47 Si5 1.693648 1_555
O48 S5 1.455189 1_555
O49 S3 1.455198 1_555
O50 S4 1.455195 1_555
O51 S1 1.455198 1_555
O52 S2 1.455189 1_555
O53 S0 1.455195 1_555
O54 Si6 1.640403 1_555
O55 Si7 1.640385 1_655
O56 Si8 1.640394 1_545
O57 Si9 1.640385 1_545
O58 Si10 1.640403 1_555
O59 Si11 1.640394 1_655
O60 Si5 1.631297 1_555
O61 Si3 1.631280 1_455
O62 Si4 1.631286 1_565
O63 Si1 1.631280 1_565
O64 Si2 1.631297 1_555
O65 Si0 1.631286 1_455
O66 S0 1.532932 1_565
O67 S1 1.532941 1_555
O68 S2 1.532937 1_455
O69 S3 1.532941 1_555
O70 S4 1.532932 1_455
O71 S5 1.532937 1_565
