# generated using pymatgen
data_Na6Zr4Si7Ge4S5O48
_symmetry_space_group_name_H-M   'P 1'
_cell_length_a   17.66455825
_cell_length_b   8.83257490
_cell_length_c   22.67748310
_cell_angle_alpha   89.90167343
_cell_angle_beta   89.60501861
_cell_angle_gamma   119.90974122
_symmetry_Int_Tables_number   1
_chemical_formula_structural   Na6Zr4Si7Ge4S5O48
_chemical_formula_sum   'Na18 Zr12 Si21 Ge12 S15 O144'
_cell_volume   3066.84532963
_cell_formula_units_Z   3
loop_
 _symmetry_equiv_pos_site_id
 _symmetry_equiv_pos_as_xyz
  1  'x, y, z'
loop_
 _atom_site_type_symbol
 _atom_site_label
 _atom_site_symmetry_multiplicity
 _atom_site_fract_x
 _atom_site_fract_y
 _atom_site_fract_z
 _atom_site_occupancy
  Na  Na0  1  0.99915031  0.62889764  0.25163399  1
  Na  Na1  1  0.49856639  0.63914125  0.24665201  1
  Na  Na2  1  0.99930773  0.35718632  0.75231142  1
  Na  Na3  1  0.49889107  0.37044066  0.75327493  1
  Na  Na4  1  0.66600679  0.31560358  0.91796595  1
  Na  Na5  1  0.16682017  0.02021592  0.41484943  1
  Na  Na6  1  0.99804279  0.99014132  0.50528007  1
  Na  Na7  1  0.49808792  0.99507454  0.49741392  1
  Na  Na8  1  0.99879489  0.00134184  0.99854993  1
  Na  Na9  1  0.49742425  0.00125374  0.00711690  1
  Na  Na10  1  0.33187938  0.33442644  0.83545256  1
  Na  Na11  1  0.83408322  0.33263340  0.83475123  1
  Na  Na12  1  0.33394378  0.33613826  0.32990499  1
  Na  Na13  1  0.83227304  0.32825285  0.33172142  1
  Na  Na14  1  0.17448044  0.67152318  0.16679099  1
  Na  Na15  1  0.67015283  0.66757205  0.16052443  1
  Na  Na16  1  0.17440415  0.67727112  0.66379256  1
  Na  Na17  1  0.67295159  0.67639178  0.66847973  1
  Zr  Zr0  1  0.99703972  0.99290385  0.35167584  1
  Zr  Zr1  1  0.49630972  0.99937559  0.85306397  1
  Zr  Zr2  1  0.32108075  0.32290358  0.69003758  1
  Zr  Zr3  1  0.82718916  0.33301919  0.68531399  1
  Zr  Zr4  1  0.33293244  0.32884095  0.18209111  1
  Zr  Zr5  1  0.82118745  0.31862237  0.18970652  1
  Zr  Zr6  1  0.83447513  0.34121943  0.98200438  1
  Zr  Zr7  1  0.33482638  0.32884006  0.48101921  1
  Zr  Zr8  1  0.16850871  0.67321420  0.30751530  1
  Zr  Zr9  1  0.66699268  0.67353036  0.30949058  1
  Zr  Zr10  1  0.16968285  0.66357972  0.81245137  1
  Zr  Zr11  1  0.66828895  0.66446361  0.80968619  1
  Si  Si0  1  0.14642731  0.00917018  0.24808784  1
  Si  Si1  1  0.63199965  0.00310400  0.25092056  1
  Si  Si2  1  0.36159279  0.72193020  0.24615495  1
  Si  Si3  1  0.85500033  0.71215343  0.24643526  1
  Si  Si4  1  0.99955598  0.28638683  0.24791846  1
  Si  Si5  1  0.13185647  0.26331233  0.75155135  1
  Si  Si6  1  0.64362943  0.28407581  0.74903186  1
  Si  Si7  1  0.49994134  0.71200108  0.74801950  1
  Si  Si8  1  0.35393251  0.99653124  0.74691160  1
  Si  Si9  1  0.86137247  0.99889259  0.74675629  1
  Si  Si10  1  0.17914632  0.03062889  0.58336490  1
  Si  Si11  1  0.83079257  0.63781663  0.58155428  1
  Si  Si12  1  0.48671483  0.62944752  0.08045320  1
  Si  Si13  1  0.33011565  0.02502433  0.08152437  1
  Si  Si14  1  0.67934822  0.32595099  0.08376513  1
  Si  Si15  1  0.81503292  0.68341665  0.91784809  1
  Si  Si16  1  0.02599926  0.38175903  0.91957857  1
  Si  Si17  1  0.51726473  0.37731149  0.91848097  1
  Si  Si18  1  0.31955835  0.95556688  0.41426552  1
  Si  Si19  1  0.01786747  0.65681122  0.41951813  1
  Si  Si20  1  0.52633579  0.67325519  0.41950707  1
  Ge  Ge0  1  0.49271946  0.95789058  0.35458082  1
  Ge  Ge1  1  0.99266935  0.02867145  0.85748308  1
  Ge  Ge2  1  0.99805812  0.99360900  0.64648308  1
  Ge  Ge3  1  0.49838759  0.99510151  0.66203376  1
  Ge  Ge4  1  0.99940788  0.00396853  0.15956868  1
  Ge  Ge5  1  0.49621631  0.97646917  0.13867912  1
  Ge  Ge6  1  0.35487120  0.33669267  0.98914465  1
  Ge  Ge7  1  0.84161691  0.36674332  0.48446860  1
  Ge  Ge8  1  0.16741273  0.66794438  0.01759910  1
  Ge  Ge9  1  0.66271722  0.63313125  0.02015768  1
  Ge  Ge10  1  0.17543471  0.71154899  0.51429211  1
  Ge  Ge11  1  0.66712325  0.66550772  0.51684437  1
  S  S0  1  0.49942259  0.27724012  0.25078827  1
  S  S1  1  0.00016879  0.71960417  0.75028440  1
  S  S2  1  0.48535075  0.33234944  0.58384208  1
  S  S3  1  0.98238180  0.33699102  0.58051323  1
  S  S4  1  0.68527301  0.03816141  0.57979254  1
  S  S5  1  0.33367853  0.63802054  0.58263462  1
  S  S6  1  0.98516179  0.63845094  0.08409934  1
  S  S7  1  0.83561520  0.03158051  0.08338039  1
  S  S8  1  0.18489056  0.33103195  0.07934937  1
  S  S9  1  0.31000897  0.65565219  0.92145110  1
  S  S10  1  0.16760540  0.96203532  0.91895839  1
  S  S11  1  0.66610094  0.95112867  0.91998879  1
  S  S12  1  0.80998209  0.96179347  0.42167209  1
  S  S13  1  0.16563924  0.38259821  0.42094966  1
  S  S14  1  0.66788660  0.37510044  0.41981404  1
  O  O0  1  0.10499235  0.03196489  0.30996120  1
  O  O1  1  0.59239244  0.03538118  0.31273240  1
  O  O2  1  0.41830802  0.79382878  0.30773384  1
  O  O3  1  0.91356510  0.79165184  0.30538315  1
  O  O4  1  0.48644471  0.17851826  0.30550841  1
  O  O5  1  0.98263694  0.17062385  0.30713786  1
  O  O6  1  0.09008017  0.14617705  0.81179808  1
  O  O7  1  0.60422956  0.17580064  0.80972718  1
  O  O8  1  0.48236939  0.79487160  0.80637583  1
  O  O9  1  0.98482434  0.79071717  0.80336305  1
  O  O10  1  0.41377614  0.03508910  0.80480093  1
  O  O11  1  0.92013804  0.04426934  0.80702231  1
  O  O12  1  0.39783410  0.96350757  0.68749765  1
  O  O13  1  0.90520527  0.96610882  0.68831751  1
  O  O14  1  0.07456090  0.18566840  0.69156589  1
  O  O15  1  0.58046289  0.19659470  0.69046774  1
  O  O16  1  0.01473106  0.81964827  0.69523160  1
  O  O17  1  0.51904271  0.83423348  0.68771118  1
  O  O18  1  0.40570654  0.84532567  0.18902608  1
  O  O19  1  0.89943342  0.83466936  0.18778702  1
  O  O20  1  0.01862885  0.20257278  0.18847206  1
  O  O21  1  0.51382923  0.20771303  0.19715593  1
  O  O22  1  0.07979521  0.96414736  0.19101485  1
  O  O23  1  0.57479762  0.96251672  0.19197784  1
  O  O24  1  0.44673526  0.36346120  0.63702708  1
  O  O25  1  0.94276694  0.36458727  0.63471694  1
  O  O26  1  0.24464440  0.12077556  0.63807923  1
  O  O27  1  0.73907539  0.11488069  0.63335661  1
  O  O28  1  0.32069130  0.52953968  0.63566265  1
  O  O29  1  0.81200805  0.50696515  0.63727084  1
  O  O30  1  0.44542379  0.51132415  0.14008234  1
  O  O31  1  0.94675323  0.53062581  0.13740511  1
  O  O32  1  0.30796845  0.11167432  0.13741540  1
  O  O33  1  0.82392490  0.11740994  0.13620755  1
  O  O34  1  0.23751107  0.36241518  0.13354019  1
  O  O35  1  0.74609031  0.36585481  0.13803413  1
  O  O36  1  0.22755175  0.30503272  0.02708320  1
  O  O37  1  0.72307629  0.29438732  0.02390683  1
  O  O38  1  0.41649087  0.53631311  0.02513232  1
  O  O39  1  0.92959367  0.55195894  0.03197247  1
  O  O40  1  0.34786414  0.15352413  0.02330714  1
  O  O41  1  0.85012126  0.14491751  0.03070503  1
  O  O42  1  0.22155078  0.14619439  0.52335525  1
  O  O43  1  0.72974895  0.15355085  0.52671459  1
  O  O44  1  0.34756274  0.55374893  0.53034168  1
  O  O45  1  0.85043155  0.54402602  0.52432669  1
  O  O46  1  0.42950702  0.30781324  0.53184291  1
  O  O47  1  0.92187541  0.30541041  0.52825488  1
  O  O48  1  0.26890901  0.69147690  0.97333154  1
  O  O49  1  0.76572887  0.70774890  0.97617788  1
  O  O50  1  0.09015639  0.48323838  0.97592410  1
  O  O51  1  0.58447058  0.46767046  0.97315095  1
  O  O52  1  0.15316071  0.84585843  0.97194044  1
  O  O53  1  0.65526000  0.84882714  0.97190086  1
  O  O54  1  0.27580574  0.83595056  0.47524914  1
  O  O55  1  0.76919595  0.84652622  0.47409788  1
  O  O56  1  0.15459877  0.46644228  0.47384783  1
  O  O57  1  0.65462751  0.46097969  0.47309133  1
  O  O58  1  0.08510536  0.69662243  0.47561520  1
  O  O59  1  0.58973195  0.69874104  0.47680101  1
  O  O60  1  0.05640805  0.62624270  0.35868871  1
  O  O61  1  0.56565848  0.63594741  0.36026845  1
  O  O62  1  0.25051255  0.87064620  0.36152990  1
  O  O63  1  0.75957964  0.88222059  0.36758408  1
  O  O64  1  0.17849061  0.48166232  0.36600536  1
  O  O65  1  0.68606412  0.48504821  0.36673071  1
  O  O66  1  0.06445569  0.49251740  0.85870592  1
  O  O67  1  0.55607958  0.48504971  0.85708886  1
  O  O68  1  0.18330918  0.88119868  0.86546255  1
  O  O69  1  0.67872127  0.87842181  0.86458312  1
  O  O70  1  0.25944914  0.63885553  0.86671901  1
  O  O71  1  0.75189251  0.63319265  0.86112821  1
  O  O72  1  0.01249397  0.83669467  0.41900027  1
  O  O73  1  0.51903467  0.85109505  0.41441811  1
  O  O74  1  0.41819432  0.98512650  0.40607052  1
  O  O75  1  0.89721318  0.98041034  0.41764776  1
  O  O76  1  0.08871973  0.20363536  0.41774731  1
  O  O77  1  0.58978146  0.20497710  0.41517205  1
  O  O78  1  0.01972245  0.18989576  0.91499587  1
  O  O79  1  0.51138933  0.18579255  0.91666649  1
  O  O80  1  0.08695051  0.97010035  0.91339439  1
  O  O81  1  0.58899783  0.97765091  0.91566653  1
  O  O82  1  0.39697119  0.81289244  0.91660488  1
  O  O83  1  0.91527636  0.85064966  0.90703632  1
  O  O84  1  0.49336285  0.17367601  0.58786149  1
  O  O85  1  0.98730745  0.17568563  0.58467625  1
  O  O86  1  0.08336249  0.01388160  0.59414282  1
  O  O87  1  0.59858515  0.02310538  0.58573330  1
  O  O88  1  0.41353172  0.81328424  0.58770335  1
  O  O89  1  0.91854641  0.82640819  0.59038117  1
  O  O90  1  0.49035205  0.81620277  0.08543158  1
  O  O91  1  0.99305549  0.81284848  0.08796890  1
  O  O92  1  0.41784709  0.01381661  0.08946370  1
  O  O93  1  0.91720913  0.01888918  0.08831622  1
  O  O94  1  0.09670002  0.17251681  0.08615671  1
  O  O95  1  0.58403167  0.15622724  0.09436885  1
  O  O96  1  0.35162753  0.17643388  0.74185306  1
  O  O97  1  0.85706067  0.18049857  0.73947779  1
  O  O98  1  0.23117705  0.29910076  0.74800063  1
  O  O99  1  0.73976205  0.30454999  0.74496511  1
  O  O100  1  0.41607006  0.51874988  0.73985094  1
  O  O101  1  0.92431009  0.53632692  0.74303313  1
  O  O102  1  0.35467836  0.53000868  0.24214499  1
  O  O103  1  0.85217263  0.52681392  0.24227363  1
  O  O104  1  0.42291809  0.30851182  0.24660154  1
  O  O105  1  0.91630074  0.31432642  0.24122231  1
  O  O106  1  0.24196392  0.17803480  0.24502832  1
  O  O107  1  0.73216167  0.16439084  0.24896107  1
  O  O108  1  0.31432113  0.49533964  0.92643170  1
  O  O109  1  0.82226522  0.50431420  0.92552154  1
  O  O110  1  0.41900902  0.35807562  0.92498898  1
  O  O111  1  0.92812942  0.35115613  0.92645614  1
  O  O112  1  0.24530146  0.13633411  0.92551351  1
  O  O113  1  0.74502310  0.13336558  0.92244798  1
  O  O114  1  0.32298127  0.14340247  0.42473169  1
  O  O115  1  0.81592339  0.13532864  0.42838847  1
  O  O116  1  0.24419151  0.35909215  0.42440851  1
  O  O117  1  0.74859763  0.35576982  0.42734465  1
  O  O118  1  0.42869114  0.50732256  0.42797455  1
  O  O119  1  0.91972876  0.47646954  0.42679109  1
  O  O120  1  0.17642351  0.49296629  0.07436993  1
  O  O121  1  0.67836242  0.51040778  0.07715786  1
  O  O122  1  0.07252095  0.65113456  0.07534475  1
  O  O123  1  0.58432343  0.65610314  0.06834625  1
  O  O124  1  0.24067841  0.83113307  0.06861583  1
  O  O125  1  0.75635447  0.86267831  0.07774527  1
  O  O126  1  0.17426947  0.83660185  0.57646105  1
  O  O127  1  0.67804620  0.86287048  0.57450595  1
  O  O128  1  0.25160805  0.64633317  0.57645696  1
  O  O129  1  0.74142528  0.65090329  0.56873481  1
  O  O130  1  0.06931273  0.49138577  0.57332274  1
  O  O131  1  0.57285528  0.49400431  0.57515889  1
  O  O132  1  0.14754911  0.82638228  0.25024417  1
  O  O133  1  0.64360994  0.82737337  0.25697476  1
  O  O134  1  0.26474439  0.69626913  0.25341972  1
  O  O135  1  0.75956391  0.69126922  0.25218342  1
  O  O136  1  0.08527947  0.47849041  0.25135565  1
  O  O137  1  0.57809706  0.46102280  0.25649120  1
  O  O138  1  0.14319163  0.46157610  0.75622996  1
  O  O139  1  0.64807262  0.47068670  0.74988883  1
  O  O140  1  0.07859278  0.69578171  0.75454464  1
  O  O141  1  0.58553292  0.69122368  0.75063117  1
  O  O142  1  0.25816715  0.82651145  0.75119442  1
  O  O143  1  0.76456615  0.83438626  0.75276208  1
loop_
_geom_bond_atom_site_label_1
_geom_bond_atom_site_label_2
_geom_bond_distance
_geom_bond_site_symmetry_2
Na0 O103 2.296186 1_555
Na0 O132 2.313862 1_655
Na0 O105 2.422667 1_555
Na0 O136 2.468855 1_655
Na0 O60 2.640973 1_655
Na0 O31 2.749539 1_555
Na0 O3 2.825919 1_555
Na0 O22 2.905102 1_655
Na1 O102 2.227221 1_555
Na1 O133 2.268252 1_555
Na1 O104 2.534203 1_555
Na1 O137 2.589566 1_555
Na1 O30 2.641989 1_555
Na1 O23 2.763662 1_555
Na1 O2 2.776075 1_555
Na1 O61 2.849405 1_555
Na2 O97 2.221480 1_555
Na2 O138 2.232558 1_655
Na2 O101 2.529057 1_555
Na2 O140 2.594718 1_655
Na2 O11 2.691410 1_555
Na2 O66 2.692752 1_655
Na2 O14 2.819583 1_655
Na2 O25 2.866110 1_555
Na3 O96 2.309938 1_555
Na3 O139 2.324723 1_555
Na3 O100 2.421777 1_555
Na3 O141 2.459146 1_555
Na3 O67 2.570765 1_555
Na3 O24 2.789195 1_555
Na3 O10 2.814617 1_555
Na3 O15 2.940824 1_555
Na4 O79 2.377692 1_555
Na4 O109 2.417805 1_555
Na4 O81 2.591412 1_545
Na4 O113 2.606038 1_555
Na4 O37 2.653962 1_556
Na4 O51 2.711975 1_555
Na4 O7 2.728391 1_555
Na4 O71 2.747416 1_555
Na5 O72 2.378469 1_545
Na5 O114 2.420669 1_555
Na5 O76 2.600063 1_555
Na5 O116 2.607784 1_555
Na5 O0 2.647513 1_555
Na5 O42 2.682710 1_555
Na5 O62 2.705834 1_545
Na5 O58 2.827769 1_545
Na6 O89 2.390736 1_555
Na6 O72 2.465289 1_655
Na6 O86 2.470738 1_665
Na6 O85 2.505775 1_565
Na6 O76 2.644419 1_665
Na6 O75 2.650612 1_555
Na7 O73 2.400932 1_555
Na7 O74 2.491499 1_555
Na7 O77 2.547717 1_565
Na7 O88 2.560541 1_555
Na7 O87 2.614694 1_565
Na7 O84 2.615849 1_565
Na8 O78 2.421993 1_655
Na8 O83 2.519602 1_545
Na8 O93 2.535422 1_556
Na8 O80 2.572783 1_645
Na8 O94 2.583391 1_656
Na8 O91 2.590621 1_546
Na9 O92 2.365505 1_555
Na9 O90 2.371617 1_545
Na9 O95 2.468175 1_555
Na9 O79 2.550594 1_554
Na9 O82 2.692129 1_544
Na9 O81 2.693059 1_544
Na10 O110 2.501835 1_555
Na10 O98 2.586888 1_555
Na10 O108 2.610324 1_555
Na10 O112 2.616791 1_555
Na10 O96 2.657052 1_555
Na10 O100 2.662958 1_555
Na11 O99 2.572879 1_555
Na11 O113 2.590624 1_555
Na11 O111 2.624742 1_555
Na11 O109 2.626912 1_555
Na11 O97 2.679591 1_555
Na11 O101 2.680497 1_555
Na12 O106 2.466663 1_555
Na12 O102 2.525858 1_555
Na12 O104 2.538034 1_555
Na12 O114 2.685665 1_555
Na12 O116 2.724480 1_555
Na12 O118 2.751825 1_555
Na13 O107 2.499404 1_555
Na13 O105 2.563428 1_555
Na13 O103 2.584020 1_555
Na13 O119 2.605229 1_555
Na13 O117 2.694822 1_555
Na13 O115 2.698209 1_555
Na14 O134 2.479228 1_555
Na14 O132 2.514795 1_555
Na14 O136 2.517005 1_555
Na14 O124 2.573102 1_555
Na14 O120 2.635434 1_555
Na14 O122 2.702984 1_555
Na15 O121 2.393361 1_555
Na15 O125 2.478896 1_555
Na15 O123 2.563169 1_555
Na15 O135 2.564366 1_555
Na15 O133 2.766325 1_555
Na15 O137 2.772694 1_555
Na16 O126 2.428282 1_555
Na16 O142 2.441261 1_555
Na16 O128 2.488654 1_555
Na16 O138 2.692699 1_555
Na16 O140 2.712147 1_555
Na16 O130 2.715789 1_555
Na17 O143 2.453387 1_555
Na17 O141 2.456704 1_555
Na17 O139 2.466488 1_555
Na17 O129 2.620264 1_555
Na17 O127 2.664586 1_555
Na17 O131 2.724490 1_555
Ge0 O2 1.755348 1_555
Ge0 O1 1.800562 1_565
Ge0 O73 1.840865 1_555
Ge0 O74 1.857401 1_555
Ge0 O4 2.292996 1_565
Ge0 O77 2.429357 1_565
Ge1 O11 1.779248 1_555
Ge1 O78 1.814824 1_655
Ge1 O6 1.817172 1_655
Ge1 O83 1.852888 1_545
Ge1 O80 2.352668 1_645
Ge1 O9 2.379825 1_545
Ge2 O13 1.797148 1_555
Ge2 O86 1.848532 1_665
Ge2 O14 1.867612 1_665
Ge2 O89 1.932572 1_555
Ge2 O16 2.029708 1_655
Ge2 O85 2.210756 1_565
Ge3 O17 1.734415 1_555
Ge3 O12 1.748520 1_555
Ge3 O15 1.768822 1_565
Ge3 O88 2.304485 1_555
Ge3 O84 2.336128 1_565
Ge3 O87 2.389047 1_565
Ge4 O20 1.742159 1_655
Ge4 O19 1.764054 1_545
Ge4 O22 1.777598 1_645
Ge4 O93 2.226888 1_555
Ge4 O91 2.306867 1_545
Ge4 O94 2.311273 1_655
Ge5 O18 1.823434 1_555
Ge5 O90 1.825928 1_555
Ge5 O95 1.858418 1_565
Ge5 O23 1.896351 1_555
Ge5 O92 1.935551 1_565
Ge5 O21 2.325582 1_565
Ge6 O40 1.740006 1_556
Ge6 O38 1.750093 1_556
Ge6 O110 1.788553 1_555
Ge6 O36 2.285144 1_556
Ge6 O108 2.346780 1_555
Ge6 O112 2.364650 1_555
Ge7 O45 1.748376 1_555
Ge7 O119 1.786372 1_555
Ge7 O47 2.018141 1_555
Ge7 O117 2.063590 1_555
Ge7 O43 2.150679 1_555
Ge7 O115 2.256759 1_555
Ge8 O50 1.794406 1_554
Ge8 O124 1.804729 1_555
Ge8 O48 1.966785 1_554
Ge8 O52 1.999363 1_554
Ge8 O122 2.065791 1_555
Ge8 O120 2.076705 1_555
Ge9 O51 1.787120 1_554
Ge9 O121 1.794740 1_555
Ge9 O123 1.847464 1_555
Ge9 O49 1.875352 1_554
Ge9 O53 2.256024 1_554
Ge9 O125 2.290535 1_555
Ge10 O58 1.772740 1_555
Ge10 O54 1.779606 1_555
Ge10 O126 1.798800 1_555
Ge10 O56 2.209162 1_555
Ge10 O128 2.219473 1_555
Ge10 O130 2.325662 1_555
Ge11 O59 1.787760 1_555
Ge11 O129 1.820350 1_555
Ge11 O55 1.960283 1_555
Ge11 O57 1.976912 1_555
Ge11 O131 2.064837 1_555
Ge11 O127 2.112294 1_555
O0 Si0 1.636707 1_555
O0 Zr0 1.992037 1_445
O1 Si1 1.649973 1_555
O2 Si2 1.656780 1_555
O3 Si3 1.627313 1_555
O3 Zr0 1.962122 1_555
O4 S0 1.464843 1_555
O5 Si4 1.619662 1_555
O5 Zr0 1.986269 1_545
O6 Si5 1.643609 1_555
O7 Si6 1.616170 1_555
O7 Zr1 2.008647 1_545
O8 Si7 1.614830 1_555
O8 Zr1 2.002726 1_555
O9 S1 1.443865 1_655
O10 Si8 1.618180 1_545
O10 Zr1 1.975444 1_545
O11 Si9 1.646986 1_545
O12 Si8 1.647539 1_555
O13 Si9 1.628007 1_555
O14 Si5 1.635578 1_555
O15 Si6 1.664339 1_555
O16 S1 1.473347 1_555
O17 Si7 1.665883 1_555
O18 Si2 1.614863 1_555
O19 Si3 1.639993 1_555
O20 Si4 1.650698 1_455
O21 S0 1.440588 1_555
O22 Si0 1.665729 1_565
O23 Si1 1.610973 1_565
O24 S2 1.473845 1_555
O24 Zr2 2.380969 1_555
O25 S3 1.489737 1_555
O25 Zr3 2.227432 1_555
O26 Si10 1.617599 1_555
O26 Zr2 2.005979 1_555
O27 S4 1.488089 1_555
O27 Zr3 2.136719 1_555
O28 S5 1.479812 1_555
O28 Zr2 2.203760 1_555
O29 Si11 1.627602 1_555
O29 Zr3 2.007133 1_555
O30 Si12 1.634547 1_555
O30 Zr4 2.056356 1_555
O31 S6 1.472746 1_555
O31 Zr5 2.376339 1_555
O32 Si13 1.624922 1_555
O32 Zr4 2.017286 1_555
O33 S7 1.486053 1_555
O33 Zr5 2.173722 1_555
O34 S8 1.486953 1_555
O34 Zr4 2.159697 1_555
O35 Si14 1.623537 1_555
O35 Zr5 1.969410 1_555
O36 S8 1.478746 1_555
O37 Si14 1.648822 1_555
O37 Zr6 2.026686 1_554
O38 Si12 1.672331 1_555
O39 S6 1.488545 1_555
O39 Zr6 2.118112 1_554
O40 Si13 1.662452 1_555
O41 S7 1.493511 1_555
O41 Zr6 2.185836 1_554
O42 Si10 1.635124 1_555
O42 Zr7 2.068117 1_555
O43 S4 1.512954 1_555
O44 S5 1.483764 1_555
O44 Zr7 2.193933 1_555
O45 Si11 1.665812 1_555
O46 S2 1.488057 1_555
O46 Zr7 2.120309 1_555
O47 S3 1.531630 1_555
O48 S9 1.493323 1_555
O49 Si15 1.651122 1_555
O50 Si16 1.652680 1_555
O51 Si17 1.631615 1_555
O52 S10 1.513968 1_555
O53 S11 1.435165 1_555
O54 Si18 1.670944 1_555
O55 S12 1.490499 1_555
O56 S13 1.472872 1_555
O57 S14 1.505452 1_555
O58 Si19 1.660887 1_555
O59 Si20 1.662098 1_555
O60 Si19 1.615840 1_555
O60 Zr8 2.141830 1_555
O61 Si20 1.616379 1_555
O61 Zr9 2.004507 1_555
O62 Si18 1.609733 1_555
O62 Zr8 2.037730 1_555
O63 S12 1.478221 1_555
O63 Zr9 2.199933 1_555
O64 S13 1.471028 1_555
O64 Zr8 2.223959 1_555
O65 S14 1.474785 1_555
O65 Zr9 2.264484 1_555
O66 Si16 1.625978 1_555
O66 Zr10 2.001278 1_555
O67 Si17 1.626513 1_555
O67 Zr11 2.104265 1_555
O68 S10 1.501443 1_555
O68 Zr10 2.179048 1_555
O69 S11 1.477322 1_555
O69 Zr11 2.195240 1_555
O70 S9 1.497994 1_555
O70 Zr10 2.109004 1_555
O71 Si15 1.619745 1_555
O71 Zr11 2.011870 1_555
O72 Si19 1.638259 1_555
O72 Zr0 2.164089 1_455
O73 Si20 1.642842 1_555
O74 Si18 1.637140 1_555
O75 S12 1.468012 1_555
O75 Zr0 2.264724 1_555
O76 S13 1.486584 1_555
O76 Zr0 2.317130 1_445
O77 S14 1.451745 1_555
O78 Si16 1.645691 1_555
O79 Si17 1.642926 1_555
O79 Zr1 2.106766 1_545
O80 S10 1.467829 1_555
O81 S11 1.496482 1_555
O81 Zr1 2.253317 1_555
O82 S9 1.473164 1_555
O82 Zr1 2.223315 1_555
O83 Si15 1.661879 1_555
O84 S2 1.479892 1_555
O85 S3 1.472974 1_555
O86 Si10 1.639814 1_555
O87 S4 1.474698 1_555
O88 S5 1.491483 1_555
O89 Si11 1.627280 1_555
O90 Si12 1.622612 1_555
O91 S6 1.478629 1_555
O92 Si13 1.612663 1_555
O93 S7 1.505260 1_555
O94 S8 1.493904 1_555
O95 Si14 1.617421 1_555
O96 Si8 1.613602 1_545
O96 Zr2 2.011283 1_555
O97 Si9 1.651400 1_545
O97 Zr3 2.077047 1_555
O98 Si5 1.621544 1_555
O98 Zr2 1.982772 1_555
O99 Si6 1.617535 1_555
O99 Zr3 1.964925 1_555
O100 Si7 1.620413 1_555
O100 Zr2 2.054775 1_555
O101 S1 1.511246 1_655
O101 Zr3 2.201794 1_555
O102 Si2 1.640414 1_555
O102 Zr4 2.119956 1_555
O103 Si3 1.615643 1_555
O103 Zr5 2.028515 1_555
O104 S0 1.511811 1_555
O104 Zr4 2.239399 1_555
O105 Si4 1.616078 1_555
O105 Zr5 2.068715 1_555
O106 Si0 1.601643 1_555
O106 Zr4 2.054450 1_555
O107 Si1 1.626939 1_555
O107 Zr5 1.990632 1_555
O108 S9 1.459682 1_555
O109 Si15 1.658323 1_555
O109 Zr6 2.017349 1_555
O110 Si17 1.662951 1_555
O111 Si16 1.617511 1_655
O111 Zr6 2.039003 1_555
O112 S10 1.473869 1_545
O113 S11 1.516927 1_545
O113 Zr6 2.199157 1_555
O114 Si18 1.647428 1_545
O114 Zr7 2.006216 1_555
O115 S12 1.491365 1_545
O116 S13 1.504465 1_555
O116 Zr7 2.176369 1_555
O117 S14 1.528734 1_555
O118 Si20 1.622777 1_555
O118 Zr7 2.010149 1_555
O119 Si19 1.676626 1_655
O120 S8 1.514560 1_555
O121 Si14 1.644576 1_555
O122 S6 1.502200 1_455
O123 Si12 1.640773 1_555
O124 Si13 1.680596 1_565
O125 S7 1.456813 1_565
O126 Si10 1.680112 1_565
O127 S4 1.493837 1_565
O128 S5 1.495218 1_555
O129 Si11 1.666777 1_555
O130 S3 1.466879 1_455
O131 S2 1.503521 1_555
O132 Si0 1.625116 1_565
O132 Zr8 2.038196 1_555
O133 Si1 1.669495 1_565
O133 Zr9 1.999071 1_555
O134 Si2 1.616968 1_555
O134 Zr8 2.015296 1_555
O135 Si3 1.606190 1_555
O135 Zr9 2.025323 1_555
O136 Si4 1.617974 1_455
O136 Zr8 2.062322 1_555
O137 S0 1.528581 1_555
O137 Zr9 2.127875 1_555
O138 Si5 1.664100 1_555
O138 Zr10 2.052145 1_555
O139 Si6 1.610714 1_555
O139 Zr11 2.073863 1_555
O140 S1 1.505060 1_555
O140 Zr10 2.208776 1_555
O141 Si7 1.612777 1_555
O141 Zr11 2.087310 1_555
O142 Si8 1.609365 1_555
O142 Zr10 2.040545 1_555
O143 Si9 1.603814 1_555
O143 Zr11 2.056427 1_555
