# generated using pymatgen
data_Sr4MgMn2(ClO3)2
_symmetry_space_group_name_H-M   'P 1'
_cell_length_a   3.92726862
_cell_length_b   3.91322178
_cell_length_c   18.97510486
_cell_angle_alpha   90.00000000
_cell_angle_beta   90.00000000
_cell_angle_gamma   90.00000000
_symmetry_Int_Tables_number   1
_chemical_formula_structural   Sr4MgMn2(ClO3)2
_chemical_formula_sum   'Sr4 Mg1 Mn2 Cl2 O6'
_cell_volume   291.61459358
_cell_formula_units_Z   1
loop_
 _symmetry_equiv_pos_site_id
 _symmetry_equiv_pos_as_xyz
  1  'x, y, z'
loop_
 _atom_site_type_symbol
 _atom_site_label
 _atom_site_symmetry_multiplicity
 _atom_site_fract_x
 _atom_site_fract_y
 _atom_site_fract_z
 _atom_site_occupancy
  Sr  Sr0  1  0.25000000  0.25000000  0.10901273  1
  Sr  Sr1  1  0.75000000  0.75000000  0.96738290  1
  Sr  Sr2  1  0.25000000  0.25000000  0.30021489  1
  Sr  Sr3  1  0.75000000  0.75000000  0.74503254  1
  Mg  Mg0  1  0.75000000  0.25000000  0.57773801  1
  Mn  Mn0  1  0.75000000  0.75000000  0.20023673  1
  Mn  Mn1  1  0.25000000  0.25000000  0.86145565  1
  Cl  Cl0  1  0.75000000  0.75000000  0.37038998  1
  Cl  Cl1  1  0.25000000  0.25000000  0.50901359  1
  O  O0  1  0.75000000  0.25000000  0.21482239  1
  O  O1  1  0.25000000  0.75000000  0.21460141  1
  O  O2  1  0.25000000  0.75000000  0.82774234  1
  O  O3  1  0.75000000  0.25000000  0.67470721  1
  O  O4  1  0.75000000  0.75000000  0.08894373  1
  O  O5  1  0.25000000  0.25000000  0.96816991  1
loop_
_geom_bond_atom_site_label_1
_geom_bond_atom_site_label_2
_geom_bond_distance
_geom_bond_site_symmetry_2
Mg0 O3 1.840001 1_555
Mn0 O0 1.976088 1_565
Mn0 O0 1.976088 1_555
Mn0 O1 1.982462 1_555
Mn0 O1 1.982462 1_655
Mn0 O4 2.111796 1_555
Mn1 O5 2.024914 1_555
Mn1 O2 2.058533 1_545
Mn1 O2 2.058533 1_555
Cl0 Sr2 3.075271 1_565
Cl0 Sr2 3.075271 1_555
Cl0 Sr2 3.075271 1_655
Cl0 Sr2 3.075271 1_665
Cl1 Mg0 2.357205 1_555
Cl1 Mg0 2.357205 1_455
O0 Sr2 2.545846 1_555
O0 Sr2 2.545846 1_655
O0 Sr0 2.808366 1_655
O0 Sr0 2.808366 1_555
O1 Sr2 2.543110 1_555
O1 Sr2 2.543110 1_565
O1 Sr0 2.800458 1_555
O1 Sr0 2.800458 1_565
O2 Sr3 2.513754 1_555
O2 Sr3 2.513754 1_455
O3 Sr3 2.368339 1_545
O3 Sr3 2.368339 1_555
O4 Sr1 2.306629 1_554
O4 Sr0 2.798071 1_565
O4 Sr0 2.798071 1_555
O4 Sr0 2.798071 1_665
O4 Sr0 2.798071 1_655
O5 Sr0 2.672507 1_556
O5 Sr1 2.772077 1_545
O5 Sr1 2.772077 1_555
O5 Sr1 2.772077 1_455
O5 Sr1 2.772077 1_445
