# generated using pymatgen
data_Na7TaZn3(PO4)6
_symmetry_space_group_name_H-M   'P 1'
_cell_length_a   9.02705992
_cell_length_b   9.01583644
_cell_length_c   22.02870565
_cell_angle_alpha   90.04090382
_cell_angle_beta   90.08528184
_cell_angle_gamma   119.97723485
_symmetry_Int_Tables_number   1
_chemical_formula_structural   Na7TaZn3(PO4)6
_chemical_formula_sum   'Na21 Ta3 Zn9 P18 O72'
_cell_volume   1552.99638643
_cell_formula_units_Z   3
loop_
 _symmetry_equiv_pos_site_id
 _symmetry_equiv_pos_as_xyz
  1  'x, y, z'
loop_
 _atom_site_type_symbol
 _atom_site_label
 _atom_site_symmetry_multiplicity
 _atom_site_fract_x
 _atom_site_fract_y
 _atom_site_fract_z
 _atom_site_occupancy
  Na  Na0  1  0.63290391  0.99971419  0.24791880  1
  Na  Na1  1  0.36661876  0.36697900  0.24789212  1
  Na  Na2  1  0.00030494  0.63335608  0.24800491  1
  Na  Na3  1  0.65477634  0.63779945  0.74556251  1
  Na  Na4  1  0.98674257  0.34988301  0.74554406  1
  Na  Na5  1  0.29180286  0.33457688  0.58638175  1
  Na  Na6  1  0.04147583  0.70834695  0.58632858  1
  Na  Na7  1  0.66639853  0.95950464  0.58639516  1
  Na  Na8  1  0.29014508  0.95734271  0.08715961  1
  Na  Na9  1  0.66559952  0.70868166  0.08733222  1
  Na  Na10  1  0.04423922  0.33297574  0.08776940  1
  Na  Na11  1  0.31732017  0.29398321  0.91099836  1
  Na  Na12  1  0.98347225  0.29884741  0.40467021  1
  Na  Na13  1  0.31546341  0.01625637  0.40499930  1
  Na  Na14  1  0.70134899  0.68457770  0.40462444  1
  Na  Na15  1  0.00006069  0.00003205  0.49886061  1
  Na  Na16  1  0.98610416  0.98692650  0.99609850  1
  Na  Na17  1  0.66294307  0.31858806  0.82520437  1
  Na  Na18  1  0.66697935  0.33344182  0.32165686  1
  Na  Na19  1  0.33342293  0.66646756  0.16868768  1
  Na  Na20  1  0.33467608  0.68013893  0.66041136  1
  Ta  Ta0  1  0.67106324  0.33423331  0.97874909  1
  Ta  Ta1  1  0.66591881  0.33274525  0.48223746  1
  Ta  Ta2  1  0.33331568  0.67308949  0.81570866  1
  Zn  Zn0  1  0.00044735  0.99986447  0.34073548  1
  Zn  Zn1  1  0.99522978  0.99333981  0.84903692  1
  Zn  Zn2  1  0.00271860  0.99856813  0.65654438  1
  Zn  Zn3  1  0.99977462  0.99934338  0.15459018  1
  Zn  Zn4  1  0.65968375  0.32645696  0.68428229  1
  Zn  Zn5  1  0.66702965  0.33357684  0.18159418  1
  Zn  Zn6  1  0.33483000  0.67011443  0.01465082  1
  Zn  Zn7  1  0.33335004  0.66709071  0.51249149  1
  Zn  Zn8  1  0.33306065  0.66653957  0.31770259  1
  P  P0  1  0.29820356  0.99823526  0.24965758  1
  P  P1  1  0.69999775  0.70179666  0.24960519  1
  P  P2  1  0.00184374  0.29973613  0.24970085  1
  P  P3  1  0.29698984  0.29799283  0.75234450  1
  P  P4  1  0.00245488  0.70614205  0.74919663  1
  P  P5  1  0.70530760  -0.00030719  0.74979112  1
  P  P6  1  0.96339215  0.33467141  0.58663609  1
  P  P7  1  0.37203582  0.03735422  0.58507491  1
  P  P8  1  0.66592972  0.62938738  0.58652115  1
  P  P9  1  0.96180329  0.62700061  0.08491780  1
  P  P10  1  0.66520093  0.03864970  0.08475287  1
  P  P11  1  0.37390071  0.33453007  0.08337896  1
  P  P12  1  0.63116571  0.66917882  0.91966132  1
  P  P13  1  0.03840815  0.37211889  0.91929568  1
  P  P14  1  0.33222127  0.96291395  0.92124364  1
  P  P15  1  0.63018807  0.96391418  0.41856543  1
  P  P16  1  0.33416496  0.37034731  0.41855535  1
  P  P17  1  0.03550200  0.66579429  0.41858561  1
  O  O0  1  0.21507484  0.02087767  0.30792664  1
  O  O1  1  0.80598651  0.78498662  0.30794990  1
  O  O2  1  0.97936031  0.19379069  0.30792168  1
  O  O3  1  0.21260462  0.19878744  0.80946197  1
  O  O4  1  0.97501785  0.79514100  0.80219553  1
  O  O5  1  0.82080096  0.02548251  0.80310339  1
  O  O6  1  0.76606564  0.95300784  0.69041745  1
  O  O7  1  0.18711436  0.22765468  0.69404920  1
  O  O8  1  0.03388929  0.80164360  0.68831891  1
  O  O9  1  0.78487484  0.81027287  0.19232825  1
  O  O10  1  0.02513489  0.21467721  0.19226165  1
  O  O11  1  0.18982919  0.97474882  0.19219918  1
  O  O12  1  0.88090230  0.35732060  0.64335080  1
  O  O13  1  0.48538390  0.12422351  0.63913149  1
  O  O14  1  0.64602284  0.52539338  0.64341349  1
  O  O15  1  0.88125270  0.52279567  0.14204000  1
  O  O16  1  0.64239483  0.11922387  0.14213657  1
  O  O17  1  0.47972164  0.35724094  0.14015271  1
  O  O18  1  0.47952948  0.32385522  0.02568205  1
  O  O19  1  0.84101857  0.51792200  0.02834967  1
  O  O20  1  0.67582856  0.15961524  0.02855800  1
  O  O21  1  0.47417475  0.15083513  0.52640847  1
  O  O22  1  0.67440959  0.51982431  0.52983873  1
  O  O23  1  0.84418738  0.32334536  0.52984749  1
  O  O24  1  0.54771255  0.68072252  0.97781638  1
  O  O25  1  0.14125995  0.45431289  0.97642254  1
  O  O26  1  0.31678172  0.86900224  0.97954919  1
  O  O27  1  0.55050888  0.86220407  0.47668093  1
  O  O28  1  0.31197007  0.44987199  0.47680742  1
  O  O29  1  0.13748997  0.68813512  0.47674779  1
  O  O30  1  0.10862039  0.62545237  0.36252139  1
  O  O31  1  0.51651427  0.89030498  0.36246608  1
  O  O32  1  0.37346051  0.48362000  0.36251405  1
  O  O33  1  0.13539139  0.49316197  0.86282727  1
  O  O34  1  0.35282221  0.86028070  0.86608405  1
  O  O35  1  0.50404141  0.64087620  0.86410440  1
  O  O36  1  0.00576329  0.81893195  0.41329538  1
  O  O37  1  0.81289135  0.99380740  0.41342586  1
  O  O38  1  0.18172567  0.18720523  0.41331467  1
  O  O39  1  0.01800823  0.19620632  0.91047564  1
  O  O40  1  0.18553086  0.99726582  0.91170327  1
  O  O41  1  0.80833672  0.81735739  0.91046757  1
  O  O42  1  0.96919894  0.16719589  0.58356219  1
  O  O43  1  0.19967407  0.03354029  0.58337980  1
  O  O44  1  0.83293251  0.80217774  0.58250655  1
  O  O45  1  0.96615417  0.79953600  0.08188713  1
  O  O46  1  0.83274048  0.03354700  0.08140260  1
  O  O47  1  0.20079243  0.16702214  0.08058835  1
  O  O48  1  0.68024754  0.15506533  0.74499445  1
  O  O49  1  0.48315196  0.33854140  0.74769203  1
  O  O50  1  0.85120542  0.51981663  0.74696429  1
  O  O51  1  0.68148596  0.52141173  0.24677201  1
  O  O52  1  0.84015941  0.31823250  0.24701985  1
  O  O53  1  0.47810470  0.16018059  0.24693100  1
  O  O54  1  0.63254330  0.49150397  0.91993926  1
  O  O55  1  0.85758109  0.36037901  0.92113533  1
  O  O56  1  0.50411271  0.14506643  0.92059085  1
  O  O57  1  0.65224720  0.15243703  0.42508445  1
  O  O58  1  0.50164073  0.35038178  0.42509000  1
  O  O59  1  0.84765914  0.49923576  0.42554279  1
  O  O60  1  0.35387509  0.49372392  0.07812585  1
  O  O61  1  0.13945989  0.64542569  0.07825985  1
  O  O62  1  0.50627703  0.86020768  0.07837666  1
  O  O63  1  0.35077379  0.85794219  0.57845967  1
  O  O64  1  0.50611801  0.64747577  0.57981464  1
  O  O65  1  0.14121883  0.49397538  0.57941817  1
  O  O66  1  0.31591094  0.83592052  0.25368171  1
  O  O67  1  0.52014612  0.68394098  0.25356437  1
  O  O68  1  0.16394611  0.47973602  0.25371445  1
  O  O69  1  0.31276534  0.48645424  0.75916048  1
  O  O70  1  0.16804150  0.68488739  0.75933434  1
  O  O71  1  0.52052934  0.83218077  0.76109681  1
loop_
_geom_bond_atom_site_label_1
_geom_bond_atom_site_label_2
_geom_bond_distance
_geom_bond_site_symmetry_2
Na0 O53 2.463009 1_565
Na0 O66 2.482677 1_555
Na0 O67 2.502348 1_555
Na0 O52 2.525587 1_565
Na0 O16 2.551524 1_565
Na0 O31 2.723941 1_555
Na1 O51 2.462424 1_555
Na1 O67 2.478689 1_555
Na1 O68 2.501254 1_555
Na1 O53 2.522811 1_555
Na1 O17 2.603738 1_555
Na1 O32 2.723241 1_555
Na2 O52 2.461228 1_455
Na2 O68 2.482020 1_555
Na2 O66 2.503367 1_555
Na2 O51 2.529681 1_455
Na2 O15 2.552661 1_455
Na2 O30 2.717980 1_555
Na3 O49 2.346321 1_555
Na3 O14 2.452128 1_555
Na3 O50 2.482204 1_555
Na3 O71 2.603784 1_555
Na3 O69 2.697570 1_555
Na3 O6 2.777892 1_555
Na3 O4 2.795421 1_555
Na3 O35 2.952874 1_555
Na4 O50 2.391343 1_555
Na4 O48 2.425638 1_555
Na4 O12 2.458253 1_555
Na4 O69 2.577415 1_655
Na4 O70 2.636426 1_655
Na4 O7 2.787294 1_655
Na4 O5 2.835231 1_555
Na4 O33 2.897754 1_655
Na5 O43 2.409624 1_555
Na5 O65 2.426615 1_555
Na5 O64 2.503900 1_555
Na5 O42 2.523796 1_455
Na5 O7 2.558757 1_555
Na5 O28 2.599189 1_555
Na6 O8 2.411488 1_555
Na6 O44 2.420281 1_455
Na6 O63 2.425554 1_555
Na6 O65 2.511643 1_555
Na6 O43 2.540879 1_565
Na6 O29 2.602859 1_555
Na7 O42 2.422299 1_565
Na7 O64 2.441271 1_555
Na7 O6 2.471937 1_555
Na7 O63 2.525457 1_555
Na7 O44 2.531863 1_555
Na7 O27 2.603373 1_555
Na8 O47 2.401894 1_565
Na8 O61 2.443954 1_555
Na8 O62 2.513812 1_555
Na8 O11 2.519218 1_555
Na8 O45 2.536141 1_455
Na8 O26 2.549884 1_554
Na9 O45 2.413845 1_555
Na9 O62 2.436530 1_555
Na9 O60 2.502677 1_555
Na9 O9 2.520299 1_555
Na9 O46 2.541099 1_565
Na9 O24 2.596064 1_554
Na10 O46 2.408465 1_455
Na10 O60 2.431511 1_555
Na10 O10 2.507307 1_555
Na10 O61 2.509953 1_555
Na10 O47 2.524715 1_555
Na10 O25 2.651968 1_554
Na11 O40 2.322017 1_545
Na11 O39 2.386889 1_555
Na11 O3 2.411076 1_555
Na11 O54 2.498224 1_555
Na11 O56 2.636694 1_555
Na11 O18 2.862327 1_556
Na11 O35 2.903697 1_555
Na11 O25 2.998680 1_555
Na12 O2 2.324321 1_555
Na12 O37 2.396156 1_545
Na12 O38 2.460003 1_655
Na12 O57 2.635420 1_555
Na12 O59 2.681875 1_555
Na12 O30 2.737123 1_655
Na13 O0 2.329751 1_555
Na13 O38 2.392933 1_555
Na13 O36 2.458861 1_545
Na13 O58 2.651729 1_555
Na13 O57 2.685322 1_555
Na13 O31 2.743040 1_545
Na14 O1 2.324053 1_555
Na14 O36 2.393080 1_655
Na14 O37 2.453072 1_555
Na14 O59 2.636999 1_555
Na14 O58 2.666081 1_555
Na14 O32 2.744883 1_555
Na15 O44 2.485348 1_445
Na15 O42 2.499520 1_455
Na15 O43 2.499977 1_555
Na15 O37 2.509079 1_445
Na15 O36 2.510236 1_545
Na15 O38 2.517240 1_555
Na16 O41 2.450694 1_555
Na16 O45 2.481874 1_556
Na16 O46 2.492505 1_566
Na16 O40 2.558979 1_655
Na16 O39 2.581540 1_665
Na16 O47 2.587803 1_666
Na17 O48 2.355248 1_555
Na17 O49 2.421971 1_555
Na17 O50 2.466223 1_555
Na17 O56 2.586609 1_555
Na17 O55 2.649729 1_555
Na17 O54 2.699150 1_555
Na18 O53 2.320185 1_555
Na18 O52 2.321106 1_555
Na18 O51 2.322342 1_555
Na18 O57 2.767878 1_555
Na18 O59 2.771161 1_555
Na18 O58 2.771267 1_555
Na19 O67 2.467112 1_555
Na19 O66 2.470369 1_555
Na19 O68 2.474322 1_555
Na19 O60 2.592978 1_555
Na19 O61 2.593633 1_555
Na19 O62 2.595033 1_555
Na20 O63 2.371090 1_555
Na20 O64 2.469190 1_555
Na20 O65 2.471330 1_555
Na20 O70 2.662173 1_555
Na20 O71 2.701765 1_555
Na20 O69 2.735323 1_555
O0 P0 1.551764 1_545
O0 Zn0 1.987344 1_545
O1 P1 1.551673 1_555
O1 Zn0 1.987970 1_655
O2 P2 1.551531 1_655
O2 Zn0 1.987373 1_645
O3 P3 1.512277 1_555
O3 Zn1 2.101584 1_445
O4 P4 1.505443 1_655
O4 Zn1 1.990509 1_555
O5 P5 1.507959 1_555
O5 Zn1 2.009676 1_545
O6 P5 1.555855 1_565
O6 Zn2 2.101781 1_655
O7 P3 1.549680 1_555
O7 Zn2 2.068109 1_545
O8 P4 1.542383 1_555
O8 Zn2 2.054680 1_555
O9 P1 1.546395 1_555
O9 Zn3 2.015536 1_555
O10 P2 1.547207 1_555
O10 Zn3 2.015726 1_445
O11 P0 1.546905 1_555
O11 Zn3 2.013738 1_455
O12 P6 1.520337 1_555
O12 Zn4 2.080548 1_555
O13 P7 1.507501 1_555
O13 Zn4 1.978697 1_555
O14 P8 1.521849 1_555
O14 Zn4 2.065345 1_555
O15 P9 1.522008 1_555
O15 Zn5 2.029664 1_555
O16 P10 1.522149 1_555
O16 Zn5 2.026660 1_555
O17 P11 1.522886 1_555
O17 Zn5 2.023371 1_555
O18 P11 1.621422 1_555
O18 Ta0 1.977583 1_554
O19 P9 1.622178 1_555
O19 Ta0 1.934861 1_554
O20 P10 1.621341 1_555
O20 Ta0 1.937593 1_554
O21 P7 1.621666 1_555
O21 Ta1 1.950143 1_555
O22 P8 1.617035 1_555
O22 Ta1 1.954058 1_555
O23 P6 1.618427 1_555
O23 Ta1 1.956574 1_555
O24 P12 1.516756 1_555
O24 Zn6 2.044889 1_556
O25 P13 1.517385 1_555
O25 Zn6 2.035640 1_556
O26 P14 1.506700 1_555
O26 Zn6 2.033064 1_556
O27 P15 1.530515 1_555
O27 Zn7 2.029811 1_555
O28 P16 1.530966 1_555
O28 Zn7 2.027354 1_555
O29 P17 1.529885 1_555
O29 Zn7 2.028112 1_555
O30 P17 1.528043 1_555
O30 Zn8 2.115014 1_555
O31 P15 1.528107 1_555
O31 Zn8 2.106779 1_555
O32 P16 1.527711 1_555
O32 Zn8 2.104636 1_555
O33 P13 1.598493 1_555
O33 Ta2 2.003166 1_555
O34 P14 1.593201 1_555
O34 Ta2 1.952051 1_555
O35 P12 1.607033 1_555
O35 Ta2 2.009700 1_555
O36 P17 1.537012 1_555
O36 Zn0 2.302153 1_555
O37 P15 1.536868 1_555
O37 Zn0 2.312873 1_655
O38 P16 1.536873 1_555
O38 Zn0 2.305043 1_545
O39 P13 1.514809 1_555
O39 Zn1 2.199797 1_445
O40 P14 1.517447 1_555
O40 Zn1 2.188622 1_455
O41 P12 1.499947 1_555
O41 Zn1 2.128343 1_555
O42 P6 1.538241 1_555
O42 Zn2 2.334393 1_645
O43 P7 1.539423 1_555
O43 Zn2 2.303725 1_545
O44 P8 1.536583 1_555
O44 Zn2 2.328246 1_655
O45 P9 1.537804 1_555
O45 Zn3 2.313077 1_555
O46 P10 1.537772 1_555
O46 Zn3 2.329387 1_545
O47 P11 1.538733 1_555
O47 Zn3 2.346616 1_445
O48 P5 1.530173 1_555
O48 Zn4 2.121261 1_555
O49 P3 1.534554 1_555
O49 Zn4 2.163879 1_555
O50 P4 1.547972 1_655
O50 Zn4 2.216373 1_555
O51 P1 1.550800 1_555
O51 Zn5 2.172909 1_555
O52 P2 1.550651 1_655
O52 Zn5 2.179098 1_555
O53 P0 1.550370 1_545
O53 Zn5 2.184085 1_555
O54 P12 1.608153 1_555
O54 Ta0 2.074547 1_555
O55 P13 1.582693 1_655
O55 Ta0 2.027650 1_555
O56 P14 1.599536 1_545
O56 Ta0 2.060080 1_555
O57 P15 1.615725 1_545
O57 Ta1 2.009758 1_555
O58 P16 1.615562 1_555
O58 Ta1 2.009870 1_555
O59 P17 1.615644 1_655
O59 Ta1 2.013036 1_555
O60 P11 1.538021 1_555
O60 Zn6 2.188488 1_555
O61 P9 1.534772 1_455
O61 Zn6 2.176886 1_555
O62 P10 1.535823 1_565
O62 Zn6 2.154681 1_555
O63 P7 1.537489 1_565
O63 Zn7 2.196034 1_555
O64 P8 1.537565 1_555
O64 Zn7 2.220834 1_555
O65 P6 1.536903 1_455
O65 Zn7 2.218889 1_555
O66 P0 1.552050 1_555
O66 Zn8 2.140946 1_555
O67 P1 1.551978 1_555
O67 Zn8 2.148406 1_555
O68 P2 1.552109 1_555
O68 Zn8 2.138880 1_555
O69 P3 1.639409 1_555
O69 Ta2 2.025318 1_555
O70 P4 1.614376 1_555
O70 Ta2 1.983093 1_555
O71 P5 1.615407 1_565
O71 Ta2 1.986665 1_555
