# generated using pymatgen
data_MgMn6(O5F)2
_symmetry_space_group_name_H-M   'P 1'
_cell_length_a   8.20863407
_cell_length_b   5.72603589
_cell_length_c   5.87415191
_cell_angle_alpha   67.37477487
_cell_angle_beta   63.35746448
_cell_angle_gamma   64.94102555
_symmetry_Int_Tables_number   1
_chemical_formula_structural   MgMn6(O5F)2
_chemical_formula_sum   'Mg1 Mn6 O10 F2'
_cell_volume   216.99238684
_cell_formula_units_Z   1
loop_
 _symmetry_equiv_pos_site_id
 _symmetry_equiv_pos_as_xyz
  1  'x, y, z'
loop_
 _atom_site_type_symbol
 _atom_site_label
 _atom_site_symmetry_multiplicity
 _atom_site_fract_x
 _atom_site_fract_y
 _atom_site_fract_z
 _atom_site_occupancy
  Mg  Mg0  1  0.34450129  0.65191990  0.15765874  1
  Mn  Mn0  1  0.85434782  0.68278184  0.71223126  1
  Mn  Mn1  1  0.66291352  0.33176005  0.35624940  1
  Mn  Mn2  1  0.33305173  0.65504686  0.65881489  1
  Mn  Mn3  1  0.10595979  0.29189937  0.30888781  1
  Mn  Mn4  1  0.53109023  0.03241995  0.03118677  1
  Mn  Mn5  1  0.97168884  0.03424225  0.97520529  1
  O  O0  1  0.68907456  0.04422758  0.66569690  1
  O  O1  1  0.34503972  0.39220095  -0.00088687  1
  O  O2  1  0.59795854  0.58202967  0.53873046  1
  O  O3  1  0.93305791  0.25655112  0.18240285  1
  O  O4  1  0.71116784  0.08860777  0.14807008  1
  O  O5  1  0.04596057  0.76476300  0.79780772  1
  O  O6  1  0.38761622  0.40515882  0.48724133  1
  O  O7  1  0.31369605  0.93380022  0.33402424  1
  O  O8  1  0.62909734  0.64294923  0.03920662  1
  O  O9  1  0.96990729  0.31919806  0.68425659  1
  F  F0  1  0.27508799  0.92503240  0.85655600  1
  F  F1  1  0.03952376  0.71541395  0.30475492  1
loop_
_geom_bond_atom_site_label_1
_geom_bond_atom_site_label_2
_geom_bond_distance
_geom_bond_site_symmetry_2
Mg0 O6 1.988985 1_555
Mg0 O1 2.033570 1_555
Mg0 O8 2.100566 1_555
Mg0 O7 2.109097 1_555
Mn0 O9 1.926557 1_555
Mn0 O0 1.928086 1_565
Mn0 O8 1.998766 1_556
Mn0 O5 2.112613 1_655
Mn1 O2 1.873232 1_555
Mn1 O3 1.908970 1_555
Mn1 O6 1.939142 1_555
Mn1 O0 1.951651 1_555
Mn1 O4 1.999807 1_555
Mn1 O8 2.052292 1_555
Mn2 O6 1.850829 1_555
Mn2 O2 1.866020 1_555
Mn2 O7 1.981645 1_555
Mn2 O1 2.001727 1_556
Mn2 O5 2.007452 1_555
Mn3 O3 1.977923 1_455
Mn3 O9 2.010571 1_455
Mn3 O7 2.040844 1_545
Mn3 O1 2.107242 1_555
Mn4 O0 1.939402 1_554
Mn4 O7 1.975246 1_545
Mn4 O1 1.976414 1_555
Mn4 O8 2.014009 1_545
Mn4 O4 2.059858 1_555
Mn5 O4 1.852847 1_556
Mn5 O9 1.854752 1_555
Mn5 O3 1.925170 1_556
Mn5 O5 1.925891 1_645
F0 Mg0 1.979774 1_556
F0 Mn2 2.056314 1_555
F0 Mn5 2.130420 1_465
F1 Mg0 2.162576 1_555
F1 Mn0 2.169819 1_455
F1 Mn5 2.185598 1_464
F1 Mn3 2.241694 1_555
