# generated using pymatgen
data_Ba2HoMgRuO6
_symmetry_space_group_name_H-M   'P 1'
_cell_length_a   6.50135552
_cell_length_b   5.96052912
_cell_length_c   5.97690328
_cell_angle_alpha   60.08933976
_cell_angle_beta   63.72465486
_cell_angle_gamma   62.70680436
_symmetry_Int_Tables_number   1
_chemical_formula_structural   Ba2HoMgRuO6
_chemical_formula_sum   'Ba2 Ho1 Mg1 Ru1 O6'
_cell_volume   171.38791672
_cell_formula_units_Z   1
loop_
 _symmetry_equiv_pos_site_id
 _symmetry_equiv_pos_as_xyz
  1  'x, y, z'
loop_
 _atom_site_type_symbol
 _atom_site_label
 _atom_site_symmetry_multiplicity
 _atom_site_fract_x
 _atom_site_fract_y
 _atom_site_fract_z
 _atom_site_occupancy
  Ba  Ba0  1  0.78709914  0.73474311  0.74340330  1
  Ba  Ba1  1  0.42023539  0.19366980  0.19250983  1
  Ho  Ho0  1  0.40667448  0.53009811  0.53308728  1
  Mg  Mg0  1  0.90560364  0.35889739  0.37648274  1
  Ru  Ru0  1  0.98996083  0.00380988  0.00241121  1
  O  O0  1  0.20103081  0.77707774  0.76580246  1
  O  O1  1  0.20881383  0.77226248  0.24673160  1
  O  O2  1  0.73884608  0.25553797  0.75003339  1
  O  O3  1  0.20100551  0.25612238  0.76585572  1
  O  O4  1  0.75259341  0.24933116  0.25459046  1
  O  O5  1  0.75271986  0.74344998  0.25450901  1
loop_
_geom_bond_atom_site_label_1
_geom_bond_atom_site_label_2
_geom_bond_distance
_geom_bond_site_symmetry_2
Ba0 O3 2.880186 1_655
Ba0 O0 2.880824 1_655
Ba0 O5 2.987906 1_556
Ba0 O4 2.988118 1_556
Ba0 O2 2.992443 1_565
Ba0 O2 2.992724 1_555
Ba0 O4 3.001023 1_565
Ba0 O5 3.001257 1_555
Ba0 O1 3.012243 1_655
Ba1 O2 2.509693 1_554
Ba1 O4 2.531161 1_555
Ba1 O5 2.531582 1_545
Ho0 O1 2.109543 1_555
Ho0 O0 2.116583 1_555
Ho0 O3 2.116596 1_555
Ho0 O2 2.478927 1_555
Ho0 O4 2.577072 1_555
Ho0 O5 2.578088 1_555
Mg0 O2 1.907208 1_555
Mg0 O4 1.912799 1_555
Mg0 O5 1.912845 1_555
O0 Ru0 2.048536 1_466
O1 Ru0 2.022475 1_465
O2 Ru0 2.206514 1_556
O3 Ru0 2.048811 1_456
O4 Ru0 2.205502 1_555
O5 Ru0 2.205259 1_565
