# generated using pymatgen
data_Na10Ta7In(SiO4)12
_symmetry_space_group_name_H-M   'P 1'
_cell_length_a   18.04665603
_cell_length_b   9.02825853
_cell_length_c   22.75131410
_cell_angle_alpha   90.01008763
_cell_angle_beta   89.98556703
_cell_angle_gamma   120.03283127
_symmetry_Int_Tables_number   1
_chemical_formula_structural   Na10Ta7In(SiO4)12
_chemical_formula_sum   'Na30 Ta21 In3 Si36 O144'
_cell_volume   3209.17986416
_cell_formula_units_Z   3
loop_
 _symmetry_equiv_pos_site_id
 _symmetry_equiv_pos_as_xyz
  1  'x, y, z'
loop_
 _atom_site_type_symbol
 _atom_site_label
 _atom_site_symmetry_multiplicity
 _atom_site_fract_x
 _atom_site_fract_y
 _atom_site_fract_z
 _atom_site_occupancy
  Na  Na0  1  0.81691818  0.00699570  0.24865126  1
  Na  Na1  1  0.18386039  0.36623427  0.24959603  1
  Na  Na2  1  0.68525599  0.36397164  0.24814074  1
  Na  Na3  1  0.99669964  0.62724777  0.24857624  1
  Na  Na4  1  0.31709112  0.62743090  0.74900007  1
  Na  Na5  1  0.81737918  0.62754442  0.74866964  1
  Na  Na6  1  0.99639769  0.36531250  0.74839595  1
  Na  Na7  1  0.49622026  0.36478899  0.74846255  1
  Na  Na8  1  0.18623360  0.00710001  0.74901513  1
  Na  Na9  1  0.68639739  0.00754880  0.74872034  1
  Na  Na10  1  0.15266358  0.33623137  0.58387866  1
  Na  Na11  1  0.65342701  0.33619928  0.58364763  1
  Na  Na12  1  0.33284863  0.97069489  0.58374812  1
  Na  Na13  1  0.83327851  0.97208479  0.58358682  1
  Na  Na14  1  0.65149891  0.96941816  0.08422907  1
  Na  Na15  1  0.83217852  0.69347367  0.08357812  1
  Na  Na16  1  0.01598234  0.33657529  0.08308801  1
  Na  Na17  1  0.48380506  0.30030430  0.41646595  1
  Na  Na18  1  0.99989638  0.99520770  0.49793297  1
  Na  Na19  1  0.50072417  0.99151685  0.49859275  1
  Na  Na20  1  0.00293272  0.00010035  0.99797838  1
  Na  Na21  1  0.49717272  0.00010882  0.99962329  1
  Na  Na22  1  0.33313261  0.33325682  0.83447141  1
  Na  Na23  1  0.83350779  0.33331570  0.83367901  1
  Na  Na24  1  0.33332031  0.33354160  0.33244411  1
  Na  Na25  1  0.83313442  0.33266236  0.33324587  1
  Na  Na26  1  0.17127129  0.67698379  0.16486868  1
  Na  Na27  1  0.66177039  0.66059057  0.16620560  1
  Na  Na28  1  0.16399898  0.66656215  0.66581944  1
  Na  Na29  1  0.66423799  0.66691350  0.66569584  1
  Ta  Ta0  1  0.00018108  0.00018804  0.35611019  1
  Ta  Ta1  1  0.49920971  0.99581579  0.35344956  1
  Ta  Ta2  1  0.00024759  0.00058791  0.85687964  1
  Ta  Ta3  1  0.49977855  0.99945572  0.85689266  1
  Ta  Ta4  1  0.99989985  0.99596884  0.64609919  1
  Ta  Ta5  1  0.50040787  0.99651473  0.64614271  1
  Ta  Ta6  1  0.00361373  0.00049945  0.14577292  1
  Ta  Ta7  1  0.49643428  0.99862226  0.14525270  1
  Ta  Ta8  1  0.33636732  0.33341458  0.18600275  1
  Ta  Ta9  1  0.33304446  0.33242016  0.97850638  1
  Ta  Ta10  1  0.83349040  0.33433504  0.97768967  1
  Ta  Ta11  1  0.33048493  0.33460433  0.47882791  1
  Ta  Ta12  1  0.83420728  0.33396368  0.47774187  1
  Ta  Ta13  1  0.17044045  0.67371104  0.02003180  1
  Ta  Ta14  1  0.66300592  0.65997198  0.01868073  1
  Ta  Ta15  1  0.16402016  0.66604252  0.51795248  1
  Ta  Ta16  1  0.66555372  0.66852134  0.51832553  1
  Ta  Ta17  1  0.16939315  0.67148091  0.31391714  1
  Ta  Ta18  1  0.66427764  0.66631474  0.31357114  1
  Ta  Ta19  1  0.16681165  0.66672382  0.81629652  1
  Ta  Ta20  1  0.66671231  0.66645643  0.81588183  1
  In  In0  1  0.33370599  0.33415697  0.68372568  1
  In  In1  1  0.83374576  0.33431264  0.68332721  1
  In  In2  1  0.83256393  0.33292803  0.18371508  1
  Si  Si0  1  0.14602895  0.00070617  0.25103318  1
  Si  Si1  1  0.64248413  0.99617705  0.24963024  1
  Si  Si2  1  0.35611686  0.71077773  0.24982657  1
  Si  Si3  1  0.85572713  0.71262162  0.25075382  1
  Si  Si4  1  0.00044387  0.28912008  0.25100950  1
  Si  Si5  1  0.49823436  0.28685720  0.25031829  1
  Si  Si6  1  0.14372362  0.28895655  0.75098882  1
  Si  Si7  1  0.64374186  0.28863872  0.75110991  1
  Si  Si8  1  0.00065521  0.71180297  0.75170712  1
  Si  Si9  1  0.50061398  0.71180623  0.75166640  1
  Si  Si10  1  0.35548644  0.99885106  0.75115094  1
  Si  Si11  1  0.85556633  0.99913489  0.75125125  1
  Si  Si12  1  0.47952392  0.33708044  0.58289733  1
  Si  Si13  1  0.97938254  0.33683445  0.58330408  1
  Si  Si14  1  0.18658985  0.03852468  0.58327942  1
  Si  Si15  1  0.68744266  0.04076926  0.58273415  1
  Si  Si16  1  0.33409065  0.62571480  0.58305844  1
  Si  Si17  1  0.83434115  0.62420867  0.58256172  1
  Si  Si18  1  0.47659463  0.62113376  0.08241313  1
  Si  Si19  1  0.98042278  0.62521196  0.08273099  1
  Si  Si20  1  0.33307000  0.04581267  0.08260636  1
  Si  Si21  1  0.83291091  0.04108436  0.08267854  1
  Si  Si22  1  0.19126871  0.33607980  0.08325521  1
  Si  Si23  1  0.68634316  0.33258972  0.08283606  1
  Si  Si24  1  0.31214324  0.66472141  0.91715533  1
  Si  Si25  1  0.81174699  0.66643679  0.91746638  1
  Si  Si26  1  0.02190733  0.37757285  0.91812670  1
  Si  Si27  1  0.51973707  0.37429816  0.91641789  1
  Si  Si28  1  0.16729306  0.95818811  0.91733881  1
  Si  Si29  1  0.66702054  0.95802053  0.91732245  1
  Si  Si30  1  0.31152416  0.95655024  0.41729162  1
  Si  Si31  1  0.81166136  0.95685785  0.41631987  1
  Si  Si32  1  0.16629003  0.37681967  0.41629005  1
  Si  Si33  1  0.66838605  0.37690774  0.41612166  1
  Si  Si34  1  0.02122951  0.66595658  0.41552317  1
  Si  Si35  1  0.52104611  0.66985997  0.41675097  1
  O  O0  1  0.09900858  0.03388760  0.30654873  1
  O  O1  1  0.59464503  0.02745500  0.30631360  1
  O  O2  1  0.41638627  0.80467993  0.30726786  1
  O  O3  1  0.91933698  0.81048874  0.30624722  1
  O  O4  1  0.48517127  0.17048561  0.30913952  1
  O  O5  1  0.98667794  0.16283866  0.30643976  1
  O  O6  1  0.09509152  0.16256179  0.80623108  1
  O  O7  1  0.59506762  0.16235269  0.80624972  1
  O  O8  1  0.48624172  0.80921580  0.80675336  1
  O  O9  1  0.98611693  0.80940500  0.80676734  1
  O  O10  1  0.41878617  0.02764419  0.80624926  1
  O  O11  1  0.91863293  0.02725899  0.80637332  1
  O  O12  1  0.39958084  0.96397435  0.69192916  1
  O  O13  1  0.89939686  0.96387569  0.69203625  1
  O  O14  1  0.08236944  0.20086947  0.69180636  1
  O  O15  1  0.58234964  0.20116068  0.69183803  1
  O  O16  1  0.01811946  0.83874809  0.69364420  1
  O  O17  1  0.51813496  0.83867467  0.69364738  1
  O  O18  1  0.40183016  0.83421753  0.19310206  1
  O  O19  1  0.90012354  0.83619751  0.19208397  1
  O  O20  1  0.01808827  0.20062244  0.19233793  1
  O  O21  1  0.51735245  0.19672148  0.19410568  1
  O  O22  1  0.08200723  0.96517462  0.19374834  1
  O  O23  1  0.58360999  0.96865046  0.19128305  1
  O  O24  1  0.44554202  0.37225391  0.64318795  1
  O  O25  1  0.94633124  0.37275642  0.64394757  1
  O  O26  1  0.24318213  0.10594865  0.64212729  1
  O  O27  1  0.74276339  0.10503672  0.64242737  1
  O  O28  1  0.30877239  0.51213663  0.64192542  1
  O  O29  1  0.80851274  0.51289375  0.64218041  1
  O  O30  1  0.43155578  0.49991891  0.14036785  1
  O  O31  1  0.94670066  0.51399681  0.14234940  1
  O  O32  1  0.31854620  0.13813018  0.14057922  1
  O  O33  1  0.80971971  0.10569267  0.14225351  1
  O  O34  1  0.24841875  0.36250271  0.14265449  1
  O  O35  1  0.74329177  0.38212986  0.14204973  1
  O  O36  1  0.23573258  0.30286384  0.02660994  1
  O  O37  1  0.73462827  0.29881809  0.02714268  1
  O  O38  1  0.41602844  0.52845756  0.02597390  1
  O  O39  1  0.91463914  0.53188333  0.02714833  1
  O  O40  1  0.34839343  0.16823354  0.02607828  1
  O  O41  1  0.85119456  0.17100178  0.02711986  1
  O  O42  1  0.23435148  0.16920445  0.52712673  1
  O  O43  1  0.73409553  0.17005464  0.52700024  1
  O  O44  1  0.34850891  0.52909459  0.52639465  1
  O  O45  1  0.84838555  0.52842838  0.52627211  1
  O  O46  1  0.41660274  0.29850062  0.52520819  1
  O  O47  1  0.91469856  0.29757210  0.52726102  1
  O  O48  1  0.26446587  0.69607044  0.97281978  1
  O  O49  1  0.76532519  0.69566113  0.97458917  1
  O  O50  1  0.08252020  0.46854123  0.97526415  1
  O  O51  1  0.58320497  0.47068194  0.97226120  1
  O  O52  1  0.15213982  0.83160499  0.97289803  1
  O  O53  1  0.65209144  0.83623600  0.97467313  1
  O  O54  1  0.26673875  0.83726625  0.47497899  1
  O  O55  1  0.76614666  0.83605737  0.47422397  1
  O  O56  1  0.15281686  0.46768969  0.47445152  1
  O  O57  1  0.64986846  0.46568687  0.47340503  1
  O  O58  1  0.08342733  0.69561750  0.47233551  1
  O  O59  1  0.58272414  0.69570688  0.47314261  1
  O  O60  1  0.06790913  0.63715347  0.35778344  1
  O  O61  1  0.56719891  0.63229696  0.36065387  1
  O  O62  1  0.24984777  0.86265977  0.36026360  1
  O  O63  1  0.75041060  0.86313921  0.35858320  1
  O  O64  1  0.18154185  0.49791528  0.35838087  1
  O  O65  1  0.68080468  0.49743394  0.35832414  1
  O  O66  1  0.06746436  0.49746337  0.85878693  1
  O  O67  1  0.56738337  0.49718910  0.85821850  1
  O  O68  1  0.18116920  0.86534553  0.85823394  1
  O  O69  1  0.68122644  0.86473277  0.85875100  1
  O  O70  1  0.25160630  0.63755847  0.85823885  1
  O  O71  1  0.75121617  0.63746480  0.85866877  1
  O  O72  1  0.01284783  0.83655118  0.40840367  1
  O  O73  1  0.51178556  0.83832656  0.40929915  1
  O  O74  1  0.40754634  0.98259747  0.40960781  1
  O  O75  1  0.90594517  0.97514097  0.40854356  1
  O  O76  1  0.08212734  0.18817953  0.40897655  1
  O  O77  1  0.57979790  0.19129519  0.40892355  1
  O  O78  1  0.01239834  0.18924089  0.90863266  1
  O  O79  1  0.51274919  0.18864364  0.90849369  1
  O  O80  1  0.08188428  0.97475232  0.90859942  1
  O  O81  1  0.58199031  0.97494780  0.90864395  1
  O  O82  1  0.40545283  0.83623752  0.90841393  1
  O  O83  1  0.90550492  0.83625211  0.90886465  1
  O  O84  1  0.48877332  0.16229929  0.58905033  1
  O  O85  1  0.98901445  0.16250276  0.58941357  1
  O  O86  1  0.09353835  0.02943807  0.58941716  1
  O  O87  1  0.59344495  0.02889242  0.58972624  1
  O  O88  1  0.41788435  0.81929367  0.58936141  1
  O  O89  1  0.91756151  0.81914360  0.58962502  1
  O  O90  1  0.49081797  0.81461545  0.09117137  1
  O  O91  1  0.98572500  0.81318416  0.08991807  1
  O  O92  1  0.41774102  0.02497733  0.09206512  1
  O  O93  1  0.91969288  0.02321740  0.08941816  1
  O  O94  1  0.09348495  0.16753472  0.09187969  1
  O  O95  1  0.59295050  0.15714108  0.08940038  1
  O  O96  1  0.34531119  0.16575362  0.74800610  1
  O  O97  1  0.84511401  0.16563988  0.74811340  1
  O  O98  1  0.23734718  0.30878330  0.74771909  1
  O  O99  1  0.73742163  0.30893853  0.74774685  1
  O  O100  1  0.41686772  0.52530903  0.74800039  1
  O  O101  1  0.91675366  0.52531819  0.74805752  1
  O  O102  1  0.34189344  0.51765834  0.24276108  1
  O  O103  1  0.84594391  0.52555586  0.24820233  1
  O  O104  1  0.41466851  0.30958996  0.24270668  1
  O  O105  1  0.91655842  0.30803982  0.24809086  1
  O  O106  1  0.23834849  0.17388809  0.24265983  1
  O  O107  1  0.73654241  0.16511027  0.24831794  1
  O  O108  1  0.32071997  0.49523443  0.92430015  1
  O  O109  1  0.82032315  0.49576962  0.92464531  1
  O  O110  1  0.42693147  0.35847513  0.92405256  1
  O  O111  1  0.92738818  0.35922240  0.92485923  1
  O  O112  1  0.25207934  0.14556601  0.92425113  1
  O  O113  1  0.75235957  0.14553530  0.92476955  1
  O  O114  1  0.32400797  0.14901222  0.42442172  1
  O  O115  1  0.82050889  0.14466436  0.42496058  1
  O  O116  1  0.25204367  0.35866097  0.42442974  1
  O  O117  1  0.75237495  0.35750254  0.42423961  1
  O  O118  1  0.42881513  0.49268634  0.42451546  1
  O  O119  1  0.92760449  0.49574216  0.42474747  1
  O  O120  1  0.17523021  0.49922105  0.07618445  1
  O  O121  1  0.67837564  0.50498193  0.07286805  1
  O  O122  1  0.07424082  0.64242076  0.07315315  1
  O  O123  1  0.57411690  0.64919494  0.07569305  1
  O  O124  1  0.24876772  0.85494505  0.07550114  1
  O  O125  1  0.74892576  0.84858328  0.07352165  1
  O  O126  1  0.17852649  0.85136197  0.57306731  1
  O  O127  1  0.67836041  0.85161600  0.57307751  1
  O  O128  1  0.24984712  0.64972439  0.57306767  1
  O  O129  1  0.74987375  0.64942582  0.57276374  1
  O  O130  1  0.07732281  0.49836959  0.57367644  1
  O  O131  1  0.57740162  0.49836424  0.57345216  1
  O  O132  1  0.15102053  0.82489523  0.25745764  1
  O  O133  1  0.65420207  0.82723496  0.25804307  1
  O  O134  1  0.25958214  0.68612679  0.25807600  1
  O  O135  1  0.76052443  0.69643343  0.25720930  1
  O  O136  1  0.08778271  0.47881248  0.25720793  1
  O  O137  1  0.58653770  0.47462804  0.25817103  1
  O  O138  1  0.15122028  0.47882442  0.75699497  1
  O  O139  1  0.65123817  0.47871948  0.75707489  1
  O  O140  1  0.08817688  0.69732891  0.75702786  1
  O  O141  1  0.58820255  0.69747571  0.75709226  1
  O  O142  1  0.26052142  0.82359514  0.75690144  1
  O  O143  1  0.76052041  0.82359618  0.75710483  1
loop_
_geom_bond_atom_site_label_1
_geom_bond_atom_site_label_2
_geom_bond_distance
_geom_bond_site_symmetry_2
Na0 O105 2.393424 1_555
Na0 O135 2.465544 1_545
Na0 O107 2.492885 1_555
Na0 O133 2.555749 1_545
Na0 O33 2.605262 1_555
Na0 O63 2.796804 1_545
Na0 O19 2.933415 1_545
Na0 O5 2.963191 1_555
Na1 O106 2.390934 1_555
Na1 O136 2.415202 1_555
Na1 O102 2.474656 1_555
Na1 O134 2.508978 1_555
Na1 O34 2.704833 1_555
Na1 O64 2.754893 1_555
Na1 O20 2.899355 1_555
Na1 O0 2.903109 1_555
Na2 O107 2.396534 1_555
Na2 O137 2.450573 1_555
Na2 O103 2.510550 1_555
Na2 O35 2.603231 1_555
Na2 O135 2.610692 1_555
Na2 O65 2.799673 1_555
Na2 O21 2.897270 1_555
Na2 O1 2.946756 1_555
Na3 O103 2.396781 1_555
Na3 O132 2.450863 1_655
Na3 O105 2.494992 1_555
Na3 O136 2.596461 1_655
Na3 O31 2.603315 1_555
Na3 O60 2.778349 1_655
Na3 O22 2.921110 1_655
Na3 O3 2.952617 1_555
Na4 O100 2.398880 1_555
Na4 O142 2.453706 1_555
Na4 O98 2.490755 1_555
Na4 O138 2.602566 1_555
Na4 O28 2.623628 1_555
Na4 O70 2.772799 1_555
Na4 O12 2.933720 1_555
Na4 O8 2.953774 1_555
Na5 O101 2.392689 1_555
Na5 O143 2.457735 1_555
Na5 O99 2.490349 1_555
Na5 O139 2.607463 1_555
Na5 O29 2.607751 1_555
Na5 O71 2.793260 1_555
Na5 O13 2.927932 1_555
Na5 O9 2.951678 1_555
Na6 O97 2.403543 1_555
Na6 O138 2.455427 1_655
Na6 O101 2.496211 1_555
Na6 O25 2.555345 1_555
Na6 O140 2.607165 1_655
Na6 O66 2.800899 1_655
Na6 O14 2.927959 1_655
Na6 O11 2.955906 1_555
Na7 O96 2.397372 1_555
Na7 O139 2.458153 1_555
Na7 O100 2.495700 1_555
Na7 O24 2.576920 1_555
Na7 O141 2.612414 1_555
Na7 O67 2.788824 1_555
Na7 O15 2.924863 1_555
Na7 O10 2.947700 1_555
Na8 O98 2.399015 1_555
Na8 O140 2.456071 1_545
Na8 O96 2.485485 1_555
Na8 O142 2.607259 1_545
Na8 O26 2.616853 1_555
Na8 O68 2.775741 1_545
Na8 O16 2.913260 1_545
Na8 O6 2.946016 1_555
Na9 O99 2.396733 1_555
Na9 O141 2.459188 1_545
Na9 O97 2.479783 1_555
Na9 O27 2.600175 1_555
Na9 O143 2.609202 1_545
Na9 O69 2.796159 1_545
Na9 O17 2.912429 1_545
Na9 O7 2.947388 1_555
Na10 O86 2.422383 1_555
Na10 O130 2.457204 1_555
Na10 O128 2.485607 1_555
Na10 O85 2.561473 1_455
Na10 O14 2.753158 1_555
Na10 O56 2.757628 1_555
Na10 O28 2.779504 1_555
Na10 O42 2.887548 1_555
Na11 O87 2.425333 1_555
Na11 O131 2.467929 1_555
Na11 O129 2.482106 1_555
Na11 O84 2.576742 1_555
Na11 O15 2.761275 1_555
Na11 O29 2.771885 1_555
Na11 O57 2.781717 1_555
Na11 O43 2.866109 1_555
Na12 O126 2.443930 1_555
Na12 O84 2.460221 1_565
Na12 O88 2.517858 1_555
Na12 O128 2.520918 1_555
Na12 O54 2.749580 1_555
Na12 O12 2.754360 1_555
Na12 O26 2.801786 1_565
Na12 O46 2.887878 1_565
Na13 O127 2.452108 1_555
Na13 O85 2.456756 1_565
Na13 O89 2.518226 1_555
Na13 O129 2.534359 1_555
Na13 O13 2.758120 1_555
Na13 O55 2.770914 1_555
Na13 O27 2.803962 1_565
Na13 O47 2.848641 1_565
Na14 O95 2.407286 1_565
Na14 O125 2.502106 1_555
Na14 O123 2.510919 1_555
Na14 O90 2.515936 1_555
Na14 O23 2.724578 1_555
Na14 O53 2.769558 1_554
Na14 O33 2.809686 1_565
Na14 O37 2.883761 1_565
Na15 O91 2.422740 1_555
Na15 O121 2.435471 1_555
Na15 O125 2.525278 1_555
Na15 O93 2.582277 1_565
Na15 O49 2.762242 1_554
Na15 O19 2.770732 1_555
Na15 O35 2.780429 1_555
Na15 O39 2.857045 1_555
Na16 O122 2.423861 1_555
Na16 O93 2.474484 1_455
Na16 O120 2.493144 1_555
Na16 O94 2.542106 1_555
Na16 O50 2.728869 1_554
Na16 O20 2.780992 1_555
Na16 O31 2.819576 1_455
Na16 O41 2.872495 1_455
Na17 O77 2.388609 1_555
Na17 O118 2.400053 1_555
Na17 O74 2.488828 1_545
Na17 O114 2.504335 1_555
Na17 O4 2.713787 1_555
Na17 O46 2.751481 1_555
Na17 O61 2.888988 1_555
Na17 O57 2.900178 1_555
Na18 O72 2.566950 1_655
Na18 O89 2.592634 1_555
Na18 O75 2.595715 1_555
Na18 O76 2.597175 1_665
Na18 O86 2.600440 1_665
Na18 O85 2.635762 1_565
Na19 O73 2.520912 1_555
Na19 O88 2.567105 1_555
Na19 O87 2.578589 1_565
Na19 O74 2.607470 1_555
Na19 O77 2.622011 1_565
Na19 O84 2.644028 1_565
Na20 O80 2.557793 1_545
Na20 O78 2.605028 1_555
Na20 O83 2.605278 1_445
Na20 O91 2.606904 1_446
Na20 O93 2.634432 1_456
Na20 O94 2.654725 1_556
Na21 O95 2.591791 1_556
Na21 O82 2.604643 1_545
Na21 O79 2.607096 1_555
Na21 O92 2.617074 1_556
Na21 O90 2.639089 1_546
Na21 O81 2.650536 1_545
Na22 O96 2.556667 1_555
Na22 O100 2.556808 1_555
Na22 O98 2.559639 1_555
Na22 O110 2.585895 1_555
Na22 O108 2.586918 1_555
Na22 O112 2.588796 1_555
Na23 O97 2.537997 1_555
Na23 O101 2.539575 1_555
Na23 O99 2.548951 1_555
Na23 O113 2.613091 1_555
Na23 O111 2.614092 1_555
Na23 O109 2.615152 1_555
Na24 O104 2.585805 1_555
Na24 O102 2.587255 1_555
Na24 O106 2.591458 1_555
Na24 O114 2.627460 1_555
Na24 O116 2.629428 1_555
Na24 O118 2.635242 1_555
Na25 O105 2.530391 1_555
Na25 O107 2.534074 1_555
Na25 O103 2.535325 1_555
Na25 O117 2.604948 1_555
Na25 O119 2.626068 1_555
Na25 O115 2.626908 1_555
Na26 O124 2.534137 1_555
Na26 O120 2.601034 1_555
Na26 O132 2.615601 1_555
Na26 O134 2.629372 1_555
Na26 O122 2.640530 1_555
Na26 O136 2.680679 1_555
Na27 O123 2.567515 1_555
Na27 O137 2.599626 1_555
Na27 O133 2.617696 1_555
Na27 O135 2.644239 1_555
Na27 O121 2.644427 1_555
Na27 O125 2.669923 1_555
Na28 O140 2.575735 1_555
Na28 O130 2.601978 1_555
Na28 O138 2.615098 1_555
Na28 O142 2.620523 1_555
Na28 O126 2.620793 1_555
Na28 O128 2.666531 1_555
Na29 O141 2.580744 1_555
Na29 O131 2.605628 1_555
Na29 O127 2.619436 1_555
Na29 O139 2.620318 1_555
Na29 O143 2.624052 1_555
Na29 O129 2.669488 1_555
In0 O24 2.084854 1_555
In0 O28 2.100797 1_555
In0 O26 2.107216 1_555
In0 O100 2.185567 1_555
In0 O98 2.190039 1_555
In0 O96 2.194065 1_555
In1 O25 2.084381 1_555
In1 O29 2.102100 1_555
In1 O27 2.108207 1_555
In1 O101 2.191123 1_555
In1 O99 2.196032 1_555
In1 O97 2.201667 1_555
In2 O35 2.099694 1_555
In2 O33 2.102737 1_555
In2 O31 2.104712 1_555
In2 O103 2.194145 1_555
In2 O107 2.197749 1_555
In2 O105 2.198982 1_555
O0 Si0 1.630607 1_555
O0 Ta0 2.000214 1_555
O1 Si1 1.652743 1_545
O1 Ta1 1.924746 1_545
O2 Si2 1.639190 1_555
O2 Ta1 1.932395 1_555
O3 Si3 1.636320 1_555
O3 Ta0 1.961557 1_665
O4 Si5 1.644006 1_555
O4 Ta1 1.991957 1_545
O5 Si4 1.633641 1_655
O5 Ta0 1.962577 1_655
O6 Si6 1.627732 1_555
O6 Ta2 1.972325 1_555
O7 Si7 1.625653 1_555
O7 Ta3 1.978806 1_545
O8 Si9 1.624569 1_555
O8 Ta3 1.972393 1_555
O9 Si8 1.626473 1_655
O9 Ta2 1.975602 1_665
O10 Si10 1.627053 1_545
O10 Ta3 1.975357 1_545
O11 Si11 1.626018 1_545
O11 Ta2 1.975776 1_655
O12 Si10 1.672697 1_555
O12 Ta5 1.986560 1_555
O13 Si11 1.671336 1_555
O13 Ta4 1.984695 1_555
O14 Si6 1.670444 1_555
O14 Ta4 1.990656 1_445
O15 Si7 1.671594 1_555
O15 Ta5 1.986561 1_545
O16 Si8 1.672326 1_555
O16 Ta4 1.939301 1_455
O17 Si9 1.670970 1_555
O17 Ta5 1.938607 1_555
O18 Si2 1.633333 1_555
O18 Ta7 1.940640 1_555
O19 Si3 1.665416 1_555
O19 Ta6 2.006251 1_665
O20 Si4 1.666036 1_555
O20 Ta6 1.995501 1_555
O21 Si5 1.642353 1_555
O21 Ta7 1.974906 1_545
O22 Si0 1.663136 1_565
O22 Ta6 1.935748 1_565
O23 Si1 1.639849 1_555
O23 Ta7 2.017936 1_555
O24 Si12 1.597756 1_555
O25 Si13 1.599261 1_555
O26 Si14 1.607563 1_555
O27 Si15 1.611945 1_555
O28 Si16 1.607842 1_555
O29 Si17 1.611936 1_555
O30 Si18 1.645120 1_555
O30 Ta8 1.924430 1_555
O31 Si19 1.614544 1_555
O32 Si20 1.649585 1_555
O32 Ta8 1.926609 1_555
O33 Si21 1.611316 1_555
O34 Si22 1.643547 1_555
O34 Ta8 1.994708 1_555
O35 Si23 1.616032 1_555
O36 Si22 1.623242 1_555
O36 Ta9 1.970555 1_554
O37 Si23 1.650172 1_555
O37 Ta10 1.994567 1_554
O38 Si18 1.621258 1_555
O38 Ta9 1.971923 1_554
O39 Si19 1.648511 1_555
O39 Ta10 1.994344 1_554
O40 Si20 1.626789 1_555
O40 Ta9 1.963961 1_554
O41 Si21 1.641744 1_555
O41 Ta10 2.003415 1_554
O42 Si14 1.658029 1_555
O42 Ta11 1.963054 1_555
O43 Si15 1.641772 1_555
O43 Ta12 2.008297 1_555
O44 Si16 1.648407 1_555
O44 Ta11 1.946273 1_555
O45 Si17 1.634297 1_555
O45 Ta12 1.979080 1_555
O46 Si12 1.654712 1_555
O46 Ta11 2.035459 1_555
O47 Si13 1.643309 1_555
O47 Ta12 1.991471 1_555
O48 Si24 1.633211 1_555
O48 Ta13 1.931342 1_556
O49 Si25 1.637391 1_555
O49 Ta14 1.980750 1_556
O50 Si26 1.631561 1_555
O50 Ta13 2.011025 1_556
O51 Si27 1.638894 1_555
O51 Ta14 1.909569 1_556
O52 Si28 1.632833 1_555
O52 Ta13 1.939864 1_556
O53 Si29 1.639454 1_555
O53 Ta14 1.971826 1_556
O54 Si30 1.632256 1_555
O54 Ta15 1.978144 1_555
O55 Si31 1.644051 1_555
O55 Ta16 1.959893 1_555
O56 Si32 1.637771 1_555
O56 Ta15 1.965793 1_555
O57 Si33 1.649291 1_555
O57 Ta16 1.989640 1_555
O58 Si34 1.643795 1_555
O58 Ta15 1.911382 1_555
O59 Si35 1.637092 1_555
O59 Ta16 1.928598 1_555
O60 Si34 1.649718 1_555
O60 Ta17 1.969089 1_555
O61 Si35 1.649148 1_555
O61 Ta18 1.942079 1_555
O62 Si30 1.642176 1_555
O62 Ta17 1.921112 1_555
O63 Si31 1.651485 1_555
O63 Ta18 1.964145 1_555
O64 Si32 1.644982 1_555
O64 Ta17 1.967602 1_555
O65 Si33 1.649142 1_555
O65 Ta18 1.976431 1_555
O66 Si26 1.667141 1_555
O66 Ta19 1.934249 1_555
O67 Si27 1.663909 1_555
O67 Ta20 1.932347 1_555
O68 Si28 1.668262 1_555
O68 Ta19 1.930681 1_555
O69 Si29 1.663250 1_555
O69 Ta20 1.937645 1_555
O70 Si24 1.668190 1_555
O70 Ta19 1.930225 1_555
O71 Si25 1.663073 1_555
O71 Ta20 1.934474 1_555
O72 Si34 1.629278 1_555
O72 Ta0 1.997281 1_565
O73 Si35 1.620042 1_555
O73 Ta1 2.002879 1_555
O74 Si30 1.637279 1_555
O74 Ta1 2.045607 1_555
O75 Si31 1.634747 1_555
O75 Ta0 1.995125 1_665
O76 Si32 1.626604 1_555
O76 Ta0 2.000505 1_555
O77 Si33 1.645964 1_555
O77 Ta1 2.062425 1_545
O78 Si26 1.635535 1_555
O78 Ta2 1.990216 1_555
O79 Si27 1.626703 1_555
O79 Ta3 1.987376 1_545
O80 Si28 1.633564 1_555
O80 Ta2 1.988589 1_565
O81 Si29 1.628487 1_555
O81 Ta3 1.991491 1_555
O82 Si24 1.631807 1_555
O82 Ta3 1.982883 1_555
O83 Si25 1.629417 1_555
O83 Ta2 1.995949 1_665
O84 Si12 1.673677 1_555
O84 Ta5 2.070493 1_545
O85 Si13 1.673522 1_555
O85 Ta4 2.063699 1_545
O86 Si14 1.645649 1_555
O86 Ta4 2.024325 1_445
O87 Si15 1.652932 1_555
O87 Ta5 2.014888 1_545
O88 Si16 1.648105 1_555
O88 Ta5 2.015402 1_555
O89 Si17 1.653168 1_555
O89 Ta4 2.008268 1_555
O90 Si18 1.645598 1_555
O90 Ta7 2.028496 1_555
O91 Si19 1.659299 1_555
O91 Ta6 2.007974 1_665
O92 Si20 1.644526 1_555
O92 Ta7 1.969002 1_545
O93 Si21 1.659905 1_555
O93 Ta6 2.071630 1_655
O94 Si22 1.667351 1_555
O94 Ta6 1.989838 1_555
O95 Si23 1.643048 1_555
O95 Ta7 2.049642 1_545
O96 Si10 1.608236 1_545
O97 Si11 1.607583 1_545
O98 Si6 1.609192 1_555
O99 Si7 1.608535 1_555
O100 Si9 1.605889 1_555
O101 Si8 1.606974 1_655
O102 Si2 1.638161 1_555
O102 Ta8 2.068242 1_555
O103 Si3 1.608834 1_555
O104 Si5 1.629845 1_555
O104 Ta8 2.003157 1_555
O105 Si4 1.607554 1_655
O106 Si0 1.627605 1_555
O106 Ta8 2.077077 1_555
O107 Si1 1.617675 1_545
O108 Si24 1.621415 1_555
O108 Ta9 2.014730 1_555
O109 Si25 1.632052 1_555
O109 Ta10 1.996138 1_555
O110 Si27 1.617407 1_555
O110 Ta9 2.015216 1_555
O111 Si26 1.636309 1_655
O111 Ta10 1.996149 1_555
O112 Si28 1.623817 1_545
O112 Ta9 2.009310 1_555
O113 Si29 1.629960 1_545
O113 Ta10 2.000194 1_555
O114 Si30 1.644499 1_545
O114 Ta11 2.038795 1_555
O115 Si31 1.633397 1_545
O115 Ta12 2.000120 1_555
O116 Si32 1.646284 1_555
O116 Ta11 1.972705 1_555
O117 Si33 1.621164 1_555
O117 Ta12 2.005727 1_555
O118 Si35 1.641690 1_555
O118 Ta11 2.043811 1_555
O119 Si34 1.631342 1_655
O119 Ta12 1.990793 1_555
O120 Si22 1.644955 1_555
O120 Ta13 2.063581 1_555
O121 Si23 1.648831 1_555
O121 Ta14 1.985979 1_555
O122 Si19 1.635461 1_455
O122 Ta13 2.015587 1_555
O123 Si18 1.654856 1_555
O123 Ta14 2.026822 1_555
O124 Si20 1.638880 1_565
O124 Ta13 1.988213 1_555
O125 Si21 1.650564 1_565
O125 Ta14 2.053754 1_555
O126 Si14 1.638344 1_565
O126 Ta15 2.000294 1_555
O127 Si15 1.646560 1_565
O127 Ta16 1.988624 1_555
O128 Si16 1.655318 1_555
O128 Ta15 2.054896 1_555
O129 Si17 1.665160 1_555
O129 Ta16 2.035407 1_555
O130 Si13 1.648809 1_455
O130 Ta15 1.993912 1_555
O131 Si12 1.646763 1_555
O131 Ta16 2.004285 1_555
O132 Si0 1.640764 1_565
O132 Ta17 2.034425 1_555
O133 Si1 1.652495 1_555
O133 Ta18 2.001246 1_555
O134 Si2 1.652730 1_555
O134 Ta17 2.016000 1_555
O135 Si3 1.656290 1_555
O135 Ta18 2.064318 1_555
O136 Si4 1.653841 1_555
O136 Ta17 2.072497 1_555
O137 Si5 1.655632 1_555
O137 Ta18 2.030191 1_555
O138 Si6 1.656250 1_555
O138 Ta19 2.073369 1_555
O139 Si7 1.658086 1_555
O139 Ta20 2.065543 1_555
O140 Si8 1.653231 1_555
O140 Ta19 2.074141 1_555
O141 Si9 1.653888 1_555
O141 Ta20 2.067157 1_555
O142 Si10 1.656310 1_555
O142 Ta19 2.072170 1_555
O143 Si11 1.658426 1_555
O143 Ta20 2.064543 1_555
