# generated using pymatgen
data_CoBMo
_symmetry_space_group_name_H-M   'P 1'
_cell_length_a   3.22342912
_cell_length_b   5.70925821
_cell_length_c   6.56806770
_cell_angle_alpha   90.00000000
_cell_angle_beta   90.00000000
_cell_angle_gamma   90.00000000
_symmetry_Int_Tables_number   1
_chemical_formula_structural   CoBMo
_chemical_formula_sum   'Co4 B4 Mo4'
_cell_volume   120.87470596
_cell_formula_units_Z   4
loop_
 _symmetry_equiv_pos_site_id
 _symmetry_equiv_pos_as_xyz
  1  'x, y, z'
loop_
 _atom_site_type_symbol
 _atom_site_label
 _atom_site_symmetry_multiplicity
 _atom_site_fract_x
 _atom_site_fract_y
 _atom_site_fract_z
 _atom_site_occupancy
  Co  Co0  1  0.75000000  0.85704891  0.44221424  1
  Co  Co1  1  0.25000000  0.14295109  0.55778576  1
  Co  Co2  1  0.75000000  0.35704891  0.05778576  1
  Co  Co3  1  0.25000000  0.64295109  0.94221424  1
  B  B0  1  0.25000000  0.77304570  0.62453651  1
  B  B1  1  0.75000000  0.22695430  0.37546349  1
  B  B2  1  0.25000000  0.27304570  0.87546349  1
  B  B3  1  0.75000000  0.72695430  0.12453651  1
  Mo  Mo0  1  0.25000000  0.52696976  0.32585267  1
  Mo  Mo1  1  0.75000000  0.47303024  0.67414733  1
  Mo  Mo2  1  0.25000000  0.02696976  0.17414733  1
  Mo  Mo3  1  0.75000000  0.97303024  0.82585267  1
loop_
_geom_bond_atom_site_label_1
_geom_bond_atom_site_label_2
_geom_bond_distance
_geom_bond_site_symmetry_2
Co0 Mo2 2.576579 1_665
Co0 Mo2 2.576579 1_565
Co0 Mo0 2.594822 1_555
Co0 Mo0 2.594822 1_655
Co0 Mo3 2.605316 1_555
Co0 Mo1 2.669736 1_555
Co1 Mo3 2.576579 1_545
Co1 Mo3 2.576579 1_445
Co1 Mo1 2.594822 1_455
Co1 Mo1 2.594822 1_555
Co1 Mo2 2.605316 1_555
Co1 Mo0 2.669736 1_555
Co2 Mo0 2.576579 1_555
Co2 Mo0 2.576579 1_655
Co2 Mo2 2.594822 1_655
Co2 Mo2 2.594822 1_555
Co2 Mo1 2.605316 1_554
Co2 Mo3 2.669736 1_544
Co3 Mo1 2.576579 1_555
Co3 Mo1 2.576579 1_455
Co3 Mo3 2.594822 1_455
Co3 Mo3 2.594822 1_555
Co3 Mo0 2.605316 1_556
Co3 Mo2 2.669736 1_566
B0 Co0 2.064377 1_455
B0 Co0 2.064377 1_555
B0 Co1 2.156913 1_565
B0 Co3 2.214785 1_555
B0 Mo1 2.374386 1_555
B0 Mo1 2.374386 1_455
B0 Mo3 2.376892 1_555
B0 Mo3 2.376892 1_455
B0 Mo0 2.412952 1_555
B1 Co1 2.064377 1_555
B1 Co1 2.064377 1_655
B1 Co0 2.156913 1_545
B1 Co2 2.214785 1_555
B1 Mo0 2.374386 1_655
B1 Mo0 2.374386 1_555
B1 Mo2 2.376892 1_655
B1 Mo2 2.376892 1_555
B1 Mo1 2.412952 1_555
B2 Co2 2.064377 1_456
B2 Co2 2.064377 1_556
B2 Co3 2.156913 1_555
B2 Co1 2.214785 1_555
B2 Mo3 2.374386 1_545
B2 Mo3 2.374386 1_445
B2 Mo1 2.376892 1_455
B2 Mo1 2.376892 1_555
B2 Mo2 2.412952 1_556
B3 Co3 2.064377 1_654
B3 Co3 2.064377 1_554
B3 Co2 2.156913 1_555
B3 Co0 2.214785 1_555
B3 Mo2 2.374386 1_565
B3 Mo2 2.374386 1_665
B3 Mo0 2.376892 1_655
B3 Mo0 2.376892 1_555
B3 Mo3 2.412952 1_554
