# generated using pymatgen
data_YbMg(FeO2)2
_symmetry_space_group_name_H-M   'P 1'
_cell_length_a   11.26743758
_cell_length_b   11.26743753
_cell_length_c   11.26743726
_cell_angle_alpha   16.33685824
_cell_angle_beta   16.33685974
_cell_angle_gamma   16.33686091
_symmetry_Int_Tables_number   1
_chemical_formula_structural   YbMg(FeO2)2
_chemical_formula_sum   'Yb1 Mg1 Fe2 O4'
_cell_volume   98.67987426
_cell_formula_units_Z   1
loop_
 _symmetry_equiv_pos_site_id
 _symmetry_equiv_pos_as_xyz
  1  'x, y, z'
loop_
 _atom_site_type_symbol
 _atom_site_label
 _atom_site_symmetry_multiplicity
 _atom_site_fract_x
 _atom_site_fract_y
 _atom_site_fract_z
 _atom_site_occupancy
  Yb  Yb0  1  0.00000769  0.00000769  0.00000769  1
  Mg  Mg0  1  0.49999664  0.49999664  0.49999664  1
  Fe  Fe0  1  0.75978829  0.75978829  0.75978829  1
  Fe  Fe1  1  0.24022163  0.24022163  0.24022163  1
  O  O0  1  0.86842385  0.86842385  0.86842385  1
  O  O1  1  0.13157449  0.13157449  0.13157449  1
  O  O2  1  0.70535206  0.70535206  0.70535206  1
  O  O3  1  0.29463435  0.29463435  0.29463435  1
loop_
_geom_bond_atom_site_label_1
_geom_bond_atom_site_label_2
_geom_bond_distance
_geom_bond_site_symmetry_2
Mg0 O1 2.187733 1_565
Mg0 O1 2.187733 1_556
Mg0 O1 2.187733 1_655
Mg0 O0 2.187823 1_545
Mg0 O0 2.187823 1_554
Mg0 O0 2.187823 1_455
Fe0 O2 1.815137 1_555
Fe0 O1 2.249720 1_656
Fe0 O1 2.249721 1_665
Fe0 O1 2.249721 1_566
Fe1 O3 1.814353 1_555
Fe1 O0 2.249941 1_454
Fe1 O0 2.249941 1_445
Fe1 O0 2.249941 1_544
O2 Yb0 2.254002 1_665
O2 Yb0 2.254002 1_656
O2 Yb0 2.254002 1_566
O3 Yb0 2.254554 1_556
O3 Yb0 2.254555 1_565
O3 Yb0 2.254555 1_655
