# generated using pymatgen
data_Na2TbO3
_symmetry_space_group_name_H-M   'P 1'
_cell_length_a   5.98966633
_cell_length_b   5.98966633
_cell_length_c   11.34652258
_cell_angle_alpha   84.88122537
_cell_angle_beta   84.88122537
_cell_angle_gamma   120.11948109
_symmetry_Int_Tables_number   1
_chemical_formula_structural   Na2TbO3
_chemical_formula_sum   'Na8 Tb4 O12'
_cell_volume   346.43513628
_cell_formula_units_Z   4
loop_
 _symmetry_equiv_pos_site_id
 _symmetry_equiv_pos_as_xyz
  1  'x, y, z'
loop_
 _atom_site_type_symbol
 _atom_site_label
 _atom_site_symmetry_multiplicity
 _atom_site_fract_x
 _atom_site_fract_y
 _atom_site_fract_z
 _atom_site_occupancy
  Na  Na0  1  0.08587300  0.91412700  0.25000000  1
  Na  Na1  1  0.15917200  0.31822200  0.00016300  1
  Na  Na2  1  0.31822200  0.15917200  0.50016300  1
  Na  Na3  1  0.84082800  0.68177800  0.99983700  1
  Na  Na4  1  0.50000000  0.00000000  0.00000000  1
  Na  Na5  1  0.00000000  0.50000000  0.50000000  1
  Na  Na6  1  0.91412700  0.08587300  0.75000000  1
  Na  Na7  1  0.68177800  0.84082800  0.49983700  1
  Tb  Tb0  1  0.75247200  0.24752800  0.25000000  1
  Tb  Tb1  1  0.24752800  0.75247200  0.75000000  1
  Tb  Tb2  1  0.41841100  0.58158900  0.25000000  1
  Tb  Tb3  1  0.58158900  0.41841100  0.75000000  1
  O  O0  1  0.04640100  0.23958100  0.36367800  1
  O  O1  1  0.76041900  0.95359900  0.13632200  1
  O  O2  1  0.95359900  0.76041900  0.63632200  1
  O  O3  1  0.23958100  0.04640100  0.86367800  1
  O  O4  1  0.41023300  0.87709100  0.36130900  1
  O  O5  1  0.12290900  0.58976700  0.13869100  1
  O  O6  1  0.58976700  0.12290900  0.63869100  1
  O  O7  1  0.87709100  0.41023300  0.86130900  1
  O  O8  1  0.68441200  0.51472700  0.36087200  1
  O  O9  1  0.51472700  0.68441200  0.86087200  1
  O  O10  1  0.31558800  0.48527300  0.63912800  1
  O  O11  1  0.48527300  0.31558800  0.13912800  1
loop_
_geom_bond_atom_site_label_1
_geom_bond_atom_site_label_2
_geom_bond_distance
_geom_bond_site_symmetry_2
Na0 O8 2.497533 1_455
Na0 O11 2.497533 1_565
Na0 O4 2.497837 1_555
Na0 O5 2.497837 1_555
Na0 O1 2.525156 1_455
Na0 O0 2.525156 1_565
Na1 O5 2.431659 1_555
Na1 O9 2.436594 1_554
Na1 O1 2.522985 1_445
Na1 O3 2.526811 1_554
Na1 O11 2.622525 1_555
Na1 O7 2.625868 1_454
Na2 O6 2.431659 1_555
Na2 O8 2.436594 1_555
Na2 O2 2.522985 1_445
Na2 O0 2.526811 1_555
Na2 O10 2.622525 1_555
Na2 O4 2.625868 1_545
Na3 O7 2.431659 1_555
Na3 O11 2.436594 1_556
Na3 O3 2.522985 1_665
Na3 O1 2.526811 1_556
Na3 O9 2.622525 1_555
Na3 O5 2.625868 1_656
Na4 O1 2.385732 1_545
Na4 O3 2.385732 1_554
Na4 O7 2.592569 1_554
Na4 O5 2.592569 1_545
Na4 O9 2.597671 1_544
Na4 O11 2.597671 1_555
Na5 O2 2.385732 1_455
Na5 O0 2.385732 1_555
Na5 O4 2.592569 1_555
Na5 O6 2.592569 1_455
Na5 O10 2.597671 1_555
Na5 O8 2.597671 1_455
Na6 O9 2.497533 1_545
Na6 O10 2.497533 1_655
Na6 O7 2.497837 1_555
Na6 O6 2.497837 1_555
Na6 O3 2.525156 1_655
Na6 O2 2.525156 1_545
Na7 O4 2.431659 1_555
Na7 O10 2.436594 1_555
Na7 O0 2.522985 1_665
Na7 O2 2.526811 1_555
Na7 O8 2.622525 1_555
Na7 O6 2.625868 1_565
O0 Tb0 2.289940 1_455
O0 Tb2 2.293407 1_555
O1 Tb0 2.289940 1_565
O1 Tb2 2.293407 1_555
O2 Tb1 2.289940 1_655
O2 Tb3 2.293407 1_555
O3 Tb1 2.289940 1_545
O3 Tb3 2.293407 1_555
O4 Tb0 2.278921 1_565
O4 Tb2 2.281470 1_555
O5 Tb0 2.278921 1_455
O5 Tb2 2.281470 1_555
O6 Tb1 2.278921 1_545
O6 Tb3 2.281470 1_555
O7 Tb1 2.278921 1_655
O7 Tb3 2.281470 1_555
O8 Tb2 2.278064 1_555
O8 Tb0 2.287510 1_555
O9 Tb3 2.278064 1_555
O9 Tb1 2.287510 1_555
O10 Tb3 2.278064 1_555
O10 Tb1 2.287510 1_555
O11 Tb2 2.278064 1_555
O11 Tb0 2.287510 1_555
