# generated using pymatgen
data_Ba2WO5
_symmetry_space_group_name_H-M   'P 1'
_cell_length_a   5.75789715
_cell_length_b   7.44365566
_cell_length_c   11.60028647
_cell_angle_alpha   90.00000000
_cell_angle_beta   90.00000000
_cell_angle_gamma   90.00000000
_symmetry_Int_Tables_number   1
_chemical_formula_structural   Ba2WO5
_chemical_formula_sum   'Ba8 W4 O20'
_cell_volume   497.18600109
_cell_formula_units_Z   4
loop_
 _symmetry_equiv_pos_site_id
 _symmetry_equiv_pos_as_xyz
  1  'x, y, z'
loop_
 _atom_site_type_symbol
 _atom_site_label
 _atom_site_symmetry_multiplicity
 _atom_site_fract_x
 _atom_site_fract_y
 _atom_site_fract_z
 _atom_site_occupancy
  Ba  Ba0  1  0.75000000  0.17523874  0.58430060  1
  Ba  Ba1  1  0.25000000  0.82476126  0.41569940  1
  Ba  Ba2  1  0.75000000  0.67523874  0.91569940  1
  Ba  Ba3  1  0.25000000  0.32476126  0.08430060  1
  Ba  Ba4  1  0.25000000  0.02232260  0.78554205  1
  Ba  Ba5  1  0.75000000  0.97767740  0.21445795  1
  Ba  Ba6  1  0.25000000  0.52232260  0.71445795  1
  Ba  Ba7  1  0.75000000  0.47767740  0.28554205  1
  W  W0  1  0.25000000  0.32270945  0.43467876  1
  W  W1  1  0.75000000  0.67729055  0.56532124  1
  W  W2  1  0.25000000  0.82270945  0.06532124  1
  W  W3  1  0.75000000  0.17729055  0.93467876  1
  O  O0  1  0.48956685  0.67698236  0.11447937  1
  O  O1  1  0.98956685  0.32301764  0.88552063  1
  O  O2  1  0.01043315  0.17698236  0.38552063  1
  O  O3  1  0.51043315  0.82301764  0.61447937  1
  O  O4  1  0.51043315  0.32301764  0.88552063  1
  O  O5  1  0.01043315  0.67698236  0.11447937  1
  O  O6  1  0.98956685  0.82301764  0.61447937  1
  O  O7  1  0.48956685  0.17698236  0.38552063  1
  O  O8  1  0.75000000  0.27583720  0.09023822  1
  O  O9  1  0.25000000  0.72416280  0.90976178  1
  O  O10  1  0.75000000  0.77583720  0.40976178  1
  O  O11  1  0.25000000  0.22416280  0.59023822  1
  O  O12  1  0.00000000  0.50000000  0.50000000  1
  O  O13  1  0.50000000  0.50000000  0.50000000  1
  O  O14  1  0.50000000  -0.00000000  0.00000000  1
  O  O15  1  0.00000000  -0.00000000  0.00000000  1
  O  O16  1  0.25000000  0.47410698  0.30568586  1
  O  O17  1  0.75000000  0.52589302  0.69431414  1
  O  O18  1  0.25000000  0.97410698  0.19431414  1
  O  O19  1  0.75000000  0.02589302  0.80568586  1
loop_
_geom_bond_atom_site_label_1
_geom_bond_atom_site_label_2
_geom_bond_distance
_geom_bond_site_symmetry_2
Ba0 O2 2.750637 1_655
Ba0 O7 2.750637 1_555
Ba0 O19 2.798416 1_555
Ba0 O11 2.902708 1_655
Ba0 O11 2.902708 1_555
Ba0 O17 2.905433 1_555
Ba0 O12 2.978636 1_655
Ba0 O13 2.978636 1_555
Ba0 O6 2.983154 1_545
Ba0 O3 2.983154 1_545
Ba1 O6 2.750637 1_455
Ba1 O3 2.750637 1_555
Ba1 O18 2.798416 1_555
Ba1 O10 2.902708 1_455
Ba1 O10 2.902708 1_555
Ba1 O16 2.905433 1_555
Ba1 O12 2.978636 1_555
Ba1 O13 2.978636 1_555
Ba1 O7 2.983154 1_565
Ba1 O2 2.983154 1_565
Ba2 O5 2.750637 1_656
Ba2 O0 2.750637 1_556
Ba2 O17 2.798416 1_555
Ba2 O9 2.902708 1_555
Ba2 O9 2.902708 1_655
Ba2 O19 2.905433 1_565
Ba2 O15 2.978636 1_666
Ba2 O14 2.978636 1_566
Ba2 O4 2.983154 1_555
Ba2 O1 2.983154 1_555
Ba3 O4 2.750637 1_554
Ba3 O1 2.750637 1_454
Ba3 O16 2.798416 1_555
Ba3 O8 2.902708 1_555
Ba3 O8 2.902708 1_455
Ba3 O18 2.905433 1_545
Ba3 O15 2.978636 1_555
Ba3 O14 2.978636 1_555
Ba3 O5 2.983154 1_555
Ba3 O0 2.983154 1_555
Ba4 O9 2.646161 1_545
Ba4 O11 2.718483 1_555
Ba4 O15 2.879013 1_556
Ba4 O14 2.879013 1_556
Ba4 O19 2.888539 1_455
Ba4 O19 2.888539 1_555
Ba4 O6 2.896089 1_445
Ba4 O3 2.896089 1_545
Ba4 O4 2.933187 1_555
Ba4 O1 2.933187 1_455
Ba5 O8 2.646161 1_565
Ba5 O10 2.718483 1_555
Ba5 O14 2.879013 1_565
Ba5 O15 2.879013 1_665
Ba5 O18 2.888539 1_555
Ba5 O18 2.888539 1_655
Ba5 O2 2.896089 1_665
Ba5 O7 2.896089 1_565
Ba5 O0 2.933187 1_555
Ba5 O5 2.933187 1_655
Ba6 O11 2.646161 1_555
Ba6 O9 2.718483 1_555
Ba6 O13 2.879013 1_555
Ba6 O12 2.879013 1_555
Ba6 O17 2.888539 1_455
Ba6 O17 2.888539 1_555
Ba6 O4 2.896089 1_555
Ba6 O1 2.896089 1_455
Ba6 O3 2.933187 1_555
Ba6 O6 2.933187 1_455
Ba7 O10 2.646161 1_555
Ba7 O8 2.718483 1_555
Ba7 O13 2.879013 1_555
Ba7 O12 2.879013 1_655
Ba7 O16 2.888539 1_655
Ba7 O16 2.888539 1_555
Ba7 O5 2.896089 1_655
Ba7 O0 2.896089 1_555
Ba7 O2 2.933187 1_655
Ba7 O7 2.933187 1_555
O0 W2 1.845155 1_555
O1 W3 1.845155 1_555
O2 W0 1.845155 1_555
O3 W1 1.845155 1_555
O4 W3 1.845155 1_555
O5 W2 1.845155 1_555
O6 W1 1.845155 1_555
O7 W0 1.845155 1_555
O8 W3 1.947931 1_554
O9 W2 1.947931 1_556
O10 W1 1.947931 1_555
O11 W0 1.947931 1_555
O12 W1 2.094718 1_455
O12 W0 2.094718 1_555
O13 W1 2.094718 1_555
O13 W0 2.094718 1_555
O14 W3 2.094718 1_554
O14 W2 2.094718 1_545
O15 W3 2.094718 1_454
O15 W2 2.094718 1_545
O16 W0 1.873258 1_555
O17 W1 1.873258 1_555
O18 W2 1.873258 1_555
O19 W3 1.873258 1_555
