# generated using pymatgen
data_Mn6Ni16As7
_symmetry_space_group_name_H-M   'P 1'
_cell_length_a   8.01103051
_cell_length_b   8.01103051
_cell_length_c   8.01103051
_cell_angle_alpha   60.00000000
_cell_angle_beta   60.00000000
_cell_angle_gamma   60.00000000
_symmetry_Int_Tables_number   1
_chemical_formula_structural   Mn6Ni16As7
_chemical_formula_sum   'Mn6 Ni16 As7'
_cell_volume   363.53828986
_cell_formula_units_Z   1
loop_
 _symmetry_equiv_pos_site_id
 _symmetry_equiv_pos_as_xyz
  1  'x, y, z'
loop_
 _atom_site_type_symbol
 _atom_site_label
 _atom_site_symmetry_multiplicity
 _atom_site_fract_x
 _atom_site_fract_y
 _atom_site_fract_z
 _atom_site_occupancy
  Mn  Mn0  1  0.81200500  0.81200500  0.18799500  1
  Mn  Mn1  1  0.81200500  0.18799500  0.81200500  1
  Mn  Mn2  1  0.18799500  0.18799500  0.81200500  1
  Mn  Mn3  1  0.81200500  0.18799500  0.18799500  1
  Mn  Mn4  1  0.18799500  0.81200500  0.81200500  1
  Mn  Mn5  1  0.18799500  0.81200500  0.18799500  1
  Ni  Ni0  1  0.14655200  0.61781600  0.61781600  1
  Ni  Ni1  1  0.61781600  0.14655200  0.61781600  1
  Ni  Ni2  1  0.61781600  0.61781600  0.14655200  1
  Ni  Ni3  1  0.38218400  0.85344800  0.38218400  1
  Ni  Ni4  1  0.61781600  0.61781600  0.61781600  1
  Ni  Ni5  1  0.38218400  0.38218400  0.85344800  1
  Ni  Ni6  1  0.85344800  0.38218400  0.38218400  1
  Ni  Ni7  1  0.16393900  0.16393900  0.16393900  1
  Ni  Ni8  1  0.49181600  0.83606100  0.83606100  1
  Ni  Ni9  1  0.83606100  0.49181600  0.83606100  1
  Ni  Ni10  1  0.83606100  0.83606100  0.49181600  1
  Ni  Ni11  1  0.16393900  0.50818400  0.16393900  1
  Ni  Ni12  1  0.16393900  0.16393900  0.50818400  1
  Ni  Ni13  1  0.50818400  0.16393900  0.16393900  1
  Ni  Ni14  1  0.83606100  0.83606100  0.83606100  1
  Ni  Ni15  1  0.38218400  0.38218400  0.38218400  1
  As  As0  1  0.50000000  0.50000000  0.00000000  1
  As  As1  1  0.00000000  0.00000000  0.50000000  1
  As  As2  1  0.50000000  0.00000000  0.50000000  1
  As  As3  1  0.00000000  0.50000000  0.50000000  1
  As  As4  1  0.50000000  0.00000000  0.00000000  1
  As  As5  1  0.00000000  0.50000000  0.00000000  1
  As  As6  1  0.50000000  0.50000000  0.50000000  1
loop_
_geom_bond_atom_site_label_1
_geom_bond_atom_site_label_2
_geom_bond_distance
_geom_bond_site_symmetry_2
Mn0 Ni10 2.640734 1_555
Mn0 Ni13 2.640739 1_565
Mn0 Ni11 2.640739 1_655
Mn0 Ni14 2.640742 1_554
Mn0 Ni2 2.898855 1_555
Mn0 Ni6 2.898855 1_555
Mn0 Ni3 2.898855 1_555
Mn0 Ni4 2.898855 1_555
Mn0 Mn3 3.012067 1_565
Mn0 Mn5 3.012067 1_655
Mn0 Mn1 3.012067 1_564
Mn0 Mn4 3.012067 1_654
Mn1 Ni9 2.640734 1_555
Mn1 Ni12 2.640739 1_655
Mn1 Ni13 2.640739 1_556
Mn1 Ni14 2.640742 1_545
Mn1 Ni1 2.898855 1_555
Mn1 Ni6 2.898855 1_555
Mn1 Ni5 2.898855 1_555
Mn1 Ni4 2.898855 1_555
Mn1 Mn2 3.012067 1_655
Mn1 Mn3 3.012067 1_556
Mn1 Mn4 3.012067 1_645
Mn2 Ni12 2.640734 1_555
Mn2 Ni8 2.640739 1_545
Mn2 Ni9 2.640739 1_455
Mn2 Ni7 2.640742 1_556
Mn2 Ni15 2.898855 1_555
Mn2 Ni0 2.898855 1_555
Mn2 Ni1 2.898855 1_555
Mn2 Ni5 2.898855 1_555
Mn2 Mn5 3.012067 1_546
Mn2 Mn3 3.012067 1_456
Mn2 Mn4 3.012067 1_545
Mn3 Ni13 2.640734 1_555
Mn3 Ni10 2.640739 1_545
Mn3 Ni9 2.640739 1_554
Mn3 Ni7 2.640742 1_655
Mn3 Ni15 2.898855 1_555
Mn3 Ni2 2.898855 1_555
Mn3 Ni1 2.898855 1_555
Mn3 Ni6 2.898855 1_555
Mn3 Mn5 3.012067 1_645
Mn4 Ni8 2.640734 1_555
Mn4 Ni12 2.640739 1_565
Mn4 Ni11 2.640739 1_556
Mn4 Ni14 2.640742 1_455
Mn4 Ni0 2.898855 1_555
Mn4 Ni5 2.898855 1_555
Mn4 Ni3 2.898855 1_555
Mn4 Ni4 2.898855 1_555
Mn4 Mn5 3.012067 1_556
Mn5 Ni11 2.640734 1_555
Mn5 Ni10 2.640739 1_455
Mn5 Ni8 2.640739 1_554
Mn5 Ni7 2.640742 1_565
Mn5 Ni15 2.898855 1_555
Mn5 Ni0 2.898855 1_555
Mn5 Ni2 2.898855 1_555
Mn5 Ni3 2.898855 1_555
Ni0 Ni14 2.580635 1_455
Ni0 Ni10 2.580639 1_455
Ni0 Ni9 2.580639 1_455
Ni0 Ni5 2.669548 1_555
Ni0 Ni3 2.669548 1_555
Ni0 Ni15 2.669548 1_555
Ni1 Ni14 2.580635 1_545
Ni1 Ni8 2.580639 1_545
Ni1 Ni10 2.580639 1_545
Ni1 Ni5 2.669548 1_555
Ni1 Ni6 2.669548 1_555
Ni1 Ni15 2.669548 1_555
Ni2 Ni8 2.580639 1_554
Ni2 Ni9 2.580639 1_554
Ni2 Ni3 2.669548 1_555
Ni2 Ni6 2.669548 1_555
Ni3 Ni7 2.580635 1_565
Ni3 Ni4 2.669548 1_555
Ni4 Ni8 2.580633 1_555
Ni4 Ni9 2.580633 1_555
Ni4 Ni6 2.669548 1_555
Ni4 Ni5 2.669548 1_555
Ni5 Ni7 2.580635 1_556
Ni6 Ni7 2.580635 1_655
Ni10 Ni4 2.580633 1_555
Ni11 Ni15 2.580633 1_555
Ni11 Ni6 2.580639 1_455
Ni11 Ni5 2.580639 1_554
Ni12 Ni15 2.580633 1_555
Ni12 Ni3 2.580639 1_545
Ni12 Ni6 2.580639 1_455
Ni13 Ni15 2.580633 1_555
Ni13 Ni3 2.580639 1_545
Ni13 Ni5 2.580639 1_554
Ni14 Ni2 2.580635 1_556
Ni15 Ni2 2.669548 1_555
As0 Ni11 2.313202 1_555
As0 Ni8 2.313202 1_554
As0 Ni13 2.313202 1_555
As0 Ni9 2.313202 1_554
As0 Ni4 2.503388 1_554
As0 Ni5 2.503388 1_554
As0 Ni2 2.503388 1_555
As0 Ni15 2.503388 1_555
As0 Mn5 2.918141 1_555
As0 Mn1 2.918141 1_554
As0 Mn4 2.918141 1_554
As0 Mn3 2.918141 1_555
As1 Ni7 2.313205 1_555
As1 Ni14 2.313205 1_445
As1 Ni10 2.313209 1_445
As1 Ni12 2.313209 1_555
As1 Ni0 2.503388 1_545
As1 Ni1 2.503388 1_455
As1 Ni6 2.503388 1_455
As1 Ni3 2.503388 1_545
As1 Mn5 2.918141 1_545
As1 Mn4 2.918141 1_545
As1 Mn3 2.918141 1_455
As1 Mn1 2.918141 1_455
As2 Ni12 2.313202 1_555
As2 Ni13 2.313202 1_555
As2 Ni10 2.313202 1_545
As2 Ni8 2.313202 1_545
As2 Ni3 2.503388 1_545
As2 Ni4 2.503388 1_545
As2 Ni1 2.503388 1_555
As2 Ni15 2.503388 1_555
As2 Mn0 2.918141 1_545
As2 Mn2 2.918141 1_555
As2 Mn4 2.918141 1_545
As2 Mn3 2.918141 1_555
As3 Ni12 2.313202 1_555
As3 Ni11 2.313202 1_555
As3 Ni10 2.313202 1_455
As3 Ni9 2.313202 1_455
As3 Ni4 2.503388 1_455
As3 Ni6 2.503388 1_455
As3 Ni15 2.503388 1_555
As3 Ni0 2.503388 1_555
As3 Mn5 2.918141 1_555
As3 Mn2 2.918141 1_555
As3 Mn0 2.918141 1_455
As3 Mn1 2.918141 1_455
As4 Ni7 2.313205 1_555
As4 Ni14 2.313205 1_544
As4 Ni8 2.313209 1_544
As4 Ni13 2.313209 1_555
As4 Ni1 2.503388 1_554
As4 Ni5 2.503388 1_554
As4 Ni2 2.503388 1_545
As4 Ni3 2.503388 1_545
As4 Mn0 2.918141 1_545
As4 Mn5 2.918141 1_545
As4 Mn1 2.918141 1_554
As4 Mn2 2.918141 1_554
As5 Ni7 2.313205 1_555
As5 Ni14 2.313205 1_454
As5 Ni9 2.313209 1_454
As5 Ni11 2.313209 1_555
As5 Ni0 2.503388 1_554
As5 Ni5 2.503388 1_554
As5 Ni2 2.503388 1_455
As5 Ni6 2.503388 1_455
As5 Mn3 2.918141 1_455
As5 Mn0 2.918141 1_455
As5 Mn4 2.918141 1_554
As5 Mn2 2.918141 1_554
As6 Ni15 2.311896 1_555
As6 Ni0 2.311896 1_555
As6 Ni1 2.311896 1_555
As6 Ni5 2.311896 1_555
As6 Ni6 2.311896 1_555
As6 Ni3 2.311896 1_555
As6 Ni2 2.311896 1_555
As6 Ni4 2.311896 1_555
