# generated using pymatgen
data_NaZrZnP(SO6)2
_symmetry_space_group_name_H-M   'P 1'
_cell_length_a   8.84473088
_cell_length_b   8.82732485
_cell_length_c   23.07586217
_cell_angle_alpha   90.19685123
_cell_angle_beta   90.00000000
_cell_angle_gamma   120.06524924
_symmetry_Int_Tables_number   1
_chemical_formula_structural   NaZrZnP(SO6)2
_chemical_formula_sum   'Na6 Zr6 Zn6 P6 S12 O72'
_cell_volume   1559.23995985
_cell_formula_units_Z   6
loop_
 _symmetry_equiv_pos_site_id
 _symmetry_equiv_pos_as_xyz
  1  'x, y, z'
loop_
 _atom_site_type_symbol
 _atom_site_label
 _atom_site_symmetry_multiplicity
 _atom_site_fract_x
 _atom_site_fract_y
 _atom_site_fract_z
 _atom_site_occupancy
  Na  Na0  1  0.98608916  0.98984865  0.50682240  1
  Na  Na1  1  0.00375950  0.98984865  0.00682240  1
  Na  Na2  1  0.65929690  0.31835966  0.84042033  1
  Na  Na3  1  0.65906376  0.31835966  0.34042033  1
  Na  Na4  1  0.32572398  0.67255291  0.17376953  1
  Na  Na5  1  0.34682794  0.67255291  0.67376953  1
  Zr  Zr0  1  0.00263332  0.00070259  0.35314182  1
  Zr  Zr1  1  0.99806927  0.00070259  0.85314182  1
  Zr  Zr2  1  0.66618326  0.33296913  0.68656108  1
  Zr  Zr3  1  0.66678687  0.33296913  0.18656108  1
  Zr  Zr4  1  0.32438317  0.67332861  0.01988215  1
  Zr  Zr5  1  0.34894444  0.67332861  0.51988215  1
  Zn  Zn0  1  0.97838016  0.98566329  0.64911443  1
  Zn  Zn1  1  0.00728313  0.98566329  0.14911443  1
  Zn  Zn2  1  0.66412712  0.33270552  0.98314635  1
  Zn  Zn3  1  0.66857940  0.33270552  0.48314635  1
  Zn  Zn4  1  0.34018395  0.68986354  0.31658878  1
  Zn  Zn5  1  0.34967859  0.68986354  0.81658878  1
  P  P0  1  0.29014054  0.99315350  0.24823241  1
  P  P1  1  0.70301296  0.99315350  0.74823241  1
  P  P2  1  0.67613629  0.62583660  0.58062873  1
  P  P3  1  0.94970131  0.62583660  0.08062873  1
  P  P4  1  0.34241525  0.96957857  0.91517679  1
  P  P5  1  0.62716232  0.96957857  0.41517679  1
  S  S0  1  0.70345130  0.71011900  0.24844713  1
  S  S1  1  0.00700436  0.29435655  0.24817656  1
  S  S2  1  0.28735218  0.29435655  0.74817656  1
  S  S3  1  0.00666770  0.71011900  0.74844713  1
  S  S4  1  0.95958575  0.32984571  0.58185549  1
  S  S5  1  0.36808033  0.04315685  0.58227698  1
  S  S6  1  0.67507752  0.04315685  0.08227698  1
  S  S7  1  0.37026096  0.32984571  0.08185549  1
  S  S8  1  0.62079667  0.66019816  0.91560617  1
  S  S9  1  0.04104769  0.37971472  0.91412935  1
  S  S10  1  0.33866602  0.37971472  0.41412935  1
  S  S11  1  0.03940049  0.66019816  0.41560617  1
  O  O0  1  0.20306790  0.02242577  0.30360730  1
  O  O1  1  0.81330215  0.79231497  0.30177867  1
  O  O2  1  0.97580999  0.18367714  0.30165717  1
  O  O3  1  0.20786715  0.18367714  0.80165717  1
  O  O4  1  0.97901282  0.79231497  0.80177867  1
  O  O5  1  0.81935786  0.02242577  0.80360730  1
  O  O6  1  0.78902027  0.97402848  0.69442150  1
  O  O7  1  0.18653203  0.20887387  0.69638740  1
  O  O8  1  0.03029695  0.81403989  0.69696183  1
  O  O9  1  0.78374294  0.81403989  0.19696183  1
  O  O10  1  0.02234184  0.20887387  0.19638740  1
  O  O11  1  0.18500821  0.97402848  0.19442150  1
  O  O12  1  0.87545281  0.35579306  0.63523484  1
  O  O13  1  0.48096234  0.12292602  0.63541471  1
  O  O14  1  0.64679098  0.51204093  0.63627068  1
  O  O15  1  0.86525096  0.51204093  0.13627068  1
  O  O16  1  0.64196467  0.12292602  0.13541471  1
  O  O17  1  0.48034126  0.35579306  0.13523484  1
  O  O18  1  0.45032756  0.30498684  0.03024741  1
  O  O19  1  0.84495365  0.53582944  0.02686033  1
  O  O20  1  0.69291278  0.14340082  0.03042608  1
  O  O21  1  0.45048904  0.14340082  0.53042608  1
  O  O22  1  0.69087679  0.53582944  0.52686033  1
  O  O23  1  0.85466028  0.30498684  0.53024741  1
  O  O24  1  0.53943802  0.68781518  0.96863908  1
  O  O25  1  0.14933218  0.45908912  0.96812531  1
  O  O26  1  0.30991595  0.85016221  0.97033200  1
  O  O27  1  0.54024526  0.85016221  0.47033200  1
  O  O28  1  0.30975594  0.45908912  0.46812531  1
  O  O29  1  0.14837616  0.68781518  0.46863908  1
  O  O30  1  0.11926013  0.63797428  0.36351684  1
  O  O31  1  0.51973289  0.88320578  0.36168758  1
  O  O32  1  0.35404401  0.48113782  0.36284541  1
  O  O33  1  0.12709281  0.48113782  0.86284541  1
  O  O34  1  0.36347189  0.88320578  0.86168758  1
  O  O35  1  0.51871315  0.63797428  0.86351684  1
  O  O36  1  0.02677935  0.82577024  0.41153293  1
  O  O37  1  0.81033164  0.98089660  0.41040956  1
  O  O38  1  0.17474568  0.20078851  0.41128926  1
  O  O39  1  0.02604284  0.20078851  0.91128926  1
  O  O40  1  0.17056495  0.98089660  0.91040956  1
  O  O41  1  0.79899089  0.82577024  0.91153293  1
  O  O42  1  0.98689367  0.18039003  0.58913452  1
  O  O43  1  0.19516032  0.02299074  0.59068325  1
  O  O44  1  0.83396573  0.80955129  0.58709499  1
  O  O45  1  0.97558556  0.80955129  0.08709499  1
  O  O46  1  0.82783042  0.02299074  0.09068325  1
  O  O47  1  0.19349636  0.18039003  0.08913452  1
  O  O48  1  0.68923468  0.16455010  0.74408195  1
  O  O49  1  0.46647945  0.30974009  0.74480456  1
  O  O50  1  0.84057055  0.53383625  0.74462563  1
  O  O51  1  0.69326671  0.53383625  0.24462563  1
  O  O52  1  0.84326164  0.30974009  0.24480456  1
  O  O53  1  0.47531642  0.16455010  0.24408195  1
  O  O54  1  0.64746389  0.51020349  0.92187205  1
  O  O55  1  0.86595061  0.35614552  0.92099853  1
  O  O56  1  0.50102389  0.15134117  0.92459469  1
  O  O57  1  0.65031828  0.15134117  0.42459469  1
  O  O58  1  0.49019591  0.35614552  0.42099853  1
  O  O59  1  0.86274059  0.51020349  0.42187205  1
  O  O60  1  0.36182156  0.49559218  0.07765918  1
  O  O61  1  0.13642757  0.63994072  0.07734735  1
  O  O62  1  0.51231342  0.86371461  0.07848265  1
  O  O63  1  0.35140019  0.86371461  0.57848265  1
  O  O64  1  0.50351215  0.63994072  0.57734735  1
  O  O65  1  0.13376962  0.49559218  0.57765918  1
  O  O66  1  0.31287123  0.83319338  0.25480903  1
  O  O67  1  0.52658010  0.68118331  0.25587310  1
  O  O68  1  0.15933832  0.46849661  0.25631614  1
  O  O69  1  0.30915729  0.46849661  0.75631614  1
  O  O70  1  0.15460221  0.68118331  0.75587310  1
  O  O71  1  0.52032115  0.83319338  0.75480903  1
loop_
_geom_bond_atom_site_label_1
_geom_bond_atom_site_label_2
_geom_bond_distance
_geom_bond_site_symmetry_2
Na0 O44 2.376808 1_555
Na0 O42 2.530403 1_565
Na0 O43 2.589199 1_665
Na0 O37 2.692264 1_555
Na0 O36 2.750057 1_655
Na0 O38 2.833086 1_665
Na1 O45 2.376808 1_455
Na1 O47 2.530403 1_565
Na1 O46 2.589199 1_465
Na1 O40 2.692264 1_554
Na1 O41 2.750058 1_454
Na1 O39 2.833086 1_564
Na2 O56 2.420317 1_555
Na2 O55 2.508861 1_555
Na2 O54 2.562671 1_555
Na2 O48 2.682379 1_555
Na2 O49 2.766106 1_555
Na2 O50 2.836951 1_555
Na3 O57 2.420317 1_555
Na3 O58 2.508861 1_555
Na3 O59 2.562671 1_555
Na3 O53 2.682379 1_555
Na3 O52 2.766106 1_555
Na3 O51 2.836951 1_555
Na4 O66 2.379943 1_555
Na4 O68 2.531051 1_555
Na4 O67 2.571920 1_555
Na4 O61 2.710991 1_555
Na4 O62 2.764249 1_555
Na4 O60 2.817222 1_555
Na5 O71 2.379943 1_555
Na5 O69 2.531051 1_555
Na5 O70 2.571920 1_555
Na5 O64 2.710991 1_555
Na5 O63 2.764249 1_555
Na5 O65 2.817222 1_555
O0 P0 1.577920 1_545
O0 Zr0 2.036421 1_555
O1 S0 1.507489 1_555
O1 Zr0 2.119284 1_665
O2 S1 1.513896 1_655
O2 Zr0 2.115108 1_655
O3 S2 1.513896 1_555
O3 Zr1 2.115108 1_455
O4 S3 1.507489 1_655
O4 Zr1 2.119284 1_565
O5 P1 1.577920 1_545
O5 Zr1 2.036422 1_555
O6 P1 1.508749 1_555
O6 Zn0 1.933154 1_555
O7 S2 1.453404 1_555
O7 Zn0 2.193694 1_445
O8 S3 1.453304 1_555
O8 Zn0 2.105615 1_455
O9 S0 1.453304 1_555
O9 Zn1 2.105615 1_655
O10 S1 1.453404 1_555
O10 Zn1 2.193694 1_545
O11 P0 1.508749 1_555
O11 Zn1 1.933154 1_555
O12 S4 1.514035 1_555
O12 Zr2 2.120691 1_555
O13 S5 1.511908 1_555
O13 Zr2 2.110932 1_555
O14 P2 1.572468 1_555
O14 Zr2 2.039393 1_555
O15 P3 1.572468 1_555
O15 Zr3 2.039393 1_555
O16 S6 1.511908 1_555
O16 Zr3 2.110932 1_555
O17 S7 1.514035 1_555
O17 Zr3 2.120691 1_555
O18 S7 1.456643 1_555
O18 Zn2 2.086940 1_554
O19 P3 1.511538 1_555
O19 Zn2 1.976032 1_554
O20 S6 1.451531 1_555
O20 Zn2 2.118110 1_554
O21 S5 1.451531 1_555
O21 Zn3 2.118110 1_555
O22 P2 1.511538 1_555
O22 Zn3 1.976032 1_555
O23 S4 1.456643 1_555
O23 Zn3 2.086940 1_555
O24 S8 1.499536 1_555
O24 Zr4 2.188589 1_556
O25 S9 1.510746 1_555
O25 Zr4 2.109681 1_556
O26 P4 1.587239 1_555
O26 Zr4 1.993184 1_556
O27 P5 1.587239 1_555
O27 Zr5 1.993184 1_555
O28 S10 1.510746 1_555
O28 Zr5 2.109681 1_555
O29 S11 1.499536 1_555
O29 Zr5 2.188589 1_555
O30 S11 1.455829 1_555
O30 Zn4 2.075397 1_555
O31 P5 1.508420 1_555
O31 Zn4 1.946768 1_555
O32 S10 1.451139 1_555
O32 Zn4 2.188376 1_555
O33 S9 1.451139 1_555
O33 Zn5 2.188376 1_555
O34 P4 1.508420 1_555
O34 Zn5 1.946768 1_555
O35 S8 1.455829 1_555
O35 Zn5 2.075397 1_555
O36 S11 1.523768 1_555
O36 Zr0 2.142522 1_565
O37 P5 1.576277 1_555
O37 Zr0 2.091287 1_665
O38 S10 1.518482 1_555
O38 Zr0 2.127687 1_555
O39 S9 1.518486 1_555
O39 Zr1 2.127687 1_455
O40 P4 1.576269 1_555
O40 Zr1 2.091287 1_465
O41 S8 1.523773 1_555
O41 Zr1 2.142522 1_565
O42 S4 1.465568 1_555
O42 Zn0 2.182362 1_545
O43 S5 1.461478 1_555
O43 Zn0 2.230007 1_445
O44 P2 1.526742 1_555
O44 Zn0 2.022766 1_555
O45 P3 1.526745 1_555
O45 Zn1 2.022766 1_655
O46 S6 1.461470 1_555
O46 Zn1 2.230007 1_645
O47 S7 1.465573 1_555
O47 Zn1 2.182362 1_545
O48 P1 1.580775 1_545
O48 Zr2 2.081087 1_555
O49 S2 1.522862 1_555
O49 Zr2 2.146470 1_555
O50 S3 1.515239 1_655
O50 Zr2 2.135811 1_555
O51 S0 1.515243 1_555
O51 Zr3 2.135811 1_555
O52 S1 1.522853 1_655
O52 Zr3 2.146470 1_555
O53 P0 1.580780 1_545
O53 Zr3 2.081087 1_555
O54 S8 1.464199 1_555
O54 Zn2 2.173145 1_555
O55 S9 1.464317 1_655
O55 Zn2 2.217644 1_555
O56 P4 1.527053 1_545
O56 Zn2 2.034887 1_555
O57 P5 1.527046 1_545
O57 Zn3 2.034887 1_555
O58 S10 1.464335 1_555
O58 Zn3 2.217644 1_555
O59 S11 1.464188 1_655
O59 Zn3 2.173145 1_555
O60 S7 1.505325 1_555
O60 Zr4 2.209911 1_555
O61 P3 1.594638 1_455
O61 Zr4 2.029948 1_555
O62 S6 1.517693 1_565
O62 Zr4 2.145062 1_555
O63 S5 1.517685 1_565
O63 Zr5 2.145062 1_555
O64 P2 1.594655 1_555
O64 Zr5 2.029948 1_555
O65 S4 1.505316 1_455
O65 Zr5 2.209911 1_555
O66 P0 1.530740 1_555
O66 Zn4 2.002542 1_555
O67 S0 1.463495 1_555
O67 Zn4 2.193776 1_555
O68 S1 1.461639 1_555
O68 Zn4 2.271765 1_555
O69 S2 1.461642 1_555
O69 Zn5 2.271765 1_555
O70 S3 1.463486 1_555
O70 Zn5 2.193776 1_555
O71 P1 1.530746 1_555
O71 Zn5 2.002542 1_555
