# generated using pymatgen
data_LiCr4(PO4)3
_symmetry_space_group_name_H-M   'P 1'
_cell_length_a   6.29616300
_cell_length_b   10.35941800
_cell_length_c   14.63832800
_cell_angle_alpha   90.00000000
_cell_angle_beta   90.00000000
_cell_angle_gamma   90.00000000
_symmetry_Int_Tables_number   1
_chemical_formula_structural   LiCr4(PO4)3
_chemical_formula_sum   'Li4 Cr16 P12 O48'
_cell_volume   954.77885884
_cell_formula_units_Z   4
loop_
 _symmetry_equiv_pos_site_id
 _symmetry_equiv_pos_as_xyz
  1  'x, y, z'
loop_
 _atom_site_type_symbol
 _atom_site_label
 _atom_site_symmetry_multiplicity
 _atom_site_fract_x
 _atom_site_fract_y
 _atom_site_fract_z
 _atom_site_occupancy
  Li  Li0  1  0.56606200  0.72857800  0.25000000  1
  Li  Li1  1  0.43393800  0.27142200  0.75000000  1
  Li  Li2  1  0.06606200  0.77142200  0.25000000  1
  Li  Li3  1  0.93393800  0.22857800  0.75000000  1
  Cr  Cr0  1  0.42851000  0.15339000  0.36850400  1
  Cr  Cr1  1  0.42851000  0.15339000  0.13149600  1
  Cr  Cr2  1  0.34912000  0.56203700  0.41548500  1
  Cr  Cr3  1  0.34912000  0.56203700  0.08451500  1
  Cr  Cr4  1  0.15088000  0.06203700  0.91548500  1
  Cr  Cr5  1  0.15088000  0.06203700  0.58451500  1
  Cr  Cr6  1  0.07149000  0.65339000  0.86850400  1
  Cr  Cr7  1  0.07149000  0.65339000  0.63149600  1
  Cr  Cr8  1  0.92851000  0.34661000  0.36850400  1
  Cr  Cr9  1  0.92851000  0.34661000  0.13149600  1
  Cr  Cr10  1  0.84912000  0.93796300  0.41548500  1
  Cr  Cr11  1  0.84912000  0.93796300  0.08451500  1
  Cr  Cr12  1  0.65088000  0.43796300  0.91548500  1
  Cr  Cr13  1  0.65088000  0.43796300  0.58451500  1
  Cr  Cr14  1  0.57149000  0.84661000  0.86850400  1
  Cr  Cr15  1  0.57149000  0.84661000  0.63149600  1
  P  P0  1  0.49332000  0.59187400  0.75000000  1
  P  P1  1  0.64187000  0.13584800  0.57266800  1
  P  P2  1  0.64187000  0.13584800  0.92733200  1
  P  P3  1  0.85813000  0.63584800  0.07266800  1
  P  P4  1  0.85813000  0.63584800  0.42733200  1
  P  P5  1  0.00668000  0.09187400  0.25000000  1
  P  P6  1  0.99332000  0.90812600  0.75000000  1
  P  P7  1  0.14187000  0.36415200  0.57266800  1
  P  P8  1  0.14187000  0.36415200  0.92733200  1
  P  P9  1  0.35813000  0.86415200  0.07266800  1
  P  P10  1  0.35813000  0.86415200  0.42733200  1
  P  P11  1  0.50668000  0.40812600  0.25000000  1
  O  O0  1  0.58816000  0.65318200  0.66211400  1
  O  O1  1  0.30475300  0.76278100  0.35383800  1
  O  O2  1  0.30475300  0.76278100  0.14616200  1
  O  O3  1  0.24368000  0.61306100  0.75000000  1
  O  O4  1  0.25632000  0.11306100  0.25000000  1
  O  O5  1  0.19524700  0.26278100  0.85383800  1
  O  O6  1  0.19524700  0.26278100  0.64616200  1
  O  O7  1  0.16485300  0.95258800  0.45261900  1
  O  O8  1  0.47087400  0.03717800  0.89004900  1
  O  O9  1  0.47087400  0.03717800  0.60995100  1
  O  O10  1  0.45315000  0.55228400  0.25000000  1
  O  O11  1  0.44291000  0.79285000  0.98828600  1
  O  O12  1  0.33514700  0.45258800  0.95261900  1
  O  O13  1  0.44291000  0.79285000  0.51171400  1
  O  O14  1  0.41184000  0.34681800  0.16211400  1
  O  O15  1  0.41184000  0.34681800  0.33788600  1
  O  O16  1  0.52912600  0.96282200  0.10995100  1
  O  O17  1  0.52912600  0.96282200  0.39004900  1
  O  O18  1  0.54685000  0.44771600  0.75000000  1
  O  O19  1  0.55709000  0.20715000  0.01171400  1
  O  O20  1  0.55709000  0.20715000  0.48828600  1
  O  O21  1  0.33514700  0.45258800  0.54738100  1
  O  O22  1  0.58816000  0.65318200  0.83788600  1
  O  O23  1  0.66485300  0.54741200  0.04738100  1
  O  O24  1  0.66485300  0.54741200  0.45261900  1
  O  O25  1  0.69524700  0.23721900  0.64616200  1
  O  O26  1  0.69524700  0.23721900  0.85383800  1
  O  O27  1  0.75632000  0.38693900  0.25000000  1
  O  O28  1  0.74368000  0.88693900  0.75000000  1
  O  O29  1  0.80475300  0.73721900  0.14616200  1
  O  O30  1  0.80475300  0.73721900  0.35383800  1
  O  O31  1  0.83514700  0.04741200  0.54738100  1
  O  O32  1  0.83514700  0.04741200  0.95261900  1
  O  O33  1  0.91184000  0.15318200  0.16211400  1
  O  O34  1  0.91184000  0.15318200  0.33788600  1
  O  O35  1  0.94291000  0.70715000  0.51171400  1
  O  O36  1  0.94291000  0.70715000  0.98828600  1
  O  O37  1  0.95315000  0.94771600  0.25000000  1
  O  O38  1  0.97087400  0.46282200  0.60995100  1
  O  O39  1  0.97087400  0.46282200  0.89004900  1
  O  O40  1  0.02912600  0.53717800  0.10995100  1
  O  O41  1  0.02912600  0.53717800  0.39004900  1
  O  O42  1  0.16485300  0.95258800  0.04738100  1
  O  O43  1  0.05709000  0.29285000  0.01171400  1
  O  O44  1  0.05709000  0.29285000  0.48828600  1
  O  O45  1  0.08816000  0.84681800  0.66211400  1
  O  O46  1  0.08816000  0.84681800  0.83788600  1
  O  O47  1  0.04685000  0.05228400  0.75000000  1
loop_
_geom_bond_atom_site_label_1
_geom_bond_atom_site_label_2
_geom_bond_distance
_geom_bond_site_symmetry_2
Li0 O10 1.959791 1_555
Li0 O30 2.139387 1_555
Li0 O29 2.139387 1_555
Li0 O1 2.267778 1_555
Li0 O2 2.267778 1_555
Li1 O18 1.959791 1_555
Li1 O6 2.139387 1_555
Li1 O5 2.139387 1_555
Li1 O26 2.267778 1_555
Li1 O25 2.267778 1_555
Li2 O37 1.959791 1_455
Li2 O1 2.139387 1_555
Li2 O2 2.139387 1_555
Li2 O30 2.267778 1_455
Li2 O29 2.267778 1_455
Li3 O47 1.959791 1_655
Li3 O25 2.139387 1_555
Li3 O26 2.139387 1_555
Li3 O5 2.267778 1_655
Li3 O6 2.267778 1_655
Cr0 O20 2.009973 1_555
Cr0 O15 2.055995 1_555
Cr0 O4 2.087841 1_555
Cr0 O17 2.097175 1_545
Cr1 O19 2.009973 1_555
Cr1 O14 2.055995 1_555
Cr1 O4 2.087841 1_555
Cr1 O16 2.097175 1_545
Cr2 O41 2.064972 1_555
Cr2 O24 2.066447 1_555
Cr2 O21 2.240770 1_555
Cr2 O1 2.284091 1_555
Cr2 O10 2.511445 1_555
Cr2 O15 2.533204 1_555
Cr3 O40 2.064972 1_555
Cr3 O23 2.066447 1_555
Cr3 O12 2.240770 1_554
Cr3 O2 2.284091 1_555
Cr3 O10 2.511445 1_555
Cr3 O14 2.533204 1_555
Cr4 O8 2.064972 1_555
Cr4 O32 2.066447 1_455
Cr4 O42 2.240770 1_546
Cr4 O5 2.284091 1_555
Cr4 O47 2.511445 1_555
Cr4 O46 2.533204 1_545
Cr5 O9 2.064972 1_555
Cr5 O31 2.066447 1_455
Cr5 O7 2.240770 1_545
Cr5 O6 2.284091 1_555
Cr5 O47 2.511445 1_555
Cr5 O45 2.533204 1_545
Cr6 O36 2.009973 1_455
Cr6 O46 2.055995 1_555
Cr6 O3 2.087841 1_555
Cr6 O39 2.097175 1_455
Cr7 O35 2.009973 1_455
Cr7 O45 2.055995 1_555
Cr7 O3 2.087841 1_555
Cr7 O38 2.097175 1_455
Cr8 O44 2.009973 1_655
Cr8 O34 2.055995 1_555
Cr8 O27 2.087841 1_555
Cr8 O41 2.097175 1_655
Cr9 O43 2.009973 1_655
Cr9 O33 2.055995 1_555
Cr9 O27 2.087841 1_555
Cr9 O40 2.097175 1_655
Cr10 O17 2.064972 1_555
Cr10 O7 2.066447 1_655
Cr10 O31 2.240770 1_565
Cr10 O30 2.284091 1_555
Cr10 O37 2.511445 1_555
Cr10 O34 2.533204 1_565
Cr11 O16 2.064972 1_555
Cr11 O42 2.066447 1_655
Cr11 O32 2.240770 1_564
Cr11 O29 2.284091 1_555
Cr11 O37 2.511445 1_555
Cr11 O33 2.533204 1_565
Cr12 O39 2.064972 1_555
Cr12 O12 2.066447 1_555
Cr12 O23 2.240770 1_556
Cr12 O26 2.284091 1_555
Cr12 O18 2.511445 1_555
Cr12 O22 2.533204 1_555
Cr13 O38 2.064972 1_555
Cr13 O21 2.066447 1_555
Cr13 O24 2.240770 1_555
Cr13 O25 2.284091 1_555
Cr13 O18 2.511445 1_555
Cr13 O0 2.533204 1_555
Cr14 O11 2.009973 1_555
Cr14 O22 2.055995 1_555
Cr14 O28 2.087841 1_555
Cr14 O8 2.097175 1_565
Cr15 O13 2.009973 1_555
Cr15 O0 2.055995 1_555
Cr15 O28 2.087841 1_555
Cr15 O9 2.097175 1_565
O0 P0 1.554035 1_555
O1 P10 1.540505 1_555
O2 P9 1.540505 1_555
O3 P0 1.587025 1_555
O4 P5 1.587025 1_555
O5 P8 1.540505 1_555
O6 P7 1.540505 1_555
O7 P10 1.567544 1_555
O8 P2 1.581702 1_555
O9 P1 1.581702 1_555
O10 P11 1.530952 1_555
O11 P9 1.535017 1_556
O12 P8 1.567544 1_555
O13 P10 1.535017 1_555
O14 P11 1.554035 1_555
O15 P11 1.554035 1_555
O16 P9 1.581702 1_555
O17 P10 1.581702 1_555
O18 P0 1.530952 1_555
O19 P2 1.535017 1_554
O20 P1 1.535017 1_555
O21 P7 1.567544 1_555
O22 P0 1.554035 1_555
O23 P3 1.567544 1_555
O24 P4 1.567544 1_555
O25 P1 1.540505 1_555
O26 P2 1.540505 1_555
O27 P11 1.587025 1_555
O28 P6 1.587025 1_555
O29 P3 1.540505 1_555
O30 P4 1.540505 1_555
O31 P1 1.567544 1_555
O32 P2 1.567544 1_555
O33 P5 1.554035 1_655
O34 P5 1.554035 1_655
O35 P4 1.535017 1_555
O36 P3 1.535017 1_556
O37 P5 1.530952 1_665
O38 P7 1.581702 1_655
O39 P8 1.581702 1_655
O40 P3 1.581702 1_455
O41 P4 1.581702 1_455
O42 P9 1.567544 1_555
O43 P8 1.535017 1_554
O44 P7 1.535017 1_555
O45 P6 1.554035 1_455
O46 P6 1.554035 1_455
O47 P6 1.530952 1_445
