# generated using pymatgen
data_InBi
_symmetry_space_group_name_H-M   'P 1'
_cell_length_a   5.22228251
_cell_length_b   4.91081920
_cell_length_c   4.91081920
_cell_angle_alpha   90.00000000
_cell_angle_beta   90.00000000
_cell_angle_gamma   90.00000000
_symmetry_Int_Tables_number   1
_chemical_formula_structural   InBi
_chemical_formula_sum   'In2 Bi2'
_cell_volume   125.94132337
_cell_formula_units_Z   2
loop_
 _symmetry_equiv_pos_site_id
 _symmetry_equiv_pos_as_xyz
  1  'x, y, z'
loop_
 _atom_site_type_symbol
 _atom_site_label
 _atom_site_symmetry_multiplicity
 _atom_site_fract_x
 _atom_site_fract_y
 _atom_site_fract_z
 _atom_site_occupancy
  In  In0  1  -0.00000000  0.25000000  0.75000000  1
  In  In1  1  -0.00000000  0.75000000  0.25000000  1
  Bi  Bi0  1  0.36001422  0.25000000  0.25000000  1
  Bi  Bi1  1  0.63998578  0.75000000  0.75000000  1
loop_
_geom_bond_atom_site_label_1
_geom_bond_atom_site_label_2
_geom_bond_distance
_geom_bond_site_symmetry_2
Bi0 In0 3.092539 1_555
Bi0 In1 3.092539 1_555
Bi0 In0 3.092539 1_554
Bi0 In1 3.092539 1_545
Bi1 In1 3.092539 1_655
Bi1 In0 3.092539 1_655
Bi1 In1 3.092539 1_656
Bi1 In0 3.092539 1_665
