# generated using pymatgen
data_NaTa4Si3(PO8)3
_symmetry_space_group_name_H-M   'P 1'
_cell_length_a   8.82551211
_cell_length_b   8.82663412
_cell_length_c   22.80008537
_cell_angle_alpha   90.06663764
_cell_angle_beta   90.13874748
_cell_angle_gamma   119.98505227
_symmetry_Int_Tables_number   1
_chemical_formula_structural   NaTa4Si3(PO8)3
_chemical_formula_sum   'Na3 Ta12 Si9 P9 O72'
_cell_volume   1538.38358139
_cell_formula_units_Z   3
loop_
 _symmetry_equiv_pos_site_id
 _symmetry_equiv_pos_as_xyz
  1  'x, y, z'
loop_
 _atom_site_type_symbol
 _atom_site_label
 _atom_site_symmetry_multiplicity
 _atom_site_fract_x
 _atom_site_fract_y
 _atom_site_fract_z
 _atom_site_occupancy
  Na  Na0  1  0.00049630  0.99692281  0.99916781  1
  Na  Na1  1  0.66494540  0.33115502  0.83593112  1
  Na  Na2  1  0.66794820  0.33203642  0.33156103  1
  Ta  Ta0  1  0.99607554  0.00123246  0.35808764  1
  Ta  Ta1  1  0.00220840  0.00310976  0.85609184  1
  Ta  Ta2  1  0.99832577  0.00212039  0.64488790  1
  Ta  Ta3  1  0.00326461  0.00357815  0.14443708  1
  Ta  Ta4  1  0.66491218  0.33258142  0.68981599  1
  Ta  Ta5  1  0.67126224  0.33769526  0.18679621  1
  Ta  Ta6  1  0.66191071  0.33607108  0.97761886  1
  Ta  Ta7  1  0.66890031  0.33397775  0.47729174  1
  Ta  Ta8  1  0.33439270  0.66930102  0.02385076  1
  Ta  Ta9  1  0.33477009  0.67081339  0.52222970  1
  Ta  Ta10  1  0.32937596  0.66817279  0.30912589  1
  Ta  Ta11  1  0.34101949  0.67032587  0.80951663  1
  Si  Si0  1  0.99789600  0.28578107  0.25049362  1
  Si  Si1  1  0.28411296  0.28656543  0.75016933  1
  Si  Si2  1  0.71489785  0.00020816  0.74985811  1
  Si  Si3  1  0.95427795  0.62108110  0.08280514  1
  Si  Si4  1  0.37939530  0.33389773  0.08336263  1
  Si  Si5  1  0.62003196  0.66868762  0.91684153  1
  Si  Si6  1  0.33392387  0.95200579  0.91671044  1
  Si  Si7  1  0.61666918  0.95071560  0.41667073  1
  Si  Si8  1  0.04928576  0.66780987  0.41631031  1
  P  P0  1  0.28611439  0.00253593  0.25055603  1
  P  P1  1  0.71489372  0.71461040  0.25057535  1
  P  P2  1  0.00064223  0.71634188  0.74979550  1
  P  P3  1  0.95312103  0.33380606  0.58341368  1
  P  P4  1  0.38032218  0.04783514  0.58336629  1
  P  P5  1  0.66670443  0.61886809  0.58336166  1
  P  P6  1  0.66753930  0.04876122  0.08305990  1
  P  P7  1  0.04845279  0.38320607  0.91659490  1
  P  P8  1  0.33424860  0.38428189  0.41649171  1
  O  O0  1  0.20031804  0.03026062  0.30482884  1
  O  O1  1  0.83229151  0.79960750  0.30512608  1
  O  O2  1  0.97100687  0.16306469  0.30735735  1
  O  O3  1  0.19837765  0.16143419  0.80674263  1
  O  O4  1  0.96473450  0.79722760  0.80407675  1
  O  O5  1  0.83771923  0.03358529  0.80679743  1
  O  O6  1  0.80657784  0.97138197  0.69172540  1
  O  O7  1  0.16594245  0.18967546  0.69182835  1
  O  O8  1  0.02640065  0.82809942  0.69442018  1
  O  O9  1  0.80001699  0.82563704  0.19588154  1
  O  O10  1  0.02474151  0.19169136  0.19310599  1
  O  O11  1  0.17146358  0.97154837  0.19549499  1
  O  O12  1  0.86634378  0.36339414  0.63726774  1
  O  O13  1  0.49864149  0.13642208  0.63748431  1
  O  O14  1  0.63884628  0.50283046  0.63730884  1
  O  O15  1  0.86131400  0.49892575  0.14090095  1
  O  O16  1  0.64058906  0.13505455  0.13851250  1
  O  O17  1  0.49868766  0.35804851  0.14132969  1
  O  O18  1  0.46974167  0.29789836  0.02646090  1
  O  O19  1  0.82989775  0.52693746  0.02617940  1
  O  O20  1  0.70098066  0.16331607  0.02878138  1
  O  O21  1  0.46778497  0.16362809  0.52912856  1
  O  O22  1  0.69385477  0.52990090  0.52899680  1
  O  O23  1  0.83492100  0.30482503  0.52893787  1
  O  O24  1  0.52920174  0.69641342  0.97422235  1
  O  O25  1  0.16181362  0.46557827  0.97159459  1
  O  O26  1  0.30295541  0.83274260  0.97440209  1
  O  O27  1  0.52672070  0.83065390  0.47470578  1
  O  O28  1  0.30526658  0.46711164  0.47195065  1
  O  O29  1  0.16776682  0.69197285  0.47447240  1
  O  O30  1  0.13750861  0.63137088  0.35960759  1
  O  O31  1  0.49609155  0.86173505  0.35938085  1
  O  O32  1  0.36874399  0.49909088  0.36220749  1
  O  O33  1  0.12983171  0.49351019  0.86146126  1
  O  O34  1  0.35849065  0.85888568  0.85875604  1
  O  O35  1  0.49790267  0.63502511  0.85885081  1
  O  O36  1  0.02949944  0.83755209  0.40516026  1
  O  O37  1  0.80953486  0.97476040  0.40693471  1
  O  O38  1  0.17487463  0.20074418  0.40690263  1
  O  O39  1  0.02921854  0.19834770  0.90926291  1
  O  O40  1  0.16280573  0.97669408  0.90891658  1
  O  O41  1  0.81407901  0.83965088  0.90833442  1
  O  O42  1  0.97046835  0.16975844  0.59189991  1
  O  O43  1  0.19810150  0.02458008  0.59274451  1
  O  O44  1  0.82951522  0.79940270  0.59233768  1
  O  O45  1  0.96978743  0.81127176  0.09272329  1
  O  O46  1  0.82921152  0.02567173  0.09230438  1
  O  O47  1  0.18597215  0.15972783  0.09178483  1
  O  O48  1  0.69643425  0.17464099  0.73935177  1
  O  O49  1  0.47993901  0.31090676  0.73933726  1
  O  O50  1  0.83548235  0.53219781  0.73957612  1
  O  O51  1  0.69279373  0.52909963  0.24336207  1
  O  O52  1  0.82431365  0.30610726  0.24363814  1
  O  O53  1  0.46993971  0.16383608  0.24280251  1
  O  O54  1  0.64334939  0.49598596  0.92346582  1
  O  O55  1  0.86306242  0.35770892  0.92447356  1
  O  O56  1  0.50930239  0.14430076  0.92392096  1
  O  O57  1  0.63758353  0.14452675  0.42703471  1
  O  O58  1  0.49702254  0.36151562  0.42660329  1
  O  O59  1  0.85366755  0.49711320  0.42687839  1
  O  O60  1  0.35923074  0.50281830  0.07298870  1
  O  O61  1  0.14410186  0.64119019  0.07364410  1
  O  O62  1  0.50529741  0.86752117  0.07524440  1
  O  O63  1  0.36312610  0.86595167  0.57441922  1
  O  O64  1  0.50339137  0.63633554  0.57376664  1
  O  O65  1  0.13543894  0.49340151  0.57336024  1
  O  O66  1  0.30543937  0.83877284  0.25895475  1
  O  O67  1  0.53326787  0.69431467  0.26050878  1
  O  O68  1  0.17162106  0.47653117  0.26034223  1
  O  O69  1  0.30042129  0.47462365  0.75926061  1
  O  O70  1  0.15803195  0.69181630  0.75886211  1
  O  O71  1  0.52218178  0.83270935  0.75843010  1
loop_
_geom_bond_atom_site_label_1
_geom_bond_atom_site_label_2
_geom_bond_distance
_geom_bond_site_symmetry_2
Na0 O40 2.566551 1_555
Na0 O41 2.572328 1_455
Na0 O47 2.613175 1_566
Na0 O45 2.622159 1_456
Na0 O39 2.643399 1_565
Na0 O46 2.693811 1_466
Na1 O56 2.527512 1_555
Na1 O54 2.531510 1_555
Na1 O55 2.599954 1_555
Na1 O48 2.685939 1_555
Na1 O49 2.690394 1_555
Na1 O50 2.756098 1_555
Na2 O52 2.510665 1_555
Na2 O53 2.595378 1_555
Na2 O51 2.597411 1_555
Na2 O57 2.667858 1_555
Na2 O59 2.668485 1_555
Na2 O58 2.728722 1_555
O0 P0 1.534112 1_555
O0 Ta0 2.083036 1_455
O1 P1 1.548520 1_555
O1 Ta0 2.032238 1_565
O2 Si0 1.630433 1_555
O2 Ta0 1.935385 1_555
O3 Si1 1.621389 1_555
O3 Ta1 1.952193 1_555
O4 P2 1.538779 1_655
O4 Ta1 2.051971 1_665
O5 Si2 1.618716 1_555
O5 Ta1 1.956045 1_655
O6 Si2 1.639016 1_565
O6 Ta2 1.904810 1_565
O7 Si1 1.639378 1_555
O7 Ta2 1.901247 1_455
O8 P2 1.548855 1_555
O8 Ta2 2.019716 1_465
O9 P1 1.533403 1_555
O9 Ta3 2.063649 1_665
O10 Si0 1.628966 1_455
O10 Ta3 1.924663 1_555
O11 P0 1.546316 1_565
O11 Ta3 2.012601 1_565
O12 P3 1.538230 1_555
O12 Ta4 2.048797 1_555
O13 P4 1.549094 1_555
O13 Ta4 2.005479 1_555
O14 P5 1.541126 1_555
O14 Ta4 2.023044 1_555
O15 Si3 1.647603 1_555
O15 Ta5 1.886703 1_555
O16 P6 1.554202 1_555
O16 Ta5 1.998604 1_555
O17 Si4 1.633680 1_555
O17 Ta5 1.921689 1_555
O18 Si4 1.636212 1_555
O18 Ta6 1.915426 1_554
O19 Si3 1.625191 1_555
O19 Ta6 1.937332 1_554
O20 P6 1.532133 1_555
O20 Ta6 2.081473 1_554
O21 P4 1.545533 1_555
O21 Ta7 2.038334 1_555
O22 P5 1.548469 1_555
O22 Ta7 2.010521 1_555
O23 P3 1.556472 1_555
O23 Ta7 1.992204 1_555
O24 Si5 1.616951 1_555
O24 Ta8 1.972912 1_556
O25 P7 1.538440 1_555
O25 Ta8 2.054628 1_556
O26 Si6 1.621866 1_555
O26 Ta8 1.957458 1_556
O27 Si7 1.634493 1_555
O27 Ta9 1.912560 1_555
O28 P8 1.544396 1_555
O28 Ta9 2.034838 1_555
O29 Si8 1.633138 1_555
O29 Ta9 1.913301 1_555
O30 Si8 1.623363 1_555
O30 Ta10 1.938595 1_555
O31 Si7 1.615844 1_555
O31 Ta10 1.967578 1_555
O32 P8 1.532270 1_555
O32 Ta10 2.081646 1_555
O33 P7 1.533690 1_555
O33 Ta11 2.102319 1_555
O34 Si6 1.626525 1_555
O34 Ta11 1.947435 1_555
O35 Si5 1.634111 1_555
O35 Ta11 1.924540 1_555
O36 Si8 1.613092 1_555
O36 Ta0 1.937589 1_465
O37 Si7 1.622481 1_555
O37 Ta0 1.905336 1_565
O38 P8 1.539719 1_555
O38 Ta0 2.009801 1_455
O39 P7 1.562531 1_555
O39 Ta1 2.019747 1_555
O40 Si6 1.639366 1_555
O40 Ta1 1.958715 1_565
O41 Si5 1.633039 1_555
O41 Ta1 1.968835 1_665
O42 P3 1.542608 1_555
O42 Ta2 2.018866 1_555
O43 P4 1.531648 1_555
O43 Ta2 2.054910 1_455
O44 P5 1.534590 1_555
O44 Ta2 2.044165 1_565
O45 Si3 1.630134 1_555
O45 Ta3 1.962428 1_665
O46 P6 1.552785 1_555
O46 Ta3 2.025245 1_655
O47 Si4 1.641176 1_555
O47 Ta3 1.932014 1_555
O48 Si2 1.644967 1_555
O48 Ta4 1.919960 1_555
O49 Si1 1.650786 1_555
O49 Ta4 1.916689 1_555
O50 P2 1.565296 1_655
O50 Ta4 1.998411 1_555
O51 P1 1.557651 1_555
O51 Ta5 2.055861 1_555
O52 Si0 1.636194 1_555
O52 Ta5 1.987638 1_555
O53 P0 1.543866 1_555
O53 Ta5 2.105386 1_555
O54 Si5 1.644025 1_555
O54 Ta6 1.943671 1_555
O55 P7 1.547066 1_655
O55 Ta6 2.080471 1_555
O56 Si6 1.635788 1_545
O56 Ta6 1.971438 1_555
O57 Si7 1.643056 1_545
O57 Ta7 1.928143 1_555
O58 P8 1.563424 1_555
O58 Ta7 2.014062 1_555
O59 Si8 1.646681 1_655
O59 Ta7 1.928629 1_555
O60 Si4 1.605159 1_555
O60 Ta8 1.946081 1_555
O61 Si3 1.608197 1_455
O61 Ta8 1.940170 1_555
O62 P6 1.532869 1_565
O62 Ta8 2.014482 1_555
O63 P4 1.548408 1_565
O63 Ta9 2.002049 1_555
O64 P5 1.539386 1_555
O64 Ta9 2.032987 1_555
O65 P3 1.537172 1_455
O65 Ta9 2.041233 1_555
O66 P0 1.549860 1_565
O66 Ta10 1.985311 1_555
O67 P1 1.538712 1_555
O67 Ta10 2.028598 1_555
O68 Si0 1.628841 1_455
O68 Ta10 1.915985 1_555
O69 Si1 1.606011 1_555
O69 Ta11 1.949353 1_555
O70 P2 1.522602 1_555
O70 Ta11 2.067754 1_555
O71 Si2 1.614199 1_565
O71 Ta11 1.920855 1_555
