# generated using pymatgen
data_Na6Nb3Ga5(PO4)12
_symmetry_space_group_name_H-M   'P 1'
_cell_length_a   17.39465908
_cell_length_b   8.69806257
_cell_length_c   22.36312000
_cell_angle_alpha   90.04575937
_cell_angle_beta   89.97576580
_cell_angle_gamma   120.00892399
_symmetry_Int_Tables_number   1
_chemical_formula_structural   Na6Nb3Ga5(PO4)12
_chemical_formula_sum   'Na18 Nb9 Ga15 P36 O144'
_cell_volume   2929.96393981
_cell_formula_units_Z   3
loop_
 _symmetry_equiv_pos_site_id
 _symmetry_equiv_pos_as_xyz
  1  'x, y, z'
loop_
 _atom_site_type_symbol
 _atom_site_label
 _atom_site_symmetry_multiplicity
 _atom_site_fract_x
 _atom_site_fract_y
 _atom_site_fract_z
 _atom_site_occupancy
  Na  Na0  1  0.68442200  0.36741153  0.24925581  1
  Na  Na1  1  0.99899412  0.63050594  0.24932479  1
  Na  Na2  1  0.99929404  0.36551630  0.74767663  1
  Na  Na3  1  0.49932696  0.36552188  0.74780481  1
  Na  Na4  1  0.18299646  0.99887926  0.74779022  1
  Na  Na5  1  0.68294717  0.99886257  0.74801759  1
  Na  Na6  1  0.00005195  0.99953849  0.50475458  1
  Na  Na7  1  0.49977374  0.99981936  0.50491633  1
  Na  Na8  1  0.99872842  0.99801931  0.00526245  1
  Na  Na9  1  0.50117149  0.00223406  0.00489763  1
  Na  Na10  1  0.33313050  0.34031342  0.83552469  1
  Na  Na11  1  0.83271855  0.33973939  0.83603638  1
  Na  Na12  1  0.33324259  0.33354998  0.33876983  1
  Na  Na13  1  0.83304228  0.32507426  0.33613248  1
  Na  Na14  1  0.16934829  0.66536606  0.17041830  1
  Na  Na15  1  0.66788059  0.67664782  0.17015425  1
  Na  Na16  1  0.17067104  0.66581612  0.66697640  1
  Na  Na17  1  0.67062081  0.66567945  0.66713762  1
  Nb  Nb0  1  0.99935723  0.00283336  0.35582885  1
  Nb  Nb1  1  0.50042819  0.99830085  0.35629006  1
  Nb  Nb2  1  0.99953810  0.99844476  0.85520360  1
  Nb  Nb3  1  0.49987297  0.99866008  0.85546262  1
  Nb  Nb4  1  0.33349890  0.33594604  0.18807963  1
  Nb  Nb5  1  0.16528009  0.66643848  0.02332253  1
  Nb  Nb6  1  0.66858097  0.66693658  0.02384987  1
  Nb  Nb7  1  0.16682668  0.66701256  0.52332340  1
  Nb  Nb8  1  0.66674535  0.66708342  0.52360514  1
  Ga  Ga0  1  0.99917700  0.99886328  0.64511203  1
  Ga  Ga1  1  0.49910603  0.99870212  0.64519973  1
  Ga  Ga2  1  0.99770160  0.99981813  0.14717052  1
  Ga  Ga3  1  0.50153366  0.99987739  0.14748705  1
  Ga  Ga4  1  0.33298432  0.33904542  0.68146016  1
  Ga  Ga5  1  0.83293383  0.33904276  0.68147826  1
  Ga  Ga6  1  0.83286495  0.32481327  0.18391266  1
  Ga  Ga7  1  0.33376270  0.33357425  0.98103454  1
  Ga  Ga8  1  0.83310506  0.33254372  0.98296335  1
  Ga  Ga9  1  0.33322059  0.33333524  0.48258144  1
  Ga  Ga10  1  0.83359516  0.33423102  0.48233328  1
  Ga  Ga11  1  0.16914420  0.66512245  0.31594874  1
  Ga  Ga12  1  0.66669213  0.67407210  0.31582124  1
  Ga  Ga13  1  0.16967332  0.66590279  0.81652794  1
  Ga  Ga14  1  0.66925953  0.66599276  0.81675912  1
  P  P0  1  0.14319281  0.99568347  0.24900271  1
  P  P1  1  0.64572836  0.99544681  0.24774585  1
  P  P2  1  0.35413631  0.71746408  0.24853305  1
  P  P3  1  0.85305856  0.71082377  0.24799367  1
  P  P4  1  0.00062769  0.29157756  0.24748295  1
  P  P5  1  0.50194795  0.29074471  0.24925550  1
  P  P6  1  0.14699439  0.29486307  0.74799940  1
  P  P7  1  0.64700459  0.29497444  0.74798678  1
  P  P8  1  0.99838741  0.70694411  0.74781671  1
  P  P9  1  0.49834513  0.70703589  0.74784009  1
  P  P10  1  0.35326779  0.99527464  0.74782145  1
  P  P11  1  0.85313901  0.99520074  0.74771621  1
  P  P12  1  0.47370022  0.32468972  0.58417176  1
  P  P13  1  0.97380309  0.32494843  0.58417725  1
  P  P14  1  0.18873076  0.05267673  0.58428843  1
  P  P15  1  0.68878181  0.05299062  0.58424092  1
  P  P16  1  0.33759697  0.62233922  0.58353232  1
  P  P17  1  0.83764646  0.62226824  0.58352574  1
  P  P18  1  0.47563501  0.62654235  0.08158855  1
  P  P19  1  0.97279949  0.62275717  0.08445000  1
  P  P20  1  0.33807951  0.04997039  0.08198869  1
  P  P21  1  0.83823999  0.05432004  0.08353847  1
  P  P22  1  0.18672695  0.32406905  0.08160592  1
  P  P23  1  0.68872755  0.32334518  0.08450393  1
  P  P24  1  0.30888353  0.65811930  0.91637589  1
  P  P25  1  0.80918124  0.65722781  0.91595929  1
  P  P26  1  0.01971833  0.38149038  0.91536995  1
  P  P27  1  0.52026878  0.38232790  0.91566487  1
  P  P28  1  0.17096499  0.96033320  0.91540482  1
  P  P29  1  0.67112568  0.95970429  0.91584866  1
  P  P30  1  0.30843636  0.95945590  0.41559844  1
  P  P31  1  0.80834414  0.95996114  0.41610684  1
  P  P32  1  0.17144174  0.38281343  0.41596220  1
  P  P33  1  0.67135357  0.38340502  0.41521342  1
  P  P34  1  0.02014769  0.65849540  0.41521476  1
  P  P35  1  0.52021675  0.65628818  0.41592282  1
  O  O0  1  0.10169729  0.03025719  0.30562696  1
  O  O1  1  0.60070361  0.03095086  0.30437916  1
  O  O2  1  0.41345046  0.79800834  0.30526273  1
  O  O3  1  0.91463196  0.79842013  0.30449610  1
  O  O4  1  0.48460046  0.17226895  0.30557227  1
  O  O5  1  0.98614892  0.17276468  0.30480082  1
  O  O6  1  0.10173041  0.17149948  0.80493796  1
  O  O7  1  0.60174348  0.17155349  0.80492016  1
  O  O8  1  0.48517955  0.79774509  0.80534277  1
  O  O9  1  0.98523028  0.79777254  0.80534944  1
  O  O10  1  0.41428033  0.02997187  0.80484133  1
  O  O11  1  0.91432265  0.03005178  0.80479151  1
  O  O12  1  0.39693717  0.96613781  0.69377605  1
  O  O13  1  0.89705056  0.96618797  0.69379932  1
  O  O14  1  0.08493566  0.20900307  0.69477360  1
  O  O15  1  0.58495789  0.20907557  0.69473201  1
  O  O16  1  0.01935444  0.83175695  0.69481644  1
  O  O17  1  0.51932434  0.83169318  0.69478566  1
  O  O18  1  0.39685469  0.82750653  0.19305073  1
  O  O19  1  0.89629824  0.82581688  0.19337902  1
  O  O20  1  0.01713743  0.20666657  0.19323204  1
  O  O21  1  0.51854243  0.20793370  0.19422757  1
  O  O22  1  0.08501037  0.96240911  0.19413686  1
  O  O23  1  0.58715650  0.96622422  0.19331617  1
  O  O24  1  0.43957473  0.36673018  0.64254502  1
  O  O25  1  0.93952051  0.36665870  0.64257592  1
  O  O26  1  0.24411602  0.12098947  0.64258569  1
  O  O27  1  0.74412432  0.12107559  0.64254895  1
  O  O28  1  0.31526653  0.50855656  0.64035176  1
  O  O29  1  0.81522573  0.50853579  0.64033450  1
  O  O30  1  0.43399896  0.50612664  0.13840474  1
  O  O31  1  0.93900022  0.51136807  0.14204316  1
  O  O32  1  0.31911618  0.13298138  0.13859870  1
  O  O33  1  0.81517975  0.12276097  0.13979185  1
  O  O34  1  0.24702007  0.36243146  0.13845331  1
  O  O35  1  0.74456498  0.36687209  0.14206280  1
  O  O36  1  0.23027919  0.30012651  0.02643273  1
  O  O37  1  0.73017462  0.29957258  0.02777427  1
  O  O38  1  0.41989914  0.53974151  0.02646076  1
  O  O39  1  0.91963274  0.53920064  0.02775447  1
  O  O40  1  0.34989802  0.15984072  0.02647429  1
  O  O41  1  0.85046617  0.15973985  0.02643405  1
  O  O42  1  0.23080410  0.16139645  0.52828159  1
  O  O43  1  0.73087503  0.16160514  0.52819910  1
  O  O44  1  0.35024542  0.54043215  0.52693514  1
  O  O45  1  0.85019010  0.54040808  0.52686814  1
  O  O46  1  0.41930657  0.30039322  0.52821636  1
  O  O47  1  0.91926866  0.30034107  0.52824621  1
  O  O48  1  0.26729550  0.69557868  0.97224731  1
  O  O49  1  0.76801508  0.69576588  0.97190144  1
  O  O50  1  0.08094854  0.46658061  0.97095020  1
  O  O51  1  0.58083340  0.46666504  0.97103007  1
  O  O52  1  0.15273815  0.83887699  0.97097554  1
  O  O53  1  0.65237390  0.83777433  0.97105273  1
  O  O54  1  0.26758901  0.83935373  0.47174293  1
  O  O55  1  0.76746445  0.83962218  0.47204441  1
  O  O56  1  0.15228132  0.46491988  0.47194553  1
  O  O57  1  0.65235673  0.46683588  0.47082146  1
  O  O58  1  0.08088082  0.69526674  0.47083134  1
  O  O59  1  0.58031661  0.69575318  0.47194342  1
  O  O60  1  0.06163496  0.63482572  0.35787450  1
  O  O61  1  0.56252746  0.63191551  0.35986747  1
  O  O62  1  0.25346471  0.87437906  0.35968560  1
  O  O63  1  0.75417514  0.87510305  0.36002050  1
  O  O64  1  0.18352594  0.49150032  0.35986328  1
  O  O65  1  0.68242211  0.48862893  0.35778829  1
  O  O66  1  0.06150736  0.48892495  0.85822117  1
  O  O67  1  0.56114895  0.48854140  0.85812180  1
  O  O68  1  0.18254332  0.87706748  0.85809414  1
  O  O69  1  0.68244578  0.87705829  0.85810580  1
  O  O70  1  0.25412963  0.63254196  0.86028290  1
  O  O71  1  0.75420281  0.63245864  0.86009335  1
  O  O72  1  0.01294765  0.83183050  0.40918632  1
  O  O73  1  0.51316556  0.83049829  0.40951465  1
  O  O74  1  0.40248135  0.97360298  0.40923602  1
  O  O75  1  0.90233007  0.97400240  0.40973411  1
  O  O76  1  0.08446372  0.19493947  0.40980309  1
  O  O77  1  0.58436405  0.19490706  0.40939051  1
  O  O78  1  0.01322215  0.19467353  0.90948822  1
  O  O79  1  0.51295097  0.19461746  0.90944680  1
  O  O80  1  0.08432804  0.97405560  0.90994264  1
  O  O81  1  0.58428842  0.97396820  0.90982184  1
  O  O82  1  0.40254982  0.83148877  0.90994547  1
  O  O83  1  0.90265057  0.83135075  0.90961245  1
  O  O84  1  0.48833882  0.16566302  0.59010564  1
  O  O85  1  0.98834600  0.16574885  0.59012943  1
  O  O86  1  0.09468227  0.02408247  0.59043592  1
  O  O87  1  0.59469826  0.02413917  0.59041404  1
  O  O88  1  0.41743109  0.81030468  0.58990679  1
  O  O89  1  0.91737175  0.81029678  0.58989132  1
  O  O90  1  0.48766799  0.81052332  0.08997522  1
  O  O91  1  0.98897631  0.81202859  0.09019769  1
  O  O92  1  0.41745752  0.02419316  0.09052954  1
  O  O93  1  0.91736863  0.02395519  0.08941817  1
  O  O94  1  0.09472785  0.16510055  0.09023139  1
  O  O95  1  0.59416578  0.16514849  0.09015498  1
  O  O96  1  0.34556189  0.16599830  0.74471556  1
  O  O97  1  0.84562469  0.16605249  0.74470713  1
  O  O98  1  0.23762452  0.30443006  0.74414554  1
  O  O99  1  0.73763012  0.30446381  0.74407892  1
  O  O100  1  0.41631539  0.52020120  0.74399445  1
  O  O101  1  0.91634406  0.52026345  0.74401703  1
  O  O102  1  0.34630235  0.52880810  0.24265007  1
  O  O103  1  0.84575798  0.52463621  0.24444878  1
  O  O104  1  0.41714530  0.30817171  0.24328709  1
  O  O105  1  0.91702134  0.31186983  0.24408257  1
  O  O106  1  0.23673453  0.16571145  0.24307098  1
  O  O107  1  0.73674089  0.16997002  0.24425512  1
  O  O108  1  0.32154991  0.49840879  0.92376295  1
  O  O109  1  0.82183835  0.49803002  0.92387439  1
  O  O110  1  0.42773148  0.35731893  0.92317438  1
  O  O111  1  0.92773875  0.35760500  0.92328303  1
  O  O112  1  0.25108662  0.14466872  0.92317161  1
  O  O113  1  0.75095180  0.14464956  0.92329082  1
  O  O114  1  0.32168112  0.14473016  0.42367051  1
  O  O115  1  0.82159981  0.14516165  0.42398255  1
  O  O116  1  0.25090538  0.35656962  0.42368057  1
  O  O117  1  0.75075813  0.35705177  0.42315736  1
  O  O118  1  0.42751803  0.49796316  0.42363353  1
  O  O119  1  0.92789489  0.49827697  0.42322701  1
  O  O120  1  0.17983811  0.49791013  0.07652072  1
  O  O121  1  0.67896326  0.49623386  0.07565173  1
  O  O122  1  0.06921899  0.64167945  0.07526880  1
  O  O123  1  0.56912803  0.64044110  0.07667818  1
  O  O124  1  0.25101751  0.86225252  0.07658861  1
  O  O125  1  0.75185273  0.86124847  0.07511850  1
  O  O126  1  0.17905645  0.86131130  0.57620812  1
  O  O127  1  0.67915395  0.86144008  0.57625979  1
  O  O128  1  0.25166307  0.64260188  0.57568008  1
  O  O129  1  0.75161662  0.64223864  0.57562603  1
  O  O130  1  0.06941704  0.49743344  0.57617028  1
  O  O131  1  0.56941809  0.49695780  0.57612470  1
  O  O132  1  0.15301452  0.83084213  0.25672733  1
  O  O133  1  0.65454935  0.83082026  0.25676356  1
  O  O134  1  0.26110958  0.69061218  0.25646705  1
  O  O135  1  0.75944002  0.68450503  0.25653805  1
  O  O136  1  0.08231282  0.47914532  0.25633565  1
  O  O137  1  0.58452788  0.47473158  0.25692686  1
  O  O138  1  0.15292882  0.47636459  0.75729833  1
  O  O139  1  0.65298062  0.47649744  0.75730303  1
  O  O140  1  0.08272414  0.68944725  0.75673315  1
  O  O141  1  0.58267461  0.68936803  0.75664803  1
  O  O142  1  0.25941343  0.83363458  0.75660785  1
  O  O143  1  0.75942557  0.83359302  0.75660110  1
loop_
_geom_bond_atom_site_label_1
_geom_bond_atom_site_label_2
_geom_bond_distance
_geom_bond_site_symmetry_2
Na0 O107 2.313654 1_555
Na0 O137 2.354168 1_555
Na0 O135 2.394962 1_555
Na0 O103 2.432821 1_555
Na0 O35 2.616043 1_555
Na0 O65 2.652610 1_555
Na0 O21 2.785839 1_555
Na0 O1 2.818921 1_555
Na1 O103 2.347252 1_555
Na1 O132 2.360457 1_655
Na1 O136 2.401551 1_655
Na1 O105 2.403100 1_555
Na1 O31 2.614433 1_555
Na1 O60 2.653794 1_655
Na1 O22 2.789201 1_655
Na1 O3 2.819263 1_555
Na2 O97 2.349612 1_555
Na2 O138 2.353841 1_655
Na2 O101 2.417284 1_555
Na2 O140 2.448487 1_655
Na2 O25 2.572525 1_555
Na2 O66 2.696442 1_655
Na2 O14 2.738013 1_655
Na2 O11 2.832055 1_555
Na3 O96 2.351056 1_555
Na3 O139 2.353720 1_555
Na3 O100 2.417836 1_555
Na3 O141 2.447445 1_555
Na3 O24 2.575744 1_555
Na3 O67 2.689735 1_555
Na3 O15 2.739059 1_555
Na3 O10 2.831845 1_555
Na4 O98 2.333906 1_565
Na4 O140 2.372981 1_555
Na4 O142 2.404863 1_555
Na4 O96 2.449981 1_565
Na4 O26 2.581855 1_565
Na4 O68 2.683891 1_555
Na4 O16 2.735002 1_555
Na4 O6 2.829199 1_565
Na5 O99 2.334405 1_565
Na5 O141 2.372816 1_555
Na5 O143 2.405535 1_555
Na5 O97 2.451816 1_565
Na5 O27 2.587629 1_565
Na5 O69 2.679267 1_555
Na5 O17 2.737254 1_555
Na5 O7 2.826380 1_565
Na6 O89 2.457131 1_455
Na6 O85 2.463022 1_465
Na6 O86 2.465168 1_565
Na6 O76 2.657139 1_565
Na6 O72 2.658531 1_555
Na6 O75 2.660612 1_455
Na7 O88 2.454036 1_555
Na7 O84 2.456037 1_565
Na7 O87 2.465667 1_565
Na7 O74 2.666596 1_555
Na7 O73 2.666976 1_555
Na7 O77 2.667154 1_565
Na8 O93 2.431469 1_565
Na8 O91 2.446189 1_555
Na8 O94 2.466168 1_665
Na8 O83 2.654195 1_554
Na8 O80 2.666734 1_654
Na8 O78 2.674097 1_664
Na9 O95 2.442399 1_555
Na9 O90 2.463445 1_545
Na9 O92 2.469698 1_555
Na9 O81 2.650201 1_544
Na9 O79 2.657240 1_554
Na9 O82 2.665918 1_544
Na10 O108 2.469372 1_555
Na10 O110 2.516066 1_555
Na10 O112 2.519549 1_555
Na10 O100 2.543561 1_555
Na10 O98 2.552743 1_555
Na10 O96 2.606213 1_555
Na11 O109 2.458875 1_555
Na11 O113 2.509723 1_555
Na11 O111 2.511611 1_555
Na11 O101 2.556200 1_555
Na11 O99 2.559922 1_555
Na11 O97 2.614975 1_555
Na12 O116 2.445610 1_555
Na12 O118 2.447154 1_555
Na12 O114 2.452945 1_555
Na12 O104 2.656517 1_555
Na12 O106 2.660101 1_555
Na12 O102 2.678818 1_555
Na13 O115 2.457882 1_555
Na13 O119 2.509411 1_555
Na13 O117 2.511669 1_555
Na13 O105 2.559201 1_555
Na13 O107 2.566270 1_555
Na13 O103 2.624322 1_555
Na14 O134 2.439316 1_555
Na14 O136 2.481327 1_555
Na14 O132 2.506383 1_555
Na14 O120 2.612428 1_555
Na14 O124 2.631270 1_555
Na14 O122 2.692066 1_555
Na15 O133 2.431047 1_555
Na15 O135 2.483264 1_555
Na15 O137 2.531448 1_555
Na15 O123 2.623092 1_555
Na15 O125 2.624013 1_555
Na15 O121 2.694998 1_555
Na16 O142 2.505076 1_555
Na16 O138 2.527192 1_555
Na16 O128 2.544689 1_555
Na16 O140 2.592845 1_555
Na16 O130 2.605561 1_555
Na16 O126 2.605810 1_555
Na17 O143 2.502653 1_555
Na17 O139 2.523369 1_555
Na17 O129 2.549291 1_555
Na17 O141 2.588764 1_555
Na17 O127 2.608468 1_555
Na17 O131 2.609474 1_555
Nb0 O5 1.970356 1_555
Nb0 O75 1.984946 1_545
Nb0 O76 1.991114 1_655
Nb0 O3 2.007035 1_545
Nb0 O72 2.011675 1_645
Nb0 O0 2.015015 1_655
Nb1 O73 1.980556 1_555
Nb1 O77 1.991736 1_565
Nb1 O1 1.993508 1_565
Nb1 O74 1.995860 1_555
Nb1 O2 1.997018 1_555
Nb1 O4 2.017841 1_565
Nb2 O9 1.978424 1_555
Nb2 O11 1.988284 1_565
Nb2 O83 1.996033 1_555
Nb2 O6 2.003442 1_665
Nb2 O80 2.008414 1_655
Nb2 O78 2.008518 1_665
Nb3 O8 1.981399 1_555
Nb3 O10 1.994974 1_565
Nb3 O81 1.999356 1_555
Nb3 O82 2.000893 1_555
Nb3 O7 2.003639 1_565
Nb3 O79 2.005857 1_565
Nb4 O30 1.973282 1_555
Nb4 O34 1.973831 1_555
Nb4 O32 1.989723 1_555
Nb4 O102 1.994051 1_555
Nb4 O106 2.011503 1_555
Nb4 O104 2.013268 1_555
Nb5 O122 1.956212 1_555
Nb5 O50 1.998246 1_554
Nb5 O52 1.999492 1_554
Nb5 O124 2.000377 1_555
Nb5 O120 2.000645 1_555
Nb5 O48 2.016594 1_554
Nb6 O125 1.954151 1_555
Nb6 O121 1.962230 1_555
Nb6 O49 1.992239 1_554
Nb6 O123 2.010342 1_555
Nb6 O51 2.024385 1_554
Nb6 O53 2.025767 1_554
Nb7 O128 1.977108 1_555
Nb7 O126 1.984322 1_555
Nb7 O130 1.986082 1_555
Nb7 O54 2.005658 1_555
Nb7 O56 2.006542 1_555
Nb7 O58 2.010691 1_555
Nb8 O129 1.974977 1_555
Nb8 O127 1.980675 1_555
Nb8 O131 1.982557 1_555
Nb8 O55 2.005563 1_555
Nb8 O59 2.008503 1_555
Nb8 O57 2.012626 1_555
Ga0 O89 1.975778 1_555
Ga0 O13 1.978859 1_555
Ga0 O85 1.982689 1_565
Ga0 O86 1.984247 1_665
Ga0 O16 1.996142 1_655
Ga0 O14 2.017521 1_665
Ga1 O88 1.975406 1_555
Ga1 O12 1.978400 1_555
Ga1 O84 1.984237 1_565
Ga1 O87 1.986357 1_565
Ga1 O17 1.994359 1_555
Ga1 O15 2.017487 1_565
Ga2 O19 1.949452 1_555
Ga2 O20 1.949696 1_665
Ga2 O93 1.990011 1_565
Ga2 O22 2.002922 1_655
Ga2 O91 2.015743 1_555
Ga2 O94 2.027497 1_665
Ga3 O23 1.947351 1_555
Ga3 O18 1.967684 1_555
Ga3 O21 1.979079 1_565
Ga3 O95 1.997729 1_565
Ga3 O90 2.006121 1_555
Ga3 O92 2.029139 1_565
Ga4 O28 1.889700 1_555
Ga4 O24 1.950749 1_555
Ga4 O26 1.951538 1_555
Ga4 O100 2.062330 1_555
Ga4 O98 2.075189 1_555
Ga4 O96 2.155814 1_555
Ga5 O29 1.889856 1_555
Ga5 O25 1.950774 1_555
Ga5 O27 1.951327 1_555
Ga5 O101 2.063073 1_555
Ga5 O99 2.073282 1_555
Ga5 O97 2.155943 1_555
Ga6 O33 1.900933 1_555
Ga6 O31 1.980551 1_555
Ga6 O35 1.983097 1_555
Ga6 O105 2.032968 1_555
Ga6 O107 2.044290 1_555
Ga6 O103 2.123794 1_555
Ga7 O38 1.950256 1_556
Ga7 O40 1.954964 1_556
Ga7 O36 1.957210 1_556
Ga7 O108 2.012199 1_555
Ga7 O110 2.012374 1_555
Ga7 O112 2.019154 1_555
Ga8 O41 1.937022 1_556
Ga8 O37 1.943574 1_556
Ga8 O39 1.947301 1_556
Ga8 O109 2.035159 1_555
Ga8 O113 2.038607 1_555
Ga8 O111 2.044057 1_555
Ga9 O44 1.944266 1_555
Ga9 O42 1.946980 1_555
Ga9 O46 1.948552 1_555
Ga9 O116 2.029168 1_555
Ga9 O118 2.032372 1_555
Ga9 O114 2.033359 1_555
Ga10 O45 1.941873 1_555
Ga10 O47 1.950177 1_555
Ga10 O43 1.953587 1_555
Ga10 O115 2.025928 1_555
Ga10 O119 2.033172 1_555
Ga10 O117 2.038397 1_555
Ga11 O64 1.920453 1_555
Ga11 O62 1.936191 1_555
Ga11 O60 1.987891 1_555
Ga11 O134 2.005378 1_555
Ga11 O136 2.056608 1_555
Ga11 O132 2.078061 1_555
Ga12 O63 1.920190 1_555
Ga12 O61 1.929303 1_555
Ga12 O133 1.984677 1_555
Ga12 O65 2.000383 1_555
Ga12 O135 2.054410 1_555
Ga12 O137 2.074327 1_555
Ga13 O70 1.904720 1_555
Ga13 O68 1.968219 1_555
Ga13 O66 1.970475 1_555
Ga13 O138 2.018353 1_555
Ga13 O142 2.020931 1_555
Ga13 O140 2.104641 1_555
Ga14 O71 1.907917 1_555
Ga14 O69 1.963217 1_555
Ga14 O67 1.967702 1_555
Ga14 O139 2.023549 1_555
Ga14 O143 2.027135 1_555
Ga14 O141 2.103626 1_555
O0 P0 1.559062 1_545
O1 P1 1.597884 1_545
O2 P2 1.562520 1_555
O3 P3 1.583544 1_555
O4 P5 1.558797 1_555
O5 P4 1.586177 1_655
O6 P6 1.596533 1_555
O7 P7 1.596645 1_555
O8 P9 1.583498 1_555
O9 P8 1.584576 1_555
O10 P10 1.588571 1_545
O11 P11 1.591080 1_545
O12 P10 1.514368 1_555
O13 P11 1.514097 1_555
O14 P6 1.527450 1_555
O15 P7 1.527904 1_555
O16 P8 1.523833 1_455
O17 P9 1.523949 1_555
O18 P2 1.515742 1_555
O19 P3 1.518724 1_555
O20 P4 1.519960 1_555
O21 P5 1.524064 1_555
O22 P0 1.523479 1_555
O23 P1 1.525048 1_555
O24 P12 1.551087 1_555
O25 P13 1.551710 1_555
O26 P14 1.551804 1_555
O27 P15 1.551546 1_555
O28 P16 1.536880 1_555
O29 P17 1.536348 1_555
O30 P18 1.574330 1_555
O31 P19 1.541035 1_555
O32 P20 1.571388 1_555
O33 P21 1.528099 1_555
O34 P22 1.574117 1_555
O35 P23 1.541440 1_555
O36 P22 1.515346 1_555
O37 P23 1.523134 1_555
O38 P18 1.515647 1_555
O39 P19 1.522576 1_555
O40 P20 1.517225 1_555
O41 P21 1.524276 1_555
O42 P14 1.519026 1_555
O43 P15 1.519381 1_555
O44 P16 1.520871 1_555
O45 P17 1.521087 1_555
O46 P12 1.518649 1_555
O47 P13 1.519090 1_555
O48 P24 1.557236 1_555
O49 P25 1.558491 1_555
O50 P26 1.561487 1_555
O51 P27 1.551645 1_555
O52 P28 1.558106 1_555
O53 P29 1.552730 1_555
O54 P30 1.559322 1_555
O55 P31 1.556579 1_555
O56 P32 1.557187 1_555
O57 P33 1.555748 1_555
O58 P34 1.558134 1_555
O59 P35 1.556178 1_555
O60 P34 1.534568 1_555
O61 P35 1.520827 1_555
O62 P30 1.522220 1_555
O63 P31 1.519760 1_555
O64 P32 1.521410 1_555
O65 P33 1.532752 1_555
O66 P26 1.535137 1_555
O67 P27 1.535944 1_555
O68 P28 1.533597 1_555
O69 P29 1.537175 1_555
O70 P24 1.522755 1_555
O71 P25 1.521945 1_555
O72 P34 1.579928 1_555
O73 P35 1.586806 1_555
O74 P30 1.584288 1_555
O75 P31 1.583692 1_555
O76 P32 1.582777 1_555
O77 P33 1.585247 1_555
O78 P26 1.576870 1_555
O79 P27 1.578946 1_555
O80 P28 1.574922 1_555
O81 P29 1.582036 1_555
O82 P24 1.578550 1_555
O83 P25 1.579384 1_555
O84 P12 1.532445 1_555
O85 P13 1.532936 1_555
O86 P14 1.532950 1_555
O87 P15 1.532773 1_555
O88 P16 1.533152 1_555
O89 P17 1.532767 1_555
O90 P18 1.518020 1_555
O91 P19 1.530459 1_555
O92 P20 1.517626 1_555
O93 P21 1.531472 1_555
O94 P22 1.515542 1_555
O95 P23 1.533329 1_555
O96 P10 1.557943 1_545
O97 P11 1.557083 1_545
O98 P6 1.538934 1_555
O99 P7 1.539231 1_555
O100 P9 1.537779 1_555
O101 P8 1.537023 1_555
O102 P2 1.582582 1_555
O103 P3 1.561790 1_555
O104 P5 1.562245 1_555
O105 P4 1.552034 1_655
O106 P0 1.563785 1_545
O107 P1 1.553379 1_545
O108 P24 1.520587 1_555
O109 P25 1.517434 1_555
O110 P27 1.521873 1_555
O111 P26 1.517122 1_655
O112 P28 1.519169 1_545
O113 P29 1.519548 1_545
O114 P30 1.520157 1_545
O115 P31 1.518942 1_545
O116 P32 1.519332 1_555
O117 P33 1.519481 1_555
O118 P35 1.518295 1_555
O119 P34 1.520700 1_655
O120 P22 1.579622 1_555
O121 P23 1.607927 1_555
O122 P19 1.614261 1_455
O123 P18 1.573108 1_555
O124 P20 1.581289 1_565
O125 P21 1.609112 1_565
O126 P14 1.597161 1_565
O127 P15 1.598843 1_565
O128 P16 1.600029 1_555
O129 P17 1.600331 1_555
O130 P13 1.597915 1_455
O131 P12 1.598262 1_555
O132 P0 1.536313 1_555
O133 P1 1.528038 1_555
O134 P2 1.525216 1_555
O135 P3 1.538740 1_555
O136 P4 1.549445 1_555
O137 P5 1.534350 1_555
O138 P6 1.543604 1_555
O139 P7 1.543519 1_555
O140 P8 1.561619 1_455
O141 P9 1.562030 1_555
O142 P10 1.544288 1_555
O143 P11 1.542989 1_555
