# generated using pymatgen
data_MgNb2Al2O8
_symmetry_space_group_name_H-M   'P 1'
_cell_length_a   3.80848601
_cell_length_b   6.82741054
_cell_length_c   6.65045574
_cell_angle_alpha   108.89692045
_cell_angle_beta   89.99986182
_cell_angle_gamma   106.18949561
_symmetry_Int_Tables_number   1
_chemical_formula_structural   MgNb2Al2O8
_chemical_formula_sum   'Mg1 Nb2 Al2 O8'
_cell_volume   156.33994255
_cell_formula_units_Z   1
loop_
 _symmetry_equiv_pos_site_id
 _symmetry_equiv_pos_as_xyz
  1  'x, y, z'
loop_
 _atom_site_type_symbol
 _atom_site_label
 _atom_site_symmetry_multiplicity
 _atom_site_fract_x
 _atom_site_fract_y
 _atom_site_fract_z
 _atom_site_occupancy
  Mg  Mg0  1  0.31033600  0.62095500  0.48371200  1
  Nb  Nb0  1  0.09330500  0.18698800  0.18008000  1
  Nb  Nb1  1  0.91126000  0.82285100  0.84048100  1
  Al  Al0  1  0.79383200  0.58797300  0.17284000  1
  Al  Al1  1  0.19272200  0.38551800  0.79107600  1
  O  O0  1  0.36564700  0.73159500  0.80784500  1
  O  O1  1  0.63649600  0.27320800  0.17277000  1
  O  O2  1  0.73789400  0.47598500  0.86480900  1
  O  O3  1  0.26838900  0.53702900  0.16238400  1
  O  O4  1  0.85045500  0.70120300  0.48239800  1
  O  O5  1  0.16113800  0.32220800  0.50703700  1
  O  O6  1  0.93461400  0.86956700  0.16035800  1
  O  O7  1  0.06534200  0.13075300  0.84421000  1
loop_
_geom_bond_atom_site_label_1
_geom_bond_atom_site_label_2
_geom_bond_distance
_geom_bond_site_symmetry_2
Mg0 O4 1.976369 1_455
Mg0 O4 1.976434 1_555
Mg0 O5 2.016393 1_555
Mg0 O3 2.018995 1_555
Mg0 O0 2.029354 1_555
Nb0 O1 1.991289 1_455
Nb0 O1 1.991987 1_555
Nb0 O6 2.040731 1_445
Nb0 O5 2.052766 1_555
Nb0 O7 2.137714 1_554
Nb0 O3 2.337418 1_555
Nb1 O0 1.985863 1_655
Nb1 O0 1.985869 1_555
Nb1 O7 2.010584 1_665
Nb1 O6 2.044469 1_556
Nb1 O4 2.241916 1_555
Nb1 O2 2.333824 1_555
Al0 O6 1.875941 1_555
Al0 O2 1.929029 1_554
Al0 O3 1.930438 1_555
Al0 O3 1.930589 1_655
Al0 O4 1.938699 1_555
Al0 O1 2.063653 1_555
Al1 O5 1.792126 1_555
Al1 O7 1.820235 1_555
Al1 O2 2.005391 1_555
Al1 O2 2.005720 1_455
Al1 O0 2.233971 1_555
Al1 O3 2.330253 1_556
