# generated using pymatgen
data_Tb2In
_symmetry_space_group_name_H-M   'P 1'
_cell_length_a   5.39563238
_cell_length_b   5.39563134
_cell_length_c   6.74084352
_cell_angle_alpha   90.00000000
_cell_angle_beta   90.00000000
_cell_angle_gamma   119.99998727
_symmetry_Int_Tables_number   1
_chemical_formula_structural   Tb2In
_chemical_formula_sum   'Tb4 In2'
_cell_volume   169.95328131
_cell_formula_units_Z   2
loop_
 _symmetry_equiv_pos_site_id
 _symmetry_equiv_pos_as_xyz
  1  'x, y, z'
loop_
 _atom_site_type_symbol
 _atom_site_label
 _atom_site_symmetry_multiplicity
 _atom_site_fract_x
 _atom_site_fract_y
 _atom_site_fract_z
 _atom_site_occupancy
  Tb  Tb0  1  0.00000000  0.00000000  0.50000000  1
  Tb  Tb1  1  0.00000000  0.00000000  0.00000000  1
  Tb  Tb2  1  0.33333300  0.66666700  0.75000953  1
  Tb  Tb3  1  0.66666700  0.33333300  0.24999047  1
  In  In0  1  0.66666700  0.33333300  0.75002268  1
  In  In1  1  0.33333300  0.66666700  0.24997732  1
loop_
_geom_bond_atom_site_label_1
_geom_bond_atom_site_label_2
_geom_bond_distance
_geom_bond_site_symmetry_2
Tb0 Tb1 3.370422 1_555
Tb0 Tb1 3.370422 1_556
Tb0 Tb3 3.541809 1_455
Tb0 Tb2 3.541809 1_545
Tb0 Tb3 3.541814 1_445
Tb0 Tb2 3.541814 1_555
Tb0 Tb2 3.541814 1_445
Tb0 Tb3 3.541814 1_555
Tb1 Tb2 3.541748 1_544
Tb1 Tb3 3.541748 1_455
Tb1 Tb3 3.541752 1_445
Tb1 Tb2 3.541752 1_554
Tb1 Tb2 3.541753 1_444
Tb1 Tb3 3.541753 1_555
In0 Tb2 3.115166 1_545
In0 Tb2 3.115167 1_655
In0 Tb2 3.115176 1_555
In0 Tb3 3.370205 1_556
In0 Tb3 3.370639 1_555
In0 Tb1 3.541706 1_656
In0 Tb1 3.541710 1_666
In0 Tb1 3.541711 1_556
In0 Tb0 3.541851 1_655
In0 Tb0 3.541856 1_665
In0 Tb0 3.541856 1_555
In1 Tb3 3.115166 1_565
In1 Tb3 3.115167 1_455
In1 Tb3 3.115176 1_555
In1 Tb2 3.370205 1_554
In1 Tb2 3.370639 1_555
In1 Tb1 3.541706 1_565
In1 Tb1 3.541710 1_555
In1 Tb1 3.541711 1_665
In1 Tb0 3.541851 1_565
In1 Tb0 3.541856 1_555
In1 Tb0 3.541856 1_665
