# generated using pymatgen
data_CaAlSiHO5
_symmetry_space_group_name_H-M   'P 1'
_cell_length_a   5.75151900
_cell_length_b   7.11997700
_cell_length_c   8.60503100
_cell_angle_alpha   90.00000000
_cell_angle_beta   90.00000000
_cell_angle_gamma   90.00000000
_symmetry_Int_Tables_number   1
_chemical_formula_structural   CaAlSiHO5
_chemical_formula_sum   'Ca4 Al4 Si4 H4 O20'
_cell_volume   352.38189664
_cell_formula_units_Z   4
loop_
 _symmetry_equiv_pos_site_id
 _symmetry_equiv_pos_as_xyz
  1  'x, y, z'
loop_
 _atom_site_type_symbol
 _atom_site_label
 _atom_site_symmetry_multiplicity
 _atom_site_fract_x
 _atom_site_fract_y
 _atom_site_fract_z
 _atom_site_occupancy
  Ca  Ca0  1  0.46970500  0.63630600  0.16436100  1
  Ca  Ca1  1  0.96970500  0.86369400  0.83563900  1
  Ca  Ca2  1  0.53029500  0.13630600  0.33563900  1
  Ca  Ca3  1  0.03029500  0.36369400  0.66436100  1
  Al  Al0  1  0.24282700  0.23766200  0.00533400  1
  Al  Al1  1  0.74282700  0.26233800  0.99466600  1
  Al  Al2  1  0.25717300  0.76233900  0.50533400  1
  Al  Al3  1  0.75717300  0.73766100  0.49466600  1
  Si  Si0  1  0.98758000  0.37913700  0.31018600  1
  Si  Si1  1  0.01242000  0.87913700  0.18981400  1
  Si  Si2  1  0.48758000  0.12086300  0.68981400  1
  Si  Si3  1  0.51242000  0.62086300  0.81018600  1
  H  H0  1  0.47993600  0.47716200  0.49307400  1
  H  H1  1  0.97993600  0.02283800  0.50692600  1
  H  H2  1  0.52006400  0.97716200  0.00692600  1
  H  H3  1  0.02006400  0.52283800  0.99307400  1
  O  O0  1  0.49440500  0.60444300  0.43579500  1
  O  O1  1  0.99440500  0.89555700  0.56420500  1
  O  O2  1  0.50559500  0.10444300  0.06420500  1
  O  O3  1  0.00559500  0.39555700  0.93579500  1
  O  O4  1  0.75832100  0.38643100  0.19291000  1
  O  O5  1  0.25832100  0.11356900  0.80709000  1
  O  O6  1  0.24167900  0.88643100  0.30709000  1
  O  O7  1  0.74167900  0.61356900  0.69291000  1
  O  O8  1  0.49130000  0.42999300  0.92880100  1
  O  O9  1  0.99130000  0.07000700  0.07119900  1
  O  O10  1  0.50870000  0.92999300  0.57119900  1
  O  O11  1  0.00870000  0.57000700  0.42880100  1
  O  O12  1  0.57219200  0.78885300  0.93294400  1
  O  O13  1  0.07219200  0.71114700  0.06705600  1
  O  O14  1  0.42780800  0.28885300  0.56705600  1
  O  O15  1  0.92780800  0.21114700  0.43294400  1
  O  O16  1  0.26777700  0.64862200  0.71070300  1
  O  O17  1  0.76777700  0.85137800  0.28929700  1
  O  O18  1  0.73222300  0.14862200  0.78929700  1
  O  O19  1  0.23222300  0.35137800  0.21070300  1
loop_
_geom_bond_atom_site_label_1
_geom_bond_atom_site_label_2
_geom_bond_distance
_geom_bond_site_symmetry_2
Ca0 O12 2.343633 1_554
Ca0 O0 2.350986 1_555
Ca0 O4 2.445628 1_555
Ca0 O19 2.477943 1_555
Ca0 O13 2.492433 1_555
Ca0 O8 2.506383 1_554
Ca0 O6 2.529825 1_555
Ca0 O17 2.537666 1_555
Ca1 O13 2.343633 1_656
Ca1 O1 2.350986 1_555
Ca1 O5 2.445628 1_665
Ca1 O18 2.477943 1_565
Ca1 O12 2.492433 1_555
Ca1 O9 2.506383 1_566
Ca1 O7 2.529825 1_555
Ca1 O16 2.537666 1_655
Ca2 O14 2.343633 1_555
Ca2 O2 2.350986 1_555
Ca2 O6 2.445628 1_545
Ca2 O17 2.477943 1_545
Ca2 O15 2.492433 1_555
Ca2 O10 2.506383 1_545
Ca2 O4 2.529825 1_555
Ca2 O19 2.537666 1_555
Ca3 O15 2.343633 1_455
Ca3 O3 2.350986 1_555
Ca3 O7 2.445628 1_455
Ca3 O16 2.477943 1_555
Ca3 O14 2.492433 1_555
Ca3 O11 2.506383 1_555
Ca3 O5 2.529825 1_555
Ca3 O18 2.537666 1_455
Al0 O2 1.854828 1_555
Al0 O3 1.866445 1_554
Al0 O5 1.923191 1_554
Al0 O19 1.944809 1_555
Al0 O9 1.959331 1_455
Al0 O8 2.085969 1_554
Al1 O3 1.854828 1_655
Al1 O2 1.866445 1_556
Al1 O4 1.923191 1_556
Al1 O18 1.944809 1_555
Al1 O8 1.959331 1_555
Al1 O9 2.085969 1_556
Al2 O1 1.854824 1_455
Al2 O0 1.866450 1_555
Al2 O6 1.923188 1_555
Al2 O16 1.944812 1_555
Al2 O10 1.959327 1_555
Al2 O11 2.085974 1_555
Al3 O0 1.854824 1_555
Al3 O1 1.866450 1_555
Al3 O7 1.923188 1_555
Al3 O17 1.944812 1_555
Al3 O11 1.959327 1_655
Al3 O10 2.085974 1_555
H0 O0 1.034954 1_555
H0 O14 1.514198 1_555
H1 O1 1.034954 1_545
H1 O15 1.514198 1_555
H2 O2 1.034954 1_565
H2 O12 1.514198 1_554
H3 O3 1.034954 1_555
H3 O13 1.514198 1_556
O4 Si0 1.661259 1_555
O5 Si2 1.661259 1_555
O6 Si1 1.661259 1_555
O7 Si3 1.661259 1_555
O8 Si3 1.703939 1_555
O9 Si1 1.703939 1_645
O10 Si2 1.703939 1_565
O11 Si0 1.703939 1_455
O12 Si3 1.632376 1_555
O13 Si1 1.632376 1_555
O14 Si2 1.632376 1_555
O15 Si0 1.632376 1_555
O16 Si3 1.658835 1_555
O17 Si1 1.658835 1_655
O18 Si2 1.658835 1_555
O19 Si0 1.658835 1_455
