# generated using pymatgen
data_Na5Ca3SnP3(SO8)3
_symmetry_space_group_name_H-M   'P 1'
_cell_length_a   9.27600052
_cell_length_b   9.27141843
_cell_length_c   23.17438736
_cell_angle_alpha   90.35796508
_cell_angle_beta   89.84282968
_cell_angle_gamma   119.90927520
_symmetry_Int_Tables_number   1
_chemical_formula_structural   Na5Ca3SnP3(SO8)3
_chemical_formula_sum   'Na15 Ca9 Sn3 P9 S9 O72'
_cell_volume   1727.56195732
_cell_formula_units_Z   3
loop_
 _symmetry_equiv_pos_site_id
 _symmetry_equiv_pos_as_xyz
  1  'x, y, z'
loop_
 _atom_site_type_symbol
 _atom_site_label
 _atom_site_symmetry_multiplicity
 _atom_site_fract_x
 _atom_site_fract_y
 _atom_site_fract_z
 _atom_site_occupancy
  Na  Na0  1  0.99717581  0.63591148  0.26164117  1
  Na  Na1  1  0.30077747  0.34606580  0.58935721  1
  Na  Na2  1  0.02464301  0.68768618  0.57837722  1
  Na  Na3  1  0.67281665  0.95826257  0.57524241  1
  Na  Na4  1  0.66839328  0.69666639  0.07769863  1
  Na  Na5  1  0.03771523  0.34424969  0.08393776  1
  Na  Na6  1  0.98470304  0.67722752  0.90897669  1
  Na  Na7  1  0.32435074  0.29810368  0.90215398  1
  Na  Na8  1  0.69358329  0.67958067  0.41959230  1
  Na  Na9  1  0.99472192  0.00387303  0.49345234  1
  Na  Na10  1  0.99859580  0.98982248  0.99152371  1
  Na  Na11  1  0.65272966  0.31765638  0.82327673  1
  Na  Na12  1  0.65655200  0.29306014  0.33903116  1
  Na  Na13  1  0.33718269  0.68178535  0.17680934  1
  Na  Na14  1  0.32959860  0.64381462  0.67346466  1
  Ca  Ca0  1  0.00201376  0.01034729  0.35202631  1
  Ca  Ca1  1  0.99409419  0.00487604  0.84648861  1
  Ca  Ca2  1  0.00238562  0.00804870  0.65728617  1
  Ca  Ca3  1  0.00681446  0.99698647  0.14929872  1
  Ca  Ca4  1  0.66775268  0.34095771  0.68829988  1
  Ca  Ca5  1  0.65838287  0.32603958  0.18729785  1
  Ca  Ca6  1  0.33179859  0.67492229  0.01495787  1
  Ca  Ca7  1  0.32591496  0.66694175  0.50979347  1
  Ca  Ca8  1  0.33584518  0.67311450  0.32489630  1
  Sn  Sn0  1  0.66815068  0.33006337  0.97727362  1
  Sn  Sn1  1  0.68328206  0.33732906  0.48312822  1
  Sn  Sn2  1  0.33830035  0.66705289  0.82158465  1
  P  P0  1  0.31077509  0.32211546  0.75583316  1
  P  P1  1  0.96143228  0.33045069  0.58371966  1
  P  P2  1  0.66676110  0.62654311  0.57980103  1
  P  P3  1  0.95079670  0.62112426  0.08103284  1
  P  P4  1  0.63040964  0.65688629  0.92177641  1
  P  P5  1  0.03377140  0.37428457  0.92066646  1
  P  P6  1  0.34172306  0.96891023  0.91637187  1
  P  P7  1  0.64116968  0.98157933  0.42307255  1
  P  P8  1  0.01252694  0.66052027  0.41828385  1
  S  S0  1  0.29934766  0.99228458  0.25063498  1
  S  S1  1  0.69477373  0.69922905  0.24839768  1
  S  S2  1  0.00650719  0.31212437  0.24619027  1
  S  S3  1  0.01695891  0.69488566  0.75490918  1
  S  S4  1  0.67599390  0.98472355  0.75187738  1
  S  S5  1  0.37606394  0.04602959  0.58148948  1
  S  S6  1  0.67315502  0.04299873  0.07951632  1
  S  S7  1  0.37221612  0.33084108  0.07807659  1
  S  S8  1  0.34809593  0.36058986  0.42189703  1
  O  O0  1  0.21049164  0.00207366  0.30164695  1
  O  O1  1  0.79758897  0.79207338  0.29884926  1
  O  O2  1  0.00230852  0.21078820  0.29495246  1
  O  O3  1  0.21830100  0.22237948  0.80947038  1
  O  O4  1  0.00190345  0.77935892  0.80696973  1
  O  O5  1  0.77867773  0.99630754  0.80148502  1
  O  O6  1  0.74643341  0.96360534  0.69687134  1
  O  O7  1  0.21396835  0.24545369  0.69904084  1
  O  O8  1  0.03080472  0.78892235  0.70157752  1
  O  O9  1  0.77315695  0.79008750  0.19373206  1
  O  O10  1  0.01078865  0.23439328  0.19002744  1
  O  O11  1  0.20748582  0.98424025  0.19707870  1
  O  O12  1  0.87417346  0.35226669  0.63542027  1
  O  O13  1  0.47559975  0.12246998  0.63290550  1
  O  O14  1  0.63999242  0.51149048  0.62979357  1
  O  O15  1  0.86143295  0.51889430  0.13417274  1
  O  O16  1  0.65542413  0.12349461  0.13119330  1
  O  O17  1  0.47089406  0.33825466  0.12811498  1
  O  O18  1  0.44966671  0.31078612  0.02295997  1
  O  O19  1  0.83772810  0.52918584  0.02442031  1
  O  O20  1  0.68362566  0.14108589  0.02589177  1
  O  O21  1  0.45794533  0.15083871  0.52869045  1
  O  O22  1  0.68836335  0.54341814  0.52137276  1
  O  O23  1  0.84975540  0.30057332  0.52764144  1
  O  O24  1  0.56431224  0.67826102  0.97933447  1
  O  O25  1  0.12378744  0.44240385  0.97788344  1
  O  O26  1  0.31404148  0.86800834  0.97030760  1
  O  O27  1  0.56621741  0.88511561  0.47941719  1
  O  O28  1  0.32966638  0.43351379  0.47645405  1
  O  O29  1  0.10448480  0.66973242  0.47432649  1
  O  O30  1  0.09364918  0.64040086  0.36308618  1
  O  O31  1  0.53240430  0.89205481  0.37065280  1
  O  O32  1  0.37225275  0.47181540  0.37277763  1
  O  O33  1  0.12648596  0.50523450  0.87079542  1
  O  O34  1  0.37044673  0.88353430  0.86214255  1
  O  O35  1  0.50577894  0.62865227  0.87112873  1
  O  O36  1  0.98157842  0.80932745  0.41537218  1
  O  O37  1  0.81654894  0.00338877  0.41718677  1
  O  O38  1  0.20525619  0.19221544  0.41490099  1
  O  O39  1  0.01543911  0.20388701  0.91031720  1
  O  O40  1  0.19144369  0.99509076  0.90839624  1
  O  O41  1  0.80954673  0.79533517  0.91153369  1
  O  O42  1  0.97957161  0.17259434  0.58561639  1
  O  O43  1  0.20825597  0.03205591  0.58471645  1
  O  O44  1  0.83057458  0.79754987  0.58363100  1
  O  O45  1  0.95895142  0.79206892  0.07942349  1
  O  O46  1  0.83291833  0.03967399  0.07975557  1
  O  O47  1  0.19899564  0.18984621  0.07954910  1
  O  O48  1  0.65226485  0.13004510  0.75049398  1
  O  O49  1  0.48778307  0.34950292  0.75465663  1
  O  O50  1  0.87457992  0.52426988  0.75291962  1
  O  O51  1  0.69071892  0.53594885  0.24830871  1
  O  O52  1  0.85629168  0.33284118  0.24951827  1
  O  O53  1  0.46997456  0.13673056  0.25000820  1
  O  O54  1  0.63034459  0.48284252  0.92047980  1
  O  O55  1  0.85733977  0.36590707  0.92053717  1
  O  O56  1  0.50336217  0.14990416  0.92006507  1
  O  O57  1  0.65153786  0.15785933  0.42503041  1
  O  O58  1  0.50688486  0.35180324  0.42353783  1
  O  O59  1  0.83096748  0.49781248  0.41978782  1
  O  O60  1  0.36627958  0.48883404  0.07732474  1
  O  O61  1  0.12140795  0.63238825  0.07731943  1
  O  O62  1  0.53412957  0.87015512  0.07692613  1
  O  O63  1  0.35326880  0.87597225  0.57557706  1
  O  O64  1  0.51466520  0.65242801  0.57537732  1
  O  O65  1  0.13622156  0.48729108  0.57757570  1
  O  O66  1  0.30564985  0.83402795  0.25177459  1
  O  O67  1  0.52494291  0.67427784  0.25171259  1
  O  O68  1  0.15538659  0.48288259  0.24847394  1
  O  O69  1  0.32054471  0.50043078  0.76009960  1
  O  O70  1  0.17729558  0.68870058  0.75838615  1
  O  O71  1  0.50692033  0.82774058  0.75737714  1
loop_
_geom_bond_atom_site_label_1
_geom_bond_atom_site_label_2
_geom_bond_distance
_geom_bond_site_symmetry_2
Na0 O52 2.452019 1_555
Na0 O30 2.510494 1_655
Na0 O68 2.515636 1_655
Na0 O66 2.524683 1_655
Na0 O51 2.531639 1_555
Na1 O65 2.473626 1_555
Na1 O64 2.548968 1_555
Na1 O42 2.586985 1_455
Na1 O43 2.593986 1_555
Na1 O7 2.692375 1_555
Na1 O28 2.716803 1_555
Na1 O14 2.883883 1_555
Na2 O44 2.473634 1_455
Na2 O65 2.537855 1_555
Na2 O29 2.549268 1_555
Na2 O63 2.652821 1_555
Na2 O43 2.772883 1_565
Na2 O8 2.991605 1_555
Na2 O12 3.013173 1_455
Na2 O22 3.017304 1_455
Na3 O27 2.386131 1_555
Na3 O64 2.458468 1_555
Na3 O42 2.542077 1_565
Na3 O44 2.564972 1_555
Na3 O63 2.666997 1_555
Na3 O6 2.896339 1_555
Na3 O23 2.970229 1_565
Na4 O45 2.381363 1_555
Na4 O24 2.449570 1_554
Na4 O62 2.477275 1_555
Na4 O60 2.486219 1_555
Na4 O46 2.757405 1_565
Na4 O9 2.840978 1_555
Na5 O61 2.387278 1_555
Na5 O46 2.498042 1_455
Na5 O47 2.535918 1_555
Na5 O25 2.607434 1_554
Na5 O10 2.630310 1_555
Na5 O60 2.652353 1_555
Na6 O41 2.369668 1_555
Na6 O4 2.526969 1_655
Na6 O55 2.531004 1_555
Na6 O40 2.593676 1_655
Na6 O33 2.668869 1_655
Na6 O54 2.866553 1_555
Na7 O3 2.319056 1_555
Na7 O40 2.446106 1_545
Na7 O54 2.513922 1_555
Na7 O39 2.551985 1_555
Na7 O56 2.665283 1_555
Na7 O35 2.760209 1_555
Na8 O36 2.321316 1_555
Na8 O59 2.570213 1_555
Na8 O37 2.627527 1_565
Na8 O58 2.645176 1_555
Na8 O22 2.671167 1_555
Na8 O32 2.835084 1_555
Na8 O1 2.977644 1_555
Na8 O27 3.025299 1_555
Na9 O37 2.421529 1_555
Na9 O36 2.506694 1_545
Na9 O38 2.606965 1_655
Na9 O42 2.684104 1_555
Na9 O44 2.733655 1_545
Na9 O43 2.822186 1_655
Na10 O41 2.566234 1_555
Na10 O40 2.609340 1_655
Na10 O45 2.648854 1_556
Na10 O39 2.690871 1_665
Na10 O46 2.726838 1_566
Na10 O47 2.755304 1_666
Na11 O49 2.329546 1_555
Na11 O48 2.413805 1_555
Na11 O50 2.579193 1_555
Na11 O56 2.692079 1_555
Na11 O54 2.781080 1_555
Na11 O55 2.836693 1_555
Na12 O57 2.349036 1_555
Na12 O59 2.575472 1_555
Na12 O58 2.604828 1_555
Na12 O53 2.613978 1_555
Na12 O52 2.679366 1_555
Na12 O51 2.989247 1_555
Na13 O66 2.339727 1_555
Na13 O68 2.433994 1_555
Na13 O67 2.488043 1_555
Na13 O62 2.931055 1_555
Na13 O61 2.937636 1_555
Na13 O60 3.002498 1_555
Na14 O69 2.392963 1_555
Na14 O71 2.563956 1_555
Na14 O70 2.569621 1_555
Na14 O65 2.765358 1_555
Na14 O64 2.822154 1_555
Ca0 O37 2.262826 1_455
Ca0 O2 2.286610 1_555
Ca0 O0 2.289789 1_555
Ca0 O38 2.309704 1_555
Ca0 O36 2.311888 1_445
Ca0 O1 2.316151 1_445
Ca1 O5 2.222369 1_545
Ca1 O3 2.226480 1_655
Ca1 O39 2.287975 1_655
Ca1 O4 2.311374 1_645
Ca1 O40 2.366288 1_645
Ca1 O41 2.383855 1_545
Ca2 O7 2.304077 1_555
Ca2 O42 2.342285 1_455
Ca2 O6 2.380207 1_445
Ca2 O8 2.410835 1_545
Ca2 O43 2.467347 1_555
Ca2 O44 2.476655 1_445
Ca3 O11 2.221991 1_555
Ca3 O9 2.303011 1_455
Ca3 O45 2.356511 1_455
Ca3 O10 2.372842 1_565
Ca3 O47 2.414418 1_565
Ca3 O46 2.452511 1_465
Ca4 O14 2.199811 1_555
Ca4 O12 2.228800 1_555
Ca4 O49 2.296566 1_555
Ca4 O13 2.303851 1_555
Ca4 O50 2.354589 1_555
Ca4 O48 2.382384 1_555
Ca5 O15 2.217341 1_555
Ca5 O17 2.264948 1_555
Ca5 O16 2.266266 1_555
Ca5 O53 2.281638 1_555
Ca5 O51 2.293987 1_555
Ca5 O52 2.313270 1_555
Ca6 O26 2.149585 1_554
Ca6 O25 2.224037 1_554
Ca6 O24 2.293084 1_554
Ca6 O61 2.297155 1_555
Ca6 O62 2.335724 1_555
Ca6 O60 2.398314 1_555
Ca7 O29 2.226571 1_555
Ca7 O27 2.251337 1_555
Ca7 O28 2.309981 1_555
Ca7 O65 2.330808 1_555
Ca7 O63 2.370477 1_555
Ca7 O64 2.376062 1_555
Ca8 O31 2.204997 1_555
Ca8 O30 2.288108 1_555
Ca8 O32 2.342004 1_555
Ca8 O66 2.372050 1_555
Ca8 O67 2.432755 1_555
Ca8 O68 2.466239 1_555
O0 S0 1.467322 1_545
O1 S1 1.480667 1_555
O2 S2 1.462102 1_555
O3 P0 1.534090 1_555
O4 S3 1.478108 1_555
O5 S4 1.463855 1_555
O6 S4 1.486639 1_555
O7 P0 1.549851 1_555
O8 S3 1.484947 1_555
O9 S1 1.496874 1_555
O10 S2 1.493819 1_555
O11 S0 1.487728 1_555
O12 P1 1.512116 1_555
O13 S5 1.455139 1_555
O14 P2 1.513757 1_555
O15 P3 1.525617 1_555
O16 S6 1.458902 1_555
O17 S7 1.459227 1_555
O18 S7 1.519017 1_555
O18 Sn0 2.211246 1_554
O19 P3 1.627842 1_555
O19 Sn0 2.040725 1_554
O20 S6 1.518609 1_555
O20 Sn0 2.153192 1_554
O21 S5 1.513945 1_555
O21 Sn1 2.209076 1_555
O22 P2 1.614625 1_555
O22 Sn1 2.080364 1_555
O23 P1 1.598586 1_555
O23 Sn1 2.025525 1_555
O24 P4 1.519140 1_555
O25 P5 1.524460 1_555
O26 P6 1.508879 1_555
O27 P7 1.541997 1_555
O28 S8 1.479278 1_555
O29 P8 1.534179 1_555
O30 P8 1.539168 1_555
O31 P7 1.530217 1_555
O32 S8 1.480610 1_555
O33 P5 1.587504 1_555
O33 Sn2 2.116900 1_555
O34 P6 1.572572 1_555
O34 Sn2 2.093289 1_555
O35 P4 1.576224 1_555
O35 Sn2 2.103557 1_555
O36 P8 1.544883 1_655
O37 P7 1.541787 1_545
O38 S8 1.467686 1_555
O39 P5 1.519825 1_555
O40 P6 1.541332 1_555
O41 P4 1.529616 1_555
O42 P1 1.555203 1_555
O43 S5 1.497902 1_555
O44 P2 1.557884 1_555
O45 P3 1.549253 1_555
O46 S6 1.497599 1_555
O47 S7 1.482351 1_555
O48 S4 1.470075 1_545
O49 P0 1.531407 1_555
O50 S3 1.471271 1_655
O51 S1 1.495428 1_555
O52 S2 1.500176 1_655
O53 S0 1.478199 1_545
O54 P4 1.613424 1_555
O54 Sn0 2.093535 1_555
O55 P5 1.599279 1_655
O55 Sn0 2.080904 1_555
O56 P6 1.600348 1_545
O56 Sn0 2.078811 1_555
O57 P7 1.588963 1_545
O57 Sn1 2.038064 1_555
O58 S8 1.515784 1_555
O58 Sn1 2.199120 1_555
O59 P8 1.606222 1_655
O59 Sn1 2.056394 1_555
O60 S7 1.493250 1_555
O61 P3 1.535398 1_455
O62 S6 1.474109 1_565
O63 S5 1.488076 1_565
O64 P2 1.548334 1_555
O65 P1 1.553600 1_455
O66 S0 1.497668 1_555
O67 S1 1.475559 1_555
O68 S2 1.495123 1_555
O69 P0 1.612381 1_555
O69 Sn2 2.040571 1_555
O70 S3 1.519066 1_555
O70 Sn2 2.174943 1_555
O71 S4 1.522858 1_555
O71 Sn2 2.138020 1_555
