# generated using pymatgen
data_Na4Nb3AlSi4(PO12)2
_symmetry_space_group_name_H-M   'P 1'
_cell_length_a   8.87873496
_cell_length_b   8.88936690
_cell_length_c   22.56027078
_cell_angle_alpha   89.97083011
_cell_angle_beta   89.85906765
_cell_angle_gamma   120.01997649
_symmetry_Int_Tables_number   1
_chemical_formula_structural   Na4Nb3AlSi4(PO12)2
_chemical_formula_sum   'Na12 Nb9 Al3 Si12 P6 O72'
_cell_volume   1541.72606753
_cell_formula_units_Z   3
loop_
 _symmetry_equiv_pos_site_id
 _symmetry_equiv_pos_as_xyz
  1  'x, y, z'
loop_
 _atom_site_type_symbol
 _atom_site_label
 _atom_site_symmetry_multiplicity
 _atom_site_fract_x
 _atom_site_fract_y
 _atom_site_fract_z
 _atom_site_occupancy
  Na  Na0  1  0.63556511  0.62834732  0.74680756  1
  Na  Na1  1  0.99567879  0.36524291  0.74764138  1
  Na  Na2  1  0.30590276  0.97234185  0.08405780  1
  Na  Na3  1  0.02947737  0.33713993  0.08414530  1
  Na  Na4  1  0.96815762  0.29839650  0.41359783  1
  Na  Na5  1  0.70384748  0.67384603  0.41479184  1
  Na  Na6  1  0.00553406  0.99811523  0.49906146  1
  Na  Na7  1  0.99321912  0.99312421  0.99720614  1
  Na  Na8  1  0.65821040  0.32416178  0.83272429  1
  Na  Na9  1  0.66000759  0.32659891  0.32622821  1
  Na  Na10  1  0.34031936  0.66598269  0.16629351  1
  Na  Na11  1  0.33422210  0.67154273  0.66585077  1
  Nb  Nb0  1  0.00413899  0.00884702  0.85507577  1
  Nb  Nb1  1  0.99356256  0.00177118  0.64414958  1
  Nb  Nb2  1  0.99504790  0.99590496  0.14648879  1
  Nb  Nb3  1  0.66730444  0.33440168  0.97848531  1
  Nb  Nb4  1  0.66904689  0.33186973  0.48123047  1
  Nb  Nb5  1  0.33859796  0.66758091  0.02100810  1
  Nb  Nb6  1  0.33471895  0.66947689  0.52292916  1
  Nb  Nb7  1  0.33144672  0.67212425  0.30987714  1
  Nb  Nb8  1  0.33688092  0.67039410  0.81384249  1
  Al  Al0  1  0.00034071  0.99599098  0.35073434  1
  Al  Al1  1  0.66038411  0.32777550  0.68564177  1
  Al  Al2  1  0.66620492  0.33311460  0.18389036  1
  Si  Si0  1  0.30004392  0.28768374  0.74786110  1
  Si  Si1  1  0.70578164  0.00840692  0.74878438  1
  Si  Si2  1  0.95061344  0.33568679  0.58780198  1
  Si  Si3  1  0.66676926  0.61541460  0.58708315  1
  Si  Si4  1  0.94521003  0.61374398  0.08705062  1
  Si  Si5  1  0.66475013  0.05082112  0.08721771  1
  Si  Si6  1  0.38977339  0.33874493  0.08783528  1
  Si  Si7  1  0.62613073  0.66622264  0.91601974  1
  Si  Si8  1  0.04266102  0.37861690  0.91683271  1
  Si  Si9  1  0.33320488  0.95797122  0.91749611  1
  Si  Si10  1  0.62754746  0.95774055  0.41474651  1
  Si  Si11  1  0.04780399  0.67980459  0.41534780  1
  P  P0  1  0.29171769  0.01153655  0.25189063  1
  P  P1  1  0.71447617  0.70417163  0.25259354  1
  P  P2  1  0.99101518  0.28354913  0.25231565  1
  P  P3  1  0.99822731  0.71050672  0.74891878  1
  P  P4  1  0.38305876  0.04993869  0.58638136  1
  P  P5  1  0.32802869  0.37294068  0.41492732  1
  O  O0  1  0.19422323  0.02639870  0.30561438  1
  O  O1  1  0.82405236  0.79730455  0.30769981  1
  O  O2  1  0.97452896  0.17284945  0.30756265  1
  O  O3  1  0.19973609  0.16755949  0.80623919  1
  O  O4  1  0.96781227  0.79598371  0.80395677  1
  O  O5  1  0.83387053  0.03405125  0.80533883  1
  O  O6  1  0.79945723  0.96362200  0.69278429  1
  O  O7  1  0.16291937  0.19434459  0.69280436  1
  O  O8  1  0.03031363  0.82727420  0.69410827  1
  O  O9  1  0.80148143  0.82676092  0.19716588  1
  O  O10  1  0.02573716  0.20128847  0.19569277  1
  O  O11  1  0.17710442  0.97344074  0.19473673  1
  O  O12  1  0.86065929  0.36258654  0.64459476  1
  O  O13  1  0.49652476  0.13285051  0.63955334  1
  O  O14  1  0.63691427  0.49817338  0.64430780  1
  O  O15  1  0.86233849  0.48908760  0.14288035  1
  O  O16  1  0.62846651  0.13663628  0.14329220  1
  O  O17  1  0.50477270  0.36446985  0.14442970  1
  O  O18  1  0.46359280  0.29326124  0.02749827  1
  O  O19  1  0.83240353  0.53363505  0.02626658  1
  O  O20  1  0.70649649  0.16966691  0.02708962  1
  O  O21  1  0.46632486  0.15978598  0.52861650  1
  O  O22  1  0.69199072  0.52903068  0.52481972  1
  O  O23  1  0.83562179  0.30314586  0.52564976  1
  O  O24  1  0.53116180  0.69733806  0.97343543  1
  O  O25  1  0.16219048  0.46613826  0.97580312  1
  O  O26  1  0.30278743  0.83798757  0.97651122  1
  O  O27  1  0.53435155  0.82938975  0.47204209  1
  O  O28  1  0.29683590  0.45863177  0.47056469  1
  O  O29  1  0.16757855  0.69704840  0.47304293  1
  O  O30  1  0.13558549  0.62978705  0.35964403  1
  O  O31  1  0.49726500  0.85828807  0.35867141  1
  O  O32  1  0.36749497  0.49701757  0.36125283  1
  O  O33  1  0.13310214  0.49505385  0.85715651  1
  O  O34  1  0.36197674  0.86183964  0.85966688  1
  O  O35  1  0.50448017  0.63694928  0.85721511  1
  O  O36  1  0.01759426  0.84223823  0.40601903  1
  O  O37  1  0.82022172  0.98124702  0.40589651  1
  O  O38  1  0.16461495  0.19524785  0.40676633  1
  O  O39  1  0.02637532  0.18829560  0.91042685  1
  O  O40  1  0.15920308  0.97142174  0.90925169  1
  O  O41  1  0.81406030  0.83834534  0.90851809  1
  O  O42  1  0.97573882  0.16383884  0.58976468  1
  O  O43  1  0.19860177  0.02591462  0.59003680  1
  O  O44  1  0.84067339  0.81003047  0.58975172  1
  O  O45  1  0.98127656  0.81561555  0.09284374  1
  O  O46  1  0.83999859  0.03010297  0.09302641  1
  O  O47  1  0.18822864  0.16450482  0.09367172  1
  O  O48  1  0.69722837  0.18274844  0.74061101  1
  O  O49  1  0.49342139  0.31842792  0.74142014  1
  O  O50  1  0.83708748  0.52924529  0.74331958  1
  O  O51  1  0.69435035  0.52574095  0.24375316  1
  O  O52  1  0.83324733  0.30576141  0.24435180  1
  O  O53  1  0.47358610  0.16655244  0.24436726  1
  O  O54  1  0.63926246  0.49305787  0.92237172  1
  O  O55  1  0.85268454  0.35846528  0.92206329  1
  O  O56  1  0.50548698  0.14584165  0.92281675  1
  O  O57  1  0.64568698  0.14936410  0.42221887  1
  O  O58  1  0.49572569  0.36165281  0.42288449  1
  O  O59  1  0.85444558  0.49976948  0.42315153  1
  O  O60  1  0.34950780  0.49909643  0.07856243  1
  O  O61  1  0.14390569  0.64341592  0.07799533  1
  O  O62  1  0.49404654  0.85700793  0.07816313  1
  O  O63  1  0.36284932  0.86607221  0.57662946  1
  O  O64  1  0.49708087  0.64176713  0.57539108  1
  O  O65  1  0.14540735  0.50456402  0.57568676  1
  O  O66  1  0.30501904  0.83869531  0.25774012  1
  O  O67  1  0.53040234  0.69073168  0.25753667  1
  O  O68  1  0.16274662  0.46738402  0.25787524  1
  O  O69  1  0.30697240  0.47742151  0.75503854  1
  O  O70  1  0.16096813  0.68781179  0.75492854  1
  O  O71  1  0.52020963  0.82573090  0.75457698  1
loop_
_geom_bond_atom_site_label_1
_geom_bond_atom_site_label_2
_geom_bond_distance
_geom_bond_site_symmetry_2
Na0 O50 2.358034 1_555
Na0 O49 2.391560 1_555
Na0 O71 2.440495 1_555
Na0 O69 2.535097 1_555
Na0 O14 2.589001 1_555
Na0 O35 2.763987 1_555
Na0 O6 2.851948 1_555
Na0 O4 2.864808 1_555
Na1 O48 2.319401 1_555
Na1 O69 2.430224 1_655
Na1 O50 2.484396 1_555
Na1 O70 2.488760 1_655
Na1 O12 2.612974 1_555
Na1 O33 2.744732 1_655
Na1 O5 2.860186 1_555
Na1 O7 2.879816 1_655
Na2 O62 2.360518 1_555
Na2 O47 2.416958 1_565
Na2 O45 2.503334 1_455
Na2 O61 2.535781 1_555
Na2 O26 2.698932 1_554
Na2 O11 2.745858 1_555
Na2 O18 2.778071 1_565
Na2 O16 2.820746 1_565
Na3 O61 2.386453 1_555
Na3 O46 2.392306 1_455
Na3 O60 2.463179 1_555
Na3 O47 2.559976 1_555
Na3 O25 2.703445 1_554
Na3 O10 2.783672 1_555
Na3 O15 2.789315 1_455
Na3 O20 2.800896 1_455
Na4 O38 2.346537 1_655
Na4 O37 2.449485 1_545
Na4 O59 2.465335 1_555
Na4 O57 2.488388 1_555
Na4 O2 2.652639 1_555
Na4 O23 2.795013 1_555
Na4 O30 2.824027 1_655
Na4 O28 2.838634 1_655
Na5 O37 2.397548 1_555
Na5 O36 2.421664 1_655
Na5 O58 2.452794 1_555
Na5 O59 2.507847 1_555
Na5 O1 2.644483 1_555
Na5 O22 2.773037 1_555
Na5 O27 2.814086 1_555
Na5 O32 2.858465 1_555
Na6 O36 2.547129 1_555
Na6 O44 2.580133 1_455
Na6 O43 2.608823 1_565
Na6 O42 2.611111 1_465
Na6 O38 2.628039 1_565
Na6 O37 2.630165 1_455
Na7 O41 2.501044 1_555
Na7 O39 2.532234 1_665
Na7 O40 2.533167 1_655
Na7 O45 2.642803 1_556
Na7 O46 2.658111 1_566
Na7 O47 2.727195 1_666
Na8 O56 2.512952 1_555
Na8 O49 2.515272 1_555
Na8 O48 2.540398 1_555
Na8 O54 2.574292 1_555
Na8 O55 2.574415 1_555
Na8 O50 2.645291 1_555
Na9 O53 2.415757 1_555
Na9 O52 2.466506 1_555
Na9 O51 2.478416 1_555
Na9 O57 2.642504 1_555
Na9 O58 2.723871 1_555
Na9 O59 2.737548 1_555
Na10 O60 2.499628 1_555
Na10 O62 2.522634 1_555
Na10 O61 2.591734 1_555
Na10 O67 2.603853 1_555
Na10 O68 2.658274 1_555
Na10 O66 2.682005 1_555
Na11 O71 2.523214 1_555
Na11 O70 2.575552 1_555
Na11 O63 2.580819 1_555
Na11 O69 2.580920 1_555
Na11 O65 2.584822 1_555
Na11 O64 2.587423 1_555
Nb0 O3 1.938486 1_555
Nb0 O39 1.957305 1_555
Nb0 O5 1.985374 1_455
Nb0 O40 1.991529 1_545
Nb0 O41 2.006918 1_445
Nb0 O4 2.099501 1_445
Nb1 O6 1.922118 1_545
Nb1 O7 1.957233 1_655
Nb1 O42 1.957871 1_555
Nb1 O44 1.987249 1_545
Nb1 O8 2.071085 1_645
Nb1 O43 2.109133 1_655
Nb2 O45 1.963361 1_555
Nb2 O46 1.966937 1_565
Nb2 O9 1.981028 1_555
Nb2 O47 2.005969 1_665
Nb2 O10 2.036057 1_665
Nb2 O11 2.041801 1_655
Nb3 O19 1.964542 1_556
Nb3 O18 1.988896 1_556
Nb3 O20 1.994495 1_556
Nb3 O54 2.001193 1_555
Nb3 O55 2.003063 1_555
Nb3 O56 2.013058 1_555
Nb4 O23 1.908320 1_555
Nb4 O22 1.930225 1_555
Nb4 O21 1.989076 1_555
Nb4 O57 2.028384 1_555
Nb4 O59 2.045282 1_555
Nb4 O58 2.141997 1_555
Nb5 O24 1.919153 1_554
Nb5 O26 1.971147 1_554
Nb5 O25 1.975647 1_554
Nb5 O60 2.020471 1_555
Nb5 O62 2.022007 1_555
Nb5 O61 2.074704 1_555
Nb6 O29 1.975048 1_555
Nb6 O64 1.975601 1_555
Nb6 O65 1.978327 1_555
Nb6 O27 1.986850 1_555
Nb6 O63 2.037431 1_555
Nb6 O28 2.096442 1_555
Nb7 O31 1.920911 1_555
Nb7 O30 1.939442 1_555
Nb7 O66 1.994569 1_555
Nb7 O68 2.053144 1_555
Nb7 O67 2.058953 1_555
Nb7 O32 2.089807 1_555
Nb8 O34 1.907389 1_555
Nb8 O35 1.926069 1_555
Nb8 O33 1.955972 1_555
Nb8 O71 2.020480 1_555
Nb8 O69 2.078782 1_555
Nb8 O70 2.117068 1_555
Al0 O0 1.896854 1_565
Al0 O36 1.912020 1_555
Al0 O1 1.937787 1_455
Al0 O2 1.957773 1_465
Al0 O37 1.975788 1_455
Al0 O38 2.070991 1_565
Al1 O14 1.876898 1_555
Al1 O12 1.885808 1_555
Al1 O49 1.911920 1_555
Al1 O13 1.920163 1_555
Al1 O48 1.931141 1_555
Al1 O50 2.136123 1_555
Al2 O17 1.824933 1_555
Al2 O15 1.840039 1_555
Al2 O16 1.849113 1_555
Al2 O51 2.096251 1_555
Al2 O53 2.105079 1_555
Al2 O52 2.118917 1_555
O0 P0 1.531404 1_555
O1 P1 1.542261 1_555
O2 P2 1.548220 1_555
O3 Si0 1.645966 1_555
O4 P3 1.548113 1_555
O5 Si1 1.649620 1_555
O6 Si1 1.665242 1_565
O7 Si0 1.646580 1_555
O8 P3 1.545537 1_455
O9 P1 1.580973 1_555
O10 P2 1.576758 1_455
O11 P0 1.573176 1_565
O12 Si2 1.588418 1_555
O13 P4 1.503664 1_555
O14 Si3 1.594884 1_555
O15 Si4 1.591830 1_555
O16 Si5 1.590897 1_555
O17 Si6 1.580536 1_555
O18 Si6 1.645389 1_555
O19 Si4 1.638544 1_555
O20 Si5 1.642515 1_555
O21 P4 1.571621 1_555
O22 Si3 1.668698 1_555
O23 Si2 1.674545 1_555
O24 Si7 1.641248 1_555
O25 Si8 1.638093 1_555
O26 Si9 1.640642 1_555
O27 Si10 1.644953 1_555
O28 P5 1.562952 1_555
O29 Si11 1.640892 1_555
O30 Si11 1.651335 1_555
O31 Si10 1.644723 1_555
O32 P5 1.554173 1_555
O33 Si8 1.640216 1_555
O34 Si9 1.647888 1_555
O35 Si7 1.649393 1_555
O36 Si11 1.608937 1_555
O37 Si10 1.628076 1_555
O38 P5 1.530523 1_555
O39 Si8 1.630850 1_555
O40 Si9 1.619222 1_555
O41 Si7 1.611726 1_555
O42 Si2 1.651156 1_555
O43 P4 1.544010 1_555
O44 Si3 1.645716 1_555
O45 Si4 1.662932 1_555
O46 Si5 1.661294 1_555
O47 Si6 1.686370 1_555
O48 Si1 1.599733 1_555
O49 Si0 1.604035 1_555
O50 P3 1.534140 1_555
O51 P1 1.518035 1_555
O52 P2 1.520331 1_555
O53 P0 1.518903 1_555
O54 Si7 1.607200 1_555
O55 Si8 1.608665 1_655
O56 Si9 1.608811 1_545
O57 Si10 1.637646 1_545
O58 P5 1.552423 1_555
O59 Si11 1.669921 1_655
O60 Si6 1.647234 1_555
O61 Si4 1.660167 1_455
O62 Si5 1.642020 1_565
O63 P4 1.568169 1_565
O64 Si3 1.658130 1_555
O65 Si2 1.648909 1_455
O66 P0 1.604204 1_565
O67 P1 1.581613 1_555
O68 P2 1.587158 1_455
O69 Si0 1.664721 1_555
O70 P3 1.561900 1_455
O71 Si1 1.640219 1_565
