# generated using pymatgen
data_MoOF4
_symmetry_space_group_name_H-M   'P 1'
_cell_length_a   16.66244256
_cell_length_b   5.41923839
_cell_length_c   7.76775505
_cell_angle_alpha   88.13386467
_cell_angle_beta   90.00000000
_cell_angle_gamma   90.00000000
_symmetry_Int_Tables_number   1
_chemical_formula_structural   MoOF4
_chemical_formula_sum   'Mo8 O8 F32'
_cell_volume   701.03878911
_cell_formula_units_Z   8
loop_
 _symmetry_equiv_pos_site_id
 _symmetry_equiv_pos_as_xyz
  1  'x, y, z'
loop_
 _atom_site_type_symbol
 _atom_site_label
 _atom_site_symmetry_multiplicity
 _atom_site_fract_x
 _atom_site_fract_y
 _atom_site_fract_z
 _atom_site_occupancy
  Mo  Mo0  1  0.64245246  0.74290750  0.48973431  1
  Mo  Mo1  1  0.14245246  0.25709250  0.01026569  1
  Mo  Mo2  1  0.35754754  0.25709250  0.51026569  1
  Mo  Mo3  1  0.85754754  0.74290750  0.98973431  1
  Mo  Mo4  1  0.61019367  0.26373649  0.09733245  1
  Mo  Mo5  1  0.11019367  0.73626351  0.40266755  1
  Mo  Mo6  1  0.38980633  0.73626351  0.90266755  1
  Mo  Mo7  1  0.88980633  0.26373649  0.59733245  1
  O  O0  1  0.63808994  0.56552981  0.66507533  1
  O  O1  1  0.13808994  0.43447019  0.83492467  1
  O  O2  1  0.36191006  0.43447019  0.33492467  1
  O  O3  1  0.86191006  0.56552981  0.16507533  1
  O  O4  1  0.57506302  0.10776759  0.93598206  1
  O  O5  1  0.07506302  0.89223241  0.56401794  1
  O  O6  1  0.42493698  0.89223241  0.06401794  1
  O  O7  1  0.92493698  0.10776759  0.43598206  1
  F  F0  1  0.78399955  0.30531910  0.53424066  1
  F  F1  1  0.28399955  0.69468090  0.96575934  1
  F  F2  1  0.21600045  0.69468090  0.46575934  1
  F  F3  1  0.71600045  0.30531910  0.03424066  1
  F  F4  1  0.97470145  0.24993167  0.75001494  1
  F  F5  1  0.47470145  0.75006833  0.74998506  1
  F  F6  1  0.02529855  0.75006833  0.24998506  1
  F  F7  1  0.52529855  0.24993167  0.25001494  1
  F  F8  1  0.91710443  0.58020856  0.52788083  1
  F  F9  1  0.41710443  0.41979144  0.97211917  1
  F  F10  1  0.08289557  0.41979144  0.47211917  1
  F  F11  1  0.58289557  0.58020856  0.02788083  1
  F  F12  1  0.84887206  -0.00624318  0.74158445  1
  F  F13  1  0.34887206  0.00624318  0.75841555  1
  F  F14  1  0.15112794  0.00624318  0.25841555  1
  F  F15  1  0.65112794  -0.00624318  0.24158445  1
  F  F16  1  0.74859598  0.79753781  0.96649326  1
  F  F17  1  0.24859598  0.20246219  0.53350674  1
  F  F18  1  0.25140402  0.20246219  0.03350674  1
  F  F19  1  0.75140402  0.79753781  0.46649326  1
  F  F20  1  0.96141493  0.73494265  0.90877520  1
  F  F21  1  0.46141493  0.26505735  0.59122480  1
  F  F22  1  0.03858507  0.26505735  0.09122480  1
  F  F23  1  0.53858507  0.73494265  0.40877520  1
  F  F24  1  0.87264334  0.04758657  0.07978960  1
  F  F25  1  0.37264334  0.95241343  0.42021040  1
  F  F26  1  0.12735666  0.95241343  0.92021040  1
  F  F27  1  0.62735666  0.04758657  0.57978960  1
  F  F28  1  0.83999339  0.49092760  0.82078194  1
  F  F29  1  0.33999339  0.50907240  0.67921806  1
  F  F30  1  0.16000661  0.50907240  0.17921806  1
  F  F31  1  0.66000661  0.49092760  0.32078194  1
loop_
_geom_bond_atom_site_label_1
_geom_bond_atom_site_label_2
_geom_bond_distance
_geom_bond_site_symmetry_2
Mo0 O0 1.642888 1_555
Mo1 O1 1.642888 1_554
Mo2 O2 1.642888 1_555
Mo3 O3 1.642888 1_556
Mo4 O4 1.642224 1_554
Mo5 O5 1.642224 1_555
Mo6 O6 1.642224 1_556
Mo7 O7 1.642224 1_555
F0 Mo7 1.841721 1_555
F1 Mo6 1.841721 1_555
F2 Mo5 1.841721 1_555
F3 Mo4 1.841721 1_555
F4 Mo7 1.845913 1_555
F5 Mo6 1.845913 1_555
F6 Mo5 1.845913 1_555
F7 Mo4 1.845913 1_555
F8 Mo7 1.838213 1_555
F9 Mo6 1.838213 1_555
F10 Mo5 1.838213 1_555
F11 Mo4 1.838213 1_555
F12 Mo7 1.937681 1_555
F12 Mo3 2.326747 1_545
F13 Mo6 1.937681 1_545
F13 Mo2 2.326747 1_555
F14 Mo5 1.937681 1_545
F14 Mo1 2.326747 1_555
F15 Mo4 1.937681 1_555
F15 Mo0 2.326747 1_545
F16 Mo3 1.847277 1_555
F17 Mo2 1.847277 1_555
F18 Mo1 1.847277 1_555
F19 Mo0 1.847277 1_555
F20 Mo3 1.842384 1_555
F21 Mo2 1.842384 1_555
F22 Mo1 1.842384 1_555
F23 Mo0 1.842384 1_555
F24 Mo3 1.831409 1_544
F25 Mo2 1.831409 1_565
F26 Mo1 1.831409 1_566
F27 Mo0 1.831409 1_545
F28 Mo3 1.946615 1_555
F28 Mo7 2.314435 1_555
F29 Mo2 1.946615 1_555
F29 Mo6 2.314435 1_555
F30 Mo1 1.946615 1_555
F30 Mo5 2.314435 1_555
F31 Mo0 1.946615 1_555
F31 Mo4 2.314435 1_555
