# generated using pymatgen
data_MgTe6Mo2(WS)2
_symmetry_space_group_name_H-M   'P 1'
_cell_length_a   6.90085001
_cell_length_b   6.90109229
_cell_length_c   77.10692617
_cell_angle_alpha   89.99290409
_cell_angle_beta   90.00685605
_cell_angle_gamma   120.00075104
_symmetry_Int_Tables_number   1
_chemical_formula_structural   MgTe6Mo2(WS)2
_chemical_formula_sum   'Mg8 Te48 Mo16 W16 S16'
_cell_volume   3180.10276640
_cell_formula_units_Z   8
loop_
 _symmetry_equiv_pos_site_id
 _symmetry_equiv_pos_as_xyz
  1  'x, y, z'
loop_
 _atom_site_type_symbol
 _atom_site_label
 _atom_site_symmetry_multiplicity
 _atom_site_fract_x
 _atom_site_fract_y
 _atom_site_fract_z
 _atom_site_occupancy
  Mg  Mg0_0  1  0.17274450  0.29372750  0.43740050  1
  Mg  Mg0_1  1  0.17274450  0.29372750  0.93740050  1
  Mg  Mg0_2  1  0.17274450  0.79372750  0.43740050  1
  Mg  Mg0_3  1  0.17274450  0.79372750  0.93740050  1
  Mg  Mg0_4  1  0.67274450  0.29372750  0.43740050  1
  Mg  Mg0_5  1  0.67274450  0.29372750  0.93740050  1
  Mg  Mg0_6  1  0.67274450  0.79372750  0.43740050  1
  Mg  Mg0_7  1  0.67274450  0.79372750  0.93740050  1
  Te  Te0_0  1  0.16663900  0.33325200  0.35329800  1
  Te  Te0_1  1  0.16663900  0.33325200  0.85329800  1
  Te  Te0_2  1  0.16663900  0.83325200  0.35329800  1
  Te  Te0_3  1  0.16663900  0.83325200  0.85329800  1
  Te  Te0_4  1  0.66663900  0.33325200  0.35329800  1
  Te  Te0_5  1  0.66663900  0.33325200  0.85329800  1
  Te  Te0_6  1  0.66663900  0.83325200  0.35329800  1
  Te  Te0_7  1  0.66663900  0.83325200  0.85329800  1
  Te  Te1_0  1  0.33334000  0.16671750  0.02273800  1
  Te  Te1_1  1  0.33334000  0.16671750  0.52273800  1
  Te  Te1_2  1  0.33334000  0.66671750  0.02273800  1
  Te  Te1_3  1  0.33334000  0.66671750  0.52273800  1
  Te  Te1_4  1  0.83334000  0.16671750  0.02273800  1
  Te  Te1_5  1  0.83334000  0.16671750  0.52273800  1
  Te  Te1_6  1  0.83334000  0.66671750  0.02273800  1
  Te  Te1_7  1  0.83334000  0.66671750  0.52273800  1
  Te  Te2_0  1  0.33334650  0.16671950  0.21048150  1
  Te  Te2_1  1  0.33334650  0.16671950  0.71048150  1
  Te  Te2_2  1  0.33334650  0.66671950  0.21048150  1
  Te  Te2_3  1  0.33334650  0.66671950  0.71048150  1
  Te  Te2_4  1  0.83334650  0.16671950  0.21048150  1
  Te  Te2_5  1  0.83334650  0.16671950  0.71048150  1
  Te  Te2_6  1  0.83334650  0.66671950  0.21048150  1
  Te  Te2_7  1  0.83334650  0.66671950  0.71048150  1
  Te  Te3_0  1  0.33337600  0.16671000  0.07106000  1
  Te  Te3_1  1  0.33337600  0.16671000  0.57106000  1
  Te  Te3_2  1  0.33337600  0.66671000  0.07106000  1
  Te  Te3_3  1  0.33337600  0.66671000  0.57106000  1
  Te  Te3_4  1  0.83337600  0.16671000  0.07106000  1
  Te  Te3_5  1  0.83337600  0.16671000  0.57106000  1
  Te  Te3_6  1  0.83337600  0.66671000  0.07106000  1
  Te  Te3_7  1  0.83337600  0.66671000  0.57106000  1
  Te  Te4_0  1  0.33338300  0.16671300  0.25853750  1
  Te  Te4_1  1  0.33338300  0.16671300  0.75853750  1
  Te  Te4_2  1  0.33338300  0.66671300  0.25853750  1
  Te  Te4_3  1  0.33338300  0.66671300  0.75853750  1
  Te  Te4_4  1  0.83338300  0.16671300  0.25853750  1
  Te  Te4_5  1  0.83338300  0.16671300  0.75853750  1
  Te  Te4_6  1  0.83338300  0.66671300  0.25853750  1
  Te  Te4_7  1  0.83338300  0.66671300  0.75853750  1
  Te  Te5_0  1  0.16662100  0.33327800  0.30499350  1
  Te  Te5_1  1  0.16662100  0.33327800  0.80499350  1
  Te  Te5_2  1  0.16662100  0.83327800  0.30499350  1
  Te  Te5_3  1  0.16662100  0.83327800  0.80499350  1
  Te  Te5_4  1  0.66662100  0.33327800  0.30499350  1
  Te  Te5_5  1  0.66662100  0.33327800  0.80499350  1
  Te  Te5_6  1  0.66662100  0.83327800  0.30499350  1
  Te  Te5_7  1  0.66662100  0.83327800  0.80499350  1
  Mo  Mo0_0  1  0.16670250  0.33337850  0.23453150  1
  Mo  Mo0_1  1  0.16670250  0.33337850  0.73453150  1
  Mo  Mo0_2  1  0.16670250  0.83337850  0.23453150  1
  Mo  Mo0_3  1  0.16670250  0.83337850  0.73453150  1
  Mo  Mo0_4  1  0.66670250  0.33337850  0.23453150  1
  Mo  Mo0_5  1  0.66670250  0.33337850  0.73453150  1
  Mo  Mo0_6  1  0.66670250  0.83337850  0.23453150  1
  Mo  Mo0_7  1  0.66670250  0.83337850  0.73453150  1
  Mo  Mo1_0  1  0.33336550  0.16673350  0.14098950  1
  Mo  Mo1_1  1  0.33336550  0.16673350  0.64098950  1
  Mo  Mo1_2  1  0.33336550  0.66673350  0.14098950  1
  Mo  Mo1_3  1  0.33336550  0.66673350  0.64098950  1
  Mo  Mo1_4  1  0.83336550  0.16673350  0.14098950  1
  Mo  Mo1_5  1  0.83336550  0.16673350  0.64098950  1
  Mo  Mo1_6  1  0.83336550  0.66673350  0.14098950  1
  Mo  Mo1_7  1  0.83336550  0.66673350  0.64098950  1
  W  W0_0  1  0.16669350  0.33338350  0.04686900  1
  W  W0_1  1  0.16669350  0.33338350  0.54686900  1
  W  W0_2  1  0.16669350  0.83338350  0.04686900  1
  W  W0_3  1  0.16669350  0.83338350  0.54686900  1
  W  W0_4  1  0.66669350  0.33338350  0.04686900  1
  W  W0_5  1  0.66669350  0.33338350  0.54686900  1
  W  W0_6  1  0.66669350  0.83338350  0.04686900  1
  W  W0_7  1  0.66669350  0.83338350  0.54686900  1
  W  W1_0  1  0.33328850  0.16659200  0.32918450  1
  W  W1_1  1  0.33328850  0.16659200  0.82918450  1
  W  W1_2  1  0.33328850  0.66659200  0.32918450  1
  W  W1_3  1  0.33328850  0.66659200  0.82918450  1
  W  W1_4  1  0.83328850  0.16659200  0.32918450  1
  W  W1_5  1  0.83328850  0.16659200  0.82918450  1
  W  W1_6  1  0.83328850  0.66659200  0.32918450  1
  W  W1_7  1  0.83328850  0.66659200  0.82918450  1
  S  S0_0  1  0.16671250  0.33339750  0.16029850  1
  S  S0_1  1  0.16671250  0.33339750  0.66029850  1
  S  S0_2  1  0.16671250  0.83339750  0.16029850  1
  S  S0_3  1  0.16671250  0.83339750  0.66029850  1
  S  S0_4  1  0.66671250  0.33339750  0.16029850  1
  S  S0_5  1  0.66671250  0.33339750  0.66029850  1
  S  S0_6  1  0.66671250  0.83339750  0.16029850  1
  S  S0_7  1  0.66671250  0.83339750  0.66029850  1
  S  S1_0  1  0.16669150  0.33340550  0.12168700  1
  S  S1_1  1  0.16669150  0.33340550  0.62168700  1
  S  S1_2  1  0.16669150  0.83340550  0.12168700  1
  S  S1_3  1  0.16669150  0.83340550  0.62168700  1
  S  S1_4  1  0.66669150  0.33340550  0.12168700  1
  S  S1_5  1  0.66669150  0.33340550  0.62168700  1
  S  S1_6  1  0.66669150  0.83340550  0.12168700  1
  S  S1_7  1  0.66669150  0.83340550  0.62168700  1
loop_
_geom_bond_atom_site_label_1
_geom_bond_atom_site_label_2
_geom_bond_distance
_geom_bond_site_symmetry_2
Mg0_0 Mg0_4 3.450425 1_455
Mg0_0 Mg0_4 3.450425 1_555
Mg0_0 Mg0_6 3.450446 1_445
Mg0_0 Mg0_6 3.450446 1_555
Mg0_0 Mg0_2 3.450546 1_545
Mg0_0 Mg0_2 3.450546 1_555
Mg0_1 Mg0_5 3.450425 1_455
Mg0_1 Mg0_5 3.450425 1_555
Mg0_1 Mg0_7 3.450446 1_445
Mg0_1 Mg0_7 3.450446 1_555
Mg0_1 Mg0_3 3.450546 1_545
Mg0_1 Mg0_3 3.450546 1_555
Mg0_2 Mg0_6 3.450425 1_455
Mg0_2 Mg0_6 3.450425 1_555
Mg0_2 Mg0_4 3.450446 1_455
Mg0_2 Mg0_4 3.450446 1_565
Mg0_3 Mg0_7 3.450425 1_455
Mg0_3 Mg0_7 3.450425 1_555
Mg0_3 Mg0_5 3.450446 1_455
Mg0_3 Mg0_5 3.450446 1_565
Mg0_4 Mg0_6 3.450546 1_545
Mg0_4 Mg0_6 3.450546 1_555
Mg0_5 Mg0_7 3.450546 1_545
Mg0_5 Mg0_7 3.450546 1_555
Te0_0 W1_2 2.724953 1_555
Te0_0 W1_4 2.724958 1_455
Te0_0 W1_0 2.725103 1_555
Te0_1 W1_3 2.724953 1_555
Te0_1 W1_5 2.724958 1_455
Te0_1 W1_1 2.725103 1_555
Te0_2 W1_0 2.724953 1_565
Te0_2 W1_6 2.724958 1_455
Te0_2 W1_2 2.725103 1_555
Te0_3 W1_1 2.724953 1_565
Te0_3 W1_7 2.724958 1_455
Te0_3 W1_3 2.725103 1_555
Te0_4 W1_6 2.724953 1_555
Te0_4 W1_0 2.724958 1_555
Te0_4 W1_4 2.725103 1_555
Te0_5 W1_7 2.724953 1_555
Te0_5 W1_1 2.724958 1_555
Te0_5 W1_5 2.725103 1_555
Te0_6 W1_4 2.724953 1_565
Te0_6 W1_2 2.724958 1_555
Te0_6 W1_6 2.725103 1_555
Te0_7 W1_5 2.724953 1_565
Te0_7 W1_3 2.724958 1_555
Te0_7 W1_7 2.725103 1_555
Te1_0 W0_2 2.725848 1_545
Te1_0 W0_4 2.725892 1_555
Te1_0 W0_0 2.726037 1_555
Te1_1 W0_3 2.725848 1_545
Te1_1 W0_5 2.725892 1_555
Te1_1 W0_1 2.726037 1_555
Te1_2 W0_0 2.725848 1_555
Te1_2 W0_6 2.725892 1_555
Te1_2 W0_2 2.726037 1_555
Te1_3 W0_1 2.725848 1_555
Te1_3 W0_7 2.725892 1_555
Te1_3 W0_3 2.726037 1_555
Te1_4 W0_6 2.725848 1_545
Te1_4 W0_0 2.725892 1_655
Te1_4 W0_4 2.726037 1_555
Te1_5 W0_7 2.725848 1_545
Te1_5 W0_1 2.725892 1_655
Te1_5 W0_5 2.726037 1_555
Te1_6 W0_4 2.725848 1_555
Te1_6 W0_2 2.725892 1_655
Te1_6 W0_6 2.726037 1_555
Te1_7 W0_5 2.725848 1_555
Te1_7 W0_3 2.725892 1_655
Te1_7 W0_7 2.726037 1_555
Te3_0 W0_0 2.729004 1_555
Te3_0 W0_4 2.729076 1_555
Te3_0 W0_2 2.729176 1_545
Te3_1 W0_1 2.729004 1_555
Te3_1 W0_5 2.729076 1_555
Te3_1 W0_3 2.729176 1_545
Te3_2 W0_2 2.729004 1_555
Te3_2 W0_6 2.729076 1_555
Te3_2 W0_0 2.729176 1_555
Te3_3 W0_3 2.729004 1_555
Te3_3 W0_7 2.729076 1_555
Te3_3 W0_1 2.729176 1_555
Te3_4 W0_4 2.729004 1_555
Te3_4 W0_0 2.729076 1_655
Te3_4 W0_6 2.729176 1_545
Te3_5 W0_5 2.729004 1_555
Te3_5 W0_1 2.729076 1_655
Te3_5 W0_7 2.729176 1_545
Te3_6 W0_6 2.729004 1_555
Te3_6 W0_2 2.729076 1_655
Te3_6 W0_4 2.729176 1_555
Te3_7 W0_7 2.729004 1_555
Te3_7 W0_3 2.729076 1_655
Te3_7 W0_5 2.729176 1_555
Te5_0 W1_0 2.728993 1_555
Te5_0 W1_2 2.729122 1_555
Te5_0 W1_4 2.729142 1_455
Te5_1 W1_1 2.728993 1_555
Te5_1 W1_3 2.729122 1_555
Te5_1 W1_5 2.729142 1_455
Te5_2 W1_2 2.728993 1_555
Te5_2 W1_0 2.729122 1_565
Te5_2 W1_6 2.729142 1_455
Te5_3 W1_3 2.728993 1_555
Te5_3 W1_1 2.729122 1_565
Te5_3 W1_7 2.729142 1_455
Te5_4 W1_4 2.728993 1_555
Te5_4 W1_6 2.729122 1_555
Te5_4 W1_0 2.729142 1_555
Te5_5 W1_5 2.728993 1_555
Te5_5 W1_7 2.729122 1_555
Te5_5 W1_1 2.729142 1_555
Te5_6 W1_6 2.728993 1_555
Te5_6 W1_4 2.729122 1_565
Te5_6 W1_2 2.729142 1_555
Te5_7 W1_7 2.728993 1_555
Te5_7 W1_5 2.729122 1_565
Te5_7 W1_3 2.729142 1_555
Mo0_0 Te4_0 2.719231 1_555
Mo0_0 Te4_4 2.719354 1_455
Mo0_0 Te4_2 2.719481 1_555
Mo0_0 Te2_2 2.721619 1_555
Mo0_0 Te2_4 2.721644 1_455
Mo0_0 Te2_0 2.721735 1_555
Mo0_1 Te4_1 2.719231 1_555
Mo0_1 Te4_5 2.719354 1_455
Mo0_1 Te4_3 2.719481 1_555
Mo0_1 Te2_3 2.721619 1_555
Mo0_1 Te2_5 2.721644 1_455
Mo0_1 Te2_1 2.721735 1_555
Mo0_2 Te4_2 2.719231 1_555
Mo0_2 Te4_6 2.719354 1_455
Mo0_2 Te4_0 2.719481 1_565
Mo0_2 Te2_0 2.721619 1_565
Mo0_2 Te2_6 2.721644 1_455
Mo0_2 Te2_2 2.721735 1_555
Mo0_3 Te4_3 2.719231 1_555
Mo0_3 Te4_7 2.719354 1_455
Mo0_3 Te4_1 2.719481 1_565
Mo0_3 Te2_1 2.721619 1_565
Mo0_3 Te2_7 2.721644 1_455
Mo0_3 Te2_3 2.721735 1_555
Mo0_4 Te4_4 2.719231 1_555
Mo0_4 Te4_0 2.719354 1_555
Mo0_4 Te4_6 2.719481 1_555
Mo0_4 Te2_6 2.721619 1_555
Mo0_4 Te2_0 2.721644 1_555
Mo0_4 Te2_4 2.721735 1_555
Mo0_5 Te4_5 2.719231 1_555
Mo0_5 Te4_1 2.719354 1_555
Mo0_5 Te4_7 2.719481 1_555
Mo0_5 Te2_7 2.721619 1_555
Mo0_5 Te2_1 2.721644 1_555
Mo0_5 Te2_5 2.721735 1_555
Mo0_6 Te4_6 2.719231 1_555
Mo0_6 Te4_2 2.719354 1_555
Mo0_6 Te4_4 2.719481 1_565
Mo0_6 Te2_4 2.721619 1_565
Mo0_6 Te2_2 2.721644 1_555
Mo0_6 Te2_6 2.721735 1_555
Mo0_7 Te4_7 2.719231 1_555
Mo0_7 Te4_3 2.719354 1_555
Mo0_7 Te4_5 2.719481 1_565
Mo0_7 Te2_5 2.721619 1_565
Mo0_7 Te2_3 2.721644 1_555
Mo0_7 Te2_7 2.721735 1_555
Mo1_0 S1_0 2.486628 1_555
Mo1_0 S1_4 2.486733 1_555
Mo1_0 S1_2 2.486808 1_545
Mo1_0 S0_2 2.486970 1_545
Mo1_0 S0_4 2.486975 1_555
Mo1_0 S0_0 2.487125 1_555
Mo1_1 S1_1 2.486628 1_555
Mo1_1 S1_5 2.486733 1_555
Mo1_1 S1_3 2.486808 1_545
Mo1_1 S0_3 2.486970 1_545
Mo1_1 S0_5 2.486975 1_555
Mo1_1 S0_1 2.487125 1_555
Mo1_2 S1_2 2.486628 1_555
Mo1_2 S1_6 2.486733 1_555
Mo1_2 S1_0 2.486808 1_555
Mo1_2 S0_0 2.486970 1_555
Mo1_2 S0_6 2.486975 1_555
Mo1_2 S0_2 2.487125 1_555
Mo1_3 S1_3 2.486628 1_555
Mo1_3 S1_7 2.486733 1_555
Mo1_3 S1_1 2.486808 1_555
Mo1_3 S0_1 2.486970 1_555
Mo1_3 S0_7 2.486975 1_555
Mo1_3 S0_3 2.487125 1_555
Mo1_4 S1_4 2.486628 1_555
Mo1_4 S1_0 2.486733 1_655
Mo1_4 S1_6 2.486808 1_545
Mo1_4 S0_6 2.486970 1_545
Mo1_4 S0_0 2.486975 1_655
Mo1_4 S0_4 2.487125 1_555
Mo1_5 S1_5 2.486628 1_555
Mo1_5 S1_1 2.486733 1_655
Mo1_5 S1_7 2.486808 1_545
Mo1_5 S0_7 2.486970 1_545
Mo1_5 S0_1 2.486975 1_655
Mo1_5 S0_5 2.487125 1_555
Mo1_6 S1_6 2.486628 1_555
Mo1_6 S1_2 2.486733 1_655
Mo1_6 S1_4 2.486808 1_555
Mo1_6 S0_4 2.486970 1_555
Mo1_6 S0_2 2.486975 1_655
Mo1_6 S0_6 2.487125 1_555
Mo1_7 S1_7 2.486628 1_555
Mo1_7 S1_3 2.486733 1_655
Mo1_7 S1_5 2.486808 1_555
Mo1_7 S0_5 2.486970 1_555
Mo1_7 S0_3 2.486975 1_655
Mo1_7 S0_7 2.487125 1_555
