# generated using pymatgen
data_BI3
_symmetry_space_group_name_H-M   'P 1'
_cell_length_a   7.21845651
_cell_length_b   7.21845535
_cell_length_c   7.60775950
_cell_angle_alpha   90.00000000
_cell_angle_beta   90.00000000
_cell_angle_gamma   120.00001484
_symmetry_Int_Tables_number   1
_chemical_formula_structural   BI3
_chemical_formula_sum   'B2 I6'
_cell_volume   343.30170527
_cell_formula_units_Z   2
loop_
 _symmetry_equiv_pos_site_id
 _symmetry_equiv_pos_as_xyz
  1  'x, y, z'
loop_
 _atom_site_type_symbol
 _atom_site_label
 _atom_site_symmetry_multiplicity
 _atom_site_fract_x
 _atom_site_fract_y
 _atom_site_fract_z
 _atom_site_occupancy
  B  B0  1  0.33333300  0.66666700  0.25000000  1
  B  B1  1  0.66666700  0.33333300  0.75000000  1
  I  I0  1  0.05303130  0.36052981  0.25000000  1
  I  I1  1  0.69250249  0.05303130  0.75000000  1
  I  I2  1  0.36052981  0.30749751  0.75000000  1
  I  I3  1  0.63947019  0.69250249  0.25000000  1
  I  I4  1  0.30749751  0.94696870  0.25000000  1
  I  I5  1  0.94696870  0.63947019  0.75000000  1
loop_
_geom_bond_atom_site_label_1
_geom_bond_atom_site_label_2
_geom_bond_distance
_geom_bond_site_symmetry_2
B0 I0 2.122744 1_555
B0 I4 2.122745 1_555
B0 I3 2.122745 1_555
B1 I5 2.122744 1_555
B1 I1 2.122745 1_555
B1 I2 2.122745 1_555
