# generated using pymatgen
data_MgAg2(SbO3)2
_symmetry_space_group_name_H-M   'P 1'
_cell_length_a   6.79822165
_cell_length_b   6.79850104
_cell_length_c   6.79831083
_cell_angle_alpha   48.85221800
_cell_angle_beta   48.85235524
_cell_angle_gamma   48.85338919
_symmetry_Int_Tables_number   1
_chemical_formula_structural   MgAg2(SbO3)2
_chemical_formula_sum   'Mg1 Ag2 Sb2 O6'
_cell_volume   163.53373466
_cell_formula_units_Z   1
loop_
 _symmetry_equiv_pos_site_id
 _symmetry_equiv_pos_as_xyz
  1  'x, y, z'
loop_
 _atom_site_type_symbol
 _atom_site_label
 _atom_site_symmetry_multiplicity
 _atom_site_fract_x
 _atom_site_fract_y
 _atom_site_fract_z
 _atom_site_occupancy
  Mg  Mg0  1  0.50000000  0.50000000  0.50000000  1
  Ag  Ag0  1  0.33480000  0.33485500  0.33481900  1
  Ag  Ag1  1  0.66520000  0.66514500  0.66518100  1
  Sb  Sb0  1  0.15547000  0.15547500  0.15547200  1
  Sb  Sb1  1  0.84453000  0.84452400  0.84452800  1
  O  O0  1  0.76539500  0.46792800  0.09089300  1
  O  O1  1  0.53209000  0.90908500  0.23461900  1
  O  O2  1  0.90909600  0.23461100  0.53208400  1
  O  O3  1  0.09090400  0.76539000  0.46791500  1
  O  O4  1  0.46791100  0.09091500  0.76538100  1
  O  O5  1  0.23460500  0.53207100  0.90910700  1
loop_
_geom_bond_atom_site_label_1
_geom_bond_atom_site_label_2
_geom_bond_distance
_geom_bond_site_symmetry_2
Mg0 O2 2.171311 1_555
Mg0 O3 2.171313 1_555
Mg0 O4 2.171324 1_555
Mg0 O1 2.171327 1_555
Mg0 O5 2.171342 1_555
Mg0 O0 2.171344 1_555
Ag0 O5 2.631242 1_554
Ag0 O2 2.631263 1_455
Ag0 O1 2.631561 1_545
Ag0 O3 2.694357 1_555
Ag0 O4 2.694368 1_555
Ag0 O0 2.694419 1_555
Ag1 O0 2.631239 1_556
Ag1 O3 2.631264 1_655
Ag1 O4 2.631564 1_565
Ag1 O2 2.694356 1_555
Ag1 O1 2.694363 1_555
Ag1 O5 2.694424 1_555
O0 Sb0 2.151525 1_655
O0 Sb1 2.152504 1_554
O1 Sb1 2.151552 1_554
O1 Sb0 2.152601 1_565
O2 Sb1 2.151575 1_545
O2 Sb0 2.152563 1_655
O3 Sb0 2.151565 1_565
O3 Sb1 2.152562 1_455
O4 Sb0 2.151550 1_556
O4 Sb1 2.152594 1_545
O5 Sb1 2.151525 1_455
O5 Sb0 2.152504 1_556
