# generated using pymatgen
data_YZrP(SO6)2
_symmetry_space_group_name_H-M   'P 1'
_cell_length_a   9.12225737
_cell_length_b   9.12462042
_cell_length_c   23.46797303
_cell_angle_alpha   89.87465525
_cell_angle_beta   90.00000000
_cell_angle_gamma   119.99143349
_symmetry_Int_Tables_number   1
_chemical_formula_structural   YZrP(SO6)2
_chemical_formula_sum   'Y6 Zr6 P6 S12 O72'
_cell_volume   1691.84058008
_cell_formula_units_Z   6
loop_
 _symmetry_equiv_pos_site_id
 _symmetry_equiv_pos_as_xyz
  1  'x, y, z'
loop_
 _atom_site_type_symbol
 _atom_site_label
 _atom_site_symmetry_multiplicity
 _atom_site_fract_x
 _atom_site_fract_y
 _atom_site_fract_z
 _atom_site_occupancy
  Y  Y0  1  0.00162145  0.00149973  0.35852359  1
  Y  Y1  1  -0.00012173  0.00149973  0.85852359  1
  Y  Y2  1  0.67539415  0.33782224  0.69211134  1
  Y  Y3  1  0.66242909  0.33782224  0.19211134  1
  Y  Y4  1  0.32959052  0.65634672  0.02498225  1
  Y  Y5  1  0.32675520  0.65634672  0.52498225  1
  Zr  Zr0  1  0.99971834  0.99972323  0.64496819  1
  Zr  Zr1  1  0.00000489  0.99972323  0.14496819  1
  Zr  Zr2  1  0.66316702  0.33193068  0.97890328  1
  Zr  Zr3  1  0.66876466  0.33193068  0.47890328  1
  Zr  Zr4  1  0.34380970  0.66075896  0.31170063  1
  Zr  Zr5  1  0.31694826  0.66075896  0.81170063  1
  P  P0  1  0.71451736  0.72413768  0.25039290  1
  P  P1  1  0.00962032  0.72413768  0.75039290  1
  P  P2  1  0.94378145  0.31836616  0.58361078  1
  P  P3  1  0.37458571  0.31836616  0.08361078  1
  P  P4  1  0.03793953  0.38522895  0.91738566  1
  P  P5  1  0.34728843  0.38522895  0.41738566  1
  S  S0  1  0.27989990  0.98406662  0.25035825  1
  S  S1  1  0.01112171  0.29235613  0.24931909  1
  S  S2  1  0.28123442  0.29235613  0.74931909  1
  S  S3  1  0.70416672  0.98406662  0.75035825  1
  S  S4  1  0.37569382  0.05298748  0.58342096  1
  S  S5  1  0.67861420  0.62597455  0.58328722  1
  S  S6  1  0.94736136  0.62597455  0.08328722  1
  S  S7  1  0.67729466  0.05298748  0.08342096  1
  S  S8  1  0.61299955  0.65554529  0.91639174  1
  S  S9  1  0.34601151  0.95826849  0.91684361  1
  S  S10  1  0.61225598  0.95826849  0.41684361  1
  S  S11  1  0.04254474  0.65554529  0.41639174  1
  O  O0  1  0.20677979  0.01809367  0.30054779  1
  O  O1  1  0.82112557  0.80580314  0.30276192  1
  O  O2  1  0.98152878  0.18900051  0.30020525  1
  O  O3  1  0.20747173  0.18900051  0.80020525  1
  O  O4  1  0.98467757  0.80580314  0.80276192  1
  O  O5  1  0.81131388  0.01809367  0.80054779  1
  O  O6  1  0.78796576  0.95994057  0.69909255  1
  O  O7  1  0.17047752  0.21155548  0.69847223  1
  O  O8  1  0.03477781  0.83937086  0.69728615  1
  O  O9  1  0.80459306  0.83937086  0.19728615  1
  O  O10  1  0.04107796  0.21155548  0.19847223  1
  O  O11  1  0.17197482  0.95994057  0.19909255  1
  O  O12  1  0.86196011  0.34597369  0.63568140  1
  O  O13  1  0.47824404  0.12852446  0.63413526  1
  O  O14  1  0.64418410  0.51987923  0.63377234  1
  O  O15  1  0.87569613  0.51987923  0.13377234  1
  O  O16  1  0.65028142  0.12852446  0.13413526  1
  O  O17  1  0.48401458  0.34597369  0.13568140  1
  O  O18  1  0.46414689  0.29250272  0.03034977  1
  O  O19  1  0.83852237  0.54370678  0.03237176  1
  O  O20  1  0.70559463  0.16359404  0.03239754  1
  O  O21  1  0.45800041  0.16359404  0.53239754  1
  O  O22  1  0.70518540  0.54370678  0.53237176  1
  O  O23  1  0.82835683  0.29250272  0.53034977  1
  O  O24  1  0.53999695  0.68680880  0.96722708  1
  O  O25  1  0.15043708  0.46615796  0.96877072  1
  O  O26  1  0.31937252  0.85545966  0.96756132  1
  O  O27  1  0.53608614  0.85545966  0.46756132  1
  O  O28  1  0.31571989  0.46615796  0.46877072  1
  O  O29  1  0.14681085  0.68680880  0.46722708  1
  O  O30  1  0.12467935  0.62963988  0.36559374  1
  O  O31  1  0.50352278  0.87572898  0.36570455  1
  O  O32  1  0.37603202  0.50271228  0.36358164  1
  O  O33  1  0.12667926  0.50271228  0.86358164  1
  O  O34  1  0.37220520  0.87572898  0.86570455  1
  O  O35  1  0.50495953  0.62963988  0.86559374  1
  O  O36  1  0.01484444  0.79883764  0.40836108  1
  O  O37  1  0.78234404  0.98458722  0.40850585  1
  O  O38  1  0.19966575  0.21032625  0.40551705  1
  O  O39  1  0.01066050  0.21032625  0.90551705  1
  O  O40  1  0.20224318  0.98458722  0.90850585  1
  O  O41  1  0.78399320  0.79883764  0.90836108  1
  O  O42  1  0.95588720  0.15500880  0.59350112  1
  O  O43  1  0.20652324  0.04082577  0.59055416  1
  O  O44  1  0.83707004  0.79270785  0.59107004  1
  O  O45  1  0.95563781  0.79270785  0.09107004  1
  O  O46  1  0.83430253  0.04082577  0.09055416  1
  O  O47  1  0.19912160  0.15500880  0.09350112  1
  O  O48  1  0.67425872  0.12578250  0.74146874  1
  O  O49  1  0.44925294  0.31552628  0.73972941  1
  O  O50  1  0.86052399  0.54811484  0.74061774  1
  O  O51  1  0.68759184  0.54811484  0.24061774  1
  O  O52  1  0.86627434  0.31552628  0.23972941  1
  O  O53  1  0.45152478  0.12578250  0.24146874  1
  O  O54  1  0.62411042  0.49827015  0.92468547  1
  O  O55  1  0.86352405  0.37345087  0.92819701  1
  O  O56  1  0.50355592  0.12688812  0.92352206  1
  O  O57  1  0.62333320  0.12688812  0.42352206  1
  O  O58  1  0.50992783  0.37345087  0.42819701  1
  O  O59  1  0.87416073  0.49827015  0.42468547  1
  O  O60  1  0.34813850  0.46790572  0.07358420  1
  O  O61  1  0.11905586  0.65718134  0.07433363  1
  O  O62  1  0.53268398  0.88456592  0.07385284  1
  O  O63  1  0.35188094  0.88456592  0.57385284  1
  O  O64  1  0.53812448  0.65718134  0.57433363  1
  O  O65  1  0.11976621  0.46790572  0.57358420  1
  O  O66  1  0.28722314  0.82607605  0.25895271  1
  O  O67  1  0.53726932  0.71262732  0.25877174  1
  O  O68  1  0.16652659  0.46185173  0.25706265  1
  O  O69  1  0.29532414  0.46185173  0.75706265  1
  O  O70  1  0.17535700  0.71262732  0.75877174  1
  O  O71  1  0.53885190  0.82607605  0.75895271  1
loop_
_geom_bond_atom_site_label_1
_geom_bond_atom_site_label_2
_geom_bond_distance
_geom_bond_site_symmetry_2
O0 S0 1.461946 1_545
O0 Y0 2.256641 1_555
O1 P0 1.513601 1_555
O1 Y0 2.164012 1_665
O2 S1 1.459085 1_655
O2 Y0 2.266505 1_655
O3 S2 1.459085 1_555
O3 Y1 2.266505 1_555
O4 P1 1.513601 1_655
O4 Y1 2.164012 1_665
O5 S3 1.461946 1_545
O5 Y1 2.256641 1_655
O6 S3 1.499893 1_555
O6 Zr0 2.184819 1_555
O7 S2 1.499140 1_555
O7 Zr0 2.177073 1_445
O8 P1 1.569886 1_555
O8 Zr0 2.051964 1_455
O9 P0 1.569886 1_555
O9 Zr1 2.051964 1_655
O10 S1 1.499140 1_555
O10 Zr1 2.177073 1_545
O11 S0 1.499893 1_555
O11 Zr1 2.184819 1_555
O12 P2 1.517613 1_555
O12 Y2 2.128093 1_555
O13 S4 1.457964 1_555
O13 Y2 2.304441 1_555
O14 S5 1.459638 1_555
O14 Y2 2.275512 1_555
O15 S6 1.459638 1_555
O15 Y3 2.275512 1_555
O16 S7 1.457964 1_555
O16 Y3 2.304441 1_555
O17 P3 1.517613 1_555
O17 Y3 2.128093 1_555
O18 P3 1.574659 1_555
O18 Zr2 2.056285 1_554
O19 S6 1.495266 1_555
O19 Zr2 2.188091 1_554
O20 S7 1.501085 1_555
O20 Zr2 2.161261 1_554
O21 S4 1.501085 1_555
O21 Zr3 2.161261 1_555
O22 S5 1.495266 1_555
O22 Zr3 2.188091 1_555
O23 P2 1.574659 1_555
O23 Zr3 2.056285 1_555
O24 S8 1.462714 1_555
O24 Y4 2.250194 1_556
O25 P4 1.516223 1_555
O25 Y4 2.144137 1_556
O26 S9 1.457036 1_555
O26 Y4 2.298706 1_556
O27 S10 1.457036 1_555
O27 Y5 2.298706 1_555
O28 P5 1.516223 1_555
O28 Y5 2.144137 1_555
O29 S11 1.462714 1_555
O29 Y5 2.250194 1_555
O30 S11 1.488863 1_555
O30 Zr4 2.259884 1_555
O31 S10 1.499499 1_555
O31 Zr4 2.174913 1_555
O32 P5 1.589126 1_555
O32 Zr4 2.016088 1_555
O33 P4 1.589126 1_555
O33 Zr5 2.016088 1_555
O34 S9 1.499499 1_555
O34 Zr5 2.174913 1_555
O35 S8 1.488863 1_555
O35 Zr5 2.259884 1_555
O36 S11 1.462231 1_555
O36 Y0 2.239556 1_565
O37 S10 1.459678 1_555
O37 Y0 2.256440 1_665
O38 P5 1.513726 1_555
O38 Y0 2.162995 1_555
O39 P4 1.513729 1_555
O39 Y1 2.162995 1_555
O40 S9 1.459669 1_555
O40 Y1 2.256440 1_565
O41 S8 1.462237 1_555
O41 Y1 2.239556 1_665
O42 P2 1.565544 1_555
O42 Zr0 2.045799 1_545
O43 S4 1.500190 1_555
O43 Zr0 2.149627 1_445
O44 S5 1.496670 1_555
O44 Zr0 2.139616 1_555
O45 S6 1.496674 1_555
O45 Zr1 2.139616 1_655
O46 S7 1.500181 1_555
O46 Zr1 2.149627 1_645
O47 P3 1.565549 1_555
O47 Zr1 2.045799 1_545
O48 S3 1.463420 1_545
O48 Y2 2.248411 1_555
O49 S2 1.456150 1_555
O49 Y2 2.263903 1_555
O50 P1 1.516525 1_655
O50 Y2 2.144688 1_555
O51 P0 1.516528 1_555
O51 Y3 2.144689 1_555
O52 S1 1.456141 1_655
O52 Y3 2.263903 1_555
O53 S0 1.463426 1_545
O53 Y3 2.248411 1_555
O54 S8 1.500598 1_555
O54 Zr2 2.140499 1_555
O55 P4 1.560877 1_655
O55 Zr2 2.050818 1_555
O56 S9 1.499227 1_545
O56 Zr2 2.144013 1_555
O57 S10 1.499219 1_545
O57 Zr3 2.144013 1_555
O58 P5 1.560895 1_555
O58 Zr3 2.050818 1_555
O59 S11 1.500588 1_655
O59 Zr3 2.140499 1_555
O60 P3 1.517602 1_555
O60 Y4 2.137373 1_555
O61 S6 1.460210 1_455
O61 Y4 2.246021 1_555
O62 S7 1.458456 1_565
O62 Y4 2.288585 1_555
O63 S4 1.458449 1_565
O63 Y5 2.288585 1_555
O64 S5 1.460228 1_555
O64 Y5 2.246021 1_555
O65 P2 1.517591 1_455
O65 Y5 2.137373 1_555
O66 S0 1.489421 1_555
O66 Zr4 2.201034 1_555
O67 P0 1.579305 1_555
O67 Zr4 2.010914 1_555
O68 S1 1.497982 1_555
O68 Zr4 2.151597 1_555
O69 S2 1.497986 1_555
O69 Zr5 2.151597 1_555
O70 P1 1.579296 1_555
O70 Zr5 2.010914 1_555
O71 S3 1.489426 1_555
O71 Zr5 2.201034 1_555
