# generated using pymatgen
data_MgMn6O11F
_symmetry_space_group_name_H-M   'P 1'
_cell_length_a   11.98609053
_cell_length_b   6.64259470
_cell_length_c   2.92149464
_cell_angle_alpha   89.99889276
_cell_angle_beta   89.99029342
_cell_angle_gamma   110.34991645
_symmetry_Int_Tables_number   1
_chemical_formula_structural   MgMn6O11F
_chemical_formula_sum   'Mg1 Mn6 O11 F1'
_cell_volume   218.08794450
_cell_formula_units_Z   1
loop_
 _symmetry_equiv_pos_site_id
 _symmetry_equiv_pos_as_xyz
  1  'x, y, z'
loop_
 _atom_site_type_symbol
 _atom_site_label
 _atom_site_symmetry_multiplicity
 _atom_site_fract_x
 _atom_site_fract_y
 _atom_site_fract_z
 _atom_site_occupancy
  Mg  Mg0  1  0.49266025  0.01451166  0.01112617  1
  Mn  Mn0  1  0.00120383  0.00435633  0.01091898  1
  Mn  Mn1  1  0.28678998  0.21003251  0.51020934  1
  Mn  Mn2  1  0.00210045  0.50332630  0.51075683  1
  Mn  Mn3  1  0.71991023  0.30763726  0.01131968  1
  Mn  Mn4  1  0.28455340  0.69195470  0.01024508  1
  Mn  Mn5  1  0.71891397  0.77618493  0.51226378  1
  O  O0  1  0.11072111  0.06303281  0.51081196  1
  O  O1  1  0.01656463  0.32159218  0.01082541  1
  O  O2  1  0.29690754  0.40670470  0.01018112  1
  O  O3  1  0.98603479  0.68524716  0.01070958  1
  O  O4  1  0.59780696  0.20825562  0.51138910  1
  O  O5  1  0.17640335  0.65379381  0.51036514  1
  O  O6  1  0.40563003  0.78450705  0.51042709  1
  O  O7  1  0.82801731  0.34719373  0.51117217  1
  O  O8  1  0.70481276  0.59015931  0.01222506  1
  O  O9  1  0.32839047  0.05002394  0.01027023  1
  O  O10  1  0.88842222  0.94721332  0.51103027  1
  F  F0  1  0.66040772  0.93426968  0.01208600  1
loop_
_geom_bond_atom_site_label_1
_geom_bond_atom_site_label_2
_geom_bond_distance
_geom_bond_site_symmetry_2
Mg0 O4 2.060919 1_554
Mg0 O4 2.062345 1_555
Mg0 O9 2.062878 1_555
Mg0 O6 2.107410 1_545
Mg0 O6 2.110525 1_544
Mn0 O0 1.911217 1_555
Mn0 O0 1.911343 1_554
Mn0 O10 1.936006 1_444
Mn0 O10 1.936140 1_445
Mn0 O1 2.050522 1_555
Mn0 O3 2.063539 1_445
Mn1 O2 1.935177 1_556
Mn1 O2 1.935232 1_555
Mn1 O9 1.969773 1_555
Mn1 O9 1.970131 1_556
Mn1 O0 1.993475 1_555
Mn2 O1 1.940643 1_555
Mn2 O1 1.940954 1_556
Mn2 O3 1.947453 1_456
Mn2 O3 1.947674 1_455
Mn2 O5 1.977743 1_555
Mn2 O7 1.980992 1_455
Mn3 O7 1.909049 1_555
Mn3 O7 1.909365 1_554
Mn3 O8 1.947017 1_555
Mn3 O4 2.009825 1_555
Mn3 O4 2.009909 1_554
Mn4 O5 1.910370 1_554
Mn4 O5 1.910563 1_555
Mn4 O2 1.951240 1_555
Mn4 O6 1.998748 1_554
Mn4 O6 1.999902 1_555
Mn4 O9 2.250373 1_565
Mn5 O8 1.882430 1_556
Mn5 O8 1.882687 1_555
Mn5 O10 1.952761 1_555
F0 Mn5 2.058787 1_554
F0 Mn5 2.059663 1_555
F0 Mg0 2.252142 1_565
F0 Mn3 2.330122 1_565
