# generated using pymatgen
data_Ba2SmMgCu3O7
_symmetry_space_group_name_H-M   'P 1'
_cell_length_a   3.78137600
_cell_length_b   4.16404900
_cell_length_c   13.17894900
_cell_angle_alpha   90.00000000
_cell_angle_beta   90.00000000
_cell_angle_gamma   90.00000000
_symmetry_Int_Tables_number   1
_chemical_formula_structural   Ba2SmMgCu3O7
_chemical_formula_sum   'Ba2 Sm1 Mg1 Cu3 O7'
_cell_volume   207.51355579
_cell_formula_units_Z   1
loop_
 _symmetry_equiv_pos_site_id
 _symmetry_equiv_pos_as_xyz
  1  'x, y, z'
loop_
 _atom_site_type_symbol
 _atom_site_label
 _atom_site_symmetry_multiplicity
 _atom_site_fract_x
 _atom_site_fract_y
 _atom_site_fract_z
 _atom_site_occupancy
  Ba  Ba0  1  0.50000000  0.43661600  0.77239800  1
  Ba  Ba1  1  0.50000000  0.43661600  0.22760200  1
  Sm  Sm0  1  0.50000000  0.48560100  0.50000000  1
  Mg  Mg0  1  0.50000000  0.71249600  0.00000000  1
  Cu  Cu0  1  0.00000000  0.97943600  0.61435100  1
  Cu  Cu1  1  0.00000000  0.97943600  0.38564900  1
  Cu  Cu2  1  0.00000000  0.10362400  0.00000000  1
  O  O0  1  0.00000000  0.05089500  0.85589000  1
  O  O1  1  0.00000000  0.05089500  0.14411000  1
  O  O2  1  0.00000000  0.48215700  0.61600200  1
  O  O3  1  0.00000000  0.48215700  0.38399800  1
  O  O4  1  0.50000000  0.98734900  0.61340200  1
  O  O5  1  0.50000000  0.98734900  0.38659800  1
  O  O6  1  0.00000000  0.57537100  0.00000000  1
loop_
_geom_bond_atom_site_label_1
_geom_bond_atom_site_label_2
_geom_bond_distance
_geom_bond_site_symmetry_2
Ba0 O0 2.713889 1_655
Ba0 O0 2.713889 1_555
Ba0 O2 2.803380 1_555
Ba0 O2 2.803380 1_655
Ba0 O4 2.809000 1_545
Ba0 O4 3.106418 1_555
Ba0 Mg0 3.212012 1_556
Ba0 O0 3.365744 1_565
Ba0 O0 3.365744 1_665
Ba1 O1 2.713889 1_655
Ba1 O1 2.713889 1_555
Ba1 O3 2.803380 1_555
Ba1 O3 2.803380 1_655
Ba1 O5 2.809000 1_545
Ba1 O5 3.106418 1_555
Ba1 Mg0 3.212012 1_555
Ba1 O1 3.365744 1_565
Ba1 O1 3.365744 1_665
Mg0 O6 1.975028 1_655
Mg0 O6 1.975028 1_555
Cu0 O4 1.891016 1_455
Cu0 O4 1.891016 1_555
Cu0 O2 2.070808 1_555
Cu0 O2 2.093468 1_565
Cu1 O5 1.891016 1_555
Cu1 O5 1.891016 1_455
Cu1 O3 2.070808 1_555
Cu1 O3 2.093468 1_565
Cu2 O0 1.911868 1_554
Cu2 O1 1.911868 1_555
Cu2 O6 1.964378 1_555
Cu2 O6 2.199671 1_545
O2 Sm0 2.431479 1_455
O2 Sm0 2.431479 1_555
O3 Sm0 2.431479 1_455
O3 Sm0 2.431479 1_555
O4 Sm0 2.556982 1_565
O4 Sm0 2.568808 1_555
O5 Sm0 2.556982 1_565
O5 Sm0 2.568808 1_555
