# generated using pymatgen
data_Nb7(B2C)3
_symmetry_space_group_name_H-M   'P 1'
_cell_length_a   16.76258740
_cell_length_b   16.76258740
_cell_length_c   3.26336600
_cell_angle_alpha   90.00000000
_cell_angle_beta   90.00000000
_cell_angle_gamma   169.22112723
_symmetry_Int_Tables_number   1
_chemical_formula_structural   Nb7(B2C)3
_chemical_formula_sum   'Nb7 B6 C3'
_cell_volume   171.48804231
_cell_formula_units_Z   1
loop_
 _symmetry_equiv_pos_site_id
 _symmetry_equiv_pos_as_xyz
  1  'x, y, z'
loop_
 _atom_site_type_symbol
 _atom_site_label
 _atom_site_symmetry_multiplicity
 _atom_site_fract_x
 _atom_site_fract_y
 _atom_site_fract_z
 _atom_site_occupancy
  Nb  Nb0  1  0.70950400  0.29049600  0.00000000  1
  Nb  Nb1  1  0.29049600  0.70950400  0.00000000  1
  Nb  Nb2  1  0.56715200  0.43284800  0.50000000  1
  Nb  Nb3  1  0.43284800  0.56715200  0.50000000  1
  Nb  Nb4  1  0.13059100  0.86940900  0.00000000  1
  Nb  Nb5  1  0.86940900  0.13059100  0.00000000  1
  Nb  Nb6  1  0.00000000  0.00000000  0.00000000  1
  B  B0  1  0.65247600  0.34752400  0.50000000  1
  B  B1  1  0.34752400  0.65247600  0.50000000  1
  B  B2  1  0.76345100  0.23654900  0.50000000  1
  B  B3  1  0.23654900  0.76345100  0.50000000  1
  B  B4  1  0.18159500  0.81840500  0.50000000  1
  B  B5  1  0.81840500  0.18159500  0.50000000  1
  C  C0  1  0.06612200  0.93387800  0.00000000  1
  C  C1  1  0.50000000  0.50000000  0.50000000  1
  C  C2  1  0.93387800  0.06612200  0.00000000  1
loop_
_geom_bond_atom_site_label_1
_geom_bond_atom_site_label_2
_geom_bond_distance
_geom_bond_site_symmetry_2
B0 B4 1.850244 1_545
B0 B4 1.850244 1_655
B0 Nb4 2.382175 1_545
B0 Nb4 2.382175 1_655
B0 Nb4 2.382175 1_656
B0 Nb4 2.382175 1_546
B0 Nb0 2.507071 1_555
B0 Nb0 2.507071 1_556
B0 Nb2 2.847857 1_555
B1 B5 1.850244 1_455
B1 B5 1.850244 1_565
B1 Nb5 2.382175 1_455
B1 Nb5 2.382175 1_456
B1 Nb5 2.382175 1_565
B1 Nb5 2.382175 1_566
B1 Nb1 2.507071 1_556
B1 Nb1 2.507071 1_555
B1 Nb3 2.847857 1_555
B2 B3 1.812468 1_655
B2 B3 1.812468 1_545
B2 B5 1.834198 1_555
B2 Nb0 2.429919 1_556
B2 Nb0 2.429919 1_555
B2 Nb1 2.440497 1_545
B2 Nb1 2.440497 1_546
B2 Nb1 2.440497 1_656
B2 Nb1 2.440497 1_655
B3 B4 1.834198 1_555
B3 Nb1 2.429919 1_556
B3 Nb1 2.429919 1_555
B3 Nb0 2.440497 1_456
B3 Nb0 2.440497 1_455
B3 Nb0 2.440497 1_566
B3 Nb0 2.440497 1_565
B4 Nb4 2.358053 1_556
B4 Nb4 2.358053 1_555
B4 Nb0 2.451310 1_566
B4 Nb0 2.451310 1_565
B4 Nb0 2.451310 1_456
B4 Nb0 2.451310 1_455
B5 Nb5 2.358053 1_556
B5 Nb5 2.358053 1_555
B5 Nb1 2.451310 1_656
B5 Nb1 2.451310 1_655
B5 Nb1 2.451310 1_546
B5 Nb1 2.451310 1_545
C0 Nb4 2.151780 1_555
C0 Nb6 2.206952 1_565
C0 Nb2 2.267681 1_565
C0 Nb2 2.267681 1_454
C0 Nb2 2.267681 1_455
C0 Nb2 2.267681 1_564
C1 Nb2 2.241330 1_555
C1 Nb3 2.241330 1_555
C1 Nb6 2.267420 1_665
C1 Nb6 2.267420 1_666
C1 Nb6 2.267420 1_555
C1 Nb6 2.267420 1_556
C2 Nb5 2.151780 1_555
C2 Nb6 2.206952 1_655
C2 Nb3 2.267681 1_545
C2 Nb3 2.267681 1_654
C2 Nb3 2.267681 1_544
C2 Nb3 2.267681 1_655
