# generated using pymatgen
data_Sm8Sb3O8
_symmetry_space_group_name_H-M   'P 1'
_cell_length_a   7.07577548
_cell_length_b   7.07577548
_cell_length_c   15.34429265
_cell_angle_alpha   73.38249579
_cell_angle_beta   73.38249579
_cell_angle_gamma   31.67157640
_symmetry_Int_Tables_number   1
_chemical_formula_structural   Sm8Sb3O8
_chemical_formula_sum   'Sm8 Sb3 O8'
_cell_volume   385.12849775
_cell_formula_units_Z   1
loop_
 _symmetry_equiv_pos_site_id
 _symmetry_equiv_pos_as_xyz
  1  'x, y, z'
loop_
 _atom_site_type_symbol
 _atom_site_label
 _atom_site_symmetry_multiplicity
 _atom_site_fract_x
 _atom_site_fract_y
 _atom_site_fract_z
 _atom_site_occupancy
  Sm  Sm0  1  0.71396783  0.72336067  0.91147382  1
  Sm  Sm1  1  0.27663933  0.28603217  0.08852618  1
  Sm  Sm2  1  0.64373729  0.64401356  0.57094454  1
  Sm  Sm3  1  0.35598644  0.35626271  0.42905546  1
  Sm  Sm4  1  0.87633153  0.87963403  0.65281104  1
  Sm  Sm5  1  0.12036597  0.12366847  0.34718896  1
  Sm  Sm6  1  0.45213373  0.45895602  0.82969204  1
  Sm  Sm7  1  0.54104398  0.54786627  0.17030796  1
  Sb  Sb0  1  0.17229016  0.17409774  0.73281163  1
  Sb  Sb1  1  0.82590226  0.82770984  0.26718837  1
  Sb  Sb2  1  0.99363245  0.00636755  -0.00000000  1
  O  O0  1  0.46898821  0.47211267  0.63641081  1
  O  O1  1  0.52788733  0.53101179  0.36358919  1
  O  O2  1  0.87847830  0.88575485  0.79928197  1
  O  O3  1  0.11424515  0.12152170  0.20071803  1
  O  O4  1  0.16394866  0.16414419  0.48697860  1
  O  O5  1  0.83585581  0.83605134  0.51302140  1
  O  O6  1  0.29205209  0.30148750  0.93395184  1
  O  O7  1  0.69851250  0.70794791  0.06604816  1
loop_
_geom_bond_atom_site_label_1
_geom_bond_atom_site_label_2
_geom_bond_distance
_geom_bond_site_symmetry_2
Sb0 Sm2 3.261049 1_455
Sb0 Sm2 3.264548 1_545
Sb0 Sm4 3.310979 1_545
Sb0 Sm4 3.314344 1_455
Sb0 Sm6 3.473081 1_545
Sb0 Sm6 3.483831 1_455
Sb0 Sm0 3.546765 1_545
Sb0 Sm0 3.562676 1_455
Sb1 Sm3 3.261049 1_565
Sb1 Sm3 3.264548 1_655
Sb1 Sm5 3.310979 1_655
Sb1 Sm5 3.314344 1_565
Sb1 Sm7 3.473081 1_655
Sb1 Sm7 3.483831 1_565
Sb1 Sm1 3.546765 1_655
Sb1 Sm1 3.562676 1_565
Sb2 Sm7 3.438014 1_555
Sb2 Sm6 3.438014 1_554
Sb2 Sm7 3.450813 1_645
Sb2 Sm6 3.450813 1_644
Sb2 Sm1 3.465082 1_555
Sb2 Sm0 3.465082 1_554
Sb2 Sm1 3.472266 1_645
Sb2 Sm0 3.472266 1_644
O0 Sm2 2.273357 1_555
O0 Sm4 2.278129 1_545
O0 Sm4 2.278711 1_455
O0 Sm6 2.911585 1_555
O1 Sm3 2.273357 1_555
O1 Sm5 2.278129 1_655
O1 Sm5 2.278711 1_565
O1 Sm7 2.911585 1_555
O2 Sm4 2.264873 1_555
O2 Sm6 2.284562 1_565
O2 Sm6 2.286044 1_655
O2 Sm0 2.374461 1_555
O3 Sm5 2.264873 1_555
O3 Sm7 2.284562 1_455
O3 Sm7 2.286044 1_545
O3 Sm1 2.374461 1_555
O4 Sm2 2.291854 1_545
O4 Sm2 2.292117 1_455
O4 Sm5 2.378669 1_555
O4 Sm3 2.499316 1_555
O5 Sm3 2.291854 1_655
O5 Sm3 2.292117 1_565
O5 Sm4 2.378669 1_555
O5 Sm2 2.499316 1_555
O6 Sm6 2.275098 1_555
O6 Sm0 2.279388 1_455
O6 Sm0 2.279527 1_545
O6 Sm1 2.318070 1_556
O7 Sm7 2.275098 1_555
O7 Sm1 2.279388 1_565
O7 Sm1 2.279527 1_655
O7 Sm0 2.318070 1_554
