# generated using pymatgen
data_Mn4Al11
_symmetry_space_group_name_H-M   'P 1'
_cell_length_a   4.99964108
_cell_length_b   5.09450665
_cell_length_c   8.79781729
_cell_angle_alpha   74.65573465
_cell_angle_beta   88.02041966
_cell_angle_gamma   79.93860235
_symmetry_Int_Tables_number   1
_chemical_formula_structural   Mn4Al11
_chemical_formula_sum   'Mn4 Al11'
_cell_volume   212.75917735
_cell_formula_units_Z   1
loop_
 _symmetry_equiv_pos_site_id
 _symmetry_equiv_pos_as_xyz
  1  'x, y, z'
loop_
 _atom_site_type_symbol
 _atom_site_label
 _atom_site_symmetry_multiplicity
 _atom_site_fract_x
 _atom_site_fract_y
 _atom_site_fract_z
 _atom_site_occupancy
  Mn  Mn0  1  0.67654738  0.13647116  0.40304994  1
  Mn  Mn1  1  0.32345262  0.86352884  0.59695006  1
  Mn  Mn2  1  0.33698800  0.61113206  0.12895769  1
  Mn  Mn3  1  0.66301200  0.38886794  0.87104231  1
  Al  Al0  1  -0.00000000  0.00000000  0.00000000  1
  Al  Al1  1  0.06705141  0.84414007  0.31838151  1
  Al  Al2  1  0.93294859  0.15585993  0.68161849  1
  Al  Al3  1  0.16002353  0.30078254  0.37783347  1
  Al  Al4  1  0.15426969  0.54149604  0.87362909  1
  Al  Al5  1  0.84573031  0.45850396  0.12637091  1
  Al  Al6  1  0.52417058  0.89435012  0.87279238  1
  Al  Al7  1  0.47582942  0.10564988  0.12720762  1
  Al  Al8  1  0.41311227  0.34216579  0.63154488  1
  Al  Al9  1  0.58688773  0.65783421  0.36845512  1
  Al  Al10  1  0.83997647  0.69921746  0.62216653  1
loop_
_geom_bond_atom_site_label_1
_geom_bond_atom_site_label_2
_geom_bond_distance
_geom_bond_site_symmetry_2
Mn0 Mn1 2.711883 1_545
Al0 Mn3 2.413879 1_454
Al0 Mn2 2.413879 1_545
Al0 Al1 2.717277 1_545
Al0 Al2 2.717277 1_454
Al0 Al4 2.823621 1_544
Al0 Al5 2.823621 1_455
Al0 Al6 2.834324 1_544
Al0 Al7 2.834324 1_455
Al0 Al6 2.855144 1_444
Al0 Al7 2.855144 1_555
Al0 Al4 2.915846 1_554
Al0 Al5 2.915846 1_445
Al1 Mn0 2.460754 1_465
Al1 Mn2 2.517854 1_555
Al1 Al9 2.616410 1_555
Al1 Al3 2.634433 1_565
Al1 Al3 2.636889 1_555
Al1 Al9 2.712899 1_455
Al1 Al10 2.831247 1_455
Al1 Mn1 2.837053 1_555
Al1 Al7 2.882472 1_565
Al2 Mn1 2.460754 1_645
Al2 Mn3 2.517854 1_555
Al2 Al8 2.616410 1_555
Al2 Al8 2.712899 1_655
Al2 Al3 2.831247 1_655
Al2 Mn0 2.837053 1_555
Al2 Al6 2.882472 1_545
Al3 Mn1 2.558553 1_545
Al3 Mn2 2.568966 1_555
Al3 Mn0 2.569995 1_555
Al3 Al5 2.620567 1_455
Al3 Mn0 2.676655 1_455
Al3 Al8 2.676800 1_555
Al3 Al7 2.951980 1_555
Al3 Al9 3.022428 1_555
Al3 Al9 3.105190 1_455
Al4 Mn3 2.527645 1_555
Al4 Mn2 2.585182 1_556
Al4 Al5 2.644993 1_456
Al4 Mn3 2.705204 1_455
Al4 Mn1 2.749790 1_555
Al4 Al8 2.781565 1_555
Al4 Al6 2.793797 1_555
Al4 Al7 2.978399 1_556
Al5 Mn2 2.527645 1_555
Al5 Mn3 2.585182 1_554
Al5 Mn2 2.705204 1_655
Al5 Mn0 2.749790 1_555
Al5 Al9 2.781565 1_555
Al5 Al7 2.793797 1_555
Al5 Al6 2.978399 1_554
Al6 Mn3 2.551335 1_555
Al6 Mn2 2.577193 1_556
Al6 Al8 2.663466 1_565
Al6 Mn1 2.710366 1_555
Al6 Al7 2.715524 1_566
Al6 Mn3 2.723759 1_565
Al7 Mn2 2.551335 1_555
Al7 Mn3 2.577193 1_554
Al7 Al9 2.663466 1_545
Al7 Mn0 2.710366 1_555
Al7 Mn2 2.723759 1_545
Al8 Mn1 2.552244 1_555
Al8 Mn3 2.570675 1_555
Al8 Mn1 2.650205 1_545
Al8 Al9 2.660412 1_555
Al8 Mn0 2.706227 1_555
Al9 Mn0 2.552244 1_555
Al9 Mn2 2.570675 1_555
Al9 Mn0 2.650205 1_565
Al9 Mn1 2.706227 1_555
Al10 Mn0 2.558553 1_565
Al10 Mn3 2.568966 1_555
Al10 Mn1 2.569995 1_555
Al10 Al4 2.620567 1_655
Al10 Al2 2.634433 1_565
Al10 Al2 2.636889 1_555
Al10 Mn1 2.676655 1_655
Al10 Al9 2.676800 1_555
Al10 Al6 2.951980 1_555
Al10 Al8 3.022428 1_555
Al10 Al8 3.105190 1_655
