# generated using pymatgen
data_NaCdBi
_symmetry_space_group_name_H-M   'P 1'
_cell_length_a   8.19313500
_cell_length_b   4.88144700
_cell_length_c   8.98797100
_cell_angle_alpha   90.00000000
_cell_angle_beta   90.00000000
_cell_angle_gamma   90.00000000
_symmetry_Int_Tables_number   1
_chemical_formula_structural   NaCdBi
_chemical_formula_sum   'Na4 Cd4 Bi4'
_cell_volume   359.46809631
_cell_formula_units_Z   4
loop_
 _symmetry_equiv_pos_site_id
 _symmetry_equiv_pos_as_xyz
  1  'x, y, z'
loop_
 _atom_site_type_symbol
 _atom_site_label
 _atom_site_symmetry_multiplicity
 _atom_site_fract_x
 _atom_site_fract_y
 _atom_site_fract_z
 _atom_site_occupancy
  Na  Na0  1  0.52197700  0.75000000  0.31851000  1
  Na  Na1  1  0.97802300  0.25000000  0.81851000  1
  Na  Na2  1  0.47802300  0.25000000  0.68149000  1
  Na  Na3  1  0.02197700  0.75000000  0.18149000  1
  Cd  Cd0  1  0.85631600  0.25000000  0.42662500  1
  Cd  Cd1  1  0.64368400  0.75000000  0.92662500  1
  Cd  Cd2  1  0.14368400  0.75000000  0.57337500  1
  Cd  Cd3  1  0.35631600  0.25000000  0.07337500  1
  Bi  Bi0  1  0.76775300  0.75000000  0.60977100  1
  Bi  Bi1  1  0.73224700  0.25000000  0.10977100  1
  Bi  Bi2  1  0.23224700  0.25000000  0.39022900  1
  Bi  Bi3  1  0.26775300  0.75000000  0.89022900  1
loop_
_geom_bond_atom_site_label_1
_geom_bond_atom_site_label_2
_geom_bond_distance
_geom_bond_site_symmetry_2
Cd0 Na3 3.557208 1_645
Cd0 Na3 3.557208 1_655
Cd0 Na1 3.660681 1_555
Cd1 Na2 3.557208 1_565
Cd1 Na2 3.557208 1_555
Cd1 Na0 3.660681 1_556
Cd2 Na1 3.557208 1_465
Cd2 Na1 3.557208 1_455
Cd2 Na3 3.660681 1_555
Cd3 Na0 3.557208 1_545
Cd3 Na0 3.557208 1_555
Cd3 Na2 3.660681 1_554
Bi0 Cd1 3.023854 1_555
Bi0 Cd0 3.032049 1_555
Bi0 Cd0 3.032049 1_565
Bi0 Cd2 3.097376 1_655
Bi0 Na0 3.302727 1_555
Bi0 Na2 3.465193 1_565
Bi0 Na2 3.465193 1_555
Bi0 Na1 3.527743 1_565
Bi0 Na1 3.527743 1_555
Bi1 Cd0 3.023854 1_555
Bi1 Cd1 3.032049 1_544
Bi1 Cd1 3.032049 1_554
Bi1 Cd3 3.097376 1_555
Bi1 Na1 3.302727 1_554
Bi1 Na3 3.465193 1_655
Bi1 Na3 3.465193 1_645
Bi1 Na0 3.527743 1_555
Bi1 Na0 3.527743 1_545
Bi2 Cd3 3.023854 1_555
Bi2 Cd2 3.032049 1_545
Bi2 Cd2 3.032049 1_555
Bi2 Cd0 3.097376 1_455
Bi2 Na2 3.302727 1_555
Bi2 Na0 3.465193 1_545
Bi2 Na0 3.465193 1_555
Bi2 Na3 3.527743 1_545
Bi2 Na3 3.527743 1_555
Bi3 Cd2 3.023854 1_555
Bi3 Cd3 3.032049 1_566
Bi3 Cd3 3.032049 1_556
Bi3 Cd1 3.097376 1_555
Bi3 Na3 3.302727 1_556
Bi3 Na1 3.465193 1_465
Bi3 Na1 3.465193 1_455
Bi3 Na2 3.527743 1_565
Bi3 Na2 3.527743 1_555
