# generated using pymatgen
data_La2MgTi2(AgO4)2
_symmetry_space_group_name_H-M   'P 1'
_cell_length_a   3.71519307
_cell_length_b   3.71519307
_cell_length_c   18.10331786
_cell_angle_alpha   90.00000000
_cell_angle_beta   90.00000000
_cell_angle_gamma   90.00000000
_symmetry_Int_Tables_number   1
_chemical_formula_structural   La2MgTi2(AgO4)2
_chemical_formula_sum   'La2 Mg1 Ti2 Ag2 O8'
_cell_volume   249.87393310
_cell_formula_units_Z   1
loop_
 _symmetry_equiv_pos_site_id
 _symmetry_equiv_pos_as_xyz
  1  'x, y, z'
loop_
 _atom_site_type_symbol
 _atom_site_label
 _atom_site_symmetry_multiplicity
 _atom_site_fract_x
 _atom_site_fract_y
 _atom_site_fract_z
 _atom_site_occupancy
  La  La0  1  0.75000000  0.75000000  0.14361527  1
  La  La1  1  0.25000000  0.25000000  0.85638473  1
  Mg  Mg0  1  0.25000000  0.75000000  -0.00000000  1
  Ti  Ti0  1  0.75000000  0.75000000  0.73339392  1
  Ti  Ti1  1  0.25000000  0.25000000  0.26660608  1
  Ag  Ag0  1  0.75000000  0.75000000  0.47285866  1
  Ag  Ag1  1  0.25000000  0.25000000  0.52714134  1
  O  O0  1  0.75000000  0.75000000  0.64214284  1
  O  O1  1  0.25000000  0.25000000  0.35785716  1
  O  O2  1  0.75000000  0.75000000  0.93592520  1
  O  O3  1  0.25000000  0.25000000  0.06407480  1
  O  O4  1  0.25000000  0.75000000  0.77775831  1
  O  O5  1  0.75000000  0.25000000  0.77736216  1
  O  O6  1  0.25000000  0.75000000  0.22224169  1
  O  O7  1  0.75000000  0.25000000  0.22263784  1
loop_
_geom_bond_atom_site_label_1
_geom_bond_atom_site_label_2
_geom_bond_distance
_geom_bond_site_symmetry_2
La0 O6 2.340241 1_655
La0 O6 2.340241 1_555
La0 O7 2.344610 1_555
La0 O7 2.344610 1_565
La0 O3 2.995793 1_555
La0 O3 2.995793 1_565
La0 O3 2.995793 1_655
La0 O3 2.995793 1_665
La1 O4 2.340241 1_545
La1 O4 2.340241 1_555
La1 O5 2.344610 1_455
La1 O5 2.344610 1_555
La1 O2 2.995793 1_545
La1 O2 2.995793 1_555
La1 O2 2.995793 1_455
La1 O2 2.995793 1_445
Mg0 O3 2.190020 1_555
Mg0 O3 2.190020 1_565
Mg0 O2 2.190020 1_554
Mg0 O2 2.190020 1_454
Ag0 Ag1 2.804821 1_555
Ag0 Ag1 2.804821 1_655
Ag0 Ag1 2.804821 1_565
Ag0 Ag1 2.804821 1_665
O0 Ti0 1.651947 1_555
O1 Ti1 1.651947 1_555
O4 Ti0 2.023784 1_455
O4 Ti0 2.023784 1_555
O5 Ti0 2.020949 1_545
O5 Ti0 2.020949 1_555
O6 Ti1 2.023784 1_555
O6 Ti1 2.023784 1_565
O7 Ti1 2.020949 1_655
O7 Ti1 2.020949 1_555
