# generated using pymatgen
data_Na2In4Si3Ge4(S3O16)3
_symmetry_space_group_name_H-M   'P 1'
_cell_length_a   17.44181945
_cell_length_b   8.71387646
_cell_length_c   22.65872339
_cell_angle_alpha   89.32984097
_cell_angle_beta   89.51007794
_cell_angle_gamma   120.09489589
_symmetry_Int_Tables_number   1
_chemical_formula_structural   Na2In4Si3Ge4(S3O16)3
_chemical_formula_sum   'Na6 In12 Si9 Ge12 S27 O144'
_cell_volume   2978.94966963
_cell_formula_units_Z   3
loop_
 _symmetry_equiv_pos_site_id
 _symmetry_equiv_pos_as_xyz
  1  'x, y, z'
loop_
 _atom_site_type_symbol
 _atom_site_label
 _atom_site_symmetry_multiplicity
 _atom_site_fract_x
 _atom_site_fract_y
 _atom_site_fract_z
 _atom_site_occupancy
  Na  Na0  1  0.99462134  0.01388578  0.50296350  1
  Na  Na1  1  0.49538923  0.98065782  0.00358709  1
  Na  Na2  1  0.32506125  0.31398455  0.83740099  1
  Na  Na3  1  0.82608915  0.32924747  0.82936609  1
  Na  Na4  1  0.32697596  0.32209116  0.32933149  1
  Na  Na5  1  0.81945690  0.32864740  0.33363876  1
  In  In0  1  0.00681803  0.00306569  0.34927210  1
  In  In1  1  0.50614477  0.00986271  0.85019215  1
  In  In2  1  0.00099721  0.01177628  0.64777565  1
  In  In3  1  0.50267071  0.98641266  0.14780215  1
  In  In4  1  0.32430850  0.32853825  0.98390654  1
  In  In5  1  0.84069094  0.34076903  0.98503562  1
  In  In6  1  0.34022281  0.33743073  0.48323699  1
  In  In7  1  0.82560119  0.32191820  0.48208555  1
  In  In8  1  0.16450190  0.67368431  0.30479419  1
  In  In9  1  0.66929706  0.66401472  0.30832132  1
  In  In10  1  0.16896491  0.67857269  0.81269537  1
  In  In11  1  0.66326658  0.65211112  0.80567345  1
  Si  Si0  1  0.15223897  0.02001029  0.24568344  1
  Si  Si1  1  0.65424441  0.01311657  0.24753449  1
  Si  Si2  1  0.65337980  0.28637153  0.74561470  1
  Si  Si3  1  0.48253330  0.33291831  0.58289656  1
  Si  Si4  1  0.98042750  0.34515357  0.58149574  1
  Si  Si5  1  0.47773717  0.61823536  0.08087660  1
  Si  Si6  1  0.97684770  0.62643515  0.08491461  1
  Si  Si7  1  0.16543203  0.95798278  0.91518566  1
  Si  Si8  1  0.66490763  0.37363028  0.41403963  1
  Ge  Ge0  1  0.52251800  0.02951303  0.35283142  1
  Ge  Ge1  1  0.00241778  0.99283844  0.85930252  1
  Ge  Ge2  1  0.50932610  0.02675524  0.64553658  1
  Ge  Ge3  1  0.00684728  0.98922606  0.14574699  1
  Ge  Ge4  1  0.34123541  0.34239449  0.67929587  1
  Ge  Ge5  1  0.83140136  0.33476243  0.67780232  1
  Ge  Ge6  1  0.33791612  0.34031761  0.18496637  1
  Ge  Ge7  1  0.83556419  0.33160079  0.18490351  1
  Ge  Ge8  1  0.15876707  0.68940510  0.02814002  1
  Ge  Ge9  1  0.66289949  0.66834267  0.02797903  1
  Ge  Ge10  1  0.16509161  0.66454533  0.52244985  1
  Ge  Ge11  1  0.65815917  0.63594217  0.51842858  1
  S  S0  1  0.35939225  0.70248949  0.25395369  1
  S  S1  1  0.85946306  0.70713805  0.24462388  1
  S  S2  1  0.99384394  0.28078011  0.24578393  1
  S  S3  1  0.49275140  0.27813455  0.24969185  1
  S  S4  1  0.15264550  0.29179250  0.75137133  1
  S  S5  1  0.99494898  0.70760272  0.75120987  1
  S  S6  1  0.49003005  0.70163933  0.74545047  1
  S  S7  1  0.35581567  0.01052399  0.74341024  1
  S  S8  1  0.86108491  0.01668829  0.75506650  1
  S  S9  1  0.18993976  0.03560383  0.58267456  1
  S  S10  1  0.68093448  0.02440500  0.58599421  1
  S  S11  1  0.33392434  0.63339489  0.58649665  1
  S  S12  1  0.82790055  0.62737656  0.58185096  1
  S  S13  1  0.32888836  0.03077118  0.08365355  1
  S  S14  1  0.83405196  0.03142486  0.08625182  1
  S  S15  1  0.17983667  0.33903625  0.08543069  1
  S  S16  1  0.68753817  0.34396783  0.08001232  1
  S  S17  1  0.31296254  0.67684459  0.91776244  1
  S  S18  1  0.81301261  0.67381073  0.91625334  1
  S  S19  1  0.01924782  0.36047069  0.91405969  1
  S  S20  1  0.52501350  0.37817392  0.92069624  1
  S  S21  1  0.66738457  0.95011353  0.92024208  1
  S  S22  1  0.31183378  0.94740726  0.41740074  1
  S  S23  1  0.81285145  0.94666033  0.41991481  1
  S  S24  1  0.16624883  0.38187969  0.42089384  1
  S  S25  1  0.02563856  0.67326716  0.41966888  1
  S  S26  1  0.52159223  0.68036413  0.41542505  1
  O  O0  1  0.12279157  0.07122627  0.30754123  1
  O  O1  1  0.61010301  0.05576316  0.30726065  1
  O  O2  1  0.41533857  0.79006898  0.30598115  1
  O  O3  1  0.90834163  0.77689209  0.30046063  1
  O  O4  1  0.47557862  0.16252542  0.30472777  1
  O  O5  1  0.97391889  0.17680323  0.30226444  1
  O  O6  1  0.11039685  0.17562594  0.80492130  1
  O  O7  1  0.62170186  0.17033647  0.80718122  1
  O  O8  1  0.47084575  0.76659156  0.80062045  1
  O  O9  1  0.98031305  0.79147522  0.80536590  1
  O  O10  1  0.40585441  0.04448159  0.79885138  1
  O  O11  1  0.91819271  0.03986901  0.80813314  1
  O  O12  1  0.40236746  0.99023450  0.69185495  1
  O  O13  1  0.89447849  0.97489145  0.70151347  1
  O  O14  1  0.10128834  0.21945099  0.69778663  1
  O  O15  1  0.58723901  0.18326476  0.69171491  1
  O  O16  1  0.01101261  0.81714576  0.69754663  1
  O  O17  1  0.49891652  0.81032743  0.69291626  1
  O  O18  1  0.38861595  0.80813884  0.19897189  1
  O  O19  1  0.90378929  0.82848905  0.19301926  1
  O  O20  1  0.00205469  0.19069483  0.19392580  1
  O  O21  1  0.50258309  0.19888945  0.19583727  1
  O  O22  1  0.08683333  0.99275397  0.19151381  1
  O  O23  1  0.59930217  0.98020610  0.18958132  1
  O  O24  1  0.43611666  0.37771928  0.64058950  1
  O  O25  1  0.92983281  0.37228330  0.64223774  1
  O  O26  1  0.24499709  0.12198432  0.63604862  1
  O  O27  1  0.74013633  0.11180703  0.63810891  1
  O  O28  1  0.30806599  0.50106891  0.63929469  1
  O  O29  1  0.81005514  0.50933748  0.63588648  1
  O  O30  1  0.42909655  0.48883396  0.14167851  1
  O  O31  1  0.92520748  0.48034802  0.13981076  1
  O  O32  1  0.31083385  0.11275027  0.13501978  1
  O  O33  1  0.81038819  0.11062340  0.13649322  1
  O  O34  1  0.23841457  0.37025050  0.13643534  1
  O  O35  1  0.74071664  0.36486362  0.13265022  1
  O  O36  1  0.20841838  0.28297275  0.03268549  1
  O  O37  1  0.72025600  0.29922219  0.02605822  1
  O  O38  1  0.42172217  0.53418082  0.02319132  1
  O  O39  1  0.92389112  0.56365516  0.02465554  1
  O  O40  1  0.34248071  0.12772333  0.02767318  1
  O  O41  1  0.85237345  0.13518014  0.03062387  1
  O  O42  1  0.22135677  0.14984331  0.52915932  1
  O  O43  1  0.70994266  0.14341862  0.53404107  1
  O  O44  1  0.35278993  0.56237407  0.53344704  1
  O  O45  1  0.84462779  0.55483706  0.52864383  1
  O  O46  1  0.42217608  0.28326616  0.52618451  1
  O  O47  1  0.91989181  0.30426047  0.52528302  1
  O  O48  1  0.26710668  0.68836879  0.97122297  1
  O  O49  1  0.77354787  0.69809820  0.97108676  1
  O  O50  1  0.07025007  0.43772602  0.96730487  1
  O  O51  1  0.58218821  0.46761705  0.97276046  1
  O  O52  1  0.14961955  0.82908869  0.97508780  1
  O  O53  1  0.66052773  0.84509073  0.97591978  1
  O  O54  1  0.26964837  0.83955679  0.47532095  1
  O  O55  1  0.76618563  0.84260981  0.47611462  1
  O  O56  1  0.15798046  0.46898256  0.47641992  1
  O  O57  1  0.65065878  0.46575188  0.47430556  1
  O  O58  1  0.08167090  0.69799578  0.47323008  1
  O  O59  1  0.57190381  0.70186906  0.47086810  1
  O  O60  1  0.06538322  0.65296485  0.36529070  1
  O  O61  1  0.56107720  0.64976955  0.36331364  1
  O  O62  1  0.25418182  0.86472049  0.36692651  1
  O  O63  1  0.76500144  0.86898284  0.36635288  1
  O  O64  1  0.17492718  0.48276796  0.36691506  1
  O  O65  1  0.68568325  0.48835378  0.35460092  1
  O  O66  1  0.05793784  0.46494413  0.85920046  1
  O  O67  1  0.56305323  0.47715088  0.86468967  1
  O  O68  1  0.18734715  0.89265528  0.85484724  1
  O  O69  1  0.67626713  0.86908394  0.86625762  1
  O  O70  1  0.26593080  0.65625775  0.86201308  1
  O  O71  1  0.76043446  0.64994022  0.86348275  1
  O  O72  1  0.01925949  0.83742661  0.41834196  1
  O  O73  1  0.51454150  0.84475310  0.40919887  1
  O  O74  1  0.39734506  0.95645198  0.41144170  1
  O  O75  1  0.90152848  0.95694039  0.41889506  1
  O  O76  1  0.08403245  0.20551091  0.42119567  1
  O  O77  1  0.56852786  0.18384566  0.40953138  1
  O  O78  1  0.01233578  0.18080645  0.90774708  1
  O  O79  1  0.51935081  0.20132924  0.91893755  1
  O  O80  1  0.07111400  0.96040522  0.90756408  1
  O  O81  1  0.58432718  0.95859451  0.92061858  1
  O  O82  1  0.40197233  0.84646065  0.91450683  1
  O  O83  1  0.90157335  0.84232578  0.90935684  1
  O  O84  1  0.49438059  0.15967588  0.59417643  1
  O  O85  1  0.99781045  0.17970291  0.58791197  1
  O  O86  1  0.09730622  0.99201702  0.59149518  1
  O  O87  1  0.58744777  0.98260487  0.59857987  1
  O  O88  1  0.41173867  0.80446500  0.59989310  1
  O  O89  1  0.90770208  0.80221523  0.59029911  1
  O  O90  1  0.49080759  0.81413974  0.08381100  1
  O  O91  1  0.99237872  0.82468049  0.09589217  1
  O  O92  1  0.40681438  0.01042478  0.09129301  1
  O  O93  1  0.91175852  0.01313122  0.09831864  1
  O  O94  1  0.08581631  0.19366792  0.09716886  1
  O  O95  1  0.59338815  0.20801009  0.08638398  1
  O  O96  1  0.34445577  0.17265610  0.73664075  1
  O  O97  1  0.86072954  0.18568159  0.74821033  1
  O  O98  1  0.24190507  0.30165681  0.74396559  1
  O  O99  1  0.75229442  0.30130706  0.73311159  1
  O  O100  1  0.40774276  0.51711522  0.73989460  1
  O  O101  1  0.91211066  0.53399937  0.74641206  1
  O  O102  1  0.35987560  0.53062634  0.24691293  1
  O  O103  1  0.85639956  0.53386836  0.23777366  1
  O  O104  1  0.40964521  0.29100691  0.24654551  1
  O  O105  1  0.91465262  0.30525233  0.24043870  1
  O  O106  1  0.25107843  0.20189799  0.23326143  1
  O  O107  1  0.75193555  0.20451717  0.23850448  1
  O  O108  1  0.32722587  0.52378318  0.91977231  1
  O  O109  1  0.82577550  0.51776877  0.91928691  1
  O  O110  1  0.43615263  0.35551849  0.92458570  1
  O  O111  1  0.92724141  0.33148605  0.91746898  1
  O  O112  1  0.24763848  0.15717925  0.92192467  1
  O  O113  1  0.74643636  0.13030199  0.92390345  1
  O  O114  1  0.32013764  0.12608303  0.42158024  1
  O  O115  1  0.82591107  0.12705758  0.42227830  1
  O  O116  1  0.24605219  0.36253522  0.42479193  1
  O  O117  1  0.74764375  0.33901796  0.42044579  1
  O  O118  1  0.42919909  0.52591448  0.41985100  1
  O  O119  1  0.93722300  0.51643343  0.42435037  1
  O  O120  1  0.17849485  0.50668592  0.07398513  1
  O  O121  1  0.69440492  0.52347165  0.07206146  1
  O  O122  1  0.07313698  0.63279950  0.07963535  1
  O  O123  1  0.57663327  0.63166966  0.07636544  1
  O  O124  1  0.24829962  0.84643414  0.07949887  1
  O  O125  1  0.75387358  0.85040769  0.07798819  1
  O  O126  1  0.19274639  0.86895406  0.57502573  1
  O  O127  1  0.67948958  0.85697502  0.57633957  1
  O  O128  1  0.25402311  0.65174441  0.57887223  1
  O  O129  1  0.74877346  0.64805197  0.57657099  1
  O  O130  1  0.07978946  0.52821012  0.57392587  1
  O  O131  1  0.57833385  0.51801110  0.57473231  1
  O  O132  1  0.16367691  0.84912554  0.24829691  1
  O  O133  1  0.67375397  0.85739375  0.25998908  1
  O  O134  1  0.26677131  0.65494062  0.26339070  1
  O  O135  1  0.77049363  0.68139057  0.24604689  1
  O  O136  1  0.07503881  0.45406967  0.25032668  1
  O  O137  1  0.56944059  0.45434088  0.25504401  1
  O  O138  1  0.16584480  0.47008320  0.75917916  1
  O  O139  1  0.66469914  0.47987219  0.74862938  1
  O  O140  1  0.07141352  0.68212921  0.75649040  1
  O  O141  1  0.56930129  0.68484506  0.74997693  1
  O  O142  1  0.26827550  0.85060773  0.74600408  1
  O  O143  1  0.76999830  0.87164148  0.76361525  1
loop_
_geom_bond_atom_site_label_1
_geom_bond_atom_site_label_2
_geom_bond_distance
_geom_bond_site_symmetry_2
Na0 O75 2.403794 1_545
Na0 O85 2.404598 1_555
Na0 O76 2.433034 1_655
Na0 O89 2.583706 1_545
Na0 O72 2.634967 1_645
Na0 O86 2.768195 1_645
Na1 O90 2.288157 1_555
Na1 O81 2.497045 1_554
Na1 O82 2.509389 1_554
Na1 O79 2.577830 1_564
Na1 O92 2.600928 1_565
Na1 O95 2.666815 1_565
Na2 O112 2.324362 1_555
Na2 O98 2.549312 1_555
Na2 O108 2.615139 1_555
Na2 O110 2.677107 1_555
Na2 O96 2.704433 1_555
Na2 O100 2.718124 1_555
Na3 O97 2.470713 1_555
Na3 O101 2.481159 1_555
Na3 O99 2.493768 1_555
Na3 O109 2.633847 1_555
Na3 O113 2.640246 1_555
Na3 O111 2.669251 1_555
Na4 O102 2.444470 1_555
Na4 O104 2.455296 1_555
Na4 O106 2.509999 1_555
Na4 O114 2.647353 1_555
Na4 O116 2.694349 1_555
Na4 O118 2.740848 1_555
Na5 O117 2.349773 1_555
Na5 O107 2.454403 1_555
Na5 O103 2.657271 1_555
Na5 O115 2.692949 1_555
Na5 O105 2.747305 1_555
Na5 O119 2.810973 1_555
In0 O0 2.021839 1_555
In0 O5 2.144691 1_455
In0 O3 2.178599 1_445
In0 O72 2.201541 1_545
In0 O75 2.284331 1_445
In0 O76 2.303006 1_555
In1 O7 2.018801 1_555
In1 O82 2.182676 1_545
In1 O8 2.212025 1_545
In1 O79 2.223639 1_555
In1 O10 2.249435 1_555
In1 O81 2.288467 1_545
In2 O85 2.005157 1_455
In2 O13 2.095460 1_445
In2 O16 2.105811 1_545
In2 O14 2.127463 1_555
In2 O86 2.176280 1_545
In2 O89 2.188716 1_445
In3 O23 1.963993 1_555
In3 O90 2.035493 1_555
In3 O18 2.129359 1_555
In3 O21 2.159314 1_565
In3 O92 2.204478 1_565
In3 O95 2.237041 1_565
In4 O38 1.974859 1_556
In4 O112 2.017175 1_555
In4 O36 2.147490 1_556
In4 O40 2.160323 1_556
In4 O108 2.205225 1_555
In4 O110 2.270524 1_555
In5 O39 1.980022 1_556
In5 O37 2.145619 1_556
In5 O41 2.155072 1_556
In5 O111 2.171438 1_555
In5 O109 2.240817 1_555
In5 O113 2.249347 1_555
In6 O46 1.975506 1_555
In6 O118 2.125860 1_555
In6 O42 2.139549 1_555
In6 O44 2.193183 1_555
In6 O114 2.210825 1_555
In6 O116 2.211378 1_555
In7 O47 1.991033 1_555
In7 O117 2.013093 1_555
In7 O43 2.155119 1_555
In7 O45 2.173253 1_555
In7 O115 2.186906 1_555
In7 O119 2.229329 1_555
In8 O132 1.988152 1_555
In8 O134 2.087047 1_555
In8 O60 2.130976 1_555
In8 O62 2.163553 1_555
In8 O136 2.171112 1_555
In8 O64 2.243870 1_555
In9 O133 1.966951 1_555
In9 O65 1.982584 1_555
In9 O137 2.173755 1_555
In9 O63 2.192714 1_555
In9 O135 2.194041 1_555
In9 O61 2.202748 1_555
In10 O68 1.985489 1_555
In10 O70 2.122257 1_555
In10 O140 2.146363 1_555
In10 O66 2.151690 1_555
In10 O138 2.174277 1_555
In10 O142 2.197573 1_555
In11 O139 2.001585 1_555
In11 O143 2.094942 1_555
In11 O67 2.099424 1_555
In11 O71 2.158237 1_555
In11 O141 2.203609 1_555
In11 O69 2.268618 1_555
Ge0 O1 1.751938 1_555
Ge0 O77 1.754677 1_555
Ge0 O73 1.991704 1_545
Ge0 O4 2.034471 1_555
Ge0 O2 2.269163 1_545
Ge0 O74 2.339283 1_545
Ge1 O80 1.751042 1_555
Ge1 O78 1.918025 1_565
Ge1 O83 1.928169 1_455
Ge1 O9 2.025056 1_455
Ge1 O11 2.071735 1_465
Ge1 O6 2.123287 1_565
Ge2 O15 1.732216 1_555
Ge2 O84 1.743641 1_555
Ge2 O87 1.909764 1_545
Ge2 O12 2.011556 1_545
Ge2 O17 2.085216 1_545
Ge2 O88 2.118797 1_545
Ge3 O22 1.733533 1_555
Ge3 O91 1.753722 1_455
Ge3 O19 1.935787 1_455
Ge3 O94 1.936442 1_565
Ge3 O93 2.078631 1_465
Ge3 O20 2.114525 1_565
Ge4 O24 1.749469 1_555
Ge4 O28 1.962106 1_555
Ge4 O100 1.963150 1_555
Ge4 O96 1.979591 1_555
Ge4 O26 2.075011 1_555
Ge4 O98 2.145326 1_555
Ge5 O25 1.763808 1_555
Ge5 O99 1.765742 1_555
Ge5 O29 1.973586 1_555
Ge5 O27 2.020201 1_555
Ge5 O101 2.249931 1_555
Ge5 O97 2.264138 1_555
Ge6 O30 1.745189 1_555
Ge6 O106 1.747871 1_555
Ge6 O104 2.061957 1_555
Ge6 O102 2.072097 1_555
Ge6 O32 2.135054 1_555
Ge6 O34 2.183822 1_555
Ge7 O31 1.754409 1_555
Ge7 O107 1.774076 1_555
Ge7 O105 1.969670 1_555
Ge7 O103 2.021932 1_555
Ge7 O33 2.076906 1_555
Ge7 O35 2.174615 1_555
Ge8 O122 1.747388 1_555
Ge8 O52 1.765175 1_554
Ge8 O124 1.894892 1_555
Ge8 O120 2.061410 1_555
Ge8 O48 2.282493 1_554
Ge8 O50 2.409337 1_554
Ge9 O123 1.746277 1_555
Ge9 O121 1.889145 1_555
Ge9 O53 1.946146 1_554
Ge9 O125 1.966461 1_555
Ge9 O51 2.053905 1_554
Ge9 O49 2.213905 1_554
Ge10 O130 1.775028 1_555
Ge10 O56 1.959337 1_555
Ge10 O58 1.972634 1_555
Ge10 O54 1.982753 1_555
Ge10 O126 2.005580 1_555
Ge10 O128 2.063247 1_555
Ge11 O57 1.748814 1_555
Ge11 O131 1.768106 1_555
Ge11 O129 2.028862 1_555
Ge11 O55 2.058727 1_555
Ge11 O59 2.152846 1_555
Ge11 O127 2.217832 1_555
O0 Si0 1.630862 1_555
O1 Si1 1.686180 1_555
O2 S0 1.489377 1_555
O3 S1 1.487859 1_555
O4 S3 1.523585 1_555
O5 S2 1.492986 1_555
O6 S4 1.499290 1_555
O7 Si2 1.633178 1_555
O8 S6 1.481327 1_555
O9 S5 1.519155 1_555
O10 S7 1.481834 1_555
O11 S8 1.517614 1_555
O12 S7 1.479098 1_565
O13 S8 1.468105 1_565
O14 S4 1.464298 1_555
O15 Si2 1.624791 1_555
O16 S5 1.472066 1_455
O17 S6 1.470109 1_555
O18 S0 1.466669 1_555
O19 S1 1.489594 1_555
O20 S2 1.465906 1_455
O21 S3 1.459521 1_555
O22 Si0 1.619693 1_565
O23 Si1 1.574687 1_565
O24 Si3 1.681529 1_555
O25 Si4 1.710260 1_555
O26 S9 1.505863 1_555
O27 S10 1.514565 1_555
O28 S11 1.549571 1_555
O29 S12 1.515554 1_555
O30 Si5 1.695155 1_555
O31 Si6 1.665207 1_555
O32 S13 1.484215 1_555
O33 S14 1.496194 1_555
O34 S15 1.484034 1_555
O35 S16 1.473310 1_555
O36 S15 1.470798 1_555
O37 S16 1.481426 1_555
O38 Si5 1.589350 1_555
O39 Si6 1.596563 1_555
O40 S13 1.465543 1_555
O41 S14 1.478174 1_555
O42 S9 1.474770 1_555
O43 S10 1.467081 1_555
O44 S11 1.466636 1_555
O45 S12 1.461134 1_555
O46 Si3 1.589369 1_555
O47 Si4 1.587587 1_555
O48 S17 1.477825 1_555
O49 S18 1.483211 1_555
O50 S19 1.461805 1_555
O51 S20 1.501933 1_555
O52 Si7 1.681407 1_555
O53 S21 1.517913 1_555
O54 S22 1.551822 1_555
O55 S23 1.523589 1_555
O56 S24 1.519485 1_555
O57 Si8 1.670565 1_555
O58 S25 1.513162 1_555
O59 S26 1.497606 1_555
O60 S25 1.464070 1_555
O61 S26 1.455057 1_555
O62 S22 1.466507 1_555
O63 S23 1.448323 1_555
O64 S24 1.459437 1_555
O65 Si8 1.594188 1_555
O66 S19 1.473903 1_555
O67 S20 1.476701 1_555
O68 Si7 1.602141 1_555
O69 S21 1.464748 1_555
O70 S17 1.475210 1_555
O71 S18 1.465355 1_555
O72 S25 1.489355 1_555
O73 S26 1.503070 1_555
O74 S22 1.458545 1_555
O75 S23 1.503728 1_555
O76 S24 1.485850 1_555
O77 Si8 1.670368 1_555
O78 S19 1.517319 1_555
O79 S20 1.494958 1_555
O80 Si7 1.666178 1_555
O81 S21 1.487063 1_555
O82 S17 1.514763 1_555
O83 S18 1.510775 1_555
O84 Si3 1.640632 1_555
O85 Si4 1.620440 1_555
O86 S9 1.473758 1_565
O87 S10 1.505581 1_565
O88 S11 1.464572 1_555
O89 S12 1.476427 1_555
O90 Si5 1.607223 1_555
O91 Si6 1.631368 1_555
O92 S13 1.467555 1_555
O93 S14 1.469393 1_555
O94 S15 1.505316 1_555
O95 S16 1.470352 1_555
O96 S7 1.528061 1_555
O97 S8 1.482060 1_555
O98 S4 1.523259 1_555
O99 Si2 1.685019 1_555
O100 S6 1.534479 1_555
O101 S5 1.484051 1_555
O102 S0 1.512130 1_555
O103 S1 1.493758 1_555
O104 S3 1.511098 1_555
O105 S2 1.505197 1_555
O106 Si0 1.674613 1_555
O107 Si1 1.692018 1_555
O108 S17 1.474588 1_555
O109 S18 1.484849 1_555
O110 S20 1.462642 1_555
O111 S19 1.495313 1_655
O112 Si7 1.614342 1_545
O113 S21 1.485667 1_545
O114 S22 1.493855 1_545
O115 S23 1.472717 1_545
O116 S24 1.486843 1_555
O117 Si8 1.622815 1_555
O118 S26 1.495774 1_555
O119 S25 1.461964 1_655
O120 S15 1.492482 1_555
O121 S16 1.516115 1_555
O122 Si6 1.655589 1_455
O123 Si5 1.671444 1_555
O124 S13 1.518645 1_565
O125 S14 1.509305 1_565
O126 S9 1.489380 1_565
O127 S10 1.465522 1_565
O128 S11 1.491490 1_555
O129 S12 1.484312 1_555
O130 Si4 1.671371 1_455
O131 Si3 1.647001 1_555
O132 Si0 1.598965 1_565
O133 Si1 1.578765 1_565
O134 S0 1.465577 1_555
O135 S1 1.452323 1_555
O136 S2 1.468970 1_455
O137 S3 1.452203 1_555
O138 S4 1.465064 1_555
O139 Si2 1.598684 1_555
O140 S5 1.463315 1_455
O141 S6 1.465813 1_555
O142 S7 1.462653 1_565
O143 S8 1.460916 1_565
