# generated using pymatgen
data_LiNi5(P2O7)4
_symmetry_space_group_name_H-M   'P 1'
_cell_length_a   9.28140200
_cell_length_b   10.60675877
_cell_length_c   12.81330459
_cell_angle_alpha   85.71156621
_cell_angle_beta   106.42485954
_cell_angle_gamma   115.00158572
_symmetry_Int_Tables_number   1
_chemical_formula_structural   LiNi5(P2O7)4
_chemical_formula_sum   'Li2 Ni10 P16 O56'
_cell_volume   1095.10855333
_cell_formula_units_Z   2
loop_
 _symmetry_equiv_pos_site_id
 _symmetry_equiv_pos_as_xyz
  1  'x, y, z'
loop_
 _atom_site_type_symbol
 _atom_site_label
 _atom_site_symmetry_multiplicity
 _atom_site_fract_x
 _atom_site_fract_y
 _atom_site_fract_z
 _atom_site_occupancy
  Li  Li0  1  0.50000000  0.50000000  0.00000000  1
  Li  Li1  1  0.50000000  0.50000000  0.50000000  1
  Ni  Ni0  1  0.10745400  0.72084200  0.11307200  1
  Ni  Ni1  1  0.89431000  0.28238900  0.39470100  1
  Ni  Ni2  1  0.89254600  0.27915800  0.88692800  1
  Ni  Ni3  1  0.10569000  0.71761100  0.60529900  1
  Ni  Ni4  1  0.49946000  0.75866700  0.56476400  1
  Ni  Ni5  1  0.50054000  0.24133300  0.43523600  1
  Ni  Ni6  1  0.49386800  0.75589100  0.06605500  1
  Ni  Ni7  1  0.50613200  0.24410900  0.93394500  1
  Ni  Ni8  1  0.79969800  0.01088300  0.23842100  1
  Ni  Ni9  1  0.20030200  0.98911700  0.76157900  1
  P  P0  1  0.69485700  0.03951900  0.45686500  1
  P  P1  1  0.17327200  0.29380000  0.29258900  1
  P  P2  1  0.54351200  0.19291400  0.69076400  1
  P  P3  1  0.55917800  0.19203000  0.18748900  1
  P  P4  1  0.71029800  0.04865400  0.96538700  1
  P  P5  1  0.82672800  0.70620000  0.70741100  1
  P  P6  1  0.45648800  0.80708600  0.30923600  1
  P  P7  1  0.44082200  0.80797000  0.81251100  1
  P  P8  1  0.28970200  0.95134600  0.03461300  1
  P  P9  1  0.80934900  0.54396500  0.90330900  1
  P  P10  1  0.20534300  0.45756200  0.60102900  1
  P  P11  1  0.19065100  0.45603500  0.09669100  1
  P  P12  1  0.80476000  0.71039800  0.20606600  1
  P  P13  1  0.30514300  0.96048100  0.54313500  1
  P  P14  1  0.79465700  0.54243800  0.39897100  1
  P  P15  1  0.19524000  0.28960200  0.79393400  1
  O  O0  1  0.48927900  0.21836700  0.27270600  1
  O  O1  1  0.72884500  0.18576200  0.23533700  1
  O  O2  1  0.70240500  0.18610300  0.47114100  1
  O  O3  1  0.13344600  0.91394600  0.07111200  1
  O  O4  1  0.07192300  0.32810800  0.53239500  1
  O  O5  1  0.29759500  0.81389700  0.52885900  1
  O  O6  1  0.69230700  0.96505900  0.06722400  1
  O  O7  1  0.68696000  0.95412600  0.55635100  1
  O  O8  1  0.16070100  0.93495300  0.59326200  1
  O  O9  1  0.51887500  0.28611800  0.59790100  1
  O  O10  1  0.71558400  0.59739200  0.28585000  1
  O  O11  1  0.12869000  0.14432400  0.74080900  1
  O  O12  1  0.51072100  0.78163300  0.72729400  1
  O  O13  1  0.29765700  0.80778100  0.03040400  1
  O  O14  1  0.55178800  0.29145300  0.09565000  1
  O  O15  1  0.93994200  0.64276400  0.68797400  1
  O  O16  1  0.56184100  0.82396500  0.22912400  1
  O  O17  1  0.04080300  0.15188700  0.23847200  1
  O  O18  1  0.86655400  0.08605400  0.92888800  1
  O  O19  1  0.27683900  0.77206800  0.25053600  1
  O  O20  1  0.72316100  0.22793200  0.74946400  1
  O  O21  1  0.06005800  0.35723600  0.31202600  1
  O  O22  1  0.92807700  0.67189200  0.46760500  1
  O  O23  1  0.27115500  0.81423800  0.76466300  1
  O  O24  1  0.92932600  0.67200200  0.97762000  1
  O  O25  1  0.66974900  0.68242800  0.09825800  1
  O  O26  1  0.30809600  0.29969800  0.39239700  1
  O  O27  1  0.09813200  0.53487800  0.12151000  1
  O  O28  1  0.33025100  0.31757200  0.90174200  1
  O  O29  1  0.28441600  0.40260800  0.71415000  1
  O  O30  1  0.43815900  0.17603500  0.77087600  1
  O  O31  1  0.52564600  0.96228100  0.36184500  1
  O  O32  1  0.44704400  0.03699900  0.13226000  1
  O  O33  1  0.31304000  0.04587400  0.44364900  1
  O  O34  1  0.48112500  0.71388200  0.40209900  1
  O  O35  1  0.44821200  0.70854700  0.90435000  1
  O  O36  1  0.35022500  0.54427100  0.55603400  1
  O  O37  1  0.65514700  0.45332000  0.93807800  1
  O  O38  1  0.87763700  0.45799200  0.36963600  1
  O  O39  1  0.95919700  0.84811300  0.76152800  1
  O  O40  1  0.69190400  0.70030200  0.60760300  1
  O  O41  1  0.70234300  0.19221900  0.96959600  1
  O  O42  1  0.47435400  0.03771900  0.63815500  1
  O  O43  1  0.90186800  0.46512200  0.87849000  1
  O  O44  1  0.26316100  0.39088000  0.20778900  1
  O  O45  1  0.07067400  0.32799800  0.02238000  1
  O  O46  1  0.94667100  0.67907200  0.19733600  1
  O  O47  1  0.12236300  0.54200800  0.63036400  1
  O  O48  1  0.83929900  0.06504700  0.40673800  1
  O  O49  1  0.30769300  0.03494100  0.93277600  1
  O  O50  1  0.34485300  0.54668000  0.06192200  1
  O  O51  1  0.73683900  0.60912000  0.79221100  1
  O  O52  1  0.87131000  0.85567600  0.25919100  1
  O  O53  1  0.55295600  0.96300100  0.86774000  1
  O  O54  1  0.64977500  0.45572900  0.44396600  1
  O  O55  1  0.05332900  0.32092800  0.80266400  1
loop_
_geom_bond_atom_site_label_1
_geom_bond_atom_site_label_2
_geom_bond_distance
_geom_bond_site_symmetry_2
Li0 O37 2.062946 1_554
Li0 O50 2.062946 1_555
Li0 O25 2.115922 1_555
Li0 O28 2.115922 1_554
Li1 O36 1.958330 1_555
Li1 O54 1.958330 1_555
Li1 O40 2.331906 1_555
Li1 O26 2.331906 1_555
Li1 O9 2.556732 1_555
Li1 O34 2.556732 1_555
Ni0 O19 1.929856 1_555
Ni0 O27 1.933642 1_555
Ni0 O24 1.949813 1_454
Ni0 O46 1.967167 1_455
Ni0 O3 2.008334 1_555
Ni0 O13 2.150390 1_555
Ni1 O38 1.929343 1_555
Ni1 O4 1.967982 1_655
Ni1 O21 1.970414 1_655
Ni1 O2 2.115223 1_555
Ni1 O48 2.143662 1_555
Ni1 O1 2.188082 1_555
Ni2 O20 1.929856 1_555
Ni2 O43 1.933642 1_555
Ni2 O45 1.949813 1_656
Ni2 O55 1.967167 1_655
Ni2 O18 2.008334 1_555
Ni2 O41 2.150390 1_555
Ni3 O47 1.929343 1_555
Ni3 O22 1.967982 1_455
Ni3 O15 1.970414 1_455
Ni3 O5 2.115223 1_555
Ni3 O8 2.143662 1_555
Ni3 O23 2.188082 1_555
Ni4 O40 2.050432 1_555
Ni4 O12 2.082911 1_555
Ni4 O7 2.088349 1_555
Ni4 O36 2.095296 1_555
Ni4 O5 2.113095 1_555
Ni4 O34 2.116122 1_555
Ni5 O26 2.050432 1_555
Ni5 O0 2.082911 1_555
Ni5 O33 2.088349 1_555
Ni5 O54 2.095296 1_555
Ni5 O2 2.113095 1_555
Ni5 O9 2.116122 1_555
Ni6 O25 2.021983 1_555
Ni6 O13 2.041382 1_555
Ni6 O35 2.050373 1_554
Ni6 O50 2.054691 1_555
Ni6 O16 2.092915 1_555
Ni6 O6 2.202260 1_555
Ni7 O28 2.021983 1_555
Ni7 O41 2.041382 1_555
Ni7 O14 2.050373 1_556
Ni7 O37 2.054691 1_555
Ni7 O30 2.092915 1_555
Ni7 O49 2.202260 1_555
Ni8 O52 1.995511 1_545
Ni8 O17 2.101144 1_655
Ni8 O6 2.134264 1_545
Ni8 O48 2.162180 1_555
Ni8 O1 2.209095 1_555
Ni8 O16 2.237290 1_545
Ni9 O11 1.995511 1_565
Ni9 O39 2.101144 1_455
Ni9 O49 2.134264 1_565
Ni9 O8 2.162180 1_555
Ni9 O23 2.209095 1_555
Ni9 O30 2.237290 1_565
O0 P3 1.513477 1_555
O1 P3 1.548078 1_555
O2 P0 1.548848 1_555
O3 P8 1.532610 1_555
O4 P10 1.523050 1_555
O5 P13 1.548848 1_555
O6 P4 1.530290 1_564
O7 P0 1.508232 1_565
O8 P13 1.561163 1_555
O9 P2 1.518787 1_555
O10 P14 1.616466 1_555
O10 P12 1.619723 1_555
O11 P15 1.527712 1_555
O12 P7 1.513477 1_555
O13 P8 1.561002 1_555
O14 P3 1.526913 1_555
O15 P5 1.545832 1_555
O16 P6 1.560147 1_555
O17 P1 1.538778 1_555
O18 P4 1.532610 1_555
O19 P6 1.514245 1_555
O20 P2 1.514245 1_555
O21 P1 1.545832 1_555
O22 P14 1.523050 1_555
O23 P7 1.548078 1_555
O24 P9 1.518692 1_555
O25 P12 1.527940 1_555
O26 P1 1.498700 1_555
O27 P11 1.529401 1_555
O28 P15 1.527940 1_555
O29 P10 1.616466 1_555
O29 P15 1.619723 1_555
O30 P2 1.560147 1_555
O31 P0 1.612542 1_565
O31 P6 1.613764 1_555
O32 P8 1.593330 1_545
O32 P3 1.612094 1_555
O33 P13 1.508232 1_545
O34 P6 1.518787 1_555
O35 P7 1.526913 1_555
O36 P10 1.516647 1_555
O37 P9 1.518091 1_555
O38 P14 1.527710 1_555
O39 P5 1.538778 1_555
O40 P5 1.498700 1_555
O41 P4 1.561002 1_555
O42 P13 1.612542 1_545
O42 P2 1.613764 1_555
O43 P9 1.529401 1_555
O44 P1 1.598789 1_555
O44 P11 1.631316 1_555
O45 P11 1.518692 1_555
O46 P12 1.522026 1_555
O47 P10 1.527710 1_555
O48 P0 1.561163 1_555
O49 P8 1.530290 1_546
O50 P11 1.518091 1_555
O51 P5 1.598789 1_555
O51 P9 1.631316 1_555
O52 P12 1.527712 1_555
O53 P4 1.593330 1_565
O53 P7 1.612094 1_555
O54 P14 1.516647 1_555
O55 P15 1.522026 1_555
