# generated using pymatgen
data_Pr3InSe6
_symmetry_space_group_name_H-M   'P 1'
_cell_length_a   4.15692219
_cell_length_b   14.50521047
_cell_length_c   17.67494590
_cell_angle_alpha   90.00000000
_cell_angle_beta   90.00000000
_cell_angle_gamma   90.00000000
_symmetry_Int_Tables_number   1
_chemical_formula_structural   Pr3InSe6
_chemical_formula_sum   'Pr12 In4 Se24'
_cell_volume   1065.74676569
_cell_formula_units_Z   4
loop_
 _symmetry_equiv_pos_site_id
 _symmetry_equiv_pos_as_xyz
  1  'x, y, z'
loop_
 _atom_site_type_symbol
 _atom_site_label
 _atom_site_symmetry_multiplicity
 _atom_site_fract_x
 _atom_site_fract_y
 _atom_site_fract_z
 _atom_site_occupancy
  Pr  Pr0  1  0.50000000  0.68738716  0.35471652  1
  Pr  Pr1  1  0.50000000  0.31261284  0.64528348  1
  Pr  Pr2  1  -0.00000000  0.18738716  0.14528348  1
  Pr  Pr3  1  -0.00000000  0.81261284  0.85471652  1
  Pr  Pr4  1  0.00000000  0.74778280  0.10536442  1
  Pr  Pr5  1  0.00000000  0.25221720  0.89463558  1
  Pr  Pr6  1  0.50000000  0.24778280  0.39463558  1
  Pr  Pr7  1  0.50000000  0.75221720  0.60536442  1
  Pr  Pr8  1  0.00000000  0.95902387  0.27714646  1
  Pr  Pr9  1  0.00000000  0.04097613  0.72285354  1
  Pr  Pr10  1  0.50000000  0.45902387  0.22285354  1
  Pr  Pr11  1  0.50000000  0.54097613  0.77714646  1
  In  In0  1  0.00000000  0.50000000  -0.00000000  1
  In  In1  1  0.50000000  0.00000000  0.50000000  1
  In  In2  1  0.00000000  0.50000000  0.50000000  1
  In  In3  1  0.50000000  0.00000000  -0.00000000  1
  Se  Se0  1  -0.00000000  0.97769332  0.10233745  1
  Se  Se1  1  -0.00000000  0.02230668  0.89766255  1
  Se  Se2  1  0.50000000  0.47769332  0.39766255  1
  Se  Se3  1  0.50000000  0.52230668  0.60233745  1
  Se  Se4  1  -0.00000000  0.68851269  0.48093440  1
  Se  Se5  1  0.00000000  0.31148731  0.51906560  1
  Se  Se6  1  0.50000000  0.18851269  0.01906560  1
  Se  Se7  1  0.50000000  0.81148731  0.98093440  1
  Se  Se8  1  0.50000000  0.88796004  0.38664219  1
  Se  Se9  1  0.50000000  0.11203996  0.61335781  1
  Se  Se10  1  -0.00000000  0.38796004  0.11335781  1
  Se  Se11  1  -0.00000000  0.61203996  0.88664219  1
  Se  Se12  1  0.00000000  0.61129095  0.25190575  1
  Se  Se13  1  -0.00000000  0.38870905  0.74809425  1
  Se  Se14  1  0.50000000  0.11129095  0.24809425  1
  Se  Se15  1  0.50000000  0.88870905  0.75190575  1
  Se  Se16  1  0.00000000  0.90654041  0.58339684  1
  Se  Se17  1  0.00000000  0.09345959  0.41660316  1
  Se  Se18  1  0.50000000  0.40654041  0.91660316  1
  Se  Se19  1  0.50000000  0.59345959  0.08339684  1
  Se  Se20  1  -0.00000000  0.68211326  0.71491703  1
  Se  Se21  1  -0.00000000  0.31788674  0.28508297  1
  Se  Se22  1  0.50000000  0.18211326  0.78508297  1
  Se  Se23  1  0.50000000  0.81788674  0.21491703  1
loop_
_geom_bond_atom_site_label_1
_geom_bond_atom_site_label_2
_geom_bond_distance
_geom_bond_site_symmetry_2
Pr0 Se8 2.963570 1_555
Pr0 Se12 2.973295 1_655
Pr0 Se12 2.973295 1_555
Pr0 Se4 3.049124 1_555
Pr0 Se4 3.049124 1_655
Pr0 Se23 3.112675 1_555
Pr0 Se2 3.134939 1_555
Pr1 Se9 2.963570 1_555
Pr1 Se13 2.973295 1_655
Pr1 Se13 2.973295 1_555
Pr1 Se5 3.049124 1_555
Pr1 Se5 3.049124 1_655
Pr1 Se22 3.112675 1_555
Pr1 Se3 3.134939 1_555
Pr2 Se10 2.963570 1_555
Pr2 Se14 2.973295 1_455
Pr2 Se14 2.973295 1_555
Pr2 Se6 3.049124 1_455
Pr2 Se6 3.049124 1_555
Pr2 Se21 3.112675 1_555
Pr2 Se0 3.134939 1_545
Pr3 Se11 2.963570 1_555
Pr3 Se15 2.973295 1_555
Pr3 Se15 2.973295 1_455
Pr3 Se7 3.049124 1_555
Pr3 Se7 3.049124 1_455
Pr3 Se20 3.112675 1_555
Pr3 Se1 3.134939 1_565
Pr4 Se23 3.017189 1_555
Pr4 Se23 3.017189 1_455
Pr4 Se19 3.079221 1_455
Pr4 Se19 3.079221 1_555
Pr4 Se7 3.163978 1_554
Pr4 Se7 3.163978 1_454
Pr4 Se12 3.260130 1_555
Pr4 Se0 3.335330 1_555
Pr5 Se22 3.017189 1_455
Pr5 Se22 3.017189 1_555
Pr5 Se18 3.079221 1_455
Pr5 Se18 3.079221 1_555
Pr5 Se6 3.163978 1_456
Pr5 Se6 3.163978 1_556
Pr5 Se13 3.260130 1_555
Pr5 Se1 3.335330 1_555
Pr6 Se21 3.017189 1_655
Pr6 Se21 3.017189 1_555
Pr6 Se17 3.079221 1_555
Pr6 Se17 3.079221 1_655
Pr6 Se5 3.163978 1_555
Pr6 Se5 3.163978 1_655
Pr6 Se14 3.260130 1_555
Pr6 Se2 3.335330 1_555
Pr7 Se20 3.017189 1_655
Pr7 Se20 3.017189 1_555
Pr7 Se16 3.079221 1_555
Pr7 Se16 3.079221 1_655
Pr7 Se4 3.163978 1_655
Pr7 Se4 3.163978 1_555
Pr7 Se15 3.260130 1_555
Pr7 Se3 3.335330 1_555
Pr8 Se8 3.021266 1_455
Pr8 Se8 3.021266 1_555
Pr8 Se14 3.076018 1_565
Pr8 Se14 3.076018 1_465
Pr8 Se0 3.101585 1_555
Pr8 Se23 3.117837 1_555
Pr8 Se23 3.117837 1_455
Pr8 Se17 3.142969 1_565
Pr9 Se9 3.021266 1_455
Pr9 Se9 3.021266 1_555
Pr9 Se15 3.076018 1_445
Pr9 Se15 3.076018 1_545
Pr9 Se1 3.101585 1_555
Pr9 Se22 3.117837 1_455
Pr9 Se22 3.117837 1_555
Pr9 Se16 3.142969 1_545
Pr10 Se10 3.021266 1_655
Pr10 Se10 3.021266 1_555
Pr10 Se12 3.076018 1_555
Pr10 Se12 3.076018 1_655
Pr10 Se2 3.101585 1_555
Pr10 Se21 3.117837 1_655
Pr10 Se21 3.117837 1_555
Pr10 Se19 3.142969 1_555
Pr11 Se11 3.021266 1_555
Pr11 Se11 3.021266 1_655
Pr11 Se13 3.076018 1_555
Pr11 Se13 3.076018 1_655
Pr11 Se3 3.101585 1_555
Pr11 Se20 3.117837 1_655
Pr11 Se20 3.117837 1_555
Pr11 Se18 3.142969 1_555
In0 Se10 2.579834 1_555
In0 Se11 2.579834 1_554
In0 Se19 2.886272 1_555
In0 Se19 2.886272 1_455
In0 Se18 2.886272 1_554
In0 Se18 2.886272 1_454
In1 Se8 2.579834 1_545
In1 Se9 2.579834 1_555
In1 Se16 2.886272 1_545
In1 Se17 2.886272 1_555
In1 Se17 2.886272 1_655
In1 Se16 2.886272 1_645
In2 Se5 2.755103 1_555
In2 Se4 2.755103 1_555
In2 Se2 2.774254 1_555
In2 Se2 2.774254 1_455
In2 Se3 2.774254 1_455
In2 Se3 2.774254 1_555
In3 Se6 2.755103 1_555
In3 Se7 2.755103 1_544
In3 Se1 2.774254 1_554
In3 Se1 2.774254 1_654
In3 Se0 2.774254 1_645
In3 Se0 2.774254 1_545
