# generated using pymatgen
data_Na8Zn3Si3Ge(SO8)3
_symmetry_space_group_name_H-M   'P 1'
_cell_length_a   9.06187228
_cell_length_b   9.09829340
_cell_length_c   22.07590522
_cell_angle_alpha   89.79111080
_cell_angle_beta   88.82024640
_cell_angle_gamma   119.86500712
_symmetry_Int_Tables_number   1
_chemical_formula_structural   Na8Zn3Si3Ge(SO8)3
_chemical_formula_sum   'Na24 Zn9 Si9 Ge3 S9 O72'
_cell_volume   1577.85941613
_cell_formula_units_Z   3
loop_
 _symmetry_equiv_pos_site_id
 _symmetry_equiv_pos_as_xyz
  1  'x, y, z'
loop_
 _atom_site_type_symbol
 _atom_site_label
 _atom_site_symmetry_multiplicity
 _atom_site_fract_x
 _atom_site_fract_y
 _atom_site_fract_z
 _atom_site_occupancy
  Na  Na0  1  0.62930764  0.99587677  0.25722937  1
  Na  Na1  1  0.36905648  0.37331059  0.24561286  1
  Na  Na2  1  0.00035022  0.61515147  0.24988849  1
  Na  Na3  1  0.64305416  0.64580130  0.73270423  1
  Na  Na4  1  0.98223008  0.34459577  0.74944324  1
  Na  Na5  1  0.37459813  0.01291928  0.74030350  1
  Na  Na6  1  0.29966618  0.33133963  0.58199830  1
  Na  Na7  1  0.04179892  0.71374735  0.57114545  1
  Na  Na8  1  0.65241546  0.93996609  0.58280588  1
  Na  Na9  1  0.28380346  0.95463774  0.07289751  1
  Na  Na10  1  0.66086733  0.69550389  0.08357101  1
  Na  Na11  1  0.05540386  0.34625031  0.08139495  1
  Na  Na12  1  0.98339957  0.68430602  0.92240739  1
  Na  Na13  1  0.70591532  0.03896251  0.90732680  1
  Na  Na14  1  0.31339288  0.29319474  0.92460276  1
  Na  Na15  1  0.98286102  0.31619267  0.41106578  1
  Na  Na16  1  0.32381063  0.01084351  0.42544676  1
  Na  Na17  1  0.69946593  0.68527614  0.43291359  1
  Na  Na18  1  0.99473502  0.99229753  0.49822812  1
  Na  Na19  1  0.01323974  0.01127445  0.99907743  1
  Na  Na20  1  0.66337911  0.32146992  0.83016238  1
  Na  Na21  1  0.67655773  0.33425910  0.33528285  1
  Na  Na22  1  0.31835798  0.65226558  0.16130015  1
  Na  Na23  1  0.34763912  0.68070376  0.65992185  1
  Zn  Zn0  1  0.98915320  0.98497086  0.35417767  1
  Zn  Zn1  1  0.00271595  0.01803046  0.85123365  1
  Zn  Zn2  1  0.97022119  0.96793538  0.64265927  1
  Zn  Zn3  1  0.01399139  0.99571688  0.14037342  1
  Zn  Zn4  1  0.65002222  0.31613741  0.67598796  1
  Zn  Zn5  1  0.65911559  0.34591231  0.17023198  1
  Zn  Zn6  1  0.30870188  0.65519787  0.01642127  1
  Zn  Zn7  1  0.34863954  0.69252469  0.51528621  1
  Zn  Zn8  1  0.33231599  0.69626696  0.34263123  1
  Si  Si0  1  0.69650708  0.98935048  0.75258799  1
  Si  Si1  1  0.36587997  0.03809911  0.58527878  1
  Si  Si2  1  0.66056313  0.61485470  0.58375826  1
  Si  Si3  1  0.95490495  0.62208328  0.08442437  1
  Si  Si4  1  0.37484431  0.33586400  0.08283280  1
  Si  Si5  1  0.03919621  0.38102625  0.91928741  1
  Si  Si6  1  0.34239137  0.97462102  0.92144291  1
  Si  Si7  1  0.64213521  0.98030784  0.41956098  1
  Si  Si8  1  0.02370912  0.65535517  0.41865219  1
  Ge  Ge0  1  0.67041660  0.33312693  0.98324851  1
  Ge  Ge1  1  0.66494592  0.33074503  0.48468685  1
  Ge  Ge2  1  0.33672569  0.69594946  0.82236374  1
  S  S0  1  0.29846639  -0.00050227  0.24888364  1
  S  S1  1  0.70123356  0.70403980  0.25023118  1
  S  S2  1  0.00024765  0.28766709  0.24713461  1
  S  S3  1  0.30019669  0.30842429  0.75299836  1
  S  S4  1  0.01316541  0.70582626  0.75496926  1
  S  S5  1  0.95680343  0.32986635  0.58328476  1
  S  S6  1  0.67209281  0.04600762  0.08297239  1
  S  S7  1  0.62004284  0.65960134  0.91641226  1
  S  S8  1  0.33997449  0.37141183  0.41454021  1
  O  O0  1  0.20942623  0.01313112  0.30387816  1
  O  O1  1  0.79658297  0.79272773  0.30466917  1
  O  O2  1  0.00653652  0.19739270  0.30225445  1
  O  O3  1  0.21826841  0.20690908  0.80893333  1
  O  O4  1  0.00023711  0.79029347  0.80990999  1
  O  O5  1  0.80708851  0.00794810  0.81137933  1
  O  O6  1  0.77054729  0.94309387  0.69188566  1
  O  O7  1  0.20501597  0.22321302  0.69869020  1
  O  O8  1  0.03136236  0.80293192  0.69911598  1
  O  O9  1  0.78881611  0.80114998  0.19382634  1
  O  O10  1  -0.00054879  0.19617556  0.19117151  1
  O  O11  1  0.20615681  0.99195600  0.19308465  1
  O  O12  1  0.88092769  0.35124382  0.64014140  1
  O  O13  1  0.47422931  0.11013065  0.64583834  1
  O  O14  1  0.65583483  0.51879312  0.64645888  1
  O  O15  1  0.87849911  0.51307833  0.14685557  1
  O  O16  1  0.65001275  0.12494535  0.13805273  1
  O  O17  1  0.46473601  0.35070498  0.14703661  1
  O  O18  1  0.48114290  0.30477319  0.02426179  1
  O  O19  1  0.83052434  0.51882296  0.02434918  1
  O  O20  1  0.69311778  0.15154586  0.02632753  1
  O  O21  1  0.47118962  0.16826203  0.52530632  1
  O  O22  1  0.68190763  0.51272499  0.52370003  1
  O  O23  1  0.84969675  0.31217772  0.52916799  1
  O  O24  1  0.54605089  0.68313406  0.97248734  1
  O  O25  1  0.15074225  0.44671044  0.97833071  1
  O  O26  1  0.31678444  0.85818545  0.97935438  1
  O  O27  1  0.56447660  0.84596714  0.47513200  1
  O  O28  1  0.31555167  0.44712421  0.46979460  1
  O  O29  1  0.14986624  0.68420109  0.47357324  1
  O  O30  1  0.09651424  0.61088839  0.35616901  1
  O  O31  1  0.52429824  0.90734135  0.35922125  1
  O  O32  1  0.35318428  0.47379068  0.35945317  1
  O  O33  1  0.14627609  0.52252192  0.85995207  1
  O  O34  1  0.37744231  0.88529948  0.86009384  1
  O  O35  1  0.51381075  0.64569816  0.86230618  1
  O  O36  1  0.00213480  0.82336431  0.41313997  1
  O  O37  1  0.83790317  0.02197786  0.41004876  1
  O  O38  1  0.19499293  0.19490239  0.41056162  1
  O  O39  1  0.00431271  0.18976615  0.91007706  1
  O  O40  1  0.17622859  0.99702116  0.91309434  1
  O  O41  1  0.79706434  0.80234540  0.91021549  1
  O  O42  1  0.96771236  0.17229044  0.58417007  1
  O  O43  1  0.18096900  0.03138984  0.58749257  1
  O  O44  1  0.83052617  0.80380902  0.57820232  1
  O  O45  1  0.95890481  0.80479324  0.08223893  1
  O  O46  1  0.83021169  0.03531161  0.08344084  1
  O  O47  1  0.18556911  0.16600778  0.08034280  1
  O  O48  1  0.67558620  0.15817723  0.74811550  1
  O  O49  1  0.47765522  0.33704064  0.75216174  1
  O  O50  1  0.86698519  0.53063226  0.75363841  1
  O  O51  1  0.68555356  0.53154311  0.25157185  1
  O  O52  1  0.84148092  0.30060261  0.25219594  1
  O  O53  1  0.47479908  0.15145178  0.24803348  1
  O  O54  1  0.62280309  0.49525872  0.91577453  1
  O  O55  1  0.84886718  0.37396735  0.92234402  1
  O  O56  1  0.52431646  0.16448111  0.92378533  1
  O  O57  1  0.64601183  0.16577168  0.42899555  1
  O  O58  1  0.50300776  0.36488709  0.41553450  1
  O  O59  1  0.83037223  0.48148867  0.42665124  1
  O  O60  1  0.36605859  0.50969351  0.07732394  1
  O  O61  1  0.14727280  0.65261115  0.08112957  1
  O  O62  1  0.52321254  0.87470053  0.07890073  1
  O  O63  1  0.33982886  0.84805191  0.57897852  1
  O  O64  1  0.48728400  0.62737163  0.58012796  1
  O  O65  1  0.12886188  0.47862789  0.57658200  1
  O  O66  1  0.31212623  0.84187142  0.25076246  1
  O  O67  1  0.52741930  0.68498152  0.25172282  1
  O  O68  1  0.15278051  0.46111008  0.24340937  1
  O  O69  1  0.30620359  0.47750297  0.75528939  1
  O  O70  1  0.17876151  0.69633382  0.75581375  1
  O  O71  1  0.49528984  0.80730966  0.76068499  1
loop_
_geom_bond_atom_site_label_1
_geom_bond_atom_site_label_2
_geom_bond_distance
_geom_bond_site_symmetry_2
Na0 O31 2.399806 1_555
Na0 O53 2.447142 1_565
Na0 O52 2.464924 1_565
Na0 O66 2.500498 1_555
Na0 O67 2.504888 1_555
Na0 O16 2.841428 1_565
Na1 O17 2.373371 1_555
Na1 O68 2.458536 1_555
Na1 O67 2.465086 1_555
Na1 O51 2.494078 1_555
Na1 O53 2.631194 1_555
Na1 O32 2.702791 1_555
Na2 O68 2.411231 1_555
Na2 O52 2.481549 1_455
Na2 O15 2.520482 1_455
Na2 O30 2.526443 1_555
Na2 O66 2.536928 1_555
Na2 O51 2.559674 1_455
Na3 O14 2.261411 1_555
Na3 O49 2.468593 1_555
Na3 O71 2.503191 1_555
Na3 O6 2.508016 1_555
Na3 O69 2.681001 1_555
Na3 O50 2.753554 1_555
Na4 O50 2.392019 1_555
Na4 O48 2.430854 1_555
Na4 O69 2.564961 1_655
Na4 O12 2.610378 1_555
Na4 O70 2.787541 1_655
Na4 O33 2.926346 1_655
Na4 O7 2.947392 1_655
Na4 O5 2.967938 1_555
Na5 O13 2.249457 1_555
Na5 O48 2.376294 1_555
Na5 O70 2.537761 1_545
Na5 O49 2.628676 1_555
Na5 O71 2.636258 1_545
Na5 O34 2.890046 1_545
Na5 O8 2.891738 1_545
Na6 O64 2.362709 1_555
Na6 O43 2.384970 1_555
Na6 O65 2.505584 1_555
Na6 O42 2.608348 1_455
Na6 O28 2.661061 1_555
Na6 O7 2.718427 1_555
Na6 O21 2.900673 1_555
Na7 O63 2.356059 1_555
Na7 O29 2.418783 1_555
Na7 O44 2.431487 1_455
Na7 O43 2.543494 1_565
Na7 O65 2.625989 1_555
Na8 O64 2.469382 1_555
Na8 O44 2.476981 1_555
Na8 O63 2.526151 1_555
Na8 O27 2.535874 1_555
Na8 O42 2.573254 1_565
Na8 O6 2.649851 1_555
Na9 O26 2.317941 1_554
Na9 O61 2.390823 1_555
Na9 O47 2.493792 1_565
Na9 O45 2.558298 1_455
Na9 O62 2.614531 1_555
Na9 O11 2.796010 1_555
Na9 O18 2.953210 1_565
Na10 O60 2.352228 1_555
Na10 O45 2.367649 1_555
Na10 O62 2.500867 1_555
Na10 O24 2.664452 1_554
Na10 O46 2.681060 1_565
Na10 O9 2.686239 1_555
Na11 O25 2.424043 1_554
Na11 O60 2.442078 1_555
Na11 O47 2.450858 1_555
Na11 O61 2.480150 1_555
Na11 O46 2.532872 1_455
Na11 O10 2.688903 1_555
Na12 O41 2.428917 1_555
Na12 O55 2.455730 1_555
Na12 O40 2.494047 1_655
Na12 O4 2.634625 1_655
Na12 O19 2.649573 1_556
Na12 O54 2.842825 1_555
Na12 O33 2.888045 1_655
Na12 O26 2.936189 1_655
Na13 O39 2.347440 1_655
Na13 O5 2.364040 1_555
Na13 O56 2.448329 1_555
Na13 O41 2.663268 1_545
Na13 O55 2.677859 1_555
Na13 O34 2.809953 1_545
Na13 O20 2.844194 1_556
Na14 O40 2.356494 1_545
Na14 O54 2.473982 1_555
Na14 O39 2.499474 1_555
Na14 O18 2.672469 1_556
Na14 O56 2.693137 1_555
Na14 O3 2.703897 1_555
Na14 O25 2.742347 1_555
Na15 O37 2.321915 1_555
Na15 O59 2.518622 1_555
Na15 O30 2.625482 1_655
Na15 O38 2.650487 1_655
Na15 O57 2.670792 1_555
Na15 O2 2.685723 1_655
Na15 O23 2.842695 1_555
Na15 O28 2.963863 1_655
Na16 O38 2.496724 1_555
Na16 O57 2.535623 1_555
Na16 O36 2.562145 1_545
Na16 O21 2.633248 1_555
Na16 O29 2.772754 1_545
Na16 O58 2.798519 1_555
Na16 O31 2.815932 1_545
Na16 O0 2.900502 1_555
Na17 O36 2.409677 1_655
Na17 O22 2.494376 1_555
Na17 O27 2.499317 1_555
Na17 O58 2.584907 1_555
Na17 O59 2.655120 1_555
Na17 O37 2.710781 1_565
Na17 O1 2.960712 1_555
Na18 O44 2.366541 1_555
Na18 O36 2.452298 1_655
Na18 O37 2.524759 1_565
Na18 O43 2.530236 1_665
Na18 O42 2.596967 1_565
Na18 O38 2.633337 1_665
Na19 O47 2.362911 1_556
Na19 O40 2.424540 1_545
Na19 O45 2.481630 1_446
Na19 O46 2.550344 1_456
Na19 O39 2.572593 1_555
Na19 O41 2.788562 1_445
Na20 O48 2.382268 1_555
Na20 O56 2.445097 1_555
Na20 O49 2.484481 1_555
Na20 O50 2.496184 1_555
Na20 O55 2.557934 1_555
Na20 O54 2.603747 1_555
Na21 O58 2.452548 1_555
Na21 O52 2.457374 1_555
Na21 O59 2.466091 1_555
Na21 O57 2.497430 1_555
Na21 O51 2.543120 1_555
Na21 O53 2.637962 1_555
Na22 O61 2.377757 1_555
Na22 O68 2.414099 1_555
Na22 O60 2.418511 1_555
Na22 O62 2.635007 1_555
Na22 O66 2.645159 1_555
Na22 O67 2.694586 1_555
Na23 O64 2.337889 1_555
Na23 O63 2.368324 1_555
Na23 O71 2.582928 1_555
Na23 O70 2.632297 1_555
Na23 O69 2.690555 1_555
Na23 O65 2.690785 1_555
Ge0 O18 1.822587 1_556
Ge0 O19 1.845774 1_556
Ge0 O55 1.967031 1_555
Ge0 O56 1.973187 1_555
Ge0 O20 2.002790 1_556
Ge0 O54 2.285874 1_555
Ge1 O22 1.808077 1_555
Ge1 O21 1.847379 1_555
Ge1 O57 1.886674 1_555
Ge1 O59 1.905310 1_555
Ge1 O23 2.035644 1_555
Ge1 O58 2.263454 1_555
Ge2 O34 1.785464 1_555
Ge2 O33 1.837451 1_555
Ge2 O71 1.845176 1_555
Ge2 O70 2.073407 1_555
Ge2 O35 2.085111 1_555
Ge2 O69 2.389566 1_555
O0 S0 1.483506 1_555
O0 Zn0 2.163408 1_445
O1 S1 1.482360 1_555
O1 Zn0 2.086077 1_555
O2 S2 1.483472 1_555
O2 Zn0 2.178797 1_445
O3 S3 1.483255 1_555
O3 Zn1 2.052016 1_555
O4 S4 1.471729 1_555
O4 Zn1 2.257044 1_565
O5 Si0 1.613551 1_545
O5 Zn1 1.956529 1_655
O6 Si0 1.634426 1_555
O6 Zn2 2.003993 1_555
O7 S3 1.471650 1_555
O8 S4 1.471960 1_555
O8 Zn2 2.226486 1_455
O9 S1 1.487934 1_555
O9 Zn3 2.231151 1_655
O10 S2 1.490354 1_555
O10 Zn3 2.202147 1_545
O11 S0 1.485828 1_565
O11 Zn3 2.128413 1_555
O12 S5 1.478327 1_555
O12 Zn4 2.090669 1_555
O13 Si1 1.612591 1_555
O13 Zn4 1.890205 1_555
O14 Si2 1.622677 1_555
O14 Zn4 1.928859 1_555
O15 Si3 1.621527 1_555
O15 Zn5 1.863468 1_555
O16 S6 1.474394 1_555
O16 Zn5 2.097836 1_555
O17 Si4 1.621753 1_555
O17 Zn5 1.865545 1_555
O18 Si4 1.703676 1_555
O19 Si3 1.711121 1_555
O20 S6 1.523571 1_555
O21 Si1 1.696176 1_555
O22 Si2 1.684074 1_555
O23 S5 1.512870 1_555
O24 S7 1.462383 1_555
O24 Zn6 2.235885 1_556
O25 Si5 1.592531 1_555
O25 Zn6 1.926459 1_556
O26 Si6 1.594873 1_555
O26 Zn6 1.984332 1_556
O27 Si7 1.609675 1_555
O27 Zn7 1.939190 1_555
O28 S8 1.469092 1_555
O28 Zn7 2.333570 1_555
O29 Si8 1.614437 1_555
O29 Zn7 2.007783 1_555
O30 Si8 1.653493 1_555
O30 Zn8 1.891452 1_555
O31 Si7 1.647531 1_555
O31 Zn8 1.884881 1_555
O32 S8 1.495179 1_555
O32 Zn8 2.156269 1_555
O33 Si5 1.733768 1_555
O34 Si6 1.686101 1_555
O35 S7 1.515448 1_555
O36 Si8 1.639172 1_555
O36 Zn0 2.008642 1_455
O37 Si7 1.627649 1_545
O37 Zn0 1.976421 1_545
O38 S8 1.489072 1_555
O38 Zn0 2.289450 1_445
O39 Si5 1.620726 1_555
O39 Zn1 2.030304 1_555
O40 Si6 1.630813 1_555
O40 Zn1 2.181653 1_565
O41 S7 1.481053 1_555
O41 Zn1 2.293161 1_665
O42 S5 1.485460 1_555
O42 Zn2 2.269461 1_545
O43 Si1 1.645789 1_555
O43 Zn2 2.065124 1_445
O44 Si2 1.642071 1_555
O44 Zn2 2.015983 1_555
O45 Si3 1.645108 1_555
O45 Zn3 2.023048 1_655
O46 S6 1.483953 1_555
O46 Zn3 2.272295 1_645
O47 Si4 1.642507 1_555
O47 Zn3 2.018724 1_545
O48 Si0 1.641577 1_545
O48 Zn4 2.232611 1_555
O49 S3 1.495293 1_555
O49 Zn4 2.343871 1_555
O50 S4 1.481697 1_655
O51 S1 1.503849 1_555
O51 Zn5 2.402306 1_555
O52 S2 1.502788 1_655
O53 S0 1.504486 1_555
O53 Zn5 2.405542 1_555
O54 S7 1.507961 1_555
O55 Si5 1.693593 1_655
O56 Si6 1.694828 1_545
O57 Si7 1.683976 1_545
O58 S8 1.508426 1_555
O59 Si8 1.681701 1_655
O60 Si4 1.626909 1_555
O60 Zn6 2.128709 1_555
O61 Si3 1.622854 1_455
O61 Zn6 2.015068 1_555
O62 S6 1.472862 1_565
O62 Zn6 2.435922 1_555
O63 Si1 1.631398 1_565
O63 Zn7 2.026848 1_555
O64 Si2 1.633472 1_555
O64 Zn7 2.188261 1_555
O65 S5 1.473826 1_455
O65 Zn7 2.365291 1_555
O66 S0 1.500116 1_565
O66 Zn8 2.477629 1_555
O67 S1 1.495947 1_555
O68 S2 1.493183 1_555
O69 S3 1.513029 1_555
O70 S4 1.545914 1_555
O71 Si0 1.754045 1_555
