# generated using pymatgen
data_Ca9Zn4Bi9
_symmetry_space_group_name_H-M   'P 1'
_cell_length_a   4.65035906
_cell_length_b   12.73215442
_cell_length_c   22.15332961
_cell_angle_alpha   90.00000000
_cell_angle_beta   90.00000000
_cell_angle_gamma   90.00000000
_symmetry_Int_Tables_number   1
_chemical_formula_structural   Ca9Zn4Bi9
_chemical_formula_sum   'Ca18 Zn8 Bi18'
_cell_volume   1311.67847915
_cell_formula_units_Z   2
loop_
 _symmetry_equiv_pos_site_id
 _symmetry_equiv_pos_as_xyz
  1  'x, y, z'
loop_
 _atom_site_type_symbol
 _atom_site_label
 _atom_site_symmetry_multiplicity
 _atom_site_fract_x
 _atom_site_fract_y
 _atom_site_fract_z
 _atom_site_occupancy
  Ca  Ca0  1  0.50000000  0.50000000  0.50000000  1
  Ca  Ca1  1  0.50000000  -0.00000000  -0.00000000  1
  Ca  Ca2  1  -0.00000000  0.87356703  0.23482809  1
  Ca  Ca3  1  -0.00000000  0.12643297  0.76517191  1
  Ca  Ca4  1  0.00000000  0.37356703  0.26517191  1
  Ca  Ca5  1  0.00000000  0.62643297  0.73482809  1
  Ca  Ca6  1  0.50000000  0.70452486  0.10109786  1
  Ca  Ca7  1  0.50000000  0.29547514  0.89890214  1
  Ca  Ca8  1  0.50000000  0.20452486  0.39890214  1
  Ca  Ca9  1  0.50000000  0.79547514  0.60109786  1
  Ca  Ca10  1  0.00000000  0.92768657  0.41117706  1
  Ca  Ca11  1  -0.00000000  0.07231343  0.58882294  1
  Ca  Ca12  1  0.00000000  0.42768657  0.08882294  1
  Ca  Ca13  1  -0.00000000  0.57231343  0.91117706  1
  Ca  Ca14  1  -0.00000000  0.63093731  0.36199474  1
  Ca  Ca15  1  0.00000000  0.36906269  0.63800526  1
  Ca  Ca16  1  -0.00000000  0.13093731  0.13800526  1
  Ca  Ca17  1  0.00000000  0.86906269  0.86199474  1
  Zn  Zn0  1  0.50000000  0.72883342  0.95307698  1
  Zn  Zn1  1  0.50000000  0.27116658  0.04692302  1
  Zn  Zn2  1  0.50000000  0.22883342  0.54692302  1
  Zn  Zn3  1  0.50000000  0.77116658  0.45307698  1
  Zn  Zn4  1  0.50000000  0.88913861  0.76337958  1
  Zn  Zn5  1  0.50000000  0.11086139  0.23662042  1
  Zn  Zn6  1  0.50000000  0.38913861  0.73662042  1
  Zn  Zn7  1  0.50000000  0.61086139  0.26337958  1
  Bi  Bi0  1  0.50000000  -0.00000000  0.50000000  1
  Bi  Bi1  1  0.50000000  0.50000000  -0.00000000  1
  Bi  Bi2  1  -0.00000000  0.61339850  0.19392911  1
  Bi  Bi3  1  0.00000000  0.38660150  0.80607089  1
  Bi  Bi4  1  -0.00000000  0.11339850  0.30607089  1
  Bi  Bi5  1  0.00000000  0.88660150  0.69392911  1
  Bi  Bi6  1  0.50000000  0.80701058  0.33024398  1
  Bi  Bi7  1  0.50000000  0.19298942  0.66975602  1
  Bi  Bi8  1  0.50000000  0.30701058  0.16975602  1
  Bi  Bi9  1  0.50000000  0.69298942  0.83024398  1
  Bi  Bi10  1  0.50000000  0.95431129  0.14518592  1
  Bi  Bi11  1  0.50000000  0.04568871  0.85481408  1
  Bi  Bi12  1  0.50000000  0.45431129  0.35481408  1
  Bi  Bi13  1  0.50000000  0.54568871  0.64518592  1
  Bi  Bi14  1  0.00000000  0.80875800  0.00794379  1
  Bi  Bi15  1  0.00000000  0.19124200  0.99205621  1
  Bi  Bi16  1  -0.00000000  0.30875800  0.49205621  1
  Bi  Bi17  1  0.00000000  0.69124200  0.50794379  1
loop_
_geom_bond_atom_site_label_1
_geom_bond_atom_site_label_2
_geom_bond_distance
_geom_bond_site_symmetry_2
Ca0 Zn2 3.605629 1_555
Ca0 Zn3 3.605629 1_555
Ca1 Zn0 3.605629 1_544
Ca1 Zn1 3.605629 1_555
Ca6 Zn0 3.293729 1_554
Ca7 Zn1 3.293729 1_556
Ca8 Zn2 3.293729 1_555
Ca9 Zn3 3.293729 1_555
Ca10 Zn3 3.199915 1_455
Ca10 Zn3 3.199915 1_555
Ca11 Zn2 3.199915 1_455
Ca11 Zn2 3.199915 1_555
Ca12 Zn1 3.199915 1_455
Ca12 Zn1 3.199915 1_555
Ca13 Zn0 3.199915 1_455
Ca13 Zn0 3.199915 1_555
Ca14 Zn7 3.200705 1_555
Ca14 Zn7 3.200705 1_455
Ca14 Zn3 3.558877 1_555
Ca14 Zn3 3.558877 1_455
Ca15 Zn6 3.200705 1_455
Ca15 Zn6 3.200705 1_555
Ca15 Zn2 3.558877 1_555
Ca15 Zn2 3.558877 1_455
Ca16 Zn5 3.200705 1_455
Ca16 Zn5 3.200705 1_555
Ca16 Zn1 3.558877 1_455
Ca16 Zn1 3.558877 1_555
Ca17 Zn4 3.200705 1_455
Ca17 Zn4 3.200705 1_555
Ca17 Zn0 3.558877 1_455
Ca17 Zn0 3.558877 1_555
Bi0 Zn3 3.093427 1_545
Bi0 Zn2 3.093427 1_555
Bi0 Ca10 3.182153 1_545
Bi0 Ca11 3.182153 1_555
Bi0 Ca11 3.182153 1_655
Bi0 Ca10 3.182153 1_645
Bi0 Ca8 3.434689 1_555
Bi0 Ca9 3.434689 1_545
Bi1 Zn1 3.093427 1_555
Bi1 Zn0 3.093427 1_554
Bi1 Ca12 3.182153 1_655
Bi1 Ca13 3.182153 1_654
Bi1 Ca13 3.182153 1_554
Bi1 Ca12 3.182153 1_555
Bi1 Ca7 3.434689 1_554
Bi1 Ca6 3.434689 1_555
Bi2 Zn7 2.788309 1_455
Bi2 Zn7 2.788309 1_555
Bi2 Ca6 3.313893 1_455
Bi2 Ca6 3.313893 1_555
Bi2 Ca12 3.318525 1_555
Bi2 Ca2 3.434184 1_555
Bi2 Ca4 3.437327 1_555
Bi3 Zn6 2.788309 1_555
Bi3 Zn6 2.788309 1_455
Bi3 Ca7 3.313893 1_455
Bi3 Ca7 3.313893 1_555
Bi3 Ca13 3.318525 1_555
Bi3 Ca3 3.434184 1_555
Bi3 Ca5 3.437327 1_555
Bi4 Zn5 2.788309 1_555
Bi4 Zn5 2.788309 1_455
Bi4 Ca8 3.313893 1_555
Bi4 Ca8 3.313893 1_455
Bi4 Ca10 3.318525 1_545
Bi4 Ca4 3.434184 1_555
Bi4 Ca2 3.437327 1_545
Bi5 Zn4 2.788309 1_555
Bi5 Zn4 2.788309 1_455
Bi5 Ca9 3.313893 1_555
Bi5 Ca9 3.313893 1_455
Bi5 Ca11 3.318525 1_565
Bi5 Ca5 3.434184 1_555
Bi5 Ca3 3.437327 1_565
Bi6 Zn3 2.759164 1_555
Bi6 Zn7 2.903648 1_555
Bi6 Ca2 3.254631 1_555
Bi6 Ca2 3.254631 1_655
Bi6 Ca14 3.305577 1_555
Bi6 Ca14 3.305577 1_655
Bi6 Ca10 3.313881 1_655
Bi6 Ca10 3.313881 1_555
Bi7 Zn2 2.759164 1_555
Bi7 Zn6 2.903648 1_555
Bi7 Ca3 3.254631 1_555
Bi7 Ca3 3.254631 1_655
Bi7 Ca15 3.305577 1_555
Bi7 Ca15 3.305577 1_655
Bi7 Ca11 3.313881 1_555
Bi7 Ca11 3.313881 1_655
Bi8 Zn1 2.759164 1_555
Bi8 Zn5 2.903648 1_555
Bi8 Ca4 3.254631 1_655
Bi8 Ca4 3.254631 1_555
Bi8 Ca16 3.305577 1_655
Bi8 Ca16 3.305577 1_555
Bi8 Ca12 3.313881 1_555
Bi8 Ca12 3.313881 1_655
Bi9 Zn0 2.759164 1_555
Bi9 Zn4 2.903648 1_555
Bi9 Ca5 3.254631 1_655
Bi9 Ca5 3.254631 1_555
Bi9 Ca17 3.305577 1_655
Bi9 Ca17 3.305577 1_555
Bi9 Ca13 3.313881 1_555
Bi9 Ca13 3.313881 1_655
Bi10 Zn5 2.841812 1_565
Bi10 Ca2 3.225993 1_555
Bi10 Ca2 3.225993 1_655
Bi10 Ca16 3.238673 1_665
Bi10 Ca16 3.238673 1_565
Bi10 Ca1 3.268533 1_565
Bi10 Ca6 3.326916 1_555
Bi11 Zn4 2.841812 1_545
Bi11 Ca3 3.225993 1_655
Bi11 Ca3 3.225993 1_555
Bi11 Ca17 3.238673 1_545
Bi11 Ca17 3.238673 1_645
Bi11 Ca1 3.268533 1_556
Bi11 Ca7 3.326916 1_555
Bi12 Zn7 2.841812 1_555
Bi12 Ca4 3.225993 1_655
Bi12 Ca4 3.225993 1_555
Bi12 Ca14 3.238673 1_555
Bi12 Ca14 3.238673 1_655
Bi12 Ca0 3.268533 1_555
Bi12 Ca8 3.326916 1_555
Bi13 Zn6 2.841812 1_555
Bi13 Ca5 3.225993 1_555
Bi13 Ca5 3.225993 1_655
Bi13 Ca15 3.238673 1_555
Bi13 Ca15 3.238673 1_655
Bi13 Ca0 3.268533 1_555
Bi13 Ca9 3.326916 1_555
Bi14 Zn0 2.814141 1_454
Bi14 Zn0 2.814141 1_554
Bi14 Ca17 3.323174 1_554
Bi14 Ca1 3.371391 1_465
Bi14 Ca1 3.371391 1_565
Bi14 Ca6 3.380301 1_455
Bi14 Ca6 3.380301 1_555
Bi15 Zn1 2.814141 1_456
Bi15 Zn1 2.814141 1_556
Bi15 Ca16 3.323174 1_556
Bi15 Ca1 3.371391 1_456
Bi15 Ca1 3.371391 1_556
Bi15 Ca7 3.380301 1_455
Bi15 Ca7 3.380301 1_555
Bi16 Zn2 2.814141 1_555
Bi16 Zn2 2.814141 1_455
Bi16 Ca15 3.323174 1_555
Bi16 Ca0 3.371391 1_455
Bi16 Ca0 3.371391 1_555
Bi16 Ca8 3.380301 1_455
Bi16 Ca8 3.380301 1_555
Bi17 Zn3 2.814141 1_555
Bi17 Zn3 2.814141 1_455
Bi17 Ca14 3.323174 1_555
Bi17 Ca0 3.371391 1_455
Bi17 Ca0 3.371391 1_555
Bi17 Ca9 3.380301 1_455
Bi17 Ca9 3.380301 1_555
