# generated using pymatgen
data_MgMn4(O3F)2
_symmetry_space_group_name_H-M   'P 1'
_cell_length_a   5.20933183
_cell_length_b   5.80725914
_cell_length_c   5.80318350
_cell_angle_alpha   118.99173275
_cell_angle_beta   100.29690101
_cell_angle_gamma   79.66545480
_symmetry_Int_Tables_number   1
_chemical_formula_structural   MgMn4(O3F)2
_chemical_formula_sum   'Mg1 Mn4 O6 F2'
_cell_volume   150.20511387
_cell_formula_units_Z   1
loop_
 _symmetry_equiv_pos_site_id
 _symmetry_equiv_pos_as_xyz
  1  'x, y, z'
loop_
 _atom_site_type_symbol
 _atom_site_label
 _atom_site_symmetry_multiplicity
 _atom_site_fract_x
 _atom_site_fract_y
 _atom_site_fract_z
 _atom_site_occupancy
  Mg  Mg0  1  0.51481601  0.23212696  0.24711241  1
  Mn  Mn0  1  0.42085187  0.95844148  0.52056838  1
  Mn  Mn1  1  0.53246217  0.51269802  0.96600943  1
  Mn  Mn2  1  0.00088038  0.49719484  0.48851862  1
  Mn  Mn3  1  0.00131336  0.99021923  0.98169891  1
  O  O0  1  0.89334845  0.15144899  0.32810200  1
  O  O1  1  0.63601407  0.13424285  0.87465988  1
  O  O2  1  0.63531474  0.60424406  0.34489243  1
  O  O3  1  0.35504081  0.34103543  0.60015422  1
  O  O4  1  0.35573492  0.87887902  0.13743804  1
  O  O5  1  0.13377528  0.83261796  0.64574364  1
  F  F0  1  0.83854235  0.62616707  0.85429628  1
  F  F1  1  0.16801658  0.35973208  0.11794875  1
loop_
_geom_bond_atom_site_label_1
_geom_bond_atom_site_label_2
_geom_bond_distance
_geom_bond_site_symmetry_2
Mg0 O0 1.969633 1_555
Mg0 O3 2.110660 1_555
Mg0 O4 2.110885 1_545
Mg0 O2 2.134608 1_555
Mg0 O1 2.135773 1_554
Mn0 O3 2.013933 1_565
Mn0 O4 2.015623 1_555
Mn0 O2 2.017010 1_555
Mn0 O1 2.018570 1_565
Mn0 O5 2.143126 1_555
Mn1 O3 1.983194 1_555
Mn1 O4 1.983326 1_556
Mn1 O1 1.987398 1_555
Mn1 O2 1.987976 1_556
Mn2 O0 1.901853 1_455
Mn2 O5 1.908199 1_555
Mn2 O3 2.046414 1_555
Mn2 O2 2.053729 1_455
Mn3 O0 1.903882 1_466
Mn3 O5 1.907734 1_555
Mn3 O4 2.045806 1_556
Mn3 O1 2.053446 1_465
F0 Mn1 2.134818 1_555
F0 Mn3 2.153855 1_655
F0 Mn2 2.157599 1_655
F1 Mg0 1.987147 1_555
F1 Mn3 2.182300 1_544
F1 Mn2 2.185358 1_555
