# generated using pymatgen
data_NaNbSi3Ge3(SO8)3
_symmetry_space_group_name_H-M   'P 1'
_cell_length_a   8.61750484
_cell_length_b   8.54643855
_cell_length_c   22.28820619
_cell_angle_alpha   88.55650695
_cell_angle_beta   92.40613813
_cell_angle_gamma   119.42937537
_symmetry_Int_Tables_number   1
_chemical_formula_structural   NaNbSi3Ge3(SO8)3
_chemical_formula_sum   'Na3 Nb3 Si9 Ge9 S9 O72'
_cell_volume   1428.40710071
_cell_formula_units_Z   3
loop_
 _symmetry_equiv_pos_site_id
 _symmetry_equiv_pos_as_xyz
  1  'x, y, z'
loop_
 _atom_site_type_symbol
 _atom_site_label
 _atom_site_symmetry_multiplicity
 _atom_site_fract_x
 _atom_site_fract_y
 _atom_site_fract_z
 _atom_site_occupancy
  Na  Na0  1  0.00905026  0.99353523  0.99308223  1
  Na  Na1  1  0.66077816  0.32201337  0.83317693  1
  Na  Na2  1  0.67336763  0.33399733  0.33327131  1
  Nb  Nb0  1  0.00476171  0.00617395  0.64455123  1
  Nb  Nb1  1  0.01247151  0.00999911  0.14114415  1
  Nb  Nb2  1  0.33198727  0.67712816  0.52746164  1
  Si  Si0  1  0.99322098  0.28776484  0.25187868  1
  Si  Si1  1  0.29336318  0.30540641  0.75458857  1
  Si  Si2  1  0.72299244  0.01086082  0.75188824  1
  Si  Si3  1  0.39504917  0.07356998  0.58095370  1
  Si  Si4  1  0.67206555  0.60795329  0.58610260  1
  Si  Si5  1  0.94688795  0.60756551  0.07944862  1
  Si  Si6  1  0.39871151  0.35185645  0.08143575  1
  Si  Si7  1  0.33408448  0.95030730  0.91553056  1
  Si  Si8  1  0.02950854  0.66240673  0.41348688  1
  Ge  Ge0  1  0.98373840  0.99387535  0.35493958  1
  Ge  Ge1  1  0.02602376  0.01697075  0.84910440  1
  Ge  Ge2  1  0.62941240  0.31157374  0.69364611  1
  Ge  Ge3  1  0.68999628  0.35246884  0.18215723  1
  Ge  Ge4  1  0.64358061  0.33021514  0.97897703  1
  Ge  Ge5  1  0.67378461  0.35870888  0.48259232  1
  Ge  Ge6  1  0.30516197  0.65564575  0.02298119  1
  Ge  Ge7  1  0.29975521  0.64767794  0.31395156  1
  Ge  Ge8  1  0.35990675  0.69371686  0.80676908  1
  S  S0  1  0.29460798  -0.00006146  0.25406545  1
  S  S1  1  0.70116759  0.70842820  0.25186007  1
  S  S2  1  0.00049940  0.70888853  0.75384368  1
  S  S3  1  0.94574444  0.33532190  0.58250650  1
  S  S4  1  0.65597509  0.04532981  0.08244926  1
  S  S5  1  0.62224989  0.66911843  0.91746796  1
  S  S6  1  0.03987964  0.37619989  0.91681753  1
  S  S7  1  0.61799559  0.95102823  0.41340496  1
  S  S8  1  0.33111684  0.37419410  0.41377340  1
  O  O0  1  0.20947521  0.02987347  0.30542632  1
  O  O1  1  0.82307462  0.78510405  0.30697308  1
  O  O2  1  0.95622425  0.15616008  0.31109710  1
  O  O3  1  0.21837622  0.16753928  0.81217487  1
  O  O4  1  0.96699383  0.79113759  0.80671303  1
  O  O5  1  0.84629179  0.03519749  0.81334569  1
  O  O6  1  0.81254150  0.97759889  0.69376688  1
  O  O7  1  0.17162206  0.20818259  0.69434863  1
  O  O8  1  0.03171584  0.82120615  0.69862109  1
  O  O9  1  0.78537257  0.81625998  0.19802540  1
  O  O10  1  0.02158977  0.18779270  0.19467707  1
  O  O11  1  0.17972393  0.96315355  0.19762194  1
  O  O12  1  0.87658542  0.36938506  0.63506010  1
  O  O13  1  0.51348365  0.13171109  0.64251230  1
  O  O14  1  0.64084103  0.48671124  0.64523700  1
  O  O15  1  0.87807444  0.49685591  0.14268159  1
  O  O16  1  0.63283752  0.12485029  0.13773401  1
  O  O17  1  0.51065697  0.36916123  0.14473908  1
  O  O18  1  0.45845141  0.28396853  0.02398230  1
  O  O19  1  0.81614766  0.51886764  0.02087771  1
  O  O20  1  0.69950604  0.16100856  0.02836511  1
  O  O21  1  0.48309243  0.18098518  0.51875301  1
  O  O22  1  0.71652174  0.54739044  0.52308142  1
  O  O23  1  0.84174121  0.30489734  0.52414793  1
  O  O24  1  0.54141591  0.69046785  0.97119414  1
  O  O25  1  0.15265574  0.44871876  0.97441382  1
  O  O26  1  0.30389870  0.82871192  0.97664127  1
  O  O27  1  0.54114351  0.84100731  0.46788410  1
  O  O28  1  0.30885659  0.45812253  0.46677004  1
  O  O29  1  0.16190337  0.69507088  0.47187510  1
  O  O30  1  0.11795688  0.62156329  0.35593328  1
  O  O31  1  0.50213160  0.86469123  0.35826152  1
  O  O32  1  0.36994609  0.49390229  0.35881450  1
  O  O33  1  0.12041099  0.48701465  0.86444554  1
  O  O34  1  0.36493604  0.85926640  0.85743380  1
  O  O35  1  0.51022077  0.63592491  0.86155574  1
  O  O36  1  0.02325011  0.84965309  0.40315609  1
  O  O37  1  0.79656015  0.96223559  0.40886529  1
  O  O38  1  0.16815492  0.19770572  0.40551701  1
  O  O39  1  0.02318644  0.19281721  0.91396018  1
  O  O40  1  0.14783774  0.96509416  0.90910931  1
  O  O41  1  0.80177570  0.82582841  0.91250491  1
  O  O42  1  0.96586378  0.17351586  0.58586540  1
  O  O43  1  0.19808025  0.04446048  0.59029161  1
  O  O44  1  0.83716750  0.80885823  0.59535293  1
  O  O45  1  0.96375895  0.80771717  0.09075544  1
  O  O46  1  0.82051498  0.02500959  0.09048233  1
  O  O47  1  0.19405711  0.17405139  0.09259670  1
  O  O48  1  0.71374065  0.19794941  0.74415755  1
  O  O49  1  0.49022250  0.32366246  0.74829611  1
  O  O50  1  0.84366196  0.53194714  0.74670899  1
  O  O51  1  0.68188840  0.52454851  0.24765751  1
  O  O52  1  0.80931930  0.30227012  0.24253103  1
  O  O53  1  0.46967156  0.15836876  0.24628145  1
  O  O54  1  0.63760995  0.49810395  0.91998366  1
  O  O55  1  0.86027263  0.35848102  0.92340436  1
  O  O56  1  0.51425735  0.15228975  0.92366918  1
  O  O57  1  0.63888901  0.13129287  0.41760798  1
  O  O58  1  0.49119542  0.35050658  0.41817856  1
  O  O59  1  0.83379244  0.48140813  0.42226384  1
  O  O60  1  0.37946649  0.52790480  0.06948095  1
  O  O61  1  0.14528333  0.63837938  0.07374496  1
  O  O62  1  0.50324401  0.86756057  0.07562139  1
  O  O63  1  0.37311455  0.87002217  0.57222779  1
  O  O64  1  0.48993170  0.62138737  0.57191122  1
  O  O65  1  0.12967898  0.49214335  0.57460170  1
  O  O66  1  0.31286894  0.83508657  0.26044517  1
  O  O67  1  0.52897977  0.69994377  0.26035328  1
  O  O68  1  0.17575461  0.48059939  0.25873599  1
  O  O69  1  0.29605277  0.49172523  0.76692647  1
  O  O70  1  0.16373830  0.69564303  0.76112159  1
  O  O71  1  0.52517771  0.83919511  0.75780415  1
loop_
_geom_bond_atom_site_label_1
_geom_bond_atom_site_label_2
_geom_bond_distance
_geom_bond_site_symmetry_2
Na0 O40 2.342854 1_555
Na0 O39 2.385013 1_565
Na0 O41 2.411357 1_455
Na0 O45 2.588736 1_456
Na0 O47 2.701823 1_566
Na0 O46 2.860027 1_466
Na1 O49 2.350534 1_555
Na1 O48 2.434485 1_555
Na1 O56 2.456186 1_555
Na1 O55 2.512271 1_555
Na1 O54 2.553909 1_555
Na1 O50 2.592130 1_555
Na2 O59 2.369960 1_555
Na2 O57 2.449453 1_555
Na2 O51 2.456898 1_555
Na2 O52 2.464772 1_555
Na2 O53 2.522904 1_555
Na2 O58 2.558567 1_555
Nb0 O44 1.923236 1_445
Nb0 O6 1.936049 1_445
Nb0 O7 1.950155 1_555
Nb0 O43 1.989583 1_555
Nb0 O42 2.051507 1_455
Nb0 O8 2.060727 1_545
Nb1 O47 1.869478 1_555
Nb1 O10 1.924789 1_555
Nb1 O45 1.941984 1_445
Nb1 O46 2.017969 1_455
Nb1 O11 2.052197 1_545
Nb1 O9 2.257663 1_445
Nb2 O63 1.821506 1_555
Nb2 O64 1.887108 1_555
Nb2 O29 1.940502 1_555
Nb2 O65 2.001079 1_555
Nb2 O27 2.144776 1_555
Nb2 O28 2.260789 1_555
Ge0 O36 1.762119 1_655
Ge0 O2 1.780493 1_565
Ge0 O1 1.946181 1_555
Ge0 O37 1.958899 1_555
Ge0 O38 2.014686 1_665
Ge0 O0 2.161404 1_665
Ge1 O3 1.745305 1_555
Ge1 O5 1.784817 1_455
Ge1 O40 1.843029 1_545
Ge1 O4 1.990811 1_445
Ge1 O39 2.120670 1_555
Ge1 O41 2.326062 1_445
Ge2 O13 1.772964 1_555
Ge2 O49 1.784333 1_555
Ge2 O14 1.788000 1_555
Ge2 O48 1.818858 1_555
Ge2 O50 2.206007 1_555
Ge2 O12 2.377597 1_555
Ge3 O15 1.738781 1_555
Ge3 O17 1.790744 1_555
Ge3 O52 1.827661 1_555
Ge3 O16 2.030200 1_555
Ge3 O51 2.125258 1_555
Ge3 O53 2.326507 1_555
Ge4 O18 1.789496 1_556
Ge4 O19 1.812792 1_556
Ge4 O56 1.840551 1_555
Ge4 O54 1.939616 1_555
Ge4 O20 2.023695 1_556
Ge4 O55 2.194387 1_555
Ge5 O22 1.735555 1_555
Ge5 O21 1.803815 1_555
Ge5 O59 1.863498 1_555
Ge5 O23 1.919460 1_555
Ge5 O58 2.061272 1_555
Ge5 O57 2.344508 1_555
Ge6 O61 1.767147 1_555
Ge6 O26 1.786760 1_554
Ge6 O60 1.802841 1_555
Ge6 O25 1.928604 1_554
Ge6 O62 2.114541 1_555
Ge6 O24 2.269449 1_554
Ge7 O30 1.774453 1_555
Ge7 O68 1.781575 1_555
Ge7 O66 1.933275 1_555
Ge7 O32 1.938325 1_555
Ge7 O31 2.055664 1_555
Ge7 O67 2.198354 1_555
Ge8 O71 1.757070 1_555
Ge8 O69 1.781636 1_555
Ge8 O34 1.815208 1_555
Ge8 O70 1.942987 1_555
Ge8 O35 1.969374 1_555
Ge8 O33 2.357598 1_555
O0 S0 1.477774 1_555
O1 S1 1.515794 1_555
O2 Si0 1.648310 1_555
O3 Si1 1.642705 1_555
O4 S2 1.495252 1_655
O5 Si2 1.650302 1_555
O6 Si2 1.634776 1_565
O7 Si1 1.635550 1_555
O8 S2 1.491047 1_555
O9 S1 1.475058 1_555
O10 Si0 1.643627 1_455
O11 S0 1.507011 1_565
O12 S3 1.434656 1_555
O13 Si3 1.609169 1_555
O14 Si4 1.603181 1_555
O15 Si5 1.638528 1_555
O16 S4 1.488600 1_555
O17 Si6 1.642928 1_555
O18 Si6 1.621030 1_555
O19 Si5 1.623343 1_555
O20 S4 1.478070 1_555
O21 Si3 1.637095 1_555
O22 Si4 1.632278 1_555
O23 S3 1.500952 1_555
O24 S5 1.469144 1_555
O25 S6 1.523144 1_555
O26 Si7 1.641822 1_555
O27 S7 1.481612 1_555
O28 S8 1.464057 1_555
O29 Si8 1.629055 1_555
O30 Si8 1.647545 1_555
O31 S7 1.506850 1_555
O32 S8 1.514591 1_555
O33 S6 1.451734 1_555
O34 Si7 1.623493 1_555
O35 S5 1.487658 1_555
O36 Si8 1.637699 1_555
O37 S7 1.501667 1_555
O38 S8 1.480481 1_555
O39 S6 1.504587 1_555
O40 Si7 1.670791 1_555
O41 S5 1.473143 1_555
O42 S3 1.475563 1_555
O43 Si3 1.611952 1_555
O44 Si4 1.614770 1_555
O45 Si5 1.668830 1_555
O46 S4 1.513877 1_555
O47 Si6 1.692796 1_555
O48 Si2 1.644049 1_555
O49 Si1 1.637277 1_555
O50 S2 1.457520 1_655
O51 S1 1.501858 1_555
O52 Si0 1.653578 1_555
O53 S0 1.463611 1_555
O54 S5 1.530424 1_555
O55 S6 1.492545 1_655
O56 Si7 1.667857 1_545
O57 S7 1.465596 1_545
O58 S8 1.488504 1_555
O59 Si8 1.650557 1_655
O60 Si6 1.607353 1_555
O61 Si5 1.607049 1_455
O62 S4 1.446886 1_565
O63 Si3 1.670514 1_565
O64 Si4 1.646285 1_555
O65 S3 1.504547 1_455
O66 S0 1.495284 1_565
O67 S1 1.469694 1_555
O68 Si0 1.630552 1_455
O69 Si1 1.611531 1_555
O70 S2 1.467777 1_555
O71 Si2 1.620856 1_565
