# generated using pymatgen
data_Na4Mg(FeO3)2
_symmetry_space_group_name_H-M   'P 1'
_cell_length_a   6.14555705
_cell_length_b   5.93317002
_cell_length_c   6.12637156
_cell_angle_alpha   90.42371795
_cell_angle_beta   88.47784587
_cell_angle_gamma   58.57221846
_symmetry_Int_Tables_number   1
_chemical_formula_structural   Na4Mg(FeO3)2
_chemical_formula_sum   'Na4 Mg1 Fe2 O6'
_cell_volume   190.48645994
_cell_formula_units_Z   1
loop_
 _symmetry_equiv_pos_site_id
 _symmetry_equiv_pos_as_xyz
  1  'x, y, z'
loop_
 _atom_site_type_symbol
 _atom_site_label
 _atom_site_symmetry_multiplicity
 _atom_site_fract_x
 _atom_site_fract_y
 _atom_site_fract_z
 _atom_site_occupancy
  Na  Na0  1  0.86649083  0.69493705  0.64118792  1
  Na  Na1  1  0.49820455  0.63729294  0.86260527  1
  Na  Na2  1  0.45496790  0.31570138  0.44673874  1
  Na  Na3  1  0.23576963  0.26893321  0.04166547  1
  Mg  Mg0  1  0.74235515  0.52220819  0.26057607  1
  Fe  Fe0  1  0.86884221  0.97725870  0.08242106  1
  Fe  Fe1  1  0.14700694  0.00257722  0.54292564  1
  O  O0  1  0.80664237  0.70280762  0.01331236  1
  O  O1  1  0.48886722  0.71237404  0.50028976  1
  O  O2  1  0.58547202  0.32889873  0.09854720  1
  O  O3  1  0.08156908  0.32059685  0.41468371  1
  O  O4  1  0.90857548  0.94825196  0.39767491  1
  O  O5  1  0.09648663  0.99524512  0.86337489  1
loop_
_geom_bond_atom_site_label_1
_geom_bond_atom_site_label_2
_geom_bond_distance
_geom_bond_site_symmetry_2
Na0 O4 2.229223 1_555
Na0 O0 2.295820 1_556
Na0 O3 2.324027 1_655
Na0 O1 2.449256 1_555
Na1 O2 2.186768 1_556
Na1 O1 2.263503 1_555
Na1 O5 2.266450 1_555
Na1 O0 2.335082 1_556
Na2 O2 2.275252 1_555
Na2 O3 2.293420 1_555
Na2 O1 2.488704 1_555
Na2 O4 2.494463 1_545
Na3 O2 2.387899 1_555
Na3 O3 2.405414 1_555
Na3 O5 2.456736 1_544
Na3 O0 2.561852 1_455
Mg0 O1 1.969144 1_555
Mg0 O0 2.008148 1_555
Mg0 O3 2.046658 1_655
Mg0 O2 2.101800 1_555
Fe0 O2 1.895818 1_565
Fe0 O0 1.903802 1_555
Fe0 O4 1.950782 1_555
Fe0 O5 1.956404 1_654
Fe1 O3 1.893841 1_555
Fe1 O4 1.897469 1_445
Fe1 O1 1.907501 1_545
Fe1 O5 1.983778 1_545
