# generated using pymatgen
data_MgTiMnV4O12
_symmetry_space_group_name_H-M   'P 1'
_cell_length_a   7.20376509
_cell_length_b   7.20367883
_cell_length_c   5.62995181
_cell_angle_alpha   79.42523223
_cell_angle_beta   100.57141359
_cell_angle_gamma   99.07126478
_symmetry_Int_Tables_number   1
_chemical_formula_structural   MgTiMnV4O12
_chemical_formula_sum   'Mg1 Ti1 Mn1 V4 O12'
_cell_volume   279.98818661
_cell_formula_units_Z   1
loop_
 _symmetry_equiv_pos_site_id
 _symmetry_equiv_pos_as_xyz
  1  'x, y, z'
loop_
 _atom_site_type_symbol
 _atom_site_label
 _atom_site_symmetry_multiplicity
 _atom_site_fract_x
 _atom_site_fract_y
 _atom_site_fract_z
 _atom_site_occupancy
  Mg  Mg0  1  0.56698603  0.56693220  0.24986368  1
  Ti  Ti0  1  0.90116568  0.90113971  0.25001602  1
  Mn  Mn0  1  0.09050800  0.09050166  0.74999869  1
  V  V0  1  0.21154274  0.62903842  0.66497404  1
  V  V1  1  0.37045463  0.86682469  0.12478485  1
  V  V2  1  0.62904102  0.21159991  0.83504125  1
  V  V3  1  0.86683932  0.37044651  0.37525547  1
  O  O0  1  0.06758157  0.80934155  0.60125560  1
  O  O1  1  0.07511431  0.40385489  0.67727964  1
  O  O2  1  0.13201582  0.95228962  0.10934682  1
  O  O3  1  0.34535832  0.65005085  0.43300533  1
  O  O4  1  0.40388836  0.07512362  0.82274223  1
  O  O5  1  0.35728882  0.64621263  0.95737044  1
  O  O6  1  0.65000805  0.34539368  0.06704257  1
  O  O7  1  0.63321625  0.86511426  0.25984954  1
  O  O8  1  0.64622768  0.35735985  0.54264616  1
  O  O9  1  0.80935298  0.06766109  0.89877476  1
  O  O10  1  0.86522826  0.63319984  0.24008707  1
  O  O11  1  0.95225514  0.13199002  0.39066782  1
loop_
_geom_bond_atom_site_label_1
_geom_bond_atom_site_label_2
_geom_bond_distance
_geom_bond_site_symmetry_2
Mg0 O5 2.081807 1_554
Mg0 O8 2.082116 1_555
Mg0 O7 2.134492 1_555
Mg0 O10 2.134752 1_555
Mg0 O6 2.256923 1_555
Mg0 O3 2.258909 1_555
Mn0 O2 2.075157 1_546
Mn0 O11 2.075206 1_455
Mn0 O1 2.235704 1_555
Mn0 O4 2.235924 1_555
Mn0 O0 2.301530 1_545
Mn0 O9 2.301650 1_455
O0 V0 1.734475 1_555
O0 Ti0 2.164488 1_455
O1 V0 1.755873 1_555
O1 V3 2.073779 1_455
O2 V1 1.896306 1_555
O2 Ti0 1.926506 1_455
O3 V0 1.732365 1_555
O3 V1 2.124581 1_555
O4 V2 1.755852 1_555
O4 V1 2.073885 1_546
O5 V0 1.796430 1_555
O5 V1 1.972926 1_556
O6 V2 1.732497 1_554
O6 V3 2.124843 1_555
O7 V1 1.907125 1_555
O7 Ti0 1.916309 1_555
O8 V2 1.796411 1_555
O8 V3 1.972907 1_555
O9 V2 1.734421 1_555
O9 Ti0 2.164816 1_546
O10 V3 1.907067 1_555
O10 Ti0 1.916341 1_555
O11 V3 1.896272 1_555
O11 Ti0 1.926494 1_545
