# generated using pymatgen
data_ZrRh
_symmetry_space_group_name_H-M   'P 1'
_cell_length_a   3.09992231
_cell_length_b   4.63414933
_cell_length_c   4.92635808
_cell_angle_alpha   90.00000000
_cell_angle_beta   90.00000000
_cell_angle_gamma   90.00000000
_symmetry_Int_Tables_number   1
_chemical_formula_structural   ZrRh
_chemical_formula_sum   'Zr2 Rh2'
_cell_volume   70.76961126
_cell_formula_units_Z   2
loop_
 _symmetry_equiv_pos_site_id
 _symmetry_equiv_pos_as_xyz
  1  'x, y, z'
loop_
 _atom_site_type_symbol
 _atom_site_label
 _atom_site_symmetry_multiplicity
 _atom_site_fract_x
 _atom_site_fract_y
 _atom_site_fract_z
 _atom_site_occupancy
  Zr  Zr0  1  0.50000000  0.75000000  0.23539554  1
  Zr  Zr1  1  0.50000000  0.25000000  0.76460446  1
  Rh  Rh0  1  -0.00000000  0.25000000  0.28848262  1
  Rh  Rh1  1  0.00000000  0.75000000  0.71151738  1
loop_
_geom_bond_atom_site_label_1
_geom_bond_atom_site_label_2
_geom_bond_distance
_geom_bond_site_symmetry_2
Rh0 Zr0 2.799930 1_445
Rh0 Zr0 2.799930 1_545
Rh0 Zr0 2.799930 1_455
Rh0 Zr0 2.799930 1_555
Rh0 Zr1 2.811400 1_555
Rh0 Zr1 2.811400 1_455
Rh0 Zr1 3.010476 1_454
Rh0 Zr1 3.010476 1_554
Rh1 Zr1 2.799930 1_565
Rh1 Zr1 2.799930 1_555
Rh1 Zr1 2.799930 1_455
Rh1 Zr1 2.799930 1_465
Rh1 Zr0 2.811400 1_555
Rh1 Zr0 2.811400 1_455
Rh1 Zr0 3.010476 1_456
Rh1 Zr0 3.010476 1_556
