# generated using pymatgen
data_Na3HfAlSi(PO6)2
_symmetry_space_group_name_H-M   'P 1'
_cell_length_a   8.87732200
_cell_length_b   8.87732172
_cell_length_c   22.16650091
_cell_angle_alpha   89.79072602
_cell_angle_beta   90.20927399
_cell_angle_gamma   120.11750310
_symmetry_Int_Tables_number   1
_chemical_formula_structural   Na3HfAlSi(PO6)2
_chemical_formula_sum   'Na18 Hf6 Al6 Si6 P12 O72'
_cell_volume   1511.02763998
_cell_formula_units_Z   6
loop_
 _symmetry_equiv_pos_site_id
 _symmetry_equiv_pos_as_xyz
  1  'x, y, z'
loop_
 _atom_site_type_symbol
 _atom_site_label
 _atom_site_symmetry_multiplicity
 _atom_site_fract_x
 _atom_site_fract_y
 _atom_site_fract_z
 _atom_site_occupancy
  Na  Na0  1  0.00426319  0.99695430  0.49573882  1
  Na  Na1  1  0.00304570  0.99573681  0.99573882  1
  Na  Na2  1  0.66515843  0.32697150  0.82923715  1
  Na  Na3  1  0.67302850  0.33484157  0.32923715  1
  Na  Na4  1  0.34757040  0.67255340  0.16238433  1
  Na  Na5  1  0.32744660  0.65242960  0.66238433  1
  Na  Na6  1  0.36066885  0.36264633  0.24696920  1
  Na  Na7  1  0.99448164  0.62625713  0.24752048  1
  Na  Na8  1  0.63735367  0.63933115  0.74696920  1
  Na  Na9  1  0.37374287  0.00551836  0.74752048  1
  Na  Na10  1  0.03658670  0.70014695  0.57957842  1
  Na  Na11  1  0.65854733  0.96428465  0.58435244  1
  Na  Na12  1  0.29985305  0.96341330  0.07957842  1
  Na  Na13  1  0.03571535  0.34145267  0.08435244  1
  Na  Na14  1  0.97122837  0.67089892  0.91826417  1
  Na  Na15  1  0.69710407  0.02964287  0.91171858  1
  Na  Na16  1  0.97035713  0.30289593  0.41171858  1
  Na  Na17  1  0.32910108  0.02877163  0.41826417  1
  Hf  Hf0  1  0.00526445  0.00690688  0.64711097  1
  Hf  Hf1  1  0.99309312  0.99473555  0.14711097  1
  Hf  Hf2  1  0.66121760  0.33584353  0.98049859  1
  Hf  Hf3  1  0.66415647  0.33878240  0.48049859  1
  Hf  Hf4  1  0.33159156  0.66749754  0.31376219  1
  Hf  Hf5  1  0.33250246  0.66840844  0.81376219  1
  Al  Al0  1  0.98916463  0.99143294  0.35209502  1
  Al  Al1  1  0.00856706  0.01083537  0.85209502  1
  Al  Al2  1  0.67058468  0.32308467  0.68508540  1
  Al  Al3  1  0.67691533  0.32941532  0.18508540  1
  Al  Al4  1  0.32804237  0.66903369  0.01821336  1
  Al  Al5  1  0.33096631  0.67195763  0.51821336  1
  Si  Si0  1  0.98646196  0.28108066  0.25229050  1
  Si  Si1  1  0.71891934  0.01353804  0.75229050  1
  Si  Si2  1  0.37685868  0.03638138  0.58409281  1
  Si  Si3  1  0.96361862  0.62314132  0.08409281  1
  Si  Si4  1  0.32265999  0.95819586  0.91734589  1
  Si  Si5  1  0.04180414  0.67734001  0.41734589  1
  P  P0  1  0.29788558  0.01076947  0.25116411  1
  P  P1  1  0.71277457  0.70636247  0.25212312  1
  P  P2  1  0.29363753  0.28722543  0.75212312  1
  P  P3  1  0.98923053  0.70211442  0.75116411  1
  P  P4  1  0.96135693  0.34198954  0.58380251  1
  P  P5  1  0.65443567  0.61642058  0.58686686  1
  P  P6  1  0.65801046  0.03864307  0.08380251  1
  P  P7  1  0.38357942  0.34556433  0.08686686  1
  P  P8  1  0.62185383  0.67192431  0.91870833  1
  P  P9  1  0.04864235  0.37025685  0.92002044  1
  P  P10  1  0.62974315  0.95135765  0.42002044  1
  P  P11  1  0.32807569  0.37814617  0.41870833  1
  O  O0  1  0.20891547  0.03565312  0.30679612  1
  O  O1  1  0.83205281  0.79626810  0.30602605  1
  O  O2  1  0.97331642  0.16558717  0.31140130  1
  O  O3  1  0.20373190  0.16794719  0.80602605  1
  O  O4  1  0.96434688  0.79108453  0.80679612  1
  O  O5  1  0.83441283  0.02668358  0.81140130  1
  O  O6  1  0.79454545  0.96906612  0.69174417  1
  O  O7  1  0.18450023  0.20680373  0.69462760  1
  O  O8  1  0.02924361  0.82006926  0.69435669  1
  O  O9  1  0.79319627  0.81549977  0.19462760  1
  O  O10  1  0.03093388  0.20545455  0.19174417  1
  O  O11  1  0.17993074  0.97075639  0.19435669  1
  O  O12  1  0.87027971  0.37207763  0.63774318  1
  O  O13  1  0.50213709  0.13442546  0.64214389  1
  O  O14  1  0.63819369  0.50881051  0.64368526  1
  O  O15  1  0.86557454  0.49786291  0.14214389  1
  O  O16  1  0.62792237  0.12972029  0.13774318  1
  O  O17  1  0.49118949  0.36180631  0.14368526  1
  O  O18  1  0.46208221  0.30317153  0.03143931  1
  O  O19  1  0.85083866  0.54057595  0.02262718  1
  O  O20  1  0.69294273  0.15099035  0.02604401  1
  O  O21  1  0.45942405  0.14916134  0.52262718  1
  O  O22  1  0.69682847  0.53791779  0.53143931  1
  O  O23  1  0.84900965  0.30705727  0.52604401  1
  O  O24  1  0.52406007  0.69380756  0.97154151  1
  O  O25  1  0.15635759  0.45853210  0.97684588  1
  O  O26  1  0.29486143  0.83273343  0.97573415  1
  O  O27  1  0.54146790  0.84364241  0.47684588  1
  O  O28  1  0.30619244  0.47593993  0.47154151  1
  O  O29  1  0.16726657  0.70513857  0.47573415  1
  O  O30  1  0.12692317  0.63860896  0.35759851  1
  O  O31  1  0.51075919  0.86932564  0.36416939  1
  O  O32  1  0.35820072  0.48220575  0.35901298  1
  O  O33  1  0.13067436  0.48924081  0.86416939  1
  O  O34  1  0.36139104  0.87307683  0.85759851  1
  O  O35  1  0.51779425  0.64179928  0.85901298  1
  O  O36  1  0.03135071  0.85412561  0.40746974  1
  O  O37  1  0.81289220  0.97730303  0.41199561  1
  O  O38  1  0.16365164  0.19538023  0.41351392  1
  O  O39  1  0.02269697  0.18710780  0.91199561  1
  O  O40  1  0.14587439  0.96864929  0.90746974  1
  O  O41  1  0.80461977  0.83634836  0.91351392  1
  O  O42  1  0.97170640  0.17305886  0.58963949  1
  O  O43  1  0.17751553  0.00322351  0.58749749  1
  O  O44  1  0.82063191  0.80329785  0.59023622  1
  O  O45  1  0.99677649  0.82248447  0.08749749  1
  O  O46  1  0.82694114  0.02829360  0.08963949  1
  O  O47  1  0.19670215  0.17936809  0.09023622  1
  O  O48  1  0.68994070  0.18014681  0.74408554  1
  O  O49  1  0.47750319  0.30945147  0.74526538  1
  O  O50  1  0.82365861  0.52442792  0.74203448  1
  O  O51  1  0.69054853  0.52249681  0.24526538  1
  O  O52  1  0.81985319  0.31005930  0.24408554  1
  O  O53  1  0.47557208  0.17634139  0.24203448  1
  O  O54  1  0.64992807  0.51249469  0.92232121  1
  O  O55  1  0.86300358  0.35210435  0.92319026  1
  O  O56  1  0.50304570  0.14682360  0.92131413  1
  O  O57  1  0.64789565  0.13699642  0.42319026  1
  O  O58  1  0.48750531  0.35007193  0.42232121  1
  O  O59  1  0.85317640  0.49695430  0.42131413  1
  O  O60  1  0.36177594  0.50475977  0.07714817  1
  O  O61  1  0.15721230  0.63980202  0.07791087  1
  O  O62  1  0.49636877  0.85742087  0.07614874  1
  O  O63  1  0.36019798  0.84278770  0.57791087  1
  O  O64  1  0.49524023  0.63822406  0.57714817  1
  O  O65  1  0.14257913  0.50363123  0.57614874  1
  O  O66  1  0.31587991  0.84521317  0.25599897  1
  O  O67  1  0.52746580  0.68320213  0.25639933  1
  O  O68  1  0.16521751  0.47957787  0.25534958  1
  O  O69  1  0.31679787  0.47253420  0.75639933  1
  O  O70  1  0.15478683  0.68412009  0.75599897  1
  O  O71  1  0.52042213  0.83478249  0.75534958  1
loop_
_geom_bond_atom_site_label_1
_geom_bond_atom_site_label_2
_geom_bond_distance
_geom_bond_site_symmetry_2
Na0 O36 2.412752 1_555
Na0 O38 2.433321 1_565
Na0 O37 2.458516 1_455
Na0 O43 2.529367 1_565
Na0 O44 2.680813 1_455
Na0 O42 2.709536 1_465
Na1 O40 2.412752 1_555
Na1 O41 2.433321 1_455
Na1 O39 2.458516 1_565
Na1 O45 2.529367 1_456
Na1 O47 2.680813 1_566
Na1 O46 2.709536 1_466
Na2 O48 2.370392 1_555
Na2 O49 2.446108 1_555
Na2 O50 2.511726 1_555
Na2 O56 2.546047 1_555
Na2 O55 2.656160 1_555
Na2 O54 2.690438 1_555
Na3 O52 2.370392 1_555
Na3 O51 2.446108 1_555
Na3 O53 2.511726 1_555
Na3 O59 2.546047 1_555
Na3 O57 2.656160 1_555
Na3 O58 2.690438 1_555
Na4 O62 2.431495 1_555
Na4 O61 2.436016 1_555
Na4 O60 2.452607 1_555
Na4 O67 2.593824 1_555
Na4 O68 2.649029 1_555
Na4 O66 2.682312 1_555
Na5 O65 2.431495 1_555
Na5 O63 2.436016 1_555
Na5 O64 2.452607 1_555
Na5 O69 2.593824 1_555
Na5 O71 2.649029 1_555
Na5 O70 2.682312 1_555
Na6 O53 2.341565 1_555
Na6 O68 2.435938 1_555
Na6 O67 2.471351 1_555
Na6 O51 2.533967 1_555
Na6 O17 2.571440 1_555
Na6 O32 2.708936 1_555
Na6 O10 2.810906 1_555
Na6 O0 2.839082 1_555
Na7 O51 2.374030 1_555
Na7 O52 2.433511 1_555
Na7 O68 2.449477 1_655
Na7 O66 2.527295 1_655
Na7 O15 2.599181 1_555
Na7 O30 2.683243 1_655
Na7 O1 2.872412 1_555
Na7 O11 2.896039 1_655
Na8 O50 2.341565 1_555
Na8 O71 2.435938 1_555
Na8 O69 2.471351 1_555
Na8 O49 2.533967 1_555
Na8 O14 2.571440 1_555
Na8 O35 2.708936 1_555
Na8 O6 2.810906 1_555
Na8 O4 2.839082 1_555
Na9 O49 2.374030 1_555
Na9 O48 2.433511 1_555
Na9 O71 2.449476 1_545
Na9 O70 2.527295 1_545
Na9 O13 2.599181 1_555
Na9 O34 2.683243 1_545
Na9 O3 2.872412 1_555
Na9 O8 2.896039 1_545
Na10 O43 2.336387 1_565
Na10 O65 2.362906 1_555
Na10 O63 2.491500 1_555
Na10 O44 2.517184 1_455
Na10 O29 2.571676 1_555
Na10 O8 2.775132 1_555
Na10 O22 2.817516 1_455
Na10 O12 2.827612 1_455
Na11 O63 2.308694 1_555
Na11 O42 2.450653 1_565
Na11 O44 2.488113 1_555
Na11 O64 2.509201 1_555
Na11 O27 2.605691 1_555
Na11 O6 2.656024 1_555
Na11 O13 2.825252 1_565
Na11 O23 2.934728 1_565
Na12 O45 2.336387 1_455
Na12 O62 2.362906 1_555
Na12 O61 2.491500 1_555
Na12 O47 2.517184 1_565
Na12 O26 2.571676 1_554
Na12 O11 2.775132 1_555
Na12 O18 2.817516 1_565
Na12 O16 2.827612 1_565
Na13 O61 2.308693 1_555
Na13 O46 2.450653 1_455
Na13 O47 2.488113 1_555
Na13 O60 2.509201 1_555
Na13 O25 2.605691 1_554
Na13 O10 2.656024 1_555
Na13 O15 2.825252 1_455
Na13 O20 2.934728 1_455
Na14 O40 2.309354 1_655
Na14 O54 2.469180 1_555
Na14 O55 2.492789 1_555
Na14 O41 2.556099 1_555
Na14 O19 2.567097 1_556
Na14 O4 2.700416 1_555
Na14 O26 2.790233 1_655
Na14 O33 2.891223 1_655
Na15 O41 2.345170 1_545
Na15 O56 2.428546 1_555
Na15 O55 2.489946 1_555
Na15 O39 2.500729 1_655
Na15 O5 2.546295 1_555
Na15 O20 2.764872 1_556
Na15 O34 2.842870 1_545
Na15 O24 2.897664 1_545
Na16 O38 2.345170 1_655
Na16 O59 2.428546 1_555
Na16 O57 2.489946 1_555
Na16 O37 2.500729 1_545
Na16 O2 2.546295 1_555
Na16 O23 2.764872 1_555
Na16 O30 2.842870 1_655
Na16 O28 2.897664 1_655
Na17 O36 2.309354 1_545
Na17 O58 2.469180 1_555
Na17 O57 2.492789 1_555
Na17 O38 2.556099 1_555
Na17 O21 2.567097 1_555
Na17 O0 2.700416 1_555
Na17 O29 2.790233 1_545
Na17 O31 2.891223 1_545
Hf0 O7 1.989464 1_555
Hf0 O6 1.992831 1_445
Hf0 O43 2.037330 1_555
Hf0 O8 2.057453 1_545
Hf0 O42 2.076469 1_455
Hf0 O44 2.138080 1_445
Hf1 O9 1.989464 1_555
Hf1 O10 1.992831 1_665
Hf1 O45 2.037330 1_555
Hf1 O11 2.057453 1_655
Hf1 O46 2.076469 1_565
Hf1 O47 2.138080 1_665
Hf2 O19 1.984822 1_556
Hf2 O18 1.995466 1_556
Hf2 O56 2.036297 1_555
Hf2 O20 2.059389 1_556
Hf2 O54 2.067440 1_555
Hf2 O55 2.144568 1_555
Hf3 O21 1.984822 1_555
Hf3 O22 1.995466 1_555
Hf3 O59 2.036297 1_555
Hf3 O23 2.059389 1_555
Hf3 O58 2.067440 1_555
Hf3 O57 2.144568 1_555
Hf4 O30 1.963310 1_555
Hf4 O31 2.032291 1_555
Hf4 O32 2.035618 1_555
Hf4 O68 2.042071 1_555
Hf4 O66 2.086291 1_555
Hf4 O67 2.105082 1_555
Hf5 O34 1.963310 1_555
Hf5 O33 2.032291 1_555
Hf5 O35 2.035618 1_555
Hf5 O71 2.042071 1_555
Hf5 O70 2.086291 1_555
Hf5 O69 2.105082 1_555
Al0 O2 1.852247 1_565
Al0 O1 1.888733 1_555
Al0 O36 1.891165 1_655
Al0 O37 2.011073 1_555
Al0 O0 2.052044 1_665
Al0 O38 2.172326 1_665
Al1 O5 1.852247 1_455
Al1 O3 1.888733 1_555
Al1 O40 1.891165 1_545
Al1 O39 2.011073 1_555
Al1 O4 2.052043 1_445
Al1 O41 2.172326 1_445
Al2 O13 1.853378 1_555
Al2 O48 1.885498 1_555
Al2 O12 1.915618 1_555
Al2 O14 2.026329 1_555
Al2 O50 2.049722 1_555
Al2 O49 2.130598 1_555
Al3 O15 1.853378 1_555
Al3 O52 1.885498 1_555
Al3 O16 1.915618 1_555
Al3 O17 2.026329 1_555
Al3 O53 2.049722 1_555
Al3 O51 2.130598 1_555
Al4 O26 1.871575 1_554
Al4 O61 1.932733 1_555
Al4 O24 1.942702 1_554
Al4 O25 1.949321 1_554
Al4 O62 2.042732 1_555
Al4 O60 2.084338 1_555
Al5 O29 1.871575 1_555
Al5 O63 1.932733 1_555
Al5 O28 1.942702 1_555
Al5 O27 1.949321 1_555
Al5 O65 2.042732 1_555
Al5 O64 2.084338 1_555
O0 P0 1.541915 1_555
O1 P1 1.528222 1_555
O2 Si0 1.628763 1_555
O3 P2 1.528222 1_555
O4 P3 1.541915 1_555
O5 Si1 1.628763 1_555
O6 Si1 1.638369 1_565
O7 P2 1.541469 1_555
O8 P3 1.558412 1_455
O9 P1 1.541469 1_555
O10 Si0 1.638369 1_455
O11 P0 1.558412 1_565
O12 P4 1.542988 1_555
O13 Si2 1.636013 1_555
O14 P5 1.540756 1_555
O15 Si3 1.636013 1_555
O16 P6 1.542988 1_555
O17 P7 1.540756 1_555
O18 P7 1.552309 1_555
O19 Si3 1.629983 1_555
O20 P6 1.553457 1_555
O21 Si2 1.629983 1_555
O22 P5 1.552309 1_555
O23 P4 1.553457 1_555
O24 P8 1.530129 1_555
O25 P9 1.536724 1_555
O26 Si4 1.640876 1_555
O27 P10 1.536724 1_555
O28 P11 1.530128 1_555
O29 Si5 1.640876 1_555
O30 Si5 1.647595 1_555
O31 P10 1.550420 1_555
O32 P11 1.556137 1_555
O33 P9 1.550420 1_555
O34 Si4 1.647595 1_555
O35 P8 1.556137 1_555
O36 Si5 1.631868 1_555
O37 P10 1.534327 1_555
O38 P11 1.549107 1_555
O39 P9 1.534327 1_555
O40 Si4 1.631868 1_555
O41 P8 1.549107 1_555
O42 P4 1.552709 1_555
O43 Si2 1.643779 1_555
O44 P5 1.574262 1_555
O45 Si3 1.643779 1_555
O46 P6 1.552709 1_555
O47 P7 1.574262 1_555
O48 Si1 1.632895 1_555
O49 P2 1.550686 1_555
O50 P3 1.537185 1_555
O51 P1 1.550685 1_555
O52 Si0 1.632895 1_555
O53 P0 1.537185 1_555
O54 P8 1.557122 1_555
O55 P9 1.575114 1_655
O56 Si4 1.638621 1_545
O57 P10 1.575114 1_545
O58 P11 1.557122 1_555
O59 Si5 1.638621 1_655
O60 P7 1.533973 1_555
O61 Si3 1.655507 1_455
O62 P6 1.536070 1_565
O63 Si2 1.655507 1_565
O64 P5 1.533973 1_555
O65 P4 1.536070 1_455
O66 P0 1.559276 1_565
O67 P1 1.555315 1_555
O68 Si0 1.679802 1_455
O69 P2 1.555315 1_555
O70 P3 1.559276 1_455
O71 Si1 1.679802 1_565
