# generated using pymatgen
data_BaSi7N10
_symmetry_space_group_name_H-M   'P 1'
_cell_length_a   6.72166764
_cell_length_b   6.87598128
_cell_length_c   9.62714742
_cell_angle_alpha   73.75917098
_cell_angle_beta   90.00000000
_cell_angle_gamma   90.00000000
_symmetry_Int_Tables_number   1
_chemical_formula_structural   BaSi7N10
_chemical_formula_sum   'Ba2 Si14 N20'
_cell_volume   427.19226850
_cell_formula_units_Z   2
loop_
 _symmetry_equiv_pos_site_id
 _symmetry_equiv_pos_as_xyz
  1  'x, y, z'
loop_
 _atom_site_type_symbol
 _atom_site_label
 _atom_site_symmetry_multiplicity
 _atom_site_fract_x
 _atom_site_fract_y
 _atom_site_fract_z
 _atom_site_occupancy
  Ba  Ba0  1  0.59655655  0.28861289  0.78833633  1
  Ba  Ba1  1  0.40344345  0.28861289  0.28833633  1
  Si  Si0  1  0.86549034  0.99538842  0.46815665  1
  Si  Si1  1  0.13450966  0.99538842  0.96815665  1
  Si  Si2  1  0.87124526  0.81256114  0.77343509  1
  Si  Si3  1  0.12875474  0.81256114  0.27343509  1
  Si  Si4  1  0.11856023  0.62516776  0.57711635  1
  Si  Si5  1  0.88143977  0.62516776  0.07711635  1
  Si  Si6  1  0.10604222  0.43780443  0.88809070  1
  Si  Si7  1  0.89395778  0.43780443  0.38809070  1
  Si  Si8  1  0.12404125  0.17820487  0.65325071  1
  Si  Si9  1  0.87595875  0.17820487  0.15325071  1
  Si  Si10  1  0.47302196  0.86837564  0.63258754  1
  Si  Si11  1  0.52697804  0.86837564  0.13258754  1
  Si  Si12  1  0.47228312  0.68597733  0.94463084  1
  Si  Si13  1  0.52771688  0.68597733  0.44463084  1
  N  N0  1  0.91573310  0.03253954  0.63699655  1
  N  N1  1  0.08426690  0.03253954  0.13699655  1
  N  N2  1  0.88874151  0.21686611  0.32911186  1
  N  N3  1  0.11125849  0.21686611  0.82911186  1
  N  N4  1  0.92248957  0.40760469  0.02378434  1
  N  N5  1  0.07751043  0.40760469  0.52378434  1
  N  N6  1  0.99960230  0.61414531  0.73695158  1
  N  N7  1  0.00039770  0.61414531  0.23695158  1
  N  N8  1  0.03701978  0.82697635  0.43698174  1
  N  N9  1  0.96298022  0.82697635  0.93698174  1
  N  N10  1  0.61706977  0.77495750  0.78865633  1
  N  N11  1  0.38293023  0.77495750  0.28865633  1
  N  N12  1  0.34038233  0.07258871  0.63025756  1
  N  N13  1  0.65961767  0.07258871  0.13025756  1
  N  N14  1  0.33159752  0.48839147  0.94332445  1
  N  N15  1  0.66840248  0.48839147  0.44332445  1
  N  N16  1  0.36734247  0.89719894  0.98492043  1
  N  N17  1  0.63265753  0.89719894  0.48492043  1
  N  N18  1  0.63097433  0.65108092  0.09516895  1
  N  N19  1  0.36902567  0.65108092  0.59516895  1
loop_
_geom_bond_atom_site_label_1
_geom_bond_atom_site_label_2
_geom_bond_distance
_geom_bond_site_symmetry_2
Ba0 N14 2.903728 1_555
Ba0 N12 2.958343 1_555
Ba0 N19 3.068631 1_555
Ba0 N16 3.217113 1_545
Ba0 N13 3.238296 1_556
Ba0 N15 3.255813 1_555
Ba0 N3 3.306036 1_555
Ba0 N10 3.347800 1_555
Ba0 N0 3.355697 1_555
Ba0 N4 3.412381 1_556
Ba0 N6 3.460495 1_555
Ba0 N3 3.501195 1_655
Ba0 N10 3.533716 1_545
Ba1 N15 2.903728 1_555
Ba1 N13 2.958343 1_555
Ba1 N18 3.068631 1_555
Ba1 N17 3.217113 1_545
Ba1 N12 3.238296 1_555
Ba1 N14 3.255813 1_554
Ba1 N2 3.306036 1_555
Ba1 N11 3.347800 1_555
Ba1 N1 3.355697 1_555
Ba1 N5 3.412381 1_555
Ba1 N7 3.460495 1_555
Ba1 N2 3.501195 1_455
Ba1 N11 3.533716 1_545
N0 Si2 1.729536 1_545
N0 Si0 1.747466 1_545
N0 Si8 1.753807 1_655
N1 Si3 1.729536 1_545
N1 Si1 1.747466 1_544
N1 Si9 1.753807 1_455
N2 Si0 1.730661 1_545
N2 Si7 1.764647 1_555
N2 Si9 1.787788 1_555
N3 Si1 1.730661 1_545
N3 Si6 1.764647 1_555
N3 Si8 1.787788 1_555
N4 Si5 1.734148 1_555
N4 Si9 1.743463 1_555
N4 Si6 1.766389 1_654
N5 Si4 1.734148 1_555
N5 Si8 1.743463 1_555
N5 Si7 1.766389 1_455
N6 Si4 1.716869 1_655
N6 Si2 1.731213 1_555
N6 Si6 1.764191 1_655
N7 Si5 1.716869 1_455
N7 Si3 1.731213 1_555
N7 Si7 1.764191 1_455
N8 Si0 1.718942 1_455
N8 Si3 1.719401 1_555
N8 Si4 1.731719 1_555
N9 Si1 1.718942 1_655
N9 Si2 1.719401 1_555
N9 Si5 1.731719 1_556
N10 Si2 1.728019 1_555
N10 Si12 1.749958 1_555
N10 Si10 1.751500 1_555
N11 Si3 1.728019 1_555
N11 Si13 1.749958 1_555
N11 Si11 1.751500 1_555
N12 Si10 1.658145 1_545
N12 Si8 1.667610 1_555
N13 Si11 1.658145 1_545
N13 Si9 1.667610 1_555
N14 Si12 1.658234 1_555
N14 Si6 1.675046 1_555
N15 Si13 1.658234 1_555
N15 Si7 1.675046 1_555
N16 Si1 1.694175 1_555
N16 Si11 1.747579 1_556
N16 Si12 1.752837 1_555
N17 Si0 1.694175 1_555
N17 Si10 1.747579 1_555
N17 Si13 1.752837 1_555
N18 Si5 1.706927 1_555
N18 Si12 1.761017 1_554
N18 Si11 1.775344 1_555
N19 Si4 1.706927 1_555
N19 Si13 1.761017 1_555
N19 Si10 1.775344 1_555
