# generated using pymatgen
data_Dy2MgV2O7
_symmetry_space_group_name_H-M   'P 1'
_cell_length_a   5.91515204
_cell_length_b   5.91523238
_cell_length_c   5.51500740
_cell_angle_alpha   85.68612540
_cell_angle_beta   94.32491220
_cell_angle_gamma   68.84229937
_symmetry_Int_Tables_number   1
_chemical_formula_structural   Dy2MgV2O7
_chemical_formula_sum   'Dy2 Mg1 V2 O7'
_cell_volume   178.35498414
_cell_formula_units_Z   1
loop_
 _symmetry_equiv_pos_site_id
 _symmetry_equiv_pos_as_xyz
  1  'x, y, z'
loop_
 _atom_site_type_symbol
 _atom_site_label
 _atom_site_symmetry_multiplicity
 _atom_site_fract_x
 _atom_site_fract_y
 _atom_site_fract_z
 _atom_site_occupancy
  Dy  Dy0  1  0.32783000  0.31308700  0.50136400  1
  Dy  Dy1  1  0.68686400  0.67218600  0.50136100  1
  Mg  Mg0  1  0.05550100  0.94451300  0.41119900  1
  V  V0  1  0.25904900  0.74079000  0.90531600  1
  V  V1  1  0.72758700  0.27241100  0.09870500  1
  O  O0  1  0.05861300  0.65688300  0.64043200  1
  O  O1  1  0.34311400  0.94146900  0.64032700  1
  O  O2  1  0.43544800  0.56460400  0.22958000  1
  O  O3  1  0.56379900  0.43621200  0.77592600  1
  O  O4  1  0.01910300  0.98091000  0.04408200  1
  O  O5  1  0.65478800  0.04839000  0.33211000  1
  O  O6  1  0.95163700  0.34521100  0.33209900  1
loop_
_geom_bond_atom_site_label_1
_geom_bond_atom_site_label_2
_geom_bond_distance
_geom_bond_site_symmetry_2
Dy0 O1 2.240597 1_545
Dy0 O6 2.283416 1_455
Dy0 O0 2.311040 1_555
Dy0 O3 2.313544 1_555
Dy0 O2 2.314627 1_555
Dy0 O5 2.317207 1_555
Dy1 O0 2.241279 1_655
Dy1 O5 2.283723 1_565
Dy1 O1 2.310782 1_555
Dy1 O3 2.313642 1_555
Dy1 O2 2.313811 1_555
Dy1 O6 2.317453 1_555
Mg0 O4 2.006774 1_555
Mg0 O1 2.035110 1_555
Mg0 O0 2.035594 1_555
Mg0 O5 2.222255 1_465
Mg0 O6 2.222283 1_465
O0 V0 2.014621 1_555
O1 V0 2.016642 1_555
O2 V0 2.006527 1_554
O2 V1 2.171218 1_555
O3 V1 1.961903 1_556
O3 V0 2.246696 1_555
O4 V0 1.868067 1_554
O4 V1 2.011842 1_465
O5 V1 1.958899 1_555
O6 V1 1.958754 1_555
