# generated using pymatgen
data_TiInP(SO6)2
_symmetry_space_group_name_H-M   'P 1'
_cell_length_a   8.76651143
_cell_length_b   8.77935864
_cell_length_c   22.61069292
_cell_angle_alpha   89.60690608
_cell_angle_beta   90.00000000
_cell_angle_gamma   119.95160485
_symmetry_Int_Tables_number   1
_chemical_formula_structural   TiInP(SO6)2
_chemical_formula_sum   'Ti6 In6 P6 S12 O72'
_cell_volume   1507.75946831
_cell_formula_units_Z   6
loop_
 _symmetry_equiv_pos_site_id
 _symmetry_equiv_pos_as_xyz
  1  'x, y, z'
loop_
 _atom_site_type_symbol
 _atom_site_label
 _atom_site_symmetry_multiplicity
 _atom_site_fract_x
 _atom_site_fract_y
 _atom_site_fract_z
 _atom_site_occupancy
  Ti  Ti0  1  0.99719077  0.99679081  0.64270795  1
  Ti  Ti1  1  0.99960004  0.99679081  0.14270795  1
  Ti  Ti2  1  0.65873029  0.33028406  0.97634295  1
  Ti  Ti3  1  0.67155477  0.33028406  0.47634295  1
  Ti  Ti4  1  0.34699556  0.65627453  0.30944227  1
  Ti  Ti5  1  0.30927796  0.65627453  0.80944227  1
  In  In0  1  0.00323230  0.00207997  0.35478073  1
  In  In1  1  0.99884767  0.00207997  0.85478073  1
  In  In2  1  0.67316080  0.33712242  0.68855378  1
  In  In3  1  0.66396262  0.33712242  0.18855378  1
  In  In4  1  0.33097598  0.65825214  0.02172959  1
  In  In5  1  0.32727515  0.65825214  0.52172959  1
  P  P0  1  0.71677020  0.72002938  0.25008344  1
  P  P1  1  0.00325918  0.72002938  0.75008344  1
  P  P2  1  0.94841866  0.32192612  0.58327630  1
  P  P3  1  0.37350847  0.32192612  0.08327630  1
  P  P4  1  0.03526133  0.37980136  0.91694772  1
  P  P5  1  0.34453903  0.37980136  0.41694772  1
  S  S0  1  0.28529246  0.98565621  0.24969588  1
  S  S1  1  0.00934476  0.29474419  0.24866924  1
  S  S2  1  0.28539943  0.29474419  0.74866924  1
  S  S3  1  0.70036375  0.98565621  0.74969588  1
  S  S4  1  0.37365478  0.04918101  0.58317080  1
  S  S5  1  0.67556767  0.62764040  0.58278561  1
  S  S6  1  0.95207372  0.62764040  0.08278561  1
  S  S7  1  0.67552723  0.04918101  0.08317080  1
  S  S8  1  0.61771086  0.65852602  0.91647373  1
  S  S9  1  0.34284680  0.95906519  0.91660772  1
  S  S10  1  0.61621739  0.95906519  0.41660772  1
  S  S11  1  0.04081416  0.65852602  0.41647373  1
  O  O0  1  0.21710385  0.02792042  0.30268820  1
  O  O1  1  0.82011782  0.79534347  0.30625905  1
  O  O2  1  0.97282284  0.18962907  0.30297455  1
  O  O3  1  0.21680623  0.18962907  0.80297455  1
  O  O4  1  0.97522564  0.79534347  0.80625905  1
  O  O5  1  0.81081657  0.02792042  0.80268820  1
  O  O6  1  0.79141462  0.96318619  0.69719886  1
  O  O7  1  0.17044052  0.21090571  0.69664653  1
  O  O8  1  0.03386400  0.84248635  0.69564160  1
  O  O9  1  0.80862235  0.84248635  0.19564160  1
  O  O10  1  0.04046520  0.21090571  0.19664653  1
  O  O11  1  0.17177158  0.96318619  0.19719886  1
  O  O12  1  0.87307289  0.35607200  0.63831715  1
  O  O13  1  0.47719490  0.12048157  0.63699594  1
  O  O14  1  0.63348957  0.51956170  0.63646576  1
  O  O15  1  0.88607313  0.51956170  0.13646576  1
  O  O16  1  0.64328767  0.12048157  0.13699594  1
  O  O17  1  0.48300011  0.35607200  0.13831715  1
  O  O18  1  0.46862063  0.29467352  0.02837949  1
  O  O19  1  0.83829715  0.54240852  0.03081713  1
  O  O20  1  0.70489665  0.16439093  0.03054598  1
  O  O21  1  0.45949528  0.16439093  0.53054598  1
  O  O22  1  0.70411237  0.54240852  0.53081713  1
  O  O23  1  0.82605389  0.29467352  0.52837949  1
  O  O24  1  0.55058992  0.69647400  0.97053997  1
  O  O25  1  0.15050159  0.45643737  0.97043088  1
  O  O26  1  0.31183495  0.85567468  0.97089283  1
  O  O27  1  0.54383873  0.85567468  0.47089283  1
  O  O28  1  0.30593477  0.45643737  0.47043088  1
  O  O29  1  0.14588308  0.69647400  0.47053997  1
  O  O30  1  0.12539699  0.63028755  0.36461776  1
  O  O31  1  0.50314669  0.87340681  0.36429750  1
  O  O32  1  0.37398596  0.50439877  0.36098172  1
  O  O33  1  0.13041181  0.50439877  0.86098172  1
  O  O34  1  0.37025912  0.87340681  0.86429750  1
  O  O35  1  0.50488956  0.63028755  0.86461776  1
  O  O36  1  0.00380157  0.80265571  0.40906352  1
  O  O37  1  0.79600108  0.99207596  0.40925109  1
  O  O38  1  0.19433421  0.19643433  0.40546575  1
  O  O39  1  0.00210012  0.19643433  0.90546575  1
  O  O40  1  0.19607489  0.99207596  0.90925109  1
  O  O41  1  0.79885414  0.80265571  0.90906352  1
  O  O42  1  0.95770227  0.14875967  0.59459963  1
  O  O43  1  0.19854041  0.03951407  0.59140964  1
  O  O44  1  0.84331041  0.79955924  0.59205652  1
  O  O45  1  0.95624884  0.79955924  0.09205652  1
  O  O46  1  0.84097366  0.03951407  0.09140964  1
  O  O47  1  0.19105740  0.14875967  0.09459963  1
  O  O48  1  0.66373933  0.12996601  0.74113114  1
  O  O49  1  0.46328238  0.32462193  0.73989905  1
  O  O50  1  0.85442222  0.53473171  0.74183286  1
  O  O51  1  0.68031049  0.53473171  0.24183286  1
  O  O52  1  0.86134055  0.32462193  0.23989905  1
  O  O53  1  0.46622767  0.12996601  0.24113114  1
  O  O54  1  0.62574224  0.49195663  0.92630338  1
  O  O55  1  0.85571500  0.37227383  0.92870470  1
  O  O56  1  0.50947251  0.13355713  0.92422534  1
  O  O57  1  0.62408562  0.13355713  0.42422534  1
  O  O58  1  0.51655983  0.37227383  0.42870470  1
  O  O59  1  0.86621539  0.49195663  0.42630338  1
  O  O60  1  0.33907712  0.47310229  0.07454577  1
  O  O61  1  0.13405785  0.66852333  0.07429515  1
  O  O62  1  0.52709580  0.87166685  0.07442814  1
  O  O63  1  0.34457005  0.87166685  0.57442814  1
  O  O64  1  0.53446448  0.66852333  0.57429515  1
  O  O65  1  0.13402417  0.47310229  0.57454577  1
  O  O66  1  0.28808050  0.81923964  0.25922262  1
  O  O67  1  0.53155184  0.71046164  0.25992060  1
  O  O68  1  0.17337623  0.46978759  0.25768647  1
  O  O69  1  0.29641036  0.46978759  0.75768647  1
  O  O70  1  0.17890880  0.71046164  0.75992060  1
  O  O71  1  0.53115814  0.81923964  0.75922262  1
loop_
_geom_bond_atom_site_label_1
_geom_bond_atom_site_label_2
_geom_bond_distance
_geom_bond_site_symmetry_2
In0 O1 2.047638 1_445
In0 O38 2.050346 1_555
In0 O0 2.127365 1_555
In0 O36 2.133322 1_545
In0 O2 2.136864 1_455
In0 O37 2.159665 1_445
In1 O4 2.047638 1_545
In1 O39 2.050346 1_655
In1 O5 2.127365 1_555
In1 O41 2.133322 1_545
In1 O3 2.136864 1_655
In1 O40 2.159666 1_645
In2 O12 2.023747 1_555
In2 O50 2.064464 1_555
In2 O49 2.131130 1_555
In2 O48 2.132628 1_555
In2 O14 2.145650 1_555
In2 O13 2.166916 1_555
In3 O17 2.023747 1_555
In3 O51 2.064464 1_555
In3 O52 2.131130 1_555
In3 O53 2.132628 1_555
In3 O15 2.145650 1_555
In3 O16 2.166916 1_555
In4 O60 2.040112 1_555
In4 O25 2.053502 1_554
In4 O24 2.123301 1_554
In4 O61 2.134886 1_555
In4 O26 2.148630 1_554
In4 O62 2.168017 1_555
In5 O65 2.040112 1_555
In5 O28 2.053502 1_555
In5 O29 2.123301 1_555
In5 O64 2.134886 1_555
In5 O27 2.148630 1_555
In5 O63 2.168017 1_555
O0 S0 1.469104 1_545
O1 P0 1.511525 1_555
O2 S1 1.466716 1_655
O3 S2 1.466716 1_555
O4 P1 1.511525 1_655
O5 S3 1.469104 1_545
O6 S3 1.498478 1_555
O6 Ti0 2.079142 1_555
O7 S2 1.487346 1_555
O7 Ti0 2.123292 1_445
O8 P1 1.561060 1_555
O8 Ti0 1.945171 1_455
O9 P0 1.561060 1_555
O9 Ti1 1.945171 1_555
O10 S1 1.487346 1_555
O10 Ti1 2.123292 1_445
O11 S0 1.498478 1_555
O11 Ti1 2.079142 1_455
O12 P2 1.509239 1_555
O13 S4 1.462867 1_555
O14 S5 1.464337 1_555
O15 S6 1.464337 1_555
O16 S7 1.462867 1_555
O17 P3 1.509239 1_555
O18 P3 1.580020 1_555
O18 Ti2 1.932437 1_554
O19 S6 1.484018 1_555
O19 Ti2 2.137167 1_554
O20 S7 1.492859 1_555
O20 Ti2 2.085931 1_554
O21 S4 1.492859 1_555
O21 Ti3 2.085931 1_555
O22 S5 1.484018 1_555
O22 Ti3 2.137167 1_555
O23 P2 1.580020 1_555
O23 Ti3 1.932437 1_555
O24 S8 1.467315 1_555
O25 P4 1.506029 1_555
O26 S9 1.463798 1_555
O27 S10 1.463798 1_555
O28 P5 1.506030 1_555
O29 S11 1.467315 1_555
O30 S11 1.474307 1_555
O30 Ti4 2.221678 1_555
O31 S10 1.488253 1_555
O31 Ti4 2.114931 1_555
O32 P5 1.601117 1_555
O32 Ti4 1.866976 1_555
O33 P4 1.601117 1_555
O33 Ti5 1.866975 1_555
O34 S9 1.488253 1_555
O34 Ti5 2.114931 1_555
O35 S8 1.474307 1_555
O35 Ti5 2.221678 1_555
O36 S11 1.463411 1_555
O37 S10 1.462503 1_555
O38 P5 1.510605 1_555
O39 P4 1.510608 1_555
O40 S9 1.462494 1_555
O41 S8 1.463417 1_555
O42 P2 1.581665 1_555
O42 Ti0 1.877339 1_545
O43 S4 1.506072 1_555
O43 Ti0 1.983597 1_445
O44 S5 1.507497 1_555
O44 Ti0 1.955631 1_555
O45 S6 1.507501 1_555
O45 Ti1 1.955631 1_555
O46 S7 1.506064 1_555
O46 Ti1 1.983597 1_545
O47 P3 1.581669 1_555
O47 Ti1 1.877339 1_445
O48 S3 1.465796 1_545
O49 S2 1.459704 1_555
O50 P1 1.506113 1_655
O51 P0 1.506115 1_555
O52 S1 1.459696 1_655
O53 S0 1.465802 1_545
O54 S8 1.513684 1_555
O54 Ti2 1.940681 1_555
O55 P4 1.564732 1_655
O55 Ti2 1.907112 1_555
O56 S9 1.509754 1_545
O56 Ti2 1.963437 1_555
O57 S10 1.509746 1_545
O57 Ti3 1.963437 1_555
O58 P5 1.564749 1_555
O58 Ti3 1.907112 1_555
O59 S11 1.513675 1_655
O59 Ti3 1.940681 1_555
O60 P3 1.512630 1_555
O61 S6 1.462241 1_455
O62 S7 1.462993 1_565
O63 S4 1.462987 1_565
O64 S5 1.462258 1_555
O65 P2 1.512619 1_455
O66 S0 1.487598 1_555
O66 Ti4 2.078141 1_555
O67 P0 1.598920 1_555
O67 Ti4 1.822599 1_555
O68 S1 1.506224 1_555
O68 Ti4 1.976003 1_555
O69 S2 1.506227 1_555
O69 Ti5 1.976003 1_555
O70 P1 1.598911 1_555
O70 Ti5 1.822599 1_555
O71 S3 1.487602 1_555
O71 Ti5 2.078141 1_555
