# generated using pymatgen
data_Na2CO3
_symmetry_space_group_name_H-M   'P 1'
_cell_length_a   5.21056967
_cell_length_b   5.21057004
_cell_length_c   6.07265765
_cell_angle_alpha   90.00000000
_cell_angle_beta   90.00000000
_cell_angle_gamma   120.00001005
_symmetry_Int_Tables_number   1
_chemical_formula_structural   Na2CO3
_chemical_formula_sum   'Na4 C2 O6'
_cell_volume   142.78409427
_cell_formula_units_Z   2
loop_
 _symmetry_equiv_pos_site_id
 _symmetry_equiv_pos_as_xyz
  1  'x, y, z'
loop_
 _atom_site_type_symbol
 _atom_site_label
 _atom_site_symmetry_multiplicity
 _atom_site_fract_x
 _atom_site_fract_y
 _atom_site_fract_z
 _atom_site_occupancy
  Na  Na0  1  0.33333300  0.66666700  0.25000000  1
  Na  Na1  1  0.66666700  0.33333300  0.75000000  1
  Na  Na2  1  0.00000000  -0.00000000  0.50000000  1
  Na  Na3  1  0.00000000  -0.00000000  -0.00000000  1
  C  C0  1  0.66666700  0.33333300  0.25000000  1
  C  C1  1  0.33333300  0.66666700  0.75000000  1
  O  O0  1  0.80963158  0.61926217  0.25000000  1
  O  O1  1  0.19036842  0.38073783  0.75000000  1
  O  O2  1  0.19036842  0.80963158  0.75000000  1
  O  O3  1  0.38073783  0.19036842  0.25000000  1
  O  O4  1  0.80963158  0.19036842  0.25000000  1
  O  O5  1  0.61926217  0.80963158  0.75000000  1
loop_
_geom_bond_atom_site_label_1
_geom_bond_atom_site_label_2
_geom_bond_distance
_geom_bond_site_symmetry_2
Na0 O0 2.614047 1_455
Na0 O3 2.614047 1_565
Na0 O4 2.614051 1_455
Na0 O4 2.614051 1_565
Na0 O0 2.614057 1_555
Na0 O3 2.614057 1_555
Na1 O1 2.614047 1_655
Na1 O5 2.614047 1_545
Na1 O2 2.614051 1_655
Na1 O2 2.614051 1_545
Na1 O1 2.614057 1_555
Na1 O5 2.614057 1_555
Na2 O4 2.292725 1_455
Na2 O2 2.292725 1_545
Na2 O3 2.292728 1_555
Na2 O5 2.292728 1_445
Na2 O0 2.292728 1_445
Na2 O1 2.292728 1_555
Na3 O4 2.292725 1_455
Na3 O2 2.292725 1_544
Na3 O3 2.292728 1_555
Na3 O5 2.292728 1_444
Na3 O0 2.292728 1_445
Na3 O1 2.292728 1_554
C0 O3 1.290251 1_555
C0 O0 1.290251 1_555
C0 O4 1.290251 1_555
C1 O5 1.290251 1_555
C1 O1 1.290251 1_555
C1 O2 1.290251 1_555
