# generated using pymatgen
data_Na12Ca2Nb10Si15(SO24)3
_symmetry_space_group_name_H-M   'P 1'
_cell_length_a   9.05314400
_cell_length_b   9.05915903
_cell_length_c   22.86832220
_cell_angle_alpha   90.28963653
_cell_angle_beta   89.90638276
_cell_angle_gamma   119.83651885
_symmetry_Int_Tables_number   1
_chemical_formula_structural   Na12Ca2Nb10Si15(SO24)3
_chemical_formula_sum   'Na12 Ca2 Nb10 Si15 S3 O72'
_cell_volume   1626.89509968
_cell_formula_units_Z   1
loop_
 _symmetry_equiv_pos_site_id
 _symmetry_equiv_pos_as_xyz
  1  'x, y, z'
loop_
 _atom_site_type_symbol
 _atom_site_label
 _atom_site_symmetry_multiplicity
 _atom_site_fract_x
 _atom_site_fract_y
 _atom_site_fract_z
 _atom_site_occupancy
  Na  Na0  1  0.37472147  0.36598013  0.24349760  1
  Na  Na1  1  0.99084873  0.61945113  0.24204465  1
  Na  Na2  1  0.63351451  0.62532036  0.74384750  1
  Na  Na3  1  0.37938047  0.00851292  0.74183367  1
  Na  Na4  1  0.02380286  0.68087808  0.58432371  1
  Na  Na5  1  0.65654543  0.97670328  0.58393135  1
  Na  Na6  1  0.00939201  0.00904006  0.49756956  1
  Na  Na7  1  0.00089277  0.99883046  0.00022279  1
  Na  Na8  1  0.68951124  0.33365623  0.83147924  1
  Na  Na9  1  0.66586342  0.31209167  0.33250980  1
  Na  Na10  1  0.33224778  0.66641195  0.16231948  1
  Na  Na11  1  0.32281645  0.64888697  0.66412659  1
  Ca  Ca0  1  0.68030767  0.33585364  0.68475803  1
  Ca  Ca1  1  0.66825024  0.32615886  0.18378976  1
  Nb  Nb0  1  0.00877418  0.01322672  0.35934539  1
  Nb  Nb1  1  0.98773294  0.98990184  0.85987855  1
  Nb  Nb2  1  0.99042482  0.98888311  0.64268087  1
  Nb  Nb3  1  0.02310471  0.01106316  0.14281317  1
  Nb  Nb4  1  0.66532082  0.34725646  0.97773785  1
  Nb  Nb5  1  0.66587781  0.32954942  0.47905953  1
  Nb  Nb6  1  0.32116100  0.65822938  0.01720281  1
  Nb  Nb7  1  0.33391640  0.66588986  0.51625601  1
  Nb  Nb8  1  0.32550630  0.66635407  0.31579702  1
  Nb  Nb9  1  0.33046206  0.67475735  0.81620797  1
  Si  Si0  1  0.28741042  0.99542698  0.25315586  1
  Si  Si1  1  0.00169981  0.28867345  0.25202440  1
  Si  Si2  1  0.00416279  0.71427529  0.75221987  1
  Si  Si3  1  0.70825261  0.99597317  0.75299227  1
  Si  Si4  1  0.96577925  0.33656300  0.58193852  1
  Si  Si5  1  0.37227975  0.04017306  0.58405696  1
  Si  Si6  1  0.65504221  0.61768556  0.58482564  1
  Si  Si7  1  0.96188085  0.62943108  0.08566331  1
  Si  Si8  1  0.37934055  0.34372760  0.08498007  1
  Si  Si9  1  0.61501807  0.66486885  0.91641660  1
  Si  Si10  1  0.03942600  0.37565107  0.91553725  1
  Si  Si11  1  0.33760748  0.96333599  0.91829008  1
  Si  Si12  1  0.62279652  0.95768413  0.41602411  1
  Si  Si13  1  0.34256230  0.38183747  0.41497849  1
  Si  Si14  1  0.03655178  0.66443037  0.41733593  1
  S  S0  1  0.71247832  0.72261653  0.25138553  1
  S  S1  1  0.27719727  0.28697047  0.75180605  1
  S  S2  1  0.66619341  0.03348978  0.08102911  1
  O  O0  1  0.16934521  -0.00087426  0.30692788  1
  O  O1  1  0.81416744  0.80648729  0.30420874  1
  O  O2  1  0.99043817  0.16938760  0.30796363  1
  O  O3  1  0.19334246  0.18647122  0.80427017  1
  O  O4  1  0.00487053  0.83385039  0.80672361  1
  O  O5  1  0.83136458  0.00816179  0.80767481  1
  O  O6  1  0.80653673  0.97464978  0.69355278  1
  O  O7  1  0.17728104  0.20480721  0.69770326  1
  O  O8  1  0.03159949  0.83325074  0.69232329  1
  O  O9  1  0.79293297  0.82151371  0.19767501  1
  O  O10  1  0.02371352  0.18572147  0.19440786  1
  O  O11  1  0.16593725  0.96846495  0.19290335  1
  O  O12  1  0.91231711  0.40090585  0.63838145  1
  O  O13  1  0.47748061  0.08966677  0.64381918  1
  O  O14  1  0.62266048  0.53246938  0.64724249  1
  O  O15  1  0.91029785  0.53607697  0.14682254  1
  O  O16  1  0.63448515  0.09715674  0.13493763  1
  O  O17  1  0.46544102  0.37181334  0.14708833  1
  O  O18  1  0.47830695  0.31128159  0.02912906  1
  O  O19  1  0.83260217  0.52024132  0.02982903  1
  O  O20  1  0.69291201  0.14458730  0.02978485  1
  O  O21  1  0.47490525  0.16724915  0.52881649  1
  O  O22  1  0.69875559  0.52567697  0.53044299  1
  O  O23  1  0.83184147  0.29506375  0.52670157  1
  O  O24  1  0.52365958  0.69357361  0.97181732  1
  O  O25  1  0.16201240  0.46941998  0.97171894  1
  O  O26  1  0.30676360  0.83440046  0.97124737  1
  O  O27  1  0.53426712  0.84321203  0.47369497  1
  O  O28  1  0.31244360  0.47776149  0.46986400  1
  O  O29  1  0.15987724  0.69536830  0.47307595  1
  O  O30  1  0.13363435  0.63750268  0.35893859  1
  O  O31  1  0.49689825  0.85495545  0.35973968  1
  O  O32  1  0.36047077  0.49420908  0.35631766  1
  O  O33  1  0.13980613  0.50251721  0.85936347  1
  O  O34  1  0.36407568  0.86902074  0.85845259  1
  O  O35  1  0.50326124  0.63898267  0.85682413  1
  O  O36  1  0.01758775  0.83246643  0.40831521  1
  O  O37  1  0.80977112  0.97417655  0.40771544  1
  O  O38  1  0.16985565  0.19182499  0.41064863  1
  O  O39  1  0.02662142  0.19092468  0.90738917  1
  O  O40  1  0.17019972  0.98381109  0.90855513  1
  O  O41  1  0.80871843  0.83051779  0.91066595  1
  O  O42  1  0.97247303  0.15804764  0.59086597  1
  O  O43  1  0.17888979  0.01719128  0.58944443  1
  O  O44  1  0.83708075  0.81290409  0.58892678  1
  O  O45  1  0.97132741  0.81886684  0.08924920  1
  O  O46  1  0.82319401  0.01678282  0.08643384  1
  O  O47  1  0.18390705  0.16517612  0.08766547  1
  O  O48  1  0.66921663  0.14834467  0.75597140  1
  O  O49  1  0.44755533  0.30430546  0.74894992  1
  O  O50  1  0.82936113  0.53991901  0.75602374  1
  O  O51  1  0.69423124  0.55138416  0.24915173  1
  O  O52  1  0.84908254  0.32747310  0.25478999  1
  O  O53  1  0.46271947  0.16935934  0.25401630  1
  O  O54  1  0.63915694  0.49720342  0.92386398  1
  O  O55  1  0.85280219  0.35626314  0.92535838  1
  O  O56  1  0.50866543  0.14741395  0.92657428  1
  O  O57  1  0.63975633  0.14433620  0.42286990  1
  O  O58  1  0.50787714  0.36017073  0.42398158  1
  O  O59  1  0.85332222  0.49309627  0.42477400  1
  O  O60  1  0.34718264  0.50253482  0.07043378  1
  O  O61  1  0.15556960  0.66558770  0.06996291  1
  O  O62  1  0.51661363  0.85966871  0.07183986  1
  O  O63  1  0.33826507  0.84617652  0.56995632  1
  O  O64  1  0.50904005  0.66944750  0.57135570  1
  O  O65  1  0.15578298  0.49706321  0.56773202  1
  O  O66  1  0.29285255  0.81560544  0.25630653  1
  O  O67  1  0.53730085  0.70137110  0.25527563  1
  O  O68  1  0.18669273  0.47348445  0.25587989  1
  O  O69  1  0.29717200  0.46131526  0.75501603  1
  O  O70  1  0.18328796  0.70572510  0.75619144  1
  O  O71  1  0.52404071  0.81072076  0.75623789  1
loop_
_geom_bond_atom_site_label_1
_geom_bond_atom_site_label_2
_geom_bond_distance
_geom_bond_site_symmetry_2
Na0 O53 2.298310 1_555
Na0 O17 2.343113 1_555
Na0 O68 2.360419 1_555
Na0 O51 2.523772 1_555
Na0 O67 2.648330 1_555
Na0 O32 2.853109 1_555
Na0 O10 2.975638 1_555
Na1 O15 2.298819 1_555
Na1 O52 2.314554 1_555
Na1 O66 2.429388 1_655
Na1 O51 2.443261 1_555
Na1 O68 2.707617 1_655
Na1 O30 2.939399 1_655
Na1 O11 2.969072 1_655
Na2 O50 2.277818 1_555
Na2 O14 2.344655 1_555
Na2 O71 2.352471 1_555
Na2 O49 2.536959 1_555
Na2 O69 2.654068 1_555
Na2 O35 2.865797 1_555
Na2 O6 2.981561 1_555
Na3 O48 2.298998 1_555
Na3 O13 2.390334 1_555
Na3 O49 2.436818 1_555
Na3 O70 2.438269 1_545
Na3 O71 2.716008 1_545
Na3 O34 2.930354 1_545
Na3 O8 2.955528 1_545
Na4 O63 2.492979 1_555
Na4 O44 2.511791 1_455
Na4 O65 2.513255 1_555
Na4 O12 2.541686 1_455
Na4 O43 2.647243 1_565
Na4 O29 2.799861 1_555
Na4 O8 2.807011 1_555
Na4 O22 2.834061 1_455
Na5 O64 2.430688 1_555
Na5 O42 2.495555 1_565
Na5 O63 2.532170 1_555
Na5 O13 2.679584 1_565
Na5 O44 2.702197 1_555
Na5 O27 2.772932 1_555
Na5 O23 2.833068 1_565
Na5 O6 2.857497 1_555
Na6 O38 2.536456 1_555
Na6 O43 2.582755 1_555
Na6 O36 2.610541 1_545
Na6 O42 2.627423 1_455
Na6 O37 2.650583 1_445
Na6 O44 2.687768 1_445
Na7 O45 2.544007 1_455
Na7 O47 2.551598 1_565
Na7 O46 2.597696 1_465
Na7 O41 2.624225 1_454
Na7 O40 2.637502 1_554
Na7 O39 2.687360 1_564
Na8 O48 2.344878 1_555
Na8 O50 2.396539 1_555
Na8 O55 2.557533 1_555
Na8 O54 2.739281 1_555
Na8 O56 2.744650 1_555
Na8 O49 2.803504 1_555
Na9 O52 2.385894 1_555
Na9 O53 2.428446 1_555
Na9 O57 2.511594 1_555
Na9 O58 2.685505 1_555
Na9 O59 2.688563 1_555
Na9 O51 2.808076 1_555
Na10 O60 2.608620 1_555
Na10 O61 2.649177 1_555
Na10 O66 2.649777 1_555
Na10 O68 2.665661 1_555
Na10 O62 2.692555 1_555
Na10 O67 2.736115 1_555
Na11 O69 2.627360 1_555
Na11 O70 2.630752 1_555
Na11 O65 2.635978 1_555
Na11 O64 2.656623 1_555
Na11 O71 2.688648 1_555
Na11 O63 2.764191 1_555
Ca0 O12 2.156656 1_555
Ca0 O14 2.263373 1_555
Ca0 O13 2.265330 1_555
Ca0 O50 2.321405 1_555
Ca0 O48 2.324952 1_555
Ca0 O49 2.464046 1_555
Ca1 O16 2.234277 1_555
Ca1 O15 2.235283 1_555
Ca1 O17 2.238475 1_555
Ca1 O52 2.303388 1_555
Ca1 O53 2.332887 1_555
Ca1 O51 2.438303 1_555
Nb0 O2 1.913288 1_455
Nb0 O0 1.934916 1_555
Nb0 O38 1.938930 1_555
Nb0 O37 1.989404 1_445
Nb0 O36 2.022577 1_545
Nb0 O1 2.213939 1_445
Nb1 O5 1.922779 1_565
Nb1 O4 1.923658 1_655
Nb1 O41 1.934567 1_555
Nb1 O39 1.990999 1_665
Nb1 O40 2.016989 1_655
Nb1 O3 2.229332 1_665
Nb2 O44 1.939949 1_555
Nb2 O6 1.980671 1_555
Nb2 O8 1.988982 1_655
Nb2 O43 2.004993 1_665
Nb2 O42 2.011414 1_565
Nb2 O7 2.227243 1_665
Nb3 O11 1.907605 1_545
Nb3 O47 1.910057 1_555
Nb3 O10 1.966765 1_555
Nb3 O45 1.979875 1_445
Nb3 O46 2.245450 1_455
Nb3 O9 2.305979 1_445
Nb4 O54 1.938353 1_555
Nb4 O19 1.947776 1_556
Nb4 O18 1.949915 1_556
Nb4 O56 2.021641 1_555
Nb4 O55 2.044214 1_555
Nb4 O20 2.308546 1_556
Nb5 O21 1.981581 1_555
Nb5 O23 2.004482 1_555
Nb5 O22 2.019899 1_555
Nb5 O57 2.026497 1_555
Nb5 O58 2.028226 1_555
Nb5 O59 2.031222 1_555
Nb6 O25 1.902136 1_554
Nb6 O61 1.949424 1_555
Nb6 O60 1.968667 1_555
Nb6 O26 1.973048 1_554
Nb6 O24 1.988365 1_554
Nb6 O62 2.189383 1_555
Nb7 O28 1.928893 1_555
Nb7 O65 1.970613 1_555
Nb7 O27 1.982034 1_555
Nb7 O29 1.988803 1_555
Nb7 O64 2.014339 1_555
Nb7 O63 2.023119 1_555
Nb8 O30 1.898476 1_555
Nb8 O31 1.919992 1_555
Nb8 O32 1.974241 1_555
Nb8 O66 2.045483 1_555
Nb8 O68 2.075119 1_555
Nb8 O67 2.254579 1_555
Nb9 O34 1.890471 1_555
Nb9 O33 1.928200 1_555
Nb9 O35 1.981741 1_555
Nb9 O70 2.029647 1_555
Nb9 O71 2.080977 1_555
Nb9 O69 2.276404 1_555
O0 Si0 1.639090 1_545
O1 S0 1.477281 1_555
O2 Si1 1.648794 1_655
O3 S1 1.471385 1_555
O4 Si2 1.645137 1_555
O5 Si3 1.642821 1_545
O6 Si3 1.685554 1_555
O7 S1 1.492448 1_555
O8 Si2 1.687300 1_555
O9 S0 1.483480 1_555
O10 Si1 1.678479 1_555
O11 Si0 1.703478 1_555
O12 Si4 1.584659 1_555
O13 Si5 1.596561 1_555
O14 Si6 1.582361 1_555
O15 Si7 1.583114 1_555
O16 S2 1.446118 1_555
O17 Si8 1.578680 1_555
O18 Si8 1.665815 1_555
O19 Si7 1.678895 1_555
O20 S2 1.487779 1_555
O21 Si5 1.652536 1_555
O22 Si6 1.647468 1_555
O23 Si4 1.659472 1_555
O24 Si9 1.601259 1_555
O25 Si10 1.630783 1_555
O26 Si11 1.611703 1_555
O27 Si12 1.624942 1_555
O28 Si13 1.621264 1_555
O29 Si14 1.624674 1_555
O30 Si14 1.679766 1_555
O31 Si12 1.661051 1_555
O32 Si13 1.646516 1_555
O33 Si10 1.663962 1_555
O34 Si11 1.688416 1_555
O35 Si9 1.643468 1_555
O36 Si14 1.628702 1_555
O37 Si12 1.634402 1_555
O38 Si13 1.654753 1_555
O39 Si10 1.628660 1_555
O40 Si11 1.631611 1_555
O41 Si9 1.651380 1_555
O42 Si4 1.661800 1_555
O43 Si5 1.661515 1_555
O44 Si6 1.717879 1_555
O45 Si7 1.676812 1_555
O46 S2 1.507726 1_555
O47 Si8 1.703959 1_555
O48 Si3 1.587228 1_545
O49 S1 1.471841 1_555
O50 Si2 1.587601 1_655
O51 S0 1.476627 1_555
O52 Si1 1.587224 1_655
O53 Si0 1.585382 1_545
O54 Si9 1.648293 1_555
O55 Si10 1.624712 1_655
O56 Si11 1.625742 1_545
O57 Si12 1.626753 1_545
O58 Si13 1.616944 1_555
O59 Si14 1.621571 1_655
O60 Si8 1.639230 1_555
O61 Si7 1.654857 1_455
O62 S2 1.494418 1_565
O63 Si5 1.656353 1_565
O64 Si6 1.637499 1_555
O65 Si4 1.640963 1_455
O66 Si0 1.656027 1_555
O67 S0 1.502014 1_555
O68 Si1 1.680649 1_555
O69 S1 1.499106 1_555
O70 Si2 1.664189 1_555
O71 Si3 1.679017 1_555
