# generated using pymatgen
data_Na3Zr3In(PO4)6
_symmetry_space_group_name_H-M   'P 1'
_cell_length_a   8.98549433
_cell_length_b   8.98178218
_cell_length_c   23.24975385
_cell_angle_alpha   89.93869633
_cell_angle_beta   90.04463447
_cell_angle_gamma   120.23837665
_symmetry_Int_Tables_number   1
_chemical_formula_structural   Na3Zr3In(PO4)6
_chemical_formula_sum   'Na9 Zr9 In3 P18 O72'
_cell_volume   1621.08208250
_cell_formula_units_Z   3
loop_
 _symmetry_equiv_pos_site_id
 _symmetry_equiv_pos_as_xyz
  1  'x, y, z'
loop_
 _atom_site_type_symbol
 _atom_site_label
 _atom_site_symmetry_multiplicity
 _atom_site_fract_x
 _atom_site_fract_y
 _atom_site_fract_z
 _atom_site_occupancy
  Na  Na0  1  0.36541368  0.36096501  0.24770210  1
  Na  Na1  1  0.63613143  0.63275250  0.74849819  1
  Na  Na2  1  0.96975033  0.29938504  0.41456437  1
  Na  Na3  1  0.00054623  0.99132938  0.49858765  1
  Na  Na4  1  0.99979707  0.99980356  0.00126188  1
  Na  Na5  1  0.66702121  0.32450216  0.83291373  1
  Na  Na6  1  0.66772002  0.33382602  0.32897380  1
  Na  Na7  1  0.33260649  0.67524974  0.16467365  1
  Na  Na8  1  0.32446339  0.66713702  0.66524835  1
  Zr  Zr0  1  0.00168216  0.00208759  0.85390949  1
  Zr  Zr1  1  0.00240789  0.00316314  0.64571986  1
  Zr  Zr2  1  0.99716058  0.99718533  0.14640021  1
  Zr  Zr3  1  0.66648091  0.33393586  0.98154202  1
  Zr  Zr4  1  0.66048408  0.33399829  0.48200640  1
  Zr  Zr5  1  0.33384816  0.66637844  0.01998653  1
  Zr  Zr6  1  0.33520576  0.66830859  0.51991270  1
  Zr  Zr7  1  0.33543108  0.67482195  0.31286973  1
  Zr  Zr8  1  0.32744170  0.66732345  0.81498266  1
  In  In0  1  0.99823592  0.99162937  0.35037434  1
  In  In1  1  0.66743362  0.32723367  0.68395740  1
  In  In2  1  0.67323498  0.33297503  0.18269254  1
  P  P0  1  0.29297113  0.00270724  0.24971965  1
  P  P1  1  0.70748479  0.70451606  0.25024655  1
  P  P2  1  0.99645670  0.29038655  0.25191821  1
  P  P3  1  0.29321801  0.29188446  0.75006825  1
  P  P4  1  0.99962515  0.70931176  0.74957933  1
  P  P5  1  0.71033552  0.00243979  0.75029604  1
  P  P6  1  0.95848493  0.33389336  0.58280827  1
  P  P7  1  0.37399705  0.04001593  0.58411661  1
  P  P8  1  0.66611332  0.62547603  0.58525656  1
  P  P9  1  0.95970330  0.62575171  0.08336078  1
  P  P10  1  0.66650301  0.04165799  0.08352472  1
  P  P11  1  0.37470823  0.33360221  0.08466660  1
  P  P12  1  0.62385878  0.66555536  0.91583547  1
  P  P13  1  0.04057125  0.37496438  0.91721048  1
  P  P14  1  0.33394917  0.95854495  0.91704090  1
  P  P15  1  0.62759148  0.95962679  0.41711963  1
  P  P16  1  0.33296773  0.37492590  0.41551265  1
  P  P17  1  0.04269703  0.66917688  0.41724614  1
  O  O0  1  0.21772793  0.03759974  0.30382999  1
  O  O1  1  0.81139646  0.78057464  0.30497050  1
  O  O2  1  0.97324288  0.19107417  0.30828916  1
  O  O3  1  0.20392149  0.18108578  0.80352475  1
  O  O4  1  0.97362453  0.79718642  0.80285101  1
  O  O5  1  0.82064698  0.02176461  0.80378870  1
  O  O6  1  0.79426219  0.97052855  0.69698459  1
  O  O7  1  0.18156144  0.20648630  0.69634015  1
  O  O8  1  0.02511211  0.82112355  0.69591859  1
  O  O9  1  0.79383411  0.81865661  0.19684974  1
  O  O10  1  0.02891230  0.20231220  0.19963654  1
  O  O11  1  0.17831869  0.97464347  0.19645183  1
  O  O12  1  0.88315959  0.36712923  0.63661929  1
  O  O13  1  0.48071283  0.11406130  0.63834968  1
  O  O14  1  0.63491616  0.52256128  0.64100018  1
  O  O15  1  0.88698901  0.51984674  0.13782827  1
  O  O16  1  0.63222387  0.11351668  0.13785550  1
  O  O17  1  0.47675768  0.36479704  0.14051183  1
  O  O18  1  0.46478094  0.30847427  0.03180188  1
  O  O19  1  0.84598699  0.53836605  0.02986602  1
  O  O20  1  0.69294909  0.15518566  0.02996213  1
  O  O21  1  0.46127068  0.15367580  0.53043644  1
  O  O22  1  0.69119633  0.53540015  0.53224547  1
  O  O23  1  0.84885195  0.30751169  0.52786225  1
  O  O24  1  0.53604492  0.69144230  0.96841144  1
  O  O25  1  0.15320978  0.46090277  0.97011222  1
  O  O26  1  0.30731825  0.84592897  0.96994449  1
  O  O27  1  0.53816572  0.84845775  0.47024842  1
  O  O28  1  0.30749175  0.46547095  0.46802896  1
  O  O29  1  0.15350229  0.68881364  0.47040631  1
  O  O30  1  0.12710582  0.63730075  0.36379896  1
  O  O31  1  0.51538684  0.87376647  0.36332430  1
  O  O32  1  0.35845765  0.48352525  0.36058920  1
  O  O33  1  0.12750704  0.48661297  0.86315245  1
  O  O34  1  0.35883173  0.87230573  0.86297047  1
  O  O35  1  0.51629461  0.64119208  0.86055849  1
  O  O36  1  0.02281206  0.82757400  0.41303514  1
  O  O37  1  0.81002975  0.98559857  0.41295799  1
  O  O38  1  0.16657390  0.19792283  0.41218776  1
  O  O39  1  0.02297804  0.19580155  0.91007970  1
  O  O40  1  0.17260874  0.97622037  0.90973189  1
  O  O41  1  0.80453832  0.82744496  0.90964055  1
  O  O42  1  0.97580517  0.17110446  0.58894866  1
  O  O43  1  0.19402036  0.02282299  0.58884998  1
  O  O44  1  0.82918442  0.80627715  0.58936041  1
  O  O45  1  0.97716684  0.80629600  0.08865991  1
  O  O46  1  0.82937247  0.02419172  0.08912819  1
  O  O47  1  0.19310357  0.17076002  0.08927011  1
  O  O48  1  0.69010972  0.16101572  0.74632834  1
  O  O49  1  0.47624981  0.31849457  0.74605469  1
  O  O50  1  0.83311713  0.53228111  0.74549926  1
  O  O51  1  0.67497956  0.51949877  0.24426577  1
  O  O52  1  0.84095743  0.31493875  0.24534596  1
  O  O53  1  0.47180308  0.16552983  0.24356315  1
  O  O54  1  0.64181993  0.50429862  0.92267077  1
  O  O55  1  0.86120720  0.35653650  0.92288880  1
  O  O56  1  0.49530423  0.13862135  0.92286927  1
  O  O57  1  0.64820671  0.14205155  0.42322087  1
  O  O58  1  0.49456505  0.35765049  0.42297629  1
  O  O59  1  0.86520244  0.49945115  0.42353268  1
  O  O60  1  0.35346539  0.49265128  0.07531058  1
  O  O61  1  0.14085227  0.64873982  0.07472739  1
  O  O62  1  0.50822895  0.85962528  0.07477160  1
  O  O63  1  0.35137994  0.85927338  0.57543079  1
  O  O64  1  0.50730081  0.64632893  0.57572174  1
  O  O65  1  0.14091384  0.49216046  0.57492091  1
  O  O66  1  0.30929567  0.83932533  0.25596245  1
  O  O67  1  0.52389361  0.68518464  0.25568641  1
  O  O68  1  0.16809682  0.46968557  0.25651697  1
  O  O69  1  0.31439002  0.47480337  0.75626165  1
  O  O70  1  0.16075145  0.69075835  0.75609861  1
  O  O71  1  0.53234241  0.83273751  0.75656710  1
loop_
_geom_bond_atom_site_label_1
_geom_bond_atom_site_label_2
_geom_bond_distance
_geom_bond_site_symmetry_2
Na0 O53 2.386427 1_555
Na0 O51 2.404591 1_555
Na0 O68 2.425663 1_555
Na0 O67 2.523192 1_555
Na0 O17 2.679919 1_555
Na0 O0 2.830561 1_555
Na0 O10 2.842581 1_555
Na0 O32 2.860059 1_555
Na1 O50 2.358233 1_555
Na1 O71 2.412372 1_555
Na1 O49 2.439300 1_555
Na1 O69 2.504492 1_555
Na1 O14 2.687104 1_555
Na1 O35 2.835526 1_555
Na1 O6 2.882812 1_555
Na1 O4 2.908863 1_555
Na2 O38 2.363240 1_655
Na2 O59 2.419989 1_555
Na2 O37 2.435256 1_545
Na2 O57 2.504623 1_555
Na2 O2 2.662442 1_555
Na2 O23 2.865120 1_555
Na2 O30 2.876919 1_655
Na2 O28 2.901499 1_655
Na3 O36 2.542245 1_555
Na3 O37 2.608240 1_455
Na3 O38 2.629160 1_565
Na3 O43 2.646994 1_565
Na3 O44 2.647136 1_455
Na3 O42 2.727614 1_465
Na4 O45 2.613086 1_555
Na4 O47 2.622302 1_665
Na4 O46 2.628691 1_565
Na4 O39 2.694450 1_664
Na4 O41 2.697785 1_554
Na4 O40 2.705926 1_654
Na5 O48 2.562337 1_555
Na5 O49 2.630812 1_555
Na5 O56 2.635377 1_555
Na5 O55 2.644485 1_555
Na5 O50 2.651798 1_555
Na5 O54 2.718506 1_555
Na6 O52 2.550226 1_555
Na6 O51 2.558845 1_555
Na6 O53 2.578386 1_555
Na6 O57 2.736321 1_555
Na6 O59 2.745399 1_555
Na6 O58 2.754044 1_555
Na7 O62 2.639551 1_555
Na7 O61 2.642143 1_555
Na7 O66 2.653052 1_555
Na7 O67 2.698163 1_555
Na7 O60 2.712773 1_555
Na7 O68 2.720526 1_555
Na8 O63 2.640085 1_555
Na8 O70 2.643989 1_555
Na8 O65 2.644134 1_555
Na8 O69 2.702785 1_555
Na8 O64 2.716972 1_555
Na8 O71 2.722383 1_555
In0 O1 2.079054 1_555
In0 O0 2.100820 1_665
In0 O2 2.148940 1_565
In0 O36 2.159871 1_655
In0 O37 2.211657 1_555
In0 O38 2.228451 1_665
In1 O13 2.090774 1_555
In1 O12 2.097622 1_555
In1 O14 2.161675 1_555
In1 O48 2.162053 1_555
In1 O50 2.212748 1_555
In1 O49 2.215737 1_555
In2 O15 2.084858 1_555
In2 O16 2.092855 1_555
In2 O52 2.159023 1_555
In2 O17 2.159902 1_555
In2 O53 2.190539 1_555
In2 O51 2.198851 1_555
O0 P0 1.534145 1_555
O1 P1 1.521459 1_555
O2 P2 1.538636 1_555
O3 P3 1.540618 1_555
O3 Zr0 2.077496 1_555
O4 P4 1.549133 1_555
O4 Zr0 2.096816 1_665
O5 P5 1.544227 1_555
O5 Zr0 2.078807 1_655
O6 P5 1.551476 1_565
O6 Zr1 2.110707 1_665
O7 P3 1.542836 1_555
O7 Zr1 2.086201 1_555
O8 P4 1.543899 1_455
O8 Zr1 2.099673 1_565
O9 P1 1.546565 1_555
O9 Zr2 2.081717 1_555
O10 P2 1.556704 1_455
O10 Zr2 2.117247 1_445
O11 P0 1.547835 1_565
O11 Zr2 2.091260 1_455
O12 P6 1.522522 1_555
O13 P7 1.519626 1_555
O14 P8 1.532879 1_555
O15 P9 1.519245 1_555
O16 P10 1.519749 1_555
O17 P11 1.531435 1_555
O18 P11 1.550087 1_555
O18 Zr3 2.070684 1_554
O19 P9 1.548981 1_555
O19 Zr3 2.062524 1_554
O20 P10 1.549427 1_555
O20 Zr3 2.069252 1_554
O21 P7 1.551529 1_555
O21 Zr4 2.043140 1_555
O22 P8 1.552615 1_555
O22 Zr4 2.052803 1_555
O23 P6 1.556317 1_555
O23 Zr4 2.111935 1_555
O24 P12 1.535502 1_555
O24 Zr5 2.092919 1_556
O25 P13 1.531729 1_555
O25 Zr5 2.090379 1_556
O26 P14 1.532083 1_555
O26 Zr5 2.096184 1_556
O27 P15 1.535990 1_555
O27 Zr6 2.074722 1_555
O28 P16 1.547473 1_555
O28 Zr6 2.093689 1_555
O29 P17 1.540028 1_555
O29 Zr6 2.079404 1_555
O30 P17 1.556375 1_555
O30 Zr7 2.094491 1_555
O31 P15 1.546778 1_555
O31 Zr7 2.067612 1_555
O32 P16 1.551543 1_555
O32 Zr7 2.139979 1_555
O33 P13 1.550905 1_555
O33 Zr8 2.044140 1_555
O34 P14 1.551541 1_555
O34 Zr8 2.048145 1_555
O35 P12 1.555430 1_555
O35 Zr8 2.110759 1_555
O36 P17 1.523567 1_555
O37 P15 1.538219 1_555
O38 P16 1.541064 1_555
O39 P13 1.544771 1_555
O39 Zr0 2.106771 1_555
O40 P14 1.545040 1_555
O40 Zr0 2.110196 1_565
O41 P12 1.546943 1_555
O41 Zr0 2.116121 1_665
O42 P6 1.552788 1_555
O42 Zr1 2.105478 1_655
O43 P7 1.549174 1_555
O43 Zr1 2.107278 1_555
O44 P8 1.548141 1_555
O44 Zr1 2.120462 1_665
O45 P9 1.553552 1_555
O45 Zr2 2.113848 1_555
O46 P10 1.553771 1_555
O46 Zr2 2.114107 1_545
O47 P11 1.552271 1_555
O47 Zr2 2.128204 1_445
O48 P5 1.526617 1_555
O49 P3 1.541080 1_555
O50 P4 1.542647 1_555
O51 P1 1.541993 1_555
O52 P2 1.527805 1_555
O53 P0 1.540887 1_555
O54 P12 1.544017 1_555
O54 Zr3 2.144879 1_555
O55 P13 1.540756 1_655
O55 Zr3 2.146553 1_555
O56 P14 1.541015 1_545
O56 Zr3 2.142022 1_555
O57 P15 1.560088 1_545
O57 Zr4 2.160018 1_555
O58 P16 1.545658 1_555
O58 Zr4 2.113427 1_555
O59 P17 1.562051 1_655
O59 Zr4 2.164869 1_555
O60 P11 1.548677 1_555
O60 Zr5 2.095884 1_555
O61 P9 1.547350 1_455
O61 Zr5 2.092489 1_555
O62 P10 1.547723 1_565
O62 Zr5 2.086293 1_555
O63 P7 1.544612 1_565
O63 Zr6 2.093452 1_555
O64 P8 1.545701 1_555
O64 Zr6 2.101815 1_555
O65 P6 1.547364 1_455
O65 Zr6 2.098524 1_555
O66 P0 1.553170 1_565
O66 Zr7 2.081732 1_555
O67 P1 1.574579 1_555
O67 Zr7 2.118590 1_555
O68 P2 1.575444 1_455
O68 Zr7 2.141014 1_555
O69 P3 1.562636 1_555
O69 Zr8 2.160614 1_555
O70 P4 1.545792 1_455
O70 Zr8 2.115582 1_555
O71 P5 1.564298 1_565
O71 Zr8 2.164758 1_555
