# generated using pymatgen
data_BaAsH3O5
_symmetry_space_group_name_H-M   'P 1'
_cell_length_a   7.98227500
_cell_length_b   8.78707400
_cell_length_c   14.88855600
_cell_angle_alpha   90.00000000
_cell_angle_beta   90.00000000
_cell_angle_gamma   90.00000000
_symmetry_Int_Tables_number   1
_chemical_formula_structural   BaAsH3O5
_chemical_formula_sum   'Ba8 As8 H24 O40'
_cell_volume   1044.29584080
_cell_formula_units_Z   8
loop_
 _symmetry_equiv_pos_site_id
 _symmetry_equiv_pos_as_xyz
  1  'x, y, z'
loop_
 _atom_site_type_symbol
 _atom_site_label
 _atom_site_symmetry_multiplicity
 _atom_site_fract_x
 _atom_site_fract_y
 _atom_site_fract_z
 _atom_site_occupancy
  Ba  Ba0  1  0.13606900  0.18439300  0.41747800  1
  Ba  Ba1  1  0.63606900  0.31560700  0.58252200  1
  Ba  Ba2  1  0.86393100  0.68439300  0.08252200  1
  Ba  Ba3  1  0.36393100  0.81560700  0.91747800  1
  Ba  Ba4  1  0.86393100  0.81560700  0.58252200  1
  Ba  Ba5  1  0.36393100  0.68439300  0.41747800  1
  Ba  Ba6  1  0.13606900  0.31560700  0.91747800  1
  Ba  Ba7  1  0.63606900  0.18439300  0.08252200  1
  As  As0  1  0.64982200  0.06202000  0.38529300  1
  As  As1  1  0.14982200  0.43798000  0.61470700  1
  As  As2  1  0.35017800  0.56202000  0.11470700  1
  As  As3  1  0.85017800  0.93798000  0.88529300  1
  As  As4  1  0.35017800  0.93798000  0.61470700  1
  As  As5  1  0.85017800  0.56202000  0.38529300  1
  As  As6  1  0.64982200  0.43798000  0.88529300  1
  As  As7  1  0.14982200  0.06202000  0.11470700  1
  H  H0  1  0.90120500  0.40048400  0.22582400  1
  H  H1  1  0.40120500  0.09951600  0.77417600  1
  H  H2  1  0.09879500  0.90048400  0.27417600  1
  H  H3  1  0.59879500  0.59951600  0.72582400  1
  H  H4  1  0.09879500  0.59951600  0.77417600  1
  H  H5  1  0.59879500  0.90048400  0.22582400  1
  H  H6  1  0.90120500  0.09951600  0.72582400  1
  H  H7  1  0.40120500  0.40048400  0.27417600  1
  H  H8  1  0.94901500  0.32227500  0.13184000  1
  H  H9  1  0.44901500  0.17772500  0.86816000  1
  H  H10  1  0.05098500  0.82227500  0.36816000  1
  H  H11  1  0.55098500  0.67772500  0.63184000  1
  H  H12  1  0.05098500  0.67772500  0.86816000  1
  H  H13  1  0.55098500  0.82227500  0.13184000  1
  H  H14  1  0.94901500  0.17772500  0.63184000  1
  H  H15  1  0.44901500  0.32227500  0.36816000  1
  H  H16  1  0.77434000  0.25980700  0.30916700  1
  H  H17  1  0.27434000  0.24019300  0.69083300  1
  H  H18  1  0.22566000  0.75980700  0.19083300  1
  H  H19  1  0.72566000  0.74019300  0.80916700  1
  H  H20  1  0.22566000  0.74019300  0.69083300  1
  H  H21  1  0.72566000  0.75980700  0.30916700  1
  H  H22  1  0.77434000  0.24019300  0.80916700  1
  H  H23  1  0.27434000  0.25980700  0.19083300  1
  O  O0  1  0.37773400  0.09758000  0.83996200  1
  O  O1  1  0.87773400  0.40242000  0.16003800  1
  O  O2  1  0.62226600  0.59758000  0.66003800  1
  O  O3  1  0.12226600  0.90242000  0.33996200  1
  O  O4  1  0.62226600  0.90242000  0.16003800  1
  O  O5  1  0.12226600  0.59758000  0.83996200  1
  O  O6  1  0.37773400  0.40242000  0.33996200  1
  O  O7  1  0.87773400  0.09758000  0.66003800  1
  O  O8  1  0.48955400  0.16325100  0.43314800  1
  O  O9  1  0.98955400  0.33674900  0.56685200  1
  O  O10  1  0.51044600  0.66325100  0.06685200  1
  O  O11  1  0.01044600  0.83674900  0.93314800  1
  O  O12  1  0.51044600  0.83674900  0.56685200  1
  O  O13  1  0.01044600  0.66325100  0.43314800  1
  O  O14  1  0.48955400  0.33674900  0.93314800  1
  O  O15  1  0.98955400  0.16325100  0.06685200  1
  O  O16  1  0.81476300  0.05638200  0.45785500  1
  O  O17  1  0.31476300  0.44361800  0.54214500  1
  O  O18  1  0.18523700  0.55638200  0.04214500  1
  O  O19  1  0.68523700  0.94361800  0.95785500  1
  O  O20  1  0.18523700  0.94361800  0.54214500  1
  O  O21  1  0.68523700  0.55638200  0.45785500  1
  O  O22  1  0.81476300  0.44361800  0.95785500  1
  O  O23  1  0.31476300  0.05638200  0.04214500  1
  O  O24  1  0.59024300  0.88979800  0.34188800  1
  O  O25  1  0.09024300  0.61020200  0.65811200  1
  O  O26  1  0.40975700  0.38979800  0.15811200  1
  O  O27  1  0.90975700  0.11020200  0.84188800  1
  O  O28  1  0.40975700  0.11020200  0.65811200  1
  O  O29  1  0.90975700  0.38979800  0.34188800  1
  O  O30  1  0.59024300  0.61020200  0.84188800  1
  O  O31  1  0.09024300  0.88979800  0.15811200  1
  O  O32  1  0.71064300  0.16699300  0.28726900  1
  O  O33  1  0.21064300  0.33300700  0.71273100  1
  O  O34  1  0.28935700  0.66699300  0.21273100  1
  O  O35  1  0.78935700  0.83300700  0.78726900  1
  O  O36  1  0.28935700  0.83300700  0.71273100  1
  O  O37  1  0.78935700  0.66699300  0.28726900  1
  O  O38  1  0.71064300  0.33300700  0.78726900  1
  O  O39  1  0.21064300  0.16699300  0.21273100  1
loop_
_geom_bond_atom_site_label_1
_geom_bond_atom_site_label_2
_geom_bond_distance
_geom_bond_site_symmetry_2
Ba0 O3 2.735539 1_545
Ba0 O29 2.790639 1_455
Ba0 O8 2.837332 1_555
Ba0 O20 2.841726 1_545
Ba0 O9 2.847119 1_455
Ba0 O16 2.864370 1_455
Ba0 H15 2.871792 1_555
Ba0 O6 2.953556 1_555
Ba0 O39 3.109725 1_555
Ba0 O17 3.266226 1_555
Ba1 O2 2.735539 1_555
Ba1 O28 2.790639 1_555
Ba1 O9 2.837332 1_555
Ba1 O21 2.841726 1_555
Ba1 O8 2.847119 1_555
Ba1 O17 2.864370 1_555
Ba1 H14 2.871792 1_555
Ba1 O7 2.953556 1_555
Ba1 O38 3.109725 1_555
Ba1 O16 3.266226 1_555
Ba2 O1 2.735539 1_555
Ba2 O31 2.790639 1_655
Ba2 O10 2.837332 1_555
Ba2 O22 2.841726 1_554
Ba2 O11 2.847119 1_654
Ba2 O18 2.864370 1_655
Ba2 H13 2.871792 1_555
Ba2 O4 2.953556 1_555
Ba2 O37 3.109725 1_555
Ba2 O19 3.266226 1_554
Ba3 O0 2.735539 1_565
Ba3 O30 2.790639 1_555
Ba3 O11 2.837332 1_555
Ba3 O23 2.841726 1_566
Ba3 O10 2.847119 1_556
Ba3 O19 2.864370 1_555
Ba3 H12 2.871792 1_555
Ba3 O5 2.953556 1_555
Ba3 O36 3.109725 1_555
Ba3 O18 3.266226 1_556
Ba4 O7 2.735539 1_565
Ba4 O25 2.790639 1_655
Ba4 O12 2.837332 1_555
Ba4 O16 2.841726 1_565
Ba4 O13 2.847119 1_655
Ba4 O20 2.864370 1_655
Ba4 H11 2.871792 1_555
Ba4 O2 2.953556 1_555
Ba4 O35 3.109725 1_555
Ba4 O21 3.266226 1_555
Ba5 O6 2.735539 1_555
Ba5 O24 2.790639 1_555
Ba5 O13 2.837332 1_555
Ba5 O17 2.841726 1_555
Ba5 O12 2.847119 1_555
Ba5 O21 2.864370 1_555
Ba5 H10 2.871792 1_555
Ba5 O3 2.953556 1_555
Ba5 O34 3.109725 1_555
Ba5 O20 3.266226 1_555
Ba6 O5 2.735539 1_555
Ba6 O27 2.790639 1_455
Ba6 O14 2.837332 1_555
Ba6 O18 2.841726 1_556
Ba6 O15 2.847119 1_456
Ba6 O22 2.864370 1_455
Ba6 H9 2.871792 1_555
Ba6 O0 2.953556 1_555
Ba6 O33 3.109725 1_555
Ba6 O23 3.266226 1_556
Ba7 O4 2.735539 1_545
Ba7 O26 2.790639 1_555
Ba7 O15 2.837332 1_555
Ba7 O19 2.841726 1_544
Ba7 O14 2.847119 1_554
Ba7 O23 2.864370 1_555
Ba7 H8 2.871792 1_555
Ba7 O1 2.953556 1_555
Ba7 O32 3.109725 1_555
Ba7 O22 3.266226 1_554
As0 O16 1.703832 1_555
As0 O24 1.712879 1_545
As0 O8 1.713334 1_555
As0 O32 1.793456 1_555
As1 O17 1.703832 1_555
As1 O25 1.712879 1_555
As1 O9 1.713334 1_455
As1 O33 1.793456 1_555
As2 O18 1.703832 1_555
As2 O26 1.712879 1_555
As2 O10 1.713334 1_555
As2 O34 1.793456 1_555
As3 O19 1.703832 1_555
As3 O27 1.712879 1_565
As3 O11 1.713334 1_655
As3 O35 1.793456 1_555
As4 O20 1.703832 1_555
As4 O28 1.712879 1_565
As4 O12 1.713334 1_555
As4 O36 1.793456 1_555
As5 O21 1.703832 1_555
As5 O29 1.712879 1_555
As5 O13 1.713334 1_655
As5 O37 1.793456 1_555
As6 O22 1.703832 1_555
As6 O30 1.712879 1_555
As6 O14 1.713334 1_555
As6 O38 1.793456 1_555
As7 O23 1.703832 1_555
As7 O31 1.712879 1_545
As7 O15 1.713334 1_455
As7 O39 1.793456 1_555
H0 O1 0.997361 1_555
H0 O29 1.731921 1_555
H1 O0 0.997361 1_555
H1 O28 1.731921 1_555
H2 O3 0.997361 1_555
H2 O31 1.731921 1_555
H3 O2 0.997361 1_555
H3 O30 1.731921 1_555
H4 O5 0.997361 1_555
H4 O25 1.731921 1_555
H5 O4 0.997361 1_555
H5 O24 1.731921 1_555
H6 O7 0.997361 1_555
H6 O27 1.731921 1_555
H7 O6 0.997361 1_555
H7 O26 1.731921 1_555
H8 O1 0.997974 1_555
H8 O15 1.730180 1_555
H9 O0 0.997974 1_555
H9 O14 1.730180 1_555
H10 O3 0.997974 1_555
H10 O13 1.730180 1_555
H11 O2 0.997974 1_555
H11 O12 1.730180 1_555
H12 O5 0.997974 1_555
H12 O11 1.730180 1_555
H13 O4 0.997974 1_555
H13 O10 1.730180 1_555
H14 O7 0.997974 1_555
H14 O9 1.730180 1_555
H15 O6 0.997974 1_555
H15 O8 1.730180 1_555
H16 O32 1.014868 1_555
H16 O29 1.646350 1_555
H17 O33 1.014868 1_555
H17 O28 1.646350 1_555
H18 O34 1.014868 1_555
H18 O31 1.646350 1_555
H19 O35 1.014868 1_555
H19 O30 1.646350 1_555
H20 O36 1.014868 1_555
H20 O25 1.646350 1_555
H21 O37 1.014868 1_555
H21 O24 1.646350 1_555
H22 O38 1.014868 1_555
H22 O27 1.646350 1_555
H23 O39 1.014868 1_555
H23 O26 1.646350 1_555
