# generated using pymatgen
data_Na4Nb3GaSi5SO24
_symmetry_space_group_name_H-M   'P 1'
_cell_length_a   8.95345225
_cell_length_b   8.93920703
_cell_length_c   22.65201636
_cell_angle_alpha   89.64233327
_cell_angle_beta   90.88586687
_cell_angle_gamma   119.65367053
_symmetry_Int_Tables_number   1
_chemical_formula_structural   Na4Nb3GaSi5SO24
_chemical_formula_sum   'Na12 Nb9 Ga3 Si15 S3 O72'
_cell_volume   1575.35922832
_cell_formula_units_Z   3
loop_
 _symmetry_equiv_pos_site_id
 _symmetry_equiv_pos_as_xyz
  1  'x, y, z'
loop_
 _atom_site_type_symbol
 _atom_site_label
 _atom_site_symmetry_multiplicity
 _atom_site_fract_x
 _atom_site_fract_y
 _atom_site_fract_z
 _atom_site_occupancy
  Na  Na0  1  0.63466446  0.62715118  0.74634723  1
  Na  Na1  1  0.99214797  0.36312847  0.74815090  1
  Na  Na2  1  0.37361010  0.00720786  0.74652024  1
  Na  Na3  1  0.66338915  0.69137470  0.08427039  1
  Na  Na4  1  0.02776951  0.33816948  0.08359448  1
  Na  Na5  1  0.32645683  0.02865736  0.41576710  1
  Na  Na6  1  0.99165069  0.99621890  0.49551656  1
  Na  Na7  1  0.00663293  0.99719879  0.99573501  1
  Na  Na8  1  0.66688738  0.33296789  0.83367681  1
  Na  Na9  1  0.68186503  0.33843556  0.32811925  1
  Na  Na10  1  0.33110484  0.67204930  0.16804256  1
  Na  Na11  1  0.33818374  0.67040459  0.66255403  1
  Nb  Nb0  1  0.99823397  0.00049132  0.85490731  1
  Nb  Nb1  1  0.00170329  0.99171699  0.64424644  1
  Nb  Nb2  1  0.00838277  0.01179923  0.14523775  1
  Nb  Nb3  1  0.66614665  0.33427720  0.97797403  1
  Nb  Nb4  1  0.66172598  0.34105017  0.47676588  1
  Nb  Nb5  1  0.33265081  0.66949893  0.02037272  1
  Nb  Nb6  1  0.34611163  0.67964823  0.51869254  1
  Nb  Nb7  1  0.32111503  0.65520764  0.31481932  1
  Nb  Nb8  1  0.33368213  0.66657106  0.81441373  1
  Ga  Ga0  1  0.98882247  0.01215497  0.35870152  1
  Ga  Ga1  1  0.64995147  0.32814186  0.68729117  1
  Ga  Ga2  1  0.68428778  0.33224984  0.18035281  1
  Si  Si0  1  0.98864558  0.28772938  0.25224875  1
  Si  Si1  1  0.28817722  0.28748337  0.74950160  1
  Si  Si2  1  0.99535187  0.70479281  0.74994490  1
  Si  Si3  1  0.71126168  0.00352693  0.74738741  1
  Si  Si4  1  0.38175938  0.04803893  0.58504934  1
  Si  Si5  1  0.66398838  0.61823458  0.58636999  1
  Si  Si6  1  0.95560678  0.62249714  0.08505891  1
  Si  Si7  1  0.65953010  0.04572131  0.08551323  1
  Si  Si8  1  0.38927101  0.33223759  0.08670281  1
  Si  Si9  1  0.62591183  0.66830710  0.91778601  1
  Si  Si10  1  0.04190161  0.37615952  0.91686997  1
  Si  Si11  1  0.33406551  0.95913041  0.91611409  1
  Si  Si12  1  0.62886859  0.95770316  0.41398825  1
  Si  Si13  1  0.32428577  0.37450591  0.41758488  1
  Si  Si14  1  0.03909305  0.66949512  0.41584929  1
  S  S0  1  0.29308951  0.00393027  0.25172801  1
  S  S1  1  0.71252712  0.71048993  0.25097196  1
  S  S2  1  0.95605496  0.33517264  0.58442164  1
  O  O0  1  0.21171032  0.02075973  0.30475729  1
  O  O1  1  0.81998270  0.79293367  0.30324921  1
  O  O2  1  0.97224492  0.16661038  0.30703842  1
  O  O3  1  0.19444698  0.16219126  0.80628314  1
  O  O4  1  0.96298742  0.79972976  0.80575614  1
  O  O5  1  0.83513731  0.03448272  0.80579066  1
  O  O6  1  0.80333356  0.96385959  0.69242992  1
  O  O7  1  0.15918983  0.19812748  0.69273463  1
  O  O8  1  0.03767622  0.83627748  0.69306506  1
  O  O9  1  0.79431957  0.81633262  0.19566609  1
  O  O10  1  0.02251252  0.19481715  0.19229564  1
  O  O11  1  0.17826998  0.97643182  0.19758078  1
  O  O12  1  0.88225559  0.36043035  0.63879888  1
  O  O13  1  0.49368272  0.12434375  0.64513871  1
  O  O14  1  0.63837377  0.50957701  0.64610829  1
  O  O15  1  0.88055329  0.49936820  0.14116221  1
  O  O16  1  0.62618180  0.12350938  0.14321645  1
  O  O17  1  0.51283797  0.37519198  0.14353525  1
  O  O18  1  0.47171202  0.30107788  0.02704779  1
  O  O19  1  0.83005565  0.53598634  0.02676077  1
  O  O20  1  0.70816880  0.17138374  0.02765982  1
  O  O21  1  0.47434296  0.16476723  0.52587410  1
  O  O22  1  0.69399505  0.52547158  0.52813202  1
  O  O23  1  0.84663257  0.30972183  0.53135847  1
  O  O24  1  0.53251860  0.69290059  0.97567753  1
  O  O25  1  0.16180011  0.46694739  0.97569276  1
  O  O26  1  0.30715707  0.83389655  0.97306400  1
  O  O27  1  0.53023092  0.83626627  0.47268099  1
  O  O28  1  0.30320890  0.47282338  0.47415372  1
  O  O29  1  0.16931591  0.70253969  0.47233472  1
  O  O30  1  0.13517673  0.63375185  0.35893888  1
  O  O31  1  0.49318547  0.86386020  0.35832235  1
  O  O32  1  0.36310113  0.50071837  0.35942008  1
  O  O33  1  0.13576117  0.49652145  0.85810772  1
  O  O34  1  0.36044168  0.86631688  0.85735062  1
  O  O35  1  0.50513235  0.63979370  0.85823648  1
  O  O36  1  0.03259524  0.84400505  0.40471772  1
  O  O37  1  0.81205784  0.96900101  0.41253505  1
  O  O38  1  0.17059573  0.18017141  0.41050794  1
  O  O39  1  0.02705871  0.18823843  0.90991527  1
  O  O40  1  0.16111785  0.97328439  0.91022490  1
  O  O41  1  0.81262446  0.83907271  0.91031152  1
  O  O42  1  0.97218969  0.17637471  0.58824736  1
  O  O43  1  0.18854549  0.03092953  0.59003506  1
  O  O44  1  0.83473476  0.81376500  0.58985170  1
  O  O45  1  0.96958626  0.81195140  0.09327255  1
  O  O46  1  0.83483359  0.02097587  0.09302562  1
  O  O47  1  0.18920586  0.16509910  0.09237162  1
  O  O48  1  0.69459573  0.17575793  0.74285235  1
  O  O49  1  0.47843162  0.30844359  0.74671267  1
  O  O50  1  0.83029659  0.51532459  0.74254084  1
  O  O51  1  0.68904797  0.53615595  0.24474473  1
  O  O52  1  0.82180872  0.31266857  0.24419449  1
  O  O53  1  0.46188108  0.15731757  0.24419611  1
  O  O54  1  0.63985313  0.49432912  0.92247647  1
  O  O55  1  0.85449619  0.36068964  0.92297062  1
  O  O56  1  0.50582572  0.14518289  0.92294247  1
  O  O57  1  0.63511307  0.14257251  0.42484201  1
  O  O58  1  0.50087535  0.35783420  0.42310367  1
  O  O59  1  0.85539435  0.49380656  0.42469373  1
  O  O60  1  0.35599482  0.49771812  0.07764373  1
  O  O61  1  0.14598398  0.64055168  0.07574537  1
  O  O62  1  0.50271586  0.84703795  0.07695794  1
  O  O63  1  0.35159556  0.85104981  0.57633599  1
  O  O64  1  0.49280853  0.63961394  0.57669861  1
  O  O65  1  0.12970466  0.48854563  0.57773964  1
  O  O66  1  0.30727492  0.84260485  0.25337887  1
  O  O67  1  0.53888678  0.70036836  0.25424170  1
  O  O68  1  0.17063896  0.48085059  0.25604066  1
  O  O69  1  0.30570995  0.47943996  0.75575064  1
  O  O70  1  0.17228759  0.69283907  0.75539124  1
  O  O71  1  0.52140027  0.82971446  0.75554171  1
loop_
_geom_bond_atom_site_label_1
_geom_bond_atom_site_label_2
_geom_bond_distance
_geom_bond_site_symmetry_2
Na0 O50 2.411036 1_555
Na0 O49 2.475916 1_555
Na0 O71 2.485739 1_555
Na0 O14 2.515571 1_555
Na0 O69 2.575115 1_555
Na0 O35 2.829444 1_555
Na0 O4 2.872022 1_555
Na0 O6 2.888797 1_555
Na1 O48 2.344045 1_555
Na1 O50 2.431079 1_555
Na1 O69 2.468080 1_655
Na1 O70 2.570826 1_655
Na1 O12 2.646946 1_555
Na1 O33 2.774873 1_655
Na1 O5 2.869503 1_555
Na1 O7 2.872655 1_655
Na2 O49 2.373043 1_555
Na2 O70 2.485670 1_545
Na2 O48 2.501520 1_555
Na2 O71 2.524924 1_545
Na2 O13 2.541359 1_555
Na2 O34 2.779503 1_545
Na2 O8 2.865391 1_545
Na2 O3 2.935122 1_555
Na3 O45 2.404324 1_555
Na3 O60 2.422835 1_555
Na3 O62 2.450264 1_555
Na3 O46 2.568912 1_565
Na3 O24 2.711141 1_554
Na3 O9 2.763549 1_555
Na3 O17 2.801164 1_555
Na3 O19 2.826136 1_555
Na4 O61 2.372179 1_555
Na4 O46 2.495326 1_455
Na4 O60 2.559497 1_555
Na4 O47 2.592747 1_555
Na4 O25 2.725429 1_554
Na4 O15 2.733193 1_455
Na4 O10 2.758945 1_555
Na4 O20 2.776054 1_455
Na5 O36 2.323189 1_545
Na5 O38 2.378895 1_555
Na5 O57 2.432443 1_555
Na5 O58 2.564399 1_555
Na5 O0 2.689655 1_555
Na5 O21 2.792132 1_555
Na5 O29 2.840870 1_545
Na5 O31 2.889967 1_545
Na6 O37 2.388132 1_555
Na6 O38 2.535326 1_665
Na6 O36 2.601536 1_655
Na6 O44 2.642378 1_555
Na6 O43 2.671779 1_665
Na6 O42 2.714295 1_565
Na7 O40 2.468066 1_555
Na7 O41 2.502052 1_455
Na7 O39 2.527733 1_565
Na7 O45 2.677173 1_456
Na7 O47 2.686863 1_566
Na7 O46 2.775296 1_466
Na8 O49 2.512426 1_555
Na8 O55 2.542345 1_555
Na8 O54 2.565557 1_555
Na8 O56 2.576535 1_555
Na8 O48 2.581877 1_555
Na8 O50 2.598287 1_555
Na9 O52 2.366804 1_555
Na9 O51 2.558218 1_555
Na9 O53 2.623320 1_555
Na9 O59 2.631758 1_555
Na9 O57 2.701170 1_555
Na9 O58 2.770541 1_555
Na10 O66 2.545211 1_555
Na10 O68 2.564172 1_555
Na10 O61 2.576043 1_555
Na10 O62 2.596963 1_555
Na10 O67 2.601051 1_555
Na10 O60 2.658751 1_555
Na11 O63 2.492456 1_555
Na11 O64 2.498325 1_555
Na11 O65 2.596835 1_555
Na11 O71 2.602840 1_555
Na11 O69 2.634045 1_555
Na11 O70 2.658095 1_555
Nb0 O5 1.961429 1_555
Nb0 O3 1.978899 1_655
Nb0 O4 2.003403 1_545
Nb0 O39 2.005871 1_655
Nb0 O40 2.011668 1_645
Nb0 O41 2.021875 1_545
Nb1 O8 1.915722 1_555
Nb1 O44 1.974313 1_455
Nb1 O43 1.976686 1_565
Nb1 O7 2.000535 1_565
Nb1 O6 2.006661 1_455
Nb1 O42 2.190617 1_465
Nb2 O10 1.908318 1_555
Nb2 O47 1.943511 1_555
Nb2 O46 1.971831 1_455
Nb2 O45 2.024189 1_445
Nb2 O11 2.057879 1_545
Nb2 O9 2.181818 1_445
Nb3 O18 1.974554 1_556
Nb3 O19 1.995631 1_556
Nb3 O54 1.996119 1_555
Nb3 O20 2.009272 1_556
Nb3 O56 2.010408 1_555
Nb3 O55 2.029603 1_555
Nb4 O22 1.922856 1_555
Nb4 O58 1.931729 1_555
Nb4 O21 1.988763 1_555
Nb4 O59 1.990696 1_555
Nb4 O57 2.046250 1_555
Nb4 O23 2.177082 1_555
Nb5 O26 1.914389 1_554
Nb5 O25 1.969028 1_554
Nb5 O24 1.988486 1_554
Nb5 O62 2.013463 1_555
Nb5 O61 2.016518 1_555
Nb5 O60 2.090223 1_555
Nb6 O27 1.874864 1_555
Nb6 O28 1.972873 1_555
Nb6 O29 1.979064 1_555
Nb6 O64 1.996389 1_555
Nb6 O63 2.000885 1_555
Nb6 O65 2.288644 1_555
Nb7 O30 1.881543 1_555
Nb7 O32 1.885140 1_555
Nb7 O68 1.977318 1_555
Nb7 O31 1.988998 1_555
Nb7 O66 2.220254 1_555
Nb7 O67 2.268173 1_555
Nb8 O35 1.926824 1_555
Nb8 O34 1.944938 1_555
Nb8 O33 1.949501 1_555
Nb8 O70 2.050094 1_555
Nb8 O69 2.056626 1_555
Nb8 O71 2.085595 1_555
Ga0 O2 1.864180 1_555
Ga0 O37 1.894812 1_545
Ga0 O38 1.955989 1_655
Ga0 O36 2.012519 1_645
Ga0 O1 2.178069 1_545
Ga0 O0 2.324626 1_655
Ga1 O13 1.909566 1_555
Ga1 O14 1.912067 1_555
Ga1 O49 1.998626 1_555
Ga1 O48 2.025135 1_555
Ga1 O50 2.064838 1_555
Ga1 O12 2.255799 1_555
Ga2 O16 1.872334 1_555
Ga2 O15 1.881975 1_555
Ga2 O17 1.933606 1_555
Ga2 O52 1.947584 1_555
Ga2 O51 2.325124 1_555
Ga2 O53 2.341287 1_555
O0 S0 1.460905 1_555
O1 S1 1.464624 1_555
O2 Si0 1.601773 1_555
O3 Si1 1.642674 1_555
O4 Si2 1.634183 1_555
O5 Si3 1.646941 1_555
O6 Si3 1.637551 1_565
O7 Si1 1.636882 1_555
O8 Si2 1.655487 1_455
O9 S1 1.526083 1_555
O10 Si0 1.703562 1_455
O11 S0 1.528530 1_565
O12 S2 1.476842 1_555
O13 Si4 1.617169 1_555
O14 Si5 1.612432 1_555
O15 Si6 1.598493 1_555
O16 Si7 1.584310 1_555
O17 Si8 1.603291 1_555
O18 Si8 1.639341 1_555
O19 Si6 1.646888 1_555
O20 Si7 1.638325 1_555
O21 Si4 1.653399 1_555
O22 Si5 1.656855 1_555
O23 S2 1.484186 1_555
O24 Si9 1.639093 1_555
O25 Si10 1.641243 1_555
O26 Si11 1.643223 1_555
O27 Si12 1.672006 1_555
O28 Si13 1.623477 1_555
O29 Si14 1.643659 1_555
O30 Si14 1.677936 1_555
O31 Si12 1.651348 1_555
O32 Si13 1.654465 1_555
O33 Si10 1.660618 1_555
O34 Si11 1.653295 1_555
O35 Si9 1.655416 1_555
O36 Si14 1.607776 1_555
O37 Si12 1.593480 1_555
O38 Si13 1.602600 1_555
O39 Si10 1.626708 1_555
O40 Si11 1.618289 1_555
O41 Si9 1.622943 1_555
O42 S2 1.498143 1_555
O43 Si4 1.665181 1_555
O44 Si5 1.659026 1_555
O45 Si6 1.646793 1_555
O46 Si7 1.695957 1_555
O47 Si8 1.677472 1_555
O48 Si3 1.621139 1_555
O49 Si1 1.621155 1_555
O50 Si2 1.612400 1_555
O51 S1 1.473221 1_555
O52 Si0 1.623241 1_555
O53 S0 1.465508 1_555
O54 Si9 1.623334 1_555
O55 Si10 1.622030 1_655
O56 Si11 1.618641 1_545
O57 Si12 1.645549 1_545
O58 Si13 1.662675 1_555
O59 Si14 1.631590 1_655
O60 Si8 1.658169 1_555
O61 Si6 1.647565 1_455
O62 Si7 1.640629 1_565
O63 Si4 1.656762 1_565
O64 Si5 1.646958 1_555
O65 S2 1.488403 1_455
O66 S0 1.509193 1_565
O67 S1 1.514923 1_555
O68 Si0 1.690214 1_455
O69 Si1 1.650737 1_555
O70 Si2 1.642431 1_455
O71 Si3 1.652436 1_565
