# generated using pymatgen
data_Nb2Te6I
_symmetry_space_group_name_H-M   'P 1'
_cell_length_a   14.07927573
_cell_length_b   9.38392063
_cell_length_c   9.77097983
_cell_angle_alpha   67.38867178
_cell_angle_beta   90.00000000
_cell_angle_gamma   90.00000000
_symmetry_Int_Tables_number   1
_chemical_formula_structural   Nb2Te6I
_chemical_formula_sum   'Nb8 Te24 I4'
_cell_volume   1191.70183038
_cell_formula_units_Z   4
loop_
 _symmetry_equiv_pos_site_id
 _symmetry_equiv_pos_as_xyz
  1  'x, y, z'
loop_
 _atom_site_type_symbol
 _atom_site_label
 _atom_site_symmetry_multiplicity
 _atom_site_fract_x
 _atom_site_fract_y
 _atom_site_fract_z
 _atom_site_occupancy
  Nb  Nb0  1  0.99225728  0.82508005  0.62905389  1
  Nb  Nb1  1  0.49225728  0.17491995  0.87094611  1
  Nb  Nb2  1  0.00774272  0.17491995  0.37094611  1
  Nb  Nb3  1  0.50774272  0.82508005  0.12905389  1
  Nb  Nb4  1  0.97563513  0.47529672  0.86932627  1
  Nb  Nb5  1  0.47563513  0.52470328  0.63067373  1
  Nb  Nb6  1  0.02436487  0.52470328  0.13067373  1
  Nb  Nb7  1  0.52436487  0.47529672  0.36932627  1
  Te  Te0  1  0.90101313  0.75752680  0.91054036  1
  Te  Te1  1  0.40101313  0.24247320  0.58945964  1
  Te  Te2  1  0.09898687  0.24247320  0.08945964  1
  Te  Te3  1  0.59898687  0.75752680  0.41054036  1
  Te  Te4  1  0.81483198  0.62573114  0.72984037  1
  Te  Te5  1  0.31483198  0.37426886  0.77015963  1
  Te  Te6  1  0.18516802  0.37426886  0.27015963  1
  Te  Te7  1  0.68516802  0.62573114  0.22984037  1
  Te  Te8  1  0.83933615  0.04349265  0.52808850  1
  Te  Te9  1  0.33933615  0.95650735  0.97191150  1
  Te  Te10  1  0.16066385  0.95650735  0.47191150  1
  Te  Te11  1  0.66066385  0.04349265  0.02808850  1
  Te  Te12  1  0.91434378  0.91799337  0.33818625  1
  Te  Te13  1  0.41434378  0.08200663  0.16181375  1
  Te  Te14  1  0.08565622  0.08200663  0.66181375  1
  Te  Te15  1  0.58565622  0.91799337  0.83818625  1
  Te  Te16  1  0.06412145  0.54563515  0.58939306  1
  Te  Te17  1  0.56412145  0.45436485  0.91060694  1
  Te  Te18  1  0.93587855  0.45436485  0.41060694  1
  Te  Te19  1  0.43587855  0.54563515  0.08939306  1
  Te  Te20  1  0.13678435  0.64923017  0.85677420  1
  Te  Te21  1  0.63678435  0.35076983  0.64322580  1
  Te  Te22  1  0.86321565  0.35076983  0.14322580  1
  Te  Te23  1  0.36321565  0.64923017  0.35677420  1
  I  I0  1  0.91877429  0.18811278  0.84866956  1
  I  I1  1  0.41877429  0.81188722  0.65133044  1
  I  I2  1  0.08122571  0.81188722  0.15133044  1
  I  I3  1  0.58122571  0.18811278  0.34866956  1
loop_
_geom_bond_atom_site_label_1
_geom_bond_atom_site_label_2
_geom_bond_distance
_geom_bond_site_symmetry_2
Nb0 Te10 2.836248 1_655
Nb0 Te12 2.852261 1_555
Nb0 Te14 2.870177 1_665
Nb0 Te8 2.873092 1_565
Nb0 Te0 2.876835 1_555
Nb0 Te16 2.971821 1_655
Nb0 Te20 2.998512 1_655
Nb0 Te4 3.048401 1_555
Nb1 Te11 2.836248 1_556
Nb1 Te13 2.852261 1_556
Nb1 Te15 2.870177 1_545
Nb1 Te9 2.873092 1_545
Nb1 Te1 2.876835 1_555
Nb1 Te17 2.971821 1_555
Nb1 Te21 2.998512 1_555
Nb1 Te5 3.048401 1_555
Nb2 Te8 2.836248 1_455
Nb2 Te14 2.852261 1_555
Nb2 Te12 2.870177 1_445
Nb2 Te10 2.873092 1_545
Nb2 Te2 2.876835 1_555
Nb2 Te18 2.971821 1_455
Nb2 Te22 2.998512 1_455
Nb2 Te6 3.048401 1_555
Nb3 Te9 2.836248 1_554
Nb3 Te15 2.852261 1_554
Nb3 Te13 2.870177 1_565
Nb3 Te11 2.873092 1_565
Nb3 Te3 2.876835 1_555
Nb3 Te19 2.971821 1_555
Nb3 Te23 2.998512 1_555
Nb3 Te7 3.048401 1_555
Nb4 Te4 2.737981 1_555
Nb4 Te20 2.769993 1_655
Nb4 Te16 2.842696 1_655
Nb4 Te22 2.937401 1_556
Nb4 Te2 2.966877 1_656
Nb4 Te0 3.016661 1_555
Nb5 Te5 2.737981 1_555
Nb5 Te21 2.769993 1_555
Nb5 Te17 2.842696 1_555
Nb5 Te23 2.937401 1_555
Nb5 Te3 2.966877 1_555
Nb5 Te1 3.016661 1_555
Nb6 Te6 2.737981 1_555
Nb6 Te22 2.769993 1_455
Nb6 Te18 2.842696 1_455
Nb6 Te20 2.937401 1_554
Nb6 Te0 2.966877 1_454
Nb6 Te2 3.016661 1_555
Nb7 Te7 2.737981 1_555
Nb7 Te23 2.769993 1_555
Nb7 Te19 2.842696 1_555
Nb7 Te21 2.937401 1_555
Nb7 Te1 2.966877 1_555
Nb7 Te3 3.016661 1_555
Te0 Te4 2.792555 1_555
Te1 Te5 2.792555 1_555
Te2 Te6 2.792555 1_555
Te3 Te7 2.792555 1_555
Te10 Te14 2.761430 1_565
Te11 Te15 2.761430 1_544
Te12 Te8 2.761430 1_565
Te13 Te9 2.761430 1_544
Te16 Te18 2.862837 1_455
Te17 Te19 2.862837 1_556
I0 Nb4 2.891788 1_555
I0 Te14 3.353090 1_655
I1 Nb5 2.891788 1_555
I1 Te15 3.353090 1_555
I2 Nb6 2.891788 1_555
I2 Te12 3.353090 1_455
I3 Nb7 2.891788 1_555
I3 Te13 3.353090 1_555
