# generated using pymatgen
data_Na2Nb5Ga3(PO4)12
_symmetry_space_group_name_H-M   'P 1'
_cell_length_a   17.38741761
_cell_length_b   8.69585447
_cell_length_c   22.50941675
_cell_angle_alpha   89.97276595
_cell_angle_beta   89.98191808
_cell_angle_gamma   119.99633552
_symmetry_Int_Tables_number   1
_chemical_formula_structural   Na2Nb5Ga3(PO4)12
_chemical_formula_sum   'Na6 Nb15 Ga9 P36 O144'
_cell_volume   2947.52922443
_cell_formula_units_Z   3
loop_
 _symmetry_equiv_pos_site_id
 _symmetry_equiv_pos_as_xyz
  1  'x, y, z'
loop_
 _atom_site_type_symbol
 _atom_site_label
 _atom_site_symmetry_multiplicity
 _atom_site_fract_x
 _atom_site_fract_y
 _atom_site_fract_z
 _atom_site_occupancy
  Na  Na0  1  0.33155027  0.33020356  0.82662380  1
  Na  Na1  1  0.83516095  0.33670920  0.82771336  1
  Na  Na2  1  0.33112886  0.32916367  0.32718086  1
  Na  Na3  1  0.83511051  0.33762187  0.32599826  1
  Na  Na4  1  0.66836218  0.66694041  0.16836616  1
  Na  Na5  1  0.16631480  0.66630076  0.66555698  1
  Nb  Nb0  1  0.50067988  0.00237769  0.35625884  1
  Nb  Nb1  1  0.00139478  0.99927175  0.85588587  1
  Nb  Nb2  1  0.49870375  0.00068278  0.85648192  1
  Nb  Nb3  1  0.00320292  0.00315697  0.64131897  1
  Nb  Nb4  1  0.49682048  0.99722515  0.64096621  1
  Nb  Nb5  1  0.99641684  0.99649776  0.14611454  1
  Nb  Nb6  1  0.50321919  0.00223338  0.14346764  1
  Nb  Nb7  1  0.33472829  0.33703287  0.97943203  1
  Nb  Nb8  1  0.83188597  0.32927253  0.97977622  1
  Nb  Nb9  1  0.32967819  0.33354812  0.47711850  1
  Nb  Nb10  1  0.83718921  0.33349712  0.47638346  1
  Nb  Nb11  1  0.16614455  0.66540235  0.02504917  1
  Nb  Nb12  1  0.66882305  0.67111929  0.52319813  1
  Nb  Nb13  1  0.16362203  0.66330018  0.30762989  1
  Nb  Nb14  1  0.66726591  0.66682459  0.80697348  1
  Ga  Ga0  1  0.99923869  0.99749994  0.35462464  1
  Ga  Ga1  1  0.33097275  0.33016197  0.68631825  1
  Ga  Ga2  1  0.83597846  0.33672435  0.68658751  1
  Ga  Ga3  1  0.33405385  0.33286281  0.18827730  1
  Ga  Ga4  1  0.83236444  0.33398141  0.18814911  1
  Ga  Ga5  1  0.66714570  0.66793407  0.02158473  1
  Ga  Ga6  1  0.16511600  0.66298984  0.51844816  1
  Ga  Ga7  1  0.66967507  0.66980261  0.31068687  1
  Ga  Ga8  1  0.16602504  0.66632410  0.81030385  1
  P  P0  1  0.14536367  0.01170434  0.25166597  1
  P  P1  1  0.64773750  -0.00054158  0.25042614  1
  P  P2  1  0.35760405  0.70684806  0.24936626  1
  P  P3  1  0.85369609  0.70565015  0.25322332  1
  P  P4  1  0.99318316  0.27811292  0.25217494  1
  P  P5  1  0.50058720  0.29554348  0.24960680  1
  P  P6  1  0.14746539  0.29518202  0.74964941  1
  P  P7  1  0.64653604  0.28211609  0.74857113  1
  P  P8  1  0.00022908  0.70597042  0.74915681  1
  P  P9  1  0.49459868  0.70642845  0.74913414  1
  P  P10  1  0.35229092  0.00001883  0.74952435  1
  P  P11  1  0.85924741  0.01129563  0.74883948  1
  P  P12  1  0.47376728  0.33776984  0.58504060  1
  P  P13  1  0.98012472  0.34519809  0.58574043  1
  P  P14  1  0.19366086  0.03928333  0.58508737  1
  P  P15  1  0.69414515  0.05458927  0.58599340  1
  P  P16  1  0.32602887  0.61152642  0.58554775  1
  P  P17  1  0.83312018  0.61260185  0.58556296  1
  P  P18  1  0.47997531  0.61560424  0.08645831  1
  P  P19  1  0.97347605  0.61532109  0.08593255  1
  P  P20  1  0.33382079  0.05190977  0.08609797  1
  P  P21  1  0.82782454  0.04022561  0.08654339  1
  P  P22  1  0.19175700  0.33092086  0.08678455  1
  P  P23  1  0.69273446  0.34544551  0.08564064  1
  P  P24  1  0.30566982  0.66411841  0.91406120  1
  P  P25  1  0.80698123  0.66585295  0.91826168  1
  P  P26  1  0.02561177  0.38662120  0.91406045  1
  P  P27  1  0.52684595  0.38796977  0.91825555  1
  P  P28  1  0.16888447  0.94894385  0.91435172  1
  P  P29  1  0.66615441  0.94631958  0.91789523  1
  P  P30  1  0.30638167  0.94669113  0.41779781  1
  P  P31  1  0.81131029  0.94742245  0.41258190  1
  P  P32  1  0.16006668  0.37610893  0.41694098  1
  P  P33  1  0.66856820  0.38797011  0.41434239  1
  P  P34  1  0.02729064  0.67891292  0.41755641  1
  P  P35  1  0.52613357  0.66437810  0.41370295  1
  O  O0  1  0.10276730  0.03806259  0.30637519  1
  O  O1  1  0.59954415  0.02510760  0.30515288  1
  O  O2  1  0.41551510  0.79998507  0.30489572  1
  O  O3  1  0.91253320  0.79315292  0.30680079  1
  O  O4  1  0.48791361  0.17427260  0.30487568  1
  O  O5  1  0.98090551  0.16787106  0.30689799  1
  O  O6  1  0.09955671  0.17406887  0.80514729  1
  O  O7  1  0.59999330  0.16885253  0.80475799  1
  O  O8  1  0.48463862  0.79976660  0.80513155  1
  O  O9  1  0.98794217  0.80153711  0.80497370  1
  O  O10  1  0.41290170  0.02422426  0.80494121  1
  O  O11  1  0.91531477  0.03148535  0.80511525  1
  O  O12  1  0.40068948  0.97548363  0.69468571  1
  O  O13  1  0.90036486  0.97508304  0.69433667  1
  O  O14  1  0.08749903  0.19913307  0.69477847  1
  O  O15  1  0.58697092  0.19871092  0.69413424  1
  O  O16  1  0.01211931  0.82587312  0.69447823  1
  O  O17  1  0.51262751  0.82600164  0.69453009  1
  O  O18  1  0.40100371  0.82574390  0.19439493  1
  O  O19  1  0.90103318  0.82633289  0.19559411  1
  O  O20  1  0.01172692  0.19774157  0.19533388  1
  O  O21  1  0.51198577  0.19793058  0.19440964  1
  O  O22  1  0.08678499  0.97627303  0.19489412  1
  O  O23  1  0.58774981  0.97663343  0.19483086  1
  O  O24  1  0.43557701  0.37077354  0.64055224  1
  O  O25  1  0.93731876  0.37220344  0.64056577  1
  O  O26  1  0.24915615  0.12503204  0.64018192  1
  O  O27  1  0.74963709  0.12946155  0.64118672  1
  O  O28  1  0.31447974  0.50207001  0.64082216  1
  O  O29  1  0.81394570  0.49977605  0.64049873  1
  O  O30  1  0.43560622  0.49952955  0.14006236  1
  O  O31  1  0.93509911  0.49992646  0.13981670  1
  O  O32  1  0.31418378  0.12901033  0.13966488  1
  O  O33  1  0.81444898  0.12900742  0.14025668  1
  O  O34  1  0.25038879  0.37143717  0.14019355  1
  O  O35  1  0.74974218  0.37108587  0.13961768  1
  O  O36  1  0.23464555  0.30432102  0.02912041  1
  O  O37  1  0.73465295  0.30963813  0.02851613  1
  O  O38  1  0.42010877  0.53036169  0.02908899  1
  O  O39  1  0.91763129  0.53141248  0.02844127  1
  O  O40  1  0.34807736  0.16447333  0.02864936  1
  O  O41  1  0.84454785  0.15959070  0.02902317  1
  O  O42  1  0.23454236  0.16005022  0.52886170  1
  O  O43  1  0.73436444  0.16641921  0.52932798  1
  O  O44  1  0.34529299  0.53084323  0.52919668  1
  O  O45  1  0.84858108  0.53066978  0.52907420  1
  O  O46  1  0.41689206  0.30383248  0.52873595  1
  O  O47  1  0.92029302  0.30817023  0.52940218  1
  O  O48  1  0.26565625  0.69322055  0.97110684  1
  O  O49  1  0.76841582  0.69819156  0.97338977  1
  O  O50  1  0.08112143  0.46883229  0.97098288  1
  O  O51  1  0.58081061  0.46392951  0.97362198  1
  O  O52  1  0.15388622  0.83785751  0.97117703  1
  O  O53  1  0.65010806  0.83799354  0.97332671  1
  O  O54  1  0.26921269  0.84002836  0.47393347  1
  O  O55  1  0.76479053  0.83621945  0.47039227  1
  O  O56  1  0.15089815  0.46126352  0.47321865  1
  O  O57  1  0.65345894  0.46877348  0.47130802  1
  O  O58  1  0.08045735  0.69930661  0.47318585  1
  O  O59  1  0.58092137  0.69331985  0.47106629  1
  O  O60  1  0.06717862  0.63569105  0.36178962  1
  O  O61  1  0.56478887  0.62825641  0.35915316  1
  O  O62  1  0.25027110  0.86768675  0.36147077  1
  O  O63  1  0.74983600  0.87375561  0.35965226  1
  O  O64  1  0.18236348  0.49998884  0.36157965  1
  O  O65  1  0.68590975  0.49944159  0.35937378  1
  O  O66  1  0.06415532  0.49995903  0.85927954  1
  O  O67  1  0.56708601  0.49987350  0.86139554  1
  O  O68  1  0.18663039  0.87246381  0.85933111  1
  O  O69  1  0.68233345  0.86479917  0.86137621  1
  O  O70  1  0.24991491  0.62855193  0.85901289  1
  O  O71  1  0.74998126  0.63471111  0.86154303  1
  O  O72  1  0.01263400  0.83288989  0.40698261  1
  O  O73  1  0.51447292  0.82927455  0.40696923  1
  O  O74  1  0.40053677  0.97244458  0.40612905  1
  O  O75  1  0.90299451  0.97122301  0.40831693  1
  O  O76  1  0.08319088  0.19239232  0.40659994  1
  O  O77  1  0.58553579  0.20012040  0.40746182  1
  O  O78  1  0.01438924  0.19901748  0.90707864  1
  O  O79  1  0.51386177  0.19986571  0.90662513  1
  O  O80  1  0.08590133  0.97087829  0.90738537  1
  O  O81  1  0.58551945  0.97293174  0.90603559  1
  O  O82  1  0.39997742  0.82898582  0.90730211  1
  O  O83  1  0.90046185  0.82835213  0.90597003  1
  O  O84  1  0.48562721  0.17208028  0.59259283  1
  O  O85  1  0.98608200  0.17167365  0.59354728  1
  O  O86  1  0.10098600  0.02858837  0.59264589  1
  O  O87  1  0.59943746  0.02938153  0.59352475  1
  O  O88  1  0.41339264  0.79868524  0.59302102  1
  O  O89  1  0.91517265  0.80043513  0.59322497  1
  O  O90  1  0.48571259  0.79991301  0.09287598  1
  O  O91  1  0.98604996  0.80220765  0.09158618  1
  O  O92  1  0.41551403  0.02901144  0.09220109  1
  O  O93  1  0.91414131  0.02878922  0.09260580  1
  O  O94  1  0.09869886  0.16879882  0.09246760  1
  O  O95  1  0.60042273  0.17207558  0.09215154  1
  O  O96  1  0.34811384  0.17062560  0.74466494  1
  O  O97  1  0.84695781  0.17163689  0.74455778  1
  O  O98  1  0.23755261  0.30533383  0.74488721  1
  O  O99  1  0.73878207  0.30602228  0.74427241  1
  O  O100  1  0.41396795  0.52277232  0.74436109  1
  O  O101  1  0.91514540  0.52560473  0.74487862  1
  O  O102  1  0.34779876  0.52368263  0.24440036  1
  O  O103  1  0.84593732  0.52359347  0.24318638  1
  O  O104  1  0.41518393  0.30429863  0.24456962  1
  O  O105  1  0.91436998  0.30677833  0.24332387  1
  O  O106  1  0.23882500  0.17018002  0.24316999  1
  O  O107  1  0.73746598  0.16925083  0.24487043  1
  O  O108  1  0.32004323  0.50213551  0.92384515  1
  O  O109  1  0.81935847  0.50043774  0.92317154  1
  O  O110  1  0.43130076  0.36163599  0.92331359  1
  O  O111  1  0.93072259  0.35959659  0.92426402  1
  O  O112  1  0.24957694  0.13937785  0.92434313  1
  O  O113  1  0.74909283  0.13669541  0.92297787  1
  O  O114  1  0.32018388  0.13863840  0.42378341  1
  O  O115  1  0.81996277  0.13583895  0.42537539  1
  O  O116  1  0.24829259  0.36132606  0.42419521  1
  O  O117  1  0.74927281  0.35916070  0.42437051  1
  O  O118  1  0.43090487  0.50204523  0.42421114  1
  O  O119  1  0.93236579  0.50250890  0.42426632  1
  O  O120  1  0.18080397  0.49529235  0.07312420  1
  O  O121  1  0.67943803  0.50320635  0.07643460  1
  O  O122  1  0.06701312  0.63834810  0.07300834  1
  O  O123  1  0.57194540  0.64086724  0.07675847  1
  O  O124  1  0.25242832  0.86511561  0.07307882  1
  O  O125  1  0.74829021  0.85635805  0.07683650  1
  O  O126  1  0.17929838  0.85418936  0.57620180  1
  O  O127  1  0.68048052  0.86628526  0.57405514  1
  O  O128  1  0.24806818  0.64129075  0.57682796  1
  O  O129  1  0.75264660  0.63966306  0.57353799  1
  O  O130  1  0.07262496  0.50272817  0.57686267  1
  O  O131  1  0.56773625  0.49711059  0.57303069  1
  O  O132  1  0.15257319  0.83912343  0.25913146  1
  O  O133  1  0.65143251  0.82886388  0.25493502  1
  O  O134  1  0.26641243  0.69455641  0.25873843  1
  O  O135  1  0.76273475  0.69528144  0.25449275  1
  O  O136  1  0.07987211  0.46544162  0.25870246  1
  O  O137  1  0.58508070  0.47472653  0.25501441  1
  O  O138  1  0.15221988  0.47454220  0.75532721  1
  O  O139  1  0.65261397  0.46594883  0.75914116  1
  O  O140  1  0.08492760  0.69543033  0.75514293  1
  O  O141  1  0.58032994  0.69386857  0.75928404  1
  O  O142  1  0.26269134  0.83024828  0.75518715  1
  O  O143  1  0.76678497  0.83975136  0.75920790  1
loop_
_geom_bond_atom_site_label_1
_geom_bond_atom_site_label_2
_geom_bond_distance
_geom_bond_site_symmetry_2
Na0 O98 2.398299 1_555
Na0 O96 2.411165 1_555
Na0 O100 2.425365 1_555
Na0 O112 2.693142 1_555
Na0 O110 2.710839 1_555
Na0 O108 2.714103 1_555
Na1 O101 2.412500 1_555
Na1 O97 2.429581 1_555
Na1 O99 2.441811 1_555
Na1 O109 2.667063 1_555
Na1 O111 2.682478 1_555
Na1 O113 2.693464 1_555
Na2 O106 2.418459 1_555
Na2 O102 2.433863 1_555
Na2 O104 2.440335 1_555
Na2 O114 2.681510 1_555
Na2 O116 2.706065 1_555
Na2 O118 2.727224 1_555
Na3 O105 2.408886 1_555
Na3 O103 2.412032 1_555
Na3 O107 2.424858 1_555
Na3 O119 2.718305 1_555
Na3 O117 2.728292 1_555
Na3 O115 2.772340 1_555
Na4 O135 2.471798 1_555
Na4 O137 2.503943 1_555
Na4 O133 2.506606 1_555
Na4 O125 2.568139 1_555
Na4 O121 2.573546 1_555
Na4 O123 2.595461 1_555
Na5 O130 2.520054 1_555
Na5 O128 2.522816 1_555
Na5 O126 2.528573 1_555
Na5 O140 2.547586 1_555
Na5 O138 2.551789 1_555
Na5 O142 2.554821 1_555
Nb0 O74 1.976122 1_545
Nb0 O77 1.981983 1_555
Nb0 O4 1.987872 1_555
Nb0 O1 1.994030 1_555
Nb0 O73 1.996452 1_545
Nb0 O2 2.006017 1_545
Nb1 O9 1.981038 1_455
Nb1 O80 1.981743 1_555
Nb1 O6 1.982675 1_565
Nb1 O83 1.987202 1_455
Nb1 O78 2.001395 1_565
Nb1 O11 2.011127 1_465
Nb2 O79 1.972070 1_555
Nb2 O82 1.979632 1_545
Nb2 O10 1.979847 1_555
Nb2 O81 1.986463 1_545
Nb2 O7 2.004413 1_555
Nb2 O8 2.005791 1_545
Nb3 O86 1.939731 1_555
Nb3 O85 1.956321 1_455
Nb3 O89 1.981735 1_445
Nb3 O14 2.001512 1_555
Nb3 O16 2.017381 1_545
Nb3 O13 2.059845 1_445
Nb4 O88 1.936046 1_555
Nb4 O84 1.957014 1_565
Nb4 O87 1.975280 1_565
Nb4 O12 1.993549 1_555
Nb4 O17 2.038097 1_555
Nb4 O15 2.053344 1_565
Nb5 O19 1.929776 1_555
Nb5 O20 1.974079 1_665
Nb5 O93 1.994611 1_565
Nb5 O22 1.995654 1_655
Nb5 O91 2.022642 1_555
Nb5 O94 2.049025 1_665
Nb6 O95 1.968069 1_555
Nb6 O23 1.968364 1_545
Nb6 O90 1.987825 1_545
Nb6 O21 1.994157 1_555
Nb6 O92 2.016763 1_555
Nb6 O18 2.024323 1_545
Nb7 O38 1.945993 1_556
Nb7 O36 1.965606 1_556
Nb7 O40 1.969696 1_556
Nb7 O108 2.014216 1_555
Nb7 O110 2.024885 1_555
Nb7 O112 2.035343 1_555
Nb8 O41 1.943677 1_556
Nb8 O37 1.949630 1_556
Nb8 O39 1.973572 1_556
Nb8 O113 2.025832 1_555
Nb8 O111 2.032096 1_555
Nb8 O109 2.051545 1_555
Nb9 O116 1.955125 1_555
Nb9 O42 1.967424 1_555
Nb9 O44 1.981842 1_555
Nb9 O114 2.015826 1_555
Nb9 O118 2.020251 1_555
Nb9 O46 2.027044 1_555
Nb10 O119 1.959615 1_555
Nb10 O115 1.962043 1_555
Nb10 O47 1.969698 1_555
Nb10 O45 2.012020 1_555
Nb10 O117 2.024662 1_555
Nb10 O43 2.031581 1_555
Nb11 O122 1.945456 1_555
Nb11 O120 1.949318 1_555
Nb11 O124 1.957873 1_555
Nb11 O50 2.016142 1_554
Nb11 O52 2.020612 1_554
Nb11 O48 2.026446 1_554
Nb12 O55 1.964718 1_555
Nb12 O129 1.970381 1_555
Nb12 O127 1.972274 1_555
Nb12 O131 1.993741 1_555
Nb12 O59 2.011509 1_555
Nb12 O57 2.015902 1_555
Nb13 O136 1.947140 1_555
Nb13 O132 1.964314 1_555
Nb13 O60 1.987896 1_555
Nb13 O134 1.998015 1_555
Nb13 O64 2.014698 1_555
Nb13 O62 2.055057 1_555
Nb14 O143 1.951152 1_555
Nb14 O139 1.957652 1_555
Nb14 O141 1.961826 1_555
Nb14 O71 2.014344 1_555
Nb14 O69 2.020696 1_555
Nb14 O67 2.027525 1_555
Ga0 O72 1.955537 1_655
Ga0 O76 1.975116 1_665
Ga0 O0 1.976823 1_665
Ga0 O3 1.978249 1_555
Ga0 O5 1.980290 1_565
Ga0 O75 1.982271 1_555
Ga1 O26 1.936361 1_555
Ga1 O28 1.947578 1_555
Ga1 O24 1.962196 1_555
Ga1 O98 2.017635 1_555
Ga1 O96 2.037221 1_555
Ga1 O100 2.044817 1_555
Ga2 O25 1.930830 1_555
Ga2 O29 1.943029 1_555
Ga2 O27 1.960558 1_555
Ga2 O101 2.014116 1_555
Ga2 O97 2.018026 1_555
Ga2 O99 2.039725 1_555
Ga3 O30 1.958227 1_555
Ga3 O32 1.961834 1_555
Ga3 O34 1.971989 1_555
Ga3 O106 1.981045 1_555
Ga3 O104 2.002087 1_555
Ga3 O102 2.003026 1_555
Ga4 O35 1.955859 1_555
Ga4 O31 1.968926 1_555
Ga4 O33 1.970555 1_555
Ga4 O103 1.980449 1_555
Ga4 O105 1.992382 1_555
Ga4 O107 2.009550 1_555
Ga5 O49 1.970251 1_554
Ga5 O53 1.972642 1_554
Ga5 O51 1.976404 1_554
Ga5 O125 1.978287 1_555
Ga5 O121 1.981548 1_555
Ga5 O123 1.986612 1_555
Ga6 O56 1.934691 1_555
Ga6 O58 1.941640 1_555
Ga6 O54 1.965022 1_555
Ga6 O130 2.003320 1_555
Ga6 O126 2.026696 1_555
Ga6 O128 2.028752 1_555
Ga7 O63 1.958079 1_555
Ga7 O65 1.972851 1_555
Ga7 O135 1.976658 1_555
Ga7 O61 1.996534 1_555
Ga7 O133 2.006475 1_555
Ga7 O137 2.029735 1_555
Ga8 O66 1.969934 1_555
Ga8 O70 1.979222 1_555
Ga8 O68 1.979769 1_555
Ga8 O140 1.987890 1_555
Ga8 O138 1.993022 1_555
Ga8 O142 1.999384 1_555
O0 P0 1.512298 1_555
O1 P1 1.567133 1_555
O2 P2 1.555158 1_555
O3 P3 1.517664 1_555
O4 P5 1.573079 1_555
O5 P4 1.508626 1_555
O6 P6 1.576242 1_555
O7 P7 1.557474 1_555
O8 P9 1.555294 1_555
O9 P8 1.578974 1_655
O10 P10 1.578045 1_555
O11 P11 1.554240 1_555
O12 P10 1.567327 1_565
O13 P11 1.529805 1_565
O14 P6 1.562460 1_555
O15 P7 1.533201 1_555
O16 P8 1.558135 1_555
O17 P9 1.537128 1_555
O18 P2 1.545175 1_555
O19 P3 1.611167 1_555
O20 P4 1.566953 1_455
O21 P5 1.572432 1_555
O22 P0 1.566136 1_565
O23 P1 1.577154 1_565
O24 P12 1.508313 1_555
O25 P13 1.518729 1_555
O26 P14 1.518964 1_555
O27 P15 1.507228 1_555
O28 P16 1.517203 1_555
O29 P17 1.508104 1_555
O30 P18 1.513111 1_555
O31 P19 1.500711 1_555
O32 P20 1.499783 1_555
O33 P21 1.513993 1_555
O34 P22 1.500252 1_555
O35 P23 1.512767 1_555
O36 P22 1.570515 1_555
O37 P23 1.583754 1_555
O38 P18 1.590856 1_555
O39 P19 1.563071 1_555
O40 P20 1.564528 1_555
O41 P21 1.592176 1_555
O42 P14 1.568967 1_555
O43 P15 1.542694 1_555
O44 P16 1.564903 1_555
O45 P17 1.545581 1_555
O46 P12 1.542933 1_555
O47 P13 1.568569 1_555
O48 P24 1.540357 1_555
O49 P25 1.502302 1_555
O50 P26 1.547923 1_555
O51 P27 1.500570 1_555
O52 P28 1.544016 1_555
O53 P29 1.502627 1_555
O54 P30 1.507849 1_555
O55 P31 1.580737 1_555
O56 P32 1.515673 1_555
O57 P33 1.546660 1_555
O58 P34 1.513610 1_555
O59 P35 1.549007 1_555
O60 P34 1.567973 1_555
O61 P35 1.506334 1_555
O62 P30 1.537133 1_555
O63 P31 1.513017 1_555
O64 P32 1.563482 1_555
O65 P33 1.505939 1_555
O66 P26 1.509594 1_555
O67 P27 1.546624 1_555
O68 P28 1.508998 1_555
O69 P29 1.549260 1_555
O70 P24 1.507371 1_555
O71 P25 1.555095 1_555
O72 P34 1.501776 1_555
O73 P35 1.552643 1_555
O74 P30 1.559605 1_555
O75 P31 1.504446 1_555
O76 P32 1.502820 1_555
O77 P33 1.555309 1_555
O78 P26 1.551169 1_555
O79 P27 1.557660 1_555
O80 P28 1.555029 1_555
O81 P29 1.554062 1_555
O82 P24 1.554475 1_555
O83 P25 1.554996 1_555
O84 P12 1.563405 1_555
O85 P13 1.573073 1_555
O86 P14 1.576102 1_555
O87 P15 1.557994 1_555
O88 P16 1.585242 1_555
O89 P17 1.550305 1_555
O90 P18 1.562019 1_555
O91 P19 1.532978 1_555
O92 P20 1.535923 1_555
O93 P21 1.558957 1_555
O94 P22 1.529961 1_555
O95 P23 1.565465 1_555
O96 P10 1.525062 1_555
O97 P11 1.515529 1_555
O98 P6 1.527896 1_555
O99 P7 1.513813 1_555
O100 P9 1.512979 1_555
O101 P8 1.529056 1_655
O102 P2 1.518937 1_555
O103 P3 1.537003 1_555
O104 P5 1.528674 1_555
O105 P4 1.523610 1_555
O106 P0 1.528666 1_555
O107 P1 1.525167 1_555
O108 P24 1.564220 1_555
O109 P25 1.561086 1_555
O110 P27 1.563566 1_555
O111 P26 1.562723 1_655
O112 P28 1.561660 1_545
O113 P29 1.564135 1_545
O114 P30 1.568917 1_545
O115 P31 1.595013 1_545
O116 P32 1.610504 1_555
O117 P33 1.560276 1_555
O118 P35 1.566076 1_555
O119 P34 1.602538 1_655
O120 P22 1.563861 1_555
O121 P23 1.515022 1_555
O122 P19 1.563272 1_455
O123 P18 1.517101 1_555
O124 P20 1.558638 1_565
O125 P21 1.518635 1_565
O126 P14 1.513755 1_565
O127 P15 1.556086 1_565
O128 P16 1.514569 1_555
O129 P17 1.554313 1_555
O130 P13 1.516505 1_455
O131 P12 1.548627 1_555
O132 P0 1.576086 1_565
O133 P1 1.519953 1_565
O134 P2 1.549298 1_555
O135 P3 1.538744 1_555
O136 P4 1.578733 1_455
O137 P5 1.520659 1_555
O138 P6 1.525475 1_555
O139 P7 1.566749 1_555
O140 P8 1.526580 1_555
O141 P9 1.564969 1_555
O142 P10 1.524071 1_565
O143 P11 1.570297 1_565
