# generated using pymatgen
data_Na3ScTaSi2PO12
_symmetry_space_group_name_H-M   'P 1'
_cell_length_a   9.07849811
_cell_length_b   9.07849779
_cell_length_c   22.52288117
_cell_angle_alpha   89.70702117
_cell_angle_beta   90.29297888
_cell_angle_gamma   119.84458781
_symmetry_Int_Tables_number   1
_chemical_formula_structural   Na3ScTaSi2PO12
_chemical_formula_sum   'Na18 Sc6 Ta6 Si12 P6 O72'
_cell_volume   1610.10050846
_cell_formula_units_Z   6
loop_
 _symmetry_equiv_pos_site_id
 _symmetry_equiv_pos_as_xyz
  1  'x, y, z'
loop_
 _atom_site_type_symbol
 _atom_site_label
 _atom_site_symmetry_multiplicity
 _atom_site_fract_x
 _atom_site_fract_y
 _atom_site_fract_z
 _atom_site_occupancy
  Na  Na0  1  0.99578239  0.99326157  0.49493168  1
  Na  Na1  1  0.00673843  0.00421761  0.99493168  1
  Na  Na2  1  0.66244939  0.32659457  0.82826468  1
  Na  Na3  1  0.67340543  0.33755061  0.32826468  1
  Na  Na4  1  0.32911539  0.65992857  0.16159868  1
  Na  Na5  1  0.34007143  0.67088461  0.66159868  1
  Na  Na6  1  0.64835457  0.01326572  0.24959344  1
  Na  Na7  1  0.98601893  0.62444520  0.24837976  1
  Na  Na8  1  0.98673428  0.35164543  0.74959344  1
  Na  Na9  1  0.37555480  0.01398107  0.74837976  1
  Na  Na10  1  0.31502157  0.34659872  0.58292644  1
  Na  Na11  1  0.65268593  0.95777820  0.58171276  1
  Na  Na12  1  0.65340128  0.68497843  0.08292644  1
  Na  Na13  1  0.04222180  0.34731407  0.08171276  1
  Na  Na14  1  0.98168757  0.67993272  0.91626044  1
  Na  Na15  1  0.31935193  0.29111220  0.91504676  1
  Na  Na16  1  0.32006728  0.01831243  0.41626044  1
  Na  Na17  1  0.70888780  0.68064807  0.41504676  1
  Sc  Sc0  1  0.99303429  0.00176175  0.35243687  1
  Sc  Sc1  1  0.99823825  0.00696571  0.85243687  1
  Sc  Sc2  1  0.65970129  0.33509475  0.68576987  1
  Sc  Sc3  1  0.66490525  0.34029871  0.18576987  1
  Sc  Sc4  1  0.32636729  0.66842875  0.01910387  1
  Sc  Sc5  1  0.33157125  0.67363271  0.51910387  1
  Ta  Ta0  1  0.99676519  0.99488507  0.64675704  1
  Ta  Ta1  1  0.00511493  0.00323481  0.14675704  1
  Ta  Ta2  1  0.66343219  0.32821807  0.98009004  1
  Ta  Ta3  1  0.67178193  0.33656781  0.48009004  1
  Ta  Ta4  1  0.33009819  0.66155207  0.31342404  1
  Ta  Ta5  1  0.33844793  0.66990181  0.81342404  1
  Si  Si0  1  0.70493171  0.70757225  0.25140252  1
  Si  Si1  1  0.00342448  0.29389379  0.24984027  1
  Si  Si2  1  0.29242775  0.29506829  0.75140252  1
  Si  Si3  1  0.70610621  0.99657552  0.74984027  1
  Si  Si4  1  0.37159871  0.04090525  0.58473552  1
  Si  Si5  1  0.67009148  0.62722679  0.58317327  1
  Si  Si6  1  0.95909475  0.62840129  0.08473552  1
  Si  Si7  1  0.37277321  0.32990852  0.08317327  1
  Si  Si8  1  0.03826471  0.37423925  0.91806952  1
  Si  Si9  1  0.33675748  0.96056079  0.91650727  1
  Si  Si10  1  0.62576075  0.96173529  0.41806952  1
  Si  Si11  1  0.03943921  0.66324252  0.41650727  1
  P  P0  1  0.29041141  0.99740361  0.25251573  1
  P  P1  1  0.00259639  0.70958859  0.75251573  1
  P  P2  1  0.95707841  0.33073661  0.58584873  1
  P  P3  1  0.66926339  0.04292159  0.08584873  1
  P  P4  1  0.62374441  0.66407061  0.91918273  1
  P  P5  1  0.33592939  0.37625559  0.41918273  1
  O  O0  1  0.21376341  0.01865648  0.30918898  1
  O  O1  1  0.81966023  0.79161244  0.30970823  1
  O  O2  1  0.97349517  0.17177463  0.30480338  1
  O  O3  1  0.20838756  0.18033977  0.80970823  1
  O  O4  1  0.98134352  0.78623659  0.80918898  1
  O  O5  1  0.82822537  0.02650483  0.80480338  1
  O  O6  1  0.79976164  0.97092562  0.68947305  1
  O  O7  1  0.16348092  0.19613496  0.69257160  1
  O  O8  1  0.02735305  0.83162032  0.69768444  1
  O  O9  1  0.80386504  0.83651908  0.19257160  1
  O  O10  1  0.02907438  0.20023836  0.18947305  1
  O  O11  1  0.16837968  0.97264695  0.19768444  1
  O  O12  1  0.88043041  0.35198948  0.64252198  1
  O  O13  1  0.48632723  0.12494544  0.64304123  1
  O  O14  1  0.64016217  0.50510763  0.63813638  1
  O  O15  1  0.87505456  0.51367277  0.14304123  1
  O  O16  1  0.64801052  0.11956959  0.14252198  1
  O  O17  1  0.49489237  0.35983783  0.13813638  1
  O  O18  1  0.46642864  0.30425862  0.02280605  1
  O  O19  1  0.83014792  0.52946796  0.02590460  1
  O  O20  1  0.69402005  0.16495332  0.03101744  1
  O  O21  1  0.47053204  0.16985208  0.52590460  1
  O  O22  1  0.69574138  0.53357136  0.52280605  1
  O  O23  1  0.83504668  0.30597995  0.53101744  1
  O  O24  1  0.54709641  0.68532348  0.97585598  1
  O  O25  1  0.15299323  0.45827944  0.97637523  1
  O  O26  1  0.30682817  0.83844163  0.97147038  1
  O  O27  1  0.54172056  0.84700677  0.47637523  1
  O  O28  1  0.31467652  0.45290359  0.47585598  1
  O  O29  1  0.16155837  0.69317183  0.47147038  1
  O  O30  1  0.13309464  0.63759262  0.35614005  1
  O  O31  1  0.49681392  0.86280196  0.35923860  1
  O  O32  1  0.36068605  0.49828732  0.36435144  1
  O  O33  1  0.13719804  0.50318608  0.85923860  1
  O  O34  1  0.36240738  0.86690536  0.85614005  1
  O  O35  1  0.50171268  0.63931395  0.86435144  1
  O  O36  1  0.01748336  0.82976163  0.41162282  1
  O  O37  1  0.81099257  0.98008678  0.41200266  1
  O  O38  1  0.19245417  0.19442225  0.41053504  1
  O  O39  1  0.01991322  0.18900743  0.91200266  1
  O  O40  1  0.17023837  0.98251664  0.91162282  1
  O  O41  1  0.80557775  0.80754583  0.91053504  1
  O  O42  1  0.96077756  0.15777350  0.58757862  1
  O  O43  1  0.18691302  0.03828712  0.58996321  1
  O  O44  1  0.84181454  0.81912791  0.58901067  1
  O  O45  1  0.96171288  0.81308698  0.08996321  1
  O  O46  1  0.84222650  0.03922244  0.08757862  1
  O  O47  1  0.18087209  0.15818546  0.08901067  1
  O  O48  1  0.68415036  0.16309463  0.74495582  1
  O  O49  1  0.47765957  0.31341978  0.74533566  1
  O  O50  1  0.85912117  0.52775525  0.74386804  1
  O  O51  1  0.68658022  0.52234043  0.24533566  1
  O  O52  1  0.83690537  0.31584964  0.24495582  1
  O  O53  1  0.47224475  0.14087883  0.24386804  1
  O  O54  1  0.62744456  0.49110650  0.92091162  1
  O  O55  1  0.85358002  0.37162012  0.92329621  1
  O  O56  1  0.50848154  0.15246091  0.92234367  1
  O  O57  1  0.62837988  0.14641998  0.42329621  1
  O  O58  1  0.50889350  0.37255544  0.42091162  1
  O  O59  1  0.84753909  0.49151846  0.42234367  1
  O  O60  1  0.35081636  0.49642863  0.07828982  1
  O  O61  1  0.14432557  0.64675378  0.07866966  1
  O  O62  1  0.52578717  0.86108925  0.07720204  1
  O  O63  1  0.35324622  0.85567443  0.57866966  1
  O  O64  1  0.50357137  0.64918364  0.57828982  1
  O  O65  1  0.13891075  0.47421283  0.57720204  1
  O  O66  1  0.29411056  0.82444050  0.25424562  1
  O  O67  1  0.52024602  0.70495412  0.25663021  1
  O  O68  1  0.17514754  0.48579491  0.25567767  1
  O  O69  1  0.29504588  0.47975398  0.75663021  1
  O  O70  1  0.17555950  0.70588944  0.75424562  1
  O  O71  1  0.51420509  0.82485246  0.75567767  1
loop_
_geom_bond_atom_site_label_1
_geom_bond_atom_site_label_2
_geom_bond_distance
_geom_bond_site_symmetry_2
Na0 O36 2.467001 1_655
Na0 O37 2.467367 1_555
Na0 O44 2.596063 1_555
Na0 O38 2.624913 1_665
Na0 O43 2.650321 1_665
Na0 O42 2.682697 1_565
Na1 O40 2.467001 1_545
Na1 O39 2.467367 1_555
Na1 O47 2.596063 1_556
Na1 O41 2.624913 1_445
Na1 O45 2.650320 1_446
Na1 O46 2.682697 1_456
Na2 O48 2.467001 1_555
Na2 O49 2.467367 1_555
Na2 O56 2.596063 1_555
Na2 O50 2.624913 1_555
Na2 O55 2.650321 1_555
Na2 O54 2.682697 1_555
Na3 O52 2.467001 1_555
Na3 O51 2.467367 1_555
Na3 O59 2.596063 1_555
Na3 O53 2.624913 1_555
Na3 O57 2.650320 1_555
Na3 O58 2.682697 1_555
Na4 O60 2.467001 1_555
Na4 O61 2.467367 1_555
Na4 O68 2.596063 1_555
Na4 O62 2.624913 1_555
Na4 O67 2.650321 1_555
Na4 O66 2.682697 1_555
Na5 O64 2.467001 1_555
Na5 O63 2.467367 1_555
Na5 O71 2.596063 1_555
Na5 O65 2.624913 1_555
Na5 O69 2.650320 1_555
Na5 O70 2.682697 1_555
Na6 O53 2.398952 1_555
Na6 O52 2.409537 1_555
Na6 O67 2.443260 1_545
Na6 O16 2.593477 1_555
Na6 O66 2.794066 1_545
Na6 O31 2.826128 1_545
Na6 O2 2.843087 1_555
Na6 O9 2.917474 1_545
Na7 O51 2.396798 1_555
Na7 O52 2.431829 1_555
Na7 O66 2.466063 1_655
Na7 O15 2.578117 1_555
Na7 O68 2.589523 1_655
Na7 O30 2.738422 1_655
Na7 O11 2.968335 1_655
Na7 O1 2.969206 1_555
Na8 O50 2.398952 1_555
Na8 O48 2.409537 1_555
Na8 O69 2.443260 1_655
Na8 O12 2.593477 1_555
Na8 O70 2.794066 1_655
Na8 O33 2.826128 1_655
Na8 O5 2.843087 1_555
Na8 O7 2.917474 1_655
Na9 O49 2.396798 1_555
Na9 O48 2.431829 1_555
Na9 O70 2.466063 1_545
Na9 O13 2.578117 1_555
Na9 O71 2.589523 1_545
Na9 O34 2.738422 1_545
Na9 O8 2.968335 1_545
Na9 O3 2.969206 1_555
Na10 O65 2.398966 1_555
Na10 O64 2.409542 1_555
Na10 O43 2.443260 1_555
Na10 O28 2.593461 1_555
Na10 O42 2.794066 1_455
Na10 O7 2.826128 1_555
Na10 O14 2.843087 1_555
Na10 O21 2.917474 1_555
Na11 O63 2.396808 1_555
Na11 O64 2.431820 1_555
Na11 O42 2.466063 1_565
Na11 O27 2.578096 1_555
Na11 O44 2.589523 1_555
Na11 O6 2.738422 1_555
Na11 O23 2.968335 1_565
Na11 O13 2.969206 1_565
Na12 O62 2.398966 1_555
Na12 O60 2.409542 1_555
Na12 O45 2.443260 1_555
Na12 O24 2.593461 1_554
Na12 O46 2.794066 1_565
Na12 O9 2.826128 1_555
Na12 O17 2.843087 1_555
Na12 O19 2.917474 1_555
Na13 O61 2.396808 1_555
Na13 O60 2.431820 1_555
Na13 O46 2.466063 1_455
Na13 O25 2.578096 1_554
Na13 O47 2.589523 1_555
Na13 O10 2.738422 1_555
Na13 O20 2.968335 1_455
Na13 O15 2.969206 1_455
Na14 O41 2.398952 1_555
Na14 O40 2.409537 1_655
Na14 O55 2.443267 1_555
Na14 O4 2.593477 1_555
Na14 O54 2.794058 1_555
Na14 O19 2.826108 1_556
Na14 O26 2.843087 1_655
Na14 O33 2.917474 1_655
Na15 O39 2.396798 1_555
Na15 O40 2.431829 1_545
Na15 O54 2.466067 1_555
Na15 O3 2.578117 1_555
Na15 O56 2.589537 1_555
Na15 O18 2.738408 1_556
Na15 O35 2.968335 1_555
Na15 O25 2.969206 1_555
Na16 O38 2.398952 1_555
Na16 O36 2.409537 1_545
Na16 O57 2.443267 1_555
Na16 O0 2.593477 1_555
Na16 O58 2.794058 1_555
Na16 O21 2.826108 1_555
Na16 O29 2.843087 1_545
Na16 O31 2.917474 1_545
Na17 O37 2.396798 1_555
Na17 O36 2.431829 1_655
Na17 O58 2.466067 1_555
Na17 O1 2.578117 1_555
Na17 O59 2.589537 1_555
Na17 O22 2.738408 1_555
Na17 O32 2.968335 1_555
Na17 O27 2.969206 1_555
O0 P0 1.515248 1_545
O0 Sc0 2.168047 1_455
O1 Si0 1.611463 1_555
O1 Sc0 2.014429 1_565
O2 Si1 1.589025 1_655
O2 Sc0 1.954061 1_555
O3 Si2 1.611462 1_555
O3 Sc1 2.014429 1_455
O4 P1 1.515248 1_655
O4 Sc1 2.168047 1_565
O5 Si3 1.589025 1_545
O5 Sc1 1.954061 1_555
O6 Si3 1.684608 1_555
O6 Ta0 1.949334 1_555
O7 Si2 1.697841 1_555
O7 Ta0 1.986117 1_445
O8 P1 1.594999 1_555
O8 Ta0 1.994673 1_455
O9 Si0 1.697841 1_555
O9 Ta1 1.986117 1_665
O10 Si1 1.684608 1_555
O10 Ta1 1.949334 1_555
O11 P0 1.594999 1_555
O11 Ta1 1.994674 1_565
O12 P2 1.515248 1_555
O12 Sc2 2.168047 1_555
O13 Si4 1.611463 1_555
O13 Sc2 2.014429 1_555
O14 Si5 1.589025 1_555
O14 Sc2 1.954061 1_555
O15 Si6 1.611462 1_555
O15 Sc3 2.014429 1_555
O16 P3 1.515248 1_555
O16 Sc3 2.168047 1_555
O17 Si7 1.589025 1_555
O17 Sc3 1.954061 1_555
O18 Si7 1.684608 1_555
O18 Ta2 1.949334 1_554
O19 Si6 1.697841 1_555
O19 Ta2 1.986117 1_554
O20 P3 1.594999 1_555
O20 Ta2 1.994673 1_554
O21 Si4 1.697841 1_555
O21 Ta3 1.986117 1_555
O22 Si5 1.684608 1_555
O22 Ta3 1.949334 1_555
O23 P2 1.594999 1_555
O23 Ta3 1.994674 1_555
O24 P4 1.515248 1_555
O24 Sc4 2.168047 1_556
O25 Si8 1.611463 1_555
O25 Sc4 2.014429 1_556
O26 Si9 1.589025 1_555
O26 Sc4 1.954061 1_556
O27 Si10 1.611462 1_555
O27 Sc5 2.014429 1_555
O28 P5 1.515248 1_555
O28 Sc5 2.168047 1_555
O29 Si11 1.589025 1_555
O29 Sc5 1.954061 1_555
O30 Si11 1.684608 1_555
O30 Ta4 1.949334 1_555
O31 Si10 1.697841 1_555
O31 Ta4 1.986117 1_555
O32 P5 1.594999 1_555
O32 Ta4 1.994673 1_555
O33 Si8 1.697841 1_555
O33 Ta5 1.986117 1_555
O34 Si9 1.684608 1_555
O34 Ta5 1.949334 1_555
O35 P4 1.594999 1_555
O35 Ta5 1.994674 1_555
O36 Si11 1.623327 1_555
O36 Sc0 2.141307 1_465
O37 Si10 1.611696 1_555
O37 Sc0 2.065477 1_565
O38 P5 1.523222 1_555
O38 Sc0 2.212843 1_455
O39 Si8 1.611696 1_555
O39 Sc1 2.065477 1_455
O40 Si9 1.623327 1_555
O40 Sc1 2.141307 1_465
O41 P4 1.523222 1_555
O41 Sc1 2.212843 1_565
O42 P2 1.587502 1_555
O42 Ta0 2.127518 1_545
O43 Si4 1.669722 1_555
O43 Ta0 2.027784 1_445
O44 Si5 1.667299 1_555
O44 Ta0 1.996227 1_555
O45 Si6 1.669722 1_555
O45 Ta1 2.027784 1_665
O46 P3 1.587502 1_555
O46 Ta1 2.127518 1_655
O47 Si7 1.667299 1_555
O47 Ta1 1.996227 1_555
O48 Si3 1.623327 1_545
O48 Sc2 2.141307 1_555
O49 Si2 1.611696 1_555
O49 Sc2 2.065477 1_555
O50 P1 1.523222 1_655
O50 Sc2 2.212843 1_555
O51 Si0 1.611696 1_555
O51 Sc3 2.065477 1_555
O52 Si1 1.623327 1_655
O52 Sc3 2.141307 1_555
O53 P0 1.523222 1_545
O53 Sc3 2.212843 1_555
O54 P4 1.587515 1_555
O54 Ta2 2.127518 1_555
O55 Si8 1.669707 1_655
O55 Ta2 2.027784 1_555
O56 Si9 1.667296 1_545
O56 Ta2 1.996227 1_555
O57 Si10 1.669707 1_545
O57 Ta3 2.027784 1_555
O58 P5 1.587515 1_555
O58 Ta3 2.127518 1_555
O59 Si11 1.667296 1_655
O59 Ta3 1.996227 1_555
O60 Si7 1.623340 1_555
O60 Sc4 2.141307 1_555
O61 Si6 1.611682 1_455
O61 Sc4 2.065477 1_555
O62 P3 1.523216 1_565
O62 Sc4 2.212843 1_555
O63 Si4 1.611682 1_565
O63 Sc5 2.065477 1_555
O64 Si5 1.623340 1_555
O64 Sc5 2.141307 1_555
O65 P2 1.523216 1_455
O65 Sc5 2.212843 1_555
O66 P0 1.587502 1_555
O66 Ta4 2.127518 1_555
O67 Si0 1.669722 1_555
O67 Ta4 2.027784 1_555
O68 Si1 1.667299 1_555
O68 Ta4 1.996227 1_555
O69 Si2 1.669722 1_555
O69 Ta5 2.027784 1_555
O70 P1 1.587502 1_555
O70 Ta5 2.127518 1_555
O71 Si3 1.667299 1_555
O71 Ta5 1.996227 1_555
