# generated using pymatgen
data_MgV4(O2F)4
_symmetry_space_group_name_H-M   'P 1'
_cell_length_a   13.82037177
_cell_length_b   3.60602800
_cell_length_c   4.89790259
_cell_angle_alpha   90.00000000
_cell_angle_beta   88.95166330
_cell_angle_gamma   90.00000000
_symmetry_Int_Tables_number   1
_chemical_formula_structural   MgV4(O2F)4
_chemical_formula_sum   'Mg1 V4 O8 F4'
_cell_volume   244.05418749
_cell_formula_units_Z   1
loop_
 _symmetry_equiv_pos_site_id
 _symmetry_equiv_pos_as_xyz
  1  'x, y, z'
loop_
 _atom_site_type_symbol
 _atom_site_label
 _atom_site_symmetry_multiplicity
 _atom_site_fract_x
 _atom_site_fract_y
 _atom_site_fract_z
 _atom_site_occupancy
  Mg  Mg0  1  0.66808100  0.75000000  0.82329800  1
  V  V0  1  0.08438900  0.25000000  0.10067900  1
  V  V1  1  0.40818400  0.75000000  0.59939300  1
  V  V2  1  0.57494300  0.25000000  0.37664900  1
  V  V3  1  0.92234000  0.75000000  0.89669700  1
  O  O0  1  0.06111800  0.75000000  0.99160000  1
  O  O1  1  0.08898300  0.25000000  0.42721600  1
  O  O2  1  0.41569400  0.75000000  0.92896800  1
  O  O3  1  0.44055900  0.25000000  0.47791500  1
  O  O4  1  0.56368700  0.75000000  0.52302000  1
  O  O5  1  0.60671500  0.25000000  0.03896300  1
  O  O6  1  0.90751300  0.75000000  0.57002600  1
  O  O7  1  0.94129100  0.25000000  0.01433100  1
  F  F0  1  0.20605700  0.25000000  0.98040200  1
  F  F1  1  0.28637900  0.75000000  0.49539500  1
  F  F2  1  0.69600100  0.25000000  0.58550700  1
  F  F3  1  0.78547300  0.75000000  0.01716300  1
loop_
_geom_bond_atom_site_label_1
_geom_bond_atom_site_label_2
_geom_bond_distance
_geom_bond_site_symmetry_2
Mg0 O4 2.079006 1_555
Mg0 O5 2.247918 1_566
Mg0 O5 2.247918 1_556
O0 V0 1.909454 1_556
O0 V0 1.909454 1_566
O0 V3 1.981734 1_455
O1 V0 1.601766 1_555
O2 V1 1.619453 1_555
O3 V2 1.913538 1_555
O3 V1 1.948160 1_555
O3 V1 1.948160 1_545
O4 V2 1.945492 1_555
O4 V2 1.945492 1_565
O4 V1 2.174668 1_555
O5 V2 1.703466 1_555
O6 V3 1.616786 1_555
O7 V3 1.912312 1_554
O7 V3 1.912312 1_544
O7 V0 2.029936 1_655
F0 V0 1.771505 1_556
F1 V1 1.767665 1_555
F2 V2 1.976926 1_555
F2 Mg0 2.177103 1_555
F2 Mg0 2.177103 1_545
F3 Mg0 1.894773 1_554
F3 V3 1.971109 1_554
