# generated using pymatgen
data_PuTe
_symmetry_space_group_name_H-M   'P 1'
_cell_length_a   3.80436400
_cell_length_b   3.80436400
_cell_length_c   3.80436400
_cell_angle_alpha   90.00000000
_cell_angle_beta   90.00000000
_cell_angle_gamma   90.00000000
_symmetry_Int_Tables_number   1
_chemical_formula_structural   PuTe
_chemical_formula_sum   'Pu1 Te1'
_cell_volume   55.06126567
_cell_formula_units_Z   1
loop_
 _symmetry_equiv_pos_site_id
 _symmetry_equiv_pos_as_xyz
  1  'x, y, z'
loop_
 _atom_site_type_symbol
 _atom_site_label
 _atom_site_symmetry_multiplicity
 _atom_site_fract_x
 _atom_site_fract_y
 _atom_site_fract_z
 _atom_site_occupancy
  Pu  Pu0  1  0.00000000  0.00000000  0.00000000  1
  Te  Te0  1  0.50000000  0.50000000  0.50000000  1
loop_
_geom_bond_atom_site_label_1
_geom_bond_atom_site_label_2
_geom_bond_distance
_geom_bond_site_symmetry_2
Pu0 Te0 3.294676 1_554
Pu0 Te0 3.294676 1_455
Pu0 Te0 3.294676 1_454
Pu0 Te0 3.294676 1_444
Pu0 Te0 3.294676 1_544
Pu0 Te0 3.294676 1_545
Pu0 Te0 3.294676 1_445
Pu0 Te0 3.294676 1_555
