# generated using pymatgen
data_Na7Ca2Y2P5SO24
_symmetry_space_group_name_H-M   'P 1'
_cell_length_a   9.42356231
_cell_length_b   9.40506791
_cell_length_c   23.30903686
_cell_angle_alpha   90.07319726
_cell_angle_beta   89.95834732
_cell_angle_gamma   119.97975554
_symmetry_Int_Tables_number   1
_chemical_formula_structural   Na7Ca2Y2P5SO24
_chemical_formula_sum   'Na21 Ca6 Y6 P15 S3 O72'
_cell_volume   1789.45262312
_cell_formula_units_Z   3
loop_
 _symmetry_equiv_pos_site_id
 _symmetry_equiv_pos_as_xyz
  1  'x, y, z'
loop_
 _atom_site_type_symbol
 _atom_site_label
 _atom_site_symmetry_multiplicity
 _atom_site_fract_x
 _atom_site_fract_y
 _atom_site_fract_z
 _atom_site_occupancy
  Na  Na0  1  0.64656403  0.99284080  0.25286578  1
  Na  Na1  1  0.99464458  0.62776724  0.25663931  1
  Na  Na2  1  0.63290860  0.64203947  0.74761657  1
  Na  Na3  1  0.01262881  0.37063042  0.75386235  1
  Na  Na4  1  0.35925993  0.99035501  0.75360851  1
  Na  Na5  1  0.29461424  0.33300834  0.58773341  1
  Na  Na6  1  0.03885824  0.70528019  0.58199302  1
  Na  Na7  1  0.66902655  0.95972522  0.58413418  1
  Na  Na8  1  0.29465996  0.95999942  0.07815573  1
  Na  Na9  1  0.66905133  0.70493135  0.08876812  1
  Na  Na10  1  0.04031925  0.33531971  0.08429840  1
  Na  Na11  1  0.99289458  0.66876427  0.91632757  1
  Na  Na12  1  0.32113244  0.29844599  0.92077657  1
  Na  Na13  1  0.96624959  0.31260527  0.41296742  1
  Na  Na14  1  0.70031064  0.67716065  0.41972273  1
  Na  Na15  1  0.00507292  0.98851210  0.50494728  1
  Na  Na16  1  0.99785647  0.01037743  0.00389603  1
  Na  Na17  1  0.66774927  0.30520474  0.83400884  1
  Na  Na18  1  0.66207980  0.32844029  0.33329147  1
  Na  Na19  1  0.33385458  0.63616374  0.16817140  1
  Na  Na20  1  0.33369148  0.66836419  0.66612439  1
  Ca  Ca0  1  0.99930365  0.00049189  0.65241445  1
  Ca  Ca1  1  0.00167803  0.00641126  0.15212270  1
  Ca  Ca2  1  0.33288618  0.67162579  0.01368422  1
  Ca  Ca3  1  0.33378674  0.67902092  0.51249591  1
  Ca  Ca4  1  0.33281253  0.66576832  0.31962276  1
  Ca  Ca5  1  0.33406214  0.67357674  0.82124239  1
  Y  Y0  1  0.00109648  -0.00025255  0.34711131  1
  Y  Y1  1  0.99765694  0.00451057  0.84634082  1
  Y  Y2  1  0.66794162  0.33352553  0.68157337  1
  Y  Y3  1  0.66532479  0.33683081  0.18224321  1
  Y  Y4  1  0.66712009  0.32140484  0.98471745  1
  Y  Y5  1  0.66464936  0.32478574  0.48516793  1
  P  P0  1  0.69806249  0.69693988  0.24861061  1
  P  P1  1  0.99545499  0.30734192  0.24948155  1
  P  P2  1  0.30841422  0.30722244  0.74952404  1
  P  P3  1  0.99711183  0.69349445  0.74978047  1
  P  P4  1  0.69391602  -0.00009775  0.74635769  1
  P  P5  1  0.97154635  0.33423063  0.58274296  1
  P  P6  1  0.36477464  0.03209058  0.58590420  1
  P  P7  1  0.66412683  0.63324442  0.58193296  1
  P  P8  1  0.96677384  0.63412764  0.08251576  1
  P  P9  1  0.66478539  0.02908628  0.08728636  1
  P  P10  1  0.36755215  0.33427840  0.07991064  1
  P  P11  1  0.02853485  0.36112527  0.91623638  1
  P  P12  1  0.32751918  0.97907765  0.91603907  1
  P  P13  1  0.64792589  0.97629795  0.41460080  1
  P  P14  1  0.01763869  0.66325177  0.41649743  1
  S  S0  1  0.30507051  0.99889964  0.24798795  1
  S  S1  1  0.64301080  0.66412403  0.91713494  1
  S  S2  1  0.33274174  0.36313048  0.41860100  1
  O  O0  1  0.21668530  0.01446199  0.29825331  1
  O  O1  1  0.80916203  0.78919095  0.30165881  1
  O  O2  1  0.98752533  0.20328437  0.30314348  1
  O  O3  1  0.21751480  0.19851048  0.80270582  1
  O  O4  1  0.97903817  0.78196090  0.80363441  1
  O  O5  1  0.80951325  0.01904099  0.79681742  1
  O  O6  1  0.76642124  0.98003621  0.68983224  1
  O  O7  1  0.20689173  0.22809557  0.69494229  1
  O  O8  1  0.01404386  0.79353662  0.69551805  1
  O  O9  1  0.78279964  0.79399673  0.19390486  1
  O  O10  1  0.00868537  0.22604380  0.19407626  1
  O  O11  1  0.21663648  0.98766418  0.19476647  1
  O  O12  1  0.88162044  0.34682770  0.63697295  1
  O  O13  1  0.45958271  0.11550597  0.64187649  1
  O  O14  1  0.65277365  0.53224219  0.63651647  1
  O  O15  1  0.87588472  0.53036626  0.13648903  1
  O  O16  1  0.64975563  0.11203532  0.14288940  1
  O  O17  1  0.47666782  0.34526591  0.13139296  1
  O  O18  1  0.45103258  0.32286946  0.02404907  1
  O  O19  1  0.86290170  0.54496151  0.02857696  1
  O  O20  1  0.67880529  0.14004313  0.03606278  1
  O  O21  1  0.46222409  0.14210779  0.53487816  1
  O  O22  1  0.67373805  0.54064836  0.52809171  1
  O  O23  1  0.86766247  0.32219634  0.52923186  1
  O  O24  1  0.56486446  0.68157286  0.96911166  1
  O  O25  1  0.13347514  0.44231803  0.97009753  1
  O  O26  1  0.31106655  0.87802732  0.97013394  1
  O  O27  1  0.56867447  0.87190190  0.46858699  1
  O  O28  1  0.30982416  0.43445719  0.47215031  1
  O  O29  1  0.11145009  0.67658329  0.47215013  1
  O  O30  1  0.10096420  0.64065198  0.36319018  1
  O  O31  1  0.55128432  0.89395611  0.35974841  1
  O  O32  1  0.35484032  0.47000021  0.36945225  1
  O  O33  1  0.11090886  0.46310288  0.86194160  1
  O  O34  1  0.34527535  0.89915063  0.86092903  1
  O  O35  1  0.54608620  0.64929954  0.86526464  1
  O  O36  1  0.99240351  0.81585405  0.41210429  1
  O  O37  1  0.82600996  0.99850504  0.41146482  1
  O  O38  1  0.18355024  0.19808553  0.41134534  1
  O  O39  1  0.01038151  0.18682748  0.91201822  1
  O  O40  1  0.16542352  0.98984083  0.91356629  1
  O  O41  1  0.81423575  0.80659421  0.91310068  1
  O  O42  1  0.98643551  0.17703185  0.58331991  1
  O  O43  1  0.19180042  0.01470483  0.58471936  1
  O  O44  1  0.82220534  0.80477893  0.58251835  1
  O  O45  1  0.98509966  0.80779205  0.08455625  1
  O  O46  1  0.82193491  0.01402997  0.08607106  1
  O  O47  1  0.19534628  0.17703865  0.08291578  1
  O  O48  1  0.67937474  0.15916906  0.74754555  1
  O  O49  1  0.48035890  0.31892416  0.74784783  1
  O  O50  1  0.83845890  0.51949092  0.74816457  1
  O  O51  1  0.68759098  0.52525432  0.24852956  1
  O  O52  1  0.82771613  0.30878760  0.25075268  1
  O  O53  1  0.47489598  0.14395329  0.24823985  1
  O  O54  1  0.65642393  0.51100529  0.91974478  1
  O  O55  1  0.85794055  0.35219237  0.92018794  1
  O  O56  1  0.47442330  0.15991401  0.91913715  1
  O  O57  1  0.67507027  0.15472612  0.41865540  1
  O  O58  1  0.48252877  0.34663900  0.42157315  1
  O  O59  1  0.83951050  0.50705789  0.41847816  1
  O  O60  1  0.35165402  0.49107101  0.08100054  1
  O  O61  1  0.13781582  0.64742268  0.08111451  1
  O  O62  1  0.50968157  0.85695916  0.08262136  1
  O  O63  1  0.35095513  0.86050770  0.58268721  1
  O  O64  1  0.50784327  0.64939261  0.58100706  1
  O  O65  1  0.14375031  0.49058449  0.58103904  1
  O  O66  1  0.31713518  0.84716131  0.25295547  1
  O  O67  1  0.52985566  0.68751700  0.25355406  1
  O  O68  1  0.13751198  0.48678111  0.25281041  1
  O  O69  1  0.33351263  0.48287718  0.75513945  1
  O  O70  1  0.14989097  0.67164699  0.75372585  1
  O  O71  1  0.52102115  0.84723128  0.75362572  1
loop_
_geom_bond_atom_site_label_1
_geom_bond_atom_site_label_2
_geom_bond_distance
_geom_bond_site_symmetry_2
Na0 O67 2.509920 1_555
Na0 O52 2.584017 1_565
Na0 O53 2.635701 1_565
Na0 O31 2.654427 1_555
Na0 O66 2.695125 1_555
Na0 O16 2.793277 1_565
Na1 O68 2.315687 1_655
Na1 O51 2.559321 1_555
Na1 O52 2.603157 1_555
Na1 O30 2.658623 1_655
Na1 O66 2.689575 1_655
Na1 O15 2.984688 1_555
Na1 O1 3.017711 1_555
Na2 O69 2.451703 1_555
Na2 O71 2.624550 1_555
Na2 O49 2.633576 1_555
Na2 O50 2.704052 1_555
Na2 O14 2.827240 1_555
Na2 O35 2.871615 1_555
Na3 O70 2.455286 1_555
Na3 O50 2.639869 1_455
Na3 O69 2.658738 1_555
Na3 O33 2.674591 1_555
Na3 O48 2.756341 1_455
Na3 O12 2.953764 1_455
Na4 O71 2.487233 1_555
Na4 O48 2.618046 1_565
Na4 O34 2.627334 1_555
Na4 O70 2.639544 1_555
Na4 O49 2.710397 1_565
Na4 O13 2.820302 1_565
Na5 O42 2.517735 1_455
Na5 O65 2.519612 1_555
Na5 O64 2.634715 1_555
Na5 O43 2.646987 1_555
Na5 O7 2.662662 1_555
Na5 O28 2.838765 1_555
Na6 O43 2.521553 1_565
Na6 O63 2.547628 1_555
Na6 O44 2.636945 1_455
Na6 O65 2.655066 1_555
Na6 O29 2.697463 1_555
Na6 O8 2.816612 1_555
Na7 O44 2.512133 1_555
Na7 O64 2.529881 1_555
Na7 O6 2.603006 1_555
Na7 O42 2.648543 1_565
Na7 O63 2.657235 1_555
Na7 O27 2.836858 1_555
Na8 O45 2.531369 1_455
Na8 O61 2.547488 1_555
Na8 O47 2.638840 1_565
Na8 O62 2.649298 1_555
Na8 O26 2.659250 1_554
Na8 O11 2.860553 1_555
Na9 O46 2.519010 1_565
Na9 O62 2.543095 1_555
Na9 O45 2.633655 1_555
Na9 O9 2.637711 1_555
Na9 O60 2.648029 1_555
Na9 O24 2.928826 1_554
Na10 O60 2.542490 1_555
Na10 O47 2.554329 1_555
Na10 O61 2.602139 1_555
Na10 O46 2.674555 1_455
Na10 O10 2.718840 1_555
Na10 O25 2.826603 1_554
Na11 O41 2.588845 1_555
Na11 O55 2.589709 1_555
Na11 O40 2.619178 1_655
Na11 O54 2.749498 1_555
Na11 O4 2.863033 1_555
Na11 O19 2.877448 1_556
Na11 O26 2.921999 1_655
Na11 O33 2.954094 1_655
Na12 O56 2.380435 1_555
Na12 O40 2.519603 1_545
Na12 O39 2.578212 1_555
Na12 O18 2.658500 1_556
Na12 O54 2.769075 1_555
Na12 O3 2.913949 1_555
Na12 O25 2.943518 1_555
Na13 O57 2.383217 1_555
Na13 O37 2.563744 1_545
Na13 O59 2.640014 1_555
Na13 O38 2.749319 1_655
Na13 O2 2.801591 1_555
Na13 O23 2.880085 1_555
Na13 O30 2.927377 1_655
Na14 O36 2.391902 1_555
Na14 O59 2.525496 1_555
Na14 O37 2.645303 1_555
Na14 O58 2.738872 1_555
Na14 O22 2.788860 1_555
Na14 O27 2.907558 1_555
Na14 O1 2.942586 1_555
Na15 O43 2.486925 1_565
Na15 O44 2.500478 1_455
Na15 O42 2.610393 1_465
Na15 O36 2.670592 1_455
Na15 O37 2.787209 1_455
Na15 O38 2.857712 1_565
Na16 O47 2.528878 1_655
Na16 O46 2.543713 1_555
Na16 O45 2.638080 1_545
Na16 O39 2.677180 1_654
Na16 O40 2.694969 1_644
Na16 O41 2.797681 1_544
Na17 O48 2.470458 1_555
Na17 O56 2.576292 1_555
Na17 O55 2.579544 1_555
Na17 O49 2.720648 1_555
Na17 O50 2.723768 1_555
Na17 O54 2.819177 1_555
Na18 O52 2.540663 1_555
Na18 O59 2.598005 1_555
Na18 O57 2.617617 1_555
Na18 O51 2.636582 1_555
Na18 O53 2.643828 1_555
Na18 O58 2.722139 1_555
Na19 O60 2.497989 1_555
Na19 O68 2.587144 1_555
Na19 O67 2.591715 1_555
Na19 O62 2.757018 1_555
Na19 O61 2.782668 1_555
Na19 O66 2.858383 1_555
Na20 O63 2.605623 1_555
Na20 O65 2.634110 1_555
Na20 O64 2.635986 1_555
Na20 O71 2.671095 1_555
Na20 O70 2.686725 1_555
Na20 O69 2.711950 1_555
Ca0 O8 2.256703 1_645
Ca0 O6 2.278066 1_545
Ca0 O7 2.281260 1_655
Ca0 O43 2.356335 1_655
Ca0 O42 2.360862 1_555
Ca0 O44 2.398737 1_545
Ca1 O9 2.253419 1_445
Ca1 O10 2.255261 1_555
Ca1 O46 2.317304 1_455
Ca1 O11 2.341531 1_545
Ca1 O47 2.362976 1_555
Ca1 O45 2.386515 1_445
Ca2 O25 2.271904 1_554
Ca2 O26 2.290266 1_554
Ca2 O61 2.340915 1_555
Ca2 O62 2.343176 1_555
Ca2 O24 2.378987 1_554
Ca2 O60 2.384175 1_555
Ca3 O27 2.286116 1_555
Ca3 O29 2.286832 1_555
Ca3 O63 2.309486 1_555
Ca3 O28 2.387826 1_555
Ca3 O65 2.394101 1_555
Ca3 O64 2.404147 1_555
Ca4 O32 2.273755 1_555
Ca4 O31 2.302427 1_555
Ca4 O30 2.311316 1_555
Ca4 O67 2.340595 1_555
Ca4 O68 2.355304 1_555
Ca4 O66 2.367713 1_555
Ca5 O33 2.254408 1_555
Ca5 O34 2.266915 1_555
Ca5 O71 2.319984 1_555
Ca5 O70 2.336996 1_555
Ca5 O35 2.357254 1_555
Ca5 O69 2.361047 1_555
O0 S0 1.485887 1_545
O0 Y0 2.271476 1_555
O1 P0 1.571356 1_555
O1 Y0 2.175611 1_665
O2 P1 1.567738 1_555
O2 Y0 2.231815 1_655
O3 P2 1.562756 1_555
O3 Y1 2.209039 1_455
O4 P3 1.560663 1_555
O4 Y1 2.242912 1_565
O5 P4 1.551705 1_555
O5 Y1 2.177196 1_555
O6 P4 1.537317 1_565
O7 P2 1.541277 1_555
O8 P3 1.537270 1_455
O9 P0 1.539447 1_555
O10 P1 1.536399 1_455
O11 S0 1.468933 1_555
O12 P5 1.558326 1_555
O12 Y2 2.212821 1_555
O13 P6 1.553843 1_555
O13 Y2 2.211357 1_555
O14 P7 1.560083 1_555
O14 Y2 2.211013 1_555
O15 P8 1.560418 1_555
O15 Y3 2.186344 1_555
O16 P9 1.554352 1_555
O16 Y3 2.240115 1_555
O17 P10 1.550253 1_555
O17 Y3 2.171650 1_555
O18 P10 1.551873 1_555
O18 Y4 2.238870 1_554
O19 P8 1.555906 1_555
O19 Y4 2.233893 1_554
O20 P9 1.548290 1_555
O20 Y4 2.132388 1_554
O21 P6 1.542883 1_555
O21 Y5 2.158644 1_555
O22 P7 1.554827 1_555
O22 Y5 2.225138 1_555
O23 P5 1.554858 1_555
O23 Y5 2.182879 1_555
O24 S1 1.468336 1_555
O25 P11 1.543336 1_555
O26 P12 1.540343 1_555
O27 P13 1.540856 1_555
O28 S2 1.482186 1_555
O29 P14 1.539635 1_555
O30 P14 1.539600 1_555
O31 P13 1.535628 1_555
O32 S2 1.469510 1_555
O33 P11 1.543281 1_555
O34 P12 1.538215 1_555
O35 S1 1.479660 1_555
O36 P14 1.571128 1_655
O36 Y0 2.271101 1_665
O37 P13 1.585826 1_555
O37 Y0 2.224785 1_665
O38 S2 1.494448 1_555
O38 Y0 2.338562 1_555
O39 P11 1.563820 1_555
O39 Y1 2.255270 1_455
O40 P12 1.581632 1_555
O40 Y1 2.279469 1_465
O41 S1 1.499063 1_555
O41 Y1 2.379501 1_565
O42 P5 1.553414 1_555
O43 P6 1.555054 1_555
O44 P7 1.555692 1_555
O45 P8 1.554914 1_555
O46 P9 1.556743 1_555
O47 P10 1.557903 1_555
O48 P4 1.571088 1_555
O48 Y2 2.290979 1_555
O49 P2 1.568698 1_555
O49 Y2 2.298689 1_555
O50 P3 1.571483 1_555
O50 Y2 2.288739 1_555
O51 P0 1.567736 1_555
O51 Y3 2.278947 1_555
O52 P1 1.587790 1_555
O52 Y3 2.317208 1_555
O53 S0 1.496794 1_545
O53 Y3 2.372175 1_555
O54 S1 1.508540 1_555
O54 Y4 2.381238 1_555
O55 P11 1.569957 1_655
O55 Y4 2.248686 1_555
O56 P12 1.568789 1_545
O56 Y4 2.276560 1_555
O57 P13 1.568794 1_545
O57 Y5 2.263133 1_555
O58 S2 1.496741 1_555
O58 Y5 2.354141 1_555
O59 P14 1.585408 1_655
O59 Y5 2.291384 1_555
O60 P10 1.555107 1_555
O61 P8 1.553446 1_455
O62 P9 1.550472 1_565
O63 P6 1.554491 1_565
O64 P7 1.554384 1_555
O65 P5 1.553253 1_455
O66 S0 1.491833 1_555
O67 P0 1.546954 1_555
O68 P1 1.545381 1_455
O69 P2 1.552843 1_555
O70 P3 1.555433 1_455
O71 P4 1.551521 1_565
