# generated using pymatgen
data_MgMnV4O12
_symmetry_space_group_name_H-M   'P 1'
_cell_length_a   7.04339466
_cell_length_b   6.88297074
_cell_length_c   6.09757349
_cell_angle_alpha   72.10173053
_cell_angle_beta   106.51642624
_cell_angle_gamma   99.30418212
_symmetry_Int_Tables_number   1
_chemical_formula_structural   MgMnV4O12
_chemical_formula_sum   'Mg1 Mn1 V4 O12'
_cell_volume   268.79795954
_cell_formula_units_Z   1
loop_
 _symmetry_equiv_pos_site_id
 _symmetry_equiv_pos_as_xyz
  1  'x, y, z'
loop_
 _atom_site_type_symbol
 _atom_site_label
 _atom_site_symmetry_multiplicity
 _atom_site_fract_x
 _atom_site_fract_y
 _atom_site_fract_z
 _atom_site_occupancy
  Mg  Mg0  1  0.99230700  0.87572900  0.88207600  1
  Mn  Mn0  1  0.91497600  0.92704000  0.28463500  1
  V  V0  1  0.22162700  0.58817900  0.76761900  1
  V  V1  1  0.39024100  0.77720400  0.26784500  1
  V  V2  1  0.61217500  0.21134800  0.74035700  1
  V  V3  1  0.77933500  0.39991600  0.22196100  1
  O  O0  1  0.03626100  0.76566700  0.64372400  1
  O  O1  1  0.11080800  0.35959300  0.81195700  1
  O  O2  1  0.20171000  0.93888200  0.16172100  1
  O  O3  1  0.36223400  0.61797800  0.55187100  1
  O  O4  1  0.39705500  0.07967700  0.69658600  1
  O  O5  1  0.35211700  0.63523900  0.05321700  1
  O  O6  1  0.61965400  0.35390600  0.95196800  1
  O  O7  1  0.61780900  0.90134400  0.30877300  1
  O  O8  1  0.65613200  0.36738100  0.45376800  1
  O  O9  1  0.79451800  0.04051600  0.88500900  1
  O  O10  1  0.89057800  0.64680500  0.14814900  1
  O  O11  1  0.94855300  0.22668800  0.31980400  1
loop_
_geom_bond_atom_site_label_1
_geom_bond_atom_site_label_2
_geom_bond_distance
_geom_bond_site_symmetry_2
Mg0 O9 1.940384 1_565
Mg0 O0 1.946898 1_655
Mg0 O2 2.022420 1_656
Mg0 O10 2.086371 1_556
Mn0 O11 2.107366 1_565
Mn0 O7 2.115023 1_555
Mn0 O0 2.122768 1_655
Mn0 O9 2.266402 1_564
Mn0 O10 2.289276 1_555
Mn0 O2 2.327426 1_655
O0 V0 1.776346 1_555
O1 V0 1.618396 1_555
O2 V1 1.722517 1_555
O3 V1 1.788040 1_555
O3 V0 1.806308 1_555
O4 V2 1.631892 1_555
O5 V1 1.800277 1_555
O5 V0 1.822833 1_554
O6 V3 1.796678 1_556
O6 V2 1.831209 1_555
O7 V1 1.679965 1_555
O8 V3 1.800290 1_555
O8 V2 1.830180 1_555
O9 V2 1.736883 1_555
O10 V3 1.733227 1_555
O11 V3 1.678124 1_555
