# generated using pymatgen
data_Sm2Sn2O7
_symmetry_space_group_name_H-M   'P 1'
_cell_length_a   7.44908901
_cell_length_b   7.44908901
_cell_length_c   7.44908901
_cell_angle_alpha   60.00000000
_cell_angle_beta   60.00000000
_cell_angle_gamma   60.00000000
_symmetry_Int_Tables_number   1
_chemical_formula_structural   Sm2Sn2O7
_chemical_formula_sum   'Sm4 Sn4 O14'
_cell_volume   292.27690022
_cell_formula_units_Z   2
loop_
 _symmetry_equiv_pos_site_id
 _symmetry_equiv_pos_as_xyz
  1  'x, y, z'
loop_
 _atom_site_type_symbol
 _atom_site_label
 _atom_site_symmetry_multiplicity
 _atom_site_fract_x
 _atom_site_fract_y
 _atom_site_fract_z
 _atom_site_occupancy
  Sm  Sm0  1  0.12500000  0.12500000  0.12500000  1
  Sm  Sm1  1  0.62500000  0.12500000  0.12500000  1
  Sm  Sm2  1  0.12500000  0.12500000  0.62500000  1
  Sm  Sm3  1  0.12500000  0.62500000  0.12500000  1
  Sn  Sn0  1  0.62500000  0.62500000  0.62500000  1
  Sn  Sn1  1  0.12500000  0.62500000  0.62500000  1
  Sn  Sn2  1  0.62500000  0.62500000  0.12500000  1
  Sn  Sn3  1  0.62500000  0.12500000  0.62500000  1
  O  O0  1  0.00000000  0.00000000  0.00000000  1
  O  O1  1  0.25000000  0.25000000  0.25000000  1
  O  O2  1  0.29034120  0.29034120  0.70965880  1
  O  O3  1  0.54034120  0.54034120  0.95965880  1
  O  O4  1  0.70965880  0.29034120  0.70965880  1
  O  O5  1  0.70965880  0.29034120  0.29034120  1
  O  O6  1  0.29034120  0.70965880  0.70965880  1
  O  O7  1  0.29034120  0.70965880  0.29034120  1
  O  O8  1  0.70965880  0.70965880  0.29034120  1
  O  O9  1  0.95965880  0.54034120  0.54034120  1
  O  O10  1  0.54034120  0.95965880  0.95965880  1
  O  O11  1  0.95965880  0.95965880  0.54034120  1
  O  O12  1  0.95965880  0.54034120  0.95965880  1
  O  O13  1  0.54034120  0.95965880  0.54034120  1
loop_
_geom_bond_atom_site_label_1
_geom_bond_atom_site_label_2
_geom_bond_distance
_geom_bond_site_symmetry_2
O0 Sm3 2.280808 1_545
O0 Sm1 2.280808 1_455
O0 Sm2 2.280808 1_554
O0 Sm0 2.280808 1_555
O1 Sm2 2.280808 1_555
O1 Sm1 2.280808 1_555
O1 Sm3 2.280808 1_555
O1 Sm0 2.280808 1_555
O2 Sn1 2.064812 1_555
O2 Sn3 2.064812 1_555
O2 Sm0 2.549890 1_556
O2 Sm2 2.549890 1_555
O3 Sn2 2.064812 1_556
O3 Sn0 2.064812 1_555
O3 Sm3 2.549890 1_556
O3 Sm1 2.549890 1_556
O4 Sn0 2.064812 1_555
O4 Sn3 2.064812 1_555
O4 Sm1 2.549890 1_556
O4 Sm2 2.549890 1_655
O5 Sn3 2.064812 1_555
O5 Sn2 2.064812 1_555
O5 Sm0 2.549890 1_655
O5 Sm1 2.549890 1_555
O6 Sn0 2.064812 1_555
O6 Sn1 2.064812 1_555
O6 Sm3 2.549890 1_556
O6 Sm2 2.549890 1_565
O7 Sn1 2.064812 1_555
O7 Sn2 2.064812 1_555
O7 Sm0 2.549890 1_565
O7 Sm3 2.549890 1_555
O8 Sn0 2.064812 1_555
O8 Sn2 2.064812 1_555
O8 Sm3 2.549890 1_655
O8 Sm1 2.549890 1_565
O9 Sn0 2.064812 1_555
O9 Sn1 2.064812 1_655
O9 Sm3 2.549890 1_655
O9 Sm2 2.549890 1_655
O10 Sn2 2.064812 1_556
O10 Sn3 2.064812 1_565
O10 Sm0 2.549890 1_566
O10 Sm1 2.549890 1_566
O11 Sn3 2.064812 1_565
O11 Sn1 2.064812 1_655
O11 Sm2 2.549890 1_665
O11 Sm0 2.549890 1_665
O12 Sn1 2.064812 1_655
O12 Sn2 2.064812 1_556
O12 Sm0 2.549890 1_656
O12 Sm3 2.549890 1_656
O13 Sn3 2.064812 1_565
O13 Sn0 2.064812 1_555
O13 Sm2 2.549890 1_565
O13 Sm1 2.549890 1_565
