# generated using pymatgen
data_Na2Nb3GaSi2(PO6)4
_symmetry_space_group_name_H-M   'P 1'
_cell_length_a   8.76589483
_cell_length_b   8.77677533
_cell_length_c   22.77516441
_cell_angle_alpha   90.05511791
_cell_angle_beta   89.94503975
_cell_angle_gamma   119.95448101
_symmetry_Int_Tables_number   1
_chemical_formula_structural   Na2Nb3GaSi2(PO6)4
_chemical_formula_sum   'Na6 Nb9 Ga3 Si6 P12 O72'
_cell_volume   1518.17606982
_cell_formula_units_Z   3
loop_
 _symmetry_equiv_pos_site_id
 _symmetry_equiv_pos_as_xyz
  1  'x, y, z'
loop_
 _atom_site_type_symbol
 _atom_site_label
 _atom_site_symmetry_multiplicity
 _atom_site_fract_x
 _atom_site_fract_y
 _atom_site_fract_z
 _atom_site_occupancy
  Na  Na0  1  0.99838797  0.99989296  0.49182008  1
  Na  Na1  1  0.00031381  0.99994239  0.00098997  1
  Na  Na2  1  0.66845240  0.33369107  0.83013889  1
  Na  Na3  1  0.66607245  0.33411619  0.32556408  1
  Na  Na4  1  0.33311131  0.66410709  0.16495353  1
  Na  Na5  1  0.33026172  0.66457656  0.66670442  1
  Nb  Nb0  1  0.00126060  0.00050610  0.85559504  1
  Nb  Nb1  1  0.99925110  0.00177400  0.64343616  1
  Nb  Nb2  1  0.00165305  0.00248059  0.14613962  1
  Nb  Nb3  1  0.66095336  0.33128602  0.97766341  1
  Nb  Nb4  1  0.67030335  0.32904992  0.47678558  1
  Nb  Nb5  1  0.33323676  0.66314746  0.02279691  1
  Nb  Nb6  1  0.33541785  0.66664364  0.52038545  1
  Nb  Nb7  1  0.33649122  0.67056943  0.30956623  1
  Nb  Nb8  1  0.33272318  0.66618173  0.81151823  1
  Ga  Ga0  1  0.99595073  0.00080519  0.35169197  1
  Ga  Ga1  1  0.67032140  0.33589942  0.68637853  1
  Ga  Ga2  1  0.66581843  0.33544644  0.18669407  1
  Si  Si0  1  0.95093188  0.33811482  0.58673276  1
  Si  Si1  1  0.38577604  0.33526373  0.08786931  1
  Si  Si2  1  0.61860906  0.66674279  0.91631550  1
  Si  Si3  1  0.04669590  0.38189007  0.91648023  1
  Si  Si4  1  0.33412294  0.95046705  0.91706888  1
  Si  Si5  1  0.63162276  0.95361980  0.41483917  1
  P  P0  1  0.28906589  0.00856525  0.25269052  1
  P  P1  1  0.71900414  0.70794296  0.25186707  1
  P  P2  1  0.99021272  0.28406644  0.25160369  1
  P  P3  1  0.29565885  0.28796632  0.74812206  1
  P  P4  1  0.99297133  0.70575881  0.74847485  1
  P  P5  1  0.71119151  0.00605961  0.74884459  1
  P  P6  1  0.38589581  0.05037691  0.58526077  1
  P  P7  1  0.66435704  0.61300653  0.58532860  1
  P  P8  1  0.94910072  0.61502677  0.08642662  1
  P  P9  1  0.66500335  0.05045017  0.08637816  1
  P  P10  1  0.32869964  0.37507204  0.41513915  1
  P  P11  1  0.04837818  0.67379459  0.41521141  1
  O  O0  1  0.20128362  0.03051189  0.30705796  1
  O  O1  1  0.82664113  0.79514520  0.30664642  1
  O  O2  1  0.96589290  0.17420375  0.30612179  1
  O  O3  1  0.20258823  0.17629907  0.80322357  1
  O  O4  1  0.97790576  0.80226746  0.80359694  1
  O  O5  1  0.82436938  0.02430280  0.80355469  1
  O  O6  1  0.80477225  0.98039963  0.69414035  1
  O  O7  1  0.17569162  0.19468730  0.69363755  1
  O  O8  1  0.01976701  0.82318020  0.69394793  1
  O  O9  1  0.80036733  0.82465794  0.19622713  1
  O  O10  1  0.02266745  0.19686225  0.19587884  1
  O  O11  1  0.17224462  0.97704646  0.19667466  1
  O  O12  1  0.86868183  0.37133852  0.64386153  1
  O  O13  1  0.49362886  0.12829573  0.64019580  1
  O  O14  1  0.62887784  0.50451844  0.64049444  1
  O  O15  1  0.87327816  0.50564860  0.14122010  1
  O  O16  1  0.63899728  0.13164138  0.14123663  1
  O  O17  1  0.50108859  0.36762832  0.14486351  1
  O  O18  1  0.47057168  0.30436849  0.02728512  1
  O  O19  1  0.83942564  0.53247199  0.03004879  1
  O  O20  1  0.69695858  0.16076770  0.02977937  1
  O  O21  1  0.46650945  0.16327619  0.52910085  1
  O  O22  1  0.69285286  0.53123194  0.52935629  1
  O  O23  1  0.83116526  0.30512043  0.52672286  1
  O  O24  1  0.53194334  0.69967946  0.97451633  1
  O  O25  1  0.16840818  0.46879111  0.97433194  1
  O  O26  1  0.30044676  0.83281814  0.97513785  1
  O  O27  1  0.52821731  0.83454969  0.47299167  1
  O  O28  1  0.30538261  0.46661702  0.47089518  1
  O  O29  1  0.15975627  0.69023217  0.47085202  1
  O  O30  1  0.13086267  0.63662861  0.36088770  1
  O  O31  1  0.49980545  0.85798471  0.35854173  1
  O  O32  1  0.35711879  0.49342216  0.36105157  1
  O  O33  1  0.13740793  0.50101621  0.85768793  1
  O  O34  1  0.36339190  0.86145998  0.85780791  1
  O  O35  1  0.49874791  0.63528033  0.85767190  1
  O  O36  1  0.03467094  0.83857192  0.40990975  1
  O  O37  1  0.82279211  0.97590799  0.40964990  1
  O  O38  1  0.16830671  0.19313334  0.40956521  1
  O  O39  1  0.02886479  0.18962347  0.90675313  1
  O  O40  1  0.16303632  0.97430401  0.90694731  1
  O  O41  1  0.81183011  0.83966827  0.90702409  1
  O  O42  1  0.97319815  0.16110186  0.59150118  1
  O  O43  1  0.19675712  0.02542374  0.59100979  1
  O  O44  1  0.83121876  0.80040627  0.59160110  1
  O  O45  1  0.96717375  0.80171027  0.09217251  1
  O  O46  1  0.82957950  0.02488286  0.09195311  1
  O  O47  1  0.18543646  0.15910315  0.09229273  1
  O  O48  1  0.69176414  0.16832690  0.74432445  1
  O  O49  1  0.47623668  0.30454670  0.74230733  1
  O  O50  1  0.82676795  0.52600597  0.74527979  1
  O  O51  1  0.69460164  0.52403314  0.24514486  1
  O  O52  1  0.83127499  0.30841513  0.24246169  1
  O  O53  1  0.47511886  0.16330113  0.24513164  1
  O  O54  1  0.64210788  0.49626484  0.92375907  1
  O  O55  1  0.85483156  0.36043892  0.92434073  1
  O  O56  1  0.50789771  0.14337728  0.92315747  1
  O  O57  1  0.63762718  0.14473461  0.42326220  1
  O  O58  1  0.49999030  0.36668100  0.42414933  1
  O  O59  1  0.86282947  0.50643244  0.42394428  1
  O  O60  1  0.35540470  0.50454420  0.07864694  1
  O  O61  1  0.13847479  0.64518611  0.07823931  1
  O  O62  1  0.50184930  0.86427880  0.07845510  1
  O  O63  1  0.36021967  0.86330535  0.57540919  1
  O  O64  1  0.50471625  0.64308313  0.57587831  1
  O  O65  1  0.14910718  0.50459868  0.57466704  1
  O  O66  1  0.29923250  0.83255880  0.25737072  1
  O  O67  1  0.52923193  0.69128458  0.25745330  1
  O  O68  1  0.16293556  0.46936270  0.25685852  1
  O  O69  1  0.30683626  0.47005623  0.75258567  1
  O  O70  1  0.16352480  0.69255066  0.75321329  1
  O  O71  1  0.52955904  0.83414346  0.75285765  1
loop_
_geom_bond_atom_site_label_1
_geom_bond_atom_site_label_2
_geom_bond_distance
_geom_bond_site_symmetry_2
Na0 O37 2.365817 1_555
Na0 O36 2.455509 1_655
Na0 O38 2.466296 1_665
Na0 O42 2.740363 1_565
Na0 O43 2.791906 1_665
Na0 O44 2.795773 1_555
Na1 O47 2.577971 1_565
Na1 O46 2.626809 1_465
Na1 O45 2.631571 1_455
Na1 O41 2.639816 1_454
Na1 O40 2.643196 1_554
Na1 O39 2.651481 1_564
Na2 O50 2.484375 1_555
Na2 O48 2.501599 1_555
Na2 O49 2.545791 1_555
Na2 O56 2.629145 1_555
Na2 O55 2.636303 1_555
Na2 O54 2.637783 1_555
Na3 O51 2.405055 1_555
Na3 O53 2.428944 1_555
Na3 O52 2.459746 1_555
Na3 O57 2.714432 1_555
Na3 O58 2.765970 1_555
Na3 O59 2.771005 1_555
Na4 O60 2.475980 1_555
Na4 O62 2.561520 1_555
Na4 O61 2.561603 1_555
Na4 O68 2.642482 1_555
Na4 O67 2.654637 1_555
Na4 O66 2.671251 1_555
Na5 O70 2.535815 1_555
Na5 O69 2.537370 1_555
Na5 O71 2.553732 1_555
Na5 O65 2.580928 1_555
Na5 O64 2.633340 1_555
Na5 O63 2.642546 1_555
Nb0 O40 1.939370 1_545
Nb0 O39 1.940848 1_555
Nb0 O41 1.944387 1_445
Nb0 O4 2.027911 1_445
Nb0 O5 2.044552 1_455
Nb0 O3 2.048933 1_555
Nb1 O42 1.931149 1_555
Nb1 O7 1.987639 1_655
Nb1 O6 1.988037 1_545
Nb1 O44 2.021515 1_545
Nb1 O8 2.024390 1_645
Nb1 O43 2.025800 1_655
Nb2 O47 1.943437 1_555
Nb2 O10 1.977535 1_555
Nb2 O11 1.986917 1_545
Nb2 O9 2.024838 1_445
Nb2 O46 2.033984 1_455
Nb2 O45 2.042500 1_445
Nb3 O18 1.929072 1_556
Nb3 O56 1.962308 1_555
Nb3 O54 1.968203 1_555
Nb3 O55 1.997762 1_555
Nb3 O20 2.055266 1_556
Nb3 O19 2.056644 1_556
Nb4 O23 1.904019 1_555
Nb4 O57 1.928496 1_555
Nb4 O59 2.023909 1_555
Nb4 O21 2.032620 1_555
Nb4 O22 2.065811 1_555
Nb4 O58 2.066809 1_555
Nb5 O25 1.937520 1_554
Nb5 O24 1.945562 1_554
Nb5 O60 1.966589 1_555
Nb5 O26 1.977261 1_554
Nb5 O61 2.064343 1_555
Nb5 O62 2.073987 1_555
Nb6 O27 1.924971 1_555
Nb6 O65 1.974420 1_555
Nb6 O28 1.989234 1_555
Nb6 O29 2.002189 1_555
Nb6 O64 2.037908 1_555
Nb6 O63 2.053923 1_555
Nb7 O31 1.909786 1_555
Nb7 O67 1.996525 1_555
Nb7 O66 2.002221 1_555
Nb7 O32 2.027231 1_555
Nb7 O30 2.040697 1_555
Nb7 O68 2.047101 1_555
Nb8 O34 1.912632 1_555
Nb8 O33 1.912959 1_555
Nb8 O35 1.922031 1_555
Nb8 O70 2.088984 1_555
Nb8 O71 2.096306 1_555
Nb8 O69 2.102879 1_555
Ga0 O37 1.938976 1_545
Ga0 O1 1.958943 1_545
Ga0 O2 1.966397 1_555
Ga0 O0 1.967088 1_655
Ga0 O38 2.078968 1_655
Ga0 O36 2.094716 1_645
Ga1 O12 1.874864 1_555
Ga1 O14 1.988679 1_555
Ga1 O13 2.001618 1_555
Ga1 O49 2.030213 1_555
Ga1 O50 2.044124 1_555
Ga1 O48 2.054358 1_555
Ga2 O17 1.866285 1_555
Ga2 O15 1.974289 1_555
Ga2 O16 1.975774 1_555
Ga2 O52 2.029977 1_555
Ga2 O51 2.038336 1_555
Ga2 O53 2.079893 1_555
O0 P0 1.519261 1_555
O1 P1 1.520470 1_555
O2 P2 1.521000 1_555
O3 P3 1.550148 1_555
O4 P4 1.555737 1_555
O5 P5 1.551083 1_555
O6 P5 1.567768 1_565
O7 P3 1.567405 1_555
O8 P4 1.555522 1_455
O9 P1 1.560454 1_555
O10 P2 1.578714 1_455
O11 P0 1.572168 1_565
O12 Si0 1.582779 1_555
O13 P6 1.510163 1_555
O14 P7 1.512534 1_555
O15 P8 1.511358 1_555
O16 P9 1.510217 1_555
O17 Si1 1.581915 1_555
O18 Si1 1.651823 1_555
O19 P8 1.550135 1_555
O20 P9 1.551916 1_555
O21 P6 1.555200 1_555
O22 P7 1.542477 1_555
O23 Si0 1.659042 1_555
O24 Si2 1.623082 1_555
O25 Si3 1.626099 1_555
O26 Si4 1.612429 1_555
O27 Si5 1.649932 1_555
O28 P10 1.568886 1_555
O29 P11 1.562450 1_555
O30 P11 1.546929 1_555
O31 Si5 1.648006 1_555
O32 P10 1.549822 1_555
O33 Si3 1.639756 1_555
O34 Si4 1.641702 1_555
O35 Si2 1.635947 1_555
O36 P11 1.514743 1_555
O37 Si5 1.591460 1_555
O38 P10 1.516810 1_555
O39 Si3 1.630046 1_555
O40 Si4 1.631005 1_555
O41 Si2 1.627850 1_555
O42 Si0 1.663358 1_555
O43 P6 1.565568 1_555
O44 P7 1.569269 1_555
O45 P8 1.570746 1_555
O46 P9 1.572077 1_555
O47 Si1 1.665290 1_555
O48 P5 1.520005 1_555
O49 P3 1.521174 1_555
O50 P4 1.523657 1_555
O51 P1 1.526241 1_555
O52 P2 1.525806 1_555
O53 P0 1.523799 1_555
O54 Si2 1.618105 1_555
O55 Si3 1.606061 1_655
O56 Si4 1.621946 1_545
O57 Si5 1.662643 1_545
O58 P10 1.553426 1_555
O59 P11 1.567416 1_655
O60 Si1 1.648673 1_555
O61 P8 1.556033 1_455
O62 P9 1.553753 1_565
O63 P6 1.557927 1_565
O64 P7 1.563297 1_555
O65 Si0 1.641157 1_455
O66 P0 1.594814 1_565
O67 P1 1.600506 1_555
O68 P2 1.578803 1_455
O69 P3 1.554796 1_555
O70 P4 1.560026 1_455
O71 P5 1.555945 1_565
