# generated using pymatgen
data_Na2Y3TaSi2(SO6)4
_symmetry_space_group_name_H-M   'P 1'
_cell_length_a   9.10931600
_cell_length_b   9.11247154
_cell_length_c   23.94047317
_cell_angle_alpha   90.55579195
_cell_angle_beta   89.75734886
_cell_angle_gamma   119.95675939
_symmetry_Int_Tables_number   1
_chemical_formula_structural   Na2Y3TaSi2(SO6)4
_chemical_formula_sum   'Na6 Y9 Ta3 Si6 S12 O72'
_cell_volume   1721.68557266
_cell_formula_units_Z   3
loop_
 _symmetry_equiv_pos_site_id
 _symmetry_equiv_pos_as_xyz
  1  'x, y, z'
loop_
 _atom_site_type_symbol
 _atom_site_label
 _atom_site_symmetry_multiplicity
 _atom_site_fract_x
 _atom_site_fract_y
 _atom_site_fract_z
 _atom_site_occupancy
  Na  Na0  1  0.00197270  0.97511877  0.49606592  1
  Na  Na1  1  0.99627066  0.95580002  0.99561751  1
  Na  Na2  1  0.63236413  0.32414429  0.83607386  1
  Na  Na3  1  0.70711904  0.34471675  0.32907462  1
  Na  Na4  1  0.29591094  0.64791346  0.15501756  1
  Na  Na5  1  0.32567416  0.64602048  0.67625601  1
  Y  Y0  1  0.99637036  0.99731210  0.35034957  1
  Y  Y1  1  0.01504781  0.00241580  0.85405775  1
  Y  Y2  1  0.01320275  0.01750659  0.65585630  1
  Y  Y3  1  0.99863138  0.99966258  0.14402403  1
  Y  Y4  1  0.65745230  0.33525037  0.68927242  1
  Y  Y5  1  0.68600630  0.34242430  0.18612728  1
  Y  Y6  1  0.67980246  0.34462309  0.47532762  1
  Y  Y7  1  0.33151243  0.67462758  0.01852676  1
  Y  Y8  1  0.32292745  0.66770365  0.51899988  1
  Ta  Ta0  1  0.66807697  0.34528435  0.97783683  1
  Ta  Ta1  1  0.31468960  0.65904279  0.31395698  1
  Ta  Ta2  1  0.34577318  0.66786632  0.82319442  1
  Si  Si0  1  0.99751497  0.29163659  0.25204181  1
  Si  Si1  1  0.30005754  0.31619785  0.75291797  1
  Si  Si2  1  0.95873775  0.62920284  0.08171186  1
  Si  Si3  1  0.62879414  0.66607073  0.92101753  1
  Si  Si4  1  0.34773916  0.96923844  0.91865665  1
  Si  Si5  1  0.03716654  0.67004001  0.41637970  1
  S  S0  1  0.29765404  0.98905445  0.25280012  1
  S  S1  1  0.68731452  0.70186782  0.25278064  1
  S  S2  1  0.01406825  0.70267196  0.75106638  1
  S  S3  1  0.69069337  0.98700444  0.75336963  1
  S  S4  1  0.95933048  0.32673246  0.58337578  1
  S  S5  1  0.37061708  0.04035009  0.58238723  1
  S  S6  1  0.67084571  0.63456420  0.58303004  1
  S  S7  1  0.67066608  0.05066541  0.08031073  1
  S  S8  1  0.38201185  0.32811442  0.08030151  1
  S  S9  1  0.03475421  0.38278832  0.91552183  1
  S  S10  1  0.61668555  0.95146730  0.41471581  1
  S  S11  1  0.33750878  0.38419641  0.41305475  1
  O  O0  1  0.21425005  0.00591730  0.30290911  1
  O  O1  1  0.79687597  0.77818729  0.30205857  1
  O  O2  1  0.98845345  0.19141973  0.30773088  1
  O  O3  1  0.20407223  0.19444324  0.80373281  1
  O  O4  1  0.97906932  0.77728825  0.79985041  1
  O  O5  1  0.79578655  0.01164724  0.80152921  1
  O  O6  1  0.76207473  0.95593976  0.70139995  1
  O  O7  1  0.19388510  0.23925662  0.69435196  1
  O  O8  1  0.03528182  0.80364261  0.69983343  1
  O  O9  1  0.76230169  0.80335843  0.20241547  1
  O  O10  1  0.03245929  0.21386083  0.19577944  1
  O  O11  1  0.19221468  0.94988332  0.20260339  1
  O  O12  1  0.87534913  0.34294543  0.63386956  1
  O  O13  1  0.46856503  0.12803423  0.63312407  1
  O  O14  1  0.65734508  0.53389096  0.63299653  1
  O  O15  1  0.86072973  0.52959355  0.13731357  1
  O  O16  1  0.65173606  0.12768537  0.13231249  1
  O  O17  1  0.47525543  0.33625147  0.13093612  1
  O  O18  1  0.47593750  0.31657066  0.02834778  1
  O  O19  1  0.83680609  0.50917231  0.02544741  1
  O  O20  1  0.67449702  0.15067146  0.03057095  1
  O  O21  1  0.45526263  0.13616828  0.53153339  1
  O  O22  1  0.68288857  0.54745477  0.53166471  1
  O  O23  1  0.86270559  0.31769314  0.53242739  1
  O  O24  1  0.53563581  0.67478640  0.97516880  1
  O  O25  1  0.13244352  0.45264911  0.96642528  1
  O  O26  1  0.31254289  0.85334541  0.97159680  1
  O  O27  1  0.53868904  0.85580370  0.46611497  1
  O  O28  1  0.32586239  0.46525186  0.46497764  1
  O  O29  1  0.14213469  0.67832012  0.47143114  1
  O  O30  1  0.15539258  0.66273436  0.36139343  1
  O  O31  1  0.51575250  0.85612391  0.36467979  1
  O  O32  1  0.35168421  0.49287041  0.36358816  1
  O  O33  1  0.12794465  0.49669543  0.86593914  1
  O  O34  1  0.36468314  0.86135142  0.86204046  1
  O  O35  1  0.49759977  0.63433964  0.86463267  1
  O  O36  1  0.01960042  0.83676291  0.41320280  1
  O  O37  1  0.78904554  0.97636978  0.41099713  1
  O  O38  1  0.18562281  0.21626790  0.40861730  1
  O  O39  1  0.00308149  0.21215768  0.90556007  1
  O  O40  1  0.19643723  0.00900346  0.91043241  1
  O  O41  1  0.81148646  0.82138613  0.90870190  1
  O  O42  1  0.97206755  0.17017868  0.58524299  1
  O  O43  1  0.19711281  0.01820433  0.58568763  1
  O  O44  1  0.82455444  0.80442227  0.58646024  1
  O  O45  1  0.96767252  0.81245529  0.07984130  1
  O  O46  1  0.83151952  0.04667788  0.08153543  1
  O  O47  1  0.21459503  0.17199833  0.07961349  1
  O  O48  1  0.66544776  0.13470080  0.74567800  1
  O  O49  1  0.49392516  0.34951714  0.74779594  1
  O  O50  1  0.87036443  0.52729358  0.74331189  1
  O  O51  1  0.64985100  0.52509946  0.24708719  1
  O  O52  1  0.84505112  0.33454782  0.25098626  1
  O  O53  1  0.46730531  0.13655385  0.24723128  1
  O  O54  1  0.63945220  0.48611479  0.92645268  1
  O  O55  1  0.86824237  0.37927349  0.91887997  1
  O  O56  1  0.53057173  0.15200219  0.92706769  1
  O  O57  1  0.62185822  0.11701831  0.41618986  1
  O  O58  1  0.49245692  0.37018970  0.41333664  1
  O  O59  1  0.85709896  0.49220760  0.41264207  1
  O  O60  1  0.36505648  0.47928884  0.07687828  1
  O  O61  1  0.14088080  0.63919061  0.08105048  1
  O  O62  1  0.52509464  0.87666465  0.07815081  1
  O  O63  1  0.35689596  0.87044835  0.58135465  1
  O  O64  1  0.51659298  0.65059809  0.58035601  1
  O  O65  1  0.13304922  0.47744118  0.58104601  1
  O  O66  1  0.32276239  0.83600023  0.26184351  1
  O  O67  1  0.52111179  0.69580557  0.26363260  1
  O  O68  1  0.17708166  0.48987859  0.26472909  1
  O  O69  1  0.31299356  0.50466781  0.76471915  1
  O  O70  1  0.17174353  0.69357692  0.75887771  1
  O  O71  1  0.51718341  0.83149075  0.76100730  1
loop_
_geom_bond_atom_site_label_1
_geom_bond_atom_site_label_2
_geom_bond_distance
_geom_bond_site_symmetry_2
Na0 O36 2.387816 1_555
Na0 O43 2.690072 1_565
Na0 O44 2.690685 1_455
Na0 O37 2.822399 1_455
Na0 O42 2.862978 1_465
Na0 O38 2.898056 1_565
Na1 O45 2.355121 1_556
Na1 O41 2.566032 1_555
Na1 O40 2.612209 1_665
Na1 O47 2.815018 1_666
Na1 O46 2.889810 1_566
Na2 O49 2.536447 1_555
Na2 O56 2.581196 1_555
Na2 O54 2.590039 1_555
Na2 O55 2.781719 1_555
Na2 O48 2.862851 1_555
Na2 O50 3.014933 1_555
Na3 O52 2.274916 1_555
Na3 O59 2.410945 1_555
Na3 O57 2.778288 1_555
Na3 O51 2.784652 1_555
Na3 O53 2.834651 1_555
Na3 O58 2.890980 1_555
Na4 O61 2.245614 1_555
Na4 O60 2.675473 1_555
Na4 O62 2.790307 1_555
Na4 O68 2.938846 1_555
Na4 O66 3.006594 1_555
Na5 O69 2.461710 1_555
Na5 O70 2.575500 1_555
Na5 O71 2.652443 1_555
Na5 O65 2.812161 1_555
Na5 O64 2.862351 1_555
Na5 O63 2.988141 1_555
O0 S0 1.464668 1_545
O0 Y0 2.249989 1_445
O1 S1 1.473900 1_555
O1 Y0 2.230518 1_555
O2 Si0 1.601774 1_555
O2 Y0 2.082768 1_545
O3 Si1 1.588637 1_555
O3 Y1 2.119582 1_555
O4 S2 1.458051 1_655
O4 Y1 2.297950 1_665
O5 S3 1.444250 1_545
O5 Y1 2.401862 1_655
O6 S3 1.490322 1_555
O6 Y2 2.333609 1_665
O7 Si1 1.645616 1_555
O7 Y2 2.072857 1_555
O8 S2 1.493531 1_555
O8 Y2 2.319459 1_565
O9 S1 1.469535 1_555
O9 Y3 2.442476 1_555
O10 Si0 1.618965 1_455
O10 Y3 2.189897 1_445
O11 S0 1.467365 1_555
O11 Y3 2.472712 1_455
O12 S4 1.473077 1_555
O12 Y4 2.354671 1_555
O13 S5 1.479289 1_555
O13 Y4 2.249134 1_555
O14 S6 1.481563 1_555
O14 Y4 2.267315 1_555
O15 Si2 1.611501 1_555
O15 Y5 2.029715 1_555
O16 S7 1.474553 1_555
O16 Y5 2.220542 1_555
O17 S8 1.463045 1_555
O17 Y5 2.312319 1_555
O18 S8 1.538986 1_555
O18 Ta0 2.031014 1_554
O19 Si2 1.736444 1_555
O19 Ta0 1.892434 1_554
O20 S7 1.496202 1_555
O20 Ta0 2.211307 1_554
O21 S5 1.476292 1_555
O21 Y6 2.397619 1_555
O22 S6 1.490368 1_555
O22 Y6 2.266308 1_555
O23 S4 1.484584 1_555
O23 Y6 2.266934 1_555
O24 Si3 1.569430 1_555
O24 Y7 2.125069 1_556
O25 S9 1.452805 1_555
O25 Y7 2.289705 1_556
O26 Si4 1.583917 1_555
O26 Y7 2.064599 1_556
O27 S10 1.474365 1_555
O27 Y8 2.249552 1_555
O28 S11 1.470147 1_555
O28 Y8 2.253771 1_555
O29 Si5 1.610495 1_555
O29 Y8 2.048336 1_555
O30 Si5 1.719031 1_555
O30 Ta1 1.852171 1_555
O31 S10 1.492143 1_555
O31 Ta1 2.178522 1_555
O32 S11 1.514448 1_555
O32 Ta1 2.089550 1_555
O33 S9 1.530508 1_555
O33 Ta2 2.083325 1_555
O34 Si4 1.717970 1_555
O34 Ta2 1.915570 1_555
O35 Si3 1.730610 1_555
O35 Ta2 1.851965 1_555
O36 Si5 1.607689 1_555
O36 Y0 2.191795 1_455
O37 S10 1.472400 1_555
O37 Y0 2.309436 1_555
O38 S11 1.466583 1_555
O38 Y0 2.330248 1_445
O39 S9 1.450207 1_555
O39 Y1 2.312206 1_555
O40 Si4 1.603781 1_545
O40 Y1 2.115085 1_555
O41 Si3 1.584695 1_555
O41 Y1 2.199439 1_665
O42 S4 1.489030 1_555
O42 Y2 2.346352 1_655
O43 S5 1.491872 1_555
O43 Y2 2.365238 1_555
O44 S6 1.482269 1_555
O44 Y2 2.472397 1_665
O45 Si2 1.631816 1_555
O45 Y3 2.196152 1_555
O46 S7 1.484162 1_555
O46 Y3 2.328510 1_545
O47 S8 1.477466 1_555
O47 Y3 2.376991 1_445
O48 S3 1.487434 1_545
O48 Y4 2.313055 1_555
O49 Si1 1.639932 1_555
O49 Y4 2.090716 1_555
O50 S2 1.486303 1_655
O50 Y4 2.255103 1_555
O51 S1 1.475415 1_555
O51 Y5 2.346410 1_555
O52 Si0 1.620270 1_555
O52 Y5 2.154125 1_555
O53 S0 1.462843 1_545
O53 Y5 2.433985 1_555
O54 Si3 1.696670 1_555
O54 Ta0 1.896237 1_555
O55 S9 1.502896 1_655
O55 Ta0 2.198975 1_555
O56 Si4 1.677572 1_545
O56 Ta0 1.979002 1_555
O57 S10 1.485687 1_545
O57 Y6 2.332542 1_555
O58 S11 1.479393 1_555
O58 Y6 2.365268 1_555
O59 Si5 1.633520 1_655
O59 Y6 2.125712 1_555
O60 S8 1.463921 1_555
O60 Y7 2.410061 1_555
O61 Si2 1.615694 1_455
O61 Y7 2.188077 1_555
O62 S7 1.474560 1_565
O62 Y7 2.294490 1_555
O63 S5 1.489717 1_565
O63 Y8 2.262071 1_555
O64 S6 1.485205 1_555
O64 Y8 2.365424 1_555
O65 S4 1.491195 1_455
O65 Y8 2.288539 1_555
O66 S0 1.539233 1_555
O66 Ta1 2.020399 1_555
O67 S1 1.508689 1_555
O67 Ta1 2.111648 1_555
O68 Si0 1.753209 1_455
O68 Ta1 1.839561 1_555
O69 Si1 1.682860 1_555
O69 Ta2 1.944278 1_555
O70 S2 1.492078 1_555
O70 Ta2 2.310312 1_555
O71 S3 1.518382 1_555
O71 Ta2 2.139158 1_555
