# generated using pymatgen
data_Mn5Cr(PO4)6
_symmetry_space_group_name_H-M   'P 1'
_cell_length_a   8.63258460
_cell_length_b   8.55651655
_cell_length_c   8.59243095
_cell_angle_alpha   59.77227574
_cell_angle_beta   59.40750856
_cell_angle_gamma   60.43322693
_symmetry_Int_Tables_number   1
_chemical_formula_structural   Mn5Cr(PO4)6
_chemical_formula_sum   'Mn5 Cr1 P6 O24'
_cell_volume   447.39776311
_cell_formula_units_Z   1
loop_
 _symmetry_equiv_pos_site_id
 _symmetry_equiv_pos_as_xyz
  1  'x, y, z'
loop_
 _atom_site_type_symbol
 _atom_site_label
 _atom_site_symmetry_multiplicity
 _atom_site_fract_x
 _atom_site_fract_y
 _atom_site_fract_z
 _atom_site_occupancy
  Mn  Mn0  1  0.99807000  0.00333800  0.99928200  1
  Mn  Mn1  1  0.06943700  0.64289400  0.64310200  1
  Mn  Mn2  1  0.50310200  0.50248800  0.49572200  1
  Mn  Mn3  1  0.43092000  0.85694900  0.85580400  1
  Mn  Mn4  1  0.93213800  0.35274000  0.35823200  1
  Cr  Cr0  1  0.57284900  0.14285100  0.14199700  1
  P  P0  1  0.25037500  0.24989900  0.54447500  1
  P  P1  1  0.25068000  0.95741500  0.24875800  1
  P  P2  1  0.25010200  0.53976300  0.95941300  1
  P  P3  1  0.74490300  0.46446300  0.03831000  1
  P  P4  1  0.75337600  0.03672500  0.74874300  1
  P  P5  1  0.75137500  0.75016400  0.46149900  1
  O  O0  1  0.06681600  0.11527300  0.30045200  1
  O  O1  1  0.06462500  0.50939200  0.12101000  1
  O  O2  1  0.06593600  0.30048400  0.52385100  1
  O  O3  1  0.24075700  0.08332700  0.74441300  1
  O  O4  1  0.43171000  0.19521400  0.38425800  1
  O  O5  1  0.26423100  0.41887900  0.55969200  1
  O  O6  1  0.24062900  0.93282400  0.08473300  1
  O  O7  1  0.26091000  0.76059200  0.41913900  1
  O  O8  1  0.56459300  0.62182800  0.99882800  1
  O  O9  1  0.26117800  0.55861700  0.76201500  1
  O  O10  1  0.76423100  0.26863300  0.04912800  1
  O  O11  1  0.56781600  0.00450700  0.80867500  1
  O  O12  1  0.43242900  0.98921300  0.19325700  1
  O  O13  1  0.23762200  0.73920500  0.93832000  1
  O  O14  1  0.72305300  0.45038600  0.23432300  1
  O  O15  1  0.43005900  0.38265500  0.99025800  1
  O  O16  1  0.74116100  0.23271000  0.57959700  1
  O  O17  1  0.76607800  0.05503800  0.91232700  1
  O  O18  1  0.73327400  0.58459000  0.44932500  1
  O  O19  1  0.56614800  0.81372500  0.61903000  1
  O  O20  1  0.76744600  0.91542100  0.26456700  1
  O  O21  1  0.93428500  0.68850100  0.49674700  1
  O  O22  1  0.93201300  0.50053100  0.88205500  1
  O  O23  1  0.93567300  0.87877000  0.68866800  1
loop_
_geom_bond_atom_site_label_1
_geom_bond_atom_site_label_2
_geom_bond_distance
_geom_bond_site_symmetry_2
Mn0 O20 2.204021 1_546
Mn0 O3 2.211198 1_655
Mn0 O10 2.233378 1_556
Mn0 O17 2.254028 1_555
Mn0 O13 2.266218 1_645
Mn0 O6 2.271482 1_646
Mn1 O22 1.880273 1_455
Mn1 O23 1.896211 1_455
Mn1 O21 1.909156 1_455
Mn1 O7 1.975696 1_555
Mn1 O5 1.997750 1_555
Mn1 O9 2.026167 1_555
Mn2 O14 2.163499 1_555
Mn2 O18 2.211292 1_555
Mn2 O5 2.229869 1_555
Mn2 O7 2.249872 1_555
Mn2 O9 2.253965 1_555
Mn2 O16 2.285192 1_555
Mn3 O8 1.884743 1_555
Mn3 O19 1.884870 1_555
Mn3 O11 1.904011 1_565
Mn3 O6 1.983342 1_556
Mn3 O3 1.989330 1_565
Mn3 O13 2.009418 1_555
Mn4 O1 1.910117 1_655
Mn4 O0 1.955411 1_655
Mn4 O16 1.975572 1_555
Mn4 O2 2.020352 1_655
Mn4 O18 2.080890 1_555
Mn4 O14 2.159056 1_555
Cr0 O4 1.958866 1_555
Cr0 O12 1.959025 1_545
Cr0 O15 1.968676 1_554
Cr0 O10 2.018104 1_555
Cr0 O17 2.036396 1_554
Cr0 O20 2.056496 1_545
O0 P1 1.520439 1_545
O1 P2 1.530872 1_554
O2 P0 1.511178 1_555
O3 P0 1.579834 1_555
O4 P0 1.515524 1_555
O5 P0 1.580797 1_555
O6 P1 1.574552 1_555
O7 P1 1.577863 1_555
O8 P3 1.536274 1_556
O9 P2 1.576916 1_555
O10 P3 1.557961 1_555
O11 P4 1.536351 1_555
O12 P1 1.513986 1_555
O13 P2 1.575980 1_555
O14 P3 1.543216 1_555
O15 P2 1.513314 1_555
O16 P4 1.569415 1_555
O17 P4 1.551721 1_555
O18 P5 1.557827 1_555
O19 P5 1.537764 1_555
O20 P5 1.558041 1_555
O21 P5 1.538506 1_555
O22 P3 1.540855 1_556
O23 P4 1.531749 1_565
