# generated using pymatgen
data_YbGePt
_symmetry_space_group_name_H-M   'P 1'
_cell_length_a   4.42194700
_cell_length_b   7.06352100
_cell_length_c   7.48808000
_cell_angle_alpha   90.00000000
_cell_angle_beta   90.00000000
_cell_angle_gamma   90.00000000
_symmetry_Int_Tables_number   1
_chemical_formula_structural   YbGePt
_chemical_formula_sum   'Yb4 Ge4 Pt4'
_cell_volume   233.88655079
_cell_formula_units_Z   4
loop_
 _symmetry_equiv_pos_site_id
 _symmetry_equiv_pos_as_xyz
  1  'x, y, z'
loop_
 _atom_site_type_symbol
 _atom_site_label
 _atom_site_symmetry_multiplicity
 _atom_site_fract_x
 _atom_site_fract_y
 _atom_site_fract_z
 _atom_site_occupancy
  Yb  Yb0  1  0.75000000  0.49057500  0.79931800  1
  Yb  Yb1  1  0.25000000  0.00942500  0.29931800  1
  Yb  Yb2  1  0.75000000  0.99057500  0.70068200  1
  Yb  Yb3  1  0.25000000  0.50942500  0.20068200  1
  Ge  Ge0  1  0.25000000  0.68369100  0.58274400  1
  Ge  Ge1  1  0.25000000  0.18369100  0.91725600  1
  Ge  Ge2  1  0.75000000  0.31630900  0.41725600  1
  Ge  Ge3  1  0.75000000  0.81630900  0.08274400  1
  Pt  Pt0  1  0.25000000  0.79722200  0.90787200  1
  Pt  Pt1  1  0.25000000  0.29722200  0.59212800  1
  Pt  Pt2  1  0.75000000  0.70277800  0.40787200  1
  Pt  Pt3  1  0.75000000  0.20277800  0.09212800  1
loop_
_geom_bond_atom_site_label_1
_geom_bond_atom_site_label_2
_geom_bond_distance
_geom_bond_site_symmetry_2
Ge0 Pt0 2.563258 1_555
Ge0 Pt2 2.573180 1_455
Ge0 Pt2 2.573180 1_555
Ge0 Pt1 2.730736 1_555
Ge0 Yb0 3.062532 1_455
Ge0 Yb0 3.062532 1_555
Ge0 Yb3 3.114483 1_555
Ge0 Yb1 3.130182 1_565
Ge0 Yb2 3.219808 1_555
Ge0 Yb2 3.219808 1_455
Ge1 Pt1 2.563258 1_555
Ge1 Pt3 2.573180 1_556
Ge1 Pt3 2.573180 1_456
Ge1 Pt0 2.730736 1_545
Ge1 Yb2 3.062532 1_445
Ge1 Yb2 3.062532 1_545
Ge1 Yb1 3.114483 1_556
Ge1 Yb3 3.130182 1_556
Ge1 Yb0 3.219808 1_455
Ge1 Yb0 3.219808 1_555
Ge2 Pt3 2.563258 1_555
Ge2 Pt1 2.573180 1_555
Ge2 Pt1 2.573180 1_655
Ge2 Pt2 2.730736 1_555
Ge2 Yb3 3.062532 1_555
Ge2 Yb3 3.062532 1_655
Ge2 Yb0 3.114483 1_555
Ge2 Yb2 3.130182 1_545
Ge2 Yb1 3.219808 1_655
Ge2 Yb1 3.219808 1_555
Ge3 Pt2 2.563258 1_555
Ge3 Pt0 2.573180 1_554
Ge3 Pt0 2.573180 1_654
Ge3 Pt3 2.730736 1_565
Ge3 Yb1 3.062532 1_665
Ge3 Yb1 3.062532 1_565
Ge3 Yb2 3.114483 1_554
Ge3 Yb0 3.130182 1_554
Ge3 Yb3 3.219808 1_555
Ge3 Yb3 3.219808 1_655
Pt0 Yb3 2.989975 1_556
Pt0 Yb2 3.026665 1_455
Pt0 Yb2 3.026665 1_555
Pt0 Yb0 3.200115 1_555
Pt0 Yb0 3.200115 1_455
Pt0 Yb1 3.292190 1_566
Pt1 Yb1 2.989975 1_555
Pt1 Yb0 3.026665 1_455
Pt1 Yb0 3.026665 1_555
Pt1 Yb2 3.200115 1_445
Pt1 Yb2 3.200115 1_545
Pt1 Yb3 3.292190 1_555
Pt2 Yb2 2.989975 1_555
Pt2 Yb3 3.026665 1_555
Pt2 Yb3 3.026665 1_655
Pt2 Yb1 3.200115 1_565
Pt2 Yb1 3.200115 1_665
Pt2 Yb0 3.292190 1_555
Pt3 Yb0 2.989975 1_554
Pt3 Yb1 3.026665 1_555
Pt3 Yb1 3.026665 1_655
Pt3 Yb3 3.200115 1_555
Pt3 Yb3 3.200115 1_655
Pt3 Yb2 3.292190 1_544
