# generated using pymatgen
data_Sm2MgCr2O8
_symmetry_space_group_name_H-M   'P 1'
_cell_length_a   6.10763720
_cell_length_b   6.28410688
_cell_length_c   6.10763814
_cell_angle_alpha   105.12149133
_cell_angle_beta   105.30246673
_cell_angle_gamma   117.03587286
_symmetry_Int_Tables_number   1
_chemical_formula_structural   Sm2MgCr2O8
_chemical_formula_sum   'Sm2 Mg1 Cr2 O8'
_cell_volume   180.53124899
_cell_formula_units_Z   1
loop_
 _symmetry_equiv_pos_site_id
 _symmetry_equiv_pos_as_xyz
  1  'x, y, z'
loop_
 _atom_site_type_symbol
 _atom_site_label
 _atom_site_symmetry_multiplicity
 _atom_site_fract_x
 _atom_site_fract_y
 _atom_site_fract_z
 _atom_site_occupancy
  Sm  Sm0  1  0.34947900  0.59924100  0.71176600  1
  Sm  Sm1  1  0.61252600  0.40076000  0.25023900  1
  Mg  Mg0  1  0.76785300  0.00000000  0.26785300  1
  Cr  Cr0  1  0.88248500  0.13768500  0.78010700  1
  Cr  Cr1  1  0.14242300  0.86231600  0.24480000  1
  O  O0  1  0.23808100  0.20546700  0.38733400  1
  O  O1  1  0.85823400  0.30123600  0.56948400  1
  O  O2  1  0.24203900  0.30605400  0.91572100  1
  O  O3  1  0.35296300  0.86780100  0.09110300  1
  O  O4  1  0.10966700  0.69394700  0.43598500  1
  O  O5  1  0.68186700  0.79453400  0.53261400  1
  O  O6  1  0.76824800  0.69876400  0.05699800  1
  O  O7  1  0.72330300  0.13220000  0.98516400  1
loop_
_geom_bond_atom_site_label_1
_geom_bond_atom_site_label_2
_geom_bond_distance
_geom_bond_site_symmetry_2
Mg0 O6 1.993948 1_545
Mg0 O1 1.993948 1_555
Mg0 O7 2.109761 1_554
Mg0 O3 2.109768 1_545
Mg0 O5 2.340718 1_545
Mg0 O0 2.340721 1_655
Cr0 O2 1.760241 1_655
Cr0 O7 1.774742 1_555
Cr0 O5 1.831945 1_545
Cr0 O1 1.860302 1_555
Cr1 O4 1.760241 1_555
Cr1 O3 1.774732 1_555
Cr1 O0 1.831946 1_565
Cr1 O6 1.860306 1_455
O0 Sm0 2.390014 1_555
O0 Sm1 2.536307 1_555
O1 Sm0 2.435361 1_655
O1 Sm1 2.527861 1_555
O2 Sm1 2.312979 1_556
O2 Sm0 2.430352 1_555
O3 Sm0 2.473414 1_554
O3 Sm1 2.708571 1_565
O4 Sm0 2.312979 1_555
O4 Sm1 2.430347 1_455
O5 Sm1 2.390015 1_555
O5 Sm0 2.536307 1_555
O6 Sm1 2.435361 1_555
O6 Sm0 2.527863 1_554
O7 Sm1 2.473411 1_556
O7 Sm0 2.708573 1_545
