# generated using pymatgen
data_LaTa3Si3(SO8)3
_symmetry_space_group_name_H-M   'P 1'
_cell_length_a   9.07864521
_cell_length_b   9.08218177
_cell_length_c   23.25979039
_cell_angle_alpha   89.49951872
_cell_angle_beta   89.78478828
_cell_angle_gamma   120.10710700
_symmetry_Int_Tables_number   1
_chemical_formula_structural   LaTa3Si3(SO8)3
_chemical_formula_sum   'La3 Ta9 Si9 S9 O72'
_cell_volume   1658.98377115
_cell_formula_units_Z   3
loop_
 _symmetry_equiv_pos_site_id
 _symmetry_equiv_pos_as_xyz
  1  'x, y, z'
loop_
 _atom_site_type_symbol
 _atom_site_label
 _atom_site_symmetry_multiplicity
 _atom_site_fract_x
 _atom_site_fract_y
 _atom_site_fract_z
 _atom_site_occupancy
  La  La0  1  0.00229093  0.00844010  0.37011581  1
  La  La1  1  0.67428863  0.34543897  0.69734626  1
  La  La2  1  0.67210415  0.32972549  0.18100952  1
  Ta  Ta0  1  0.00931687  0.98643817  0.86032339  1
  Ta  Ta1  1  0.01335006  0.01636018  0.64889504  1
  Ta  Ta2  1  0.99736436  0.99376300  0.13825434  1
  Ta  Ta3  1  0.68136735  0.33958709  0.97466071  1
  Ta  Ta4  1  0.66563117  0.31960183  0.47781749  1
  Ta  Ta5  1  0.34516849  0.68655806  0.01687211  1
  Ta  Ta6  1  0.33750286  0.65728461  0.52317519  1
  Ta  Ta7  1  0.34597024  0.67048074  0.31245110  1
  Ta  Ta8  1  0.34280286  0.67371882  0.80961824  1
  Si  Si0  1  0.26816826  0.28871364  0.75651667  1
  Si  Si1  1  0.02240795  0.73193019  0.75199636  1
  Si  Si2  1  0.95525804  0.32629922  0.58305197  1
  Si  Si3  1  0.96474637  0.62441569  0.07890900  1
  Si  Si4  1  0.66767997  0.04134798  0.08008027  1
  Si  Si5  1  0.61616288  0.66081970  0.91424202  1
  Si  Si6  1  0.34870107  0.96224921  0.91405673  1
  Si  Si7  1  0.59453087  0.95118255  0.41850153  1
  Si  Si8  1  0.36554412  0.40242668  0.41897592  1
  S  S0  1  0.27449911  0.97580000  0.24973693  1
  S  S1  1  0.70366733  0.72316394  0.24878271  1
  S  S2  1  0.02471170  0.30244968  0.24923540  1
  S  S3  1  0.71798042  0.97931001  0.75340018  1
  S  S4  1  0.36557178  0.03546354  0.58045508  1
  S  S5  1  0.67455200  0.63585897  0.58071219  1
  S  S6  1  0.36333664  0.33422860  0.07891921  1
  S  S7  1  0.04854609  0.38265335  0.91566655  1
  S  S8  1  0.04703674  0.63831528  0.41929803  1
  O  O0  1  0.19584231  0.99613278  0.30161250  1
  O  O1  1  0.80245826  0.79510193  0.30046269  1
  O  O2  1  0.99839709  0.19895802  0.30102860  1
  O  O3  1  0.15626771  0.17194477  0.81083244  1
  O  O4  1  0.00075802  0.82895630  0.80886845  1
  O  O5  1  0.81694419  0.99398047  0.80440738  1
  O  O6  1  0.80009333  0.96198066  0.69893171  1
  O  O7  1  0.15309420  0.19642406  0.69575608  1
  O  O8  1  0.03598854  0.84905738  0.69405978  1
  O  O9  1  0.79421081  0.83325324  0.19676938  1
  O  O10  1  0.04553847  0.21719836  0.19752100  1
  O  O11  1  0.16901034  0.96204268  0.19767064  1
  O  O12  1  0.88734290  0.37132753  0.63857572  1
  O  O13  1  0.47028544  0.09428956  0.63121911  1
  O  O14  1  0.61950259  0.52970270  0.63221382  1
  O  O15  1  0.90341528  0.53095882  0.13933715  1
  O  O16  1  0.61690329  0.09177634  0.13877855  1
  O  O17  1  0.46053912  0.37940832  0.13200348  1
  O  O18  1  0.44496908  0.29356279  0.03143561  1
  O  O19  1  0.82741697  0.52577334  0.02697560  1
  O  O20  1  0.70135630  0.17656012  0.02745194  1
  O  O21  1  0.45499299  0.15664108  0.52975949  1
  O  O22  1  0.69744308  0.54687700  0.53101764  1
  O  O23  1  0.82281113  0.30124117  0.52781092  1
  O  O24  1  0.51378476  0.67843807  0.96904264  1
  O  O25  1  0.15268682  0.45895535  0.96690351  1
  O  O26  1  0.31260309  0.83632489  0.96975133  1
  O  O27  1  0.48522360  0.84196128  0.47331177  1
  O  O28  1  0.34292115  0.50326818  0.47293031  1
  O  O29  1  0.14814013  0.65538789  0.47056948  1
  O  O30  1  0.12733299  0.61857575  0.36559400  1
  O  O31  1  0.48066827  0.86106402  0.35899496  1
  O  O32  1  0.37761013  0.51825423  0.35984846  1
  O  O33  1  0.12394684  0.49367715  0.86422828  1
  O  O34  1  0.37413574  0.86349961  0.86024446  1
  O  O35  1  0.49286541  0.63213783  0.85913147  1
  O  O36  1  0.02718730  0.78689600  0.41579376  1
  O  O37  1  0.77353138  0.96421170  0.41649347  1
  O  O38  1  0.20398020  0.21921394  0.41751711  1
  O  O39  1  0.01597180  0.20862008  0.90839873  1
  O  O40  1  0.17944999  0.98338723  0.90696310  1
  O  O41  1  0.80345374  0.83136311  0.90449525  1
  O  O42  1  0.97163083  0.15390064  0.59397324  1
  O  O43  1  0.19904762  0.03065243  0.58845118  1
  O  O44  1  0.82723881  0.80339566  0.58879719  1
  O  O45  1  0.98500263  0.81962988  0.09388040  1
  O  O46  1  0.84273418  0.02622886  0.09582330  1
  O  O47  1  0.19271651  0.17128972  0.09239853  1
  O  O48  1  0.69225942  0.12353717  0.74910573  1
  O  O49  1  0.44211558  0.29256681  0.74903542  1
  O  O50  1  0.85673709  0.55098487  0.75175054  1
  O  O51  1  0.65980240  0.54815427  0.24049885  1
  O  O52  1  0.88336726  0.33475322  0.24367167  1
  O  O53  1  0.44752544  0.11728018  0.24308495  1
  O  O54  1  0.64111518  0.49688858  0.93060186  1
  O  O55  1  0.87553396  0.36997139  0.92455795  1
  O  O56  1  0.51127749  0.14792825  0.93056075  1
  O  O57  1  0.61505641  0.14210475  0.42776587  1
  O  O58  1  0.53991325  0.39808369  0.43206399  1
  O  O59  1  0.87537682  0.48193740  0.42571029  1
  O  O60  1  0.32140457  0.46600549  0.06350082  1
  O  O61  1  0.14928639  0.65174546  0.06103469  1
  O  O62  1  0.51859194  0.84818277  0.06334329  1
  O  O63  1  0.32747582  0.86104594  0.56603977  1
  O  O64  1  0.52858336  0.67055911  0.56767130  1
  O  O65  1  0.14643924  0.48489571  0.56466076  1
  O  O66  1  0.27908839  0.81138308  0.25653398  1
  O  O67  1  0.53456480  0.72343369  0.25548238  1
  O  O68  1  0.18626907  0.47304736  0.25760339  1
  O  O69  1  0.28367006  0.47527434  0.76490576  1
  O  O70  1  0.19709592  0.72512790  0.76314796  1
  O  O71  1  0.54774548  0.81760038  0.75655650  1
loop_
_geom_bond_atom_site_label_1
_geom_bond_atom_site_label_2
_geom_bond_distance
_geom_bond_site_symmetry_2
La0 O38 2.183668 1_555
La0 O37 2.185610 1_445
La0 O2 2.364481 1_455
La0 O36 2.376801 1_545
La0 O0 2.412085 1_545
La0 O1 2.494136 1_445
La1 O50 2.187408 1_555
La1 O49 2.252641 1_555
La1 O12 2.276732 1_555
La1 O48 2.413842 1_555
La1 O14 2.477824 1_555
La1 O13 2.615970 1_555
La2 O15 2.189307 1_555
La2 O16 2.200141 1_555
La2 O52 2.395699 1_555
La2 O53 2.438673 1_555
La2 O17 2.463543 1_555
La2 O51 2.476226 1_555
O0 S0 1.459339 1_555
O1 S1 1.452645 1_555
O2 S2 1.464453 1_655
O3 Si0 1.624485 1_555
O3 Ta0 1.908706 1_545
O4 Si1 1.660489 1_555
O4 Ta0 1.844789 1_555
O5 S3 1.457132 1_555
O5 Ta0 2.209519 1_655
O6 S3 1.516476 1_555
O6 Ta1 2.088205 1_665
O7 Si0 1.715994 1_555
O7 Ta1 1.852593 1_555
O8 Si1 1.674796 1_555
O8 Ta1 1.934342 1_565
O9 S1 1.511925 1_555
O9 Ta2 2.151358 1_555
O10 S2 1.497852 1_555
O10 Ta2 2.317890 1_445
O11 S0 1.513521 1_555
O11 Ta2 2.209275 1_455
O12 Si2 1.572108 1_555
O13 S4 1.446822 1_555
O14 S5 1.451291 1_555
O15 Si3 1.582775 1_555
O16 Si4 1.582514 1_555
O17 S6 1.457888 1_555
O18 S6 1.476843 1_555
O18 Ta3 2.365114 1_554
O19 Si3 1.651014 1_555
O19 Ta3 1.974050 1_554
O20 Si4 1.641418 1_555
O20 Ta3 1.993107 1_554
O21 S4 1.527910 1_555
O21 Ta4 2.102153 1_555
O22 S5 1.488413 1_555
O22 Ta4 2.307508 1_555
O23 Si2 1.700231 1_555
O23 Ta4 1.914177 1_555
O24 Si5 1.630366 1_555
O24 Ta5 1.920513 1_556
O25 S7 1.469693 1_555
O25 Ta5 2.260712 1_556
O26 Si6 1.639654 1_555
O26 Ta5 1.875813 1_556
O27 Si7 1.604654 1_555
O27 Ta6 1.911704 1_555
O28 Si8 1.631804 1_555
O28 Ta6 1.849881 1_555
O29 S8 1.468818 1_555
O29 Ta6 2.107000 1_555
O30 S8 1.500700 1_555
O30 Ta7 2.173187 1_555
O31 Si7 1.684032 1_555
O31 Ta7 1.892788 1_555
O32 Si8 1.693531 1_555
O32 Ta7 1.893020 1_555
O33 S7 1.482264 1_555
O33 Ta8 2.218190 1_555
O34 Si6 1.627743 1_555
O34 Ta8 1.996126 1_555
O35 Si5 1.639542 1_555
O35 Ta8 1.960953 1_555
O36 S8 1.449914 1_555
O37 Si7 1.569550 1_555
O38 Si8 1.572953 1_555
O39 S7 1.466436 1_555
O39 Ta0 2.289890 1_545
O40 Si6 1.649977 1_555
O40 Ta0 1.902195 1_555
O41 Si5 1.640261 1_555
O41 Ta0 1.962590 1_655
O42 Si2 1.662841 1_555
O42 Ta1 1.945821 1_655
O43 S4 1.501184 1_555
O43 Ta1 2.143618 1_555
O44 S5 1.470733 1_555
O44 Ta1 2.310042 1_665
O45 Si3 1.727042 1_555
O45 Ta2 1.852128 1_555
O46 Si4 1.703262 1_555
O46 Ta2 1.858045 1_545
O47 S6 1.541487 1_555
O47 Ta2 1.992392 1_445
O48 S3 1.443985 1_545
O49 Si0 1.570918 1_555
O50 Si1 1.575887 1_655
O51 S1 1.446730 1_555
O52 S2 1.458680 1_655
O53 S0 1.453375 1_545
O54 Si5 1.655873 1_555
O54 Ta3 1.930226 1_555
O55 S7 1.529323 1_655
O55 Ta3 2.008120 1_555
O56 Si6 1.639567 1_545
O56 Ta3 1.952719 1_555
O57 Si7 1.664495 1_545
O57 Ta4 1.859873 1_555
O58 Si8 1.632877 1_555
O58 Ta4 1.937870 1_555
O59 S8 1.497367 1_655
O59 Ta4 2.098467 1_555
O60 S6 1.468514 1_555
O60 Ta5 2.182197 1_555
O61 Si3 1.617747 1_455
O61 Ta5 1.932396 1_555
O62 Si4 1.641644 1_565
O62 Ta5 1.877202 1_555
O63 S4 1.483878 1_565
O63 Ta6 2.151188 1_555
O64 S5 1.538772 1_555
O64 Ta6 1.975072 1_555
O65 Si2 1.657045 1_455
O65 Ta6 1.904654 1_555
O66 S0 1.521483 1_555
O66 Ta7 2.110530 1_555
O67 S1 1.543755 1_555
O67 Ta7 2.016041 1_555
O68 S2 1.522273 1_555
O68 Ta7 2.095375 1_555
O69 Si0 1.641813 1_555
O69 Ta8 1.919472 1_555
O70 Si1 1.639322 1_555
O70 Ta8 1.938488 1_555
O71 S3 1.507002 1_555
O71 Ta8 2.051357 1_555
