# generated using pymatgen
data_Na14Hf6Zn2Si9(SO16)3
_symmetry_space_group_name_H-M   'P 1'
_cell_length_a   18.35642428
_cell_length_b   9.20202803
_cell_length_c   22.55905006
_cell_angle_alpha   90.05641478
_cell_angle_beta   90.21997472
_cell_angle_gamma   120.06478119
_symmetry_Int_Tables_number   1
_chemical_formula_structural   Na14Hf6Zn2Si9(SO16)3
_chemical_formula_sum   'Na42 Hf18 Zn6 Si27 S9 O144'
_cell_volume   3297.87019725
_cell_formula_units_Z   3
loop_
 _symmetry_equiv_pos_site_id
 _symmetry_equiv_pos_as_xyz
  1  'x, y, z'
loop_
 _atom_site_type_symbol
 _atom_site_label
 _atom_site_symmetry_multiplicity
 _atom_site_fract_x
 _atom_site_fract_y
 _atom_site_fract_z
 _atom_site_occupancy
  Na  Na0  1  0.31224415  0.00531526  0.24394458  1
  Na  Na1  1  0.81822434  0.02133485  0.24620033  1
  Na  Na2  1  0.18862953  0.36399992  0.25031897  1
  Na  Na3  1  0.69721425  0.36652306  0.24863697  1
  Na  Na4  1  0.98929883  0.61551158  0.25247835  1
  Na  Na5  1  0.49309802  0.63310320  0.24686437  1
  Na  Na6  1  0.31835783  0.61465470  0.73967182  1
  Na  Na7  1  0.81273654  0.62031487  0.73969743  1
  Na  Na8  1  0.99088043  0.34607735  0.74123348  1
  Na  Na9  1  0.49066511  0.36773569  0.74806408  1
  Na  Na10  1  0.19799611  0.03194012  0.74377332  1
  Na  Na11  1  0.69105904  0.01350696  0.74594194  1
  Na  Na12  1  0.15628446  0.33876317  0.58730564  1
  Na  Na13  1  0.65829120  0.35958739  0.57737553  1
  Na  Na14  1  0.00947602  0.69018262  0.57867390  1
  Na  Na15  1  0.51683090  0.69137100  0.57183824  1
  Na  Na16  1  0.32925805  0.96655389  0.58483288  1
  Na  Na17  1  0.82653342  0.94825149  0.57291695  1
  Na  Na18  1  0.15809922  0.96063024  0.08435974  1
  Na  Na19  1  0.65814752  0.97495345  0.09074330  1
  Na  Na20  1  0.33019828  0.70263175  0.08413352  1
  Na  Na21  1  0.82853370  0.69137963  0.08835485  1
  Na  Na22  1  0.01402508  0.33580885  0.07749363  1
  Na  Na23  1  0.51276765  0.33239788  0.08344142  1
  Na  Na24  1  0.98550429  0.67173289  0.91905531  1
  Na  Na25  1  0.34923706  0.03776386  0.91350624  1
  Na  Na26  1  0.16263613  0.29274063  0.91561747  1
  Na  Na27  1  0.48868060  0.30484469  0.41926735  1
  Na  Na28  1  0.66904568  0.03140943  0.41486607  1
  Na  Na29  1  0.84776281  0.67152013  0.41975637  1
  Na  Na30  1  0.99791812  0.99583091  0.49600891  1
  Na  Na31  1  0.49133262  0.98101611  0.49319546  1
  Na  Na32  1  0.98803750  0.99908757  0.99479835  1
  Na  Na33  1  0.50842137  0.01659554  0.00253170  1
  Na  Na34  1  0.33910500  0.33890856  0.82249150  1
  Na  Na35  1  0.82751888  0.32072964  0.82836771  1
  Na  Na36  1  0.32806844  0.33479256  0.32987683  1
  Na  Na37  1  0.83760895  0.33006637  0.32760103  1
  Na  Na38  1  0.17212084  0.67768259  0.16868069  1
  Na  Na39  1  0.67158260  0.68035443  0.16763747  1
  Na  Na40  1  0.17043119  0.66137031  0.66144411  1
  Na  Na41  1  0.67411320  0.66779286  0.66283295  1
  Hf  Hf0  1  0.99844774  0.99688160  0.35038228  1
  Hf  Hf1  1  0.49659988  0.97832508  0.35626651  1
  Hf  Hf2  1  0.99567456  0.01363952  0.85648747  1
  Hf  Hf3  1  0.50465312  0.00994241  0.84859815  1
  Hf  Hf4  1  0.99677051  0.00815808  0.64426987  1
  Hf  Hf5  1  0.49701206  0.99078277  0.65211088  1
  Hf  Hf6  1  0.99639451  0.00264380  0.15292405  1
  Hf  Hf7  1  0.49766067  0.98713904  0.14563169  1
  Hf  Hf8  1  0.34133324  0.32965160  0.98050641  1
  Hf  Hf9  1  0.82975350  0.32377643  0.97978669  1
  Hf  Hf10  1  0.32991184  0.33524387  0.48003040  1
  Hf  Hf11  1  0.84242725  0.34807225  0.47700394  1
  Hf  Hf12  1  0.66809136  0.65677481  0.01942622  1
  Hf  Hf13  1  0.16827848  0.67892412  0.51881589  1
  Hf  Hf14  1  0.16635951  0.67987188  0.31220384  1
  Hf  Hf15  1  0.67126508  0.67636940  0.31900461  1
  Hf  Hf16  1  0.16644633  0.67015559  0.81586683  1
  Hf  Hf17  1  0.66605870  0.65225614  0.81187227  1
  Zn  Zn0  1  0.32275944  0.33251857  0.68606415  1
  Zn  Zn1  1  0.83487534  0.33594035  0.67900207  1
  Zn  Zn2  1  0.33415237  0.33000231  0.18178752  1
  Zn  Zn3  1  0.82234860  0.31274460  0.18837490  1
  Zn  Zn4  1  0.16499207  0.68293728  0.00971558  1
  Zn  Zn5  1  0.67534724  0.66334127  0.50080641  1
  Si  Si0  1  0.14871954  0.00630431  0.24749368  1
  Si  Si1  1  0.64484054  0.99289546  0.25160412  1
  Si  Si2  1  0.35085222  0.69964453  0.24764345  1
  Si  Si3  1  0.84921190  0.69941954  0.25027735  1
  Si  Si4  1  0.00143152  0.29903937  0.25005606  1
  Si  Si5  1  0.14513053  0.29434786  0.75278815  1
  Si  Si6  1  0.65031026  0.29511712  0.74626101  1
  Si  Si7  1  0.50099689  0.70525440  0.75160825  1
  Si  Si8  1  0.35092209  0.99818444  0.75158827  1
  Si  Si9  1  0.85073731  0.00148176  0.74848292  1
  Si  Si10  1  0.98016183  0.33750408  0.58628517  1
  Si  Si11  1  0.18829936  0.04269379  0.58758816  1
  Si  Si12  1  0.33589826  0.63023439  0.58533443  1
  Si  Si13  1  0.82897490  0.62453065  0.58700583  1
  Si  Si14  1  0.47942803  0.62335810  0.08554882  1
  Si  Si15  1  0.32877244  0.02781510  0.08540142  1
  Si  Si16  1  0.83610135  0.04159682  0.08480734  1
  Si  Si17  1  0.68828208  0.33334651  0.08695343  1
  Si  Si18  1  0.81394722  0.66201017  0.91660176  1
  Si  Si19  1  0.02182201  0.38164768  0.92169502  1
  Si  Si20  1  0.52005277  0.36636637  0.91607640  1
  Si  Si21  1  0.16583579  0.96680377  0.91833447  1
  Si  Si22  1  0.31443850  0.96609129  0.41667909  1
  Si  Si23  1  0.81941341  0.97082085  0.41988842  1
  Si  Si24  1  0.66426495  0.36695288  0.41816782  1
  Si  Si25  1  0.02166820  0.67490338  0.41560672  1
  Si  Si26  1  0.52074281  0.66016678  0.42091318  1
  S  S0  1  0.50193133  0.29016939  0.25107011  1
  S  S1  1  0.00260098  0.71379218  0.75261118  1
  S  S2  1  0.47886244  0.33018640  0.58536769  1
  S  S3  1  0.68352777  0.03910289  0.58444709  1
  S  S4  1  0.97973140  0.62811027  0.08431034  1
  S  S5  1  0.18510509  0.33106621  0.08234653  1
  S  S6  1  0.31491785  0.66653714  0.91788150  1
  S  S7  1  0.66530226  0.95642515  0.91661881  1
  S  S8  1  0.16683418  0.37666221  0.41645527  1
  O  O0  1  0.09809283  0.02991693  0.30230082  1
  O  O1  1  0.59629655  0.01571648  0.30799660  1
  O  O2  1  0.41387013  0.80380623  0.30239019  1
  O  O3  1  0.90926569  0.79889473  0.30746270  1
  O  O4  1  0.49403012  0.18823596  0.30386178  1
  O  O5  1  0.98821474  0.17047862  0.30371745  1
  O  O6  1  0.09776895  0.17636419  0.80997948  1
  O  O7  1  0.59904265  0.17223737  0.80268803  1
  O  O8  1  0.48775728  0.80603565  0.80664968  1
  O  O9  1  0.99576223  0.80056502  0.80561268  1
  O  O10  1  0.40898630  0.01573611  0.81021524  1
  O  O11  1  0.91347531  0.02495147  0.80398780  1
  O  O12  1  0.39591524  0.96519747  0.69336076  1
  O  O13  1  0.89383457  0.96463948  0.69049520  1
  O  O14  1  0.08620880  0.20418547  0.69370353  1
  O  O15  1  0.58941597  0.20678564  0.68783464  1
  O  O16  1  0.01404729  0.81367051  0.69805978  1
  O  O17  1  0.51701218  0.82574752  0.69219869  1
  O  O18  1  0.39234451  0.81973161  0.18830180  1
  O  O19  1  0.89482234  0.82437052  0.19161104  1
  O  O20  1  0.01811361  0.21311663  0.18932013  1
  O  O21  1  0.51046148  0.20804668  0.19621830  1
  O  O22  1  0.09034116  0.97373368  0.18662914  1
  O  O23  1  0.58714305  0.97109266  0.19177585  1
  O  O24  1  0.43817455  0.34489602  0.63905608  1
  O  O25  1  0.94754780  0.37944282  0.64715404  1
  O  O26  1  0.24580362  0.10991442  0.64677415  1
  O  O27  1  0.73274399  0.11565736  0.63922526  1
  O  O28  1  0.31733441  0.52331084  0.64574721  1
  O  O29  1  0.81452517  0.51279357  0.64633372  1
  O  O30  1  0.44446541  0.51008663  0.14469681  1
  O  O31  1  0.93954248  0.53251846  0.13762052  1
  O  O32  1  0.30998177  0.10924086  0.14291746  1
  O  O33  1  0.81771604  0.11306482  0.14472623  1
  O  O34  1  0.23498379  0.35277644  0.13634483  1
  O  O35  1  0.74613779  0.38037912  0.14546626  1
  O  O36  1  0.22734078  0.31283101  0.02821521  1
  O  O37  1  0.73462222  0.30023136  0.03013593  1
  O  O38  1  0.41370146  0.52999315  0.02972600  1
  O  O39  1  0.92768372  0.54599601  0.02961329  1
  O  O40  1  0.34383147  0.15083364  0.02624334  1
  O  O41  1  0.85360010  0.16981601  0.02873175  1
  O  O42  1  0.23534529  0.17018054  0.53172262  1
  O  O43  1  0.72493042  0.14138090  0.53121490  1
  O  O44  1  0.35299893  0.53532091  0.53006893  1
  O  O45  1  0.84310991  0.53129407  0.52869114  1
  O  O46  1  0.42615553  0.30660932  0.53102742  1
  O  O47  1  0.91499821  0.30292570  0.53160836  1
  O  O48  1  0.27826592  0.69316354  0.97158848  1
  O  O49  1  0.76997595  0.69009094  0.97514802  1
  O  O50  1  0.08119546  0.45954269  0.97996489  1
  O  O51  1  0.57493005  0.46184596  0.97496906  1
  O  O52  1  0.14763873  0.85820158  0.97819627  1
  O  O53  1  0.65715716  0.85887698  0.97083709  1
  O  O54  1  0.27066810  0.85031482  0.47537134  1
  O  O55  1  0.78240882  0.85615155  0.47872437  1
  O  O56  1  0.15920050  0.45921158  0.47077348  1
  O  O57  1  0.64011221  0.43359444  0.47741543  1
  O  O58  1  0.07577137  0.68567725  0.47487501  1
  O  O59  1  0.57782748  0.69581337  0.47996045  1
  O  O60  1  0.06575462  0.64761826  0.35708477  1
  O  O61  1  0.56535867  0.63281664  0.36155077  1
  O  O62  1  0.25789445  0.87258508  0.35768460  1
  O  O63  1  0.75664233  0.87460911  0.36159865  1
  O  O64  1  0.17639100  0.47726010  0.36289316  1
  O  O65  1  0.68187039  0.49363951  0.36114652  1
  O  O66  1  0.06907025  0.50124576  0.86316935  1
  O  O67  1  0.56435670  0.47757158  0.85702234  1
  O  O68  1  0.18608385  0.87619436  0.86188792  1
  O  O69  1  0.67443935  0.87523732  0.86304756  1
  O  O70  1  0.26100138  0.64570650  0.86435519  1
  O  O71  1  0.75714231  0.64248449  0.85793198  1
  O  O72  1  0.01030764  0.84010220  0.41329640  1
  O  O73  1  0.51245838  0.83004807  0.41327319  1
  O  O74  1  0.41065204  0.99819266  0.41073101  1
  O  O75  1  0.91146698  0.98696270  0.41096063  1
  O  O76  1  0.09181300  0.20726868  0.41275037  1
  O  O77  1  0.58220659  0.17997239  0.40762816  1
  O  O78  1  0.01282238  0.19496585  0.91398398  1
  O  O79  1  0.50367818  0.17187099  0.91466025  1
  O  O80  1  0.08200858  0.98274307  0.90859830  1
  O  O81  1  0.58952693  0.97609265  0.91321036  1
  O  O82  1  0.39978588  0.81567615  0.91055742  1
  O  O83  1  0.91037348  0.82274084  0.91096145  1
  O  O84  1  0.48676810  0.17337834  0.58639575  1
  O  O85  1  0.98847048  0.16518562  0.58739746  1
  O  O86  1  0.09344105  0.01972284  0.59188286  1
  O  O87  1  0.59823761  0.03026808  0.58682382  1
  O  O88  1  0.42137392  0.82308165  0.58636332  1
  O  O89  1  0.91894453  0.80916565  0.58972020  1
  O  O90  1  0.48729666  0.81145315  0.08712762  1
  O  O91  1  0.98840904  0.80117647  0.08497964  1
  O  O92  1  0.41849981  0.02556105  0.08775042  1
  O  O93  1  0.92182287  0.01958383  0.08570121  1
  O  O94  1  0.10025871  0.17071591  0.08405797  1
  O  O95  1  0.59287361  0.16677599  0.09032194  1
  O  O96  1  0.34544496  0.16674087  0.75006960  1
  O  O97  1  0.84331587  0.16994520  0.74538256  1
  O  O98  1  0.23856791  0.31779192  0.75236194  1
  O  O99  1  0.74267021  0.31524356  0.74722867  1
  O  O100  1  0.41968227  0.52017122  0.74662643  1
  O  O101  1  0.92898209  0.54501872  0.75051822  1
  O  O102  1  0.34370038  0.51639679  0.24478946  1
  O  O103  1  0.84450845  0.52030025  0.24794669  1
  O  O104  1  0.42626796  0.30808058  0.24869786  1
  O  O105  1  0.92009385  0.32157563  0.24539976  1
  O  O106  1  0.24257085  0.16988240  0.24650337  1
  O  O107  1  0.73790434  0.15665540  0.25202250  1
  O  O108  1  0.31781389  0.50774634  0.92050557  1
  O  O109  1  0.82597048  0.49711342  0.92385324  1
  O  O110  1  0.42413679  0.34323071  0.92046169  1
  O  O111  1  0.93001111  0.37050282  0.92442587  1
  O  O112  1  0.24827729  0.15897334  0.92315469  1
  O  O113  1  0.74223793  0.12749679  0.92059565  1
  O  O114  1  0.32527500  0.15373394  0.42421088  1
  O  O115  1  0.81755918  0.14631440  0.42324007  1
  O  O116  1  0.24445481  0.36146805  0.42066660  1
  O  O117  1  0.74865872  0.34989163  0.42448632  1
  O  O118  1  0.42783695  0.48864874  0.42410229  1
  O  O119  1  0.92574182  0.51033047  0.41956938  1
  O  O120  1  0.17266787  0.47738260  0.07806657  1
  O  O121  1  0.67432279  0.49748746  0.07752287  1
  O  O122  1  0.06479267  0.64666255  0.07971910  1
  O  O123  1  0.57551243  0.65771275  0.07400121  1
  O  O124  1  0.24867604  0.83527495  0.07704362  1
  O  O125  1  0.75245849  0.85350993  0.07466082  1
  O  O126  1  0.17523678  0.85177516  0.57777473  1
  O  O127  1  0.66915054  0.86635083  0.58079453  1
  O  O128  1  0.25227709  0.65109284  0.57576250  1
  O  O129  1  0.74772826  0.65264540  0.58143463  1
  O  O130  1  0.07666281  0.49564988  0.57536319  1
  O  O131  1  0.56351823  0.48042841  0.58073714  1
  O  O132  1  0.15386205  0.83124813  0.25216949  1
  O  O133  1  0.64750868  0.81548142  0.25432674  1
  O  O134  1  0.25796711  0.68334309  0.25464425  1
  O  O135  1  0.75571274  0.68423245  0.25356937  1
  O  O136  1  0.08952243  0.47983526  0.25561986  1
  O  O137  1  0.57959685  0.45903053  0.25386497  1
  O  O138  1  0.15114195  0.48084846  0.75823898  1
  O  O139  1  0.65424759  0.47840377  0.75174133  1
  O  O140  1  0.08177634  0.70060970  0.75650229  1
  O  O141  1  0.58861394  0.69984412  0.75743707  1
  O  O142  1  0.25784307  0.82484164  0.75580733  1
  O  O143  1  0.75770830  0.83270064  0.75604426  1
loop_
_geom_bond_atom_site_label_1
_geom_bond_atom_site_label_2
_geom_bond_distance
_geom_bond_site_symmetry_2
Na0 O106 2.423486 1_555
Na0 O32 2.480691 1_555
Na0 O104 2.511853 1_555
Na0 O132 2.528121 1_545
Na0 O134 2.621956 1_545
Na0 O62 2.806368 1_545
Na1 O107 2.362701 1_555
Na1 O105 2.440112 1_555
Na1 O33 2.442208 1_555
Na1 O135 2.720827 1_545
Na1 O133 2.738516 1_545
Na1 O63 2.894502 1_545
Na2 O106 2.439498 1_555
Na2 O102 2.467463 1_555
Na2 O136 2.530722 1_555
Na2 O134 2.552616 1_555
Na2 O34 2.729437 1_555
Na2 O64 2.796403 1_555
Na2 O0 2.913931 1_555
Na3 O103 2.340938 1_555
Na3 O107 2.395504 1_555
Na3 O35 2.478229 1_555
Na3 O135 2.562351 1_555
Na3 O137 2.691324 1_555
Na3 O65 2.866940 1_555
Na4 O103 2.346636 1_555
Na4 O105 2.347356 1_555
Na4 O132 2.656659 1_655
Na4 O60 2.680200 1_655
Na4 O136 2.692401 1_655
Na4 O31 2.722169 1_555
Na5 O102 2.392552 1_555
Na5 O133 2.471524 1_555
Na5 O30 2.521313 1_555
Na5 O104 2.603135 1_555
Na5 O137 2.767463 1_555
Na5 O61 2.903502 1_555
Na5 O2 2.907005 1_555
Na5 O23 2.973594 1_555
Na6 O28 2.275251 1_555
Na6 O98 2.384416 1_555
Na6 O100 2.420389 1_555
Na6 O142 2.694775 1_555
Na6 O138 2.708749 1_555
Na7 O29 2.333465 1_555
Na7 O99 2.439018 1_555
Na7 O139 2.538358 1_555
Na7 O101 2.563342 1_555
Na7 O143 2.637310 1_555
Na7 O71 2.902716 1_555
Na7 O13 2.963273 1_555
Na8 O25 2.337593 1_555
Na8 O97 2.361441 1_555
Na8 O138 2.583493 1_655
Na8 O101 2.602197 1_555
Na8 O140 2.843462 1_655
Na8 O14 2.866629 1_655
Na8 O11 2.927776 1_555
Na9 O100 2.344679 1_555
Na9 O96 2.364323 1_555
Na9 O24 2.607244 1_555
Na9 O139 2.644747 1_555
Na9 O141 2.665955 1_555
Na9 O67 2.737300 1_555
Na10 O26 2.336698 1_555
Na10 O96 2.348924 1_555
Na10 O98 2.355065 1_555
Na10 O142 2.647409 1_545
Na10 O140 2.723754 1_545
Na11 O97 2.419282 1_555
Na11 O99 2.443726 1_555
Na11 O143 2.520925 1_545
Na11 O141 2.549768 1_545
Na11 O27 2.561781 1_555
Na11 O69 2.883560 1_545
Na12 O128 2.522646 1_555
Na12 O130 2.530785 1_555
Na12 O86 2.562931 1_555
Na12 O85 2.666576 1_455
Na12 O14 2.717141 1_555
Na12 O56 2.844222 1_555
Na12 O28 2.880485 1_555
Na12 O42 2.889795 1_555
Na13 O129 2.353382 1_555
Na13 O57 2.425929 1_555
Na13 O131 2.491572 1_555
Na13 O87 2.664567 1_555
Na13 O84 2.736944 1_555
Na13 O15 2.834565 1_555
Na14 O89 2.418323 1_455
Na14 O126 2.633843 1_555
Na14 O130 2.635067 1_555
Na14 O86 2.640403 1_565
Na14 O58 2.652928 1_555
Na14 O45 2.869119 1_455
Na14 O16 2.906631 1_555
Na14 O25 2.936063 1_455
Na15 O59 2.350205 1_555
Na15 O127 2.436274 1_555
Na15 O131 2.491764 1_555
Na15 O88 2.603501 1_555
Na15 O87 2.719815 1_565
Na15 O44 2.764560 1_555
Na15 O17 2.981717 1_555
Na16 O126 2.477623 1_555
Na16 O128 2.520309 1_555
Na16 O84 2.543365 1_565
Na16 O88 2.615309 1_555
Na16 O54 2.687055 1_555
Na16 O12 2.735651 1_555
Na16 O26 2.842066 1_565
Na16 O46 2.979299 1_565
Na17 O55 2.277046 1_555
Na17 O129 2.364187 1_555
Na17 O127 2.601628 1_555
Na17 O89 2.613558 1_555
Na17 O85 2.640756 1_565
Na17 O13 2.893418 1_555
Na17 O47 2.977350 1_565
Na18 O124 2.458806 1_555
Na18 O122 2.516263 1_555
Na18 O52 2.543959 1_554
Na18 O94 2.630824 1_565
Na18 O22 2.656320 1_555
Na18 O91 2.697541 1_455
Na18 O32 2.745224 1_565
Na19 O125 2.513976 1_555
Na19 O123 2.553867 1_555
Na19 O95 2.582756 1_565
Na19 O23 2.621336 1_555
Na19 O90 2.715900 1_555
Na19 O33 2.813818 1_565
Na19 O53 2.903892 1_554
Na19 O37 2.934630 1_565
Na20 O124 2.362937 1_555
Na20 O90 2.535429 1_555
Na20 O92 2.576201 1_565
Na20 O120 2.582214 1_555
Na20 O18 2.593739 1_555
Na20 O48 2.694472 1_554
Na21 O121 2.487888 1_555
Na21 O125 2.521212 1_555
Na21 O91 2.582682 1_555
Na21 O93 2.622311 1_565
Na21 O19 2.623892 1_555
Na21 O49 2.764734 1_554
Na21 O35 2.796945 1_555
Na22 O50 2.505298 1_554
Na22 O120 2.525119 1_555
Na22 O122 2.526217 1_555
Na22 O93 2.536775 1_455
Na22 O94 2.691414 1_555
Na22 O41 2.771300 1_455
Na22 O20 2.780896 1_555
Na23 O92 2.466265 1_555
Na23 O121 2.570942 1_555
Na23 O95 2.598703 1_555
Na23 O123 2.623320 1_555
Na23 O51 2.715555 1_554
Na23 O21 2.782417 1_555
Na23 O30 2.866704 1_555
Na23 O40 2.974349 1_555
Na24 O83 2.405205 1_555
Na24 O111 2.430712 1_555
Na24 O80 2.511806 1_655
Na24 O109 2.541176 1_555
Na24 O39 2.735189 1_556
Na24 O9 2.788584 1_555
Na24 O52 2.903489 1_655
Na24 O66 2.970849 1_655
Na25 O110 2.437497 1_555
Na25 O79 2.460632 1_555
Na25 O112 2.607633 1_555
Na25 O10 2.629648 1_555
Na25 O82 2.634800 1_545
Na25 O40 2.767793 1_556
Na25 O68 2.836246 1_545
Na26 O78 2.427681 1_555
Na26 O112 2.439824 1_555
Na26 O80 2.473869 1_545
Na26 O108 2.528035 1_555
Na26 O6 2.634261 1_555
Na26 O36 2.766390 1_556
Na27 O74 2.449172 1_545
Na27 O118 2.452212 1_555
Na27 O77 2.513206 1_555
Na27 O114 2.601350 1_555
Na27 O57 2.742357 1_555
Na27 O46 2.777558 1_555
Na27 O4 2.835664 1_555
Na27 O61 2.924098 1_555
Na28 O115 2.386042 1_555
Na28 O73 2.521773 1_545
Na28 O117 2.544939 1_555
Na28 O77 2.572643 1_555
Na28 O1 2.719902 1_555
Na28 O43 2.810608 1_555
Na28 O63 2.906458 1_545
Na29 O119 2.525160 1_555
Na29 O75 2.536622 1_555
Na29 O117 2.586061 1_555
Na29 O72 2.587765 1_655
Na29 O45 2.758423 1_555
Na29 O3 2.787050 1_555
Na29 O55 2.854005 1_555
Na29 O65 2.944687 1_555
Na30 O72 2.431347 1_655
Na30 O75 2.460210 1_555
Na30 O76 2.637433 1_665
Na30 O85 2.641264 1_565
Na30 O89 2.656483 1_555
Na30 O86 2.717435 1_665
Na31 O73 2.423059 1_555
Na31 O74 2.427575 1_555
Na31 O88 2.517042 1_555
Na31 O77 2.613865 1_565
Na31 O87 2.755503 1_565
Na31 O84 2.775524 1_565
Na32 O83 2.428572 1_555
Na32 O93 2.442600 1_566
Na32 O78 2.443516 1_665
Na32 O80 2.657954 1_655
Na32 O91 2.734080 1_556
Na32 O94 2.737620 1_666
Na33 O95 2.461661 1_555
Na33 O79 2.471354 1_554
Na33 O92 2.566659 1_555
Na33 O90 2.575891 1_545
Na33 O81 2.644473 1_544
Na33 O82 2.822501 1_544
Na34 O96 2.318152 1_555
Na34 O100 2.334968 1_555
Na34 O98 2.358856 1_555
Na34 O110 2.689548 1_555
Na34 O112 2.819336 1_555
Na34 O108 2.839688 1_555
Na35 O99 2.382854 1_555
Na35 O97 2.432309 1_555
Na35 O101 2.644544 1_555
Na35 O113 2.680383 1_555
Na35 O109 2.704629 1_555
Na35 O111 2.747465 1_555
Na36 O106 2.426701 1_555
Na36 O102 2.467697 1_555
Na36 O116 2.647923 1_555
Na36 O104 2.670563 1_555
Na36 O114 2.688775 1_555
Na36 O118 2.691288 1_555
Na37 O107 2.418149 1_555
Na37 O105 2.424300 1_555
Na37 O103 2.468839 1_555
Na37 O119 2.636653 1_555
Na37 O115 2.653154 1_555
Na37 O117 2.793107 1_555
Na38 O132 2.476023 1_555
Na38 O134 2.478056 1_555
Na38 O124 2.517465 1_555
Na38 O136 2.593083 1_555
Na38 O122 2.719495 1_555
Na38 O120 2.754500 1_555
Na39 O135 2.462890 1_555
Na39 O133 2.473525 1_555
Na39 O125 2.608175 1_555
Na39 O121 2.654375 1_555
Na39 O123 2.686586 1_555
Na39 O137 2.714814 1_555
Na40 O128 2.483251 1_555
Na40 O130 2.529374 1_555
Na40 O126 2.548189 1_555
Na40 O142 2.630220 1_555
Na40 O138 2.660207 1_555
Na40 O140 2.826898 1_555
Na41 O129 2.329082 1_555
Na41 O139 2.562953 1_555
Na41 O143 2.591304 1_555
Na41 O127 2.635144 1_555
Na41 O131 2.642300 1_555
Na41 O141 2.755575 1_555
Hf0 O3 1.983096 1_555
Hf0 O5 1.999442 1_565
Hf0 O0 2.018263 1_665
Hf0 O75 2.072725 1_555
Hf0 O72 2.111744 1_655
Hf0 O76 2.305757 1_665
Hf1 O2 1.975050 1_555
Hf1 O73 1.999715 1_555
Hf1 O1 2.009586 1_565
Hf1 O77 2.077310 1_565
Hf1 O74 2.082214 1_555
Hf1 O4 2.286108 1_565
Hf2 O11 1.958093 1_555
Hf2 O78 2.007970 1_655
Hf2 O6 2.015346 1_655
Hf2 O83 2.076251 1_545
Hf2 O80 2.100510 1_645
Hf2 O9 2.271639 1_545
Hf3 O7 1.931127 1_555
Hf3 O10 1.979572 1_555
Hf3 O8 1.980804 1_545
Hf3 O79 2.112859 1_555
Hf3 O81 2.262430 1_545
Hf3 O82 2.330790 1_545
Hf4 O85 1.994981 1_555
Hf4 O13 2.018894 1_545
Hf4 O14 2.051237 1_655
Hf4 O89 2.066226 1_545
Hf4 O86 2.093814 1_655
Hf4 O16 2.312143 1_645
Hf5 O17 1.953904 1_555
Hf5 O12 1.985244 1_555
Hf5 O15 2.021299 1_565
Hf5 O88 2.083736 1_555
Hf5 O87 2.258203 1_565
Hf5 O84 2.318547 1_565
Hf6 O20 1.950609 1_655
Hf6 O19 1.969737 1_545
Hf6 O22 2.018144 1_645
Hf6 O93 2.096700 1_555
Hf6 O94 2.348090 1_655
Hf6 O91 2.351215 1_545
Hf7 O23 2.008399 1_555
Hf7 O18 2.017506 1_555
Hf7 O90 2.019250 1_555
Hf7 O92 2.107752 1_565
Hf7 O95 2.114255 1_565
Hf7 O21 2.237088 1_565
Hf8 O40 1.962879 1_556
Hf8 O38 1.981687 1_556
Hf8 O110 1.996646 1_555
Hf8 O112 2.085536 1_555
Hf8 O36 2.292147 1_556
Hf8 O108 2.326606 1_555
Hf9 O37 2.005776 1_556
Hf9 O41 2.009650 1_556
Hf9 O109 2.062871 1_555
Hf9 O111 2.087440 1_555
Hf9 O113 2.167384 1_555
Hf9 O39 2.230091 1_556
Hf10 O44 2.013453 1_555
Hf10 O42 2.014324 1_555
Hf10 O114 2.057979 1_555
Hf10 O118 2.072252 1_555
Hf10 O116 2.162460 1_555
Hf10 O46 2.228354 1_555
Hf11 O119 1.994522 1_555
Hf11 O47 2.001875 1_555
Hf11 O45 2.043828 1_555
Hf11 O115 2.066024 1_555
Hf11 O117 2.092816 1_555
Hf11 O43 2.383187 1_555
Hf12 O49 2.007481 1_554
Hf12 O121 2.012428 1_555
Hf12 O51 2.014348 1_554
Hf12 O125 2.097621 1_555
Hf12 O123 2.105847 1_555
Hf12 O53 2.253170 1_554
Hf13 O58 1.990713 1_555
Hf13 O54 2.006886 1_555
Hf13 O126 2.026395 1_555
Hf13 O128 2.115312 1_555
Hf13 O130 2.116296 1_555
Hf13 O56 2.224135 1_555
Hf14 O60 1.997354 1_555
Hf14 O62 2.004589 1_555
Hf14 O132 2.036831 1_555
Hf14 O136 2.094588 1_555
Hf14 O134 2.116096 1_555
Hf14 O64 2.272491 1_555
Hf15 O63 1.956440 1_555
Hf15 O61 2.023771 1_555
Hf15 O65 2.024549 1_555
Hf15 O135 2.119589 1_555
Hf15 O133 2.125057 1_555
Hf15 O137 2.365168 1_555
Hf16 O66 1.995956 1_555
Hf16 O68 2.027552 1_555
Hf16 O142 2.074864 1_555
Hf16 O138 2.075087 1_555
Hf16 O70 2.153352 1_555
Hf16 O140 2.169985 1_555
Hf17 O71 2.005168 1_555
Hf17 O139 2.022961 1_555
Hf17 O67 2.029190 1_555
Hf17 O141 2.081379 1_555
Hf17 O143 2.096434 1_555
Hf17 O69 2.290057 1_555
O0 Si0 1.627929 1_555
O1 Si1 1.628562 1_545
O2 Si2 1.630316 1_555
O3 Si3 1.641052 1_555
O4 S0 1.478647 1_555
O5 Si4 1.625215 1_655
O6 Si5 1.632411 1_555
O7 Si6 1.652400 1_555
O8 Si7 1.639138 1_555
O9 S1 1.477382 1_655
O10 Si8 1.651540 1_545
O11 Si9 1.637060 1_555
O12 Si8 1.660857 1_555
O13 Si9 1.651620 1_565
O14 Si5 1.649980 1_555
O15 Si6 1.650341 1_555
O16 S1 1.487961 1_555
O17 Si7 1.670739 1_555
O18 Si2 1.661555 1_555
O19 Si3 1.679737 1_555
O20 Si4 1.685200 1_555
O21 S0 1.498323 1_555
O22 Si0 1.670190 1_565
O23 Si1 1.661077 1_555
O24 S2 1.466623 1_555
O24 Zn0 2.324168 1_555
O25 Si10 1.621616 1_555
O25 Zn1 2.033853 1_555
O26 Si11 1.616445 1_555
O26 Zn0 2.016089 1_555
O27 S3 1.480389 1_555
O27 Zn1 2.145855 1_555
O28 Si12 1.616121 1_555
O28 Zn0 2.024143 1_555
O29 Si13 1.628190 1_555
O29 Zn1 1.985067 1_555
O30 Si14 1.617964 1_555
O30 Zn2 2.049441 1_555
O31 S4 1.457054 1_555
O31 Zn3 2.386035 1_555
O32 Si15 1.620001 1_555
O32 Zn2 2.045232 1_555
O33 Si16 1.611728 1_555
O33 Zn3 2.047511 1_555
O34 S5 1.473023 1_555
O34 Zn2 2.185625 1_555
O35 Si17 1.607844 1_555
O35 Zn3 2.035825 1_555
O36 S5 1.502554 1_555
O37 Si17 1.651257 1_555
O38 Si14 1.651441 1_555
O39 S4 1.507343 1_555
O40 Si15 1.682610 1_555
O41 Si16 1.649808 1_555
O42 Si11 1.645146 1_555
O43 S3 1.482574 1_555
O44 Si12 1.640511 1_555
O45 Si13 1.660567 1_555
O46 S2 1.505304 1_555
O47 Si10 1.630959 1_555
O48 S6 1.466785 1_555
O48 Zn4 2.211332 1_556
O49 Si18 1.636807 1_555
O50 Si19 1.622953 1_555
O50 Zn4 1.965566 1_556
O51 Si20 1.628622 1_555
O52 Si21 1.614186 1_555
O52 Zn4 1.929614 1_556
O53 S7 1.480950 1_555
O54 Si22 1.639192 1_555
O55 Si23 1.621121 1_555
O55 Zn5 1.942664 1_555
O56 S8 1.484696 1_555
O57 Si24 1.623083 1_555
O57 Zn5 1.947167 1_555
O58 Si25 1.635455 1_555
O59 Si26 1.619881 1_555
O59 Zn5 2.011146 1_555
O60 Si25 1.634632 1_555
O61 Si26 1.655812 1_555
O62 Si22 1.637431 1_555
O63 Si23 1.674688 1_555
O64 S8 1.479471 1_555
O65 Si24 1.657353 1_555
O66 Si19 1.661880 1_555
O67 Si20 1.631099 1_555
O68 Si21 1.663402 1_555
O69 S7 1.473812 1_555
O70 S6 1.508185 1_555
O71 Si18 1.634790 1_555
O72 Si25 1.635485 1_555
O73 Si26 1.653817 1_555
O74 Si22 1.644283 1_555
O75 Si23 1.633753 1_555
O76 S8 1.476903 1_555
O77 Si24 1.638769 1_555
O78 Si19 1.650276 1_555
O79 Si20 1.659933 1_555
O80 Si21 1.631309 1_555
O81 S7 1.491605 1_555
O82 S6 1.482545 1_555
O83 Si18 1.647974 1_555
O84 S2 1.521039 1_555
O85 Si10 1.667524 1_555
O86 Si11 1.648818 1_555
O87 S3 1.527671 1_555
O88 Si12 1.679689 1_555
O89 Si13 1.674960 1_555
O90 Si14 1.663532 1_555
O91 S4 1.519081 1_555
O92 Si15 1.658208 1_555
O93 Si16 1.684221 1_555
O94 S5 1.517369 1_555
O95 Si17 1.653482 1_555
O96 Si8 1.604182 1_545
O96 Zn0 2.285083 1_555
O97 Si9 1.624293 1_555
O97 Zn1 2.199895 1_555
O98 Si5 1.617977 1_555
O98 Zn0 2.109968 1_555
O99 Si6 1.610668 1_555
O99 Zn1 2.228796 1_555
O100 Si7 1.610119 1_555
O100 Zn0 2.216352 1_555
O101 S1 1.461825 1_655
O101 Zn1 2.435361 1_555
O102 Si2 1.625649 1_555
O102 Zn2 2.164422 1_555
O103 Si3 1.607541 1_555
O103 Zn3 2.198100 1_555
O104 S0 1.479159 1_555
O104 Zn2 2.345429 1_555
O105 Si4 1.610084 1_655
O105 Zn3 2.171824 1_555
O106 Si0 1.623671 1_555
O106 Zn2 2.160960 1_555
O107 Si1 1.615476 1_545
O107 Zn3 2.077931 1_555
O108 S6 1.489767 1_555
O109 Si18 1.647327 1_555
O110 Si20 1.667601 1_555
O111 Si19 1.637757 1_655
O112 Si21 1.657129 1_545
O113 S7 1.500621 1_545
O114 Si22 1.644665 1_545
O115 Si23 1.633897 1_545
O116 S8 1.502441 1_555
O117 Si24 1.639185 1_555
O118 Si26 1.645878 1_555
O119 Si25 1.652771 1_655
O120 S5 1.477273 1_555
O120 Zn4 2.499274 1_555
O121 Si17 1.667431 1_555
O122 S4 1.487312 1_455
O122 Zn4 2.323047 1_555
O123 Si14 1.650360 1_555
O124 Si15 1.650315 1_565
O124 Zn4 2.109983 1_555
O125 Si16 1.655085 1_565
O126 Si11 1.664251 1_565
O127 S3 1.477398 1_565
O128 Si12 1.652994 1_555
O129 Si13 1.640798 1_555
O129 Zn5 2.279522 1_555
O130 Si10 1.654551 1_455
O131 S2 1.478531 1_555
O132 Si0 1.663600 1_565
O133 Si1 1.658838 1_555
O134 Si2 1.643304 1_555
O135 Si3 1.652706 1_555
O136 Si4 1.643452 1_555
O137 S0 1.493478 1_555
O138 Si5 1.668027 1_555
O139 Si6 1.656062 1_555
O140 S1 1.520004 1_555
O141 Si7 1.638637 1_555
O142 Si8 1.656365 1_555
O143 Si9 1.644018 1_565
