# generated using pymatgen
data_Na2Ta2In6Si3(S3O16)3
_symmetry_space_group_name_H-M   'P 1'
_cell_length_a   17.85606709
_cell_length_b   8.89256806
_cell_length_c   23.28668589
_cell_angle_alpha   89.99538540
_cell_angle_beta   90.18617166
_cell_angle_gamma   120.13927881
_symmetry_Int_Tables_number   1
_chemical_formula_structural   Na2Ta2In6Si3(S3O16)3
_chemical_formula_sum   'Na6 Ta6 In18 Si9 S27 O144'
_cell_volume   3197.69547685
_cell_formula_units_Z   3
loop_
 _symmetry_equiv_pos_site_id
 _symmetry_equiv_pos_as_xyz
  1  'x, y, z'
loop_
 _atom_site_type_symbol
 _atom_site_label
 _atom_site_symmetry_multiplicity
 _atom_site_fract_x
 _atom_site_fract_y
 _atom_site_fract_z
 _atom_site_occupancy
  Na  Na0  1  0.99827537  0.98749260  0.49904786  1
  Na  Na1  1  0.50144038  0.01123613  0.99664573  1
  Na  Na2  1  0.34292377  0.33793003  0.83478745  1
  Na  Na3  1  0.83487886  0.35099884  0.83082947  1
  Na  Na4  1  0.33709697  0.32130141  0.33571696  1
  Na  Na5  1  0.84060901  0.34254406  0.34088476  1
  Ta  Ta0  1  0.49339096  0.00542944  0.35639983  1
  Ta  Ta1  1  0.99270188  0.98022523  0.85355809  1
  Ta  Ta2  1  0.50198303  0.99238319  0.64157065  1
  Ta  Ta3  1  0.99682241  0.00322716  0.14486782  1
  Ta  Ta4  1  0.67220239  0.66555177  0.01679651  1
  Ta  Ta5  1  0.17116105  0.67756506  0.51847445  1
  In  In0  1  0.00362648  0.98974670  0.35682598  1
  In  In1  1  0.50212932  0.01488322  0.85433118  1
  In  In2  1  0.99837832  0.99463795  0.65067190  1
  In  In3  1  0.50029725  0.00419998  0.15200528  1
  In  In4  1  0.32990778  0.33489545  0.68278154  1
  In  In5  1  0.83781228  0.34100436  0.68475729  1
  In  In6  1  0.34207702  0.33457470  0.18799446  1
  In  In7  1  0.82738950  0.32110189  0.18313521  1
  In  In8  1  0.33710402  0.33574198  0.98167893  1
  In  In9  1  0.83684149  0.33403043  0.98240807  1
  In  In10  1  0.33741390  0.33974143  0.48370565  1
  In  In11  1  0.83336690  0.33242684  0.48435351  1
  In  In12  1  0.16406885  0.66433399  0.01724115  1
  In  In13  1  0.66626237  0.67620875  0.52120007  1
  In  In14  1  0.16254690  0.67592679  0.31728825  1
  In  In15  1  0.66600301  0.66447775  0.31130161  1
  In  In16  1  0.16725678  0.67141791  0.80921813  1
  In  In17  1  0.66246785  0.64868356  0.81420617  1
  Si  Si0  1  0.50023556  0.29426541  0.24992212  1
  Si  Si1  1  0.99802134  0.70131627  0.74833680  1
  Si  Si2  1  0.69411297  0.04784066  0.58417472  1
  Si  Si3  1  0.32988978  0.61764501  0.58325965  1
  Si  Si4  1  0.82995818  0.04240878  0.08290873  1
  Si  Si5  1  0.81140479  0.65697758  0.91474564  1
  Si  Si6  1  0.51847756  0.37367713  0.91620068  1
  Si  Si7  1  0.31045753  0.96622275  0.41565342  1
  Si  Si8  1  0.01679747  0.65752571  0.41710984  1
  S  S0  1  0.14367405  0.00244714  0.24745403  1
  S  S1  1  0.64603677  0.00540612  0.25287037  1
  S  S2  1  0.35243009  0.70757085  0.25226024  1
  S  S3  1  0.85739805  0.70906805  0.24792029  1
  S  S4  1  0.00053090  0.28734907  0.25069408  1
  S  S5  1  0.14595731  0.28589831  0.75278465  1
  S  S6  1  0.64340111  0.28617299  0.74829679  1
  S  S7  1  0.50017365  0.71429466  0.75077968  1
  S  S8  1  0.35709003  0.00631839  0.74810452  1
  S  S9  1  0.85286321  0.99786705  0.75282244  1
  S  S10  1  0.48107888  0.32943997  0.58570018  1
  S  S11  1  0.98547409  0.33313625  0.58256102  1
  S  S12  1  0.18400957  0.03562924  0.58219170  1
  S  S13  1  0.83480799  0.63507021  0.58205399  1
  S  S14  1  0.48285311  0.63475991  0.08266420  1
  S  S15  1  0.98258304  0.63257388  0.08583059  1
  S  S16  1  0.33190958  0.03328338  0.08250090  1
  S  S17  1  0.18804221  0.33243761  0.08522428  1
  S  S18  1  0.68410148  0.33294668  0.08203419  1
  S  S19  1  0.31104302  0.66566579  0.91625186  1
  S  S20  1  0.02232337  0.37142755  0.91469193  1
  S  S21  1  0.16510780  0.96159964  0.91567810  1
  S  S22  1  0.66582832  0.95292676  0.91672422  1
  S  S23  1  0.81234964  0.95636198  0.41406854  1
  S  S24  1  0.16663818  0.37869596  0.41695483  1
  S  S25  1  0.66586681  0.37370286  0.41518146  1
  S  S26  1  0.52017986  0.67081898  0.41358035  1
  O  O0  1  0.10688686  0.03211510  0.30025250  1
  O  O1  1  0.59818523  0.02072187  0.30246252  1
  O  O2  1  0.41180555  0.79935485  0.30274517  1
  O  O3  1  0.91062501  0.78440284  0.29974371  1
  O  O4  1  0.48838312  0.16202267  0.30628635  1
  O  O5  1  0.98587034  0.17640788  0.30146045  1
  O  O6  1  0.09749327  0.17391174  0.80328915  1
  O  O7  1  0.60719872  0.18458086  0.80208166  1
  O  O8  1  0.48545492  0.79324215  0.80284692  1
  O  O9  1  0.98602906  0.80844379  0.80638915  1
  O  O10  1  0.40772326  0.03772487  0.80219665  1
  O  O11  1  0.91252485  0.01936160  0.80406073  1
  O  O12  1  0.40217534  0.98844652  0.69807837  1
  O  O13  1  0.89145610  0.97680645  0.69990482  1
  O  O14  1  0.09692465  0.21649237  0.69894133  1
  O  O15  1  0.58651651  0.18882861  0.69858959  1
  O  O16  1  0.01432329  0.81965288  0.69307904  1
  O  O17  1  0.50567561  0.82087410  0.69893431  1
  O  O18  1  0.39045140  0.80556651  0.19856120  1
  O  O19  1  0.90502322  0.82111218  0.19610948  1
  O  O20  1  0.00649069  0.18942660  0.19762796  1
  O  O21  1  0.51307164  0.21178835  0.19207339  1
  O  O22  1  0.08715260  0.98601881  0.19669129  1
  O  O23  1  0.59793972  0.97598680  0.19806127  1
  O  O24  1  0.44219345  0.36219015  0.63665235  1
  O  O25  1  0.95094663  0.36914710  0.63476771  1
  O  O26  1  0.23574237  0.10512707  0.63525995  1
  O  O27  1  0.75102472  0.13171904  0.64134460  1
  O  O28  1  0.30861590  0.50537138  0.64124061  1
  O  O29  1  0.82527970  0.53687906  0.63499619  1
  O  O30  1  0.44513736  0.52759951  0.13485853  1
  O  O31  1  0.94300904  0.52366817  0.13689994  1
  O  O32  1  0.31886359  0.11310964  0.13435513  1
  O  O33  1  0.81180068  0.11222684  0.14168189  1
  O  O34  1  0.24374043  0.36368236  0.13583781  1
  O  O35  1  0.73572081  0.36763039  0.13525097  1
  O  O36  1  0.22138875  0.29126075  0.03311699  1
  O  O37  1  0.72562263  0.30717680  0.03157801  1
  O  O38  1  0.42421055  0.55815998  0.03215286  1
  O  O39  1  0.92878049  0.56948404  0.03412895  1
  O  O40  1  0.34580868  0.14177318  0.03072445  1
  O  O41  1  0.85799095  0.16579301  0.02764291  1
  O  O42  1  0.22538157  0.14342485  0.53133739  1
  O  O43  1  0.72633721  0.16377244  0.52662296  1
  O  O44  1  0.35603250  0.54993125  0.52717947  1
  O  O45  1  0.85244595  0.56007523  0.53061550  1
  O  O46  1  0.42631724  0.28595133  0.53412137  1
  O  O47  1  0.92926739  0.29510615  0.53144974  1
  O  O48  1  0.27351075  0.69600931  0.96929357  1
  O  O49  1  0.76443225  0.68828653  0.97232771  1
  O  O50  1  0.07255403  0.44216993  0.96927240  1
  O  O51  1  0.58156152  0.48178665  0.97282918  1
  O  O52  1  0.14693861  0.85545268  0.96855941  1
  O  O53  1  0.65765085  0.84511786  0.96899150  1
  O  O54  1  0.26364564  0.84034938  0.47214424  1
  O  O55  1  0.77358054  0.84830069  0.46558335  1
  O  O56  1  0.15803777  0.46943504  0.46816887  1
  O  O57  1  0.64863297  0.44562265  0.46706790  1
  O  O58  1  0.08184060  0.67804986  0.47197937  1
  O  O59  1  0.57076584  0.70043715  0.46674845  1
  O  O60  1  0.05182861  0.62264035  0.35713170  1
  O  O61  1  0.56061635  0.64125549  0.36329273  1
  O  O62  1  0.25961177  0.88740214  0.35672345  1
  O  O63  1  0.76126953  0.87391789  0.36113531  1
  O  O64  1  0.17904863  0.47628370  0.36321574  1
  O  O65  1  0.68039727  0.48240680  0.36406545  1
  O  O66  1  0.06526915  0.48771391  0.86601452  1
  O  O67  1  0.55506061  0.48294059  0.85802608  1
  O  O68  1  0.18290766  0.88293293  0.86601322  1
  O  O69  1  0.67789997  0.87837196  0.86406102  1
  O  O70  1  0.25886979  0.64410210  0.86452453  1
  O  O71  1  0.75771599  0.63360905  0.85772582  1
  O  O72  1  0.01464916  0.84076522  0.41845845  1
  O  O73  1  0.51356729  0.83057300  0.40323713  1
  O  O74  1  0.40640702  0.97312629  0.40668374  1
  O  O75  1  0.90068897  0.97893630  0.40935659  1
  O  O76  1  0.08454364  0.20723061  0.41521637  1
  O  O77  1  0.58630646  0.19532289  0.40495180  1
  O  O78  1  0.01524535  0.19974785  0.90508452  1
  O  O79  1  0.51425811  0.18468043  0.91809995  1
  O  O80  1  0.08722950  0.97916203  0.90498911  1
  O  O81  1  0.58421619  0.95996308  0.91563562  1
  O  O82  1  0.39954817  0.81830986  0.91152024  1
  O  O83  1  0.90721687  0.84149206  0.90642118  1
  O  O84  1  0.48953196  0.17181321  0.59775512  1
  O  O85  1  0.99682621  0.17837013  0.58965057  1
  O  O86  1  0.09726515  0.01627055  0.58668750  1
  O  O87  1  0.59464752  0.02560708  0.59885528  1
  O  O88  1  0.41408305  0.81498739  0.59896680  1
  O  O89  1  0.91118811  0.81634273  0.58575595  1
  O  O90  1  0.49351900  0.81174872  0.08977238  1
  O  O91  1  0.99457973  0.81201941  0.09802142  1
  O  O92  1  0.40906472  0.01182630  0.08697373  1
  O  O93  1  0.91561393  0.01357071  0.09885373  1
  O  O94  1  0.09897015  0.17400462  0.09693870  1
  O  O95  1  0.59683203  0.17695077  0.08664123  1
  O  O96  1  0.34558609  0.16146971  0.74200751  1
  O  O97  1  0.85003130  0.16029998  0.75302464  1
  O  O98  1  0.23080740  0.29094236  0.75143618  1
  O  O99  1  0.72963373  0.30485274  0.74318223  1
  O  O100  1  0.42274560  0.53736001  0.74502730  1
  O  O101  1  0.90891629  0.51438892  0.74844247  1
  O  O102  1  0.34643465  0.53466994  0.24933100  1
  O  O103  1  0.84822914  0.53519206  0.23947068  1
  O  O104  1  0.41025306  0.30081935  0.25164964  1
  O  O105  1  0.92350474  0.30718677  0.24328567  1
  O  O106  1  0.22903289  0.16091889  0.24026725  1
  O  O107  1  0.73169462  0.17161820  0.25093764  1
  O  O108  1  0.31536475  0.50381699  0.92222436  1
  O  O109  1  0.82888220  0.49809266  0.92495352  1
  O  O110  1  0.42166061  0.35005723  0.92173040  1
  O  O111  1  0.93494837  0.35000053  0.91951660  1
  O  O112  1  0.23994439  0.13904146  0.92301721  1
  O  O113  1  0.74171536  0.12880653  0.92356359  1
  O  O114  1  0.32877713  0.16104018  0.42480891  1
  O  O115  1  0.81878468  0.12790653  0.41846277  1
  O  O116  1  0.24186025  0.35371474  0.42318174  1
  O  O117  1  0.74072405  0.34789636  0.41963542  1
  O  O118  1  0.43174287  0.51996914  0.41785513  1
  O  O119  1  0.92020055  0.48863464  0.42389180  1
  O  O120  1  0.17378713  0.48041683  0.07685944  1
  O  O121  1  0.67463689  0.49006374  0.07320468  1
  O  O122  1  0.06987541  0.65678696  0.07773495  1
  O  O123  1  0.56771722  0.65100730  0.07195975  1
  O  O124  1  0.25302693  0.85972310  0.07542994  1
  O  O125  1  0.74768793  0.84910803  0.06880998  1
  O  O126  1  0.17444717  0.85870447  0.57362477  1
  O  O127  1  0.67218224  0.85065705  0.57715035  1
  O  O128  1  0.24709260  0.64437555  0.56830873  1
  O  O129  1  0.75492980  0.64308042  0.57477500  1
  O  O130  1  0.07214081  0.48712208  0.57135077  1
  O  O131  1  0.56812597  0.47681398  0.57698781  1
  O  O132  1  0.14851064  0.84336105  0.24926611  1
  O  O133  1  0.66011565  0.85736055  0.25966684  1
  O  O134  1  0.26740630  0.69062014  0.26019652  1
  O  O135  1  0.77419929  0.70237488  0.25075498  1
  O  O136  1  0.08155310  0.45306697  0.25171574  1
  O  O137  1  0.58528445  0.47843300  0.25908522  1
  O  O138  1  0.15955411  0.46146197  0.76033907  1
  O  O139  1  0.64733091  0.45541122  0.74947959  1
  O  O140  1  0.08297912  0.69013681  0.76006255  1
  O  O141  1  0.58067872  0.70901580  0.75323457  1
  O  O142  1  0.27209028  0.84614100  0.75301116  1
  O  O143  1  0.76827672  0.84376000  0.76083888  1
loop_
_geom_bond_atom_site_label_1
_geom_bond_atom_site_label_2
_geom_bond_distance
_geom_bond_site_symmetry_2
Na0 O72 2.386806 1_655
Na0 O89 2.540609 1_555
Na0 O86 2.622442 1_665
Na0 O76 2.645427 1_665
Na0 O75 2.692148 1_555
Na0 O85 2.716295 1_565
Na1 O79 2.329066 1_555
Na1 O81 2.578033 1_545
Na1 O95 2.630875 1_556
Na1 O82 2.650584 1_545
Na1 O92 2.678893 1_556
Na1 O90 2.760290 1_546
Na2 O110 2.432408 1_555
Na2 O100 2.650666 1_555
Na2 O98 2.661704 1_555
Na2 O96 2.684893 1_555
Na2 O108 2.701850 1_555
Na2 O112 2.736544 1_555
Na3 O101 2.372056 1_555
Na3 O109 2.582485 1_555
Na3 O97 2.587675 1_555
Na3 O99 2.658300 1_555
Na3 O111 2.729473 1_555
Na3 O113 2.838415 1_555
Na4 O104 2.414028 1_555
Na4 O114 2.479152 1_555
Na4 O118 2.572362 1_555
Na4 O102 2.712653 1_555
Na4 O116 2.763730 1_555
Na4 O106 2.811922 1_555
Na5 O119 2.360575 1_555
Na5 O115 2.513080 1_555
Na5 O117 2.579306 1_555
Na5 O107 2.735929 1_555
Na5 O105 2.818616 1_555
Na5 O103 2.880599 1_555
In0 O72 2.028167 1_555
In0 O0 2.143665 1_565
In0 O75 2.172839 1_455
In0 O3 2.190879 1_455
In0 O76 2.204162 1_565
In0 O5 2.245777 1_465
In1 O79 2.049830 1_555
In1 O7 2.109251 1_555
In1 O10 2.165021 1_555
In1 O8 2.195323 1_545
In1 O82 2.232583 1_545
In1 O81 2.264963 1_545
In2 O16 1.980007 1_655
In2 O13 2.166750 1_555
In2 O89 2.174654 1_555
In2 O85 2.175839 1_565
In2 O14 2.180216 1_665
In2 O86 2.247401 1_665
In3 O21 1.976452 1_555
In3 O18 2.162612 1_545
In3 O23 2.163350 1_545
In3 O90 2.198845 1_545
In3 O95 2.237302 1_555
In3 O92 2.246470 1_555
In4 O28 1.988624 1_555
In4 O24 2.181287 1_555
In4 O26 2.182858 1_555
In4 O96 2.188514 1_555
In4 O100 2.253500 1_555
In4 O98 2.272390 1_555
In5 O27 1.995256 1_555
In5 O101 2.052047 1_555
In5 O29 2.194588 1_555
In5 O25 2.237461 1_555
In5 O99 2.253670 1_555
In5 O97 2.346581 1_555
In6 O104 2.030882 1_555
In6 O30 2.169403 1_555
In6 O32 2.188106 1_555
In6 O106 2.196886 1_555
In6 O34 2.251189 1_555
In6 O102 2.252319 1_555
In7 O33 1.984619 1_555
In7 O35 2.182198 1_555
In7 O103 2.183981 1_555
In7 O107 2.217189 1_555
In7 O31 2.223922 1_555
In7 O105 2.262825 1_555
In8 O110 2.016266 1_555
In8 O40 2.138116 1_556
In8 O38 2.147528 1_556
In8 O112 2.207509 1_555
In8 O108 2.209117 1_555
In8 O36 2.248505 1_556
In9 O41 2.013685 1_556
In9 O109 2.036026 1_555
In9 O37 2.202382 1_556
In9 O113 2.228399 1_555
In9 O111 2.236214 1_555
In9 O39 2.250646 1_556
In10 O44 2.000785 1_555
In10 O114 2.045233 1_555
In10 O42 2.187897 1_555
In10 O46 2.208502 1_555
In10 O118 2.250026 1_555
In10 O116 2.260589 1_555
In11 O43 2.001069 1_555
In11 O119 2.041320 1_555
In11 O45 2.163360 1_555
In11 O47 2.191733 1_555
In11 O117 2.288879 1_555
In11 O115 2.291751 1_555
In12 O50 2.137203 1_554
In12 O124 2.143135 1_555
In12 O48 2.146223 1_554
In12 O122 2.172519 1_555
In12 O52 2.187828 1_554
In12 O120 2.217080 1_555
In13 O127 1.987457 1_555
In13 O129 2.146024 1_555
In13 O55 2.182279 1_555
In13 O131 2.190111 1_555
In13 O59 2.217376 1_555
In13 O57 2.289608 1_555
In14 O60 2.016183 1_555
In14 O62 2.024998 1_555
In14 O64 2.214824 1_555
In14 O134 2.249633 1_555
In14 O132 2.271689 1_555
In14 O136 2.336379 1_555
In15 O137 1.971643 1_555
In15 O63 2.124878 1_555
In15 O133 2.139797 1_555
In15 O65 2.147717 1_555
In15 O61 2.161969 1_555
In15 O135 2.279858 1_555
In16 O140 1.960340 1_555
In16 O138 2.131151 1_555
In16 O142 2.173984 1_555
In16 O66 2.182237 1_555
In16 O70 2.186089 1_555
In16 O68 2.198922 1_555
In17 O67 2.016353 1_555
In17 O71 2.038457 1_555
In17 O139 2.197743 1_555
In17 O143 2.201573 1_555
In17 O69 2.242485 1_555
In17 O141 2.282508 1_555
O0 S0 1.480571 1_555
O1 S1 1.485114 1_555
O1 Ta0 2.203913 1_555
O2 S2 1.515057 1_555
O2 Ta0 2.085476 1_565
O3 S3 1.470287 1_555
O4 Si0 1.703553 1_555
O4 Ta0 1.852845 1_555
O5 S4 1.477106 1_655
O6 S5 1.504917 1_555
O6 Ta1 2.148399 1_445
O7 S6 1.490417 1_555
O8 S7 1.489808 1_555
O9 Si1 1.728527 1_555
O9 Ta1 1.835983 1_555
O10 S8 1.490357 1_555
O11 S9 1.543500 1_545
O11 Ta1 1.997208 1_545
O12 S8 1.471413 1_565
O12 Ta2 2.204877 1_555
O13 S9 1.470925 1_555
O14 S5 1.473066 1_555
O15 S6 1.493471 1_555
O15 Ta2 2.105348 1_545
O16 Si1 1.594519 1_455
O17 S7 1.507509 1_555
O17 Ta2 2.053027 1_555
O18 S2 1.481629 1_555
O19 S3 1.525504 1_555
O19 Ta3 2.019914 1_565
O20 S4 1.546192 1_555
O20 Ta3 1.998205 1_455
O21 Si0 1.605032 1_555
O22 S0 1.510461 1_565
O22 Ta3 2.077628 1_465
O23 S1 1.484023 1_565
O24 S10 1.477566 1_555
O25 S11 1.470993 1_555
O26 S12 1.477099 1_555
O27 Si2 1.609845 1_555
O28 Si3 1.608217 1_555
O29 S13 1.470815 1_555
O30 S14 1.483096 1_555
O31 S15 1.472945 1_555
O32 S16 1.477931 1_555
O33 Si4 1.602781 1_555
O34 S17 1.473234 1_555
O35 S18 1.479045 1_555
O36 S17 1.478071 1_555
O37 S18 1.469367 1_555
O38 S14 1.489920 1_555
O39 S15 1.462383 1_555
O40 S16 1.485724 1_555
O41 Si4 1.600971 1_555
O42 S12 1.470167 1_555
O43 Si2 1.612175 1_555
O44 Si3 1.603833 1_555
O45 S13 1.480623 1_555
O46 S10 1.470049 1_555
O47 S11 1.479767 1_555
O48 S19 1.494862 1_555
O49 Si5 1.679548 1_555
O49 Ta4 1.871378 1_556
O50 S20 1.497250 1_555
O51 Si6 1.683776 1_555
O51 Ta4 1.916178 1_556
O52 S21 1.485781 1_555
O53 S22 1.510703 1_555
O53 Ta4 2.066649 1_556
O54 Si7 1.658146 1_555
O54 Ta5 1.896663 1_555
O55 S23 1.476106 1_555
O56 S24 1.490895 1_555
O56 Ta5 2.101367 1_555
O57 S25 1.470986 1_555
O58 Si8 1.671023 1_555
O58 Ta5 1.926582 1_555
O59 S26 1.473789 1_555
O60 Si8 1.624460 1_555
O61 S26 1.468989 1_555
O62 Si7 1.597421 1_555
O63 S23 1.486653 1_555
O64 S24 1.475371 1_555
O65 S25 1.472607 1_555
O66 S20 1.466774 1_555
O67 Si6 1.604414 1_555
O68 S21 1.467565 1_555
O69 S22 1.461268 1_555
O70 S19 1.472745 1_555
O71 Si5 1.586509 1_555
O72 Si8 1.649368 1_555
O73 S26 1.502774 1_555
O73 Ta0 2.072896 1_565
O74 Si7 1.696888 1_555
O74 Ta0 1.851960 1_565
O75 S23 1.491189 1_555
O76 S24 1.493473 1_555
O77 S25 1.525139 1_555
O77 Ta0 2.014230 1_555
O78 S20 1.484206 1_555
O78 Ta1 2.149570 1_445
O79 Si6 1.644725 1_555
O80 S21 1.495310 1_555
O80 Ta1 2.070347 1_455
O81 S22 1.489807 1_555
O82 S19 1.482936 1_555
O83 Si5 1.685204 1_555
O83 Ta1 1.867687 1_555
O84 S10 1.509467 1_555
O84 Ta2 1.997723 1_545
O85 S11 1.497449 1_555
O86 S12 1.474116 1_555
O87 Si2 1.720948 1_555
O87 Ta2 1.825988 1_545
O88 Si3 1.679493 1_555
O88 Ta2 1.854728 1_555
O89 S13 1.502499 1_555
O90 S14 1.496534 1_555
O91 S15 1.526188 1_555
O91 Ta3 2.003600 1_565
O92 S16 1.486043 1_555
O93 Si4 1.712628 1_555
O93 Ta3 1.839325 1_555
O94 S17 1.530199 1_555
O94 Ta3 2.027355 1_455
O95 S18 1.481355 1_555
O96 S8 1.500096 1_555
O97 S9 1.470494 1_545
O98 S5 1.493505 1_555
O99 S6 1.468681 1_555
O100 S7 1.489754 1_555
O101 Si1 1.624421 1_555
O102 S2 1.488220 1_555
O103 S3 1.483879 1_555
O104 Si0 1.637396 1_555
O105 S4 1.481441 1_655
O106 S0 1.477058 1_555
O107 S1 1.502098 1_555
O108 S19 1.485993 1_555
O109 Si5 1.610100 1_555
O110 Si6 1.638946 1_555
O111 S20 1.478404 1_655
O112 S21 1.478453 1_545
O113 S22 1.475831 1_545
O114 Si7 1.607570 1_545
O115 S23 1.474675 1_545
O116 S24 1.474058 1_555
O117 S25 1.468741 1_555
O118 S26 1.475404 1_555
O119 Si8 1.629719 1_655
O120 S17 1.473216 1_555
O121 S18 1.503255 1_555
O121 Ta4 2.056704 1_555
O122 S15 1.475235 1_455
O123 S14 1.470324 1_555
O123 Ta4 2.218308 1_555
O124 S16 1.486141 1_565
O125 Si4 1.637603 1_565
O125 Ta4 1.930937 1_555
O126 S12 1.508090 1_565
O126 Ta5 2.037738 1_555
O127 Si2 1.601513 1_565
O128 Si3 1.647127 1_555
O128 Ta5 1.914073 1_555
O129 S13 1.472623 1_555
O130 S11 1.487490 1_455
O130 Ta5 2.125384 1_555
O131 S10 1.459800 1_555
O132 S0 1.460557 1_565
O133 S1 1.467479 1_565
O134 S2 1.460750 1_555
O135 S3 1.458341 1_555
O136 S4 1.457429 1_555
O137 Si0 1.591951 1_555
O138 S5 1.465062 1_555
O139 S6 1.471238 1_555
O140 Si1 1.592017 1_455
O141 S7 1.462573 1_555
O142 S8 1.475012 1_565
O143 S9 1.455116 1_555
