# generated using pymatgen
data_B(HO)3
_symmetry_space_group_name_H-M   'P 1'
_cell_length_a   6.22547028
_cell_length_b   6.89885472
_cell_length_c   6.92950707
_cell_angle_alpha   59.98587283
_cell_angle_beta   76.12880360
_cell_angle_gamma   78.83635011
_symmetry_Int_Tables_number   1
_chemical_formula_structural   B(HO)3
_chemical_formula_sum   'B4 H12 O12'
_cell_volume   249.22501777
_cell_formula_units_Z   4
loop_
 _symmetry_equiv_pos_site_id
 _symmetry_equiv_pos_as_xyz
  1  'x, y, z'
loop_
 _atom_site_type_symbol
 _atom_site_label
 _atom_site_symmetry_multiplicity
 _atom_site_fract_x
 _atom_site_fract_y
 _atom_site_fract_z
 _atom_site_occupancy
  B  B0  1  0.76068653  0.55122048  0.75767064  1
  B  B1  1  0.23931347  0.44877952  0.24232936  1
  B  B2  1  0.26058180  0.77765824  0.57372734  1
  B  B3  1  0.73941820  0.22234176  0.42627266  1
  H  H0  1  0.75872706  0.24336556  0.02417077  1
  H  H1  1  0.25844473  0.04469089  0.61592165  1
  H  H2  1  0.74155527  0.95530911  0.38407835  1
  H  H3  1  0.24858188  0.46981872  0.84300664  1
  H  H4  1  0.24127294  0.75663444  0.97582923  1
  H  H5  1  0.75592477  0.59493276  0.44938156  1
  H  H6  1  0.24407523  0.40506724  0.55061844  1
  H  H7  1  0.74222845  0.82063297  0.80132440  1
  H  H8  1  0.25777155  0.17936703  0.19867560  1
  H  H9  1  0.75017213  0.17951733  0.73219385  1
  H  H10  1  0.24982787  0.82048267  0.26780615  1
  H  H11  1  0.75141812  0.53018128  0.15699336  1
  O  O0  1  0.76980895  0.32214557  0.85711315  1
  O  O1  1  0.75698577  0.67951663  0.53048993  1
  O  O2  1  0.24301423  0.32048337  0.46951007  1
  O  O3  1  0.75216000  0.65374889  0.88537047  1
  O  O4  1  0.24784000  0.34625111  0.11462953  1
  O  O5  1  0.73730019  0.09556656  0.65406064  1
  O  O6  1  0.26269981  0.90443344  0.34593936  1
  O  O7  1  0.74812053  0.45048635  0.32325204  1
  O  O8  1  0.25187947  0.54951365  0.67674796  1
  O  O9  1  0.73575644  0.12181209  0.29989089  1
  O  O10  1  0.26424356  0.87818791  0.70010911  1
  O  O11  1  0.23019105  0.67785443  0.14288685  1
loop_
_geom_bond_atom_site_label_1
_geom_bond_atom_site_label_2
_geom_bond_distance
_geom_bond_site_symmetry_2
B0 O0 1.367527 1_555
B0 O3 1.369413 1_555
B0 O1 1.370302 1_555
B1 O11 1.367527 1_555
B1 O4 1.369413 1_555
B1 O2 1.370302 1_555
B2 O6 1.367482 1_555
B2 O10 1.368141 1_555
B2 O8 1.371214 1_555
B3 O5 1.367482 1_555
B3 O9 1.368141 1_555
B3 O7 1.371214 1_555
H0 O0 0.993499 1_554
H0 O9 1.639094 1_555
H1 O10 0.992340 1_545
H1 O2 1.644209 1_555
H2 O9 0.992340 1_565
H2 O1 1.644209 1_555
H3 O8 0.994663 1_555
H3 O4 1.631439 1_556
H4 O11 0.993499 1_556
H4 O10 1.639094 1_555
H5 O1 0.993894 1_555
H5 O7 1.633938 1_555
H6 O2 0.993894 1_555
H6 O8 1.633938 1_555
H7 O3 0.993689 1_555
H7 O5 1.641941 1_565
H8 O4 0.993689 1_555
H8 O6 1.641941 1_545
H9 O5 0.993718 1_555
H9 O0 1.637649 1_555
H10 O6 0.993718 1_555
H10 O11 1.637649 1_555
H11 O7 0.994663 1_555
H11 O3 1.631439 1_554
