# generated using pymatgen
data_NdCu3(RuO3)4
_symmetry_space_group_name_H-M   'P 1'
_cell_length_a   6.52413483
_cell_length_b   6.52413483
_cell_length_c   6.52413483
_cell_angle_alpha   109.47122063
_cell_angle_beta   109.47122063
_cell_angle_gamma   109.47122063
_symmetry_Int_Tables_number   1
_chemical_formula_structural   NdCu3(RuO3)4
_chemical_formula_sum   'Nd1 Cu3 Ru4 O12'
_cell_volume   213.77006651
_cell_formula_units_Z   1
loop_
 _symmetry_equiv_pos_site_id
 _symmetry_equiv_pos_as_xyz
  1  'x, y, z'
loop_
 _atom_site_type_symbol
 _atom_site_label
 _atom_site_symmetry_multiplicity
 _atom_site_fract_x
 _atom_site_fract_y
 _atom_site_fract_z
 _atom_site_occupancy
  Nd  Nd0  1  0.00000000  0.00000000  0.00000000  1
  Cu  Cu0  1  0.00000000  0.50000000  0.50000000  1
  Cu  Cu1  1  0.50000000  0.50000000  0.00000000  1
  Cu  Cu2  1  0.50000000  0.00000000  0.50000000  1
  Ru  Ru0  1  0.00000000  0.00000000  0.50000000  1
  Ru  Ru1  1  0.00000000  0.50000000  0.00000000  1
  Ru  Ru2  1  0.50000000  0.00000000  0.00000000  1
  Ru  Ru3  1  0.50000000  0.50000000  0.50000000  1
  O  O0  1  0.17007100  0.86545300  0.69538300  1
  O  O1  1  0.82992900  0.13454700  0.30461700  1
  O  O2  1  0.82992900  0.52531200  0.69538300  1
  O  O3  1  0.47468800  0.30461700  0.17007100  1
  O  O4  1  0.30461700  0.17007100  0.47468800  1
  O  O5  1  0.69538300  0.17007100  0.86545300  1
  O  O6  1  0.13454700  0.30461700  0.82992900  1
  O  O7  1  0.69538300  0.82992900  0.52531200  1
  O  O8  1  0.17007100  0.47468800  0.30461700  1
  O  O9  1  0.52531200  0.69538300  0.82992900  1
  O  O10  1  0.30461700  0.82992900  0.13454700  1
  O  O11  1  0.86545300  0.69538300  0.17007100  1
loop_
_geom_bond_atom_site_label_1
_geom_bond_atom_site_label_2
_geom_bond_distance
_geom_bond_site_symmetry_2
Nd0 O3 2.628243 1_555
Nd0 O9 2.628243 1_444
Nd0 O8 2.628243 1_555
Nd0 O2 2.628243 1_444
Nd0 O4 2.628243 1_555
Nd0 O7 2.628243 1_444
Nd0 O6 2.628245 1_554
Nd0 O1 2.628245 1_455
Nd0 O5 2.628245 1_454
Nd0 O0 2.628245 1_544
Nd0 O10 2.628245 1_545
Nd0 O11 2.628245 1_445
Cu0 O1 1.951408 1_455
Cu0 O0 1.951408 1_555
Cu0 O2 1.951413 1_455
Cu0 O8 1.951413 1_555
Cu1 O6 1.951408 1_554
Cu1 O11 1.951408 1_555
Cu1 O9 1.951413 1_554
Cu1 O3 1.951413 1_555
Cu2 O5 1.951408 1_555
Cu2 O10 1.951408 1_545
Cu2 O7 1.951413 1_545
Cu2 O4 1.951413 1_555
O0 Ru2 2.019625 1_566
O0 Ru0 2.019632 1_565
O1 Ru2 2.019625 1_555
O1 Ru0 2.019632 1_655
O2 Ru3 2.019627 1_555
O2 Ru1 2.019627 1_656
O3 Ru3 2.019627 1_555
O3 Ru2 2.019627 1_555
O4 Ru3 2.019627 1_555
O4 Ru0 2.019627 1_555
O5 Ru1 2.019625 1_656
O5 Ru2 2.019632 1_556
O6 Ru0 2.019625 1_555
O6 Ru1 2.019632 1_556
O7 Ru3 2.019627 1_555
O7 Ru0 2.019627 1_665
O8 Ru3 2.019627 1_555
O8 Ru1 2.019627 1_555
O9 Ru2 2.019627 1_566
O9 Ru3 2.019627 1_555
O10 Ru1 2.019625 1_555
O10 Ru2 2.019632 1_565
O11 Ru0 2.019625 1_665
O11 Ru1 2.019632 1_655
