# generated using pymatgen
data_MgMnPb2WO6
_symmetry_space_group_name_H-M   'P 1'
_cell_length_a   6.12354982
_cell_length_b   5.97745087
_cell_length_c   6.12357078
_cell_angle_alpha   60.79215168
_cell_angle_beta   59.04409858
_cell_angle_gamma   60.80383038
_symmetry_Int_Tables_number   1
_chemical_formula_structural   MgMnPb2WO6
_chemical_formula_sum   'Mg1 Mn1 Pb2 W1 O6'
_cell_volume   159.16055149
_cell_formula_units_Z   1
loop_
 _symmetry_equiv_pos_site_id
 _symmetry_equiv_pos_as_xyz
  1  'x, y, z'
loop_
 _atom_site_type_symbol
 _atom_site_label
 _atom_site_symmetry_multiplicity
 _atom_site_fract_x
 _atom_site_fract_y
 _atom_site_fract_z
 _atom_site_occupancy
  Mg  Mg0  1  0.00001900  0.49998900  0.99998300  1
  Mn  Mn0  1  0.50000100  0.50001500  0.49997400  1
  Pb  Pb0  1  0.32704600  0.17311500  0.32641400  1
  Pb  Pb1  1  0.67268900  0.82690600  0.67383600  1
  W  W0  1  0.99996000  0.00002200  0.00003900  1
  O  O0  1  0.76278000  0.25325500  0.23736700  1
  O  O1  1  0.77981800  0.21975400  0.78031400  1
  O  O2  1  0.76268500  0.74756700  0.23744600  1
  O  O3  1  0.23728700  0.74675700  0.76259000  1
  O  O4  1  0.22039000  0.78012800  0.21949200  1
  O  O5  1  0.23732200  0.25249100  0.76254300  1
loop_
_geom_bond_atom_site_label_1
_geom_bond_atom_site_label_2
_geom_bond_distance
_geom_bond_site_symmetry_2
Mg0 O0 2.055273 1_456
Mg0 O3 2.055541 1_555
Mg0 O5 2.059783 1_555
Mg0 O2 2.060223 1_456
Mg0 Pb0 2.883163 1_556
Mg0 Pb1 2.883249 1_455
Mn0 O3 2.165175 1_555
Mn0 O0 2.165222 1_555
Mn0 O5 2.168211 1_555
Mn0 O2 2.168340 1_555
Mn0 O4 2.471222 1_555
Mn0 O1 2.471504 1_555
O0 W0 2.084088 1_555
O0 Pb0 2.672373 1_555
O0 Pb1 2.673899 1_545
O1 W0 1.940765 1_556
O2 W0 2.080088 1_565
O2 Pb0 2.668479 1_565
O2 Pb1 2.671415 1_555
O3 W0 2.084727 1_466
O3 Pb1 2.671122 1_555
O3 Pb0 2.672842 1_565
O4 W0 1.940837 1_465
O5 W0 2.080510 1_456
O5 Pb1 2.667641 1_545
O5 Pb0 2.670630 1_555
