# generated using pymatgen
data_In2CuO4
_symmetry_space_group_name_H-M   'P 1'
_cell_length_a   3.84350600
_cell_length_b   3.84350600
_cell_length_c   6.29110419
_cell_angle_alpha   107.78653239
_cell_angle_beta   107.78653239
_cell_angle_gamma   90.00000000
_symmetry_Int_Tables_number   1
_chemical_formula_structural   In2CuO4
_chemical_formula_sum   'In2 Cu1 O4'
_cell_volume   83.81605890
_cell_formula_units_Z   1
loop_
 _symmetry_equiv_pos_site_id
 _symmetry_equiv_pos_as_xyz
  1  'x, y, z'
loop_
 _atom_site_type_symbol
 _atom_site_label
 _atom_site_symmetry_multiplicity
 _atom_site_fract_x
 _atom_site_fract_y
 _atom_site_fract_z
 _atom_site_occupancy
  In  In0  1  0.34661400  0.34661400  0.69322800  1
  In  In1  1  0.65338600  0.65338600  0.30677200  1
  Cu  Cu0  1  0.00000000  0.00000000  0.00000000  1
  O  O0  1  0.25000000  0.75000000  0.50000000  1
  O  O1  1  0.75000000  0.25000000  0.50000000  1
  O  O2  1  0.00000000  0.50000000  0.00000000  1
  O  O3  1  0.50000000  0.00000000  0.00000000  1
loop_
_geom_bond_atom_site_label_1
_geom_bond_atom_site_label_2
_geom_bond_distance
_geom_bond_site_symmetry_2
In0 O0 2.212483 1_545
In0 O1 2.212483 1_555
In0 O0 2.212483 1_555
In0 O1 2.212483 1_455
In0 O3 2.592811 1_556
In0 O3 2.592811 1_566
In0 O2 2.592811 1_656
In0 O2 2.592811 1_556
In1 O0 2.212483 1_655
In1 O1 2.212483 1_565
In1 O0 2.212483 1_555
In1 O1 2.212483 1_555
In1 O3 2.592811 1_565
In1 O2 2.592811 1_655
In1 O3 2.592811 1_555
In1 O2 2.592811 1_555
Cu0 O2 1.921753 1_555
Cu0 O3 1.921753 1_555
Cu0 O3 1.921753 1_455
Cu0 O2 1.921753 1_545
