# generated using pymatgen
data_Na3Mg2Zr2P3(SO8)3
_symmetry_space_group_name_H-M   'P 1'
_cell_length_a   8.85905522
_cell_length_b   8.84034332
_cell_length_c   23.00347884
_cell_angle_alpha   90.05173387
_cell_angle_beta   89.90360708
_cell_angle_gamma   119.89325242
_symmetry_Int_Tables_number   1
_chemical_formula_structural   Na3Mg2Zr2P3(SO8)3
_chemical_formula_sum   'Na9 Mg6 Zr6 P9 S9 O72'
_cell_volume   1561.87482431
_cell_formula_units_Z   3
loop_
 _symmetry_equiv_pos_site_id
 _symmetry_equiv_pos_as_xyz
  1  'x, y, z'
loop_
 _atom_site_type_symbol
 _atom_site_label
 _atom_site_symmetry_multiplicity
 _atom_site_fract_x
 _atom_site_fract_y
 _atom_site_fract_z
 _atom_site_occupancy
  Na  Na0  1  0.66294534  0.68884879  0.08179082  1
  Na  Na1  1  0.33302541  0.29923237  0.91751929  1
  Na  Na2  1  0.33293273  0.03341647  0.41758698  1
  Na  Na3  1  0.99563740  0.00017019  0.49883155  1
  Na  Na4  1  0.00319489  0.99784732  0.99862444  1
  Na  Na5  1  0.67634764  0.33445312  0.83356118  1
  Na  Na6  1  0.67552681  0.34058860  0.33315969  1
  Na  Na7  1  0.31955457  0.66021743  0.16313805  1
  Na  Na8  1  0.33432809  0.67269919  0.66260881  1
  Mg  Mg0  1  0.99360543  0.99954430  0.34780126  1
  Mg  Mg1  1  0.99341203  0.99444169  0.84759753  1
  Mg  Mg2  1  0.67220101  0.33782325  0.98510536  1
  Mg  Mg3  1  0.66694574  0.33423343  0.48465878  1
  Mg  Mg4  1  0.31908809  0.66069271  0.01988535  1
  Mg  Mg5  1  0.33446179  0.67165681  0.51969023  1
  Zr  Zr0  1  0.00654501  -0.00001134  0.64837782  1
  Zr  Zr1  1  0.01298754  0.00557990  0.14907249  1
  Zr  Zr2  1  0.65955278  0.32407880  0.68691157  1
  Zr  Zr3  1  0.67000856  0.34150411  0.18673801  1
  Zr  Zr4  1  0.33264281  0.66313978  0.31141241  1
  Zr  Zr5  1  0.33274889  0.67013911  0.81109062  1
  P  P0  1  0.29264575  0.00286812  0.25406773  1
  P  P1  1  0.71383223  0.71402590  0.25135961  1
  P  P2  1  0.99665081  0.28628246  0.25239857  1
  P  P3  1  0.28851188  0.28793289  0.75338072  1
  P  P4  1  0.99567614  0.70888532  0.75208431  1
  P  P5  1  0.71511763  0.00091004  0.75175164  1
  P  P6  1  0.37582185  0.03721952  0.57920320  1
  P  P7  1  0.96149946  0.62360270  0.08074532  1
  P  P8  1  0.37601644  0.33626942  0.07917138  1
  S  S0  1  0.96003979  0.33694319  0.58101256  1
  S  S1  1  0.66301624  0.62279332  0.58113788  1
  S  S2  1  0.66357645  0.04045228  0.08115822  1
  S  S3  1  0.62896397  0.66956554  0.91869017  1
  S  S4  1  0.03807746  0.37237282  0.91793768  1
  S  S5  1  0.33381985  0.96078430  0.91860358  1
  S  S6  1  0.62887486  0.95935384  0.41843693  1
  S  S7  1  0.33311376  0.37352578  0.41890328  1
  S  S8  1  0.03809867  0.66480170  0.41848629  1
  O  O0  1  0.21396423  0.02911178  0.30889727  1
  O  O1  1  0.82252877  0.79397965  0.30461333  1
  O  O2  1  0.97117170  0.18002153  0.30607879  1
  O  O3  1  0.21346775  0.18421650  0.80861521  1
  O  O4  1  0.96943659  0.78961630  0.80583169  1
  O  O5  1  0.82111668  0.03013590  0.80577862  1
  O  O6  1  0.79378889  0.97192640  0.69562945  1
  O  O7  1  0.17790414  0.20625067  0.69791077  1
  O  O8  1  0.02796530  0.82023614  0.69622974  1
  O  O9  1  0.78810770  0.81715810  0.19370575  1
  O  O10  1  0.02752008  0.20749055  0.19626541  1
  O  O11  1  0.18021341  0.97146382  0.19848465  1
  O  O12  1  0.87867051  0.36080098  0.63483587  1
  O  O13  1  0.48798313  0.13131022  0.63447154  1
  O  O14  1  0.64265744  0.51928647  0.63493784  1
  O  O15  1  0.87308510  0.51326587  0.13659122  1
  O  O16  1  0.63993199  0.11998699  0.13486100  1
  O  O17  1  0.49040963  0.36054981  0.13420288  1
  O  O18  1  0.45323791  0.30338331  0.02457743  1
  O  O19  1  0.84178872  0.54375848  0.02880175  1
  O  O20  1  0.69273232  0.14857875  0.03008223  1
  O  O21  1  0.45442466  0.14900972  0.52503220  1
  O  O22  1  0.69425202  0.54402012  0.53005488  1
  O  O23  1  0.85128441  0.30891856  0.53000214  1
  O  O24  1  0.54570027  0.69232459  0.97121088  1
  O  O25  1  0.15234507  0.45615895  0.96853172  1
  O  O26  1  0.31050642  0.85123713  0.96940722  1
  O  O27  1  0.54284947  0.85005662  0.46953625  1
  O  O28  1  0.30958340  0.45980637  0.46978649  1
  O  O29  1  0.15228993  0.69444849  0.46901728  1
  O  O30  1  0.12284457  0.64049422  0.36488600  1
  O  O31  1  0.51438833  0.87600943  0.36546278  1
  O  O32  1  0.35714252  0.48170552  0.36542069  1
  O  O33  1  0.12356232  0.48221922  0.86463413  1
  O  O34  1  0.35707409  0.87587252  0.86509620  1
  O  O35  1  0.51303962  0.64040887  0.86642981  1
  O  O36  1  0.02735746  0.82703497  0.41110159  1
  O  O37  1  0.80166300  0.97769825  0.41066479  1
  O  O38  1  0.17839016  0.19636568  0.41190668  1
  O  O39  1  0.02783082  0.19959199  0.91068443  1
  O  O40  1  0.17842489  0.98252795  0.91172211  1
  O  O41  1  0.80166457  0.82409592  0.91076578  1
  O  O42  1  0.97480267  0.17564227  0.58855338  1
  O  O43  1  0.19283165  0.02250961  0.58915010  1
  O  O44  1  0.82155250  0.80055131  0.58849922  1
  O  O45  1  0.96942262  0.80508101  0.08989389  1
  O  O46  1  0.82114842  0.01778296  0.08814914  1
  O  O47  1  0.19200303  0.17366946  0.08842787  1
  O  O48  1  0.68928621  0.16151302  0.74323119  1
  O  O49  1  0.47320827  0.31309817  0.74339369  1
  O  O50  1  0.83761788  0.52506659  0.74180503  1
  O  O51  1  0.68727413  0.52711392  0.24416113  1
  O  O52  1  0.83703728  0.31065737  0.24338675  1
  O  O53  1  0.47501405  0.16139867  0.24327153  1
  O  O54  1  0.63775271  0.50525978  0.92199729  1
  O  O55  1  0.86502682  0.35507212  0.92340486  1
  O  O56  1  0.49116382  0.13750877  0.92238629  1
  O  O57  1  0.63898949  0.13313227  0.42292968  1
  O  O58  1  0.49080008  0.35400010  0.42259487  1
  O  O59  1  0.86492114  0.50877682  0.42405445  1
  O  O60  1  0.36597045  0.50517283  0.07593484  1
  O  O61  1  0.14350539  0.64825878  0.07678441  1
  O  O62  1  0.51127885  0.86226887  0.07561656  1
  O  O63  1  0.35481807  0.85519300  0.57670068  1
  O  O64  1  0.50706612  0.64084671  0.57594297  1
  O  O65  1  0.13553668  0.49028003  0.57581037  1
  O  O66  1  0.31105935  0.83683704  0.25792077  1
  O  O67  1  0.52738929  0.69000044  0.25722570  1
  O  O68  1  0.16117926  0.47216427  0.25713530  1
  O  O69  1  0.31092220  0.47388316  0.75766550  1
  O  O70  1  0.16121563  0.68918148  0.75691899  1
  O  O71  1  0.52819316  0.83862766  0.75727276  1
loop_
_geom_bond_atom_site_label_1
_geom_bond_atom_site_label_2
_geom_bond_distance
_geom_bond_site_symmetry_2
Na0 O60 2.306313 1_555
Na0 O45 2.383871 1_555
Na0 O62 2.496026 1_555
Na0 O46 2.525687 1_565
Na0 O24 2.755208 1_554
Na0 O19 2.767233 1_555
Na0 O17 2.791316 1_555
Na0 O9 2.809711 1_555
Na1 O54 2.390672 1_555
Na1 O39 2.395430 1_555
Na1 O40 2.431066 1_545
Na1 O56 2.452860 1_555
Na1 O18 2.677714 1_556
Na1 O3 2.713380 1_555
Na1 O25 2.840390 1_555
Na1 O35 2.868282 1_555
Na2 O36 2.399411 1_545
Na2 O57 2.400467 1_555
Na2 O38 2.435863 1_555
Na2 O58 2.459741 1_555
Na2 O21 2.686938 1_555
Na2 O0 2.707800 1_555
Na2 O29 2.856619 1_545
Na2 O31 2.859789 1_545
Na3 O37 2.603180 1_545
Na3 O38 2.612305 1_655
Na3 O36 2.629746 1_645
Na3 O42 2.641679 1_555
Na3 O44 2.651475 1_545
Na3 O43 2.659892 1_655
Na4 O40 2.573529 1_555
Na4 O47 2.625944 1_566
Na4 O45 2.626336 1_456
Na4 O41 2.627659 1_455
Na4 O39 2.633960 1_565
Na4 O46 2.672935 1_466
Na5 O55 2.608786 1_555
Na5 O48 2.614640 1_555
Na5 O50 2.632940 1_555
Na5 O54 2.653722 1_555
Na5 O56 2.654389 1_555
Na5 O49 2.692518 1_555
Na6 O52 2.597756 1_555
Na6 O51 2.599140 1_555
Na6 O59 2.630072 1_555
Na6 O58 2.665784 1_555
Na6 O53 2.672445 1_555
Na6 O57 2.673100 1_555
Na7 O61 2.497046 1_555
Na7 O60 2.574054 1_555
Na7 O68 2.660640 1_555
Na7 O62 2.664528 1_555
Na7 O66 2.703302 1_555
Na7 O67 2.770011 1_555
Na8 O63 2.500734 1_555
Na8 O64 2.610334 1_555
Na8 O65 2.619913 1_555
Na8 O70 2.700137 1_555
Na8 O71 2.709054 1_555
Na8 O69 2.748759 1_555
Mg0 O2 1.955932 1_565
Mg0 O1 1.960332 1_555
Mg0 O0 2.041105 1_665
Mg0 O37 2.164439 1_555
Mg0 O36 2.235056 1_655
Mg0 O38 2.246382 1_665
Mg1 O5 1.959687 1_565
Mg1 O4 1.964966 1_555
Mg1 O3 2.038627 1_665
Mg1 O41 2.170401 1_555
Mg1 O39 2.221187 1_665
Mg1 O40 2.248091 1_655
Mg2 O19 1.964013 1_556
Mg2 O18 2.021357 1_556
Mg2 O20 2.051703 1_556
Mg2 O55 2.165285 1_555
Mg2 O54 2.201636 1_555
Mg2 O56 2.227534 1_555
Mg3 O21 2.003096 1_555
Mg3 O22 2.034372 1_555
Mg3 O23 2.043378 1_555
Mg3 O59 2.167641 1_555
Mg3 O58 2.187164 1_555
Mg3 O57 2.189982 1_555
Mg4 O61 1.991931 1_555
Mg4 O25 2.046129 1_554
Mg4 O60 2.073469 1_555
Mg4 O26 2.079194 1_554
Mg4 O62 2.167247 1_555
Mg4 O24 2.189896 1_554
Mg5 O63 2.022442 1_555
Mg5 O27 2.078577 1_555
Mg5 O29 2.082019 1_555
Mg5 O28 2.111732 1_555
Mg5 O64 2.123502 1_555
Mg5 O65 2.126670 1_555
O0 P0 1.512682 1_555
O1 P1 1.500504 1_555
O2 P2 1.499334 1_555
O3 P3 1.512852 1_555
O4 P4 1.501607 1_555
O5 P5 1.501551 1_555
O6 P5 1.546760 1_565
O6 Zr0 2.079198 1_665
O7 P3 1.551461 1_555
O7 Zr0 2.042217 1_555
O8 P4 1.556290 1_455
O8 Zr0 2.019227 1_565
O9 P1 1.557045 1_555
O9 Zr1 2.118055 1_665
O10 P2 1.553825 1_455
O10 Zr1 2.036933 1_555
O11 P0 1.559493 1_565
O11 Zr1 2.007317 1_565
O12 S0 1.498378 1_555
O12 Zr2 2.161783 1_555
O13 P6 1.572920 1_555
O13 Zr2 2.022403 1_555
O14 S1 1.496072 1_555
O14 Zr2 2.166021 1_555
O15 P7 1.566078 1_555
O15 Zr3 2.036221 1_555
O16 S2 1.486170 1_555
O16 Zr3 2.192424 1_555
O17 P8 1.569277 1_555
O17 Zr3 2.072242 1_555
O18 P8 1.524593 1_555
O19 P7 1.518969 1_555
O20 S2 1.454569 1_555
O21 P6 1.525691 1_555
O22 S1 1.460089 1_555
O23 S0 1.460107 1_555
O24 S3 1.479437 1_555
O25 S4 1.477474 1_555
O26 S5 1.465657 1_555
O27 S6 1.470087 1_555
O28 S7 1.466746 1_555
O29 S8 1.477279 1_555
O30 S8 1.512388 1_555
O30 Zr4 2.151624 1_555
O31 S6 1.521242 1_555
O31 Zr4 2.159164 1_555
O32 S7 1.507261 1_555
O32 Zr4 2.124794 1_555
O33 S4 1.511951 1_555
O33 Zr5 2.153720 1_555
O34 S5 1.507495 1_555
O34 Zr5 2.122216 1_555
O35 S3 1.518578 1_555
O35 Zr5 2.160216 1_555
O36 S8 1.493775 1_555
O37 S6 1.467351 1_555
O38 S7 1.489316 1_555
O39 S4 1.493500 1_555
O40 S5 1.490549 1_555
O41 S3 1.468477 1_555
O42 S0 1.505642 1_555
O42 Zr0 2.196508 1_655
O43 P6 1.576696 1_555
O43 Zr0 2.069994 1_555
O44 S1 1.507003 1_555
O44 Zr0 2.194245 1_665
O45 P7 1.584388 1_555
O45 Zr1 2.111718 1_665
O46 S2 1.514705 1_555
O46 Zr1 2.248351 1_655
O47 P8 1.559722 1_555
O47 Zr1 2.077651 1_555
O48 P5 1.559194 1_555
O48 Zr2 2.048179 1_555
O49 P3 1.554197 1_555
O49 Zr2 2.063032 1_555
O50 P4 1.545844 1_555
O50 Zr2 2.109223 1_555
O51 P1 1.557310 1_555
O51 Zr3 2.051160 1_555
O52 P2 1.547144 1_555
O52 Zr3 2.090785 1_555
O53 P0 1.542189 1_555
O53 Zr3 2.113064 1_555
O54 S3 1.494861 1_555
O55 S4 1.468049 1_655
O56 S5 1.490250 1_545
O57 S6 1.497110 1_545
O58 S7 1.493071 1_555
O59 S8 1.470718 1_655
O60 P8 1.541326 1_555
O61 P7 1.518180 1_455
O62 S2 1.483133 1_565
O63 P6 1.526040 1_565
O64 S1 1.472706 1_555
O65 S0 1.472410 1_455
O66 P0 1.558128 1_565
O66 Zr4 2.050716 1_555
O67 P1 1.562397 1_555
O67 Zr4 2.042451 1_555
O68 P2 1.565074 1_455
O68 Zr4 2.040328 1_555
O69 P3 1.557525 1_555
O69 Zr5 2.054365 1_555
O70 P4 1.564804 1_455
O70 Zr5 2.037691 1_555
O71 P5 1.564649 1_565
O71 Zr5 2.043188 1_555
