# generated using pymatgen
data_Na18Ta16Zn8Si21(S5O48)3
_symmetry_space_group_name_H-M   'P 1'
_cell_length_a   17.81693460
_cell_length_b   8.91629533
_cell_length_c   22.82509773
_cell_angle_alpha   89.97582020
_cell_angle_beta   89.52348578
_cell_angle_gamma   120.11522709
_symmetry_Int_Tables_number   1
_chemical_formula_structural   Na18Ta16Zn8Si21(S5O48)3
_chemical_formula_sum   'Na18 Ta16 Zn8 Si21 S15 O144'
_cell_volume   3136.41937312
_cell_formula_units_Z   1
loop_
 _symmetry_equiv_pos_site_id
 _symmetry_equiv_pos_as_xyz
  1  'x, y, z'
loop_
 _atom_site_type_symbol
 _atom_site_label
 _atom_site_symmetry_multiplicity
 _atom_site_fract_x
 _atom_site_fract_y
 _atom_site_fract_z
 _atom_site_occupancy
  Na  Na0  1  0.32006407  0.01815209  0.24223253  1
  Na  Na1  1  0.81738301  0.01652067  0.24304756  1
  Na  Na2  1  0.99603658  0.63419650  0.24321624  1
  Na  Na3  1  0.32497664  0.62095777  0.74610036  1
  Na  Na4  1  0.81812599  0.61965049  0.74401445  1
  Na  Na5  1  0.49367261  0.36087056  0.74242251  1
  Na  Na6  1  0.99157703  0.98657095  0.49097074  1
  Na  Na7  1  0.49195608  0.99055285  0.49291203  1
  Na  Na8  1  0.99189273  0.99435265  0.98774357  1
  Na  Na9  1  0.49204668  0.99644788  0.98785901  1
  Na  Na10  1  0.32831571  0.33786329  0.82569576  1
  Na  Na11  1  0.82665273  0.32338075  0.82699707  1
  Na  Na12  1  0.32944122  0.33249910  0.32939221  1
  Na  Na13  1  0.81917186  0.31670539  0.33221014  1
  Na  Na14  1  0.16824482  0.67252860  0.16075315  1
  Na  Na15  1  0.65837660  0.66756107  0.16231141  1
  Na  Na16  1  0.16115690  0.65212988  0.66440919  1
  Na  Na17  1  0.66360686  0.66317853  0.66429631  1
  Ta  Ta0  1  0.00003949  0.01067915  0.64366698  1
  Ta  Ta1  1  0.50177758  0.99945207  0.64581158  1
  Ta  Ta2  1  0.00090754  0.99088295  0.14182943  1
  Ta  Ta3  1  0.50034795  0.98939548  0.14302852  1
  Ta  Ta4  1  0.34436030  0.34531191  0.97739673  1
  Ta  Ta5  1  0.84277908  0.34465114  0.97778873  1
  Ta  Ta6  1  0.34390280  0.34089067  0.48003080  1
  Ta  Ta7  1  0.84316433  0.34029435  0.47884397  1
  Ta  Ta8  1  0.16858214  0.66955328  0.01944508  1
  Ta  Ta9  1  0.66877909  0.66791250  0.01891662  1
  Ta  Ta10  1  0.16906026  0.67237563  0.52098429  1
  Ta  Ta11  1  0.66865890  0.66979321  0.52080550  1
  Ta  Ta12  1  0.16668458  0.67920815  0.31500128  1
  Ta  Ta13  1  0.66114663  0.67692706  0.31402447  1
  Ta  Ta14  1  0.16302722  0.64615491  0.81303030  1
  Ta  Ta15  1  0.66249786  0.65090139  0.81138269  1
  Zn  Zn0  1  0.00206379  0.99147491  0.35891662  1
  Zn  Zn1  1  0.50256848  0.99047686  0.35792231  1
  Zn  Zn2  1  0.00014070  0.01236744  0.85748405  1
  Zn  Zn3  1  0.50115673  0.99765483  0.85422980  1
  Zn  Zn4  1  0.33935654  0.36294611  0.68357161  1
  Zn  Zn5  1  0.83215538  0.34393085  0.67995022  1
  Zn  Zn6  1  0.33299982  0.32013250  0.17946733  1
  Zn  Zn7  1  0.82704062  0.31499289  0.17762684  1
  Si  Si0  1  0.14747840  0.01716984  0.25275576  1
  Si  Si1  1  0.64658502  0.01593371  0.25267796  1
  Si  Si2  1  0.14488535  0.27478287  0.75312744  1
  Si  Si3  1  0.64833993  0.27692596  0.75228265  1
  Si  Si4  1  0.50165984  0.71505230  0.75411805  1
  Si  Si5  1  0.47966997  0.33167116  0.58747421  1
  Si  Si6  1  0.97774093  0.33937326  0.58671252  1
  Si  Si7  1  0.33391663  0.62503807  0.58494982  1
  Si  Si8  1  0.83371299  0.62289120  0.58559456  1
  Si  Si9  1  0.47803123  0.61459522  0.08626774  1
  Si  Si10  1  0.97780291  0.61339740  0.08761932  1
  Si  Si11  1  0.33292549  0.04398908  0.08579474  1
  Si  Si12  1  0.83245212  0.04214572  0.08518960  1
  Si  Si13  1  0.31459411  0.66722246  0.91663104  1
  Si  Si14  1  0.81469945  0.66920507  0.91482611  1
  Si  Si15  1  0.02311597  0.37174901  0.91878190  1
  Si  Si16  1  0.52403899  0.36784763  0.91718558  1
  Si  Si17  1  0.31632751  0.96590440  0.41707213  1
  Si  Si18  1  0.81441191  0.96162523  0.41599897  1
  Si  Si19  1  0.02259526  0.67243223  0.41835174  1
  Si  Si20  1  0.52184784  0.67441987  0.41964991  1
  S  S0  1  0.35458414  0.70586101  0.25053185  1
  S  S1  1  0.85339005  0.70791207  0.24996905  1
  S  S2  1  0.00366130  0.28980564  0.25157391  1
  S  S3  1  0.50332504  0.29008441  0.25167744  1
  S  S4  1  0.00343279  0.71676432  0.75175992  1
  S  S5  1  0.35231651  0.99786843  0.75028669  1
  S  S6  1  0.85582313  0.00392083  0.75059902  1
  S  S7  1  0.18851829  0.04470930  0.58416532  1
  S  S8  1  0.68863890  0.04404089  0.58289581  1
  S  S9  1  0.18825144  0.33431770  0.08400738  1
  S  S10  1  0.68746498  0.33355253  0.08341216  1
  S  S11  1  0.16866442  0.95539029  0.91696437  1
  S  S12  1  0.66910550  0.95637449  0.91787197  1
  S  S13  1  0.16832108  0.38266930  0.41758881  1
  S  S14  1  0.66840482  0.38345141  0.41715743  1
  O  O0  1  0.09603343  0.02210902  0.30841015  1
  O  O1  1  0.59953003  0.03016703  0.30923952  1
  O  O2  1  0.40333202  0.78862687  0.30283240  1
  O  O3  1  0.90501232  0.78869857  0.30165755  1
  O  O4  1  0.48884640  0.18344542  0.30365085  1
  O  O5  1  0.98929465  0.18380090  0.30341597  1
  O  O6  1  0.09673931  0.16789820  0.80971835  1
  O  O7  1  0.60065142  0.17867687  0.81015679  1
  O  O8  1  0.47605778  0.79406397  0.80776768  1
  O  O9  1  0.98889901  0.79389036  0.80366790  1
  O  O10  1  0.40314218  0.02593636  0.80261797  1
  O  O11  1  0.90519817  0.02177986  0.80265394  1
  O  O12  1  0.39349949  0.96266804  0.69671185  1
  O  O13  1  0.89784420  0.96958849  0.69609868  1
  O  O14  1  0.08227263  0.18666093  0.69329172  1
  O  O15  1  0.58352754  0.19612434  0.69294662  1
  O  O16  1  0.01406538  0.82183925  0.69713070  1
  O  O17  1  0.51309812  0.83471598  0.69323148  1
  O  O18  1  0.39558506  0.82455467  0.19646354  1
  O  O19  1  0.89553185  0.82488916  0.19594884  1
  O  O20  1  0.01309774  0.20631677  0.19704324  1
  O  O21  1  0.51410721  0.20704767  0.19718951  1
  O  O22  1  0.08237929  0.97386320  0.19347762  1
  O  O23  1  0.58448640  0.98177938  0.19298487  1
  O  O24  1  0.44123922  0.36146219  0.64631611  1
  O  O25  1  0.93636210  0.36531934  0.64405344  1
  O  O26  1  0.23866211  0.11272435  0.63649697  1
  O  O27  1  0.73757537  0.10987732  0.63619026  1
  O  O28  1  0.30868937  0.51997818  0.64493072  1
  O  O29  1  0.81101817  0.52192095  0.64635662  1
  O  O30  1  0.43687535  0.50903777  0.14450955  1
  O  O31  1  0.93901133  0.51661485  0.14854337  1
  O  O32  1  0.30985318  0.09762973  0.14703984  1
  O  O33  1  0.81247640  0.09974333  0.14676459  1
  O  O34  1  0.23686121  0.36436871  0.13727074  1
  O  O35  1  0.73744467  0.36672281  0.13681639  1
  O  O36  1  0.22571066  0.30285862  0.03086730  1
  O  O37  1  0.72626182  0.30322559  0.03077837  1
  O  O38  1  0.41701552  0.53134223  0.02683741  1
  O  O39  1  0.91537927  0.52648019  0.02947070  1
  O  O40  1  0.34418481  0.16958547  0.02880765  1
  O  O41  1  0.84446056  0.16881388  0.02851753  1
  O  O42  1  0.22669908  0.14935644  0.53005146  1
  O  O43  1  0.72983916  0.15023013  0.52962846  1
  O  O44  1  0.34390657  0.51972128  0.52739378  1
  O  O45  1  0.84482226  0.51919105  0.52799924  1
  O  O46  1  0.41698246  0.30318417  0.52834068  1
  O  O47  1  0.91725373  0.30206484  0.52656595  1
  O  O48  1  0.25828907  0.68008821  0.97228379  1
  O  O49  1  0.76155792  0.68683881  0.97159584  1
  O  O50  1  0.08060339  0.48652646  0.97395984  1
  O  O51  1  0.58224998  0.48529978  0.97238007  1
  O  O52  1  0.16061249  0.84889160  0.97087961  1
  O  O53  1  0.66166335  0.84995574  0.97144125  1
  O  O54  1  0.26136154  0.83712492  0.47165520  1
  O  O55  1  0.76136023  0.83622238  0.47157766  1
  O  O56  1  0.16021316  0.47261162  0.47026686  1
  O  O57  1  0.66076731  0.47313329  0.47029901  1
  O  O58  1  0.08227523  0.67591458  0.47206722  1
  O  O59  1  0.58215840  0.67772192  0.47300359  1
  O  O60  1  0.06716744  0.63540177  0.35798956  1
  O  O61  1  0.56672834  0.63598218  0.35995348  1
  O  O62  1  0.25158621  0.86259737  0.35814403  1
  O  O63  1  0.75050260  0.85895867  0.35728952  1
  O  O64  1  0.18136864  0.49340018  0.36353364  1
  O  O65  1  0.68204825  0.49314405  0.36349879  1
  O  O66  1  0.06762521  0.50015402  0.86019898  1
  O  O67  1  0.56701683  0.49646786  0.85812289  1
  O  O68  1  0.18240986  0.87349147  0.86402788  1
  O  O69  1  0.68365279  0.87598374  0.86491026  1
  O  O70  1  0.25040137  0.64141226  0.85838407  1
  O  O71  1  0.75283043  0.64549226  0.85709576  1
  O  O72  1  0.01337362  0.83881145  0.41752729  1
  O  O73  1  0.51304797  0.84112462  0.41853551  1
  O  O74  1  0.40987811  0.99079328  0.40918097  1
  O  O75  1  0.90912786  0.98995810  0.40903025  1
  O  O76  1  0.09001600  0.21592313  0.41420259  1
  O  O77  1  0.59014671  0.21584532  0.41451645  1
  O  O78  1  0.01350344  0.18691943  0.91864522  1
  O  O79  1  0.51378369  0.18306709  0.91544980  1
  O  O80  1  0.09043274  0.96581048  0.91533267  1
  O  O81  1  0.59199108  0.96929508  0.91683235  1
  O  O82  1  0.40721792  0.83277581  0.91491317  1
  O  O83  1  0.91028853  0.82911107  0.91035434  1
  O  O84  1  0.49079222  0.15957285  0.58992267  1
  O  O85  1  0.98894555  0.16344810  0.59100097  1
  O  O86  1  0.09820886  0.01972620  0.58956937  1
  O  O87  1  0.60015151  0.02532531  0.58679803  1
  O  O88  1  0.42182043  0.81823881  0.58990785  1
  O  O89  1  0.92283265  0.81603808  0.59222598  1
  O  O90  1  0.48912313  0.81401060  0.09169143  1
  O  O91  1  0.98856276  0.81278318  0.09143743  1
  O  O92  1  0.42222428  0.02909114  0.09382864  1
  O  O93  1  0.92234494  0.02815966  0.09329043  1
  O  O94  1  0.09756027  0.17617620  0.09055962  1
  O  O95  1  0.59782281  0.17693497  0.09001701  1
  O  O96  1  0.33908261  0.14443033  0.74010732  1
  O  O97  1  0.84309631  0.15060887  0.74138177  1
  O  O98  1  0.24356350  0.32038817  0.74598522  1
  O  O99  1  0.74792247  0.32206677  0.74572047  1
  O  O100  1  0.42443084  0.51486104  0.74811038  1
  O  O101  1  0.92971027  0.53901401  0.74584011  1
  O  O102  1  0.34116366  0.53354450  0.24165870  1
  O  O103  1  0.84391961  0.53648582  0.24156791  1
  O  O104  1  0.42973704  0.32054847  0.24602432  1
  O  O105  1  0.93048944  0.32371946  0.24680009  1
  O  O106  1  0.24711274  0.16926084  0.24687442  1
  O  O107  1  0.74687530  0.16986602  0.24623939  1
  O  O108  1  0.31069972  0.47826270  0.92627801  1
  O  O109  1  0.81212904  0.48153578  0.92674571  1
  O  O110  1  0.42864674  0.36267606  0.92342166  1
  O  O111  1  0.92759895  0.36453369  0.92332901  1
  O  O112  1  0.24843331  0.12837917  0.92394760  1
  O  O113  1  0.74961208  0.13021515  0.92473541  1
  O  O114  1  0.31109475  0.14446265  0.42551501  1
  O  O115  1  0.81106407  0.14307787  0.42476984  1
  O  O116  1  0.24805896  0.36960286  0.42227773  1
  O  O117  1  0.74831743  0.36960855  0.42272317  1
  O  O118  1  0.42684296  0.49030355  0.42316234  1
  O  O119  1  0.92706844  0.48950991  0.42219734  1
  O  O120  1  0.17370850  0.48545438  0.07574959  1
  O  O121  1  0.67428447  0.48600249  0.07511821  1
  O  O122  1  0.07533392  0.64770136  0.07495477  1
  O  O123  1  0.57606840  0.64983525  0.07332180  1
  O  O124  1  0.25210754  0.84658984  0.07200981  1
  O  O125  1  0.75197857  0.84541057  0.07207203  1
  O  O126  1  0.17442620  0.86354916  0.57502711  1
  O  O127  1  0.67500499  0.86366968  0.57450874  1
  O  O128  1  0.25177621  0.65641030  0.57032296  1
  O  O129  1  0.75282101  0.65734341  0.57099348  1
  O  O130  1  0.07555765  0.50161863  0.57283171  1
  O  O131  1  0.57599104  0.50115293  0.57247387  1
  O  O132  1  0.15246688  0.82240887  0.25674411  1
  O  O133  1  0.65482287  0.82679782  0.25671391  1
  O  O134  1  0.26577595  0.69779661  0.25376685  1
  O  O135  1  0.76564318  0.69577330  0.25322290  1
  O  O136  1  0.08656984  0.46773445  0.25476225  1
  O  O137  1  0.58743746  0.46566480  0.25597863  1
  O  O138  1  0.15292011  0.48067070  0.75707290  1
  O  O139  1  0.65564896  0.48259969  0.75586410  1
  O  O140  1  0.08752882  0.71007707  0.75595360  1
  O  O141  1  0.59435388  0.70740126  0.75805667  1
  O  O142  1  0.26433924  0.83066580  0.75473313  1
  O  O143  1  0.76907079  0.83518602  0.75288731  1
loop_
_geom_bond_atom_site_label_1
_geom_bond_atom_site_label_2
_geom_bond_distance
_geom_bond_site_symmetry_2
Na0 O106 2.295881 1_555
Na0 O32 2.321832 1_555
Na0 O104 2.410732 1_555
Na0 O134 2.527151 1_545
Na0 O132 2.612608 1_545
Na0 O18 2.861891 1_545
Na0 O62 2.942288 1_545
Na0 O4 2.967314 1_555
Na1 O107 2.274865 1_555
Na1 O33 2.335578 1_555
Na1 O105 2.456620 1_555
Na1 O133 2.532897 1_545
Na1 O135 2.536332 1_545
Na2 O103 2.395457 1_555
Na2 O31 2.402190 1_555
Na2 O105 2.405842 1_555
Na2 O132 2.449651 1_655
Na2 O136 2.698776 1_655
Na2 O22 2.849642 1_655
Na2 O60 2.917314 1_655
Na2 O3 2.918002 1_555
Na3 O98 2.320654 1_555
Na3 O100 2.391713 1_555
Na3 O28 2.444998 1_555
Na3 O142 2.593484 1_555
Na3 O138 2.676542 1_555
Na3 O8 2.739527 1_555
Na3 O12 2.878503 1_555
Na3 O70 2.924726 1_555
Na4 O99 2.296736 1_555
Na4 O29 2.374786 1_555
Na4 O101 2.430410 1_555
Na4 O143 2.486170 1_555
Na4 O139 2.526548 1_555
Na4 O71 2.878905 1_555
Na4 O13 2.910846 1_555
Na4 O9 2.975318 1_555
Na5 O100 2.263020 1_555
Na5 O24 2.392453 1_555
Na5 O96 2.445806 1_555
Na5 O139 2.544113 1_555
Na5 O141 2.709540 1_555
Na5 O15 2.885694 1_555
Na5 O10 2.921276 1_555
Na5 O67 2.935690 1_555
Na6 O72 2.280603 1_655
Na6 O75 2.397298 1_555
Na6 O76 2.583619 1_665
Na6 O89 2.689745 1_555
Na6 O85 2.788883 1_565
Na6 O86 2.875721 1_665
Na7 O73 2.300459 1_555
Na7 O74 2.416765 1_555
Na7 O77 2.591539 1_565
Na7 O88 2.616888 1_555
Na7 O84 2.684774 1_565
Na7 O87 2.806062 1_565
Na8 O78 2.215396 1_665
Na8 O83 2.302218 1_555
Na8 O80 2.505859 1_655
Na8 O93 2.784946 1_566
Na8 O91 2.850323 1_556
Na8 O94 2.948563 1_666
Na9 O79 2.233979 1_565
Na9 O82 2.239820 1_555
Na9 O81 2.498540 1_555
Na9 O92 2.792243 1_566
Na9 O90 2.859239 1_556
Na9 O95 2.934535 1_566
Na10 O98 2.329057 1_555
Na10 O100 2.407170 1_555
Na10 O96 2.675152 1_555
Na10 O108 2.705740 1_555
Na10 O112 2.796326 1_555
Na10 O110 2.808897 1_555
Na11 O99 2.331560 1_555
Na11 O97 2.593000 1_555
Na11 O101 2.626283 1_555
Na11 O113 2.720449 1_555
Na11 O109 2.756498 1_555
Na11 O111 2.758316 1_555
Na12 O106 2.392364 1_555
Na12 O102 2.623241 1_555
Na12 O104 2.638225 1_555
Na12 O116 2.671635 1_555
Na12 O114 2.677033 1_555
Na12 O118 2.680737 1_555
Na13 O107 2.361321 1_555
Na13 O117 2.576703 1_555
Na13 O115 2.578509 1_555
Na13 O119 2.717427 1_555
Na13 O103 2.725677 1_555
Na13 O105 2.747577 1_555
Na14 O122 2.512177 1_555
Na14 O124 2.522729 1_555
Na14 O120 2.592044 1_555
Na14 O132 2.652288 1_555
Na14 O134 2.691953 1_555
Na14 O136 2.708231 1_555
Na15 O123 2.473568 1_555
Na15 O133 2.598711 1_555
Na15 O125 2.612402 1_555
Na15 O137 2.660375 1_555
Na15 O121 2.667503 1_555
Na15 O135 2.757841 1_555
Na16 O130 2.549062 1_555
Na16 O138 2.568881 1_555
Na16 O140 2.643740 1_555
Na16 O128 2.664686 1_555
Na16 O142 2.700612 1_555
Na16 O126 2.704284 1_555
Na17 O141 2.588998 1_555
Na17 O131 2.590458 1_555
Na17 O139 2.596909 1_555
Na17 O127 2.657567 1_555
Na17 O129 2.662979 1_555
Na17 O143 2.673160 1_555
O0 Si0 1.573840 1_555
O0 Zn0 1.927546 1_545
O1 Si1 1.573093 1_555
O1 Zn1 1.923195 1_545
O2 S0 1.448735 1_555
O2 Zn1 2.189082 1_555
O3 S1 1.452812 1_555
O3 Zn0 2.206664 1_655
O4 S3 1.457992 1_555
O4 Zn1 2.231586 1_545
O5 S2 1.452689 1_655
O5 Zn0 2.234206 1_645
O6 Si2 1.572491 1_555
O6 Zn2 1.909549 1_555
O7 Si3 1.570915 1_555
O7 Zn3 1.964015 1_545
O8 Si4 1.586768 1_555
O8 Zn3 1.953149 1_555
O9 S4 1.455333 1_655
O9 Zn2 2.226723 1_665
O10 S5 1.449222 1_545
O10 Zn3 2.230890 1_545
O11 S6 1.444973 1_555
O11 Zn2 2.147637 1_655
O12 S5 1.532567 1_555
O12 Ta1 2.122869 1_555
O13 S6 1.554519 1_565
O13 Ta0 2.043468 1_665
O14 Si2 1.695231 1_555
O14 Ta0 1.901015 1_555
O15 Si3 1.696696 1_555
O15 Ta1 1.954136 1_545
O16 S4 1.511760 1_555
O16 Ta0 2.193675 1_565
O17 Si4 1.699162 1_555
O17 Ta1 1.915529 1_555
O18 S0 1.544281 1_555
O18 Ta3 2.083142 1_555
O19 S1 1.539352 1_555
O19 Ta2 2.100672 1_655
O20 S2 1.501502 1_555
O20 Ta2 2.216556 1_545
O21 S3 1.507105 1_555
O21 Ta3 2.210012 1_545
O22 Si0 1.703584 1_565
O22 Ta2 1.941446 1_555
O23 Si1 1.691331 1_565
O23 Ta3 1.919008 1_555
O24 Si5 1.584536 1_555
O24 Zn4 2.004198 1_555
O25 Si6 1.570157 1_555
O25 Zn5 1.942701 1_555
O26 S7 1.437845 1_555
O26 Zn4 2.316954 1_555
O27 S8 1.445404 1_555
O27 Zn5 2.166392 1_555
O28 Si7 1.587465 1_555
O28 Zn4 1.952310 1_555
O29 Si8 1.588023 1_555
O29 Zn5 1.962628 1_555
O30 Si9 1.575098 1_555
O30 Zn6 1.935222 1_555
O31 Si10 1.593932 1_555
O31 Zn7 2.007603 1_555
O32 Si11 1.593809 1_555
O32 Zn6 1.959356 1_555
O33 Si12 1.594183 1_555
O33 Zn7 1.936860 1_555
O34 S9 1.443894 1_555
O34 Zn6 2.173085 1_555
O35 S10 1.456148 1_555
O35 Zn7 2.095689 1_555
O36 S9 1.473088 1_555
O36 Ta4 2.292472 1_554
O37 S10 1.472498 1_555
O37 Ta5 2.257742 1_554
O38 Si9 1.669890 1_555
O38 Ta4 1.889898 1_554
O39 Si10 1.661221 1_555
O39 Ta5 1.901516 1_554
O40 Si11 1.659888 1_555
O40 Ta4 1.955873 1_554
O41 Si12 1.657192 1_555
O41 Ta5 1.961080 1_554
O42 S7 1.485627 1_555
O42 Ta6 2.227274 1_555
O43 S8 1.483340 1_555
O43 Ta7 2.195024 1_555
O44 Si7 1.674577 1_555
O44 Ta6 1.926785 1_555
O45 Si8 1.674118 1_555
O45 Ta7 1.938765 1_555
O46 Si5 1.695415 1_555
O46 Ta6 1.867385 1_555
O47 Si6 1.679898 1_555
O47 Ta7 1.876253 1_555
O48 Si13 1.651531 1_555
O48 Ta8 1.882234 1_556
O49 Si14 1.652080 1_555
O49 Ta9 1.902063 1_556
O50 Si15 1.628894 1_555
O50 Ta8 1.913026 1_556
O51 Si16 1.640868 1_555
O51 Ta9 1.914663 1_556
O52 S11 1.515280 1_555
O52 Ta8 2.008690 1_556
O53 S12 1.510974 1_555
O53 Ta9 2.008046 1_556
O54 Si17 1.637006 1_555
O54 Ta10 1.916689 1_555
O55 Si18 1.634402 1_555
O55 Ta11 1.923748 1_555
O56 S13 1.491273 1_555
O56 Ta10 2.064099 1_555
O57 S14 1.495481 1_555
O57 Ta11 2.044611 1_555
O58 Si19 1.619695 1_555
O58 Ta10 1.927736 1_555
O59 Si20 1.621301 1_555
O59 Ta11 1.925594 1_555
O60 Si19 1.698008 1_555
O60 Ta12 1.880149 1_555
O61 Si20 1.694333 1_555
O61 Ta13 1.848321 1_555
O62 Si17 1.717202 1_555
O62 Ta12 1.864324 1_555
O63 Si18 1.706079 1_555
O63 Ta13 1.891733 1_555
O64 S13 1.521514 1_555
O64 Ta12 2.116248 1_555
O65 S14 1.507044 1_555
O65 Ta13 2.171848 1_555
O66 Si15 1.672618 1_555
O66 Ta14 1.868405 1_555
O67 Si16 1.679063 1_555
O67 Ta15 1.883129 1_555
O68 S11 1.492796 1_555
O68 Ta14 2.211149 1_555
O69 S12 1.491391 1_555
O69 Ta15 2.216553 1_555
O70 Si13 1.700009 1_555
O70 Ta14 1.894651 1_555
O71 Si14 1.669329 1_555
O71 Ta15 1.946055 1_555
O72 Si19 1.572481 1_555
O72 Zn0 1.990310 1_555
O73 Si20 1.571137 1_555
O73 Zn1 1.993622 1_555
O74 Si17 1.575963 1_555
O74 Zn1 2.017108 1_555
O75 Si18 1.582605 1_555
O75 Zn0 1.999092 1_655
O76 S13 1.443362 1_555
O76 Zn0 2.222855 1_545
O77 S14 1.446230 1_555
O77 Zn1 2.242907 1_545
O78 Si15 1.569081 1_555
O78 Zn2 2.015764 1_555
O79 Si16 1.564446 1_555
O79 Zn3 2.090504 1_545
O80 S11 1.443484 1_555
O80 Zn2 2.282276 1_565
O81 S12 1.435593 1_555
O81 Zn3 2.274582 1_555
O82 Si13 1.567885 1_555
O82 Zn3 2.090847 1_555
O83 Si14 1.582434 1_555
O83 Zn2 2.007557 1_665
O84 Si5 1.643858 1_555
O84 Ta1 1.996734 1_545
O85 Si6 1.680586 1_555
O85 Ta0 1.900601 1_655
O86 S7 1.513552 1_555
O86 Ta0 2.100685 1_555
O87 S8 1.501670 1_555
O87 Ta1 2.119989 1_545
O88 Si7 1.651955 1_555
O88 Ta1 1.997620 1_555
O89 Si8 1.664378 1_555
O89 Ta0 1.978817 1_665
O90 Si9 1.692281 1_555
O90 Ta3 1.884166 1_555
O91 Si10 1.692119 1_555
O91 Ta2 1.883697 1_655
O92 Si11 1.673189 1_555
O92 Ta3 1.960579 1_545
O93 Si12 1.679356 1_555
O93 Ta2 1.946677 1_645
O94 S9 1.526756 1_555
O94 Ta2 2.043123 1_545
O95 S10 1.510429 1_555
O95 Ta3 2.079788 1_545
O96 S5 1.458468 1_545
O96 Zn4 2.334426 1_555
O97 S6 1.450684 1_555
O97 Zn5 2.305427 1_555
O98 Si2 1.600238 1_555
O98 Zn4 2.096576 1_555
O99 Si3 1.615964 1_555
O99 Zn5 2.052474 1_555
O100 Si4 1.623867 1_555
O100 Zn4 2.069019 1_555
O101 S4 1.472932 1_655
O101 Zn5 2.306587 1_555
O102 S0 1.446100 1_555
O102 Zn6 2.320559 1_555
O103 S1 1.464068 1_555
O103 Zn7 2.352538 1_555
O104 S3 1.472958 1_555
O104 Zn6 2.305579 1_555
O105 S2 1.483532 1_655
O105 Zn7 2.408464 1_555
O106 Si0 1.608869 1_555
O106 Zn6 2.100447 1_555
O107 Si1 1.622559 1_555
O107 Zn7 2.067252 1_555
O108 Si13 1.665546 1_555
O108 Ta4 1.962191 1_555
O109 Si14 1.672904 1_555
O109 Ta5 1.955357 1_555
O110 Si16 1.681769 1_555
O110 Ta4 1.879546 1_555
O111 Si15 1.672810 1_655
O111 Ta5 1.886833 1_555
O112 S11 1.492843 1_545
O112 Ta4 2.206818 1_555
O113 S12 1.502473 1_545
O113 Ta5 2.174404 1_555
O114 Si17 1.652105 1_545
O114 Ta6 1.985971 1_555
O115 Si18 1.660754 1_545
O115 Ta7 1.986694 1_555
O116 S13 1.487274 1_555
O116 Ta6 2.279284 1_555
O117 S14 1.495966 1_555
O117 Ta7 2.245848 1_555
O118 Si20 1.666068 1_555
O118 Ta6 1.906435 1_555
O119 Si19 1.666257 1_655
O119 Ta7 1.909762 1_555
O120 S9 1.506526 1_555
O120 Ta8 2.122509 1_555
O121 S10 1.503162 1_555
O121 Ta9 2.108546 1_555
O122 Si10 1.629401 1_455
O122 Ta8 2.010840 1_555
O123 Si9 1.636358 1_555
O123 Ta9 1.998777 1_555
O124 Si11 1.653797 1_565
O124 Ta8 1.954450 1_555
O125 Si12 1.645049 1_565
O125 Ta9 1.962520 1_555
O126 S7 1.519819 1_565
O126 Ta10 2.067963 1_555
O127 S8 1.513641 1_565
O127 Ta11 2.076427 1_555
O128 Si7 1.658421 1_555
O128 Ta10 1.923126 1_555
O129 Si8 1.653724 1_555
O129 Ta11 1.941296 1_555
O130 Si6 1.640403 1_455
O130 Ta10 1.978465 1_555
O131 Si5 1.653289 1_555
O131 Ta11 1.962815 1_555
O132 Si0 1.785122 1_565
O132 Ta12 1.947137 1_555
O133 Si1 1.767036 1_565
O133 Ta13 1.913533 1_555
O134 S0 1.548595 1_555
O134 Ta12 2.182457 1_555
O135 S1 1.513160 1_555
O135 Ta13 2.250209 1_555
O136 S2 1.534424 1_555
O136 Ta12 2.194845 1_555
O137 S3 1.534491 1_555
O137 Ta13 2.139379 1_555
O138 Si2 1.770663 1_555
O138 Ta14 1.891998 1_555
O139 Si3 1.774063 1_555
O139 Ta15 1.921728 1_555
O140 S4 1.532890 1_555
O140 Ta14 2.151596 1_555
O141 Si4 1.689908 1_555
O141 Ta15 1.961427 1_555
O142 S5 1.530398 1_555
O142 Ta14 2.171095 1_555
O143 S6 1.523269 1_565
O143 Ta15 2.216559 1_555
