# generated using pymatgen
data_Na3MgGe3P5SO24
_symmetry_space_group_name_H-M   'P 1'
_cell_length_a   8.49492876
_cell_length_b   8.46730287
_cell_length_c   21.88232848
_cell_angle_alpha   89.59074750
_cell_angle_beta   90.58796756
_cell_angle_gamma   119.88190998
_symmetry_Int_Tables_number   1
_chemical_formula_structural   Na3MgGe3P5SO24
_chemical_formula_sum   'Na9 Mg3 Ge9 P15 S3 O72'
_cell_volume   1364.64756052
_cell_formula_units_Z   3
loop_
 _symmetry_equiv_pos_site_id
 _symmetry_equiv_pos_as_xyz
  1  'x, y, z'
loop_
 _atom_site_type_symbol
 _atom_site_label
 _atom_site_symmetry_multiplicity
 _atom_site_fract_x
 _atom_site_fract_y
 _atom_site_fract_z
 _atom_site_occupancy
  Na  Na0  1  0.99419537  0.36539826  0.74783483  1
  Na  Na1  1  0.30757991  0.97280691  0.08507018  1
  Na  Na2  1  0.32822930  0.03268229  0.41374531  1
  Na  Na3  1  0.99049037  0.99901119  0.49840416  1
  Na  Na4  1  0.99338878  0.00052002  0.99896385  1
  Na  Na5  1  0.65938679  0.33327234  0.83175438  1
  Na  Na6  1  0.66890861  0.33521430  0.33018388  1
  Na  Na7  1  0.33358452  0.66146569  0.16704449  1
  Na  Na8  1  0.33992447  0.66886814  0.66585142  1
  Mg  Mg0  1  0.99758021  0.99972994  0.35490806  1
  Mg  Mg1  1  0.66519470  0.33818906  0.68716234  1
  Mg  Mg2  1  0.66399080  0.33052802  0.18485508  1
  Ge  Ge0  1  0.00113406  0.99956278  0.85388482  1
  Ge  Ge1  1  0.98867553  0.99704238  0.64867044  1
  Ge  Ge2  1  0.00059663  0.99763873  0.14725535  1
  Ge  Ge3  1  0.66811332  0.33450836  0.98099127  1
  Ge  Ge4  1  0.68081829  0.34589941  0.48107249  1
  Ge  Ge5  1  0.33448173  0.66331597  0.01759457  1
  Ge  Ge6  1  0.33402735  0.65846162  0.51862759  1
  Ge  Ge7  1  0.33159933  0.67269788  0.31603385  1
  Ge  Ge8  1  0.33733282  0.66999384  0.81425435  1
  P  P0  1  0.29207971  0.00014502  0.25230129  1
  P  P1  1  0.28741909  0.28435865  0.75170967  1
  P  P2  1  0.00298109  0.71912414  0.75161156  1
  P  P3  1  0.70810674  0.99326275  0.75187043  1
  P  P4  1  0.96020332  0.33494840  0.58424560  1
  P  P5  1  0.66666153  0.62500975  0.58344885  1
  P  P6  1  0.95501149  0.61900842  0.08305787  1
  P  P7  1  0.67015514  0.04260863  0.08290255  1
  P  P8  1  0.37790834  0.33906495  0.08285743  1
  P  P9  1  0.62184727  0.66647354  0.91675166  1
  P  P10  1  0.04356336  0.37788618  0.91621997  1
  P  P11  1  0.33478967  0.95654771  0.91663872  1
  P  P12  1  0.62209826  0.95458121  0.41931666  1
  P  P13  1  0.33679963  0.38370828  0.41712803  1
  P  P14  1  0.04463947  0.66069385  0.41805770  1
  S  S0  1  0.70831292  0.70986298  0.25099658  1
  S  S1  1  0.00197365  0.29137214  0.25075931  1
  S  S2  1  0.37439185  0.04077479  0.58301617  1
  O  O0  1  0.20512585  0.02346073  0.30850591  1
  O  O1  1  0.81774328  0.79373273  0.30508660  1
  O  O2  1  0.97415407  0.18110694  0.30492135  1
  O  O3  1  0.19900701  0.16834787  0.80933971  1
  O  O4  1  0.96926260  0.80208001  0.80892635  1
  O  O5  1  0.83488412  0.03553387  0.80838222  1
  O  O6  1  0.78752931  0.95494003  0.69354338  1
  O  O7  1  0.15948096  0.20634811  0.69384994  1
  O  O8  1  0.04254731  0.83833221  0.69290772  1
  O  O9  1  0.78425126  0.82605748  0.19359208  1
  O  O10  1  0.03777235  0.21296525  0.19364508  1
  O  O11  1  0.17054443  0.96000003  0.19123617  1
  O  O12  1  0.88522332  0.36818703  0.64147830  1
  O  O13  1  0.48643291  0.11916855  0.63693232  1
  O  O14  1  0.62779644  0.51040671  0.63922781  1
  O  O15  1  0.88187156  0.50910585  0.13992189  1
  O  O16  1  0.62294038  0.11401273  0.13815431  1
  O  O17  1  0.48882362  0.37314119  0.13964874  1
  O  O18  1  0.45436980  0.28969671  0.02534291  1
  O  O19  1  0.83725953  0.54210993  0.02414953  1
  O  O20  1  0.70656465  0.16105871  0.02413485  1
  O  O21  1  0.45075358  0.15245701  0.52545049  1
  O  O22  1  0.70408535  0.54472632  0.52436053  1
  O  O23  1  0.83720677  0.29435942  0.52583964  1
  O  O24  1  0.54033556  0.70471506  0.97347549  1
  O  O25  1  0.16532350  0.46143610  0.97299167  1
  O  O26  1  0.29745447  0.83914200  0.97518600  1
  O  O27  1  0.53189348  0.83597157  0.47584277  1
  O  O28  1  0.30131948  0.46433874  0.47437337  1
  O  O29  1  0.17056471  0.70227498  0.47467555  1
  O  O30  1  0.12447530  0.62199740  0.36007730  1
  O  O31  1  0.49564406  0.87793486  0.36116936  1
  O  O32  1  0.37624656  0.50499243  0.35905853  1
  O  O33  1  0.12396059  0.49500319  0.85749720  1
  O  O34  1  0.37115618  0.87240671  0.85995660  1
  O  O35  1  0.50112084  0.62775200  0.85908574  1
  O  O36  1  0.02660156  0.82884222  0.41273433  1
  O  O37  1  0.80611258  0.97486815  0.41241097  1
  O  O38  1  0.17420986  0.19459054  0.41188284  1
  O  O39  1  0.02533207  0.18734688  0.90969385  1
  O  O40  1  0.16244392  0.97408123  0.90997639  1
  O  O41  1  0.81182153  0.83730365  0.90953913  1
  O  O42  1  0.98168211  0.16147633  0.58923664  1
  O  O43  1  0.19126482  0.02303781  0.58796433  1
  O  O44  1  0.84079206  0.81818553  0.58898895  1
  O  O45  1  0.98197698  0.81752930  0.08865451  1
  O  O46  1  0.84062307  0.02086960  0.09076230  1
  O  O47  1  0.18428513  0.16293059  0.08900534  1
  O  O48  1  0.69233720  0.16250802  0.74520577  1
  O  O49  1  0.47123427  0.30441487  0.74583748  1
  O  O50  1  0.84165126  0.52916328  0.74650803  1
  O  O51  1  0.69020558  0.53112050  0.24365582  1
  O  O52  1  0.84458662  0.31449116  0.24317331  1
  O  O53  1  0.47817077  0.16235169  0.24429222  1
  O  O54  1  0.63957914  0.49397603  0.92430705  1
  O  O55  1  0.85446484  0.35988414  0.92363303  1
  O  O56  1  0.50544909  0.14648875  0.92419188  1
  O  O57  1  0.63096826  0.14395482  0.42601071  1
  O  O58  1  0.50912253  0.36153255  0.42483081  1
  O  O59  1  0.85592122  0.48736946  0.42384005  1
  O  O60  1  0.35398114  0.50658253  0.07298152  1
  O  O61  1  0.15161382  0.65073550  0.07332989  1
  O  O62  1  0.49669299  0.85092931  0.07274153  1
  O  O63  1  0.35527904  0.85659428  0.57576233  1
  O  O64  1  0.49721783  0.64957015  0.57418265  1
  O  O65  1  0.15045570  0.50652555  0.57424114  1
  O  O66  1  0.30488765  0.81837862  0.25627924  1
  O  O67  1  0.52333152  0.69372207  0.25537310  1
  O  O68  1  0.17297450  0.47510039  0.25541835  1
  O  O69  1  0.29711427  0.47486618  0.75795180  1
  O  O70  1  0.17695480  0.69841291  0.75786159  1
  O  O71  1  0.52005966  0.82002643  0.75852088  1
loop_
_geom_bond_atom_site_label_1
_geom_bond_atom_site_label_2
_geom_bond_distance
_geom_bond_site_symmetry_2
Na0 O48 2.266923 1_555
Na0 O69 2.268146 1_655
Na0 O50 2.322066 1_555
Na0 O70 2.459504 1_655
Na0 O12 2.500147 1_555
Na0 O33 2.637385 1_655
Na0 O7 2.668629 1_655
Na0 O5 2.757826 1_555
Na1 O47 2.319463 1_565
Na1 O62 2.320220 1_555
Na1 O61 2.379313 1_555
Na1 O45 2.400985 1_455
Na1 O11 2.586521 1_555
Na1 O16 2.592310 1_565
Na1 O26 2.647203 1_554
Na1 O18 2.666854 1_565
Na2 O36 2.266626 1_545
Na2 O57 2.269068 1_555
Na2 O38 2.319131 1_555
Na2 O58 2.431453 1_555
Na2 O0 2.504945 1_555
Na2 O31 2.641022 1_545
Na2 O21 2.649189 1_555
Na2 O29 2.765526 1_545
Na3 O37 2.379472 1_555
Na3 O44 2.441075 1_555
Na3 O42 2.448127 1_565
Na3 O36 2.485028 1_655
Na3 O38 2.490633 1_665
Na3 O43 2.526351 1_665
Na4 O39 2.435368 1_655
Na4 O41 2.443518 1_545
Na4 O46 2.455644 1_556
Na4 O45 2.464327 1_546
Na4 O47 2.480737 1_656
Na4 O40 2.507647 1_645
Na5 O49 2.388467 1_555
Na5 O50 2.466628 1_555
Na5 O48 2.491806 1_555
Na5 O56 2.500133 1_555
Na5 O54 2.501221 1_555
Na5 O55 2.530850 1_555
Na6 O53 2.431864 1_555
Na6 O51 2.456128 1_555
Na6 O52 2.491421 1_555
Na6 O59 2.513014 1_555
Na6 O58 2.558758 1_555
Na6 O57 2.562972 1_555
Na7 O67 2.431781 1_555
Na7 O68 2.440607 1_555
Na7 O66 2.450948 1_555
Na7 O60 2.501774 1_555
Na7 O61 2.529988 1_555
Na7 O62 2.558962 1_555
Na8 O64 2.472470 1_555
Na8 O71 2.472585 1_555
Na8 O63 2.486727 1_555
Na8 O69 2.502967 1_555
Na8 O65 2.503457 1_555
Na8 O70 2.538199 1_555
Mg0 O0 1.964862 1_665
Mg0 O2 1.967416 1_565
Mg0 O1 1.975507 1_555
Mg0 O37 1.992533 1_555
Mg0 O38 2.013011 1_665
Mg0 O36 2.019537 1_655
Mg1 O14 1.939198 1_555
Mg1 O49 2.003451 1_555
Mg1 O12 2.029570 1_555
Mg1 O50 2.030511 1_555
Mg1 O13 2.035219 1_555
Mg1 O48 2.046444 1_555
Mg2 O17 1.955165 1_555
Mg2 O15 1.976445 1_555
Mg2 O16 1.977206 1_555
Mg2 O53 1.996755 1_555
Mg2 O52 2.040956 1_555
Mg2 O51 2.058752 1_555
Ge0 O4 1.845035 1_455
Ge0 O3 1.854217 1_565
Ge0 O5 1.863908 1_465
Ge0 O40 1.920199 1_555
Ge0 O39 1.938749 1_565
Ge0 O41 1.942094 1_455
Ge1 O6 1.852959 1_555
Ge1 O8 1.880832 1_655
Ge1 O7 1.912300 1_665
Ge1 O44 1.917319 1_555
Ge1 O42 1.920536 1_565
Ge1 O43 2.107163 1_665
Ge2 O11 1.880852 1_555
Ge2 O46 1.908421 1_465
Ge2 O45 1.943846 1_455
Ge2 O47 1.964092 1_565
Ge2 O9 1.968030 1_455
Ge2 O10 1.974970 1_565
Ge3 O19 1.877653 1_556
Ge3 O20 1.899156 1_556
Ge3 O54 1.927833 1_555
Ge3 O18 1.930592 1_556
Ge3 O56 1.946729 1_555
Ge3 O55 1.955901 1_555
Ge4 O59 1.859385 1_555
Ge4 O22 1.859563 1_555
Ge4 O23 1.860081 1_555
Ge4 O58 1.952614 1_555
Ge4 O57 1.962741 1_555
Ge4 O21 2.066877 1_555
Ge5 O60 1.857293 1_555
Ge5 O25 1.867346 1_554
Ge5 O24 1.879346 1_554
Ge5 O26 1.901958 1_554
Ge5 O62 1.921115 1_555
Ge5 O61 1.945293 1_555
Ge6 O28 1.810761 1_555
Ge6 O27 1.858966 1_555
Ge6 O29 1.863237 1_555
Ge6 O64 1.863716 1_555
Ge6 O65 1.893518 1_555
Ge6 O63 2.033162 1_555
Ge7 O30 1.866882 1_555
Ge7 O31 1.876337 1_555
Ge7 O66 1.879516 1_555
Ge7 O32 1.885973 1_555
Ge7 O68 2.030515 1_555
Ge7 O67 2.049047 1_555
Ge8 O35 1.867907 1_555
Ge8 O34 1.883620 1_555
Ge8 O71 1.887466 1_555
Ge8 O33 1.927523 1_555
Ge8 O70 1.929955 1_555
Ge8 O69 1.955092 1_555
O0 P0 1.504875 1_555
O1 S0 1.449499 1_555
O2 S1 1.449935 1_655
O3 P1 1.544646 1_555
O4 P2 1.539102 1_655
O5 P3 1.553081 1_545
O6 P3 1.559250 1_555
O7 P1 1.577626 1_555
O8 P2 1.560201 1_555
O9 S0 1.525967 1_555
O10 S1 1.521856 1_555
O11 P0 1.611057 1_565
O12 P4 1.501137 1_555
O13 S2 1.448127 1_555
O14 P5 1.487466 1_555
O15 P6 1.491155 1_555
O16 P7 1.500069 1_555
O17 P8 1.491842 1_555
O18 P8 1.573348 1_555
O19 P6 1.556516 1_555
O20 P7 1.560751 1_555
O21 S2 1.513384 1_555
O22 P5 1.572047 1_555
O23 P4 1.569813 1_555
O24 P9 1.540068 1_555
O25 P10 1.539708 1_555
O26 P11 1.551184 1_555
O27 P12 1.536447 1_555
O28 P13 1.533335 1_555
O29 P14 1.551441 1_555
O30 P14 1.556293 1_555
O31 P12 1.575820 1_555
O32 P13 1.558455 1_555
O33 P10 1.557562 1_555
O34 P11 1.543131 1_555
O35 P9 1.547863 1_555
O36 P14 1.509570 1_555
O37 P12 1.494262 1_555
O38 P13 1.510173 1_555
O39 P10 1.549566 1_555
O40 P11 1.548765 1_555
O41 P9 1.548405 1_555
O42 P4 1.570688 1_555
O43 S2 1.491561 1_555
O44 P5 1.570512 1_555
O45 P6 1.584837 1_555
O46 P7 1.555806 1_555
O47 P8 1.582759 1_555
O48 P3 1.510215 1_545
O49 P1 1.491040 1_555
O50 P2 1.510221 1_655
O51 S0 1.452942 1_555
O52 S1 1.452306 1_655
O53 P0 1.501639 1_555
O54 P9 1.548743 1_555
O55 P10 1.546289 1_655
O56 P11 1.546371 1_545
O57 P12 1.575129 1_545
O58 P13 1.573199 1_555
O59 P14 1.548246 1_655
O60 P8 1.543352 1_555
O61 P6 1.570417 1_455
O62 P7 1.571728 1_565
O63 S2 1.494771 1_565
O64 P5 1.564592 1_555
O65 P4 1.560034 1_455
O66 P0 1.597781 1_565
O67 S0 1.511974 1_555
O68 S1 1.512666 1_555
O69 P1 1.580513 1_555
O70 P2 1.577146 1_555
O71 P3 1.546458 1_555
