# generated using pymatgen
data_TmB3H18C2S
_symmetry_space_group_name_H-M   'P 1'
_cell_length_a   5.44003087
_cell_length_b   22.55564600
_cell_length_c   8.08075957
_cell_angle_alpha   90.00000000
_cell_angle_beta   99.85430812
_cell_angle_gamma   90.00000000
_symmetry_Int_Tables_number   1
_chemical_formula_structural   TmB3H18C2S
_chemical_formula_sum   'Tm4 B12 H72 C8 S4'
_cell_volume   976.90774510
_cell_formula_units_Z   4
loop_
 _symmetry_equiv_pos_site_id
 _symmetry_equiv_pos_as_xyz
  1  'x, y, z'
loop_
 _atom_site_type_symbol
 _atom_site_label
 _atom_site_symmetry_multiplicity
 _atom_site_fract_x
 _atom_site_fract_y
 _atom_site_fract_z
 _atom_site_occupancy
  Tm  Tm0  1  0.68091300  0.33285700  0.11751500  1
  Tm  Tm1  1  0.31908700  0.83285700  0.38248500  1
  Tm  Tm2  1  0.31908700  0.66714300  0.88248500  1
  Tm  Tm3  1  0.68091300  0.16714300  0.61751500  1
  B  B0  1  0.16503300  0.16964900  0.56523500  1
  B  B1  1  0.83496700  0.66964900  0.93476500  1
  B  B2  1  0.83496700  0.83035100  0.43476500  1
  B  B3  1  0.16503300  0.33035100  0.06523500  1
  B  B4  1  0.79939300  0.08582700  0.81173100  1
  B  B5  1  0.20060700  0.58582700  0.68826900  1
  B  B6  1  0.20060700  0.91417300  0.18826900  1
  B  B7  1  0.79939300  0.41417300  0.31173100  1
  B  B8  1  0.32272600  0.75464900  0.12342000  1
  B  B9  1  0.67727400  0.25464900  0.37658000  1
  B  B10  1  0.67727400  0.24535100  0.87658000  1
  B  B11  1  0.32272600  0.74535100  0.62342000  1
  H  H0  1  0.28084500  0.19723200  0.47230100  1
  H  H1  1  0.71915500  0.69723200  0.02769900  1
  H  H2  1  0.71915500  0.80276800  0.52769900  1
  H  H3  1  0.28084500  0.30276800  0.97230100  1
  H  H4  1  0.29682900  0.13680800  0.66380000  1
  H  H5  1  0.70317100  0.63680800  0.83620000  1
  H  H6  1  0.70317100  0.86319200  0.33620000  1
  H  H7  1  0.29682900  0.36319200  0.16380000  1
  H  H8  1  0.07050300  0.20671400  0.64662300  1
  H  H9  1  0.92949700  0.70671400  0.85337700  1
  H  H10  1  0.92949700  0.79328600  0.35337700  1
  H  H11  1  0.07050300  0.29328600  0.14662300  1
  H  H12  1  0.00680300  0.13846300  0.47830000  1
  H  H13  1  0.99319700  0.63846300  0.02170000  1
  H  H14  1  0.99319700  0.86153700  0.52170000  1
  H  H15  1  0.00680300  0.36153700  0.97830000  1
  H  H16  1  0.85989200  0.04444300  0.90344300  1
  H  H17  1  0.14010800  0.54444300  0.59655700  1
  H  H18  1  0.14010800  0.95555700  0.09655700  1
  H  H19  1  0.85989200  0.45555700  0.40344300  1
  H  H20  1  0.96039400  0.12498500  0.82312700  1
  H  H21  1  0.03960600  0.62498500  0.67687300  1
  H  H22  1  0.03960600  0.87501500  0.17687300  1
  H  H23  1  0.96039400  0.37501500  0.32312700  1
  H  H24  1  0.75993500  0.07059800  0.66166100  1
  H  H25  1  0.24006500  0.57059800  0.83833900  1
  H  H26  1  0.24006500  0.92940200  0.33833900  1
  H  H27  1  0.75993500  0.42940200  0.16166100  1
  H  H28  1  0.60601900  0.11029500  0.83753300  1
  H  H29  1  0.39398100  0.61029500  0.66246700  1
  H  H30  1  0.39398100  0.88970500  0.16246700  1
  H  H31  1  0.60601900  0.38970500  0.33753300  1
  H  H32  1  0.12880400  0.77271600  0.16399900  1
  H  H33  1  0.87119600  0.27271600  0.33600100  1
  H  H34  1  0.87119600  0.22728400  0.83600100  1
  H  H35  1  0.12880400  0.72728400  0.66399900  1
  H  H36  1  0.33630500  0.70113200  0.15191100  1
  H  H37  1  0.66369500  0.20113200  0.34808900  1
  H  H38  1  0.66369500  0.29886800  0.84808900  1
  H  H39  1  0.33630500  0.79886800  0.65191100  1
  H  H40  1  0.31660900  0.76644800  0.97399500  1
  H  H41  1  0.68339100  0.26644800  0.52600500  1
  H  H42  1  0.68339100  0.23355200  0.02600500  1
  H  H43  1  0.31660900  0.73355200  0.47399500  1
  H  H44  1  0.51133600  0.77768100  0.20340200  1
  H  H45  1  0.48866400  0.27768100  0.29659800  1
  H  H46  1  0.48866400  0.22231900  0.79659800  1
  H  H47  1  0.51133600  0.72231900  0.70340200  1
  H  H48  1  0.80547000  0.01036900  0.41320300  1
  H  H49  1  0.19453000  0.51036900  0.08679700  1
  H  H50  1  0.19453000  0.98963100  0.58679700  1
  H  H51  1  0.80547000  0.48963100  0.91320300  1
  H  H52  1  0.85870700  0.06076900  0.25097700  1
  H  H53  1  0.14129300  0.56076900  0.24902300  1
  H  H54  1  0.14129300  0.93923100  0.74902300  1
  H  H55  1  0.85870700  0.43923100  0.75097700  1
  H  H56  1  0.62998200  0.00273900  0.20662600  1
  H  H57  1  0.37001800  0.50273900  0.29337400  1
  H  H58  1  0.37001800  0.99726100  0.79337400  1
  H  H59  1  0.62998200  0.49726100  0.70662600  1
  H  H60  1  0.21066700  0.14691100  0.18739800  1
  H  H61  1  0.78933300  0.64691100  0.31260200  1
  H  H62  1  0.78933300  0.85308900  0.81260200  1
  H  H63  1  0.21066700  0.35308900  0.68739800  1
  H  H64  1  0.26768200  0.08112300  0.07629700  1
  H  H65  1  0.73231800  0.58112300  0.42370300  1
  H  H66  1  0.73231800  0.91887700  0.92370300  1
  H  H67  1  0.26768200  0.41887700  0.57629700  1
  H  H68  1  0.49920500  0.13882400  0.11169000  1
  H  H69  1  0.50079500  0.63882400  0.38831000  1
  H  H70  1  0.50079500  0.86117600  0.88831000  1
  H  H71  1  0.49920500  0.36117600  0.61169000  1
  C  C0  1  0.71833000  0.03459600  0.30086400  1
  C  C1  1  0.28167000  0.53459600  0.19913600  1
  C  C2  1  0.28167000  0.96540400  0.69913600  1
  C  C3  1  0.71833000  0.46540400  0.80086400  1
  C  C4  1  0.35373300  0.11530100  0.16389800  1
  C  C5  1  0.64626700  0.61530100  0.33610200  1
  C  C6  1  0.64626700  0.88469900  0.83610200  1
  C  C7  1  0.35373300  0.38469900  0.66389800  1
  S  S0  1  0.47925900  0.08109700  0.36241200  1
  S  S1  1  0.52074100  0.58109700  0.13758800  1
  S  S2  1  0.52074100  0.91890300  0.63758800  1
  S  S3  1  0.47925900  0.41890300  0.86241200  1
loop_
_geom_bond_atom_site_label_1
_geom_bond_atom_site_label_2
_geom_bond_distance
_geom_bond_site_symmetry_2
B0 H4 1.225430 1_555
B0 H0 1.228785 1_555
B0 H8 1.229508 1_555
B0 H12 1.233800 1_555
B1 H5 1.225430 1_555
B1 H1 1.228785 1_556
B1 H9 1.229508 1_555
B1 H13 1.233800 1_556
B2 H6 1.225430 1_555
B2 H2 1.228785 1_555
B2 H10 1.229508 1_555
B2 H14 1.233800 1_555
B3 H7 1.225430 1_555
B3 H3 1.228785 1_554
B3 H11 1.229508 1_555
B3 H15 1.233800 1_554
B4 H16 1.202239 1_555
B4 H20 1.236159 1_555
B4 H28 1.236832 1_555
B4 H24 1.243206 1_555
B5 H17 1.202239 1_555
B5 H21 1.236159 1_555
B5 H29 1.236832 1_555
B5 H25 1.243206 1_555
B6 H18 1.202239 1_555
B6 H22 1.236159 1_555
B6 H30 1.236832 1_555
B6 H26 1.243206 1_555
B7 H19 1.202239 1_555
B7 H23 1.236159 1_555
B7 H31 1.236832 1_555
B7 H27 1.243206 1_555
B8 H32 1.226743 1_555
B8 H36 1.228722 1_555
B8 H44 1.230197 1_555
B8 H40 1.231324 1_554
B9 H33 1.226743 1_555
B9 H37 1.228722 1_555
B9 H45 1.230197 1_555
B9 H41 1.231324 1_555
B10 H34 1.226743 1_555
B10 H38 1.228722 1_555
B10 H46 1.230197 1_555
B10 H42 1.231324 1_556
B11 H35 1.226743 1_555
B11 H39 1.228722 1_555
B11 H47 1.230197 1_555
B11 H43 1.231324 1_555
H0 Tm3 2.387478 1_555
H1 Tm2 2.387478 1_554
H2 Tm1 2.387478 1_555
H3 Tm0 2.387478 1_556
H4 Tm3 2.289379 1_555
H5 Tm2 2.289379 1_555
H6 Tm1 2.289379 1_555
H7 Tm0 2.289379 1_555
H8 Tm3 2.274448 1_455
H9 Tm2 2.274448 1_655
H10 Tm1 2.274448 1_655
H11 Tm0 2.274448 1_455
H12 Tm3 2.347269 1_455
H13 Tm2 2.347269 1_654
H14 Tm1 2.347269 1_655
H15 Tm0 2.347269 1_456
H20 Tm3 2.260909 1_555
H21 Tm2 2.260909 1_555
H22 Tm1 2.260909 1_555
H23 Tm0 2.260909 1_555
H24 Tm3 2.236439 1_555
H25 Tm2 2.236439 1_555
H26 Tm1 2.236439 1_555
H27 Tm0 2.236439 1_555
H28 Tm3 2.284526 1_555
H29 Tm2 2.284526 1_555
H30 Tm1 2.284526 1_555
H31 Tm0 2.284526 1_555
H32 Tm1 2.324482 1_555
H33 Tm0 2.324482 1_555
H34 Tm3 2.324482 1_555
H35 Tm2 2.324482 1_555
H36 Tm2 2.294944 1_554
H37 Tm3 2.294944 1_555
H38 Tm0 2.294944 1_556
H39 Tm1 2.294944 1_555
H40 Tm2 2.359557 1_555
H41 Tm3 2.359557 1_555
H42 Tm0 2.359557 1_555
H43 Tm1 2.359557 1_555
H44 Tm1 2.292346 1_555
H45 Tm0 2.292346 1_555
H46 Tm3 2.292346 1_555
H47 Tm2 2.292346 1_555
C0 H52 1.095246 1_555
C0 H48 1.095494 1_555
C0 H56 1.096331 1_555
C0 S0 1.805634 1_555
C1 H53 1.095246 1_555
C1 H49 1.095494 1_555
C1 H57 1.096331 1_555
C1 S1 1.805634 1_555
C2 H54 1.095246 1_555
C2 H50 1.095494 1_555
C2 H58 1.096331 1_555
C2 S2 1.805634 1_555
C3 H55 1.095246 1_555
C3 H51 1.095494 1_555
C3 H59 1.096331 1_555
C3 S3 1.805634 1_555
C4 H68 1.095464 1_555
C4 H60 1.095774 1_555
C4 H64 1.095950 1_555
C4 S0 1.805502 1_555
C5 H69 1.095464 1_555
C5 H61 1.095774 1_555
C5 H65 1.095950 1_555
C5 S1 1.805502 1_555
C6 H70 1.095464 1_555
C6 H62 1.095774 1_555
C6 H66 1.095950 1_555
C6 S2 1.805502 1_555
C7 H71 1.095464 1_555
C7 H63 1.095774 1_555
C7 H67 1.095950 1_555
C7 S3 1.805502 1_555
S0 Tm3 2.906139 1_555
S1 Tm2 2.906139 1_554
S2 Tm1 2.906139 1_555
S3 Tm0 2.906139 1_556
