# generated using pymatgen
data_SrLaMgNbZnO6
_symmetry_space_group_name_H-M   'P 1'
_cell_length_a   5.88853794
_cell_length_b   5.88853906
_cell_length_c   7.52407557
_cell_angle_alpha   66.96376369
_cell_angle_beta   66.96375937
_cell_angle_gamma   59.99999410
_symmetry_Int_Tables_number   1
_chemical_formula_structural   SrLaMgNbZnO6
_chemical_formula_sum   'Sr1 La1 Mg1 Nb1 Zn1 O6'
_cell_volume   201.56237769
_cell_formula_units_Z   1
loop_
 _symmetry_equiv_pos_site_id
 _symmetry_equiv_pos_as_xyz
  1  'x, y, z'
loop_
 _atom_site_type_symbol
 _atom_site_label
 _atom_site_symmetry_multiplicity
 _atom_site_fract_x
 _atom_site_fract_y
 _atom_site_fract_z
 _atom_site_occupancy
  Sr  Sr0  1  0.20427752  0.20427752  0.38716745  1
  La  La0  1  0.65161899  0.65161899  0.04514304  1
  Mg  Mg0  1  0.92379935  0.92379935  0.22860196  1
  Nb  Nb0  1  0.48845335  0.48845335  0.53463995  1
  Zn  Zn0  1  0.05432025  0.05432025  0.83703925  1
  O  O0  1  0.28081150  0.28081150  0.65624965  1
  O  O1  1  0.27042340  0.71917840  0.29121980  1
  O  O2  1  0.71917840  0.27042340  0.29121980  1
  O  O3  1  0.28081150  0.78212736  0.65624965  1
  O  O4  1  0.78212736  0.28081150  0.65624965  1
  O  O5  1  0.71917840  0.71917840  0.29121980  1
loop_
_geom_bond_atom_site_label_1
_geom_bond_atom_site_label_2
_geom_bond_distance
_geom_bond_site_symmetry_2
La0 O1 2.248505 1_555
La0 O2 2.248505 1_555
La0 O5 2.248505 1_555
Mg0 O1 1.920647 1_655
Mg0 O5 1.920647 1_555
Mg0 O2 1.920647 1_565
Nb0 O0 1.889734 1_555
Nb0 O4 1.889734 1_555
Nb0 O3 1.889734 1_555
Nb0 O5 2.235439 1_555
Nb0 O2 2.235439 1_555
Nb0 O1 2.235439 1_555
O0 Zn0 2.084934 1_555
O0 Sr0 2.477194 1_555
O1 Sr0 3.018913 1_555
O1 Sr0 3.018913 1_565
O2 Sr0 3.018912 1_555
O2 Sr0 3.018912 1_655
O3 Zn0 2.084934 1_565
O3 Sr0 2.477193 1_565
O4 Zn0 2.084934 1_655
O4 Sr0 2.477193 1_655
O5 Sr0 3.018912 1_565
O5 Sr0 3.018912 1_655
