# generated using pymatgen
data_MgMn6O7F5
_symmetry_space_group_name_H-M   'P 1'
_cell_length_a   8.45180819
_cell_length_b   5.97120839
_cell_length_c   5.87665986
_cell_angle_alpha   65.61568624
_cell_angle_beta   65.22799525
_cell_angle_gamma   64.26712818
_symmetry_Int_Tables_number   1
_chemical_formula_structural   MgMn6O7F5
_chemical_formula_sum   'Mg1 Mn6 O7 F5'
_cell_volume   232.71447355
_cell_formula_units_Z   1
loop_
 _symmetry_equiv_pos_site_id
 _symmetry_equiv_pos_as_xyz
  1  'x, y, z'
loop_
 _atom_site_type_symbol
 _atom_site_label
 _atom_site_symmetry_multiplicity
 _atom_site_fract_x
 _atom_site_fract_y
 _atom_site_fract_z
 _atom_site_occupancy
  Mg  Mg0  1  0.50255582  0.49042876  0.99907253  1
  Mn  Mn0  1  0.87947800  0.68367568  0.70746618  1
  Mn  Mn1  1  0.69888693  0.31986427  0.35834287  1
  Mn  Mn2  1  0.30943992  0.65935402  0.63922752  1
  Mn  Mn3  1  0.12790893  0.29523839  0.31348007  1
  Mn  Mn4  1  0.50298443  0.99147782  0.99916611  1
  Mn  Mn5  1  0.00580193  0.02222722  0.97446442  1
  O  O0  1  0.68541038  0.02123502  0.65176404  1
  O  O1  1  0.33467535  0.35720953  0.95886284  1
  O  O2  1  0.95575151  0.21488282  0.21015907  1
  O  O3  1  0.05128211  0.79884358  0.76896360  1
  O  O4  1  0.32915837  0.95429016  0.34673135  1
  O  O5  1  0.66774701  0.62505136  0.04246690  1
  O  O6  1  0.00939397  0.32467692  0.68273816  1
  F  F0  1  0.32065415  0.84592775  0.91745481  1
  F  F1  1  0.58884544  0.56205835  0.60216671  1
  F  F2  1  0.68728418  0.13820778  0.08072219  1
  F  F3  1  0.41831298  0.41496992  0.39765164  1
  F  F4  1  0.99585759  0.70894967  0.28957799  1
loop_
_geom_bond_atom_site_label_1
_geom_bond_atom_site_label_2
_geom_bond_distance
_geom_bond_site_symmetry_2
Mg0 O5 2.025513 1_556
Mg0 O1 2.029329 1_555
Mn0 O0 1.973464 1_565
Mn0 O6 1.975253 1_655
Mn0 O5 2.055045 1_556
Mn0 O3 2.055258 1_655
Mn1 O2 1.883908 1_555
Mn1 O0 1.907595 1_555
Mn1 O5 2.008916 1_555
Mn2 O3 1.894181 1_555
Mn2 O4 1.897147 1_555
Mn2 O1 2.008028 1_555
Mn3 O4 2.004785 1_545
Mn3 O6 2.020815 1_555
Mn3 O2 2.074420 1_455
Mn3 O1 2.099200 1_554
Mn4 O4 1.942597 1_556
Mn4 O0 1.969084 1_565
Mn4 O5 1.995684 1_556
Mn4 O1 2.001636 1_565
Mn5 O6 1.910257 1_555
Mn5 O2 1.955232 1_456
Mn5 O3 1.970092 1_545
F0 Mg0 2.010748 1_555
F0 Mn5 2.326648 1_565
F0 Mn4 2.342732 1_555
F0 Mn2 2.376795 1_555
F1 Mg0 2.043737 1_555
F1 Mn1 2.106154 1_555
F1 Mn2 2.108007 1_555
F2 Mg0 2.008576 1_554
F2 Mn5 2.333690 1_654
F2 Mn1 2.352792 1_555
F2 Mn4 2.362441 1_544
F3 Mg0 2.050839 1_554
F3 Mn2 2.107481 1_555
F3 Mn1 2.116381 1_555
F4 Mn5 2.020238 1_664
F4 Mn3 2.195161 1_655
F4 Mn0 2.195397 1_555
