# generated using pymatgen
data_Be2BHO4
_symmetry_space_group_name_H-M   'P 1'
_cell_length_a   4.43127251
_cell_length_b   9.73144664
_cell_length_c   12.12424444
_cell_angle_alpha   90.00000000
_cell_angle_beta   90.00000000
_cell_angle_gamma   90.00000000
_symmetry_Int_Tables_number   1
_chemical_formula_structural   Be2BHO4
_chemical_formula_sum   'Be16 B8 H8 O32'
_cell_volume   522.83005846
_cell_formula_units_Z   8
loop_
 _symmetry_equiv_pos_site_id
 _symmetry_equiv_pos_as_xyz
  1  'x, y, z'
loop_
 _atom_site_type_symbol
 _atom_site_label
 _atom_site_symmetry_multiplicity
 _atom_site_fract_x
 _atom_site_fract_y
 _atom_site_fract_z
 _atom_site_occupancy
  Be  Be0  1  0.27801899  0.23539682  0.06799363  1
  Be  Be1  1  0.77801899  0.26460318  0.93200637  1
  Be  Be2  1  0.72198101  0.73539682  0.43200637  1
  Be  Be3  1  0.76028181  0.00041402  0.31069397  1
  Be  Be4  1  0.72198101  0.76460318  0.93200637  1
  Be  Be5  1  0.22198101  0.73539682  0.06799363  1
  Be  Be6  1  0.27801899  0.26460318  0.56799363  1
  Be  Be7  1  0.77801899  0.23539682  0.43200637  1
  Be  Be8  1  0.26028181  0.49958598  0.68930603  1
  Be  Be9  1  0.23971819  0.50041402  0.18930603  1
  Be  Be10  1  0.73971819  0.99958598  0.81069397  1
  Be  Be11  1  0.23971819  0.99958598  0.68930603  1
  Be  Be12  1  0.73971819  0.50041402  0.31069397  1
  Be  Be13  1  0.76028181  0.49958598  0.81069397  1
  Be  Be14  1  0.22198101  0.76460318  0.56799363  1
  Be  Be15  1  0.26028181  0.00041402  0.18930603  1
  B  B0  1  0.27383561  0.10455847  0.39383698  1
  B  B1  1  0.77383561  0.10455847  0.10616302  1
  B  B2  1  0.27383561  0.39544153  0.89383698  1
  B  B3  1  0.22616439  0.60455847  0.39383698  1
  B  B4  1  0.72616439  0.89544153  0.60616302  1
  B  B5  1  0.22616439  0.89544153  0.89383698  1
  B  B6  1  0.72616439  0.60455847  0.10616302  1
  B  B7  1  0.77383561  0.39544153  0.60616302  1
  H  H0  1  0.96308582  0.31242336  0.27534078  1
  H  H1  1  0.96308582  0.18757664  0.77534078  1
  H  H2  1  0.53691418  0.81242336  0.27534078  1
  H  H3  1  0.03691418  0.68757664  0.72465922  1
  H  H4  1  0.53691418  0.68757664  0.77534078  1
  H  H5  1  0.03691418  0.81242336  0.22465922  1
  H  H6  1  0.46308582  0.18757664  0.72465922  1
  H  H7  1  0.46308582  0.31242336  0.22465922  1
  O  O0  1  0.61884852  0.03568991  0.18726514  1
  O  O1  1  0.58294817  0.40150840  0.89786663  1
  O  O2  1  0.91705183  0.59849160  0.39786663  1
  O  O3  1  0.41705183  0.90150840  0.60213337  1
  O  O4  1  0.91705183  0.90150840  0.89786663  1
  O  O5  1  0.41705183  0.59849160  0.10213337  1
  O  O6  1  0.08294817  0.40150840  0.60213337  1
  O  O7  1  0.58294817  0.09849160  0.39786663  1
  O  O8  1  0.61797714  0.18648403  0.03378760  1
  O  O9  1  0.11797714  0.31351597  0.96621240  1
  O  O10  1  0.38202286  0.68648403  0.46621240  1
  O  O11  1  0.88202286  0.81351597  0.53378760  1
  O  O12  1  0.08294817  0.09849160  0.10213337  1
  O  O13  1  0.88202286  0.68648403  0.03378760  1
  O  O14  1  0.61797714  0.31351597  0.53378760  1
  O  O15  1  0.11797714  0.18648403  0.46621240  1
  O  O16  1  0.38202286  0.81351597  0.96621240  1
  O  O17  1  0.79579416  0.16375725  0.82434958  1
  O  O18  1  0.70420584  0.83624275  0.32434958  1
  O  O19  1  0.20420584  0.66375725  0.67565042  1
  O  O20  1  0.70420584  0.66375725  0.82434958  1
  O  O21  1  0.20420584  0.83624275  0.17565042  1
  O  O22  1  0.29579416  0.16375725  0.67565042  1
  O  O23  1  0.79579416  0.33624275  0.32434958  1
  O  O24  1  0.11884852  0.03568991  0.31273486  1
  O  O25  1  0.61884852  0.46431009  0.68726514  1
  O  O26  1  0.88115148  0.53568991  0.18726514  1
  O  O27  1  0.38115148  0.96431009  0.81273486  1
  O  O28  1  0.88115148  0.96431009  0.68726514  1
  O  O29  1  0.38115148  0.53568991  0.31273486  1
  O  O30  1  0.11884852  0.46431009  0.81273486  1
  O  O31  1  0.29579416  0.33624275  0.17565042  1
loop_
_geom_bond_atom_site_label_1
_geom_bond_atom_site_label_2
_geom_bond_distance
_geom_bond_site_symmetry_2
Be0 O9 1.613592 1_554
Be0 O8 1.633385 1_555
Be0 O31 1.634932 1_555
Be0 O12 1.641195 1_555
Be1 O8 1.613592 1_556
Be1 O9 1.633385 1_655
Be1 O17 1.634932 1_555
Be1 O1 1.641195 1_555
Be2 O11 1.613592 1_555
Be2 O10 1.633385 1_555
Be2 O18 1.634932 1_555
Be2 O2 1.641195 1_555
Be3 O18 1.625288 1_545
Be3 O24 1.625756 1_655
Be3 O7 1.626498 1_555
Be3 O0 1.658340 1_555
Be4 O13 1.613592 1_556
Be4 O16 1.633385 1_555
Be4 O20 1.634932 1_555
Be4 O4 1.641195 1_555
Be5 O16 1.613592 1_554
Be5 O13 1.633385 1_455
Be5 O21 1.634932 1_555
Be5 O5 1.641195 1_555
Be6 O15 1.613592 1_555
Be6 O14 1.633385 1_555
Be6 O22 1.634932 1_555
Be6 O6 1.641195 1_555
Be7 O14 1.613592 1_555
Be7 O15 1.633385 1_655
Be7 O23 1.634932 1_555
Be7 O7 1.641195 1_555
Be8 O19 1.625288 1_555
Be8 O25 1.625756 1_555
Be8 O6 1.626498 1_555
Be8 O30 1.658340 1_555
Be9 O31 1.625288 1_555
Be9 O26 1.625756 1_455
Be9 O5 1.626498 1_555
Be9 O29 1.658340 1_555
Be10 O17 1.625288 1_565
Be10 O27 1.625756 1_555
Be10 O4 1.626498 1_555
Be10 O28 1.658340 1_555
Be11 O22 1.625288 1_565
Be11 O28 1.625756 1_455
Be11 O3 1.626498 1_555
Be11 O27 1.658340 1_555
Be12 O23 1.625288 1_555
Be12 O29 1.625756 1_555
Be12 O2 1.626498 1_555
Be12 O26 1.658340 1_555
Be13 O20 1.625288 1_555
Be13 O30 1.625756 1_655
Be13 O1 1.626498 1_555
Be13 O25 1.658340 1_555
Be14 O10 1.613592 1_555
Be14 O11 1.633385 1_455
Be14 O19 1.634932 1_555
Be14 O3 1.641195 1_555
Be15 O21 1.625288 1_545
Be15 O0 1.625756 1_555
Be15 O12 1.626498 1_555
Be15 O24 1.658340 1_555
B0 O7 1.371904 1_555
B0 O15 1.372084 1_555
B0 O24 1.373943 1_555
B1 O12 1.371904 1_655
B1 O8 1.372084 1_555
B1 O0 1.373943 1_555
B2 O1 1.371904 1_555
B2 O9 1.372084 1_555
B2 O30 1.373943 1_555
B3 O2 1.371904 1_455
B3 O10 1.372084 1_555
B3 O29 1.373943 1_555
B4 O3 1.371904 1_555
B4 O11 1.372084 1_555
B4 O28 1.373943 1_555
B5 O4 1.371904 1_455
B5 O16 1.372084 1_555
B5 O27 1.373943 1_555
B6 O5 1.371904 1_555
B6 O13 1.372084 1_555
B6 O26 1.373943 1_555
B7 O6 1.371904 1_655
B7 O14 1.372084 1_555
B7 O25 1.373943 1_555
H0 O23 0.977929 1_555
H1 O17 0.977929 1_555
H2 O18 0.977929 1_555
H3 O19 0.977929 1_555
H4 O20 0.977929 1_555
H5 O21 0.977929 1_555
H6 O22 0.977929 1_555
H7 O31 0.977929 1_555
