# generated using pymatgen
data_CaIn4Pd
_symmetry_space_group_name_H-M   'P 1'
_cell_length_a   8.67515565
_cell_length_b   8.67515565
_cell_length_c   7.54605677
_cell_angle_alpha   90.00000000
_cell_angle_beta   90.00000000
_cell_angle_gamma   149.90031172
_symmetry_Int_Tables_number   1
_chemical_formula_structural   CaIn4Pd
_chemical_formula_sum   'Ca2 In8 Pd2'
_cell_volume   284.80707874
_cell_formula_units_Z   2
loop_
 _symmetry_equiv_pos_site_id
 _symmetry_equiv_pos_as_xyz
  1  'x, y, z'
loop_
 _atom_site_type_symbol
 _atom_site_label
 _atom_site_symmetry_multiplicity
 _atom_site_fract_x
 _atom_site_fract_y
 _atom_site_fract_z
 _atom_site_occupancy
  Ca  Ca0  1  0.12760363  0.87239637  0.75000000  1
  Ca  Ca1  1  0.87239637  0.12760363  0.25000000  1
  In  In0  1  0.31694068  0.68305932  0.95058659  1
  In  In1  1  0.68305932  0.31694068  0.04941341  1
  In  In2  1  0.68305932  0.31694068  0.45058659  1
  In  In3  1  0.31694068  0.68305932  0.54941341  1
  In  In4  1  0.93423394  0.06576606  0.75000000  1
  In  In5  1  0.06576606  0.93423394  0.25000000  1
  In  In6  1  0.50000000  0.50000000  0.00000000  1
  In  In7  1  0.50000000  0.50000000  0.50000000  1
  Pd  Pd0  1  0.77373301  0.22626699  0.75000000  1
  Pd  Pd1  1  0.22626699  0.77373301  0.25000000  1
loop_
_geom_bond_atom_site_label_1
_geom_bond_atom_site_label_2
_geom_bond_distance
_geom_bond_site_symmetry_2
Ca0 In4 3.239948 1_465
Ca0 In2 3.323002 1_455
Ca0 In2 3.323002 1_565
Ca0 In1 3.323002 1_456
Ca0 In1 3.323002 1_566
Ca0 Pd0 3.327000 1_565
Ca0 Pd0 3.327000 1_455
Ca0 In3 3.514982 1_555
Ca0 In0 3.514982 1_555
Ca0 In7 3.633761 1_455
Ca0 In6 3.633761 1_456
Ca0 In6 3.633761 1_566
Ca0 In7 3.633761 1_565
Ca1 In5 3.239948 1_645
Ca1 In3 3.323002 1_655
Ca1 In0 3.323002 1_654
Ca1 In3 3.323002 1_545
Ca1 In0 3.323002 1_544
Ca1 Pd1 3.327000 1_655
Ca1 Pd1 3.327000 1_545
Ca1 In1 3.514982 1_555
Ca1 In2 3.514982 1_555
Ca1 In6 3.633761 1_545
Ca1 In7 3.633761 1_655
Ca1 In7 3.633761 1_545
Ca1 In6 3.633761 1_655
In0 Pd1 2.722680 1_556
In0 Pd0 2.808798 1_455
In0 Pd0 2.808798 1_565
In0 In6 3.089778 1_556
In1 Pd0 2.722680 1_554
In1 Pd1 2.808798 1_545
In1 Pd1 2.808798 1_655
In1 In6 3.089778 1_555
In2 Pd0 2.722680 1_555
In2 Pd1 2.808798 1_545
In2 Pd1 2.808798 1_655
In2 In7 3.089778 1_555
In3 Pd1 2.722680 1_555
In3 Pd0 2.808798 1_455
In3 Pd0 2.808798 1_565
In3 In7 3.089778 1_555
In4 Pd0 2.689225 1_555
In4 In7 3.138042 1_545
In4 In6 3.138042 1_546
In4 In6 3.138042 1_656
In4 In7 3.138042 1_655
In5 Pd1 2.689225 1_555
In5 In6 3.138042 1_455
In5 In7 3.138042 1_455
In5 In6 3.138042 1_565
In5 In7 3.138042 1_565
