# generated using pymatgen
data_Na7Ta2Al2Si5PO24
_symmetry_space_group_name_H-M   'P 1'
_cell_length_a   8.92824671
_cell_length_b   8.93338353
_cell_length_c   21.91979615
_cell_angle_alpha   89.62346292
_cell_angle_beta   90.12358675
_cell_angle_gamma   119.87268486
_symmetry_Int_Tables_number   1
_chemical_formula_structural   Na7Ta2Al2Si5PO24
_chemical_formula_sum   'Na21 Ta6 Al6 Si15 P3 O72'
_cell_volume   1515.98638033
_cell_formula_units_Z   3
loop_
 _symmetry_equiv_pos_site_id
 _symmetry_equiv_pos_as_xyz
  1  'x, y, z'
loop_
 _atom_site_type_symbol
 _atom_site_label
 _atom_site_symmetry_multiplicity
 _atom_site_fract_x
 _atom_site_fract_y
 _atom_site_fract_z
 _atom_site_occupancy
  Na  Na0  1  0.64025408  0.00928718  0.24891745  1
  Na  Na1  1  0.37194140  0.36265829  0.24612799  1
  Na  Na2  1  0.98965402  0.62610779  0.24715142  1
  Na  Na3  1  0.63629909  0.62626957  0.74679357  1
  Na  Na4  1  0.98963807  0.36127735  0.74771150  1
  Na  Na5  1  0.37425431  0.01175082  0.74716212  1
  Na  Na6  1  0.30483880  0.34149619  0.58122511  1
  Na  Na7  1  0.03950838  0.69746949  0.58022779  1
  Na  Na8  1  0.65791835  0.96062668  0.58069404  1
  Na  Na9  1  0.30023561  0.96281037  0.07892885  1
  Na  Na10  1  0.04242254  0.34588158  0.08181058  1
  Na  Na11  1  0.97274619  0.67639776  0.91462613  1
  Na  Na12  1  0.32225234  0.29111104  0.91488720  1
  Na  Na13  1  0.32338318  0.02818052  0.41456154  1
  Na  Na14  1  0.70732350  0.67585840  0.41477090  1
  Na  Na15  1  0.99707639  0.00696447  0.49290366  1
  Na  Na16  1  0.98547401  0.99497557  0.99385714  1
  Na  Na17  1  0.66751730  0.32202650  0.82847633  1
  Na  Na18  1  0.67730783  0.33207650  0.32886758  1
  Na  Na19  1  0.34182931  0.66342784  0.15945987  1
  Na  Na20  1  0.33472017  0.66684909  0.66099808  1
  Ta  Ta0  1  0.99938057  0.99961815  0.64585800  1
  Ta  Ta1  1  -0.00022832  0.99787860  0.14516910  1
  Ta  Ta2  1  0.66614608  0.33212975  0.97884652  1
  Ta  Ta3  1  0.67251056  0.33206429  0.47864519  1
  Ta  Ta4  1  0.32919087  0.66755830  0.31233651  1
  Ta  Ta5  1  0.33149429  0.66942537  0.81283840  1
  Al  Al0  1  0.99317130  0.99669788  0.35211003  1
  Al  Al1  1  0.00343445  0.00621873  0.85234700  1
  Al  Al2  1  0.66699999  0.33338086  0.68669885  1
  Al  Al3  1  0.66778070  0.33996987  0.18757074  1
  Al  Al4  1  0.32611666  0.65760842  0.01898672  1
  Al  Al5  1  0.33622949  0.67269716  0.52033938  1
  Si  Si0  1  0.29222714  0.00779002  0.25295581  1
  Si  Si1  1  0.71392410  0.70746402  0.25280547  1
  Si  Si2  1  0.99306858  0.28251615  0.25150870  1
  Si  Si3  1  0.29406938  0.28688100  0.75235166  1
  Si  Si4  1  0.99263535  0.70829299  0.75366256  1
  Si  Si5  1  0.71628641  0.00625043  0.75275004  1
  Si  Si6  1  0.96093274  0.34065564  0.58650986  1
  Si  Si7  1  0.38190212  0.04325170  0.58541340  1
  Si  Si8  1  0.66022996  0.61811266  0.58500127  1
  Si  Si9  1  0.95684254  0.62055423  0.08535737  1
  Si  Si10  1  0.38441025  0.34686996  0.08584605  1
  Si  Si11  1  0.04211454  0.36720038  0.91878719  1
  Si  Si12  1  0.32891402  0.95320045  0.91999586  1
  Si  Si13  1  0.62939063  0.95517642  0.41869871  1
  Si  Si14  1  0.04573125  0.67230421  0.41943903  1
  P  P0  1  0.66125886  0.04077445  0.08553423  1
  P  P1  1  0.62121004  0.67476348  0.91987226  1
  P  P2  1  0.32524144  0.37540649  0.41941421  1
  O  O0  1  0.20104646  0.03709449  0.31143994  1
  O  O1  1  0.83433252  0.79399869  0.31173813  1
  O  O2  1  0.96188043  0.15414618  0.30748411  1
  O  O3  1  0.20452264  0.16469183  0.81091437  1
  O  O4  1  0.96568894  0.80114866  0.81200295  1
  O  O5  1  0.84538396  0.03664027  0.80798409  1
  O  O6  1  0.79609071  0.96390471  0.69034784  1
  O  O7  1  0.16620968  0.20264764  0.69162622  1
  O  O8  1  0.03560050  0.83413399  0.69218824  1
  O  O9  1  0.80248471  0.84058978  0.19379360  1
  O  O10  1  0.03540819  0.20400535  0.18930229  1
  O  O11  1  0.16498765  0.96501192  0.19211991  1
  O  O12  1  0.87111974  0.37186690  0.64502929  1
  O  O13  1  0.50285209  0.13449023  0.64382771  1
  O  O14  1  0.63144553  0.49821261  0.64411427  1
  O  O15  1  0.86521927  0.49636513  0.14362728  1
  O  O16  1  0.63400752  0.12438638  0.14234830  1
  O  O17  1  0.49572452  0.35806531  0.14533707  1
  O  O18  1  0.46817481  0.30237665  0.02542256  1
  O  O19  1  0.83683051  0.52923591  0.02403772  1
  O  O20  1  0.69517006  0.16420812  0.02897850  1
  O  O21  1  0.46487547  0.16854438  0.52420779  1
  O  O22  1  0.69987820  0.53282304  0.52437860  1
  O  O23  1  0.82860605  0.29810204  0.52721922  1
  O  O24  1  0.52651791  0.69173386  0.97369986  1
  O  O25  1  0.16359483  0.46133480  0.97717917  1
  O  O26  1  0.30330693  0.83014335  0.97780989  1
  O  O27  1  0.53490073  0.83348454  0.47754765  1
  O  O28  1  0.30855684  0.46568223  0.47589834  1
  O  O29  1  0.16821821  0.69815407  0.47737159  1
  O  O30  1  0.13255817  0.63774657  0.35780769  1
  O  O31  1  0.50112478  0.86328666  0.35831610  1
  O  O32  1  0.35942657  0.49236364  0.36128036  1
  O  O33  1  0.13414235  0.49741137  0.85845087  1
  O  O34  1  0.36295945  0.86615793  0.85821416  1
  O  O35  1  0.50855148  0.63728877  0.86027296  1
  O  O36  1  0.02849011  0.84479782  0.41187541  1
  O  O37  1  0.81668675  0.97225935  0.41034071  1
  O  O38  1  0.17136465  0.19360691  0.41241056  1
  O  O39  1  0.02665475  0.18075035  0.91020551  1
  O  O40  1  0.15636822  0.97081665  0.91238112  1
  O  O41  1  0.80542317  0.82695609  0.91257614  1
  O  O42  1  0.97472253  0.16234296  0.58806851  1
  O  O43  1  0.18783317  0.02618081  0.58840573  1
  O  O44  1  0.83759155  0.81165968  0.58820145  1
  O  O45  1  0.97822821  0.81632528  0.08768771  1
  O  O46  1  0.83226619  0.03362983  0.08773008  1
  O  O47  1  0.18773230  0.16707831  0.08847549  1
  O  O48  1  0.68994611  0.17206904  0.74429425  1
  O  O49  1  0.48468123  0.31006136  0.74396727  1
  O  O50  1  0.82739198  0.51709775  0.74545930  1
  O  O51  1  0.69015691  0.51642416  0.24421667  1
  O  O52  1  0.82614675  0.30810136  0.24302634  1
  O  O53  1  0.48530324  0.17068252  0.24369633  1
  O  O54  1  0.63591334  0.50387239  0.92332238  1
  O  O55  1  0.85391497  0.36292271  0.92154172  1
  O  O56  1  0.49965717  0.15079242  0.92241467  1
  O  O57  1  0.63204423  0.14288289  0.42100565  1
  O  O58  1  0.49593442  0.36289878  0.42150770  1
  O  O59  1  0.84824754  0.50115163  0.42107983  1
  O  O60  1  0.35563479  0.51063960  0.07698131  1
  O  O61  1  0.15088721  0.64658502  0.07815604  1
  O  O62  1  0.50198238  0.86376586  0.07611549  1
  O  O63  1  0.35753208  0.85135197  0.57792856  1
  O  O64  1  0.49203981  0.64155410  0.57681050  1
  O  O65  1  0.15190060  0.50572698  0.57620792  1
  O  O66  1  0.30695238  0.82858556  0.25525503  1
  O  O67  1  0.51909981  0.68793463  0.25647670  1
  O  O68  1  0.17049826  0.47629591  0.25612755  1
  O  O69  1  0.31191641  0.48101787  0.75640151  1
  O  O70  1  0.17179321  0.69320422  0.75562641  1
  O  O71  1  0.52312129  0.82831716  0.75622779  1
loop_
_geom_bond_atom_site_label_1
_geom_bond_atom_site_label_2
_geom_bond_distance
_geom_bond_site_symmetry_2
Na0 O52 2.340963 1_555
Na0 O53 2.447433 1_555
Na0 O67 2.517936 1_545
Na0 O16 2.557758 1_555
Na0 O66 2.587304 1_545
Na0 O31 2.711526 1_545
Na0 O2 2.805847 1_555
Na0 O9 2.834617 1_545
Na1 O53 2.387251 1_555
Na1 O51 2.464276 1_555
Na1 O68 2.477245 1_555
Na1 O17 2.482146 1_555
Na1 O67 2.534898 1_555
Na1 O32 2.809783 1_555
Na1 O10 2.890186 1_555
Na1 O0 2.893181 1_555
Na2 O51 2.346170 1_555
Na2 O52 2.466055 1_555
Na2 O66 2.495265 1_655
Na2 O15 2.543233 1_555
Na2 O68 2.566043 1_655
Na2 O30 2.716590 1_655
Na2 O1 2.878388 1_555
Na2 O11 2.882840 1_655
Na3 O50 2.349680 1_555
Na3 O49 2.451247 1_555
Na3 O71 2.478792 1_555
Na3 O14 2.521964 1_555
Na3 O69 2.524155 1_555
Na3 O35 2.761387 1_555
Na3 O6 2.887185 1_555
Na3 O4 2.926946 1_555
Na4 O48 2.348966 1_555
Na4 O50 2.458844 1_555
Na4 O12 2.506248 1_555
Na4 O69 2.528656 1_655
Na4 O70 2.582501 1_655
Na4 O33 2.738253 1_655
Na4 O5 2.837444 1_555
Na4 O7 2.874281 1_655
Na5 O49 2.336518 1_555
Na5 O48 2.444969 1_555
Na5 O70 2.504055 1_545
Na5 O13 2.524987 1_555
Na5 O71 2.579832 1_545
Na5 O34 2.730592 1_545
Na5 O3 2.865787 1_555
Na5 O8 2.888272 1_545
Na6 O64 2.349996 1_555
Na6 O65 2.453964 1_555
Na6 O43 2.472696 1_555
Na6 O28 2.547968 1_555
Na6 O42 2.563335 1_455
Na6 O7 2.714938 1_555
Na6 O21 2.867578 1_555
Na6 O14 2.881809 1_555
Na7 O65 2.379781 1_555
Na7 O63 2.462910 1_555
Na7 O44 2.481279 1_455
Na7 O29 2.531353 1_555
Na7 O43 2.557543 1_565
Na7 O8 2.756228 1_555
Na7 O12 2.887445 1_455
Na7 O22 2.902016 1_455
Na8 O63 2.354023 1_555
Na8 O64 2.474437 1_555
Na8 O42 2.489639 1_565
Na8 O27 2.527574 1_555
Na8 O44 2.548325 1_555
Na8 O6 2.692973 1_555
Na8 O23 2.858309 1_565
Na8 O13 2.902215 1_565
Na9 O62 2.370647 1_555
Na9 O61 2.450895 1_555
Na9 O47 2.492877 1_565
Na9 O45 2.503216 1_455
Na9 O26 2.526942 1_554
Na9 O11 2.766173 1_555
Na9 O18 2.873272 1_565
Na9 O16 2.935987 1_565
Na10 O61 2.359350 1_555
Na10 O60 2.428322 1_555
Na10 O46 2.470031 1_455
Na10 O47 2.513235 1_555
Na10 O25 2.522382 1_554
Na10 O10 2.654108 1_555
Na10 O15 2.880665 1_455
Na10 O20 2.929875 1_455
Na11 O40 2.304597 1_655
Na11 O55 2.454846 1_555
Na11 O41 2.458300 1_555
Na11 O4 2.518434 1_555
Na11 O54 2.614808 1_555
Na11 O19 2.708238 1_556
Na11 O33 2.911708 1_655
Na11 O26 2.912788 1_655
Na12 O39 2.314297 1_555
Na12 O56 2.466029 1_555
Na12 O40 2.482725 1_545
Na12 O54 2.487848 1_555
Na12 O3 2.532864 1_555
Na12 O18 2.727083 1_556
Na12 O25 2.892202 1_555
Na12 O35 2.932476 1_555
Na13 O36 2.307219 1_545
Na13 O57 2.419018 1_555
Na13 O38 2.454625 1_555
Na13 O0 2.526343 1_555
Na13 O58 2.598805 1_555
Na13 O21 2.719044 1_555
Na13 O29 2.897096 1_545
Na13 O31 2.927315 1_545
Na14 O37 2.322836 1_555
Na14 O59 2.447574 1_555
Na14 O58 2.477858 1_555
Na14 O36 2.488501 1_655
Na14 O1 2.507571 1_555
Na14 O22 2.699125 1_555
Na14 O27 2.905204 1_555
Na14 O32 2.940626 1_555
Na15 O37 2.337236 1_545
Na15 O38 2.388131 1_655
Na15 O36 2.402648 1_645
Na15 O42 2.575600 1_555
Na15 O44 2.631599 1_545
Na15 O43 2.647728 1_655
Na16 O39 2.367849 1_665
Na16 O41 2.372899 1_555
Na16 O40 2.430848 1_655
Na16 O45 2.576051 1_556
Na16 O46 2.591595 1_566
Na16 O47 2.680739 1_666
Na17 O48 2.353928 1_555
Na17 O50 2.424316 1_555
Na17 O49 2.433800 1_555
Na17 O55 2.540479 1_555
Na17 O56 2.552291 1_555
Na17 O54 2.746711 1_555
Na18 O52 2.377368 1_555
Na18 O51 2.437380 1_555
Na18 O53 2.462194 1_555
Na18 O57 2.525297 1_555
Na18 O59 2.535088 1_555
Na18 O58 2.699509 1_555
Na19 O60 2.312515 1_555
Na19 O61 2.416591 1_555
Na19 O62 2.450349 1_555
Na19 O67 2.592630 1_555
Na19 O68 2.654156 1_555
Na19 O66 2.680340 1_555
Na20 O63 2.387774 1_555
Na20 O64 2.400453 1_555
Na20 O65 2.423237 1_555
Na20 O69 2.605786 1_555
Na20 O70 2.614286 1_555
Na20 O71 2.621993 1_555
Al0 O2 1.839960 1_565
Al0 O1 1.879043 1_555
Al0 O0 1.924908 1_665
Al0 O37 1.955001 1_555
Al0 O36 2.014488 1_655
Al0 O38 2.146208 1_665
Al1 O5 1.839385 1_455
Al1 O3 1.873656 1_555
Al1 O4 1.912260 1_445
Al1 O39 1.945576 1_555
Al1 O40 2.028067 1_545
Al1 O41 2.143594 1_445
Al2 O14 1.893844 1_555
Al2 O13 1.899978 1_555
Al2 O12 1.911187 1_555
Al2 O49 1.984056 1_555
Al2 O48 1.995381 1_555
Al2 O50 2.020366 1_555
Al3 O17 1.866067 1_555
Al3 O15 1.877093 1_555
Al3 O51 1.943560 1_555
Al3 O52 1.986680 1_555
Al3 O53 1.996184 1_555
Al3 O16 2.056186 1_555
Al4 O25 1.870999 1_554
Al4 O26 1.877608 1_554
Al4 O60 1.931467 1_555
Al4 O24 1.933915 1_554
Al4 O61 1.998272 1_555
Al4 O62 2.136955 1_555
Al5 O29 1.876124 1_555
Al5 O27 1.881693 1_555
Al5 O63 1.974826 1_555
Al5 O64 1.979499 1_555
Al5 O65 1.993087 1_555
Al5 O28 1.999387 1_555
O0 Si0 1.611179 1_555
O1 Si1 1.612858 1_555
O2 Si2 1.600929 1_555
O3 Si3 1.610967 1_555
O4 Si4 1.611024 1_555
O5 Si5 1.598328 1_555
O6 Si5 1.673702 1_565
O6 Ta0 1.942635 1_555
O7 Si3 1.670960 1_555
O7 Ta0 1.959855 1_445
O8 Si4 1.667169 1_455
O8 Ta0 1.943311 1_455
O9 Si1 1.661394 1_555
O9 Ta1 1.932856 1_655
O10 Si2 1.665230 1_455
O10 Ta1 1.966297 1_545
O11 Si0 1.668096 1_565
O11 Ta1 1.934467 1_555
O12 Si6 1.611833 1_555
O13 Si7 1.612740 1_555
O14 Si8 1.612845 1_555
O15 Si9 1.616553 1_555
O16 P0 1.537070 1_555
O17 Si10 1.611003 1_555
O18 Si10 1.666982 1_555
O18 Ta2 1.942516 1_554
O19 Si9 1.660634 1_555
O19 Ta2 1.935839 1_554
O20 P0 1.579711 1_555
O20 Ta2 1.972145 1_554
O21 Si7 1.661354 1_555
O21 Ta3 1.964483 1_555
O22 Si8 1.660017 1_555
O22 Ta3 1.966511 1_555
O23 Si6 1.667891 1_555
O23 Ta3 1.891705 1_555
O24 P1 1.504731 1_555
O25 Si11 1.619067 1_555
O26 Si12 1.612240 1_555
O27 Si13 1.621788 1_555
O28 P2 1.529417 1_555
O29 Si14 1.614974 1_555
O30 Si14 1.664246 1_555
O30 Ta4 1.919575 1_555
O31 Si13 1.675844 1_555
O31 Ta4 1.942232 1_555
O32 P2 1.573251 1_555
O32 Ta4 2.017644 1_555
O33 Si11 1.676230 1_555
O33 Ta5 1.938005 1_555
O34 Si12 1.667954 1_555
O34 Ta5 1.920133 1_555
O35 P1 1.579599 1_555
O35 Ta5 2.025721 1_555
O36 Si14 1.630502 1_555
O37 Si13 1.612431 1_555
O38 P2 1.525908 1_555
O39 Si11 1.613613 1_555
O40 Si12 1.632762 1_555
O41 P1 1.532931 1_555
O42 Si6 1.657830 1_555
O42 Ta0 2.014863 1_545
O43 Si7 1.663410 1_555
O43 Ta0 2.020079 1_445
O44 Si8 1.666049 1_555
O44 Ta0 2.026597 1_555
O45 Si9 1.663190 1_555
O45 Ta1 1.992514 1_655
O46 P0 1.560196 1_555
O46 Ta1 2.094330 1_645
O47 Si10 1.690040 1_555
O47 Ta1 2.025527 1_545
O48 Si5 1.620864 1_555
O49 Si3 1.619468 1_555
O50 Si4 1.618324 1_555
O51 Si1 1.623689 1_555
O52 Si2 1.626477 1_555
O53 Si0 1.621463 1_555
O54 P1 1.597387 1_555
O54 Ta2 2.072345 1_555
O55 Si11 1.662808 1_655
O55 Ta2 2.002276 1_555
O56 Si12 1.662194 1_545
O56 Ta2 1.995895 1_555
O57 Si13 1.666281 1_545
O57 Ta3 2.000221 1_555
O58 P2 1.583159 1_555
O58 Ta3 2.132938 1_555
O59 Si14 1.661908 1_655
O59 Ta3 1.989541 1_555
O60 Si10 1.616989 1_555
O61 Si9 1.637024 1_455
O62 P0 1.525891 1_565
O63 Si7 1.626379 1_565
O64 Si8 1.625612 1_555
O65 Si6 1.620281 1_455
O66 Si0 1.670714 1_565
O66 Ta4 1.983453 1_555
O67 Si1 1.661530 1_555
O67 Ta4 2.026291 1_555
O68 Si2 1.669232 1_455
O68 Ta4 2.013328 1_555
O69 Si3 1.663653 1_555
O69 Ta5 2.031546 1_555
O70 Si4 1.671239 1_455
O70 Ta5 1.985292 1_555
O71 Si5 1.665822 1_565
O71 Ta5 2.012121 1_555
