# generated using pymatgen
data_K2In3AgSe6
_symmetry_space_group_name_H-M   'P 1'
_cell_length_a   8.29834724
_cell_length_b   8.29834746
_cell_length_c   21.38390285
_cell_angle_alpha   84.27447969
_cell_angle_beta   84.27447803
_cell_angle_gamma   89.88291636
_symmetry_Int_Tables_number   1
_chemical_formula_structural   K2In3AgSe6
_chemical_formula_sum   'K8 In12 Ag4 Se24'
_cell_volume   1457.84818089
_cell_formula_units_Z   4
loop_
 _symmetry_equiv_pos_site_id
 _symmetry_equiv_pos_as_xyz
  1  'x, y, z'
loop_
 _atom_site_type_symbol
 _atom_site_label
 _atom_site_symmetry_multiplicity
 _atom_site_fract_x
 _atom_site_fract_y
 _atom_site_fract_z
 _atom_site_occupancy
  K  K0  1  0.89530543  0.79497781  0.91684736  1
  K  K1  1  0.20502219  0.10469457  0.58315264  1
  K  K2  1  0.10469457  0.20502219  0.08315264  1
  K  K3  1  0.79497781  0.89530543  0.41684736  1
  K  K4  1  0.39263567  0.74714086  0.91687071  1
  K  K5  1  0.25285914  0.60736433  0.58312929  1
  K  K6  1  0.60736433  0.25285914  0.08312929  1
  K  K7  1  0.74714086  0.39263567  0.41687071  1
  In  In0  1  0.27767496  0.15150725  0.38831051  1
  In  In1  1  0.84849275  0.72232504  0.11168949  1
  In  In2  1  0.72232504  0.84849275  0.61168949  1
  In  In3  1  0.15150725  0.27767496  0.88831051  1
  In  In4  1  0.27876151  0.65106878  0.38855165  1
  In  In5  1  0.34893122  0.72123849  0.11144835  1
  In  In6  1  0.72123849  0.34893122  0.61144835  1
  In  In7  1  0.65106878  0.27876151  0.88855165  1
  In  In8  1  0.06683518  0.43891054  0.24997193  1
  In  In9  1  0.56108946  0.93316482  0.25002807  1
  In  In10  1  0.93316482  0.56108946  0.75002807  1
  In  In11  1  0.43891054  0.06683518  0.74997193  1
  Ag  Ag0  1  0.56247339  0.43752661  0.25000000  1
  Ag  Ag1  1  0.43752661  0.56247339  0.75000000  1
  Ag  Ag2  1  0.06525349  0.93474651  0.25000000  1
  Ag  Ag3  1  0.93474651  0.06525349  0.75000000  1
  Se  Se0  1  0.30514405  0.38207450  0.46088137  1
  Se  Se1  1  0.61792550  0.69485595  0.03911863  1
  Se  Se2  1  0.69485595  0.61792550  0.53911863  1
  Se  Se3  1  0.38207450  0.30514405  0.96088137  1
  Se  Se4  1  0.21426870  0.88232214  0.46067532  1
  Se  Se5  1  0.11767786  0.78573130  0.03932468  1
  Se  Se6  1  0.78573130  0.11767786  0.53932468  1
  Se  Se7  1  0.88232214  0.21426870  0.96067532  1
  Se  Se8  1  0.17455657  0.02667184  0.82522033  1
  Se  Se9  1  0.97332816  0.82544343  0.67477967  1
  Se  Se10  1  0.82544343  0.97332816  0.17477967  1
  Se  Se11  1  0.02667184  0.17455657  0.32522033  1
  Se  Se12  1  0.43871032  0.84077543  0.67463323  1
  Se  Se13  1  0.15922457  0.56128968  0.82536677  1
  Se  Se14  1  0.56128968  0.15922457  0.32536677  1
  Se  Se15  1  0.84077543  0.43871032  0.17463323  1
  Se  Se16  1  0.66190810  0.02694600  0.82568005  1
  Se  Se17  1  0.97305400  0.33809190  0.67431995  1
  Se  Se18  1  0.33809190  0.97305400  0.17431995  1
  Se  Se19  1  0.02694600  0.66190810  0.32568005  1
  Se  Se20  1  0.43723859  0.32851452  0.67438763  1
  Se  Se21  1  0.67148548  0.56276141  0.82561237  1
  Se  Se22  1  0.56276141  0.67148548  0.32561237  1
  Se  Se23  1  0.32851452  0.43723859  0.17438763  1
loop_
_geom_bond_atom_site_label_1
_geom_bond_atom_site_label_2
_geom_bond_distance
_geom_bond_site_symmetry_2
K0 Se5 3.345762 1_656
K0 Se1 3.346408 1_556
K0 Se16 3.353604 1_565
K0 Se8 3.356535 1_665
K0 Se13 3.502655 1_655
K0 Se21 3.529457 1_555
K0 Se7 3.691249 1_565
K1 Se4 3.345762 1_545
K1 Se0 3.346408 1_555
K1 Se17 3.353604 1_455
K1 Se9 3.356535 1_445
K1 Se12 3.502655 1_545
K1 Se20 3.529457 1_555
K1 Se6 3.691249 1_455
K2 Se7 3.345762 1_454
K2 Se3 3.346408 1_554
K2 Se18 3.353604 1_545
K2 Se10 3.356535 1_445
K2 Se15 3.502655 1_455
K2 Se23 3.529457 1_555
K2 Se5 3.691249 1_545
K3 Se6 3.345762 1_565
K3 Se2 3.346408 1_555
K3 Se19 3.353604 1_655
K3 Se11 3.356535 1_665
K3 Se14 3.502655 1_565
K3 Se22 3.529457 1_555
K3 Se4 3.691249 1_655
K4 Se5 3.337315 1_556
K4 Se21 3.344261 1_555
K4 Se1 3.355984 1_556
K4 Se13 3.365932 1_555
K4 Se8 3.504308 1_565
K4 Se16 3.526375 1_565
K4 Se3 3.693586 1_555
K5 Se4 3.337315 1_555
K5 Se20 3.344261 1_555
K5 Se0 3.355984 1_555
K5 Se12 3.365932 1_555
K5 Se9 3.504307 1_455
K5 Se17 3.526375 1_455
K5 Se2 3.693586 1_555
K6 Se7 3.337315 1_554
K6 Se23 3.344261 1_555
K6 Se3 3.355984 1_554
K6 Se15 3.365932 1_555
K6 Se10 3.504308 1_545
K6 Se18 3.526375 1_545
K6 Se1 3.693586 1_555
K7 Se6 3.337315 1_555
K7 Se22 3.344261 1_555
K7 Se2 3.355984 1_555
K7 Se14 3.365932 1_555
K7 Se11 3.504307 1_655
K7 Se19 3.526375 1_655
K7 Se0 3.693586 1_555
In0 Se11 2.588973 1_555
In0 Se14 2.589642 1_555
In0 Se0 2.604958 1_555
In0 Se4 2.610346 1_545
In1 Se10 2.588973 1_555
In1 Se15 2.589642 1_555
In1 Se1 2.604958 1_555
In1 Se5 2.610346 1_655
In2 Se9 2.588973 1_555
In2 Se12 2.589642 1_555
In2 Se2 2.604958 1_555
In2 Se6 2.610346 1_565
In3 Se8 2.588973 1_555
In3 Se13 2.589642 1_555
In3 Se3 2.604958 1_555
In3 Se7 2.610346 1_455
In4 Se22 2.591824 1_555
In4 Se19 2.591893 1_555
In4 Se4 2.601798 1_555
In4 Se0 2.607611 1_555
In5 Se23 2.591824 1_555
In5 Se18 2.591893 1_555
In5 Se5 2.601798 1_555
In5 Se1 2.607611 1_555
In6 Se20 2.591824 1_555
In6 Se17 2.591893 1_555
In6 Se6 2.601798 1_555
In6 Se2 2.607611 1_555
In7 Se21 2.591824 1_555
In7 Se16 2.591893 1_555
In7 Se7 2.601798 1_555
In7 Se3 2.607611 1_555
In8 Se23 2.575282 1_555
In8 Se19 2.577448 1_555
In8 Se11 2.589267 1_555
In8 Se15 2.591924 1_455
In9 Se22 2.575282 1_555
In9 Se18 2.577448 1_555
In9 Se10 2.589266 1_555
In9 Se14 2.591924 1_565
In10 Se21 2.575282 1_555
In10 Se17 2.577448 1_555
In10 Se9 2.589267 1_555
In10 Se13 2.591924 1_655
In11 Se20 2.575282 1_555
In11 Se16 2.577448 1_555
In11 Se8 2.589266 1_555
In11 Se12 2.591924 1_545
Ag0 Se23 2.647787 1_555
Ag0 Se22 2.647787 1_555
Ag0 Se15 2.680543 1_555
Ag0 Se14 2.680543 1_555
Ag1 Se21 2.647787 1_555
Ag1 Se20 2.647787 1_555
Ag1 Se13 2.680543 1_555
Ag1 Se12 2.680543 1_555
Ag2 Se18 2.648672 1_555
Ag2 Se19 2.648672 1_555
Ag2 Se10 2.680171 1_455
Ag2 Se11 2.680171 1_565
Ag3 Se16 2.648672 1_555
Ag3 Se17 2.648672 1_555
Ag3 Se8 2.680171 1_655
Ag3 Se9 2.680171 1_545
