# generated using pymatgen
data_Ba2Mg(CoO3)2
_symmetry_space_group_name_H-M   'P 1'
_cell_length_a   5.83286679
_cell_length_b   5.83249221
_cell_length_c   5.52132658
_cell_angle_alpha   90.07371029
_cell_angle_beta   89.84559297
_cell_angle_gamma   120.01004709
_symmetry_Int_Tables_number   1
_chemical_formula_structural   Ba2Mg(CoO3)2
_chemical_formula_sum   'Ba2 Mg1 Co2 O6'
_cell_volume   162.65399622
_cell_formula_units_Z   1
loop_
 _symmetry_equiv_pos_site_id
 _symmetry_equiv_pos_as_xyz
  1  'x, y, z'
loop_
 _atom_site_type_symbol
 _atom_site_label
 _atom_site_symmetry_multiplicity
 _atom_site_fract_x
 _atom_site_fract_y
 _atom_site_fract_z
 _atom_site_occupancy
  Ba  Ba0  1  0.66677600  0.33366000  0.99980600  1
  Ba  Ba1  1  0.33340000  0.66653600  0.50055500  1
  Mg  Mg0  1  0.66665500  0.33316800  0.49976300  1
  Co  Co0  1  0.00004400  0.99996500  0.23414800  1
  Co  Co1  1  0.99993900  0.00008000  0.76582200  1
  O  O0  1  0.70000000  0.84999300  0.00048600  1
  O  O1  1  0.84782600  0.15215000  0.50081100  1
  O  O2  1  0.14991400  0.85009100  0.99936300  1
  O  O3  1  0.14994400  0.30001800  0.99987900  1
  O  O4  1  0.84776000  0.69546700  0.50001300  1
  O  O5  1  0.30440600  0.15221000  0.49935000  1
loop_
_geom_bond_atom_site_label_1
_geom_bond_atom_site_label_2
_geom_bond_distance
_geom_bond_site_symmetry_2
Ba0 Mg0 2.760429 1_556
Ba0 Mg0 2.760900 1_555
Ba0 O0 2.919408 1_556
Ba0 O2 2.919474 1_655
Ba0 O3 2.921339 1_655
Ba0 O3 2.921418 1_555
Ba0 O2 2.922015 1_545
Ba0 O0 2.922738 1_546
Ba1 O5 2.918893 1_555
Ba1 O1 2.919398 1_455
Ba1 O4 2.919450 1_555
Ba1 O1 2.919657 1_565
Ba1 O4 2.920736 1_455
Ba1 O5 2.920965 1_565
Ba1 O2 3.316506 1_555
Ba1 O3 3.320633 1_555
Ba1 O0 3.320812 1_555
Ba1 O3 3.327055 1_554
Ba1 O0 3.327464 1_556
Ba1 O2 3.334509 1_554
Mg0 O1 1.829622 1_555
Mg0 O5 1.829691 1_555
Mg0 O4 1.829819 1_555
Co0 O2 1.991007 1_554
Co0 O3 1.992327 1_564
Co0 O0 1.992587 1_455
Co0 O5 2.125568 1_565
Co0 O4 2.125934 1_455
Co0 O1 2.126466 1_465
Co1 O0 1.991114 1_546
Co1 O3 1.991263 1_655
Co1 O2 1.991914 1_645
Co1 O1 2.124243 1_555
Co1 O5 2.125763 1_655
Co1 O4 2.126290 1_545
