# generated using pymatgen
data_MgFe6(OF)6
_symmetry_space_group_name_H-M   'P 1'
_cell_length_a   5.10321450
_cell_length_b   14.43430081
_cell_length_c   3.12758243
_cell_angle_alpha   95.89275853
_cell_angle_beta   89.97857860
_cell_angle_gamma   96.69454193
_symmetry_Int_Tables_number   1
_chemical_formula_structural   MgFe6(OF)6
_chemical_formula_sum   'Mg1 Fe6 O6 F6'
_cell_volume   227.58633363
_cell_formula_units_Z   1
loop_
 _symmetry_equiv_pos_site_id
 _symmetry_equiv_pos_as_xyz
  1  'x, y, z'
loop_
 _atom_site_type_symbol
 _atom_site_label
 _atom_site_symmetry_multiplicity
 _atom_site_fract_x
 _atom_site_fract_y
 _atom_site_fract_z
 _atom_site_occupancy
  Mg  Mg0  1  0.55414437  0.34500504  0.69844265  1
  Fe  Fe0  1  0.05257601  0.98843907  0.00586116  1
  Fe  Fe1  1  0.04677870  0.31622707  0.18028251  1
  Fe  Fe2  1  0.93506870  0.68342793  0.86490221  1
  Fe  Fe3  1  0.53838845  0.14450445  0.57549595  1
  Fe  Fe4  1  0.43270115  0.53918691  0.29444966  1
  Fe  Fe5  1  0.43138925  0.83233577  0.43527028  1
  O  O0  1  0.17345888  0.92774584  0.47732436  1
  O  O1  1  0.27773364  0.76841960  0.90507491  1
  O  O2  1  0.35581318  0.08685515  0.05005920  1
  O  O3  1  0.39431994  0.40665841  0.22716784  1
  O  O4  1  0.60998450  0.58222017  0.81490972  1
  O  O5  1  0.68514634  0.24147928  0.14358459  1
  F  F0  1  0.23762038  0.24530789  0.64439037  1
  F  F1  1  0.10293007  0.59320992  0.32215390  1
  F  F2  1  0.67256603  0.91001761  0.96958598  1
  F  F3  1  0.91379578  0.40095707  0.72096860  1
  F  F4  1  0.74552744  0.75385236  0.39821821  1
  F  F5  1  0.85395017  0.06748247  0.54269090  1
loop_
_geom_bond_atom_site_label_1
_geom_bond_atom_site_label_2
_geom_bond_distance
_geom_bond_site_symmetry_2
Mg0 O3 2.014385 1_556
Mg0 O3 2.017224 1_555
Mg0 O5 2.297607 1_556
Mg0 O5 2.321853 1_555
Fe0 O0 1.925740 1_554
Fe0 O0 1.927237 1_555
Fe0 O2 1.969550 1_565
Fe1 O5 2.023260 1_455
Fe1 O3 2.071726 1_555
Fe2 O1 2.011734 1_655
Fe2 O4 2.073404 1_555
Fe3 O2 1.949543 1_555
Fe3 O2 1.958392 1_556
Fe3 O5 2.118511 1_555
Fe3 O5 2.218776 1_556
Fe4 O4 1.874299 1_554
Fe4 O4 1.875228 1_555
Fe4 O3 1.889990 1_555
Fe5 O1 1.932318 1_555
Fe5 O1 1.932338 1_554
Fe5 O0 2.007939 1_555
F0 Mg0 2.029019 1_555
F0 Fe1 2.154518 1_555
F0 Fe1 2.164359 1_556
F0 Fe3 2.230578 1_555
F1 Fe4 1.933825 1_555
F1 Fe2 2.261904 1_455
F1 Fe2 2.262344 1_454
F2 Fe0 2.125315 1_656
F2 Fe5 2.204482 1_555
F2 Fe5 2.214861 1_556
F3 Mg0 1.915372 1_555
F3 Fe1 2.138920 1_656
F3 Fe1 2.141012 1_655
F4 Fe5 2.064726 1_555
F4 Fe2 2.151979 1_554
F4 Fe2 2.152745 1_555
F5 Fe3 2.057604 1_555
F5 Fe0 2.241245 1_645
F5 Fe0 2.244490 1_646
