# generated using pymatgen
data_LiCrPO4F
_symmetry_space_group_name_H-M   'P 1'
_cell_length_a   5.20330500
_cell_length_b   5.35509863
_cell_length_c   7.28399711
_cell_angle_alpha   106.97999773
_cell_angle_beta   108.37660223
_cell_angle_gamma   98.10905652
_symmetry_Int_Tables_number   1
_chemical_formula_structural   LiCrPO4F
_chemical_formula_sum   'Li2 Cr2 P2 O8 F2'
_cell_volume   178.03588415
_cell_formula_units_Z   2
loop_
 _symmetry_equiv_pos_site_id
 _symmetry_equiv_pos_as_xyz
  1  'x, y, z'
loop_
 _atom_site_type_symbol
 _atom_site_label
 _atom_site_symmetry_multiplicity
 _atom_site_fract_x
 _atom_site_fract_y
 _atom_site_fract_z
 _atom_site_occupancy
  Li  Li0  1  0.27182100  0.61549200  0.18953700  1
  Li  Li1  1  0.72817900  0.38450800  0.81046300  1
  Cr  Cr0  1  0.00000000  0.00000000  0.00000000  1
  Cr  Cr1  1  0.00000000  0.00000000  0.50000000  1
  P  P0  1  0.32224600  0.64259800  0.76128400  1
  P  P1  1  0.67775400  0.35740200  0.23871600  1
  O  O0  1  0.30727500  0.34021100  0.65735300  1
  O  O1  1  0.69272500  0.65978900  0.34264700  1
  O  O2  1  0.36915600  0.24548300  0.08267600  1
  O  O3  1  0.74574200  0.21280000  0.39416000  1
  O  O4  1  0.63084400  0.75451700  0.91732400  1
  O  O5  1  0.25425800  0.78720000  0.60584000  1
  O  O6  1  0.12275200  0.66608100  0.88596100  1
  O  O7  1  0.87724800  0.33391900  0.11403900  1
  F  F0  1  0.12595800  0.93227500  0.26316900  1
  F  F1  1  0.87404200  0.06772500  0.73683100  1
loop_
_geom_bond_atom_site_label_1
_geom_bond_atom_site_label_2
_geom_bond_distance
_geom_bond_site_symmetry_2
Li0 O1 2.062867 1_555
Li0 O2 2.102216 1_555
Li0 O7 2.172929 1_455
Li0 O6 2.211869 1_554
Li1 O0 2.062867 1_555
Li1 O4 2.102216 1_555
Li1 O6 2.172929 1_655
Li1 O7 2.211869 1_556
Cr0 O2 1.968825 1_555
Cr0 O4 1.968825 1_444
Cr0 F1 1.979048 1_454
Cr0 F0 1.979048 1_545
Cr0 O7 2.021059 1_455
Cr0 O6 2.021059 1_544
Cr1 O5 1.984590 1_545
Cr1 O3 1.984590 1_455
Cr1 F1 1.987833 1_455
Cr1 F0 1.987833 1_545
Cr1 O0 1.998079 1_555
Cr1 O1 1.998079 1_445
O0 P0 1.553244 1_555
O1 P1 1.553244 1_555
O2 P1 1.552192 1_555
O3 P1 1.530883 1_555
O4 P0 1.552192 1_555
O5 P0 1.530883 1_555
O6 P0 1.575612 1_555
O7 P1 1.575612 1_555
F0 Li0 1.957026 1_555
F1 Li1 1.957026 1_555
