# generated using pymatgen
data_Na2TaGa3Si2(SO6)4
_symmetry_space_group_name_H-M   'P 1'
_cell_length_a   8.65527136
_cell_length_b   8.63435903
_cell_length_c   22.45915195
_cell_angle_alpha   90.13165113
_cell_angle_beta   89.25008900
_cell_angle_gamma   119.96262708
_symmetry_Int_Tables_number   1
_chemical_formula_structural   Na2TaGa3Si2(SO6)4
_chemical_formula_sum   'Na6 Ta3 Ga9 Si6 S12 O72'
_cell_volume   1453.97121028
_cell_formula_units_Z   3
loop_
 _symmetry_equiv_pos_site_id
 _symmetry_equiv_pos_as_xyz
  1  'x, y, z'
loop_
 _atom_site_type_symbol
 _atom_site_label
 _atom_site_symmetry_multiplicity
 _atom_site_fract_x
 _atom_site_fract_y
 _atom_site_fract_z
 _atom_site_occupancy
  Na  Na0  1  0.00094921  0.99487099  0.49820345  1
  Na  Na1  1  0.99986178  0.98711664  0.99858125  1
  Na  Na2  1  0.65245354  0.32933559  0.83226729  1
  Na  Na3  1  0.67857006  0.33662379  0.33184029  1
  Na  Na4  1  0.32289873  0.66021360  0.15965463  1
  Na  Na5  1  0.33062556  0.65854019  0.66638050  1
  Ta  Ta0  1  0.66654870  0.34615290  0.97854818  1
  Ta  Ta1  1  0.31406734  0.65398103  0.31069153  1
  Ta  Ta2  1  0.34291696  0.66482672  0.81455195  1
  Ga  Ga0  1  0.99511993  0.99436991  0.35042814  1
  Ga  Ga1  1  0.01769576  0.99844465  0.85656003  1
  Ga  Ga2  1  0.00754370  0.01008521  0.65241024  1
  Ga  Ga3  1  0.00059885  0.00134303  0.14444624  1
  Ga  Ga4  1  0.65426406  0.33247660  0.68703815  1
  Ga  Ga5  1  0.69612765  0.33880997  0.18421232  1
  Ga  Ga6  1  0.67882256  0.34227767  0.48054295  1
  Ga  Ga7  1  0.33349564  0.68358031  0.01798767  1
  Ga  Ga8  1  0.32343194  0.67199312  0.51561154  1
  Si  Si0  1  0.98492298  0.26576202  0.24898252  1
  Si  Si1  1  0.28587541  0.28155060  0.74878660  1
  Si  Si2  1  0.96973725  0.63444226  0.08521819  1
  Si  Si3  1  0.62907568  0.68256846  0.91992114  1
  Si  Si4  1  0.33098850  0.95660939  0.91804026  1
  Si  Si5  1  0.03467694  0.67226623  0.41985849  1
  S  S0  1  0.29316454  0.00779951  0.24926214  1
  S  S1  1  0.71168143  0.70778972  0.25010991  1
  S  S2  1  0.99610310  0.70773738  0.74794946  1
  S  S3  1  0.71558225  0.00489756  0.74864088  1
  S  S4  1  0.95420222  0.33106718  0.58395795  1
  S  S5  1  0.37908152  0.04435436  0.58227013  1
  S  S6  1  0.66643199  0.62758568  0.58311294  1
  S  S7  1  0.66676974  0.04333253  0.08462157  1
  S  S8  1  0.37814246  0.33497024  0.08651451  1
  S  S9  1  0.04599813  0.37495962  0.91806057  1
  S  S10  1  0.62195706  0.95593955  0.41835138  1
  S  S11  1  0.33388586  0.37613801  0.41895357  1
  O  O0  1  0.21489265  0.03034037  0.30469784  1
  O  O1  1  0.81800836  0.78206727  0.30430278  1
  O  O2  1  0.96840436  0.16305191  0.31092920  1
  O  O3  1  0.19381224  0.16461044  0.80730171  1
  O  O4  1  0.96066963  0.78120400  0.80166331  1
  O  O5  1  0.81673172  0.02861068  0.80208290  1
  O  O6  1  0.78562357  0.96359289  0.69362516  1
  O  O7  1  0.17075054  0.20972965  0.68824029  1
  O  O8  1  0.02836030  0.81696934  0.69310147  1
  O  O9  1  0.78519182  0.81850428  0.19679031  1
  O  O10  1  0.03566064  0.19232911  0.19047787  1
  O  O11  1  0.18106735  0.96158002  0.19691166  1
  O  O12  1  0.87221212  0.36231975  0.63779223  1
  O  O13  1  0.48837855  0.12377161  0.63591909  1
  O  O14  1  0.63476211  0.51560545  0.63683936  1
  O  O15  1  0.87639426  0.51019975  0.14269139  1
  O  O16  1  0.63104998  0.12009215  0.13875671  1
  O  O17  1  0.48669522  0.35702944  0.13894556  1
  O  O18  1  0.46240095  0.30485377  0.03047689  1
  O  O19  1  0.83665084  0.53185496  0.02687753  1
  O  O20  1  0.69171709  0.15477353  0.03066995  1
  O  O21  1  0.46133590  0.15688979  0.52806034  1
  O  O22  1  0.69849886  0.54758851  0.52895144  1
  O  O23  1  0.84577494  0.30242369  0.52991025  1
  O  O24  1  0.52947920  0.69478507  0.97807722  1
  O  O25  1  0.15248030  0.45321573  0.97079592  1
  O  O26  1  0.29417060  0.83596220  0.97522248  1
  O  O27  1  0.54360462  0.84348461  0.47266881  1
  O  O28  1  0.30652338  0.46025428  0.47255697  1
  O  O29  1  0.16217226  0.70656894  0.47594797  1
  O  O30  1  0.13554682  0.63790833  0.36067208  1
  O  O31  1  0.51233007  0.87144152  0.36453501  1
  O  O32  1  0.36662017  0.49171924  0.36420563  1
  O  O33  1  0.12442901  0.48994776  0.86280660  1
  O  O34  1  0.36227530  0.86365688  0.85722414  1
  O  O35  1  0.50019350  0.63123056  0.85939658  1
  O  O36  1  0.02056113  0.84939658  0.40690435  1
  O  O37  1  0.80052603  0.97668921  0.41224724  1
  O  O38  1  0.17359743  0.20177844  0.41171185  1
  O  O39  1  0.01991249  0.19809460  0.90922252  1
  O  O40  1  0.16264837  0.98361215  0.91203148  1
  O  O41  1  0.81841251  0.85161754  0.90522408  1
  O  O42  1  0.96922655  0.16704381  0.58887778  1
  O  O43  1  0.19733548  0.02168470  0.58803315  1
  O  O44  1  0.82874299  0.80736765  0.59024444  1
  O  O45  1  0.97884370  0.82761938  0.09131992  1
  O  O46  1  0.83147851  0.03326242  0.08856048  1
  O  O47  1  0.20166694  0.17122733  0.08818071  1
  O  O48  1  0.69523125  0.16407198  0.74051794  1
  O  O49  1  0.48837632  0.31162574  0.74251985  1
  O  O50  1  0.84037191  0.52510143  0.74048883  1
  O  O51  1  0.67918071  0.52429498  0.24420876  1
  O  O52  1  0.81942634  0.30342377  0.24597560  1
  O  O53  1  0.47133697  0.16449812  0.24208350  1
  O  O54  1  0.64464687  0.49857596  0.92354724  1
  O  O55  1  0.86704754  0.36210290  0.92271472  1
  O  O56  1  0.51675424  0.15022898  0.92493757  1
  O  O57  1  0.63190513  0.13203945  0.42455345  1
  O  O58  1  0.49505689  0.35929022  0.42371275  1
  O  O59  1  0.84307297  0.48788359  0.42394329  1
  O  O60  1  0.36341713  0.49465939  0.07834398  1
  O  O61  1  0.15924157  0.64074706  0.07674166  1
  O  O62  1  0.50977881  0.86410204  0.07987115  1
  O  O63  1  0.36454221  0.86438913  0.57716886  1
  O  O64  1  0.50411140  0.64470849  0.57585576  1
  O  O65  1  0.13643166  0.49206250  0.57768621  1
  O  O66  1  0.31830113  0.84353010  0.25813071  1
  O  O67  1  0.53144887  0.69508655  0.25980862  1
  O  O68  1  0.17145052  0.47466710  0.25824331  1
  O  O69  1  0.30725432  0.48468073  0.75583356  1
  O  O70  1  0.15952107  0.69197027  0.75405420  1
  O  O71  1  0.53000376  0.84188604  0.75380731  1
loop_
_geom_bond_atom_site_label_1
_geom_bond_atom_site_label_2
_geom_bond_distance
_geom_bond_site_symmetry_2
Na0 O36 2.450128 1_555
Na0 O38 2.543893 1_565
Na0 O37 2.564172 1_455
Na0 O44 2.576856 1_455
Na0 O43 2.589918 1_565
Na0 O42 2.609931 1_465
Na1 O40 2.394829 1_655
Na1 O45 2.453744 1_556
Na1 O41 2.543831 1_555
Na1 O46 2.620282 1_566
Na1 O47 2.632719 1_666
Na1 O39 2.658608 1_665
Na2 O49 2.441231 1_555
Na2 O56 2.497870 1_555
Na2 O54 2.534548 1_555
Na2 O48 2.629379 1_555
Na2 O50 2.633158 1_555
Na2 O55 2.688412 1_555
Na3 O52 2.360597 1_555
Na3 O59 2.493817 1_555
Na3 O51 2.550520 1_555
Na3 O57 2.627075 1_555
Na3 O53 2.628279 1_555
Na3 O58 2.653595 1_555
Na4 O61 2.309140 1_555
Na4 O60 2.444013 1_555
Na4 O62 2.453690 1_555
Na4 O68 2.651477 1_555
Na4 O66 2.728186 1_555
Na4 O67 2.822915 1_555
Na5 O69 2.455720 1_555
Na5 O64 2.549627 1_555
Na5 O70 2.549874 1_555
Na5 O65 2.553533 1_555
Na5 O71 2.585567 1_555
Na5 O63 2.596057 1_555
Ga0 O2 1.819181 1_565
Ga0 O36 1.874610 1_655
Ga0 O1 2.002327 1_555
Ga0 O0 2.032207 1_665
Ga0 O37 2.114390 1_555
Ga0 O38 2.183773 1_665
Ga1 O40 1.828851 1_555
Ga1 O3 1.839720 1_565
Ga1 O41 1.884056 1_455
Ga1 O39 2.080654 1_565
Ga1 O4 2.088696 1_455
Ga1 O5 2.258326 1_465
Ga2 O7 1.790414 1_555
Ga2 O6 1.972904 1_445
Ga2 O8 1.989821 1_545
Ga2 O42 2.110185 1_455
Ga2 O43 2.138491 1_555
Ga2 O44 2.178903 1_445
Ga3 O10 1.838682 1_555
Ga3 O45 1.850574 1_445
Ga3 O47 2.044074 1_555
Ga3 O46 2.060742 1_455
Ga3 O9 2.088417 1_445
Ga3 O11 2.128826 1_545
Ga4 O49 1.828288 1_555
Ga4 O13 2.018947 1_555
Ga4 O14 2.019786 1_555
Ga4 O50 2.041422 1_555
Ga4 O48 2.053504 1_555
Ga4 O12 2.075897 1_555
Ga5 O15 1.776476 1_555
Ga5 O52 1.876916 1_555
Ga5 O16 1.967119 1_555
Ga5 O51 2.149812 1_555
Ga5 O17 2.162870 1_555
Ga5 O53 2.181241 1_555
Ga6 O59 1.841816 1_555
Ga6 O23 1.994039 1_555
Ga6 O22 2.011971 1_555
Ga6 O21 2.046978 1_555
Ga6 O57 2.075554 1_555
Ga6 O58 2.113733 1_555
Ga7 O26 1.797543 1_554
Ga7 O24 1.867321 1_554
Ga7 O61 1.883011 1_555
Ga7 O62 2.087875 1_555
Ga7 O25 2.110765 1_554
Ga7 O60 2.237579 1_555
Ga8 O29 1.811287 1_555
Ga8 O27 1.973355 1_555
Ga8 O28 2.006787 1_555
Ga8 O63 2.051711 1_555
Ga8 O65 2.101458 1_555
Ga8 O64 2.180967 1_555
O0 S0 1.468152 1_555
O1 S1 1.475068 1_555
O2 Si0 1.617518 1_555
O3 Si1 1.598935 1_555
O4 S2 1.460440 1_555
O5 S3 1.447873 1_555
O6 S3 1.488541 1_565
O7 Si1 1.625092 1_555
O8 S2 1.489368 1_455
O9 S1 1.459614 1_555
O10 Si0 1.606413 1_455
O11 S0 1.457374 1_565
O12 S4 1.485123 1_555
O13 S5 1.481557 1_555
O14 S6 1.482553 1_555
O15 Si2 1.607184 1_555
O16 S7 1.484661 1_555
O17 S8 1.467943 1_555
O18 S8 1.532100 1_555
O18 Ta0 1.981939 1_554
O19 Si2 1.686212 1_555
O19 Ta0 1.895402 1_554
O20 S7 1.493889 1_555
O20 Ta0 2.126842 1_554
O21 S5 1.491670 1_555
O22 S6 1.487483 1_555
O23 S4 1.487266 1_555
O24 Si3 1.587748 1_555
O25 S9 1.453137 1_555
O26 Si4 1.581106 1_555
O27 S10 1.488947 1_555
O28 S11 1.480966 1_555
O29 Si5 1.612623 1_555
O30 Si5 1.686335 1_555
O30 Ta1 1.846052 1_555
O31 S10 1.492642 1_555
O31 Ta1 2.181295 1_555
O32 S11 1.517302 1_555
O32 Ta1 2.067097 1_555
O33 S9 1.515564 1_555
O33 Ta2 2.032814 1_555
O34 Si4 1.668972 1_555
O34 Ta2 1.898207 1_555
O35 Si3 1.682748 1_555
O35 Ta2 1.839366 1_555
O36 Si5 1.621197 1_555
O37 S10 1.468889 1_555
O38 S11 1.461564 1_555
O39 S9 1.441471 1_555
O40 Si4 1.593776 1_555
O41 Si3 1.588643 1_555
O42 S4 1.489933 1_555
O43 S5 1.488897 1_555
O44 S6 1.495110 1_555
O45 Si2 1.635542 1_555
O46 S7 1.474744 1_555
O47 S8 1.474795 1_555
O48 S3 1.482230 1_555
O49 Si1 1.642646 1_555
O50 S2 1.487681 1_555
O51 S1 1.470279 1_555
O52 Si0 1.621739 1_555
O53 S0 1.464619 1_555
O54 Si3 1.662340 1_555
O54 Ta0 1.885920 1_555
O55 S9 1.498768 1_655
O55 Ta0 2.075581 1_555
O56 Si4 1.650584 1_545
O56 Ta0 1.957843 1_555
O57 S10 1.485710 1_545
O58 S11 1.478251 1_555
O59 Si5 1.628706 1_655
O60 S8 1.458887 1_555
O61 Si2 1.622401 1_455
O62 S7 1.468065 1_565
O63 S5 1.499252 1_565
O64 S6 1.495269 1_555
O65 S4 1.498314 1_455
O66 S0 1.552232 1_565
O66 Ta1 2.005310 1_555
O67 S1 1.520942 1_555
O67 Ta1 2.061677 1_555
O68 Si0 1.732493 1_455
O68 Ta1 1.851772 1_555
O69 Si1 1.676534 1_555
O69 Ta2 1.943060 1_555
O70 S2 1.495138 1_455
O70 Ta2 2.202326 1_555
O71 S3 1.520578 1_565
O71 Ta2 2.073534 1_555
