# generated using pymatgen
data_PrRu2
_symmetry_space_group_name_H-M   'P 1'
_cell_length_a   5.42091131
_cell_length_b   5.42086650
_cell_length_c   5.42087915
_cell_angle_alpha   59.99980646
_cell_angle_beta   60.00001486
_cell_angle_gamma   59.99996083
_symmetry_Int_Tables_number   1
_chemical_formula_structural   PrRu2
_chemical_formula_sum   'Pr2 Ru4'
_cell_volume   112.64061836
_cell_formula_units_Z   2
loop_
 _symmetry_equiv_pos_site_id
 _symmetry_equiv_pos_as_xyz
  1  'x, y, z'
loop_
 _atom_site_type_symbol
 _atom_site_label
 _atom_site_symmetry_multiplicity
 _atom_site_fract_x
 _atom_site_fract_y
 _atom_site_fract_z
 _atom_site_occupancy
  Pr  Pr0  1  0.12500209  0.12499572  0.12500109  1
  Pr  Pr1  1  0.87499791  0.87500428  0.87499891  1
  Ru  Ru0  1  0.50000000  0.00000000  0.50000000  1
  Ru  Ru1  1  -0.00000000  0.50000000  0.50000000  1
  Ru  Ru2  1  0.50000000  0.50000000  0.50000000  1
  Ru  Ru3  1  0.50000000  0.50000000  0.00000000  1
loop_
_geom_bond_atom_site_label_1
_geom_bond_atom_site_label_2
_geom_bond_distance
_geom_bond_site_symmetry_2
Pr0 Ru1 3.178246 1_545
Pr0 Ru2 3.178249 1_545
Pr0 Ru3 3.178249 1_545
Pr0 Ru0 3.178269 1_554
Pr0 Ru0 3.178276 1_555
Pr0 Ru1 3.178277 1_554
Pr0 Ru2 3.178278 1_554
Pr0 Ru1 3.178280 1_555
Pr0 Ru3 3.178286 1_555
Pr0 Ru0 3.178288 1_455
Pr0 Ru2 3.178294 1_455
Pr0 Ru3 3.178299 1_455
Pr1 Ru1 3.178246 1_665
Pr1 Ru2 3.178249 1_565
Pr1 Ru3 3.178249 1_566
Pr1 Ru0 3.178269 1_566
Pr1 Ru0 3.178276 1_565
Pr1 Ru1 3.178277 1_656
Pr1 Ru2 3.178278 1_556
Pr1 Ru1 3.178280 1_655
Pr1 Ru3 3.178286 1_556
Pr1 Ru0 3.178288 1_665
Pr1 Ru2 3.178294 1_655
Pr1 Ru3 3.178299 1_656
Ru0 Ru3 2.710428 1_555
Ru0 Ru3 2.710428 1_546
Ru0 Ru2 2.710433 1_545
Ru0 Ru2 2.710433 1_555
Ru0 Ru1 2.710443 1_645
Ru0 Ru1 2.710443 1_555
Ru1 Ru3 2.710448 1_456
Ru1 Ru3 2.710448 1_555
Ru1 Ru2 2.710456 1_455
Ru1 Ru2 2.710456 1_555
Ru2 Ru3 2.710440 1_556
Ru2 Ru3 2.710440 1_555
