# generated using pymatgen
data_Al2P2H9NO11
_symmetry_space_group_name_H-M   'P 1'
_cell_length_a   9.66420800
_cell_length_b   9.64770700
_cell_length_c   11.97162831
_cell_angle_alpha   52.20066284
_cell_angle_beta   90.00000000
_cell_angle_gamma   90.00000000
_symmetry_Int_Tables_number   1
_chemical_formula_structural   Al2P2H9NO11
_chemical_formula_sum   'Al8 P8 H36 N4 O44'
_cell_volume   881.98214893
_cell_formula_units_Z   4
loop_
 _symmetry_equiv_pos_site_id
 _symmetry_equiv_pos_as_xyz
  1  'x, y, z'
loop_
 _atom_site_type_symbol
 _atom_site_label
 _atom_site_symmetry_multiplicity
 _atom_site_fract_x
 _atom_site_fract_y
 _atom_site_fract_z
 _atom_site_occupancy
  Al  Al0  1  0.76933300  0.29299800  0.81482000  1
  Al  Al1  1  0.26933300  0.70700200  0.68518000  1
  Al  Al2  1  0.23066700  0.70700200  0.18518000  1
  Al  Al3  1  0.73066700  0.29299800  0.31482000  1
  Al  Al4  1  0.53596000  0.98724400  0.12775900  1
  Al  Al5  1  0.03596000  0.01275600  0.37224100  1
  Al  Al6  1  0.46404000  0.01275600  0.87224100  1
  Al  Al7  1  0.96404000  0.98724400  0.62775900  1
  P  P0  1  0.69192100  0.15944700  0.63544300  1
  P  P1  1  0.19192100  0.84055300  0.86455700  1
  P  P2  1  0.30807900  0.84055300  0.36455700  1
  P  P3  1  0.80807900  0.15944700  0.13544300  1
  P  P4  1  0.46449500  0.34916600  0.84889300  1
  P  P5  1  0.96449500  0.65083400  0.65110700  1
  P  P6  1  0.53550500  0.65083400  0.15110700  1
  P  P7  1  0.03550500  0.34916600  0.34889300  1
  H  H0  1  0.63891700  0.56082000  0.85765500  1
  H  H1  1  0.13891700  0.43918000  0.64234500  1
  H  H2  1  0.36108300  0.43918000  0.14234500  1
  H  H3  1  0.86108300  0.56082000  0.35765500  1
  H  H4  1  0.77792700  0.67837200  0.83170500  1
  H  H5  1  0.27792700  0.32162800  0.66829500  1
  H  H6  1  0.22207300  0.32162800  0.16829500  1
  H  H7  1  0.72207300  0.67837200  0.33170500  1
  H  H8  1  0.72964700  0.50186200  0.99878900  1
  H  H9  1  0.22964700  0.49813800  0.50121100  1
  H  H10  1  0.27035300  0.49813800  0.00121100  1
  H  H11  1  0.77035300  0.50186200  0.49878900  1
  H  H12  1  0.63479900  0.68854700  0.91320200  1
  H  H13  1  0.13479900  0.31145300  0.58679800  1
  H  H14  1  0.36520100  0.31145300  0.08679800  1
  H  H15  1  0.86520100  0.68854700  0.41320200  1
  H  H16  1  0.95983700  0.09238700  0.81088900  1
  H  H17  1  0.45983700  0.90761300  0.68911100  1
  H  H18  1  0.04016300  0.90761300  0.18911100  1
  H  H19  1  0.54016300  0.09238700  0.31088900  1
  H  H20  1  0.86589400  0.65066100  0.11390100  1
  H  H21  1  0.36589400  0.34933900  0.38609900  1
  H  H22  1  0.13410600  0.34933900  0.88609900  1
  H  H23  1  0.63410600  0.65066100  0.61390100  1
  H  H24  1  0.91439500  0.80754400  0.95866000  1
  H  H25  1  0.79982200  0.96084900  0.48020400  1
  H  H26  1  0.08560500  0.19245600  0.04134000  1
  H  H27  1  0.58560500  0.80754400  0.45866000  1
  H  H28  1  0.01280000  0.16518600  0.89664400  1
  H  H29  1  0.51280000  0.83481400  0.60335600  1
  H  H30  1  0.98720000  0.83481400  0.10335600  1
  H  H31  1  0.48720000  0.16518600  0.39664400  1
  H  H32  1  0.70017800  0.96084900  0.98020400  1
  H  H33  1  0.20017800  0.03915100  0.51979600  1
  H  H34  1  0.29982200  0.03915100  0.01979600  1
  H  H35  1  0.41439500  0.19245600  0.54134000  1
  N  N0  1  0.19475900  0.38989000  0.60002100  1
  N  N1  1  0.30524100  0.38989000  0.10002100  1
  N  N2  1  0.80524100  0.61011000  0.39997900  1
  N  N3  1  0.69475900  0.61011000  0.89997900  1
  O  O0  1  0.55062100  0.06984100  0.70767800  1
  O  O1  1  0.58666400  0.75532600  0.20320300  1
  O  O2  1  0.91333600  0.75532600  0.70320300  1
  O  O3  1  0.41333600  0.24467400  0.79679700  1
  O  O4  1  0.77201700  0.29087300  0.16467100  1
  O  O5  1  0.27201700  0.70912700  0.33532900  1
  O  O6  1  0.22798300  0.70912700  0.83532900  1
  O  O7  1  0.72798300  0.29087300  0.66467100  1
  O  O8  1  0.82301500  0.26529900  0.97520900  1
  O  O9  1  0.32301500  0.73470100  0.52479100  1
  O  O10  1  0.17698500  0.73470100  0.02479100  1
  O  O11  1  0.67698500  0.26529900  0.47520900  1
  O  O12  1  0.47558500  0.22370000  0.01378700  1
  O  O13  1  0.19718200  0.98447300  0.30460000  1
  O  O14  1  0.30281800  0.98447300  0.80460000  1
  O  O15  1  0.80281800  0.01552700  0.69540000  1
  O  O16  1  0.94937900  0.06984100  0.20767800  1
  O  O17  1  0.44937900  0.93015900  0.29232200  1
  O  O18  1  0.05062100  0.93015900  0.79232200  1
  O  O19  1  0.08666400  0.24467400  0.29679700  1
  O  O20  1  0.86517200  0.05793100  0.44563700  1
  O  O21  1  0.36517200  0.94206900  0.05436300  1
  O  O22  1  0.13482800  0.94206900  0.55436300  1
  O  O23  1  0.63482800  0.05793100  0.94563700  1
  O  O24  1  0.36732700  0.49835100  0.80554900  1
  O  O25  1  0.86732700  0.50164900  0.69445100  1
  O  O26  1  0.63267300  0.50164900  0.19445100  1
  O  O27  1  0.13267300  0.49835100  0.30554900  1
  O  O28  1  0.56915600  0.15003500  0.35224400  1
  O  O29  1  0.06915600  0.84996500  0.14775600  1
  O  O30  1  0.43084400  0.84996500  0.64775600  1
  O  O31  1  0.93084400  0.15003500  0.85224400  1
  O  O32  1  0.61093100  0.42638000  0.78584100  1
  O  O33  1  0.11093100  0.57362000  0.71415900  1
  O  O34  1  0.38906900  0.57362000  0.21415900  1
  O  O35  1  0.88906900  0.42638000  0.28584100  1
  O  O36  1  0.63435900  0.78003700  0.54221000  1
  O  O37  1  0.13435900  0.21996300  0.95779000  1
  O  O38  1  0.36564100  0.21996300  0.45779000  1
  O  O39  1  0.86564100  0.78003700  0.04221000  1
  O  O40  1  0.97558500  0.77630000  0.48621300  1
  O  O41  1  0.52441500  0.77630000  0.98621300  1
  O  O42  1  0.02441500  0.22370000  0.51378700  1
  O  O43  1  0.69718200  0.01552700  0.19540000  1
loop_
_geom_bond_atom_site_label_1
_geom_bond_atom_site_label_2
_geom_bond_distance
_geom_bond_site_symmetry_2
Al0 O8 1.843485 1_555
Al0 O7 1.853751 1_555
Al0 O25 1.862748 1_555
Al0 O32 1.890104 1_555
Al0 O31 1.944725 1_555
Al0 O23 2.220787 1_555
Al1 O9 1.843485 1_555
Al1 O6 1.853751 1_555
Al1 O24 1.862748 1_555
Al1 O33 1.890104 1_555
Al1 O30 1.944725 1_555
Al1 O22 2.220787 1_555
Al2 O10 1.843485 1_555
Al2 O5 1.853751 1_555
Al2 O27 1.862748 1_555
Al2 O34 1.890104 1_555
Al2 O29 1.944725 1_555
Al2 O21 2.220787 1_555
Al3 O11 1.843485 1_555
Al3 O4 1.853751 1_555
Al3 O26 1.862748 1_555
Al3 O35 1.890104 1_555
Al3 O28 1.944725 1_555
Al3 O20 2.220787 1_555
Al4 O43 1.851665 1_565
Al4 O17 1.885389 1_555
Al4 O1 1.893410 1_555
Al4 O12 1.894946 1_565
Al4 O21 2.038551 1_555
Al4 O23 2.075835 1_564
Al5 O13 1.851665 1_545
Al5 O16 1.885389 1_455
Al5 O19 1.893410 1_555
Al5 O40 1.894946 1_445
Al5 O20 2.038551 1_455
Al5 O22 2.075835 1_545
Al6 O14 1.851665 1_545
Al6 O0 1.885389 1_555
Al6 O3 1.893410 1_555
Al6 O41 1.894946 1_545
Al6 O23 2.038551 1_555
Al6 O21 2.075835 1_546
Al7 O15 1.851665 1_565
Al7 O18 1.885389 1_655
Al7 O2 1.893410 1_555
Al7 O42 1.894946 1_665
Al7 O22 2.038551 1_655
Al7 O20 2.075835 1_565
H0 N3 1.034147 1_555
H1 N0 1.034147 1_555
H2 N1 1.034147 1_555
H3 N2 1.034147 1_555
H4 N3 1.043059 1_555
H5 N0 1.043059 1_555
H6 N1 1.043059 1_555
H7 N2 1.043059 1_555
H8 N3 1.043702 1_555
H9 N0 1.043702 1_555
H10 N1 1.043702 1_555
H11 N2 1.043702 1_555
H12 N3 1.039390 1_555
H13 N0 1.039390 1_555
H14 N1 1.039390 1_555
H15 N2 1.039390 1_555
H16 O31 0.985126 1_555
H17 O30 0.985126 1_555
H18 O29 0.985126 1_555
H19 O28 0.985126 1_555
H20 O39 0.990667 1_555
H21 O38 0.990667 1_555
H22 O37 0.990667 1_555
H23 O36 0.990667 1_555
H24 O39 0.983621 1_556
H25 O20 0.986030 1_565
H26 O37 0.983621 1_554
H27 O36 0.983621 1_555
H28 O31 1.013148 1_455
H29 O30 1.013148 1_555
H30 O29 1.013148 1_655
H31 O28 1.013148 1_555
H32 O23 0.986030 1_565
H33 O22 0.986030 1_545
H34 O21 0.986030 1_545
H35 O38 0.983621 1_555
O0 P0 1.563176 1_555
O1 P6 1.555760 1_555
O2 P5 1.555760 1_555
O3 P4 1.555760 1_555
O4 P3 1.547728 1_555
O5 P2 1.547728 1_555
O6 P1 1.547728 1_555
O7 P0 1.547728 1_555
O8 P3 1.530411 1_556
O9 P2 1.530411 1_555
O10 P1 1.530411 1_554
O11 P0 1.530411 1_555
O12 P4 1.563497 1_554
O13 P2 1.539503 1_555
O14 P1 1.539503 1_555
O15 P0 1.539503 1_555
O16 P3 1.563176 1_555
O17 P2 1.563176 1_555
O18 P1 1.563176 1_555
O19 P7 1.555760 1_555
O24 P4 1.518933 1_555
O25 P5 1.518933 1_555
O26 P6 1.518933 1_555
O27 P7 1.518933 1_555
O32 P4 1.561472 1_555
O33 P5 1.561472 1_455
O34 P6 1.561472 1_555
O35 P7 1.561472 1_655
O40 P5 1.563497 1_555
O41 P6 1.563497 1_556
O42 P7 1.563497 1_555
O43 P3 1.539503 1_555
