# generated using pymatgen
data_NaHf2Zr2P5SO24
_symmetry_space_group_name_H-M   'P 1'
_cell_length_a   8.90661343
_cell_length_b   8.91428118
_cell_length_c   23.21825665
_cell_angle_alpha   90.01853339
_cell_angle_beta   89.94667068
_cell_angle_gamma   120.03546263
_symmetry_Int_Tables_number   1
_chemical_formula_structural   NaHf2Zr2P5SO24
_chemical_formula_sum   'Na3 Hf6 Zr6 P15 S3 O72'
_cell_volume   1595.89264613
_cell_formula_units_Z   3
loop_
 _symmetry_equiv_pos_site_id
 _symmetry_equiv_pos_as_xyz
  1  'x, y, z'
loop_
 _atom_site_type_symbol
 _atom_site_label
 _atom_site_symmetry_multiplicity
 _atom_site_fract_x
 _atom_site_fract_y
 _atom_site_fract_z
 _atom_site_occupancy
  Na  Na0  1  0.67122000  0.33861906  0.83505744  1
  Na  Na1  1  0.66727089  0.33411073  0.33023480  1
  Na  Na2  1  0.33356009  0.66751783  0.16756164  1
  Hf  Hf0  1  0.00094290  0.00014483  0.35418631  1
  Hf  Hf1  1  0.99905678  0.00015843  0.14440624  1
  Hf  Hf2  1  0.66688571  0.33273246  0.18702034  1
  Hf  Hf3  1  0.67254193  0.33922030  0.98338380  1
  Hf  Hf4  1  0.33535428  0.66043543  0.02196149  1
  Hf  Hf5  1  0.33263329  0.66614260  0.31160844  1
  Zr  Zr0  1  0.99318269  -0.00040604  0.85685049  1
  Zr  Zr1  1  0.00520510  0.99898241  0.64707287  1
  Zr  Zr2  1  0.66229719  0.32668407  0.68900703  1
  Zr  Zr3  1  0.65883314  0.32775942  0.47600048  1
  Zr  Zr4  1  0.33331443  0.67234622  0.51811711  1
  Zr  Zr5  1  0.33112103  0.65898395  0.80980164  1
  P  P0  1  0.28763918  0.00012432  0.24963276  1
  P  P1  1  0.71268231  0.71199545  0.24985551  1
  P  P2  1  -0.00060630  0.28710197  0.24985336  1
  P  P3  1  0.28700049  0.28526992  0.75086582  1
  P  P4  1  0.99903978  0.71113837  0.75102020  1
  P  P5  1  0.71198745  -0.00088766  0.75009960  1
  P  P6  1  0.37757460  0.04338743  0.58310407  1
  P  P7  1  0.95808516  0.62379879  0.08440679  1
  P  P8  1  0.66546192  0.04405795  0.08362651  1
  P  P9  1  0.37845067  0.33171469  0.08401828  1
  P  P10  1  0.61892900  0.66147369  0.91693519  1
  P  P11  1  0.04302462  0.38037269  0.91708835  1
  P  P12  1  0.62359802  0.95341148  0.41503703  1
  P  P13  1  0.32962781  0.37841280  0.41570915  1
  P  P14  1  0.04407521  0.66766722  0.41535488  1
  S  S0  1  0.95618754  0.33326191  0.58307123  1
  S  S1  1  0.66604932  0.62234798  0.58318151  1
  S  S2  1  0.33607233  0.95681201  0.91709218  1
  O  O0  1  0.20351988  0.02655275  0.30386041  1
  O  O1  1  0.82336086  0.79673051  0.30392993  1
  O  O2  1  0.97321844  0.17656955  0.30395922  1
  O  O3  1  0.20550098  0.17248950  0.80402140  1
  O  O4  1  0.96869663  0.79547604  0.80395564  1
  O  O5  1  0.82667547  0.03172624  0.80353731  1
  O  O6  1  0.79655941  0.97510264  0.69585376  1
  O  O7  1  0.17808579  0.20283788  0.69625664  1
  O  O8  1  0.02425397  0.82118460  0.69629383  1
  O  O9  1  0.79716411  0.82355626  0.19611060  1
  O  O10  1  0.02659197  0.20292451  0.19609189  1
  O  O11  1  0.17611093  0.97336672  0.19600900  1
  O  O12  1  0.87546574  0.36159642  0.63481268  1
  O  O13  1  0.49276414  0.13216290  0.63642013  1
  O  O14  1  0.64110111  0.51463302  0.63483824  1
  O  O15  1  0.87151451  0.50584929  0.13696161  1
  O  O16  1  0.63499025  0.12995432  0.13676744  1
  O  O17  1  0.49511328  0.36427229  0.13694975  1
  O  O18  1  0.46485366  0.30827565  0.02964228  1
  O  O19  1  0.84516661  0.53743733  0.03008818  1
  O  O20  1  0.69072556  0.15651067  0.02957853  1
  O  O21  1  0.46619080  0.15984454  0.53025592  1
  O  O22  1  0.69540331  0.54205620  0.53190041  1
  O  O23  1  0.84763819  0.30752221  0.53189903  1
  O  O24  1  0.53301832  0.68982315  0.97025238  1
  O  O25  1  0.15602398  0.46923603  0.97030618  1
  O  O26  1  0.31087107  0.85017271  0.96861134  1
  O  O27  1  0.53903727  0.84523082  0.47008188  1
  O  O28  1  0.30767384  0.46325121  0.47064374  1
  O  O29  1  0.15448510  0.69266006  0.47017382  1
  O  O30  1  0.13011061  0.63571887  0.36300221  1
  O  O31  1  0.50530316  0.86909141  0.36284743  1
  O  O32  1  0.36289962  0.49533677  0.36300357  1
  O  O33  1  0.12697563  0.49372908  0.86319271  1
  O  O34  1  0.36441192  0.87870149  0.86514808  1
  O  O35  1  0.50693514  0.63614194  0.86313381  1
  O  O36  1  0.02470055  0.82646283  0.40673657  1
  O  O37  1  0.80253587  0.97481892  0.40675207  1
  O  O38  1  0.17315037  0.19850944  0.40686742  1
  O  O39  1  0.02669231  0.20168697  0.90810968  1
  O  O40  1  0.18160024  0.97490628  0.90951761  1
  O  O41  1  0.79968469  0.82214625  0.90829841  1
  O  O42  1  0.97239325  0.17811175  0.59133016  1
  O  O43  1  0.19841771  0.02547196  0.59224136  1
  O  O44  1  0.81977981  0.79555402  0.59119399  1
  O  O45  1  0.97553973  0.80131942  0.09322399  1
  O  O46  1  0.82475243  0.02472878  0.09298622  1
  O  O47  1  0.19921677  0.17382511  0.09299425  1
  O  O48  1  0.69378887  0.16333429  0.74299485  1
  O  O49  1  0.47117017  0.30921115  0.74289285  1
  O  O50  1  0.83758766  0.52896938  0.74180981  1
  O  O51  1  0.69113955  0.52870143  0.24272253  1
  O  O52  1  0.83761557  0.30881742  0.24283950  1
  O  O53  1  0.47122028  0.16222809  0.24273732  1
  O  O54  1  0.63903607  0.49944295  0.92427457  1
  O  O55  1  0.85885676  0.35644279  0.92426837  1
  O  O56  1  0.49140531  0.13246084  0.92396513  1
  O  O57  1  0.64280363  0.13611901  0.42352731  1
  O  O58  1  0.49492015  0.36038702  0.42335929  1
  O  O59  1  0.86282769  0.50470685  0.42483217  1
  O  O60  1  0.35917413  0.49540522  0.07608288  1
  O  O61  1  0.13926036  0.64323095  0.07494307  1
  O  O62  1  0.50229876  0.86254203  0.07483207  1
  O  O63  1  0.35887260  0.86437136  0.57445869  1
  O  O64  1  0.51116636  0.63902201  0.57558348  1
  O  O65  1  0.12936282  0.48667639  0.57560349  1
  O  O66  1  0.30889443  0.83810939  0.25733587  1
  O  O67  1  0.52925757  0.69102815  0.25741670  1
  O  O68  1  0.16173918  0.47061101  0.25732122  1
  O  O69  1  0.30780224  0.46569186  0.75778560  1
  O  O70  1  0.15959218  0.69310968  0.75936311  1
  O  O71  1  0.53170112  0.84255371  0.75951786  1
loop_
_geom_bond_atom_site_label_1
_geom_bond_atom_site_label_2
_geom_bond_distance
_geom_bond_site_symmetry_2
Na0 O54 2.614727 1_555
Na0 O55 2.617054 1_555
Na0 O50 2.691044 1_555
Na0 O56 2.693220 1_555
Na0 O49 2.713252 1_555
Na0 O48 2.713382 1_555
Na1 O52 2.608957 1_555
Na1 O51 2.610559 1_555
Na1 O53 2.617271 1_555
Na1 O58 2.727596 1_555
Na1 O57 2.733324 1_555
Na1 O59 2.742960 1_555
Na2 O66 2.652745 1_555
Na2 O68 2.659632 1_555
Na2 O67 2.659950 1_555
Na2 O60 2.695304 1_555
Na2 O62 2.701366 1_555
Na2 O61 2.701415 1_555
Hf0 O0 2.060880 1_555
Hf0 O37 2.064001 1_445
Hf0 O36 2.064031 1_545
Hf0 O38 2.064573 1_555
Hf0 O1 2.069354 1_445
Hf0 O2 2.069984 1_455
Hf1 O45 2.055553 1_545
Hf1 O46 2.056084 1_555
Hf1 O47 2.057702 1_655
Hf1 O9 2.077572 1_545
Hf1 O10 2.079124 1_655
Hf1 O11 2.088074 1_645
Hf2 O16 2.048115 1_555
Hf2 O17 2.050689 1_555
Hf2 O15 2.058081 1_555
Hf2 O52 2.089448 1_555
Hf2 O53 2.089546 1_555
Hf2 O51 2.095789 1_555
Hf3 O19 1.986007 1_556
Hf3 O20 2.023580 1_556
Hf3 O18 2.033985 1_556
Hf3 O55 2.098109 1_555
Hf3 O54 2.107426 1_555
Hf3 O56 2.220119 1_555
Hf4 O60 2.025440 1_555
Hf4 O24 2.035694 1_554
Hf4 O25 2.042441 1_554
Hf4 O62 2.069765 1_555
Hf4 O61 2.077287 1_555
Hf4 O26 2.194023 1_554
Hf5 O32 2.056126 1_555
Hf5 O30 2.063395 1_555
Hf5 O31 2.066453 1_555
Hf5 O68 2.071207 1_555
Hf5 O67 2.075197 1_555
Hf5 O66 2.075758 1_555
O0 P0 1.541701 1_555
O1 P1 1.541072 1_555
O2 P2 1.540665 1_655
O3 P3 1.526247 1_555
O3 Zr0 2.129607 1_455
O4 P4 1.533312 1_555
O4 Zr0 2.113877 1_565
O5 P5 1.540193 1_555
O5 Zr0 2.059737 1_555
O6 P5 1.535893 1_565
O6 Zr1 2.093256 1_655
O7 P3 1.541664 1_555
O7 Zr1 2.044043 1_545
O8 P4 1.551467 1_455
O8 Zr1 2.029185 1_555
O9 P1 1.536976 1_555
O10 P2 1.536450 1_555
O11 P0 1.535802 1_565
O12 S0 1.484560 1_555
O12 Zr2 2.165452 1_555
O13 P6 1.549259 1_555
O13 Zr2 2.039250 1_555
O14 S1 1.482070 1_555
O14 Zr2 2.177835 1_555
O15 P7 1.541590 1_555
O16 P8 1.545678 1_555
O17 P9 1.540953 1_555
O18 P9 1.545577 1_555
O19 P7 1.556078 1_555
O20 P8 1.550731 1_555
O21 P6 1.544368 1_555
O21 Zr3 2.048788 1_555
O22 S1 1.478007 1_555
O22 Zr3 2.194581 1_555
O23 S0 1.476111 1_555
O23 Zr3 2.202891 1_555
O24 P10 1.540598 1_555
O25 P11 1.539731 1_555
O26 S2 1.473614 1_555
O27 P12 1.550012 1_555
O27 Zr4 2.036359 1_555
O28 P13 1.544019 1_555
O28 Zr4 2.077104 1_555
O29 P14 1.555478 1_555
O29 Zr4 2.025086 1_555
O30 P14 1.536992 1_555
O31 P12 1.533754 1_555
O32 P13 1.537094 1_555
O33 P11 1.545570 1_555
O33 Zr5 2.080493 1_555
O34 S2 1.475783 1_555
O34 Zr5 2.234543 1_555
O35 P10 1.543715 1_555
O35 Zr5 2.085625 1_555
O36 P14 1.522622 1_555
O37 P12 1.519338 1_555
O38 P13 1.522906 1_555
O39 P11 1.539381 1_555
O39 Zr0 2.052317 1_455
O40 S2 1.473926 1_555
O40 Zr0 2.175708 1_465
O41 P10 1.541019 1_555
O41 Zr0 2.041457 1_565
O42 S0 1.473262 1_555
O42 Zr1 2.186203 1_645
O43 P6 1.536553 1_555
O43 Zr1 2.056025 1_545
O44 S1 1.475556 1_555
O44 Zr1 2.168784 1_655
O45 P7 1.524421 1_555
O46 P8 1.528088 1_555
O47 P9 1.524178 1_555
O48 P5 1.560222 1_555
O48 Zr2 2.044750 1_555
O49 P3 1.555475 1_555
O49 Zr2 2.053810 1_555
O50 P4 1.553481 1_555
O50 Zr2 2.091889 1_555
O51 P1 1.555643 1_555
O52 P2 1.555588 1_655
O53 P0 1.556163 1_555
O54 P10 1.551299 1_555
O55 P11 1.553432 1_655
O56 S2 1.490929 1_545
O57 P12 1.562613 1_545
O57 Zr3 2.044005 1_555
O58 P13 1.569092 1_555
O58 Zr3 2.034310 1_555
O59 P14 1.554552 1_655
O59 Zr3 2.080587 1_555
O60 P9 1.563223 1_555
O61 P7 1.549748 1_455
O62 P8 1.555037 1_565
O63 P6 1.532439 1_565
O63 Zr4 2.074187 1_555
O64 S1 1.470346 1_555
O64 Zr4 2.202957 1_555
O65 S0 1.472204 1_455
O65 Zr4 2.192670 1_555
O66 P0 1.558080 1_565
O67 P1 1.558370 1_555
O68 P2 1.558599 1_555
O69 P3 1.532468 1_555
O69 Zr5 2.027692 1_555
O70 P4 1.529309 1_455
O70 Zr5 2.065625 1_555
O71 P5 1.526467 1_565
O71 Zr5 2.074417 1_555
