# generated using pymatgen
data_YF3
_symmetry_space_group_name_H-M   'P 1'
_cell_length_a   4.35539975
_cell_length_b   6.38818413
_cell_length_c   6.85619609
_cell_angle_alpha   90.00000000
_cell_angle_beta   90.00000000
_cell_angle_gamma   90.00000000
_symmetry_Int_Tables_number   1
_chemical_formula_structural   YF3
_chemical_formula_sum   'Y4 F12'
_cell_volume   190.76059901
_cell_formula_units_Z   4
loop_
 _symmetry_equiv_pos_site_id
 _symmetry_equiv_pos_as_xyz
  1  'x, y, z'
loop_
 _atom_site_type_symbol
 _atom_site_label
 _atom_site_symmetry_multiplicity
 _atom_site_fract_x
 _atom_site_fract_y
 _atom_site_fract_z
 _atom_site_occupancy
  Y  Y0  1  0.93669724  0.63082763  0.75000000  1
  Y  Y1  1  0.43669724  0.86917237  0.25000000  1
  Y  Y2  1  0.56330276  0.13082763  0.75000000  1
  Y  Y3  1  0.06330276  0.36917237  0.25000000  1
  F  F0  1  0.38135667  0.16554485  0.43706078  1
  F  F1  1  0.88135667  0.33445515  0.56293922  1
  F  F2  1  0.11864333  0.66554485  0.06293922  1
  F  F3  1  0.61864333  0.83445515  0.93706078  1
  F  F4  1  0.58597858  0.52183381  0.25000000  1
  F  F5  1  0.08597858  0.97816619  0.75000000  1
  F  F6  1  0.91402142  0.02183381  0.25000000  1
  F  F7  1  0.41402142  0.47816619  0.75000000  1
  F  F8  1  0.38135667  0.16554485  0.06293922  1
  F  F9  1  0.88135667  0.33445515  0.93706078  1
  F  F10  1  0.11864333  0.66554485  0.43706078  1
  F  F11  1  0.61864333  0.83445515  0.56293922  1
loop_
_geom_bond_atom_site_label_1
_geom_bond_atom_site_label_2
_geom_bond_distance
_geom_bond_site_symmetry_2
F0 Y3 2.292575 1_555
F0 Y2 2.297965 1_555
F0 Y1 2.299453 1_545
F1 Y2 2.292575 1_555
F1 Y3 2.297965 1_655
F1 Y0 2.299453 1_555
F2 Y1 2.292575 1_555
F2 Y0 2.297965 1_454
F2 Y3 2.299453 1_555
F3 Y0 2.292575 1_555
F3 Y1 2.297965 1_556
F3 Y2 2.299453 1_565
F4 Y3 2.296313 1_655
F4 Y1 2.312160 1_555
F4 Y3 2.476561 1_555
F5 Y2 2.296313 1_565
F5 Y0 2.312160 1_455
F5 Y2 2.476561 1_465
F6 Y1 2.296313 1_545
F6 Y3 2.312160 1_655
F6 Y1 2.476561 1_645
F7 Y0 2.296313 1_455
F7 Y2 2.312160 1_555
F7 Y0 2.476561 1_555
F8 Y3 2.292575 1_555
F8 Y2 2.297965 1_554
F8 Y1 2.299453 1_545
F9 Y2 2.292575 1_555
F9 Y3 2.297965 1_656
F9 Y0 2.299453 1_555
F10 Y1 2.292575 1_555
F10 Y0 2.297965 1_455
F10 Y3 2.299453 1_555
F11 Y0 2.292575 1_555
F11 Y1 2.297965 1_555
F11 Y2 2.299453 1_565
