# generated using pymatgen
data_MgTe4Mo2W2(SeS)2
_symmetry_space_group_name_H-M   'P 1'
_cell_length_a   3.39566400
_cell_length_b   3.39952897
_cell_length_c   45.59578011
_cell_angle_alpha   89.99697188
_cell_angle_beta   89.99440631
_cell_angle_gamma   119.96154839
_symmetry_Int_Tables_number   1
_chemical_formula_structural   MgTe4Mo2W2(SeS)2
_chemical_formula_sum   'Mg1 Te4 Mo2 W2 Se2 S2'
_cell_volume   456.00213621
_cell_formula_units_Z   1
loop_
 _symmetry_equiv_pos_site_id
 _symmetry_equiv_pos_as_xyz
  1  'x, y, z'
loop_
 _atom_site_type_symbol
 _atom_site_label
 _atom_site_symmetry_multiplicity
 _atom_site_fract_x
 _atom_site_fract_y
 _atom_site_fract_z
 _atom_site_occupancy
  Mg  Mg0  1  0.00016300  0.99988300  0.55073300  1
  Te  Te0  1  0.33334900  0.66679300  0.32301300  1
  Te  Te1  1  0.33335400  0.66669700  0.70566500  1
  Te  Te2  1  0.33364100  0.66721400  0.24081200  1
  Te  Te3  1  0.33373600  0.66718300  0.62282900  1
  Mo  Mo0  1  0.33335500  0.66686700  0.46285700  1
  Mo  Mo1  1  0.66662100  0.33322700  0.28190600  1
  W  W0  1  0.33310400  0.66630200  0.09401700  1
  W  W1  1  0.66674700  0.33329400  0.66438800  1
  Se  Se0  1  0.66647100  0.33289600  0.05770400  1
  Se  Se1  1  0.66623900  0.33262200  0.13031900  1
  S  S0  1  0.66675100  0.33369600  0.43029700  1
  S  S1  1  0.66647000  0.33332700  0.49629000  1
loop_
_geom_bond_atom_site_label_1
_geom_bond_atom_site_label_2
_geom_bond_distance
_geom_bond_site_symmetry_2
Mg0 S1 3.162772 1_565
Mg0 S1 3.164529 1_465
Mg0 S1 3.165009 1_455
Te1 W1 2.718272 1_455
Te1 W1 2.718425 1_555
Te1 W1 2.719507 1_565
Te3 W1 2.727611 1_455
Te3 W1 2.727635 1_555
Te3 W1 2.727710 1_565
Mo0 S0 2.459497 1_555
Mo0 S0 2.459804 1_455
Mo0 S0 2.461804 1_565
Mo0 S1 2.483994 1_555
Mo0 S1 2.484344 1_455
Mo0 S1 2.485431 1_565
Mo1 Te2 2.712813 1_545
Mo1 Te2 2.712993 1_655
Mo1 Te2 2.713091 1_555
Mo1 Te0 2.713155 1_555
Mo1 Te0 2.713168 1_655
Mo1 Te0 2.713801 1_545
Se0 W0 2.566797 1_655
Se0 W0 2.566878 1_555
Se0 W0 2.568084 1_545
Se1 W0 2.566633 1_655
Se1 W0 2.566715 1_555
Se1 W0 2.567440 1_545
