# generated using pymatgen
data_Na14Mg4Si7Ge4S5O48
_symmetry_space_group_name_H-M   'P 1'
_cell_length_a   17.81992906
_cell_length_b   8.91028753
_cell_length_c   21.92920207
_cell_angle_alpha   90.06772529
_cell_angle_beta   88.95822482
_cell_angle_gamma   120.00747548
_symmetry_Int_Tables_number   1
_chemical_formula_structural   Na14Mg4Si7Ge4S5O48
_chemical_formula_sum   'Na42 Mg12 Si21 Ge12 S15 O144'
_cell_volume   3014.59177615
_cell_formula_units_Z   3
loop_
 _symmetry_equiv_pos_site_id
 _symmetry_equiv_pos_as_xyz
  1  'x, y, z'
loop_
 _atom_site_type_symbol
 _atom_site_label
 _atom_site_symmetry_multiplicity
 _atom_site_fract_x
 _atom_site_fract_y
 _atom_site_fract_z
 _atom_site_occupancy
  Na  Na0  1  0.80793783  0.98962922  0.25464713  1
  Na  Na1  1  0.18088533  0.35469920  0.25537103  1
  Na  Na2  1  0.68944138  0.36778854  0.25385208  1
  Na  Na3  1  0.99575482  0.63553991  0.24721230  1
  Na  Na4  1  0.49827547  0.63601118  0.25119832  1
  Na  Na5  1  0.31029591  0.62707979  0.74318610  1
  Na  Na6  1  0.99809720  0.35978667  0.74694407  1
  Na  Na7  1  0.49828401  0.36046353  0.74269700  1
  Na  Na8  1  0.18892343  0.01039699  0.74942685  1
  Na  Na9  1  0.68243890  0.00769482  0.75131402  1
  Na  Na10  1  0.14982392  0.33131055  0.58428504  1
  Na  Na11  1  0.65960461  0.33943900  0.57885259  1
  Na  Na12  1  0.33795584  0.98218813  0.58046606  1
  Na  Na13  1  0.83556275  0.98012440  0.57974354  1
  Na  Na14  1  0.15766866  0.97824112  0.08395388  1
  Na  Na15  1  0.64974871  0.96897717  0.08873383  1
  Na  Na16  1  0.33562812  0.68940884  0.08663634  1
  Na  Na17  1  0.83659263  0.69626975  0.08469710  1
  Na  Na18  1  0.48353679  0.67211038  0.92287915  1
  Na  Na19  1  0.97355005  0.66602129  0.92101087  1
  Na  Na20  1  0.35420934  0.03990690  0.91557184  1
  Na  Na21  1  0.85094915  0.03592611  0.91206374  1
  Na  Na22  1  0.16597067  0.28935957  0.91439335  1
  Na  Na23  1  0.67053690  0.28886188  0.90954550  1
  Na  Na24  1  0.47616830  0.28644917  0.42198051  1
  Na  Na25  1  0.97477057  0.27671371  0.42325634  1
  Na  Na26  1  0.16973826  0.05439527  0.40946455  1
  Na  Na27  1  0.67195454  0.03796129  0.41235450  1
  Na  Na28  1  0.35287603  0.66782283  0.41233375  1
  Na  Na29  1  0.85123273  0.67540986  0.41802826  1
  Na  Na30  1  0.99464603  0.99552824  0.49800064  1
  Na  Na31  1  0.50156796  0.99698372  0.50099919  1
  Na  Na32  1  0.99793865  0.00113304  0.00279908  1
  Na  Na33  1  0.50249039  0.00576868  0.00290594  1
  Na  Na34  1  0.32781279  0.32191811  0.82411209  1
  Na  Na35  1  0.82576868  0.33657660  0.83071783  1
  Na  Na36  1  0.32728313  0.31717853  0.33301613  1
  Na  Na37  1  0.82579867  0.31966743  0.33054699  1
  Na  Na38  1  0.16572578  0.66915675  0.17010358  1
  Na  Na39  1  0.66429365  0.66314127  0.17131047  1
  Na  Na40  1  0.16379400  0.66462300  0.66851106  1
  Na  Na41  1  0.66607595  0.66295603  0.66606730  1
  Mg  Mg0  1  0.00070423  0.00195908  0.35297307  1
  Mg  Mg1  1  0.49478288  0.98847078  0.34898117  1
  Mg  Mg2  1  0.99282277  0.99830453  0.84700708  1
  Mg  Mg3  1  0.50797014  0.00915240  0.84756864  1
  Mg  Mg4  1  0.33766795  0.33115478  0.68332712  1
  Mg  Mg5  1  0.83662701  0.34080526  0.18546183  1
  Mg  Mg6  1  0.33275723  0.32808506  0.99343254  1
  Mg  Mg7  1  0.83215025  0.33872820  0.98058575  1
  Mg  Mg8  1  0.33344885  0.32853183  0.48007892  1
  Mg  Mg9  1  0.83039117  0.32514254  0.48826158  1
  Mg  Mg10  1  0.67131219  0.68327023  0.31086981  1
  Mg  Mg11  1  0.16788744  0.66252777  0.80789183  1
  Si  Si0  1  0.15323316  0.99898029  0.25278187  1
  Si  Si1  1  0.64392117  0.00253518  0.24929936  1
  Si  Si2  1  0.35158011  0.69543768  0.25057279  1
  Si  Si3  1  0.85588497  0.70929721  0.25131606  1
  Si  Si4  1  0.14425859  0.28363782  0.75038295  1
  Si  Si5  1  0.65504305  0.31116373  0.75218633  1
  Si  Si6  1  0.35706980  0.00138456  0.75211759  1
  Si  Si7  1  0.85240654  0.01008330  0.75044533  1
  Si  Si8  1  0.48341257  0.34503201  0.58086246  1
  Si  Si9  1  0.98174599  0.34459570  0.58322446  1
  Si  Si10  1  0.67939544  0.03438828  0.58491986  1
  Si  Si11  1  0.84214113  0.63193580  0.58253480  1
  Si  Si12  1  0.48115833  0.62060937  0.08232587  1
  Si  Si13  1  0.97967586  0.62348130  0.08193895  1
  Si  Si14  1  0.34203588  0.04904961  0.08197951  1
  Si  Si15  1  0.18010270  0.32332022  0.08352123  1
  Si  Si16  1  0.81141809  0.66712644  0.91962551  1
  Si  Si17  1  0.66505366  0.95208676  0.91426440  1
  Si  Si18  1  0.31128681  0.95632424  0.41980828  1
  Si  Si19  1  0.81100027  0.96166832  0.41645360  1
  Si  Si20  1  0.16645632  0.38004006  0.41437371  1
  Ge  Ge0  1  0.98953631  0.00894391  0.64883215  1
  Ge  Ge1  1  0.50990748  0.04772424  0.65022011  1
  Ge  Ge2  1  0.00953093  0.97663620  0.15205091  1
  Ge  Ge3  1  0.48927063  0.97241386  0.15085022  1
  Ge  Ge4  1  0.82694969  0.32221099  0.67861950  1
  Ge  Ge5  1  0.32702680  0.33064502  0.17996941  1
  Ge  Ge6  1  0.16839071  0.66568430  0.03158729  1
  Ge  Ge7  1  0.66156993  0.67247525  0.01592047  1
  Ge  Ge8  1  0.15956065  0.65086427  0.51429685  1
  Ge  Ge9  1  0.67675072  0.68199451  0.52931918  1
  Ge  Ge10  1  0.18703924  0.69425073  0.31310029  1
  Ge  Ge11  1  0.68844849  0.68245919  0.81189292  1
  S  S0  1  0.00071572  0.28792859  0.24982473  1
  S  S1  1  0.49577096  0.28276655  0.24964154  1
  S  S2  1  0.99703049  0.70903760  0.75078665  1
  S  S3  1  0.50022262  0.71050495  0.75130890  1
  S  S4  1  0.18294183  0.03217559  0.58292228  1
  S  S5  1  0.33394600  0.62931722  0.58236661  1
  S  S6  1  0.83337300  0.03931153  0.08079041  1
  S  S7  1  0.68270195  0.33490148  0.08193067  1
  S  S8  1  0.30995989  0.66271507  0.91733385  1
  S  S9  1  0.02624500  0.38431011  0.91920005  1
  S  S10  1  0.52188091  0.38053070  0.91642674  1
  S  S11  1  0.16769198  0.95485258  0.91681296  1
  S  S12  1  0.66554879  0.37715638  0.41613142  1
  S  S13  1  0.02421660  0.66482045  0.41560121  1
  S  S14  1  0.52412350  0.66746171  0.41816138  1
  O  O0  1  0.11373137  0.04690346  0.31035518  1
  O  O1  1  0.60463402  0.04504042  0.30922081  1
  O  O2  1  0.40790387  0.77079485  0.31007314  1
  O  O3  1  0.91629227  0.79661801  0.30899409  1
  O  O4  1  0.48266166  0.18416446  0.30651668  1
  O  O5  1  0.98981793  0.19194521  0.30677163  1
  O  O6  1  0.10632843  0.16759644  0.81202828  1
  O  O7  1  0.61711125  0.18801260  0.81114018  1
  O  O8  1  0.48795504  0.78347755  0.80895057  1
  O  O9  1  0.98550929  0.78278952  0.80830118  1
  O  O10  1  0.41276570  0.02777528  0.81254330  1
  O  O11  1  0.90719596  0.04653447  0.81105411  1
  O  O12  1  0.40739743  0.96634368  0.69020558  1
  O  O13  1  0.89374750  0.97108267  0.68949151  1
  O  O14  1  0.07966843  0.18054598  0.69002786  1
  O  O15  1  0.58953747  0.23089882  0.69285686  1
  O  O16  1  0.01220436  0.82274216  0.69714827  1
  O  O17  1  0.51678280  0.82737779  0.69891651  1
  O  O18  1  0.39148499  0.81409440  0.18831622  1
  O  O19  1  0.90548032  0.84584936  0.18813424  1
  O  O20  1  0.01870089  0.20587907  0.19640734  1
  O  O21  1  0.51019818  0.19790032  0.19525779  1
  O  O22  1  0.09131067  0.95139018  0.19094658  1
  O  O23  1  0.58007677  0.97897936  0.18761800  1
  O  O24  1  0.44706131  0.37550497  0.64391544  1
  O  O25  1  0.93580340  0.36808448  0.64572098  1
  O  O26  1  0.23677494  0.11156811  0.63704739  1
  O  O27  1  0.74602981  0.11939622  0.64312756  1
  O  O28  1  0.32146271  0.52395896  0.63750989  1
  O  O29  1  0.81754051  0.49209358  0.63917600  1
  O  O30  1  0.43324686  0.49952944  0.14305155  1
  O  O31  1  0.94322555  0.51618073  0.14361291  1
  O  O32  1  0.31442103  0.13896517  0.13667054  1
  O  O33  1  0.82035362  0.11870422  0.13581324  1
  O  O34  1  0.24733984  0.37323148  0.14068776  1
  O  O35  1  0.73644398  0.36209684  0.13570804  1
  O  O36  1  0.21520561  0.27780098  0.02216684  1
  O  O37  1  0.72201344  0.30525806  0.02647261  1
  O  O38  1  0.42429126  0.55432542  0.02197687  1
  O  O39  1  0.92261197  0.55190514  0.02188628  1
  O  O40  1  0.35479517  0.14114569  0.01718612  1
  O  O41  1  0.83902078  0.13642482  0.02507156  1
  O  O42  1  0.22286225  0.14147840  0.52787486  1
  O  O43  1  0.71286812  0.15525434  0.52531803  1
  O  O44  1  0.33951094  0.54205367  0.52683213  1
  O  O45  1  0.85458127  0.55995282  0.51889950  1
  O  O46  1  0.42155757  0.29336316  0.52300210  1
  O  O47  1  0.92432139  0.29691463  0.52420856  1
  O  O48  1  0.26911558  0.68918076  0.97474542  1
  O  O49  1  0.75937233  0.69452955  0.98003913  1
  O  O50  1  0.08290877  0.47058124  0.97306241  1
  O  O51  1  0.57632231  0.46168608  0.97187956  1
  O  O52  1  0.15882122  0.85202077  0.97363359  1
  O  O53  1  0.64524820  0.82842145  0.97657478  1
  O  O54  1  0.25921482  0.82499214  0.48056867  1
  O  O55  1  0.76206404  0.82876710  0.47911937  1
  O  O56  1  0.14710008  0.46333722  0.47729840  1
  O  O57  1  0.65399332  0.45793363  0.47268298  1
  O  O58  1  0.07885998  0.69388191  0.47169899  1
  O  O59  1  0.57827413  0.68985903  0.47144207  1
  O  O60  1  0.06581695  0.63834132  0.36048668  1
  O  O61  1  0.55966526  0.63635888  0.36120309  1
  O  O62  1  0.24866035  0.87058721  0.36023511  1
  O  O63  1  0.75166434  0.87745385  0.35792438  1
  O  O64  1  0.17905286  0.50839862  0.35446262  1
  O  O65  1  0.67232760  0.47826188  0.36097355  1
  O  O66  1  0.06509655  0.48841639  0.86338780  1
  O  O67  1  0.56298252  0.48566713  0.86095825  1
  O  O68  1  0.17668523  0.86815876  0.86227656  1
  O  O69  1  0.67695102  0.84715970  0.85473566  1
  O  O70  1  0.25681300  0.64173207  0.86409192  1
  O  O71  1  0.74844262  0.62821697  0.86034763  1
  O  O72  1  0.01889411  0.82444406  0.41357003  1
  O  O73  1  0.51683983  0.82710545  0.41497124  1
  O  O74  1  0.40484632  0.96699816  0.41684688  1
  O  O75  1  0.90487505  0.97133766  0.41742336  1
  O  O76  1  0.08154270  0.19050871  0.41341810  1
  O  O77  1  0.58712713  0.20064825  0.41510294  1
  O  O78  1  0.01837357  0.21029026  0.91666857  1
  O  O79  1  0.51308962  0.20602238  0.91497121  1
  O  O80  1  0.08844427  0.96996570  0.91639142  1
  O  O81  1  0.57828727  0.96926212  0.91353067  1
  O  O82  1  0.39722153  0.81887982  0.91421834  1
  O  O83  1  0.90541301  0.84377955  0.91656367  1
  O  O84  1  0.49385963  0.16387480  0.58778989  1
  O  O85  1  0.99716230  0.17244357  0.59141423  1
  O  O86  1  0.09571532  0.01347694  0.58907667  1
  O  O87  1  0.58235825  0.01251075  0.60055299  1
  O  O88  1  0.40991089  0.80496370  0.58443176  1
  O  O89  1  0.92585275  0.83260682  0.59422638  1
  O  O90  1  0.49542449  0.82175038  0.09055783  1
  O  O91  1  0.99320877  0.82629123  0.08806115  1
  O  O92  1  0.42461305  0.01612647  0.09380014  1
  O  O93  1  0.90888209  0.01474594  0.08280779  1
  O  O94  1  0.08358620  0.15272869  0.09824671  1
  O  O95  1  0.59514033  0.18001387  0.08758279  1
  O  O96  1  0.34675431  0.17142741  0.74469387  1
  O  O97  1  0.84270461  0.18460811  0.74114366  1
  O  O98  1  0.24240667  0.31788860  0.74005905  1
  O  O99  1  0.74830252  0.32150329  0.73916038  1
  O  O100  1  0.42037397  0.53900374  0.74562410  1
  O  O101  1  0.92145918  0.53259858  0.74591907  1
  O  O102  1  0.34249298  0.50156897  0.24034799  1
  O  O103  1  0.84548402  0.51815080  0.24436680  1
  O  O104  1  0.41966638  0.30771157  0.24364511  1
  O  O105  1  0.92094557  0.29884387  0.24347363  1
  O  O106  1  0.24748725  0.17503729  0.23882966  1
  O  O107  1  0.74162286  0.16403664  0.23867801  1
  O  O108  1  0.31827265  0.50496943  0.92107062  1
  O  O109  1  0.81909430  0.49421396  0.92024579  1
  O  O110  1  0.43499894  0.36525160  0.92122046  1
  O  O111  1  0.93840515  0.36146367  0.92553429  1
  O  O112  1  0.24647564  0.13113981  0.91808297  1
  O  O113  1  0.75376523  0.13686402  0.91819081  1
  O  O114  1  0.31868713  0.14414659  0.42076269  1
  O  O115  1  0.82144923  0.15424955  0.42244054  1
  O  O116  1  0.25572831  0.37470376  0.41845567  1
  O  O117  1  0.74551982  0.36442477  0.41793827  1
  O  O118  1  0.43498192  0.51525299  0.42463166  1
  O  O119  1  0.93803086  0.51030277  0.42092858  1
  O  O120  1  0.17722759  0.50676396  0.07742881  1
  O  O121  1  0.67706043  0.49781770  0.07682075  1
  O  O122  1  0.08337559  0.66720898  0.07460903  1
  O  O123  1  0.58216418  0.64631265  0.07734695  1
  O  O124  1  0.25228330  0.84520303  0.07797428  1
  O  O125  1  0.75071239  0.85785276  0.07987286  1
  O  O126  1  0.17691033  0.85825233  0.57765110  1
  O  O127  1  0.67510688  0.84555423  0.58059216  1
  O  O128  1  0.25218213  0.64568278  0.58157436  1
  O  O129  1  0.75253939  0.65326763  0.58201984  1
  O  O130  1  0.08337882  0.52025478  0.57793489  1
  O  O131  1  0.58620033  0.50530291  0.57129263  1
  O  O132  1  0.15352930  0.81095016  0.25884110  1
  O  O133  1  0.64369445  0.81916513  0.24776043  1
  O  O134  1  0.25254287  0.67065806  0.25255669  1
  O  O135  1  0.75957795  0.68846552  0.24863819  1
  O  O136  1  0.07706774  0.46753128  0.25188858  1
  O  O137  1  0.57547927  0.45681427  0.25267004  1
  O  O138  1  0.14647841  0.46968628  0.75088615  1
  O  O139  1  0.65378522  0.49808143  0.75897481  1
  O  O140  1  0.07734640  0.69416269  0.75414511  1
  O  O141  1  0.57678772  0.68476564  0.75399384  1
  O  O142  1  0.26080802  0.82816050  0.75057135  1
  O  O143  1  0.75329648  0.83642341  0.75245142  1
loop_
_geom_bond_atom_site_label_1
_geom_bond_atom_site_label_2
_geom_bond_distance
_geom_bond_site_symmetry_2
Na0 O135 2.377224 1_555
Na0 O107 2.405675 1_565
Na0 O63 2.460512 1_555
Na0 O105 2.478001 1_565
Na0 O133 2.542647 1_555
Na0 O33 2.809655 1_565
Na1 O134 2.441720 1_555
Na1 O106 2.446672 1_555
Na1 O136 2.510949 1_555
Na1 O102 2.512275 1_555
Na1 O64 2.575588 1_555
Na1 O0 2.660850 1_555
Na1 O34 2.729746 1_555
Na1 O20 2.842820 1_555
Na2 O103 2.413234 1_555
Na2 O107 2.438699 1_555
Na2 O135 2.482549 1_555
Na2 O137 2.523349 1_555
Na2 O65 2.617042 1_555
Na2 O35 2.716552 1_555
Na2 O1 2.760937 1_555
Na3 O103 2.339447 1_555
Na3 O132 2.458130 1_655
Na3 O31 2.498896 1_555
Na3 O136 2.554705 1_655
Na3 O105 2.605253 1_555
Na3 O22 2.735111 1_655
Na3 O60 2.794848 1_655
Na3 O3 2.803399 1_555
Na4 O133 2.268775 1_555
Na4 O102 2.427986 1_555
Na4 O104 2.540750 1_555
Na4 O137 2.577232 1_555
Na4 O61 2.666193 1_555
Na4 O30 2.670140 1_555
Na4 O2 2.749153 1_555
Na5 O142 2.364018 1_555
Na5 O98 2.393134 1_555
Na5 O100 2.451577 1_555
Na5 O138 2.530783 1_555
Na5 O28 2.532836 1_555
Na5 O70 2.826106 1_555
Na5 O12 2.861009 1_555
Na6 O138 2.318653 1_655
Na6 O97 2.410293 1_555
Na6 O25 2.517351 1_555
Na6 O101 2.518165 1_555
Na6 O140 2.587382 1_655
Na6 O11 2.791990 1_555
Na6 O66 2.827501 1_655
Na6 O14 2.910806 1_655
Na7 O96 2.361565 1_555
Na7 O24 2.395519 1_555
Na7 O139 2.438417 1_555
Na7 O141 2.517126 1_555
Na7 O100 2.582265 1_555
Na7 O15 2.642298 1_555
Na7 O67 2.848645 1_555
Na7 O10 2.977100 1_555
Na8 O98 2.416531 1_555
Na8 O96 2.435812 1_555
Na8 O140 2.508609 1_545
Na8 O142 2.521896 1_545
Na8 O26 2.602490 1_555
Na8 O68 2.736661 1_545
Na8 O6 2.827872 1_555
Na8 O16 2.981121 1_545
Na9 O143 2.419194 1_545
Na9 O99 2.444331 1_555
Na9 O97 2.483070 1_555
Na9 O141 2.530866 1_545
Na9 O27 2.585134 1_555
Na9 O69 2.656869 1_545
Na9 O7 2.732787 1_555
Na9 O17 2.826819 1_545
Na10 O85 2.358432 1_455
Na10 O128 2.462306 1_555
Na10 O86 2.495330 1_555
Na10 O130 2.501218 1_555
Na10 O56 2.637873 1_555
Na10 O14 2.639463 1_555
Na10 O42 2.867714 1_555
Na10 O28 2.921899 1_555
Na11 O131 2.421725 1_555
Na11 O129 2.436907 1_555
Na11 O43 2.546645 1_555
Na11 O84 2.562686 1_555
Na11 O87 2.564311 1_555
Na11 O57 2.581708 1_555
Na11 O15 2.725586 1_555
Na11 O29 2.796972 1_555
Na12 O84 2.425276 1_565
Na12 O88 2.484944 1_555
Na12 O126 2.509098 1_555
Na12 O128 2.596508 1_555
Na12 O54 2.620776 1_555
Na12 O46 2.702488 1_565
Na12 O12 2.761570 1_555
Na12 O26 2.848467 1_565
Na13 O127 2.486486 1_555
Na13 O129 2.522146 1_555
Na13 O85 2.526771 1_565
Na13 O89 2.559734 1_555
Na13 O55 2.595121 1_555
Na13 O13 2.654888 1_555
Na13 O47 2.724868 1_565
Na13 O27 2.813025 1_565
Na14 O122 2.411212 1_555
Na14 O124 2.501148 1_555
Na14 O94 2.508975 1_565
Na14 O91 2.540061 1_455
Na14 O22 2.564753 1_555
Na14 O52 2.670739 1_554
Na14 O36 2.689286 1_565
Na14 O32 2.702265 1_565
Na15 O90 2.381800 1_555
Na15 O125 2.454350 1_555
Na15 O23 2.502776 1_555
Na15 O95 2.512918 1_565
Na15 O123 2.514864 1_555
Na15 O53 2.742950 1_554
Na15 O33 2.853487 1_565
Na15 O37 2.930345 1_565
Na16 O120 2.466178 1_555
Na16 O90 2.481243 1_555
Na16 O18 2.483068 1_555
Na16 O124 2.498394 1_555
Na16 O92 2.530738 1_565
Na16 O34 2.706241 1_555
Na16 O48 2.743845 1_554
Na16 O38 2.787867 1_555
Na17 O91 2.431032 1_555
Na17 O93 2.460847 1_565
Na17 O121 2.495493 1_555
Na17 O125 2.576092 1_555
Na17 O19 2.624133 1_555
Na17 O49 2.693422 1_554
Na17 O39 2.791550 1_555
Na17 O35 2.814678 1_555
Na18 O81 2.328177 1_555
Na18 O38 2.398390 1_556
Na18 O110 2.420898 1_555
Na18 O82 2.476958 1_555
Na18 O108 2.551415 1_555
Na18 O8 2.674559 1_555
Na18 O53 2.781278 1_555
Na19 O109 2.388851 1_555
Na19 O39 2.400089 1_556
Na19 O83 2.433248 1_555
Na19 O80 2.446152 1_655
Na19 O111 2.462656 1_555
Na19 O9 2.646138 1_555
Na20 O40 2.401233 1_556
Na20 O112 2.430340 1_555
Na20 O82 2.444553 1_545
Na20 O79 2.452346 1_555
Na20 O10 2.496321 1_555
Na20 O110 2.514540 1_555
Na21 O113 2.318466 1_555
Na21 O83 2.355592 1_545
Na21 O11 2.396886 1_555
Na21 O111 2.534345 1_555
Na21 O78 2.588335 1_655
Na21 O41 2.674766 1_556
Na22 O78 2.357648 1_555
Na22 O108 2.424189 1_555
Na22 O80 2.464785 1_545
Na22 O112 2.465665 1_555
Na22 O6 2.504672 1_555
Na22 O36 2.555841 1_556
Na23 O7 2.363268 1_555
Na23 O109 2.363844 1_555
Na23 O113 2.467750 1_555
Na23 O81 2.476390 1_545
Na23 O79 2.519440 1_555
Na23 O37 2.718106 1_556
Na23 O71 2.826454 1_555
Na24 O46 2.416555 1_555
Na24 O114 2.434612 1_555
Na24 O77 2.453106 1_555
Na24 O74 2.473050 1_545
Na24 O118 2.488608 1_555
Na24 O4 2.710085 1_555
Na25 O75 2.363602 1_545
Na25 O115 2.382338 1_555
Na25 O76 2.388132 1_655
Na25 O47 2.414552 1_555
Na25 O119 2.475412 1_555
Na25 O5 2.709345 1_555
Na25 O56 2.935990 1_655
Na26 O114 2.376202 1_555
Na26 O0 2.395006 1_555
Na26 O76 2.418636 1_555
Na26 O72 2.431983 1_545
Na26 O116 2.483505 1_555
Na26 O42 2.755125 1_555
Na26 O62 2.840809 1_545
Na27 O115 2.340792 1_555
Na27 O73 2.444107 1_545
Na27 O117 2.527039 1_555
Na27 O77 2.564786 1_555
Na27 O1 2.594769 1_555
Na27 O43 2.656643 1_555
Na27 O63 2.730183 1_545
Na28 O116 2.303534 1_555
Na28 O74 2.346704 1_555
Na28 O2 2.420157 1_555
Na28 O118 2.462971 1_555
Na28 O73 2.532367 1_555
Na28 O44 2.708305 1_555
Na29 O75 2.311964 1_555
Na29 O117 2.450705 1_555
Na29 O45 2.454900 1_555
Na29 O72 2.592432 1_655
Na29 O119 2.615439 1_555
Na29 O3 2.623063 1_555
Na29 O55 2.876948 1_555
Na30 O75 2.341967 1_555
Na30 O76 2.463506 1_665
Na30 O89 2.489197 1_555
Na30 O72 2.561572 1_655
Na30 O85 2.570650 1_565
Na30 O86 2.664620 1_665
Na31 O84 2.457774 1_565
Na31 O88 2.458890 1_555
Na31 O74 2.470111 1_555
Na31 O77 2.510389 1_565
Na31 O73 2.512135 1_555
Na31 O87 2.602353 1_565
Na32 O93 2.387964 1_555
Na32 O91 2.408284 1_545
Na32 O83 2.460763 1_544
Na32 O78 2.545148 1_654
Na32 O94 2.565620 1_655
Na32 O80 2.569892 1_644
Na33 O92 2.436083 1_555
Na33 O81 2.472488 1_544
Na33 O95 2.474906 1_555
Na33 O90 2.488188 1_545
Na33 O79 2.568219 1_554
Na33 O82 2.659867 1_544
Na34 O96 2.317519 1_555
Na34 O98 2.400459 1_555
Na34 O100 2.477501 1_555
Na34 O112 2.583064 1_555
Na34 O108 2.732402 1_555
Na34 O110 2.782172 1_555
Na35 O99 2.422715 1_555
Na35 O109 2.448177 1_555
Na35 O113 2.475333 1_555
Na35 O97 2.482733 1_555
Na35 O101 2.515896 1_555
Na35 O111 2.847222 1_555
Na36 O114 2.421398 1_555
Na36 O116 2.442057 1_555
Na36 O106 2.488236 1_555
Na36 O102 2.538673 1_555
Na36 O104 2.565042 1_555
Na36 O118 2.752878 1_555
Na37 O115 2.475150 1_555
Na37 O103 2.487096 1_555
Na37 O107 2.500879 1_555
Na37 O117 2.519398 1_555
Na37 O105 2.598323 1_555
Na37 O119 2.748039 1_555
Na38 O132 2.384035 1_555
Na38 O134 2.396647 1_555
Na38 O136 2.450668 1_555
Na38 O124 2.528940 1_555
Na38 O120 2.557428 1_555
Na38 O122 2.573967 1_555
Na39 O133 2.315297 1_555
Na39 O135 2.351610 1_555
Na39 O137 2.462246 1_555
Na39 O123 2.509922 1_555
Na39 O125 2.574052 1_555
Na39 O121 2.612682 1_555
Na40 O138 2.413795 1_555
Na40 O130 2.430459 1_555
Na40 O142 2.436702 1_555
Na40 O140 2.503606 1_555
Na40 O128 2.509942 1_555
Na40 O126 2.566927 1_555
Na41 O129 2.409943 1_555
Na41 O127 2.433262 1_555
Na41 O139 2.454818 1_555
Na41 O143 2.467897 1_555
Na41 O131 2.533673 1_555
Na41 O141 2.546373 1_555
Mg0 O3 1.958612 1_445
Mg0 O0 2.053341 1_555
Mg0 O5 2.066272 1_455
Mg0 O76 2.073187 1_555
Mg0 O75 2.105999 1_445
Mg0 O72 2.214982 1_545
Mg1 O1 1.948926 1_565
Mg1 O2 1.981762 1_555
Mg1 O4 2.083778 1_565
Mg1 O74 2.104100 1_555
Mg1 O73 2.215126 1_555
Mg1 O77 2.313686 1_565
Mg2 O11 1.958307 1_565
Mg2 O6 1.962013 1_665
Mg2 O9 2.043240 1_555
Mg2 O83 2.102859 1_555
Mg2 O78 2.294986 1_665
Mg2 O80 2.409960 1_655
Mg3 O7 1.951118 1_555
Mg3 O10 1.955755 1_555
Mg3 O8 2.043873 1_545
Mg3 O81 2.073983 1_545
Mg3 O79 2.260281 1_555
Mg3 O82 2.336595 1_545
Mg4 O24 1.967800 1_555
Mg4 O96 2.026249 1_555
Mg4 O98 2.041138 1_555
Mg4 O28 2.134256 1_555
Mg4 O26 2.152618 1_555
Mg4 O100 2.192128 1_555
Mg5 O31 1.965558 1_555
Mg5 O103 1.985865 1_555
Mg5 O107 1.993537 1_555
Mg5 O33 2.149006 1_555
Mg5 O105 2.156007 1_555
Mg5 O35 2.196274 1_555
Mg6 O38 1.965040 1_556
Mg6 O40 1.965664 1_556
Mg6 O36 1.999933 1_556
Mg6 O110 2.286833 1_555
Mg6 O108 2.344451 1_555
Mg6 O112 2.358080 1_555
Mg7 O39 2.003299 1_556
Mg7 O109 2.015522 1_555
Mg7 O37 2.072890 1_556
Mg7 O41 2.108366 1_556
Mg7 O113 2.146898 1_555
Mg7 O111 2.148819 1_555
Mg8 O46 1.998982 1_555
Mg8 O114 2.008852 1_555
Mg8 O42 2.098501 1_555
Mg8 O118 2.105699 1_555
Mg8 O44 2.115736 1_555
Mg8 O116 2.133738 1_555
Mg9 O47 1.988947 1_555
Mg9 O43 2.026775 1_555
Mg9 O45 2.029717 1_555
Mg9 O115 2.046439 1_555
Mg9 O119 2.306265 1_555
Mg9 O117 2.324568 1_555
Mg10 O63 1.918381 1_555
Mg10 O135 2.046404 1_555
Mg10 O133 2.061181 1_555
Mg10 O61 2.107304 1_555
Mg10 O65 2.140758 1_555
Mg10 O137 2.289813 1_555
Mg11 O142 1.996077 1_555
Mg11 O138 2.004324 1_555
Mg11 O66 2.079449 1_555
Mg11 O70 2.104651 1_555
Mg11 O68 2.125628 1_555
Mg11 O140 2.143969 1_555
Ge0 O13 1.786582 1_545
Ge0 O14 1.823963 1_655
Ge0 O89 1.857949 1_545
Ge0 O85 1.877850 1_555
Ge0 O16 2.174509 1_645
Ge0 O86 2.265465 1_655
Ge1 O12 1.802759 1_545
Ge1 O15 1.811009 1_555
Ge1 O87 1.817914 1_555
Ge1 O84 1.827777 1_555
Ge1 O17 2.293561 1_545
Ge1 O88 2.483199 1_545
Ge2 O19 1.791565 1_455
Ge2 O22 1.809814 1_555
Ge2 O91 1.862508 1_455
Ge2 O94 1.863382 1_565
Ge2 O20 2.193712 1_565
Ge3 O18 1.787016 1_555
Ge3 O23 1.795719 1_555
Ge3 O92 1.883309 1_565
Ge3 O90 1.923567 1_555
Ge3 O21 2.093616 1_565
Ge3 O95 2.307838 1_565
Ge4 O29 1.824775 1_555
Ge4 O27 1.838985 1_555
Ge4 O25 1.899209 1_555
Ge4 O99 1.910572 1_555
Ge4 O97 1.955582 1_555
Ge4 O101 2.335508 1_555
Ge5 O34 1.867265 1_555
Ge5 O32 1.867942 1_555
Ge5 O106 1.889311 1_555
Ge5 O30 1.897590 1_555
Ge5 O102 1.933188 1_555
Ge5 O104 2.266875 1_555
Ge6 O122 1.775936 1_555
Ge6 O120 1.809046 1_555
Ge6 O124 1.867590 1_555
Ge6 O48 2.088703 1_554
Ge6 O50 2.099223 1_554
Ge6 O52 2.167235 1_554
Ge7 O53 1.782142 1_554
Ge7 O49 1.817457 1_554
Ge7 O123 1.863486 1_555
Ge7 O51 1.990796 1_554
Ge7 O125 2.160923 1_555
Ge7 O121 2.174777 1_555
Ge8 O56 1.769690 1_555
Ge8 O54 1.818502 1_555
Ge8 O130 1.870704 1_555
Ge8 O58 1.920583 1_555
Ge8 O126 2.208746 1_555
Ge8 O128 2.251193 1_555
Ge9 O55 1.785301 1_555
Ge9 O131 1.827023 1_555
Ge9 O127 1.851113 1_555
Ge9 O129 1.904817 1_555
Ge9 O57 2.212562 1_555
Ge9 O59 2.213472 1_555
Ge10 O62 1.747741 1_555
Ge10 O64 1.829872 1_555
Ge10 O134 1.832443 1_555
Ge10 O132 1.871741 1_555
Ge10 O60 2.199447 1_555
Ge10 O136 2.419228 1_555
Ge11 O71 1.750701 1_555
Ge11 O143 1.811161 1_555
Ge11 O69 1.835422 1_555
Ge11 O139 1.853031 1_555
Ge11 O67 2.286228 1_555
Ge11 O141 2.388429 1_555
O0 Si0 1.593391 1_545
O1 Si1 1.609604 1_555
O2 Si2 1.591287 1_555
O3 Si3 1.604175 1_555
O4 S1 1.472666 1_555
O5 S0 1.468411 1_655
O6 Si4 1.620013 1_555
O7 Si5 1.600638 1_555
O8 S3 1.482743 1_555
O9 S2 1.479296 1_555
O10 Si6 1.615503 1_555
O11 Si7 1.598198 1_555
O12 Si6 1.726237 1_565
O13 Si7 1.633805 1_565
O14 Si4 1.707433 1_555
O15 Si5 1.668776 1_555
O16 S2 1.483363 1_455
O17 S3 1.474681 1_555
O18 Si2 1.644222 1_555
O19 Si3 1.750732 1_555
O20 S0 1.492671 1_555
O21 S1 1.497116 1_555
O22 Si0 1.679639 1_555
O23 Si1 1.727556 1_565
O24 Si8 1.596143 1_555
O25 Si9 1.649920 1_555
O26 S4 1.479904 1_555
O27 Si10 1.663199 1_555
O28 S5 1.475494 1_555
O29 Si11 1.650782 1_555
O30 Si12 1.645280 1_555
O31 Si13 1.585907 1_555
O32 Si14 1.641048 1_555
O33 S6 1.470415 1_555
O34 Si15 1.650834 1_555
O35 S7 1.474747 1_555
O36 Si15 1.608698 1_555
O37 S7 1.480832 1_555
O38 Si12 1.604809 1_555
O39 Si13 1.604075 1_555
O40 Si14 1.596351 1_555
O41 S6 1.470637 1_555
O42 S4 1.479984 1_555
O43 Si10 1.598865 1_555
O44 S5 1.472414 1_555
O45 Si11 1.592707 1_555
O46 Si8 1.605848 1_555
O47 Si9 1.585728 1_555
O48 S8 1.519235 1_555
O49 Si16 1.689971 1_555
O50 S9 1.506810 1_555
O51 S10 1.510613 1_555
O52 S11 1.505915 1_555
O53 Si17 1.674177 1_555
O54 Si18 1.696586 1_555
O55 Si19 1.725859 1_555
O56 Si20 1.676384 1_555
O57 S12 1.495062 1_555
O58 S13 1.522882 1_555
O59 S14 1.477826 1_555
O60 S13 1.485820 1_555
O61 S14 1.477851 1_555
O62 Si18 1.653368 1_555
O63 Si19 1.606836 1_555
O64 Si20 1.679459 1_555
O65 S12 1.475684 1_555
O66 S9 1.472168 1_555
O67 S10 1.475677 1_555
O68 S11 1.472185 1_555
O69 Si17 1.675849 1_555
O70 S8 1.468900 1_555
O71 Si16 1.652931 1_555
O72 S13 1.472796 1_555
O73 S14 1.493453 1_555
O74 Si18 1.621843 1_555
O75 Si19 1.631994 1_555
O76 Si20 1.608465 1_555
O77 S12 1.493200 1_555
O78 S9 1.486455 1_555
O79 S10 1.483156 1_555
O80 S11 1.484313 1_555
O81 Si17 1.628469 1_555
O82 S8 1.480208 1_555
O83 Si16 1.626880 1_555
O84 Si8 1.722044 1_555
O85 Si9 1.698407 1_555
O86 S4 1.481699 1_555
O87 Si10 1.669458 1_555
O88 S5 1.472045 1_555
O89 Si11 1.683160 1_555
O90 Si12 1.689515 1_555
O91 Si13 1.704842 1_555
O92 Si14 1.662662 1_555
O93 S6 1.468740 1_555
O94 Si15 1.654967 1_555
O95 S7 1.481268 1_555
O96 Si6 1.623626 1_555
O97 Si7 1.661527 1_555
O98 Si4 1.629492 1_555
O99 Si5 1.637552 1_555
O100 S3 1.485425 1_555
O101 S2 1.477738 1_555
O102 Si2 1.667667 1_555
O103 Si3 1.625740 1_555
O104 S1 1.487941 1_555
O105 S0 1.481563 1_655
O106 Si0 1.650025 1_545
O107 Si1 1.623680 1_555
O108 S8 1.487691 1_555
O109 Si16 1.613558 1_555
O110 S10 1.486571 1_555
O111 S9 1.477952 1_655
O112 S11 1.494881 1_545
O113 Si17 1.618164 1_545
O114 Si18 1.611792 1_545
O115 Si19 1.636209 1_545
O116 Si20 1.619206 1_555
O117 S12 1.486288 1_555
O118 S14 1.490038 1_555
O119 S13 1.465208 1_655
O120 Si15 1.666347 1_555
O121 S7 1.508859 1_555
O122 Si13 1.691640 1_455
O123 Si12 1.698432 1_555
O124 Si14 1.721589 1_565
O125 S6 1.550222 1_565
O126 S4 1.503306 1_565
O127 Si10 1.648377 1_565
O128 S5 1.535556 1_555
O129 Si11 1.699974 1_555
O130 Si9 1.703158 1_455
O131 Si8 1.675953 1_555
O132 Si0 1.683464 1_555
O133 Si1 1.632174 1_565
O134 Si2 1.665163 1_555
O135 Si3 1.633464 1_555
O136 S0 1.496147 1_555
O137 S1 1.492274 1_555
O138 Si4 1.638349 1_555
O139 Si5 1.683198 1_555
O140 S2 1.504987 1_455
O141 S3 1.494506 1_555
O142 Si6 1.636991 1_565
O143 Si7 1.667141 1_565
