# generated using pymatgen
data_Na4Cu2S3
_symmetry_space_group_name_H-M   'P 1'
_cell_length_a   19.47401488
_cell_length_b   19.47401488
_cell_length_c   19.47401488
_cell_angle_alpha   151.70020534
_cell_angle_beta   151.70020534
_cell_angle_gamma   40.45126473
_symmetry_Int_Tables_number   1
_chemical_formula_structural   Na4Cu2S3
_chemical_formula_sum   'Na32 Cu16 S24'
_cell_volume   1656.53276216
_cell_formula_units_Z   8
loop_
 _symmetry_equiv_pos_site_id
 _symmetry_equiv_pos_as_xyz
  1  'x, y, z'
loop_
 _atom_site_type_symbol
 _atom_site_label
 _atom_site_symmetry_multiplicity
 _atom_site_fract_x
 _atom_site_fract_y
 _atom_site_fract_z
 _atom_site_occupancy
  Na  Na0  1  0.37500000  0.12500000  0.25000000  1
  Na  Na1  1  0.62500000  0.87500000  0.75000000  1
  Na  Na2  1  0.87500000  0.62500000  0.25000000  1
  Na  Na3  1  0.12500000  0.37500000  0.75000000  1
  Na  Na4  1  0.28307500  0.03307500  0.25000000  1
  Na  Na5  1  0.53307500  0.78307500  0.75000000  1
  Na  Na6  1  0.71692500  0.96692500  0.75000000  1
  Na  Na7  1  0.46692500  0.21692500  0.25000000  1
  Na  Na8  1  0.86689400  0.11689400  0.75000000  1
  Na  Na9  1  0.61689400  0.36689400  0.25000000  1
  Na  Na10  1  0.13310600  0.88310600  0.25000000  1
  Na  Na11  1  0.38310600  0.63310600  0.75000000  1
  Na  Na12  1  0.28812900  0.53812900  0.75000000  1
  Na  Na13  1  0.03812900  0.78812900  0.25000000  1
  Na  Na14  1  0.71187100  0.46187100  0.25000000  1
  Na  Na15  1  0.96187100  0.21187100  0.75000000  1
  Na  Na16  1  0.58402800  0.78565100  0.29138300  1
  Na  Na17  1  0.28565100  0.49426800  0.20162400  1
  Na  Na18  1  0.79264400  0.08402800  0.29837600  1
  Na  Na19  1  0.99426800  0.29264400  0.20861700  1
  Na  Na20  1  0.41597200  0.21434900  0.70861700  1
  Na  Na21  1  0.71434900  0.50573200  0.79837600  1
  Na  Na22  1  0.20735600  0.91597200  0.70162400  1
  Na  Na23  1  0.00573200  0.70735600  0.79138300  1
  Na  Na24  1  0.12397600  0.86724100  0.75481000  1
  Na  Na25  1  0.36724100  0.11243100  0.74326400  1
  Na  Na26  1  0.86916700  0.62397600  0.75673600  1
  Na  Na27  1  0.61243100  0.36916700  0.74519000  1
  Na  Na28  1  0.87602400  0.13275900  0.24519000  1
  Na  Na29  1  0.63275900  0.88756900  0.25673600  1
  Na  Na30  1  0.13083300  0.37602400  0.24326400  1
  Na  Na31  1  0.38756900  0.63083300  0.25481000  1
  Cu  Cu0  1  0.94725900  0.65239600  0.50776300  1
  Cu  Cu1  1  0.15239600  0.14463300  0.70513600  1
  Cu  Cu2  1  0.93949600  0.44725900  0.79486400  1
  Cu  Cu3  1  0.64463300  0.43949600  0.99223700  1
  Cu  Cu4  1  0.05274100  0.34760400  0.49223700  1
  Cu  Cu5  1  0.84760400  0.85536700  0.29486400  1
  Cu  Cu6  1  0.06050400  0.55274100  0.20513600  1
  Cu  Cu7  1  0.35536700  0.56050400  0.00776300  1
  Cu  Cu8  1  0.95048100  0.92586300  0.78873500  1
  Cu  Cu9  1  0.42586300  0.13712800  0.97538100  1
  Cu  Cu10  1  0.66174600  0.45048100  0.52461900  1
  Cu  Cu11  1  0.63712800  0.16174600  0.71126500  1
  Cu  Cu12  1  0.04951900  0.07413700  0.21126500  1
  Cu  Cu13  1  0.57413700  0.86287200  0.02461900  1
  Cu  Cu14  1  0.33825400  0.54951900  0.47538100  1
  Cu  Cu15  1  0.36287200  0.83825400  0.28873500  1
  S  S0  1  0.80978000  0.74808400  0.54695400  1
  S  S1  1  0.24808400  0.20113000  0.93830400  1
  S  S2  1  0.76282600  0.30978000  0.56169600  1
  S  S3  1  0.70113000  0.26282600  0.95304600  1
  S  S4  1  0.19022000  0.25191600  0.45304600  1
  S  S5  1  0.75191600  0.79887000  0.06169600  1
  S  S6  1  0.23717400  0.69022000  0.43830400  1
  S  S7  1  0.29887000  0.73717400  0.04695400  1
  S  S8  1  0.09617200  0.09593400  0.02685400  1
  S  S9  1  0.59593400  0.06908000  0.99976200  1
  S  S10  1  0.56931800  0.59617200  0.50023800  1
  S  S11  1  0.56908000  0.06931800  0.47314600  1
  S  S12  1  0.90382800  0.90406600  0.97314600  1
  S  S13  1  0.40406600  0.93092000  0.00023800  1
  S  S14  1  0.43068200  0.40382800  0.49976200  1
  S  S15  1  0.43092000  0.93068200  0.52685400  1
  S  S16  1  0.57388900  0.60290000  0.00460900  1
  S  S17  1  0.10290000  0.59829000  0.02901000  1
  S  S18  1  0.06928000  0.07388900  0.47099000  1
  S  S19  1  0.09829000  0.56928000  0.49539100  1
  S  S20  1  0.42611100  0.39710000  0.99539100  1
  S  S21  1  0.89710000  0.40171000  0.97099000  1
  S  S22  1  0.93072000  0.92611100  0.52901000  1
  S  S23  1  0.90171000  0.43072000  0.50460900  1
loop_
_geom_bond_atom_site_label_1
_geom_bond_atom_site_label_2
_geom_bond_distance
_geom_bond_site_symmetry_2
Na0 S13 2.735464 1_545
Na0 S11 2.735464 1_555
Na0 S8 2.735464 1_555
Na0 S14 2.735464 1_555
Na1 S10 2.735464 1_555
Na1 S15 2.735464 1_555
Na1 S12 2.735464 1_555
Na1 S9 2.735464 1_565
Na2 S21 2.877515 1_554
Na2 S16 2.877523 1_555
Na2 S19 2.877528 1_655
Na2 S22 2.877528 1_555
Na3 S17 2.877515 1_556
Na3 S20 2.877523 1_555
Na3 S23 2.877528 1_455
Na3 S18 2.877528 1_555
Na4 S7 2.873196 1_545
Na4 S4 2.873196 1_555
Na4 S8 2.892049 1_555
Na4 S11 2.892049 1_555
Na5 S5 2.873196 1_556
Na5 S6 2.873196 1_555
Na5 S9 2.892049 1_565
Na5 S10 2.892049 1_555
Na6 S0 2.873196 1_555
Na6 S3 2.873196 1_565
Na6 S12 2.892049 1_555
Na6 S15 2.892049 1_555
Na7 S1 2.873196 1_554
Na7 S2 2.873196 1_555
Na7 S14 2.892049 1_555
Na7 S13 2.892049 1_545
Na8 S8 2.807307 1_656
Na8 S11 2.807307 1_555
Na8 S21 2.846825 1_555
Na8 S22 2.846832 1_545
Na9 S10 2.807307 1_555
Na9 S9 2.807307 1_554
Na9 S20 2.846818 1_554
Na9 S23 2.846832 1_555
Na10 S15 2.807307 1_555
Na10 S12 2.807307 1_454
Na10 S17 2.846825 1_555
Na10 S18 2.846832 1_565
Na11 S13 2.807307 1_556
Na11 S14 2.807307 1_555
Na11 S16 2.846818 1_556
Na11 S19 2.846832 1_555
Na12 S7 2.853305 1_556
Na12 S4 2.853305 1_555
Na12 S19 2.867787 1_555
Na12 S16 2.867795 1_556
Na13 S5 2.853305 1_455
Na13 S6 2.853305 1_555
Na13 S18 2.867787 1_565
Na13 S17 2.867803 1_555
Na14 S0 2.853305 1_555
Na14 S3 2.853305 1_554
Na14 S23 2.867787 1_555
Na14 S20 2.867795 1_554
Na15 S1 2.853305 1_655
Na15 S2 2.853305 1_555
Na15 S22 2.867787 1_545
Na15 S21 2.867803 1_555
Na16 S0 2.760372 1_555
Na16 S7 2.811467 1_555
Na16 S16 2.832191 1_555
Na16 S11 2.839743 1_565
Na17 S1 2.760368 1_554
Na17 S6 2.811453 1_555
Na17 S17 2.832203 1_555
Na17 S10 2.839749 1_555
Na18 S2 2.760372 1_555
Na18 S5 2.811467 1_545
Na18 S18 2.832190 1_655
Na18 S9 2.839736 1_554
Na19 S3 2.760368 1_554
Na19 S4 2.811453 1_655
Na19 S19 2.832197 1_655
Na19 S8 2.839749 1_655
Na20 S4 2.760372 1_555
Na20 S3 2.811467 1_555
Na20 S20 2.832191 1_555
Na20 S15 2.839743 1_545
Na21 S5 2.760368 1_556
Na21 S2 2.811453 1_555
Na21 S21 2.832203 1_555
Na21 S14 2.839749 1_555
Na22 S6 2.760372 1_555
Na22 S1 2.811467 1_565
Na22 S22 2.832190 1_455
Na22 S13 2.839736 1_556
Na23 S7 2.760368 1_556
Na23 S0 2.811453 1_455
Na23 S23 2.832197 1_455
Na23 S12 2.839749 1_455
Na24 S19 2.790719 1_555
Na24 S22 2.825360 1_455
Na24 S8 2.833236 1_566
Na24 S13 2.842940 1_556
Na25 S18 2.790723 1_555
Na25 S20 2.825338 1_555
Na25 S9 2.833248 1_555
Na25 S15 2.842925 1_545
Na26 S17 2.790707 1_656
Na26 S23 2.825360 1_555
Na26 S10 2.833244 1_555
Na26 S12 2.842941 1_555
Na27 S16 2.790719 1_556
Na27 S21 2.825338 1_555
Na27 S11 2.833248 1_555
Na27 S14 2.842925 1_555
Na28 S23 2.790719 1_555
Na28 S18 2.825360 1_655
Na28 S12 2.833236 1_544
Na28 S9 2.842940 1_554
Na29 S22 2.790723 1_555
Na29 S16 2.825338 1_555
Na29 S13 2.833248 1_555
Na29 S11 2.842925 1_565
Na30 S21 2.790707 1_454
Na30 S19 2.825360 1_555
Na30 S14 2.833244 1_555
Na30 S8 2.842941 1_555
Na31 S20 2.790719 1_554
Na31 S17 2.825338 1_555
Na31 S15 2.833248 1_555
Na31 S10 2.842925 1_555
Cu0 S19 2.155077 1_655
Cu0 S0 2.173409 1_555
Cu1 S18 2.155060 1_555
Cu1 S1 2.173426 1_555
Cu2 S17 2.155098 1_656
Cu2 S2 2.173402 1_555
Cu3 S16 2.155095 1_556
Cu3 S3 2.173409 1_555
Cu4 S23 2.155077 1_455
Cu4 S4 2.173409 1_555
Cu5 S22 2.155060 1_555
Cu5 S5 2.173426 1_555
Cu6 S21 2.155098 1_454
Cu6 S6 2.173402 1_555
Cu7 S20 2.155095 1_554
Cu7 S7 2.173409 1_555
Cu8 S8 2.147081 1_666
Cu8 S0 2.162484 1_555
Cu9 S9 2.147070 1_555
Cu9 S1 2.162495 1_555
Cu10 S10 2.147094 1_555
Cu10 S2 2.162472 1_555
Cu11 S11 2.147081 1_555
Cu11 S3 2.162484 1_555
Cu12 S12 2.147081 1_444
Cu12 S4 2.162484 1_555
Cu13 S13 2.147070 1_555
Cu13 S5 2.162495 1_555
Cu14 S14 2.147094 1_555
Cu14 S6 2.162472 1_555
Cu15 S15 2.147081 1_555
Cu15 S7 2.162484 1_555
