# generated using pymatgen
data_Na5TiNb3(SiO4)6
_symmetry_space_group_name_H-M   'P 1'
_cell_length_a   9.02097850
_cell_length_b   9.01687019
_cell_length_c   22.60212625
_cell_angle_alpha   90.27008767
_cell_angle_beta   89.80522368
_cell_angle_gamma   120.19223567
_symmetry_Int_Tables_number   1
_chemical_formula_structural   Na5TiNb3(SiO4)6
_chemical_formula_sum   'Na15 Ti3 Nb9 Si18 O72'
_cell_volume   1589.05792301
_cell_formula_units_Z   3
loop_
 _symmetry_equiv_pos_site_id
 _symmetry_equiv_pos_as_xyz
  1  'x, y, z'
loop_
 _atom_site_type_symbol
 _atom_site_label
 _atom_site_symmetry_multiplicity
 _atom_site_fract_x
 _atom_site_fract_y
 _atom_site_fract_z
 _atom_site_occupancy
  Na  Na0  1  0.36865811  0.36423607  0.24838615  1
  Na  Na1  1  0.99343754  0.62948904  0.24810517  1
  Na  Na2  1  0.63632309  0.62958852  0.74844838  1
  Na  Na3  1  0.99591546  0.36662804  0.74861129  1
  Na  Na4  1  0.03205407  0.69836882  0.58418906  1
  Na  Na5  1  0.30161053  0.96861963  0.08402166  1
  Na  Na6  1  0.69951794  0.03326209  0.91755191  1
  Na  Na7  1  0.96908499  0.29604852  0.41487618  1
  Na  Na8  1  0.32908003  0.03337495  0.41511313  1
  Na  Na9  1  0.99361261  0.99871595  0.49778890  1
  Na  Na10  1  0.00002808  0.00000590  0.00077700  1
  Na  Na11  1  0.66036927  0.33224490  0.83206992  1
  Na  Na12  1  0.66659057  0.33275382  0.32959329  1
  Na  Na13  1  0.33975435  0.66767330  0.16537561  1
  Na  Na14  1  0.33944732  0.67287110  0.66563987  1
  Ti  Ti0  1  0.99588358  0.99585766  0.35106861  1
  Ti  Ti1  1  0.66077317  0.32707867  0.68560897  1
  Ti  Ti2  1  0.66595096  0.32763628  0.18563440  1
  Nb  Nb0  1  0.00554527  0.00062270  0.85422316  1
  Nb  Nb1  1  -0.00022529  0.00413750  0.64494424  1
  Nb  Nb2  1  0.99423059  0.99971947  0.14551669  1
  Nb  Nb3  1  0.66777780  0.33910552  0.97962764  1
  Nb  Nb4  1  0.66710147  0.33722654  0.48003434  1
  Nb  Nb5  1  0.33233223  0.66130624  0.02221072  1
  Nb  Nb6  1  0.33854336  0.66707047  0.52134748  1
  Nb  Nb7  1  0.33656339  0.67022596  0.31231480  1
  Nb  Nb8  1  0.33342380  0.67043410  0.81321952  1
  Si  Si0  1  0.29166758  0.00394096  0.25029296  1
  Si  Si1  1  0.71141591  0.71027721  0.25061220  1
  Si  Si2  1  0.99169548  0.28405392  0.25134098  1
  Si  Si3  1  0.29534422  0.28848574  0.74941519  1
  Si  Si4  1  0.00013184  0.70960700  0.74849959  1
  Si  Si5  1  0.70894531  0.00364428  0.75000511  1
  Si  Si6  1  0.95219029  0.33084696  0.58457930  1
  Si  Si7  1  0.38009931  0.04661655  0.58422937  1
  Si  Si8  1  0.66309543  0.61967457  0.58612512  1
  Si  Si9  1  0.95298490  0.61950657  0.08580326  1
  Si  Si10  1  0.66962529  0.04808404  0.08338595  1
  Si  Si11  1  0.38157561  0.33611307  0.08581544  1
  Si  Si12  1  0.62181992  0.66373367  0.91632711  1
  Si  Si13  1  0.04363206  0.37745333  0.91650266  1
  Si  Si14  1  0.33065873  0.95622122  0.91858751  1
  Si  Si15  1  0.62946313  0.95559191  0.41650787  1
  Si  Si16  1  0.33344060  0.37560962  0.41575616  1
  Si  Si17  1  0.04212517  0.67071313  0.41657661  1
  O  O0  1  0.20001197  0.03349782  0.30881293  1
  O  O1  1  0.83912752  0.80653042  0.30692586  1
  O  O2  1  0.97170787  0.16928114  0.30996946  1
  O  O3  1  0.19600838  0.16714923  0.80686565  1
  O  O4  1  0.96718643  0.80468058  0.80551870  1
  O  O5  1  0.83065027  0.03383083  0.80837968  1
  O  O6  1  0.80266711  0.96502093  0.69383014  1
  O  O7  1  0.16319003  0.19752563  0.69354215  1
  O  O8  1  0.03114436  0.83037536  0.69049847  1
  O  O9  1  0.80386346  0.83446401  0.19298369  1
  O  O10  1  0.03533388  0.19673754  0.19437145  1
  O  O11  1  0.16691232  0.96447095  0.19199271  1
  O  O12  1  0.86649450  0.36848213  0.64230410  1
  O  O13  1  0.50375123  0.14175290  0.64075072  1
  O  O14  1  0.63823395  0.50307354  0.64402697  1
  O  O15  1  0.86409493  0.50223293  0.14385376  1
  O  O16  1  0.63294698  0.13952476  0.13980525  1
  O  O17  1  0.49796000  0.36282824  0.14413748  1
  O  O18  1  0.47081886  0.29990564  0.02753104  1
  O  O19  1  0.83309327  0.52785429  0.02698806  1
  O  O20  1  0.69580717  0.16206881  0.02350962  1
  O  O21  1  0.46725623  0.16255761  0.52446098  1
  O  O22  1  0.69896579  0.52934889  0.52785095  1
  O  O23  1  0.83632902  0.30433089  0.52473624  1
  O  O24  1  0.52947461  0.70096156  0.97256145  1
  O  O25  1  0.16763300  0.47253230  0.97324507  1
  O  O26  1  0.30393824  0.83793686  0.97646904  1
  O  O27  1  0.52875523  0.83343764  0.47369056  1
  O  O28  1  0.30086728  0.47169281  0.47243031  1
  O  O29  1  0.16473814  0.69957833  0.47465499  1
  O  O30  1  0.13156955  0.63178039  0.35883124  1
  O  O31  1  0.49631065  0.86391125  0.36045554  1
  O  O32  1  0.36393743  0.49757735  0.35770612  1
  O  O33  1  0.13390145  0.49548510  0.85744902  1
  O  O34  1  0.36512095  0.86241028  0.86094025  1
  O  O35  1  0.50393477  0.63753342  0.85715430  1
  O  O36  1  0.03220414  0.84408475  0.40972890  1
  O  O37  1  0.81999041  0.98347022  0.41017336  1
  O  O38  1  0.16265878  0.18723497  0.41083278  1
  O  O39  1  0.01788311  0.18476472  0.91039347  1
  O  O40  1  0.16141496  0.97449555  0.91002829  1
  O  O41  1  0.80735954  0.84051343  0.90956235  1
  O  O42  1  0.97377284  0.16194156  0.58997862  1
  O  O43  1  0.18619006  0.01934465  0.59005288  1
  O  O44  1  0.84013210  0.80713312  0.58977659  1
  O  O45  1  0.98223315  0.81489332  0.08967166  1
  O  O46  1  0.83812588  0.02627845  0.08993563  1
  O  O47  1  0.19322693  0.15973585  0.09030683  1
  O  O48  1  0.69886256  0.17709501  0.74279280  1
  O  O49  1  0.48671081  0.31701671  0.74372690  1
  O  O50  1  0.82940633  0.52029068  0.74412920  1
  O  O51  1  0.69176493  0.52138833  0.24472813  1
  O  O52  1  0.83091990  0.31583579  0.24383401  1
  O  O53  1  0.47807025  0.17654417  0.24379085  1
  O  O54  1  0.64091957  0.49456424  0.92282136  1
  O  O55  1  0.85103323  0.35115480  0.92241867  1
  O  O56  1  0.50768738  0.14178587  0.92257022  1
  O  O57  1  0.64087998  0.14364688  0.42288593  1
  O  O58  1  0.50182779  0.35253124  0.42297610  1
  O  O59  1  0.85716685  0.49149762  0.42283590  1
  O  O60  1  0.35986908  0.50434470  0.07693171  1
  O  O61  1  0.14740927  0.64768673  0.07748791  1
  O  O62  1  0.49349850  0.85973610  0.07712370  1
  O  O63  1  0.35161733  0.85224036  0.57747810  1
  O  O64  1  0.49517230  0.64084455  0.57710209  1
  O  O65  1  0.14012936  0.50663672  0.57642476  1
  O  O66  1  0.30054905  0.82565822  0.25710000  1
  O  O67  1  0.51850472  0.68666360  0.25647507  1
  O  O68  1  0.16919007  0.47634234  0.25672323  1
  O  O69  1  0.30788024  0.47729073  0.75596796  1
  O  O70  1  0.16848079  0.68561877  0.75618863  1
  O  O71  1  0.52355891  0.82482440  0.75581801  1
loop_
_geom_bond_atom_site_label_1
_geom_bond_atom_site_label_2
_geom_bond_distance
_geom_bond_site_symmetry_2
Na0 O53 2.350937 1_555
Na0 O68 2.473970 1_555
Na0 O51 2.521058 1_555
Na0 O67 2.521289 1_555
Na0 O17 2.628406 1_555
Na0 O32 2.752332 1_555
Na0 O10 2.872779 1_555
Na0 O0 2.921375 1_555
Na1 O51 2.386324 1_555
Na1 O66 2.432490 1_655
Na1 O52 2.446477 1_555
Na1 O68 2.581711 1_655
Na1 O15 2.622368 1_555
Na1 O30 2.794854 1_655
Na1 O11 2.906745 1_655
Na1 O1 2.907935 1_555
Na2 O50 2.395651 1_555
Na2 O49 2.438978 1_555
Na2 O71 2.441075 1_555
Na2 O69 2.568992 1_555
Na2 O14 2.620317 1_555
Na2 O35 2.744565 1_555
Na2 O4 2.886578 1_555
Na2 O6 2.895045 1_555
Na3 O48 2.347951 1_555
Na3 O69 2.473941 1_655
Na3 O70 2.493868 1_655
Na3 O50 2.506374 1_555
Na3 O12 2.678754 1_555
Na3 O33 2.736795 1_655
Na3 O7 2.904262 1_655
Na3 O5 2.928670 1_555
Na4 O65 2.379373 1_555
Na4 O44 2.383352 1_455
Na4 O63 2.496897 1_555
Na4 O43 2.505460 1_565
Na4 O8 2.678267 1_555
Na4 O29 2.743878 1_555
Na4 O12 2.891199 1_455
Na4 O22 2.893888 1_455
Na5 O47 2.374280 1_565
Na5 O62 2.385523 1_555
Na5 O45 2.494151 1_455
Na5 O61 2.505899 1_555
Na5 O26 2.701082 1_554
Na5 O11 2.714462 1_555
Na5 O16 2.876267 1_565
Na5 O18 2.884425 1_565
Na6 O56 2.380308 1_555
Na6 O41 2.386644 1_545
Na6 O55 2.480723 1_555
Na6 O39 2.488644 1_655
Na6 O20 2.664167 1_556
Na6 O5 2.731708 1_555
Na6 O24 2.876810 1_545
Na6 O34 2.905823 1_545
Na7 O38 2.396177 1_655
Na7 O59 2.437807 1_555
Na7 O37 2.439145 1_545
Na7 O57 2.567795 1_555
Na7 O2 2.632597 1_555
Na7 O23 2.770095 1_555
Na7 O28 2.897910 1_655
Na7 O30 2.911677 1_655
Na8 O36 2.345843 1_545
Na8 O57 2.473817 1_555
Na8 O58 2.495624 1_555
Na8 O38 2.506998 1_555
Na8 O0 2.673672 1_555
Na8 O21 2.748137 1_555
Na8 O31 2.902576 1_545
Na8 O29 2.933342 1_545
Na9 O37 2.489087 1_555
Na9 O38 2.545906 1_665
Na9 O36 2.546380 1_655
Na9 O42 2.602578 1_565
Na9 O44 2.613906 1_555
Na9 O43 2.664073 1_665
Na10 O46 2.563912 1_455
Na10 O45 2.570725 1_445
Na10 O47 2.584270 1_555
Na10 O40 2.586814 1_544
Na10 O39 2.595102 1_554
Na10 O41 2.611854 1_444
Na11 O49 2.502457 1_555
Na11 O50 2.561562 1_555
Na11 O48 2.570340 1_555
Na11 O54 2.570565 1_555
Na11 O56 2.581718 1_555
Na11 O55 2.623562 1_555
Na12 O52 2.486586 1_555
Na12 O53 2.494882 1_555
Na12 O51 2.502625 1_555
Na12 O58 2.633916 1_555
Na12 O59 2.639510 1_555
Na12 O57 2.653371 1_555
Na13 O60 2.537016 1_555
Na13 O62 2.549390 1_555
Na13 O67 2.571123 1_555
Na13 O61 2.587415 1_555
Na13 O66 2.631786 1_555
Na13 O68 2.636030 1_555
Na14 O64 2.538675 1_555
Na14 O63 2.539450 1_555
Na14 O71 2.549108 1_555
Na14 O70 2.595194 1_555
Na14 O65 2.613651 1_555
Na14 O69 2.623766 1_555
Nb0 O3 1.939127 1_555
Nb0 O4 1.955101 1_445
Nb0 O40 1.992878 1_545
Nb0 O5 2.035118 1_455
Nb0 O39 2.043596 1_555
Nb0 O41 2.061745 1_445
Nb1 O7 1.956479 1_555
Nb1 O6 1.966326 1_445
Nb1 O42 1.994345 1_455
Nb1 O8 2.014492 1_545
Nb1 O43 2.035062 1_555
Nb1 O44 2.050000 1_445
Nb2 O9 1.936299 1_555
Nb2 O10 1.958176 1_665
Nb2 O46 1.993151 1_565
Nb2 O11 2.035519 1_655
Nb2 O45 2.044990 1_555
Nb2 O47 2.063514 1_665
Nb3 O19 1.925421 1_556
Nb3 O18 1.952682 1_556
Nb3 O20 2.004617 1_556
Nb3 O54 2.008183 1_555
Nb3 O55 2.054943 1_555
Nb3 O56 2.078691 1_555
Nb4 O22 1.932688 1_555
Nb4 O21 1.971209 1_555
Nb4 O23 1.976881 1_555
Nb4 O58 2.031447 1_555
Nb4 O59 2.036936 1_555
Nb4 O57 2.082458 1_555
Nb5 O25 1.944063 1_554
Nb5 O24 1.974975 1_554
Nb5 O60 1.991656 1_555
Nb5 O26 2.024515 1_554
Nb5 O61 2.034725 1_555
Nb5 O62 2.056803 1_555
Nb6 O27 1.941281 1_555
Nb6 O28 1.955368 1_555
Nb6 O64 1.997838 1_555
Nb6 O29 2.033319 1_555
Nb6 O63 2.047965 1_555
Nb6 O65 2.059998 1_555
Nb7 O31 1.942177 1_555
Nb7 O32 1.985054 1_555
Nb7 O30 1.997673 1_555
Nb7 O67 2.012880 1_555
Nb7 O66 2.025942 1_555
Nb7 O68 2.062045 1_555
Nb8 O34 1.930859 1_555
Nb8 O33 1.968319 1_555
Nb8 O35 1.977930 1_555
Nb8 O70 2.028280 1_555
Nb8 O71 2.040447 1_555
Nb8 O69 2.082713 1_555
O0 Si0 1.647730 1_555
O0 Ti0 1.944410 1_445
O1 Si1 1.641477 1_555
O1 Ti0 1.864107 1_555
O2 Si2 1.638016 1_555
O2 Ti0 1.927130 1_545
O3 Si3 1.644840 1_555
O4 Si4 1.651471 1_655
O5 Si5 1.651105 1_555
O6 Si5 1.653133 1_565
O7 Si3 1.644912 1_555
O8 Si4 1.639274 1_555
O9 Si1 1.647138 1_555
O10 Si2 1.652747 1_455
O11 Si0 1.652992 1_565
O12 Si6 1.633359 1_555
O12 Ti1 1.958483 1_555
O13 Si7 1.627595 1_555
O13 Ti1 1.854689 1_555
O14 Si8 1.625488 1_555
O14 Ti1 1.944959 1_555
O15 Si9 1.623505 1_555
O15 Ti2 1.933237 1_555
O16 Si10 1.636163 1_555
O16 Ti2 1.875158 1_555
O17 Si11 1.627887 1_555
O17 Ti2 1.942446 1_555
O18 Si11 1.656267 1_555
O19 Si9 1.649329 1_555
O20 Si10 1.646335 1_555
O21 Si7 1.647836 1_555
O22 Si8 1.659794 1_555
O23 Si6 1.653560 1_555
O24 Si12 1.640781 1_555
O25 Si13 1.632758 1_555
O26 Si14 1.630822 1_555
O27 Si15 1.645582 1_555
O28 Si16 1.649491 1_555
O29 Si17 1.652706 1_555
O30 Si17 1.658665 1_555
O31 Si15 1.653168 1_555
O32 Si16 1.647269 1_555
O33 Si13 1.646705 1_555
O34 Si14 1.661684 1_555
O35 Si12 1.652101 1_555
O36 Si17 1.618293 1_555
O36 Ti0 2.051613 1_455
O37 Si15 1.613032 1_555
O37 Ti0 2.030647 1_555
O38 Si16 1.624295 1_555
O38 Ti0 2.108670 1_445
O39 Si13 1.638226 1_555
O40 Si14 1.628148 1_555
O41 Si12 1.637914 1_555
O42 Si6 1.634772 1_555
O43 Si7 1.644313 1_555
O44 Si8 1.642827 1_555
O45 Si9 1.646901 1_555
O46 Si10 1.635085 1_555
O47 Si11 1.645894 1_555
O48 Si5 1.620640 1_555
O48 Ti1 2.025927 1_555
O49 Si3 1.617091 1_555
O49 Ti1 2.010753 1_555
O50 Si4 1.628139 1_655
O50 Ti1 2.103596 1_555
O51 Si1 1.626131 1_555
O51 Ti2 2.112164 1_555
O52 Si2 1.623149 1_555
O52 Ti2 2.032307 1_555
O53 Si0 1.624683 1_555
O53 Ti2 2.033651 1_555
O54 Si12 1.626235 1_555
O55 Si13 1.636186 1_655
O56 Si14 1.634024 1_545
O57 Si15 1.651914 1_545
O58 Si16 1.642342 1_555
O59 Si17 1.644358 1_655
O60 Si11 1.637563 1_555
O61 Si9 1.651063 1_455
O62 Si10 1.647407 1_565
O63 Si7 1.644975 1_565
O64 Si8 1.632804 1_555
O65 Si6 1.648785 1_455
O66 Si0 1.657189 1_565
O67 Si1 1.648444 1_555
O68 Si2 1.670867 1_455
O69 Si3 1.654415 1_555
O70 Si4 1.647998 1_555
O71 Si5 1.643844 1_565
