# generated using pymatgen
data_Y2Mg(CoO3)2
_symmetry_space_group_name_H-M   'P 1'
_cell_length_a   3.52093093
_cell_length_b   3.52093163
_cell_length_c   13.49111861
_cell_angle_alpha   89.96164512
_cell_angle_beta   90.03835487
_cell_angle_gamma   120.05829046
_symmetry_Int_Tables_number   1
_chemical_formula_structural   Y2Mg(CoO3)2
_chemical_formula_sum   'Y2 Mg1 Co2 O6'
_cell_volume   144.75653100
_cell_formula_units_Z   1
loop_
 _symmetry_equiv_pos_site_id
 _symmetry_equiv_pos_as_xyz
  1  'x, y, z'
loop_
 _atom_site_type_symbol
 _atom_site_label
 _atom_site_symmetry_multiplicity
 _atom_site_fract_x
 _atom_site_fract_y
 _atom_site_fract_z
 _atom_site_occupancy
  Y  Y0  1  0.99891891  0.00108109  0.55801174  1
  Y  Y1  1  0.99967150  0.00032850  0.97915643  1
  Mg  Mg0  1  0.66548966  0.33451034  0.36346885  1
  Co  Co0  1  0.66604042  0.33395658  0.75854530  1
  Co  Co1  1  0.33308655  0.66691545  0.20725028  1
  O  O0  1  0.33268744  0.66731456  0.42502303  1
  O  O1  1  0.66635044  0.33364656  0.90959546  1
  O  O2  1  0.66585716  0.33413984  0.59013273  1
  O  O3  1  0.33311882  0.66688318  0.06779743  1
  O  O4  1  0.00032026  0.99967974  0.26122473  1
  O  O5  1  0.99916984  0.00083016  0.73098501  1
loop_
_geom_bond_atom_site_label_1
_geom_bond_atom_site_label_2
_geom_bond_distance
_geom_bond_site_symmetry_2
Mg0 O0 2.194045 1_555
Mg0 O0 2.195986 1_545
Mg0 O0 2.195991 1_655
Mg0 O4 2.451436 1_545
Mg0 O4 2.451436 1_655
Mg0 O4 2.465571 1_645
Co0 O1 2.037835 1_555
Co0 O5 2.065832 1_455
Co0 O5 2.065841 1_565
Co0 O5 2.066172 1_555
Co0 O2 2.272073 1_555
Co1 O3 1.881375 1_555
Co1 O4 2.157125 1_555
Co1 O4 2.159538 1_655
Co1 O4 2.159544 1_545
O0 Y0 2.708929 1_565
O0 Y0 2.708934 1_455
O0 Y0 2.714812 1_465
O1 Y1 2.238256 1_455
O1 Y1 2.238265 1_565
O1 Y1 2.238784 1_555
O2 Y0 2.077769 1_555
O2 Y0 2.077967 1_455
O2 Y0 2.077976 1_565
O3 Y1 2.357547 1_564
O3 Y1 2.357552 1_454
O3 Y1 2.358789 1_464
O5 Y0 2.333602 1_555
