# generated using pymatgen
data_Li3VF6
_symmetry_space_group_name_H-M   'P 1'
_cell_length_a   8.28872097
_cell_length_b   8.28872097
_cell_length_c   9.95288769
_cell_angle_alpha   84.11047933
_cell_angle_beta   84.11047933
_cell_angle_gamma   62.68621560
_symmetry_Int_Tables_number   1
_chemical_formula_structural   Li3VF6
_chemical_formula_sum   'Li18 V6 F36'
_cell_volume   603.15327384
_cell_formula_units_Z   6
loop_
 _symmetry_equiv_pos_site_id
 _symmetry_equiv_pos_as_xyz
  1  'x, y, z'
loop_
 _atom_site_type_symbol
 _atom_site_label
 _atom_site_symmetry_multiplicity
 _atom_site_fract_x
 _atom_site_fract_y
 _atom_site_fract_z
 _atom_site_occupancy
  Li  Li0  1  0.81405891  0.18594109  0.25000000  1
  Li  Li1  1  0.99165132  0.29434445  0.72525674  1
  Li  Li2  1  0.70565555  0.00834868  0.77474326  1
  Li  Li3  1  0.00834868  0.70565555  0.27474326  1
  Li  Li4  1  0.29434445  0.99165132  0.22525674  1
  Li  Li5  1  0.67250083  0.36778771  0.97838843  1
  Li  Li6  1  0.63221229  0.32749917  0.52161157  1
  Li  Li7  1  0.18594109  0.81405891  0.75000000  1
  Li  Li8  1  0.65190856  0.94369705  0.42968548  1
  Li  Li9  1  0.05630295  0.34809144  0.07031452  1
  Li  Li10  1  0.34809144  0.05630295  0.57031452  1
  Li  Li11  1  0.94369705  0.65190856  0.92968548  1
  Li  Li12  1  0.52658607  0.13703558  0.04649343  1
  Li  Li13  1  0.86296442  0.47341393  0.45350657  1
  Li  Li14  1  0.47341393  0.86296442  0.95350657  1
  Li  Li15  1  0.13703558  0.52658607  0.54649343  1
  Li  Li16  1  0.36778771  0.67250083  0.47838843  1
  Li  Li17  1  0.32749917  0.63221229  0.02161157  1
  V  V0  1  0.66213442  0.65958530  0.20995072  1
  V  V1  1  0.34041470  0.33786558  0.29004928  1
  V  V2  1  0.33786558  0.34041470  0.79004928  1
  V  V3  1  0.65958530  0.66213442  0.70995072  1
  V  V4  1  -0.00000000  -0.00000000  0.50000000  1
  V  V5  1  -0.00000000  -0.00000000  0.00000000  1
  F  F0  1  0.92009611  0.93099316  0.17281807  1
  F  F1  1  0.58764834  0.89800448  0.61103341  1
  F  F2  1  0.10199552  0.41235166  0.88896659  1
  F  F3  1  0.93099316  0.92009611  0.67281807  1
  F  F4  1  0.07990389  0.06900684  0.82718193  1
  F  F5  1  0.06900684  0.07990389  0.32718193  1
  F  F6  1  0.57407742  0.25106589  0.18792851  1
  F  F7  1  0.74893411  0.42592258  0.31207149  1
  F  F8  1  0.42592258  0.74893411  0.81207149  1
  F  F9  1  0.25106589  0.57407742  0.68792851  1
  F  F10  1  0.43383340  0.09976044  0.88408270  1
  F  F11  1  0.90023956  0.56616660  0.61591730  1
  F  F12  1  0.56616660  0.90023956  0.11591730  1
  F  F13  1  0.09976044  0.43383340  0.38408270  1
  F  F14  1  0.56709242  0.24140461  0.68777909  1
  F  F15  1  0.75859539  0.43290758  0.81222091  1
  F  F16  1  0.43290758  0.75859539  0.31222091  1
  F  F17  1  0.24140461  0.56709242  0.18777909  1
  F  F18  1  0.77136845  0.72735330  0.34910667  1
  F  F19  1  0.27264670  0.22863155  0.15089333  1
  F  F20  1  0.22863155  0.27264670  0.65089333  1
  F  F21  1  0.72735330  0.77136845  0.84910667  1
  F  F22  1  0.91444927  0.24175550  0.56147418  1
  F  F23  1  0.75824450  0.08555073  0.93852582  1
  F  F24  1  0.08555073  0.75824450  0.43852582  1
  F  F25  1  0.24175550  0.91444927  0.06147418  1
  F  F26  1  0.75345609  0.09840204  0.43057928  1
  F  F27  1  0.90159796  0.24654391  0.06942072  1
  F  F28  1  0.24654391  0.90159796  0.56942072  1
  F  F29  1  0.09840204  0.75345609  0.93057928  1
  F  F30  1  0.43293769  0.40531628  0.93730893  1
  F  F31  1  0.59468372  0.56706231  0.56269107  1
  F  F32  1  0.56706231  0.59468372  0.06269107  1
  F  F33  1  0.40531628  0.43293769  0.43730893  1
  F  F34  1  0.41235166  0.10199552  0.38896659  1
  F  F35  1  0.89800448  0.58764834  0.11103341  1
loop_
_geom_bond_atom_site_label_1
_geom_bond_atom_site_label_2
_geom_bond_distance
_geom_bond_site_symmetry_2
F0 Li3 1.887410 1_655
F0 V5 1.906910 1_665
F0 Li0 2.078040 1_565
F1 Li10 1.869108 1_565
F1 Li8 1.879489 1_555
F1 V3 1.950051 1_555
F1 Li2 2.429415 1_565
F2 Li11 1.869108 1_455
F2 Li9 1.879489 1_556
F2 V2 1.950051 1_555
F2 Li1 2.429415 1_455
F3 Li2 1.887410 1_565
F3 V4 1.906910 1_665
F3 Li7 2.078040 1_655
F4 Li1 1.887410 1_455
F4 V5 1.906910 1_556
F4 Li7 2.078040 1_545
F5 Li4 1.887410 1_545
F5 V4 1.906910 1_555
F5 Li0 2.078040 1_455
F6 Li12 1.938579 1_555
F6 V1 1.941404 1_555
F6 Li0 1.956548 1_555
F6 Li5 2.431476 1_554
F7 Li13 1.938579 1_555
F7 V0 1.941404 1_555
F7 Li0 1.956548 1_555
F7 Li6 2.431476 1_555
F8 Li14 1.938579 1_555
F8 V3 1.941404 1_555
F8 Li7 1.956548 1_555
F8 Li17 2.431476 1_556
F9 Li15 1.938579 1_555
F9 V2 1.941404 1_555
F9 Li7 1.956548 1_555
F9 Li16 2.431476 1_555
F10 Li14 1.901227 1_545
F10 V2 1.949630 1_555
F10 Li12 1.968492 1_556
F10 Li2 2.221263 1_555
F11 Li15 1.901227 1_655
F11 V3 1.949630 1_555
F11 Li13 1.968492 1_555
F11 Li1 2.221263 1_555
F12 Li12 1.901227 1_565
F12 V0 1.949630 1_555
F12 Li14 1.968492 1_554
F12 Li4 2.221263 1_555
F13 Li13 1.901227 1_455
F13 V1 1.949630 1_555
F13 Li15 1.968492 1_555
F13 Li3 2.221263 1_555
F14 Li6 1.861151 1_555
F14 Li2 1.903848 1_555
F14 V2 1.913930 1_555
F15 Li5 1.861151 1_555
F15 Li1 1.903848 1_555
F15 V3 1.913930 1_555
F16 Li16 1.861151 1_555
F16 Li4 1.903848 1_555
F16 V0 1.913930 1_555
F17 Li17 1.861151 1_555
F17 Li3 1.903848 1_555
F17 V1 1.913930 1_555
F18 Li8 1.828088 1_555
F18 Li3 1.960416 1_655
F18 V0 1.984253 1_555
F18 Li13 2.081569 1_555
F19 Li9 1.828088 1_555
F19 Li4 1.960416 1_545
F19 V1 1.984253 1_555
F19 Li12 2.081569 1_555
F20 Li10 1.828088 1_555
F20 Li1 1.960416 1_455
F20 V2 1.984253 1_555
F20 Li15 2.081569 1_555
F21 Li11 1.828088 1_555
F21 Li2 1.960416 1_565
F21 V3 1.984253 1_555
F21 Li14 2.081569 1_555
F22 V4 1.936780 1_655
F22 Li1 1.967896 1_555
F22 Li13 1.985573 1_555
F22 Li6 2.177616 1_555
F23 V5 1.936780 1_656
F23 Li2 1.967896 1_555
F23 Li12 1.985573 1_556
F23 Li5 2.177616 1_555
F24 V4 1.936780 1_565
F24 Li3 1.967896 1_555
F24 Li15 1.985573 1_555
F24 Li16 2.177616 1_555
F25 V5 1.936780 1_565
F25 Li4 1.967896 1_555
F25 Li14 1.985573 1_554
F25 Li17 2.177616 1_555
F26 Li8 1.829547 1_545
F26 Li6 1.962558 1_555
F26 Li0 1.972466 1_555
F26 V4 1.990766 1_655
F27 Li9 1.829547 1_655
F27 Li5 1.962558 1_554
F27 Li0 1.972466 1_555
F27 V5 1.990766 1_655
F28 Li10 1.829547 1_565
F28 Li16 1.962558 1_555
F28 Li7 1.972466 1_555
F28 V4 1.990766 1_565
F29 Li11 1.829547 1_455
F29 Li17 1.962558 1_556
F29 Li7 1.972466 1_555
F29 V5 1.990766 1_566
F30 Li17 1.915648 1_556
F30 Li5 1.944345 1_555
F30 V2 1.961226 1_555
F30 Li12 2.195771 1_556
F31 Li16 1.915648 1_555
F31 Li6 1.944345 1_555
F31 V3 1.961226 1_555
F31 Li13 2.195771 1_555
F32 Li5 1.915648 1_554
F32 Li17 1.944345 1_555
F32 V0 1.961226 1_555
F32 Li14 2.195771 1_554
F33 Li6 1.915648 1_555
F33 Li16 1.944345 1_555
F33 V1 1.961226 1_555
F33 Li15 2.195771 1_555
F34 Li8 1.869108 1_545
F34 Li10 1.879489 1_555
F34 V1 1.950051 1_555
F34 Li4 2.429415 1_545
F35 Li9 1.869108 1_655
F35 Li11 1.879489 1_554
F35 V0 1.950051 1_555
F35 Li3 2.429415 1_655
