# generated using pymatgen
data_BaNb8O14
_symmetry_space_group_name_H-M   'P 1'
_cell_length_a   6.02479200
_cell_length_b   9.50860300
_cell_length_c   10.40682600
_cell_angle_alpha   90.00000000
_cell_angle_beta   90.00000000
_cell_angle_gamma   90.00000000
_symmetry_Int_Tables_number   1
_chemical_formula_structural   BaNb8O14
_chemical_formula_sum   'Ba2 Nb16 O28'
_cell_volume   596.17953846
_cell_formula_units_Z   2
loop_
 _symmetry_equiv_pos_site_id
 _symmetry_equiv_pos_as_xyz
  1  'x, y, z'
loop_
 _atom_site_type_symbol
 _atom_site_label
 _atom_site_symmetry_multiplicity
 _atom_site_fract_x
 _atom_site_fract_y
 _atom_site_fract_z
 _atom_site_occupancy
  Ba  Ba0  1  0.50000000  0.50000000  0.00000000  1
  Ba  Ba1  1  0.50000000  0.00000000  0.50000000  1
  Nb  Nb0  1  0.00000000  0.38245900  0.16406200  1
  Nb  Nb1  1  0.00000000  0.61754100  0.83593800  1
  Nb  Nb2  1  0.00000000  0.88245900  0.33593800  1
  Nb  Nb3  1  0.00000000  0.11754100  0.66406200  1
  Nb  Nb4  1  0.50000000  0.38048700  0.66435600  1
  Nb  Nb5  1  0.50000000  0.61951300  0.33564400  1
  Nb  Nb6  1  0.50000000  0.88048700  0.83564400  1
  Nb  Nb7  1  0.50000000  0.11951300  0.16435600  1
  Nb  Nb8  1  0.73149200  0.62370300  0.57642200  1
  Nb  Nb9  1  0.73149200  0.37629700  0.42357800  1
  Nb  Nb10  1  0.26850800  0.12370300  0.92357800  1
  Nb  Nb11  1  0.26850800  0.87629700  0.07642200  1
  Nb  Nb12  1  0.26850800  0.37629700  0.42357800  1
  Nb  Nb13  1  0.26850800  0.62370300  0.57642200  1
  Nb  Nb14  1  0.73149200  0.87629700  0.07642200  1
  Nb  Nb15  1  0.73149200  0.12370300  0.92357800  1
  O  O0  1  0.74696200  0.50528200  0.75292800  1
  O  O1  1  0.74696200  0.49471800  0.24707200  1
  O  O2  1  0.25303800  0.00528200  0.74707200  1
  O  O3  1  0.25303800  0.99471800  0.25292800  1
  O  O4  1  0.25303800  0.49471800  0.24707200  1
  O  O5  1  0.25303800  0.50528200  0.75292800  1
  O  O6  1  0.74696200  0.99471800  0.25292800  1
  O  O7  1  0.74696200  0.00528200  0.74707200  1
  O  O8  1  0.25021700  0.74356700  0.91282700  1
  O  O9  1  0.25021700  0.25643300  0.08717300  1
  O  O10  1  0.74978300  0.24356700  0.58717300  1
  O  O11  1  0.74978300  0.75643300  0.41282700  1
  O  O12  1  0.74978300  0.25643300  0.08717300  1
  O  O13  1  0.74978300  0.74356700  0.91282700  1
  O  O14  1  0.25021700  0.75643300  0.41282700  1
  O  O15  1  0.25021700  0.24356700  0.58717300  1
  O  O16  1  0.00000000  0.50000000  0.00000000  1
  O  O17  1  0.00000000  0.00000000  0.50000000  1
  O  O18  1  0.00000000  0.23184300  0.82221500  1
  O  O19  1  0.00000000  0.76815700  0.17778500  1
  O  O20  1  0.00000000  0.73184300  0.67778500  1
  O  O21  1  0.00000000  0.26815700  0.32221500  1
  O  O22  1  0.50000000  0.24374500  0.34418200  1
  O  O23  1  0.50000000  0.75625500  0.65581800  1
  O  O24  1  0.50000000  0.74374500  0.15581800  1
  O  O25  1  0.50000000  0.25625500  0.84418200  1
  O  O26  1  0.00000000  0.00000000  0.00000000  1
  O  O27  1  0.00000000  0.50000000  0.50000000  1
loop_
_geom_bond_atom_site_label_1
_geom_bond_atom_site_label_2
_geom_bond_distance
_geom_bond_site_symmetry_2
Ba0 O24 2.828623 1_555
Ba0 O25 2.828623 1_554
Ba0 O13 2.907141 1_554
Ba0 O8 2.907141 1_554
Ba0 O12 2.907141 1_555
Ba0 O9 2.907141 1_555
Ba0 O4 2.971128 1_555
Ba0 O1 2.971128 1_555
Ba0 O5 2.971128 1_554
Ba0 O0 2.971128 1_554
Ba0 O16 3.012396 1_655
Ba0 O16 3.012396 1_555
Ba1 O22 2.828623 1_555
Ba1 O23 2.828623 1_545
Ba1 O10 2.907141 1_555
Ba1 O15 2.907141 1_555
Ba1 O11 2.907141 1_545
Ba1 O14 2.907141 1_545
Ba1 O2 2.971128 1_555
Ba1 O7 2.971128 1_555
Ba1 O3 2.971128 1_545
Ba1 O6 2.971128 1_545
Ba1 O17 3.012396 1_655
Ba1 O17 3.012396 1_555
Nb0 O21 1.972343 1_555
Nb0 O16 2.040646 1_555
Nb0 O4 2.051774 1_555
Nb0 O1 2.051774 1_455
Nb0 O9 2.085388 1_555
Nb0 O12 2.085388 1_455
Nb1 O20 1.972343 1_555
Nb1 O16 2.040646 1_556
Nb1 O5 2.051774 1_555
Nb1 O0 2.051774 1_455
Nb1 O8 2.085388 1_555
Nb1 O13 2.085388 1_455
Nb2 O19 1.972343 1_555
Nb2 O17 2.040646 1_565
Nb2 O3 2.051774 1_555
Nb2 O6 2.051774 1_455
Nb2 O14 2.085388 1_555
Nb2 O11 2.085388 1_455
Nb3 O18 1.972343 1_555
Nb3 O17 2.040646 1_555
Nb3 O2 2.051774 1_555
Nb3 O7 2.051774 1_455
Nb3 O15 2.085388 1_555
Nb3 O10 2.085388 1_455
Nb4 O5 2.114602 1_555
Nb4 O0 2.114602 1_555
Nb4 O10 2.145895 1_555
Nb4 O15 2.145895 1_555
Nb4 O25 2.213055 1_555
Nb5 O4 2.114602 1_555
Nb5 O1 2.114602 1_555
Nb5 O11 2.145895 1_555
Nb5 O14 2.145895 1_555
Nb5 O24 2.213055 1_555
Nb6 O2 2.114602 1_565
Nb6 O7 2.114602 1_565
Nb6 O13 2.145895 1_555
Nb6 O8 2.145895 1_555
Nb6 O23 2.213055 1_555
Nb7 O6 2.114602 1_545
Nb7 O3 2.114602 1_545
Nb7 O12 2.145895 1_555
Nb7 O9 2.145895 1_555
Nb7 O22 2.213055 1_555
Nb8 O23 2.053397 1_555
Nb8 O11 2.122146 1_555
Nb8 O27 2.152449 1_655
Nb8 O0 2.156545 1_555
Nb8 O20 2.187929 1_655
Nb9 O22 2.053397 1_555
Nb9 O10 2.122146 1_555
Nb9 O27 2.152449 1_655
Nb9 O1 2.156545 1_555
Nb9 O21 2.187929 1_655
Nb10 O25 2.053397 1_555
Nb10 O9 2.122146 1_556
Nb10 O26 2.152449 1_556
Nb10 O2 2.156545 1_555
Nb10 O18 2.187929 1_555
Nb11 O24 2.053397 1_555
Nb11 O8 2.122146 1_554
Nb11 O26 2.152449 1_565
Nb11 O3 2.156545 1_555
Nb11 O19 2.187929 1_555
Nb12 O22 2.053397 1_555
Nb12 O15 2.122146 1_555
Nb12 O27 2.152449 1_555
Nb12 O4 2.156545 1_555
Nb12 O21 2.187929 1_555
Nb13 O23 2.053397 1_555
Nb13 O14 2.122146 1_555
Nb13 O27 2.152449 1_555
Nb13 O5 2.156545 1_555
Nb13 O20 2.187929 1_555
Nb14 O24 2.053397 1_555
Nb14 O13 2.122146 1_554
Nb14 O26 2.152449 1_665
Nb14 O6 2.156545 1_555
Nb14 O19 2.187929 1_655
Nb15 O25 2.053397 1_555
Nb15 O12 2.122146 1_556
Nb15 O26 2.152449 1_656
Nb15 O7 2.156545 1_555
Nb15 O18 2.187929 1_655
