# generated using pymatgen
data_TiInNi2
_symmetry_space_group_name_H-M   'P 1'
_cell_length_a   4.33196949
_cell_length_b   4.33196949
_cell_length_c   4.33196949
_cell_angle_alpha   60.00000000
_cell_angle_beta   60.00000000
_cell_angle_gamma   60.00000000
_symmetry_Int_Tables_number   1
_chemical_formula_structural   TiInNi2
_chemical_formula_sum   'Ti1 In1 Ni2'
_cell_volume   57.48323074
_cell_formula_units_Z   1
loop_
 _symmetry_equiv_pos_site_id
 _symmetry_equiv_pos_as_xyz
  1  'x, y, z'
loop_
 _atom_site_type_symbol
 _atom_site_label
 _atom_site_symmetry_multiplicity
 _atom_site_fract_x
 _atom_site_fract_y
 _atom_site_fract_z
 _atom_site_occupancy
  Ti  Ti0  1  0.50000000  0.50000000  0.50000000  1
  In  In0  1  0.00000000  0.00000000  0.00000000  1
  Ni  Ni0  1  0.75000000  0.75000000  0.75000000  1
  Ni  Ni1  1  0.25000000  0.25000000  0.25000000  1
loop_
_geom_bond_atom_site_label_1
_geom_bond_atom_site_label_2
_geom_bond_distance
_geom_bond_site_symmetry_2
In0 Ni1 2.652779 1_545
In0 Ni1 2.652779 1_555
In0 Ni0 2.652779 1_544
In0 Ni1 2.652779 1_554
In0 Ni0 2.652779 1_454
In0 Ni0 2.652779 1_444
In0 Ni1 2.652779 1_455
In0 Ni0 2.652779 1_445
Ni0 Ti0 2.652779 1_565
Ni0 Ti0 2.652779 1_655
Ni0 Ti0 2.652779 1_556
Ni0 Ti0 2.652779 1_555
Ni1 Ti0 2.652779 1_545
Ni1 Ti0 2.652779 1_554
Ni1 Ti0 2.652779 1_455
Ni1 Ti0 2.652779 1_555
