# generated using pymatgen
data_Li2NdSb2
_symmetry_space_group_name_H-M   'P 1'
_cell_length_a   4.60099300
_cell_length_b   4.60099300
_cell_length_c   11.11469500
_cell_angle_alpha   90.00000000
_cell_angle_beta   90.00000000
_cell_angle_gamma   90.00000000
_symmetry_Int_Tables_number   1
_chemical_formula_structural   Li2NdSb2
_chemical_formula_sum   'Li4 Nd2 Sb4'
_cell_volume   235.28849657
_cell_formula_units_Z   2
loop_
 _symmetry_equiv_pos_site_id
 _symmetry_equiv_pos_as_xyz
  1  'x, y, z'
loop_
 _atom_site_type_symbol
 _atom_site_label
 _atom_site_symmetry_multiplicity
 _atom_site_fract_x
 _atom_site_fract_y
 _atom_site_fract_z
 _atom_site_occupancy
  Li  Li0  1  0.00000000  0.50000000  0.37750400  1
  Li  Li1  1  0.50000000  0.00000000  0.62249600  1
  Li  Li2  1  0.00000000  0.00000000  0.00000000  1
  Li  Li3  1  0.50000000  0.50000000  0.00000000  1
  Nd  Nd0  1  0.00000000  0.50000000  0.73006900  1
  Nd  Nd1  1  0.50000000  0.00000000  0.26993100  1
  Sb  Sb0  1  0.50000000  0.00000000  0.85132700  1
  Sb  Sb1  1  0.00000000  0.50000000  0.14867300  1
  Sb  Sb2  1  0.00000000  0.00000000  0.50000000  1
  Sb  Sb3  1  0.50000000  0.50000000  0.50000000  1
loop_
_geom_bond_atom_site_label_1
_geom_bond_atom_site_label_2
_geom_bond_distance
_geom_bond_site_symmetry_2
Li0 Sb1 2.543387 1_555
Li0 Sb2 2.673197 1_555
Li0 Sb3 2.673197 1_455
Li0 Sb3 2.673197 1_555
Li0 Sb2 2.673197 1_565
Li0 Nd1 3.466140 1_455
Li0 Nd1 3.466140 1_465
Li0 Nd1 3.466140 1_555
Li0 Nd1 3.466140 1_565
Li1 Sb0 2.543387 1_555
Li1 Sb3 2.673197 1_555
Li1 Sb2 2.673197 1_655
Li1 Sb3 2.673197 1_545
Li1 Sb2 2.673197 1_555
Li1 Nd0 3.466140 1_645
Li1 Nd0 3.466140 1_655
Li1 Nd0 3.466140 1_545
Li1 Nd0 3.466140 1_555
Li2 Sb1 2.832471 1_545
Li2 Sb1 2.832471 1_555
Li2 Sb0 2.832471 1_454
Li2 Sb0 2.832471 1_554
Li2 Nd1 3.780673 1_455
Li2 Nd1 3.780673 1_555
Li2 Nd0 3.780673 1_544
Li2 Nd0 3.780673 1_554
Li3 Sb1 2.832471 1_555
Li3 Sb0 2.832471 1_564
Li3 Sb1 2.832471 1_655
Li3 Sb0 2.832471 1_554
Li3 Nd1 3.780673 1_555
Li3 Nd1 3.780673 1_565
Li3 Nd0 3.780673 1_654
Li3 Nd0 3.780673 1_554
Nd0 Sb2 3.439663 1_555
Nd0 Sb3 3.439663 1_455
Nd0 Sb3 3.439663 1_555
Nd0 Sb2 3.439663 1_565
Nd0 Sb0 3.521503 1_455
Nd0 Sb0 3.521503 1_465
Nd0 Sb0 3.521503 1_555
Nd0 Sb0 3.521503 1_565
Nd1 Sb3 3.439663 1_555
Nd1 Sb2 3.439663 1_655
Nd1 Sb2 3.439663 1_555
Nd1 Sb3 3.439663 1_545
Nd1 Sb1 3.521503 1_655
Nd1 Sb1 3.521503 1_645
Nd1 Sb1 3.521503 1_545
Nd1 Sb1 3.521503 1_555
