# generated using pymatgen
data_W3Br7
_symmetry_space_group_name_H-M   'P 1'
_cell_length_a   14.18289000
_cell_length_b   14.18289000
_cell_length_c   14.18289000
_cell_angle_alpha   90.00000000
_cell_angle_beta   90.00000000
_cell_angle_gamma   90.00000000
_symmetry_Int_Tables_number   1
_chemical_formula_structural   W3Br7
_chemical_formula_sum   'W24 Br56'
_cell_volume   2852.95028503
_cell_formula_units_Z   8
loop_
 _symmetry_equiv_pos_site_id
 _symmetry_equiv_pos_as_xyz
  1  'x, y, z'
loop_
 _atom_site_type_symbol
 _atom_site_label
 _atom_site_symmetry_multiplicity
 _atom_site_fract_x
 _atom_site_fract_y
 _atom_site_fract_z
 _atom_site_occupancy
  W  W0  1  0.87632600  0.72365400  0.78519500  1
  W  W1  1  0.78519500  0.87632600  0.72365400  1
  W  W2  1  0.72365400  0.78519500  0.87632600  1
  W  W3  1  0.27634600  0.21480500  0.87632600  1
  W  W4  1  0.78519500  0.12367400  0.27634600  1
  W  W5  1  0.27634600  0.78519500  0.12367400  1
  W  W6  1  0.21480500  0.12367400  0.72365400  1
  W  W7  1  0.21480500  0.87632600  0.27634600  1
  W  W8  1  0.72365400  0.21480500  0.12367400  1
  W  W9  1  0.87632600  0.27634600  0.21480500  1
  W  W10  1  0.12367400  0.72365400  0.21480500  1
  W  W11  1  0.12367400  0.27634600  0.78519500  1
  W  W12  1  0.62367400  0.77634600  0.71480500  1
  W  W13  1  0.71480500  0.62367400  0.77634600  1
  W  W14  1  0.77634600  0.71480500  0.62367400  1
  W  W15  1  0.22365400  0.28519500  0.62367400  1
  W  W16  1  0.71480500  0.37632600  0.22365400  1
  W  W17  1  0.22365400  0.71480500  0.37632600  1
  W  W18  1  0.28519500  0.37632600  0.77634600  1
  W  W19  1  0.28519500  0.62367400  0.22365400  1
  W  W20  1  0.77634600  0.28519500  0.37632600  1
  W  W21  1  0.62367400  0.22365400  0.28519500  1
  W  W22  1  0.37632600  0.77634600  0.28519500  1
  W  W23  1  0.37632600  0.22365400  0.71480500  1
  Br  Br0  1  0.88310000  0.88310000  0.88310000  1
  Br  Br1  1  0.11690000  0.11690000  0.88310000  1
  Br  Br2  1  0.88310000  0.11690000  0.11690000  1
  Br  Br3  1  0.11690000  0.88310000  0.11690000  1
  Br  Br4  1  0.61690000  0.61690000  0.61690000  1
  Br  Br5  1  0.38310000  0.38310000  0.61690000  1
  Br  Br6  1  0.61690000  0.38310000  0.38310000  1
  Br  Br7  1  0.38310000  0.61690000  0.38310000  1
  Br  Br8  1  0.93533800  0.81291700  0.63145900  1
  Br  Br9  1  0.63145900  0.93533800  0.81291700  1
  Br  Br10  1  0.81291700  0.63145900  0.93533800  1
  Br  Br11  1  0.18708300  0.36854100  0.93533800  1
  Br  Br12  1  0.63145900  0.06466200  0.18708300  1
  Br  Br13  1  0.18708300  0.63145900  0.06466200  1
  Br  Br14  1  0.36854100  0.06466200  0.81291700  1
  Br  Br15  1  0.36854100  0.93533800  0.18708300  1
  Br  Br16  1  0.81291700  0.36854100  0.06466200  1
  Br  Br17  1  0.93533800  0.18708300  0.36854100  1
  Br  Br18  1  0.06466200  0.81291700  0.36854100  1
  Br  Br19  1  0.06466200  0.18708300  0.63145900  1
  Br  Br20  1  0.56466200  0.68708300  0.86854100  1
  Br  Br21  1  0.86854100  0.56466200  0.68708300  1
  Br  Br22  1  0.68708300  0.86854100  0.56466200  1
  Br  Br23  1  0.31291700  0.13145900  0.56466200  1
  Br  Br24  1  0.86854100  0.43533800  0.31291700  1
  Br  Br25  1  0.31291700  0.86854100  0.43533800  1
  Br  Br26  1  0.13145900  0.43533800  0.68708300  1
  Br  Br27  1  0.13145900  0.56466200  0.31291700  1
  Br  Br28  1  0.68708300  0.13145900  0.43533800  1
  Br  Br29  1  0.56466200  0.31291700  0.13145900  1
  Br  Br30  1  0.43533800  0.68708300  0.13145900  1
  Br  Br31  1  0.43533800  0.31291700  0.86854100  1
  Br  Br32  1  0.04616700  0.68874700  0.83163100  1
  Br  Br33  1  0.83163100  0.04616700  0.68874700  1
  Br  Br34  1  0.68874700  0.83163100  0.04616700  1
  Br  Br35  1  0.31125300  0.16836900  0.04616700  1
  Br  Br36  1  0.83163100  0.95383300  0.31125300  1
  Br  Br37  1  0.31125300  0.83163100  0.95383300  1
  Br  Br38  1  0.16836900  0.95383300  0.68874700  1
  Br  Br39  1  0.16836900  0.04616700  0.31125300  1
  Br  Br40  1  0.68874700  0.16836900  0.95383300  1
  Br  Br41  1  0.04616700  0.31125300  0.16836900  1
  Br  Br42  1  0.95383300  0.68874700  0.16836900  1
  Br  Br43  1  0.95383300  0.31125300  0.83163100  1
  Br  Br44  1  0.45383300  0.81125300  0.66836900  1
  Br  Br45  1  0.66836900  0.45383300  0.81125300  1
  Br  Br46  1  0.81125300  0.66836900  0.45383300  1
  Br  Br47  1  0.18874700  0.33163100  0.45383300  1
  Br  Br48  1  0.66836900  0.54616700  0.18874700  1
  Br  Br49  1  0.18874700  0.66836900  0.54616700  1
  Br  Br50  1  0.33163100  0.54616700  0.81125300  1
  Br  Br51  1  0.33163100  0.45383300  0.18874700  1
  Br  Br52  1  0.81125300  0.33163100  0.54616700  1
  Br  Br53  1  0.45383300  0.18874700  0.33163100  1
  Br  Br54  1  0.54616700  0.81125300  0.33163100  1
  Br  Br55  1  0.54616700  0.18874700  0.66836900  1
loop_
_geom_bond_atom_site_label_1
_geom_bond_atom_site_label_2
_geom_bond_distance
_geom_bond_site_symmetry_2
Br0 W2 2.655433 1_555
Br0 W1 2.655433 1_555
Br0 W0 2.655433 1_555
Br1 W6 2.655433 1_555
Br1 W11 2.655433 1_555
Br1 W3 2.655433 1_555
Br2 W8 2.655433 1_555
Br2 W4 2.655433 1_555
Br2 W9 2.655433 1_555
Br3 W10 2.655433 1_555
Br3 W5 2.655433 1_555
Br3 W7 2.655433 1_555
Br4 W14 2.655433 1_555
Br4 W12 2.655433 1_555
Br4 W13 2.655433 1_555
Br5 W23 2.655433 1_555
Br5 W18 2.655433 1_555
Br5 W15 2.655433 1_555
Br6 W16 2.655433 1_555
Br6 W20 2.655433 1_555
Br6 W21 2.655433 1_555
Br7 W17 2.655433 1_555
Br7 W22 2.655433 1_555
Br7 W19 2.655433 1_555
Br8 W14 2.652050 1_555
Br8 W1 2.655783 1_555
Br8 W0 2.656598 1_555
Br9 W12 2.652050 1_555
Br9 W2 2.655783 1_555
Br9 W1 2.656598 1_555
Br10 W13 2.652050 1_555
Br10 W0 2.655783 1_555
Br10 W2 2.656598 1_555
Br11 W18 2.652050 1_555
Br11 W11 2.655783 1_555
Br11 W3 2.656598 1_555
Br12 W21 2.652050 1_555
Br12 W8 2.655783 1_555
Br12 W4 2.656598 1_555
Br13 W19 2.652050 1_555
Br13 W10 2.655783 1_555
Br13 W5 2.656598 1_555
Br14 W23 2.652050 1_555
Br14 W3 2.655783 1_555
Br14 W6 2.656598 1_555
Br15 W22 2.652050 1_555
Br15 W5 2.655783 1_555
Br15 W7 2.656598 1_555
Br16 W16 2.652050 1_555
Br16 W9 2.655783 1_555
Br16 W8 2.656598 1_555
Br17 W20 2.652050 1_555
Br17 W4 2.655783 1_555
Br17 W9 2.656598 1_555
Br18 W17 2.652050 1_555
Br18 W7 2.655783 1_555
Br18 W10 2.656598 1_555
Br19 W15 2.652050 1_555
Br19 W6 2.655783 1_555
Br19 W11 2.656598 1_555
Br20 W2 2.652050 1_555
Br20 W13 2.655783 1_555
Br20 W12 2.656598 1_555
Br21 W0 2.652050 1_555
Br21 W14 2.655783 1_555
Br21 W13 2.656598 1_555
Br22 W1 2.652050 1_555
Br22 W12 2.655783 1_555
Br22 W14 2.656598 1_555
Br23 W6 2.652050 1_555
Br23 W23 2.655783 1_555
Br23 W15 2.656598 1_555
Br24 W9 2.652050 1_555
Br24 W20 2.655783 1_555
Br24 W16 2.656598 1_555
Br25 W7 2.652050 1_555
Br25 W22 2.655783 1_555
Br25 W17 2.656598 1_555
Br26 W11 2.652050 1_555
Br26 W15 2.655783 1_555
Br26 W18 2.656598 1_555
Br27 W10 2.652050 1_555
Br27 W17 2.655783 1_555
Br27 W19 2.656598 1_555
Br28 W4 2.652050 1_555
Br28 W21 2.655783 1_555
Br28 W20 2.656598 1_555
Br29 W8 2.652050 1_555
Br29 W16 2.655783 1_555
Br29 W21 2.656598 1_555
Br30 W5 2.652050 1_555
Br30 W19 2.655783 1_555
Br30 W22 2.656598 1_555
Br31 W3 2.652050 1_555
Br31 W18 2.655783 1_555
Br31 W23 2.656598 1_555
Br32 W0 2.545849 1_455
Br33 W1 2.545849 1_545
Br34 W2 2.545849 1_554
Br35 W3 2.545849 1_554
Br36 W4 2.545849 1_565
Br37 W5 2.545849 1_556
Br38 W6 2.545849 1_565
Br39 W7 2.545849 1_545
Br40 W8 2.545849 1_556
Br41 W9 2.545849 1_455
Br42 W10 2.545849 1_655
Br43 W11 2.545849 1_655
Br44 W12 2.545849 1_555
Br45 W13 2.545849 1_555
Br46 W14 2.545849 1_555
Br47 W15 2.545849 1_555
Br48 W16 2.545849 1_555
Br49 W17 2.545849 1_555
Br50 W18 2.545849 1_555
Br51 W19 2.545849 1_555
Br52 W20 2.545849 1_555
Br53 W21 2.545849 1_555
Br54 W22 2.545849 1_555
Br55 W23 2.545849 1_555
