# generated using pymatgen
data_SrCuN
_symmetry_space_group_name_H-M   'P 1'
_cell_length_a   5.36473302
_cell_length_b   9.04270999
_cell_length_c   13.21425380
_cell_angle_alpha   90.00000000
_cell_angle_beta   90.00000000
_cell_angle_gamma   90.00000000
_symmetry_Int_Tables_number   1
_chemical_formula_structural   SrCuN
_chemical_formula_sum   'Sr12 Cu12 N12'
_cell_volume   641.04624476
_cell_formula_units_Z   12
loop_
 _symmetry_equiv_pos_site_id
 _symmetry_equiv_pos_as_xyz
  1  'x, y, z'
loop_
 _atom_site_type_symbol
 _atom_site_label
 _atom_site_symmetry_multiplicity
 _atom_site_fract_x
 _atom_site_fract_y
 _atom_site_fract_z
 _atom_site_occupancy
  Sr  Sr0  1  0.00369307  0.02029969  0.25000000  1
  Sr  Sr1  1  0.50369307  0.47970031  0.75000000  1
  Sr  Sr2  1  0.49630693  0.52029969  0.25000000  1
  Sr  Sr3  1  0.99630693  0.97970031  0.75000000  1
  Sr  Sr4  1  0.01648345  0.33882264  0.08629186  1
  Sr  Sr5  1  0.51648345  0.16117736  0.91370814  1
  Sr  Sr6  1  0.98351655  0.66117736  0.91370814  1
  Sr  Sr7  1  0.48351655  0.83882264  0.41370814  1
  Sr  Sr8  1  0.98351655  0.66117736  0.58629186  1
  Sr  Sr9  1  0.01648345  0.33882264  0.41370814  1
  Sr  Sr10  1  0.51648345  0.16117736  0.58629186  1
  Sr  Sr11  1  0.48351655  0.83882264  0.08629186  1
  Cu  Cu0  1  0.51536064  0.17555452  0.15726015  1
  Cu  Cu1  1  -0.00000000  0.00000000  0.50000000  1
  Cu  Cu2  1  0.50000000  0.50000000  0.50000000  1
  Cu  Cu3  1  0.50000000  0.50000000  -0.00000000  1
  Cu  Cu4  1  -0.00000000  0.00000000  -0.00000000  1
  Cu  Cu5  1  0.01536064  0.32444548  0.84273985  1
  Cu  Cu6  1  0.98463936  0.67555452  0.15726015  1
  Cu  Cu7  1  0.48463936  0.82444548  0.65726015  1
  Cu  Cu8  1  0.48463936  0.82444548  0.84273985  1
  Cu  Cu9  1  0.51536064  0.17555452  0.34273985  1
  Cu  Cu10  1  0.01536064  0.32444548  0.65726015  1
  Cu  Cu11  1  0.98463936  0.67555452  0.34273985  1
  N  N0  1  0.73931778  0.58695835  0.41969528  1
  N  N1  1  0.71267785  0.74366602  0.75000000  1
  N  N2  1  0.21267785  0.75633398  0.25000000  1
  N  N3  1  0.78732215  0.24366602  0.75000000  1
  N  N4  1  0.28732215  0.25633398  0.25000000  1
  N  N5  1  0.76068222  0.08695835  0.41969528  1
  N  N6  1  0.26068222  0.41304165  0.58030472  1
  N  N7  1  0.73931778  0.58695835  0.08030472  1
  N  N8  1  0.23931778  0.91304165  0.91969528  1
  N  N9  1  0.23931778  0.91304165  0.58030472  1
  N  N10  1  0.26068222  0.41304165  0.91969528  1
  N  N11  1  0.76068222  0.08695835  0.08030472  1
loop_
_geom_bond_atom_site_label_1
_geom_bond_atom_site_label_2
_geom_bond_distance
_geom_bond_site_symmetry_2
Cu0 N11 1.846083 1_555
Cu0 N4 1.879368 1_555
Cu1 N9 1.841940 1_545
Cu1 N5 1.841940 1_455
Cu2 N0 1.841940 1_555
Cu2 N6 1.841940 1_555
Cu3 N7 1.841940 1_555
Cu3 N10 1.841940 1_554
Cu4 N8 1.841940 1_544
Cu4 N11 1.841940 1_455
Cu5 N10 1.846083 1_555
Cu5 N3 1.879368 1_455
Cu6 N7 1.846083 1_555
Cu6 N2 1.879368 1_655
Cu7 N9 1.846083 1_555
Cu7 N1 1.879368 1_555
Cu8 N8 1.846083 1_555
Cu8 N1 1.879368 1_555
Cu9 N5 1.846083 1_555
Cu9 N4 1.879368 1_555
Cu10 N6 1.846083 1_555
Cu10 N3 1.879368 1_455
Cu11 N0 1.846083 1_555
Cu11 N2 1.879368 1_655
N0 Sr8 2.648220 1_555
N0 Sr7 2.660197 1_555
N0 Sr2 2.662946 1_555
N0 Sr9 2.692938 1_655
N1 Sr3 2.621234 1_555
N1 Sr1 2.637153 1_555
N1 Sr6 2.710595 1_555
N1 Sr8 2.710595 1_555
N2 Sr2 2.621234 1_555
N2 Sr0 2.637153 1_565
N2 Sr7 2.710595 1_555
N2 Sr11 2.710595 1_555
N3 Sr1 2.621234 1_555
N3 Sr3 2.637153 1_545
N3 Sr10 2.710595 1_555
N3 Sr5 2.710595 1_555
N4 Sr0 2.621234 1_555
N4 Sr2 2.637153 1_555
N4 Sr4 2.710595 1_555
N4 Sr9 2.710595 1_555
N5 Sr10 2.648220 1_555
N5 Sr9 2.660197 1_655
N5 Sr0 2.662946 1_655
N5 Sr7 2.692938 1_545
N6 Sr9 2.648220 1_555
N6 Sr10 2.660197 1_555
N6 Sr1 2.662946 1_555
N6 Sr8 2.692938 1_455
N7 Sr6 2.648220 1_554
N7 Sr11 2.660197 1_555
N7 Sr2 2.662946 1_555
N7 Sr4 2.692938 1_655
N8 Sr11 2.648220 1_556
N8 Sr6 2.660197 1_455
N8 Sr3 2.662946 1_455
N8 Sr5 2.692938 1_565
N9 Sr7 2.648220 1_555
N9 Sr8 2.660197 1_455
N9 Sr3 2.662946 1_455
N9 Sr10 2.692938 1_565
N10 Sr4 2.648220 1_556
N10 Sr5 2.660197 1_555
N10 Sr1 2.662946 1_555
N10 Sr6 2.692938 1_455
N11 Sr5 2.648220 1_554
N11 Sr4 2.660197 1_655
N11 Sr0 2.662946 1_655
N11 Sr11 2.692938 1_545
