# generated using pymatgen
data_BaMgMn4O8
_symmetry_space_group_name_H-M   'P 1'
_cell_length_a   3.16962217
_cell_length_b   7.19798389
_cell_length_c   8.04531680
_cell_angle_alpha   75.27459207
_cell_angle_beta   78.64077450
_cell_angle_gamma   77.26964675
_symmetry_Int_Tables_number   1
_chemical_formula_structural   BaMgMn4O8
_chemical_formula_sum   'Ba1 Mg1 Mn4 O8'
_cell_volume   171.21677375
_cell_formula_units_Z   1
loop_
 _symmetry_equiv_pos_site_id
 _symmetry_equiv_pos_as_xyz
  1  'x, y, z'
loop_
 _atom_site_type_symbol
 _atom_site_label
 _atom_site_symmetry_multiplicity
 _atom_site_fract_x
 _atom_site_fract_y
 _atom_site_fract_z
 _atom_site_occupancy
  Ba  Ba0  1  0.41384107  0.07705514  0.09489433  1
  Mg  Mg0  1  0.67974130  0.84753565  0.79224153  1
  Mn  Mn0  1  0.37003668  0.78981694  0.46951316  1
  Mn  Mn1  1  0.66375665  0.18437297  0.48791096  1
  Mn  Mn2  1  0.14146235  0.56172300  0.15500127  1
  Mn  Mn3  1  0.90894109  0.40457264  0.77589734  1
  O  O0  1  0.11348364  0.80634679  0.96591604  1
  O  O1  1  0.16561205  0.31789796  0.35072092  1
  O  O2  1  0.20054747  0.98165346  0.61629105  1
  O  O3  1  0.85876571  0.66252265  0.61892926  1
  O  O4  1  0.50467729  0.24245075  0.74681886  1
  O  O5  1  0.76624752  0.43681954  0.03023962  1
  O  O6  1  0.84692849  0.95208891  0.35385010  1
  O  O7  1  0.53262569  0.66106960  0.27325656  1
loop_
_geom_bond_atom_site_label_1
_geom_bond_atom_site_label_2
_geom_bond_distance
_geom_bond_site_symmetry_2
Ba0 O6 2.581356 1_445
Ba0 O6 2.581402 1_545
Ba0 O4 2.735129 1_554
Ba0 O0 2.829912 1_644
Ba0 O0 2.831006 1_544
Ba0 O1 2.904382 1_555
Ba0 O5 2.929662 1_455
Ba0 O5 2.930073 1_555
Ba0 O7 2.949262 1_545
Mg0 O0 2.072871 1_655
Mg0 O0 2.073083 1_555
Mg0 O3 2.083017 1_555
Mg0 O2 2.178975 1_655
Mg0 O2 2.179165 1_555
Mg0 O4 2.716320 1_565
Mn0 O7 1.957121 1_555
Mn0 O2 1.960075 1_555
Mn0 O6 2.044760 1_455
Mn0 O6 2.046103 1_555
Mn0 O3 2.057254 1_555
Mn0 O3 2.058593 1_455
Mn1 O1 2.028147 1_555
Mn1 O1 2.028588 1_655
Mn1 O6 2.130294 1_545
Mn1 O4 2.168853 1_555
Mn1 O2 2.218719 1_645
Mn1 O2 2.220865 1_545
Mn2 O0 2.011234 1_554
Mn2 O1 2.036875 1_555
Mn2 O7 2.038384 1_555
Mn2 O7 2.038388 1_455
Mn2 O5 2.151417 1_555
Mn2 O5 2.151850 1_455
Mn3 O3 1.955624 1_555
Mn3 O4 1.993560 1_555
Mn3 O4 1.993905 1_655
Mn3 O5 2.067911 1_556
