# generated using pymatgen
data_ScSi2Rh
_symmetry_space_group_name_H-M   'P 1'
_cell_length_a   4.02780802
_cell_length_b   6.31216298
_cell_length_c   9.53329411
_cell_angle_alpha   90.00000000
_cell_angle_beta   90.00000000
_cell_angle_gamma   90.00000000
_symmetry_Int_Tables_number   1
_chemical_formula_structural   ScSi2Rh
_chemical_formula_sum   'Sc4 Si8 Rh4'
_cell_volume   242.37619187
_cell_formula_units_Z   4
loop_
 _symmetry_equiv_pos_site_id
 _symmetry_equiv_pos_as_xyz
  1  'x, y, z'
loop_
 _atom_site_type_symbol
 _atom_site_label
 _atom_site_symmetry_multiplicity
 _atom_site_fract_x
 _atom_site_fract_y
 _atom_site_fract_z
 _atom_site_occupancy
  Sc  Sc0  1  0.25000000  0.73940916  0.18201730  1
  Sc  Sc1  1  0.25000000  0.23940916  0.31798270  1
  Sc  Sc2  1  0.75000000  0.26059084  0.81798270  1
  Sc  Sc3  1  0.75000000  0.76059084  0.68201730  1
  Si  Si0  1  0.25000000  0.73247920  0.47162536  1
  Si  Si1  1  0.75000000  0.26752080  0.52837464  1
  Si  Si2  1  0.25000000  0.23247920  0.02837464  1
  Si  Si3  1  0.75000000  0.76752080  0.97162536  1
  Si  Si4  1  0.25000000  0.45558663  0.65816375  1
  Si  Si5  1  0.75000000  0.04441337  0.15816375  1
  Si  Si6  1  0.25000000  0.95558663  0.84183625  1
  Si  Si7  1  0.75000000  0.54441337  0.34183625  1
  Rh  Rh0  1  0.75000000  0.41608173  0.09926545  1
  Rh  Rh1  1  0.25000000  0.58391827  0.90073455  1
  Rh  Rh2  1  0.75000000  0.91608173  0.40073455  1
  Rh  Rh3  1  0.25000000  0.08391827  0.59926545  1
loop_
_geom_bond_atom_site_label_1
_geom_bond_atom_site_label_2
_geom_bond_distance
_geom_bond_site_symmetry_2
Sc0 Si0 2.761265 1_555
Sc0 Si5 2.795363 1_565
Sc0 Si5 2.795363 1_465
Sc0 Si7 2.809297 1_455
Sc0 Si7 2.809297 1_555
Sc0 Si3 2.847849 1_554
Sc0 Si3 2.847849 1_454
Sc1 Si2 2.761265 1_555
Sc1 Si7 2.795363 1_555
Sc1 Si7 2.795363 1_455
Sc1 Si5 2.809297 1_555
Sc1 Si5 2.809297 1_455
Sc1 Si1 2.847849 1_555
Sc1 Si1 2.847849 1_455
Sc2 Si1 2.761265 1_555
Sc2 Si6 2.795363 1_545
Sc2 Si6 2.795363 1_645
Sc2 Si4 2.809297 1_655
Sc2 Si4 2.809297 1_555
Sc2 Si2 2.847849 1_656
Sc2 Si2 2.847849 1_556
Sc3 Si3 2.761265 1_555
Sc3 Si4 2.795363 1_655
Sc3 Si4 2.795363 1_555
Sc3 Si6 2.809297 1_555
Sc3 Si6 2.809297 1_655
Sc3 Si0 2.847849 1_555
Sc3 Si0 2.847849 1_655
Si0 Si4 2.493434 1_555
Si0 Si7 2.644991 1_455
Si0 Si7 2.644991 1_555
Si1 Si7 2.493434 1_555
Si1 Si4 2.644991 1_655
Si1 Si4 2.644991 1_555
Si2 Si6 2.493434 1_544
Si2 Si5 2.644991 1_555
Si2 Si5 2.644991 1_455
Si3 Si5 2.493434 1_566
Si3 Si6 2.644991 1_555
Si3 Si6 2.644991 1_655
Rh0 Si5 2.412289 1_555
Rh0 Si2 2.419848 1_555
Rh0 Si2 2.419848 1_655
Rh0 Si7 2.450272 1_555
Rh0 Si3 2.530160 1_554
Rh0 Sc2 2.855526 1_554
Rh0 Sc0 2.973789 1_655
Rh0 Sc0 2.973789 1_555
Rh0 Sc1 3.105974 1_555
Rh0 Sc1 3.105974 1_655
Rh1 Si6 2.412289 1_555
Rh1 Si3 2.419848 1_455
Rh1 Si3 2.419848 1_555
Rh1 Si4 2.450272 1_555
Rh1 Si2 2.530160 1_556
Rh1 Sc0 2.855526 1_556
Rh1 Sc2 2.973789 1_455
Rh1 Sc2 2.973789 1_555
Rh1 Sc3 3.105974 1_455
Rh1 Sc3 3.105974 1_555
Rh2 Si7 2.412289 1_555
Rh2 Si0 2.419848 1_655
Rh2 Si0 2.419848 1_555
Rh2 Si5 2.450272 1_565
Rh2 Si1 2.530160 1_565
Rh2 Sc3 2.855526 1_555
Rh2 Sc1 2.973789 1_565
Rh2 Sc1 2.973789 1_665
Rh2 Sc0 3.105974 1_655
Rh2 Sc0 3.105974 1_555
Rh3 Si4 2.412289 1_555
Rh3 Si1 2.419848 1_455
Rh3 Si1 2.419848 1_555
Rh3 Si6 2.450272 1_545
Rh3 Si0 2.530160 1_545
Rh3 Sc1 2.855526 1_555
Rh3 Sc3 2.973789 1_545
Rh3 Sc3 2.973789 1_445
Rh3 Sc2 3.105974 1_555
Rh3 Sc2 3.105974 1_455
