# generated using pymatgen
data_ZrCu
_symmetry_space_group_name_H-M   'P 1'
_cell_length_a   8.21614242
_cell_length_b   6.49866437
_cell_length_c   10.86796679
_cell_angle_alpha   73.62687993
_cell_angle_beta   90.00000000
_cell_angle_gamma   90.00000000
_symmetry_Int_Tables_number   1
_chemical_formula_structural   ZrCu
_chemical_formula_sum   'Zr16 Cu16'
_cell_volume   556.75106203
_cell_formula_units_Z   16
loop_
 _symmetry_equiv_pos_site_id
 _symmetry_equiv_pos_as_xyz
  1  'x, y, z'
loop_
 _atom_site_type_symbol
 _atom_site_label
 _atom_site_symmetry_multiplicity
 _atom_site_fract_x
 _atom_site_fract_y
 _atom_site_fract_z
 _atom_site_occupancy
  Zr  Zr0_0  1  0.37500000  0.32415022  0.09962801  1
  Zr  Zr0_1  1  0.37500000  0.32415022  0.59962801  1
  Zr  Zr0_2  1  0.37500000  0.82415022  0.09962801  1
  Zr  Zr0_3  1  0.37500000  0.82415022  0.59962801  1
  Zr  Zr0_4  1  0.87500000  0.32415022  0.09962801  1
  Zr  Zr0_5  1  0.87500000  0.32415022  0.59962801  1
  Zr  Zr0_6  1  0.87500000  0.82415022  0.09962801  1
  Zr  Zr0_7  1  0.87500000  0.82415022  0.59962801  1
  Zr  Zr1_0  1  0.12500000  0.17584978  0.40037199  1
  Zr  Zr1_1  1  0.12500000  0.17584978  0.90037199  1
  Zr  Zr1_2  1  0.12500000  0.67584978  0.40037199  1
  Zr  Zr1_3  1  0.12500000  0.67584978  0.90037199  1
  Zr  Zr1_4  1  0.62500000  0.17584978  0.40037199  1
  Zr  Zr1_5  1  0.62500000  0.17584978  0.90037199  1
  Zr  Zr1_6  1  0.62500000  0.67584978  0.40037199  1
  Zr  Zr1_7  1  0.62500000  0.67584978  0.90037199  1
  Cu  Cu0_0  1  0.37500000  0.46551341  0.32071648  1
  Cu  Cu0_1  1  0.37500000  0.46551341  0.82071648  1
  Cu  Cu0_2  1  0.37500000  0.96551341  0.32071648  1
  Cu  Cu0_3  1  0.37500000  0.96551342  0.82071648  1
  Cu  Cu0_4  1  0.87500000  0.46551341  0.32071648  1
  Cu  Cu0_5  1  0.87500000  0.46551341  0.82071648  1
  Cu  Cu0_6  1  0.87500000  0.96551341  0.32071648  1
  Cu  Cu0_7  1  0.87500000  0.96551342  0.82071648  1
  Cu  Cu1_0  1  0.12500000  0.03448659  0.17928351  1
  Cu  Cu1_1  1  0.12500000  0.03448659  0.67928351  1
  Cu  Cu1_2  1  0.12500000  0.53448659  0.17928351  1
  Cu  Cu1_3  1  0.12500000  0.53448658  0.67928351  1
  Cu  Cu1_4  1  0.62500000  0.03448659  0.17928351  1
  Cu  Cu1_5  1  0.62500000  0.03448659  0.67928351  1
  Cu  Cu1_6  1  0.62500000  0.53448659  0.17928351  1
  Cu  Cu1_7  1  0.62500000  0.53448658  0.67928351  1
loop_
_geom_bond_atom_site_label_1
_geom_bond_atom_site_label_2
_geom_bond_distance
_geom_bond_site_symmetry_2
Zr0_0 Zr0_2 3.249332 1_555
Zr0_0 Zr0_2 3.249332 1_545
Zr0_0 Zr1_5 3.318725 1_554
Zr0_0 Zr1_1 3.318725 1_554
Zr0_0 Zr1_7 3.367780 1_554
Zr0_0 Zr1_3 3.367780 1_554
Zr0_1 Zr0_3 3.249332 1_545
Zr0_1 Zr0_3 3.249332 1_555
Zr0_1 Zr1_4 3.318725 1_555
Zr0_1 Zr1_0 3.318725 1_555
Zr0_1 Zr1_6 3.367780 1_555
Zr0_1 Zr1_2 3.367780 1_555
Zr0_2 Zr1_7 3.318725 1_554
Zr0_2 Zr1_3 3.318725 1_554
Zr0_2 Zr1_5 3.367780 1_564
Zr0_2 Zr1_1 3.367780 1_564
Zr0_3 Zr1_6 3.318725 1_555
Zr0_3 Zr1_2 3.318725 1_555
Zr0_3 Zr1_4 3.367780 1_565
Zr0_3 Zr1_0 3.367780 1_565
Zr0_4 Zr0_6 3.249332 1_555
Zr0_4 Zr0_6 3.249332 1_545
Zr0_4 Zr1_1 3.318725 1_654
Zr0_4 Zr1_5 3.318725 1_554
Zr0_4 Zr1_3 3.367780 1_654
Zr0_4 Zr1_7 3.367780 1_554
Zr0_5 Zr0_7 3.249332 1_545
Zr0_5 Zr0_7 3.249332 1_555
Zr0_5 Zr1_0 3.318725 1_655
Zr0_5 Zr1_4 3.318725 1_555
Zr0_5 Zr1_2 3.367780 1_655
Zr0_5 Zr1_6 3.367780 1_555
Zr0_6 Zr1_3 3.318725 1_654
Zr0_6 Zr1_7 3.318725 1_554
Zr0_6 Zr1_1 3.367780 1_664
Zr0_6 Zr1_5 3.367780 1_564
Zr0_7 Zr1_2 3.318725 1_655
Zr0_7 Zr1_6 3.318725 1_555
Zr0_7 Zr1_0 3.367780 1_665
Zr0_7 Zr1_4 3.367780 1_565
Zr1_0 Zr1_2 3.249332 1_555
Zr1_0 Zr1_2 3.249332 1_545
Zr1_1 Zr1_3 3.249332 1_545
Zr1_1 Zr1_3 3.249332 1_555
Zr1_4 Zr1_6 3.249332 1_555
Zr1_4 Zr1_6 3.249332 1_545
Zr1_5 Zr1_7 3.249332 1_545
Zr1_5 Zr1_7 3.249332 1_555
Cu0_0 Cu1_6 2.528673 1_555
Cu0_0 Cu1_2 2.528673 1_555
Cu0_0 Zr1_6 2.739353 1_555
Cu0_0 Zr1_2 2.739353 1_555
Cu0_0 Zr1_4 2.755590 1_555
Cu0_0 Zr1_0 2.755590 1_555
Cu0_0 Zr0_0 2.803890 1_555
Cu0_0 Zr0_2 2.836920 1_555
Cu0_0 Zr0_1 2.908983 1_555
Cu0_1 Cu1_7 2.528673 1_555
Cu0_1 Cu1_3 2.528673 1_555
Cu0_1 Zr1_7 2.739353 1_555
Cu0_1 Zr1_3 2.739353 1_555
Cu0_1 Zr1_5 2.755590 1_555
Cu0_1 Zr1_1 2.755590 1_555
Cu0_1 Zr0_1 2.803890 1_555
Cu0_1 Zr0_3 2.836920 1_555
Cu0_1 Zr0_0 2.908983 1_556
Cu0_2 Cu1_4 2.528673 1_565
Cu0_2 Cu1_0 2.528673 1_565
Cu0_2 Zr1_4 2.739353 1_565
Cu0_2 Zr1_0 2.739353 1_565
Cu0_2 Zr1_6 2.755590 1_555
Cu0_2 Zr1_2 2.755590 1_555
Cu0_2 Zr0_2 2.803890 1_555
Cu0_2 Zr0_0 2.836920 1_565
Cu0_2 Zr0_3 2.908983 1_555
Cu0_3 Cu1_5 2.528673 1_565
Cu0_3 Cu1_1 2.528673 1_565
Cu0_3 Zr1_5 2.739353 1_565
Cu0_3 Zr1_1 2.739353 1_565
Cu0_3 Zr1_7 2.755590 1_555
Cu0_3 Zr1_3 2.755590 1_555
Cu0_3 Zr0_3 2.803890 1_555
Cu0_3 Zr0_1 2.836920 1_565
Cu0_3 Zr0_2 2.908983 1_556
Cu0_4 Cu1_2 2.528673 1_655
Cu0_4 Cu1_6 2.528673 1_555
Cu0_4 Zr1_2 2.739353 1_655
Cu0_4 Zr1_6 2.739353 1_555
Cu0_4 Zr1_0 2.755590 1_655
Cu0_4 Zr1_4 2.755590 1_555
Cu0_4 Zr0_4 2.803890 1_555
Cu0_4 Zr0_6 2.836920 1_555
Cu0_4 Zr0_5 2.908983 1_555
Cu0_5 Cu1_3 2.528673 1_655
Cu0_5 Cu1_7 2.528673 1_555
Cu0_5 Zr1_3 2.739353 1_655
Cu0_5 Zr1_7 2.739353 1_555
Cu0_5 Zr1_1 2.755590 1_655
Cu0_5 Zr1_5 2.755590 1_555
Cu0_5 Zr0_5 2.803890 1_555
Cu0_5 Zr0_7 2.836920 1_555
Cu0_5 Zr0_4 2.908983 1_556
Cu0_6 Cu1_0 2.528673 1_665
Cu0_6 Cu1_4 2.528673 1_565
Cu0_6 Zr1_0 2.739353 1_665
Cu0_6 Zr1_4 2.739353 1_565
Cu0_6 Zr1_2 2.755590 1_655
Cu0_6 Zr1_6 2.755590 1_555
Cu0_6 Zr0_6 2.803890 1_555
Cu0_6 Zr0_4 2.836920 1_565
Cu0_6 Zr0_7 2.908983 1_555
Cu0_7 Cu1_1 2.528673 1_665
Cu0_7 Cu1_5 2.528673 1_565
Cu0_7 Zr1_1 2.739353 1_665
Cu0_7 Zr1_5 2.739353 1_565
Cu0_7 Zr1_3 2.755590 1_655
Cu0_7 Zr1_7 2.755590 1_555
Cu0_7 Zr0_7 2.803890 1_555
Cu0_7 Zr0_5 2.836920 1_565
Cu0_7 Zr0_6 2.908983 1_556
Cu1_0 Zr0_2 2.739353 1_545
Cu1_0 Zr0_6 2.739353 1_445
Cu1_0 Zr0_0 2.755590 1_555
Cu1_0 Zr0_4 2.755590 1_455
Cu1_0 Zr1_0 2.803890 1_555
Cu1_0 Zr1_2 2.836920 1_545
Cu1_0 Zr1_1 2.908983 1_554
Cu1_1 Zr0_3 2.739353 1_545
Cu1_1 Zr0_7 2.739353 1_445
Cu1_1 Zr0_1 2.755590 1_555
Cu1_1 Zr0_5 2.755590 1_455
Cu1_1 Zr1_1 2.803890 1_555
Cu1_1 Zr1_3 2.836920 1_545
Cu1_1 Zr1_0 2.908983 1_555
Cu1_2 Zr0_0 2.739353 1_555
Cu1_2 Zr0_4 2.739353 1_455
Cu1_2 Zr0_2 2.755590 1_555
Cu1_2 Zr0_6 2.755590 1_455
Cu1_2 Zr1_2 2.803890 1_555
Cu1_2 Zr1_0 2.836920 1_555
Cu1_2 Zr1_3 2.908983 1_554
Cu1_3 Zr0_5 2.739353 1_455
Cu1_3 Zr0_1 2.739353 1_555
Cu1_3 Zr0_3 2.755590 1_555
Cu1_3 Zr0_7 2.755590 1_455
Cu1_3 Zr1_3 2.803890 1_555
Cu1_3 Zr1_1 2.836920 1_555
Cu1_3 Zr1_2 2.908983 1_555
Cu1_4 Zr0_2 2.739353 1_545
Cu1_4 Zr0_6 2.739353 1_545
Cu1_4 Zr0_0 2.755590 1_555
Cu1_4 Zr0_4 2.755590 1_555
Cu1_4 Zr1_4 2.803890 1_555
Cu1_4 Zr1_6 2.836920 1_545
Cu1_4 Zr1_5 2.908983 1_554
Cu1_5 Zr0_3 2.739353 1_545
Cu1_5 Zr0_7 2.739353 1_545
Cu1_5 Zr0_1 2.755590 1_555
Cu1_5 Zr0_5 2.755590 1_555
Cu1_5 Zr1_5 2.803890 1_555
Cu1_5 Zr1_7 2.836920 1_545
Cu1_5 Zr1_4 2.908983 1_555
Cu1_6 Zr0_0 2.739353 1_555
Cu1_6 Zr0_4 2.739353 1_555
Cu1_6 Zr0_2 2.755590 1_555
Cu1_6 Zr0_6 2.755590 1_555
Cu1_6 Zr1_6 2.803890 1_555
Cu1_6 Zr1_4 2.836920 1_555
Cu1_6 Zr1_7 2.908983 1_554
Cu1_7 Zr0_1 2.739353 1_555
Cu1_7 Zr0_5 2.739353 1_555
Cu1_7 Zr0_3 2.755590 1_555
Cu1_7 Zr0_7 2.755590 1_555
Cu1_7 Zr1_7 2.803890 1_555
Cu1_7 Zr1_5 2.836920 1_555
Cu1_7 Zr1_6 2.908983 1_555
