# generated using pymatgen
data_Mn2GeO4
_symmetry_space_group_name_H-M   'P 1'
_cell_length_a   3.01215400
_cell_length_b   5.34673600
_cell_length_c   9.41383000
_cell_angle_alpha   90.00000000
_cell_angle_beta   90.00000000
_cell_angle_gamma   90.00000000
_symmetry_Int_Tables_number   1
_chemical_formula_structural   Mn2GeO4
_chemical_formula_sum   'Mn4 Ge2 O8'
_cell_volume   151.61154176
_cell_formula_units_Z   2
loop_
 _symmetry_equiv_pos_site_id
 _symmetry_equiv_pos_as_xyz
  1  'x, y, z'
loop_
 _atom_site_type_symbol
 _atom_site_label
 _atom_site_symmetry_multiplicity
 _atom_site_fract_x
 _atom_site_fract_y
 _atom_site_fract_z
 _atom_site_occupancy
  Mn  Mn0  1  0.50000100  0.43646200  0.82329400  1
  Mn  Mn1  1  0.50000100  0.56353800  0.17670600  1
  Mn  Mn2  1  0.50000100  0.93646100  0.67670600  1
  Mn  Mn3  1  0.50000100  0.06353700  0.32329400  1
  Ge  Ge0  1  0.00000000  0.49999900  0.50000100  1
  Ge  Ge1  1  0.00000000  0.00000000  0.00000000  1
  O  O0  1  0.00000000  0.13007300  0.81275700  1
  O  O1  1  0.00000000  0.86992600  0.18724300  1
  O  O2  1  0.00000000  0.63007400  0.68724300  1
  O  O3  1  0.00000000  0.36992700  0.31275700  1
  O  O4  1  0.50000100  0.26942200  0.54307300  1
  O  O5  1  0.50000100  0.73057800  0.45692700  1
  O  O6  1  0.50000100  0.23057700  0.04307400  1
  O  O7  1  0.50000100  0.76942100  0.95692700  1
loop_
_geom_bond_atom_site_label_1
_geom_bond_atom_site_label_2
_geom_bond_distance
_geom_bond_site_symmetry_2
Mn0 O7 2.179869 1_555
Mn0 O0 2.227495 1_655
Mn0 O0 2.227499 1_555
Mn0 O2 2.231643 1_655
Mn0 O2 2.231647 1_555
Mn0 O6 2.343594 1_556
Mn1 O6 2.179872 1_555
Mn1 O1 2.227491 1_655
Mn1 O1 2.227495 1_555
Mn1 O3 2.231641 1_655
Mn1 O3 2.231645 1_555
Mn1 O7 2.343580 1_554
Mn2 O4 2.179878 1_565
Mn2 O2 2.227487 1_655
Mn2 O2 2.227492 1_555
Mn2 O0 2.231643 1_665
Mn2 O0 2.231647 1_565
Mn2 O5 2.343580 1_555
Mn3 O5 2.179869 1_545
Mn3 O3 2.227499 1_655
Mn3 O3 2.227503 1_555
Mn3 O1 2.231641 1_645
Mn3 O1 2.231645 1_545
Mn3 O4 2.343586 1_555
Ge0 O2 1.894907 1_555
Ge0 O3 1.894919 1_555
Ge0 O4 1.988101 1_455
Ge0 O4 1.988106 1_555
Ge0 O5 1.988112 1_455
Ge0 O5 1.988116 1_555
Ge1 O0 1.894912 1_554
Ge1 O1 1.894914 1_545
Ge1 O6 1.988105 1_455
Ge1 O6 1.988110 1_555
Ge1 O7 1.988110 1_444
Ge1 O7 1.988115 1_544
