# generated using pymatgen
data_MgTi2P2(O4F)2
_symmetry_space_group_name_H-M   'P 1'
_cell_length_a   5.47121229
_cell_length_b   5.32627063
_cell_length_c   7.56331347
_cell_angle_alpha   108.02047965
_cell_angle_beta   108.70954318
_cell_angle_gamma   96.04025776
_symmetry_Int_Tables_number   1
_chemical_formula_structural   MgTi2P2(O4F)2
_chemical_formula_sum   'Mg1 Ti2 P2 O8 F2'
_cell_volume   193.33409503
_cell_formula_units_Z   1
loop_
 _symmetry_equiv_pos_site_id
 _symmetry_equiv_pos_as_xyz
  1  'x, y, z'
loop_
 _atom_site_type_symbol
 _atom_site_label
 _atom_site_symmetry_multiplicity
 _atom_site_fract_x
 _atom_site_fract_y
 _atom_site_fract_z
 _atom_site_occupancy
  Mg  Mg0  1  0.18798000  0.53595000  0.78778200  1
  Ti  Ti0  1  0.99538300  0.02722600  0.01119000  1
  Ti  Ti1  1  0.50430500  0.50785900  0.48687800  1
  P  P0  1  0.40425900  0.09810600  0.75885500  1
  P  P1  1  0.60033400  0.91892700  0.23902700  1
  O  O0  1  0.31367000  0.82982800  0.07032800  1
  O  O1  1  0.79341300  0.84938000  0.13110300  1
  O  O2  1  0.67081700  0.22207800  0.36987000  1
  O  O3  1  0.61406800  0.75851900  0.37871100  1
  O  O4  1  0.21938300  0.19947400  0.87414200  1
  O  O5  1  0.31973700  0.78393600  0.65291400  1
  O  O6  1  0.35480800  0.26482300  0.61804800  1
  O  O7  1  0.69881200  0.18095400  0.89408300  1
  F  F0  1  0.17807400  0.33711500  0.25505800  1
  F  F1  1  0.85745600  0.66082800  0.74879900  1
loop_
_geom_bond_atom_site_label_1
_geom_bond_atom_site_label_2
_geom_bond_distance
_geom_bond_site_symmetry_2
Mg0 O0 2.061745 1_556
Mg0 O4 2.094052 1_555
Mg0 O5 2.099937 1_555
Mg0 O6 2.109185 1_555
O0 P1 1.580495 1_555
O0 Ti0 2.124761 1_465
O1 P1 1.538797 1_555
O1 Ti0 1.973600 1_565
O2 P1 1.539699 1_545
O2 Ti1 1.976282 1_555
O3 P1 1.540387 1_555
O3 Ti1 1.906466 1_555
O4 P0 1.569844 1_555
O4 Ti0 2.141213 1_456
O5 P0 1.557514 1_565
O5 Ti1 2.177728 1_555
O6 P0 1.564185 1_555
O6 Ti1 2.102669 1_555
O7 P0 1.533489 1_555
O7 Ti0 1.973340 1_556
F0 Ti0 1.926619 1_455
F0 Ti1 1.936789 1_555
F1 Mg0 1.957534 1_655
F1 Ti1 2.129770 1_555
F1 Ti0 2.156258 1_566
