# generated using pymatgen
data_NbSiPd
_symmetry_space_group_name_H-M   'P 1'
_cell_length_a   3.75743486
_cell_length_b   6.48374770
_cell_length_c   7.46494402
_cell_angle_alpha   90.00000000
_cell_angle_beta   90.00000000
_cell_angle_gamma   90.00000000
_symmetry_Int_Tables_number   1
_chemical_formula_structural   NbSiPd
_chemical_formula_sum   'Nb4 Si4 Pd4'
_cell_volume   181.86290435
_cell_formula_units_Z   4
loop_
 _symmetry_equiv_pos_site_id
 _symmetry_equiv_pos_as_xyz
  1  'x, y, z'
loop_
 _atom_site_type_symbol
 _atom_site_label
 _atom_site_symmetry_multiplicity
 _atom_site_fract_x
 _atom_site_fract_y
 _atom_site_fract_z
 _atom_site_occupancy
  Nb  Nb0  1  0.75000000  0.52712812  0.16336445  1
  Nb  Nb1  1  0.25000000  0.97287188  0.66336445  1
  Nb  Nb2  1  0.75000000  0.02712812  0.33663555  1
  Nb  Nb3  1  0.25000000  0.47287188  0.83663555  1
  Si  Si0  1  0.25000000  0.23004500  0.13025132  1
  Si  Si1  1  0.25000000  0.73004500  0.36974868  1
  Si  Si2  1  0.75000000  0.76995500  0.86974868  1
  Si  Si3  1  0.75000000  0.26995500  0.63025132  1
  Pd  Pd0  1  0.25000000  0.85202286  0.06279730  1
  Pd  Pd1  1  0.25000000  0.35202286  0.43720270  1
  Pd  Pd2  1  0.75000000  0.64797714  0.56279730  1
  Pd  Pd3  1  0.75000000  0.14797714  0.93720270  1
loop_
_geom_bond_atom_site_label_1
_geom_bond_atom_site_label_2
_geom_bond_distance
_geom_bond_site_symmetry_2
Nb0 Si2 2.698689 1_554
Nb0 Si0 2.702031 1_555
Nb0 Si0 2.702031 1_655
Nb0 Si1 2.762994 1_655
Nb0 Si1 2.762994 1_555
Nb0 Pd0 2.920730 1_555
Nb0 Pd0 2.920730 1_655
Nb0 Pd3 2.982221 1_554
Nb0 Pd1 2.999546 1_655
Nb0 Pd1 2.999546 1_555
Nb0 Pd2 3.082978 1_555
Nb1 Si1 2.698689 1_555
Nb1 Si3 2.702031 1_565
Nb1 Si3 2.702031 1_465
Nb1 Si2 2.762994 1_555
Nb1 Si2 2.762994 1_455
Nb1 Pd2 2.920730 1_455
Nb1 Pd2 2.920730 1_555
Nb1 Pd1 2.982221 1_565
Nb1 Pd3 2.999546 1_565
Nb1 Pd3 2.999546 1_465
Nb1 Pd0 3.082978 1_556
Nb2 Si3 2.698689 1_555
Nb2 Si1 2.702031 1_545
Nb2 Si1 2.702031 1_645
Nb2 Si0 2.762994 1_655
Nb2 Si0 2.762994 1_555
Nb2 Pd1 2.920730 1_655
Nb2 Pd1 2.920730 1_555
Nb2 Pd2 2.982221 1_545
Nb2 Pd0 2.999546 1_545
Nb2 Pd0 2.999546 1_645
Nb2 Pd3 3.082978 1_554
Nb3 Si0 2.698689 1_556
Nb3 Si2 2.702031 1_555
Nb3 Si2 2.702031 1_455
Nb3 Si3 2.762994 1_555
Nb3 Si3 2.762994 1_455
Nb3 Pd3 2.920730 1_455
Nb3 Pd3 2.920730 1_555
Nb3 Pd0 2.982221 1_556
Nb3 Pd2 2.999546 1_455
Nb3 Pd2 2.999546 1_555
Nb3 Pd1 3.082978 1_555
Pd0 Si1 2.424021 1_555
Pd0 Si2 2.426825 1_554
Pd0 Si2 2.426825 1_454
Pd0 Si0 2.502190 1_565
Pd1 Si0 2.424021 1_555
Pd1 Si3 2.426825 1_455
Pd1 Si3 2.426825 1_555
Pd1 Si1 2.502190 1_555
Pd2 Si2 2.424021 1_555
Pd2 Si1 2.426825 1_555
Pd2 Si1 2.426825 1_655
Pd2 Si3 2.502190 1_555
Pd3 Si3 2.424021 1_555
Pd3 Si0 2.426825 1_556
Pd3 Si0 2.426825 1_656
Pd3 Si2 2.502190 1_545
