# generated using pymatgen
data_Na10In8Si5S7O48
_symmetry_space_group_name_H-M   'P 1'
_cell_length_a   18.22693010
_cell_length_b   9.14582058
_cell_length_c   23.10973265
_cell_angle_alpha   89.83791370
_cell_angle_beta   88.99087925
_cell_angle_gamma   120.00154367
_symmetry_Int_Tables_number   1
_chemical_formula_structural   Na10In8Si5S7O48
_chemical_formula_sum   'Na30 In24 Si15 S21 O144'
_cell_volume   3335.40386569
_cell_formula_units_Z   3
loop_
 _symmetry_equiv_pos_site_id
 _symmetry_equiv_pos_as_xyz
  1  'x, y, z'
loop_
 _atom_site_type_symbol
 _atom_site_label
 _atom_site_symmetry_multiplicity
 _atom_site_fract_x
 _atom_site_fract_y
 _atom_site_fract_z
 _atom_site_occupancy
  Na  Na0  1  0.32807795  0.00009994  0.24843522  1
  Na  Na1  1  0.82696550  0.99934338  0.24946091  1
  Na  Na2  1  0.18251317  0.37649797  0.23923158  1
  Na  Na3  1  0.68276343  0.37710227  0.24039439  1
  Na  Na4  1  0.99370022  0.62468531  0.26045956  1
  Na  Na5  1  0.49481339  0.62540786  0.26094759  1
  Na  Na6  1  0.82827681  0.65431384  0.74682845  1
  Na  Na7  1  0.99360777  0.36316010  0.76064469  1
  Na  Na8  1  0.49573980  0.35243660  0.75971902  1
  Na  Na9  1  0.18020453  0.98576945  0.74217426  1
  Na  Na10  1  0.02061781  0.71222738  0.58571996  1
  Na  Na11  1  0.32865453  0.96988223  0.59293239  1
  Na  Na12  1  0.02271063  0.32996385  0.08389289  1
  Na  Na13  1  0.52259994  0.32965515  0.08512627  1
  Na  Na14  1  0.16057584  0.30009174  0.92705053  1
  Na  Na15  1  0.66265462  0.30259235  0.92791614  1
  Na  Na16  1  0.16083156  0.02098221  0.42691216  1
  Na  Na17  1  0.66136631  0.01961530  0.42858307  1
  Na  Na18  1  0.99885529  0.99687892  0.50030454  1
  Na  Na19  1  0.51240895  0.98877342  0.50062309  1
  Na  Na20  1  0.00314268  0.00563009  0.00001831  1
  Na  Na21  1  0.50308155  0.00457670  0.00226376  1
  Na  Na22  1  0.34642742  0.33067487  0.83729079  1
  Na  Na23  1  0.84882274  0.32267652  0.83289023  1
  Na  Na24  1  0.35428839  0.37317988  0.33510404  1
  Na  Na25  1  0.85212832  0.37028261  0.33655346  1
  Na  Na26  1  0.17597819  0.65218910  0.16515373  1
  Na  Na27  1  0.67618313  0.65205164  0.16618150  1
  Na  Na28  1  0.17136561  0.67906614  0.67145814  1
  Na  Na29  1  0.68229166  0.72316843  0.66305307  1
  In  In0  1  0.98998076  0.98527602  0.34892636  1
  In  In1  1  0.49148650  0.98783580  0.34923181  1
  In  In2  1  0.99211491  0.99578622  0.84891689  1
  In  In3  1  0.49333090  0.00633692  0.85084017  1
  In  In4  1  0.99915029  0.99402313  0.65056684  1
  In  In5  1  0.50425721  0.99854630  0.64913926  1
  In  In6  1  0.00135519  0.00575091  0.15044974  1
  In  In7  1  0.50165369  0.00581178  0.15078283  1
  In  In8  1  0.33063044  0.32566706  0.67978291  1
  In  In9  1  0.82936475  0.31764291  0.68473917  1
  In  In10  1  0.33310994  0.34197045  0.18209973  1
  In  In11  1  0.83298405  0.34134543  0.18189878  1
  In  In12  1  0.33520597  0.33449276  0.98324313  1
  In  In13  1  0.83565044  0.33483823  0.98298566  1
  In  In14  1  0.33652226  0.34307057  0.48266781  1
  In  In15  1  0.83308945  0.33430666  0.48390302  1
  In  In16  1  0.16603100  0.65220262  0.01580470  1
  In  In17  1  0.66594916  0.65571514  0.01720457  1
  In  In18  1  0.16097854  0.66778366  0.51458264  1
  In  In19  1  0.66122203  0.68124102  0.51862544  1
  In  In20  1  0.15943214  0.65002821  0.31749877  1
  In  In21  1  0.65979628  0.65017200  0.31815913  1
  In  In22  1  0.16339022  0.66987000  0.81577334  1
  In  In23  1  0.66469992  0.67527342  0.81837181  1
  Si  Si0  1  0.35148443  0.70373315  0.24987477  1
  Si  Si1  1  0.85129710  0.70293812  0.24963927  1
  Si  Si2  1  0.99857331  0.29509412  0.24786574  1
  Si  Si3  1  0.49873546  0.29545137  0.24790392  1
  Si  Si4  1  0.99858023  0.70103143  0.74796714  1
  Si  Si5  1  0.35252730  0.00196480  0.74580433  1
  Si  Si6  1  0.84928104  0.99616328  0.75030417  1
  Si  Si7  1  0.18283632  0.03596943  0.58037080  1
  Si  Si8  1  0.68389148  0.03838438  0.58189782  1
  Si  Si9  1  0.18320699  0.32843125  0.08236012  1
  Si  Si10  1  0.68306711  0.32798757  0.08231640  1
  Si  Si11  1  0.01528670  0.36008508  0.91627267  1
  Si  Si12  1  0.51611951  0.36840449  0.91635180  1
  Si  Si13  1  0.01325058  0.66976305  0.41685186  1
  Si  Si14  1  0.51493518  0.67094070  0.41407361  1
  S  S0  1  0.14903294  -0.00023094  0.25132852  1
  S  S1  1  0.64919290  0.99961163  0.25080586  1
  S  S2  1  0.15101800  0.29859335  0.75026046  1
  S  S3  1  0.64775371  0.29727023  0.75244393  1
  S  S4  1  0.49811505  0.70022364  0.75101365  1
  S  S5  1  0.48323608  0.33433314  0.58392369  1
  S  S6  1  0.98406387  0.33259414  0.58356253  1
  S  S7  1  0.33160639  0.63098087  0.58331275  1
  S  S8  1  0.83103825  0.63003964  0.58370245  1
  S  S9  1  0.48475588  0.63656233  0.08265289  1
  S  S10  1  0.98519387  0.63689362  0.08281351  1
  S  S11  1  0.33080896  0.03124221  0.08326553  1
  S  S12  1  0.83064249  0.03116015  0.08342814  1
  S  S13  1  0.31539993  0.66758054  0.91533270  1
  S  S14  1  0.81554743  0.66639216  0.91659913  1
  S  S15  1  0.16747980  0.96520245  0.91726542  1
  S  S16  1  0.66510397  0.96472001  0.91762928  1
  S  S17  1  0.31445759  0.96311146  0.41743012  1
  S  S18  1  0.81445750  0.96263776  0.41594786  1
  S  S19  1  0.16698964  0.36668730  0.41733354  1
  S  S20  1  0.66694197  0.36834760  0.41774518  1
  O  O0  1  0.11259729  0.03018324  0.30490426  1
  O  O1  1  0.61277517  0.03041979  0.30437076  1
  O  O2  1  0.41395246  0.77294659  0.30470928  1
  O  O3  1  0.91445182  0.77057190  0.30426328  1
  O  O4  1  0.48130468  0.17121606  0.30366315  1
  O  O5  1  0.98253975  0.17251182  0.30377382  1
  O  O6  1  0.11480009  0.19555331  0.80405223  1
  O  O7  1  0.61230078  0.19509115  0.80649096  1
  O  O8  1  0.49013050  0.78282975  0.80386027  1
  O  O9  1  0.98375455  0.79380607  0.80338993  1
  O  O10  1  0.41763197  0.04936930  0.79912617  1
  O  O11  1  0.90908979  0.04198692  0.80652118  1
  O  O12  1  0.39440811  0.97948371  0.68515431  1
  O  O13  1  0.89047636  0.95544831  0.69296669  1
  O  O14  1  0.09760622  0.21735326  0.69957626  1
  O  O15  1  0.59376983  0.21317963  0.70205180  1
  O  O16  1  0.02310221  0.81579794  0.68833692  1
  O  O17  1  0.51096455  0.80169561  0.69770873  1
  O  O18  1  0.39293949  0.82480291  0.19246442  1
  O  O19  1  0.89301755  0.82516285  0.19250005  1
  O  O20  1  0.02150432  0.22864268  0.18822479  1
  O  O21  1  0.52095865  0.22839650  0.18811343  1
  O  O22  1  0.09510603  0.96991494  0.20079369  1
  O  O23  1  0.59527482  0.96981175  0.20037256  1
  O  O24  1  0.44906225  0.36627299  0.63900321  1
  O  O25  1  0.94769493  0.36505251  0.63692353  1
  O  O26  1  0.23988168  0.11488618  0.63862220  1
  O  O27  1  0.73981660  0.13459090  0.63723493  1
  O  O28  1  0.32325036  0.53271842  0.63705018  1
  O  O29  1  0.82211946  0.53819343  0.63905310  1
  O  O30  1  0.44914887  0.53152175  0.13674058  1
  O  O31  1  0.94965309  0.53210284  0.13699745  1
  O  O32  1  0.32095409  0.10545548  0.13844192  1
  O  O33  1  0.82071899  0.10495441  0.13861016  1
  O  O34  1  0.23395998  0.34387109  0.14183005  1
  O  O35  1  0.73389741  0.34332467  0.14166516  1
  O  O36  1  0.22925138  0.31695256  0.02207665  1
  O  O37  1  0.72913415  0.31628573  0.02214224  1
  O  O38  1  0.43275542  0.55121204  0.03206373  1
  O  O39  1  0.93271896  0.55173399  0.03240760  1
  O  O40  1  0.34627738  0.14679764  0.03342111  1
  O  O41  1  0.84545821  0.14592335  0.03356479  1
  O  O42  1  0.23062492  0.14579242  0.52166134  1
  O  O43  1  0.72406674  0.13635700  0.51921951  1
  O  O44  1  0.34475720  0.55395369  0.53133001  1
  O  O45  1  0.84725407  0.54643253  0.53416786  1
  O  O46  1  0.42885790  0.31462147  0.53491368  1
  O  O47  1  0.93364236  0.31468454  0.53203819  1
  O  O48  1  0.27954371  0.69830928  0.96895578  1
  O  O49  1  0.77409455  0.69181515  0.96822332  1
  O  O50  1  0.07315330  0.44420157  0.97413483  1
  O  O51  1  0.57449916  0.45381207  0.97303922  1
  O  O52  1  0.16185958  0.86288610  0.96866477  1
  O  O53  1  0.65725562  0.86385169  0.96983691  1
  O  O54  1  0.27455382  0.86081521  0.47117574  1
  O  O55  1  0.77225479  0.85421871  0.46770963  1
  O  O56  1  0.16083952  0.45707892  0.46882620  1
  O  O57  1  0.66105375  0.46146401  0.46846858  1
  O  O58  1  0.07190361  0.70367581  0.47446758  1
  O  O59  1  0.57860749  0.70494789  0.46752654  1
  O  O60  1  0.05707244  0.64842628  0.35679125  1
  O  O61  1  0.55386413  0.64786939  0.35208378  1
  O  O62  1  0.26428785  0.87693967  0.36550927  1
  O  O63  1  0.76719048  0.88217180  0.36218686  1
  O  O64  1  0.18033482  0.46476669  0.36267585  1
  O  O65  1  0.67950475  0.46291147  0.36216705  1
  O  O66  1  0.05995397  0.46890702  0.85639437  1
  O  O67  1  0.55870050  0.47455076  0.85529061  1
  O  O68  1  0.18013341  0.89409319  0.86242674  1
  O  O69  1  0.67973088  0.89277580  0.86410548  1
  O  O70  1  0.26419198  0.65193310  0.86419536  1
  O  O71  1  0.76700518  0.64933720  0.86327497  1
  O  O72  1  0.01298023  0.85102362  0.41344898  1
  O  O73  1  0.51349282  0.85129450  0.41286958  1
  O  O74  1  0.40142241  0.99108492  0.41519767  1
  O  O75  1  0.90169557  0.99225331  0.41469198  1
  O  O76  1  0.08923839  0.19823081  0.41561597  1
  O  O77  1  0.58921060  0.19866104  0.41625226  1
  O  O78  1  0.01430522  0.17703270  0.91322654  1
  O  O79  1  0.51528264  0.18516343  0.91433484  1
  O  O80  1  0.08966755  0.97935583  0.91562092  1
  O  O81  1  0.58590528  0.97620406  0.91377945  1
  O  O82  1  0.40388633  0.81019755  0.91037596  1
  O  O83  1  0.90269158  0.81089618  0.91463037  1
  O  O84  1  0.48431345  0.17307888  0.58781685  1
  O  O85  1  0.99323765  0.18141048  0.58860206  1
  O  O86  1  0.08640723  0.00808240  0.58360546  1
  O  O87  1  0.58783076  0.01812719  0.58544925  1
  O  O88  1  0.40534615  0.80640051  0.58603221  1
  O  O89  1  0.90824350  0.80189566  0.58442168  1
  O  O90  1  0.49200162  0.80406204  0.08746057  1
  O  O91  1  0.99241757  0.80460831  0.08785441  1
  O  O92  1  0.40810181  0.01467443  0.08455960  1
  O  O93  1  0.90785459  0.01446170  0.08456391  1
  O  O94  1  0.08615453  0.16042239  0.08324812  1
  O  O95  1  0.58589995  0.15958267  0.08314828  1
  O  O96  1  0.34331288  0.17543915  0.74354858  1
  O  O97  1  0.84105770  0.16592414  0.74637397  1
  O  O98  1  0.23670024  0.31616757  0.74348084  1
  O  O99  1  0.73535719  0.33142839  0.74595580  1
  O  O100  1  0.42032683  0.52902661  0.74711695  1
  O  O101  1  0.91064325  0.51604589  0.74254115  1
  O  O102  1  0.33368592  0.50886212  0.24498315  1
  O  O103  1  0.83351557  0.50819550  0.24462786  1
  O  O104  1  0.41094348  0.30738343  0.24282396  1
  O  O105  1  0.91085440  0.30679542  0.24285042  1
  O  O106  1  0.23480419  0.15108560  0.24408854  1
  O  O107  1  0.73494192  0.15119069  0.24365940  1
  O  O108  1  0.31609914  0.50527258  0.91917528  1
  O  O109  1  0.81640511  0.50443594  0.92083548  1
  O  O110  1  0.42122658  0.34733475  0.92121489  1
  O  O111  1  0.92089988  0.34223836  0.92179081  1
  O  O112  1  0.24184580  0.14099715  0.91975730  1
  O  O113  1  0.73796675  0.14097754  0.92056481  1
  O  O114  1  0.31566766  0.12731394  0.42019310  1
  O  O115  1  0.81563564  0.12694741  0.41946012  1
  O  O116  1  0.24119858  0.34005038  0.42034556  1
  O  O117  1  0.74136136  0.34196562  0.42031637  1
  O  O118  1  0.42125147  0.50009153  0.42107880  1
  O  O119  1  0.92019145  0.49810339  0.42307380  1
  O  O120  1  0.17066211  0.49748603  0.08164161  1
  O  O121  1  0.66981472  0.49626291  0.08181342  1
  O  O122  1  0.07115883  0.65565645  0.07655149  1
  O  O123  1  0.57073604  0.65521948  0.07689769  1
  O  O124  1  0.25327808  0.86474347  0.07674960  1
  O  O125  1  0.75301680  0.86429634  0.07712539  1
  O  O126  1  0.17666871  0.84632299  0.57891913  1
  O  O127  1  0.67573682  0.84991053  0.58244085  1
  O  O128  1  0.25319149  0.64469928  0.57968346  1
  O  O129  1  0.75315702  0.64161703  0.57660221  1
  O  O130  1  0.07059212  0.48747237  0.57808561  1
  O  O131  1  0.57124107  0.47757779  0.57711437  1
  O  O132  1  0.16019926  0.85001377  0.25647115  1
  O  O133  1  0.66058084  0.85017166  0.25581580  1
  O  O134  1  0.25838515  0.69485138  0.25772522  1
  O  O135  1  0.75846058  0.69417190  0.25774251  1
  O  O136  1  0.08064938  0.48770755  0.25274756  1
  O  O137  1  0.58119193  0.48683285  0.25285551  1
  O  O138  1  0.15911598  0.46789654  0.75462247  1
  O  O139  1  0.65086497  0.46371643  0.75641481  1
  O  O140  1  0.07997357  0.66965290  0.75300091  1
  O  O141  1  0.57243887  0.67283273  0.75324119  1
  O  O142  1  0.25645247  0.83906326  0.75431641  1
  O  O143  1  0.75695730  0.81576229  0.75688908  1
loop_
_geom_bond_atom_site_label_1
_geom_bond_atom_site_label_2
_geom_bond_distance
_geom_bond_site_symmetry_2
Na0 O134 2.427776 1_545
Na0 O104 2.437687 1_555
Na0 O132 2.657043 1_545
Na0 O106 2.675863 1_555
Na0 O18 2.737597 1_545
Na0 O32 2.744000 1_555
Na0 O4 2.764785 1_555
Na0 O62 2.915969 1_545
Na1 O135 2.426736 1_555
Na1 O105 2.440844 1_565
Na1 O133 2.631642 1_555
Na1 O107 2.663903 1_565
Na1 O19 2.755713 1_555
Na1 O33 2.759464 1_565
Na1 O5 2.787473 1_565
Na1 O63 2.799719 1_555
Na2 O102 2.398643 1_555
Na2 O34 2.498858 1_555
Na2 O136 2.539516 1_555
Na2 O134 2.563926 1_555
Na2 O106 2.671812 1_555
Na2 O20 2.827140 1_555
Na2 O64 2.971978 1_555
Na3 O103 2.390134 1_555
Na3 O137 2.521595 1_555
Na3 O35 2.527219 1_555
Na3 O135 2.549202 1_555
Na3 O107 2.673184 1_555
Na3 O21 2.851463 1_555
Na3 O65 2.931212 1_555
Na4 O136 2.467726 1_655
Na4 O60 2.485924 1_655
Na4 O105 2.556655 1_555
Na4 O103 2.592779 1_555
Na4 O3 2.602866 1_555
Na4 O132 2.683272 1_655
Na5 O61 2.344702 1_555
Na5 O137 2.471126 1_555
Na5 O104 2.560299 1_555
Na5 O102 2.609068 1_555
Na5 O2 2.638151 1_555
Na5 O133 2.672735 1_555
Na6 O101 2.399349 1_555
Na6 O143 2.415578 1_555
Na6 O99 2.566952 1_555
Na6 O13 2.688535 1_555
Na6 O29 2.692485 1_555
Na6 O139 2.807105 1_555
Na6 O9 2.809163 1_555
Na6 O71 2.886807 1_555
Na7 O140 2.437487 1_655
Na7 O97 2.472599 1_555
Na7 O66 2.496148 1_655
Na7 O101 2.559377 1_555
Na7 O138 2.670595 1_655
Na7 O11 2.743176 1_555
Na7 O25 2.995649 1_555
Na8 O96 2.453829 1_555
Na8 O139 2.479987 1_555
Na8 O67 2.502766 1_555
Na8 O141 2.541024 1_555
Na8 O10 2.555934 1_555
Na8 O100 2.610390 1_555
Na8 O24 2.951543 1_555
Na8 O15 2.965173 1_555
Na9 O142 2.384719 1_555
Na9 O140 2.540987 1_555
Na9 O96 2.587450 1_565
Na9 O26 2.629098 1_565
Na9 O98 2.661232 1_565
Na9 O16 2.801597 1_555
Na9 O68 2.900253 1_555
Na10 O86 2.348241 1_565
Na10 O126 2.472585 1_555
Na10 O16 2.548859 1_555
Na10 O89 2.559409 1_455
Na10 O130 2.637241 1_555
Na10 O58 2.734893 1_555
Na11 O126 2.441128 1_555
Na11 O12 2.443762 1_555
Na11 O84 2.496260 1_565
Na11 O88 2.509700 1_555
Na11 O128 2.599959 1_555
Na11 O26 2.754164 1_565
Na12 O120 2.342017 1_555
Na12 O94 2.352551 1_555
Na12 O20 2.576359 1_555
Na12 O93 2.581992 1_455
Na12 O122 2.653815 1_555
Na12 O50 2.704232 1_554
Na13 O121 2.330432 1_555
Na13 O95 2.354984 1_555
Na13 O21 2.545641 1_555
Na13 O92 2.577439 1_555
Na13 O123 2.655210 1_555
Na13 O51 2.777904 1_554
Na14 O78 2.346904 1_555
Na14 O108 2.500064 1_555
Na14 O36 2.513740 1_556
Na14 O112 2.547135 1_555
Na14 O80 2.563193 1_545
Na14 O50 2.739977 1_555
Na14 O6 2.998496 1_555
Na15 O79 2.369365 1_555
Na15 O109 2.469134 1_555
Na15 O113 2.473919 1_555
Na15 O37 2.483616 1_556
Na15 O81 2.611510 1_545
Na15 O51 2.784507 1_555
Na15 O7 2.981131 1_555
Na16 O72 2.370333 1_545
Na16 O114 2.484677 1_555
Na16 O42 2.525042 1_555
Na16 O116 2.529661 1_555
Na16 O76 2.554208 1_555
Na16 O58 2.733488 1_545
Na16 O0 2.981600 1_555
Na17 O73 2.377918 1_545
Na17 O43 2.389570 1_555
Na17 O115 2.476326 1_555
Na17 O117 2.557789 1_555
Na17 O77 2.580050 1_555
Na17 O59 2.638902 1_545
Na18 O86 2.491737 1_665
Na18 O72 2.492997 1_655
Na18 O89 2.570715 1_555
Na18 O76 2.601478 1_665
Na18 O75 2.664830 1_555
Na18 O85 2.684679 1_565
Na19 O87 2.352346 1_565
Na19 O73 2.394121 1_555
Na19 O77 2.577114 1_565
Na19 O88 2.660189 1_555
Na19 O84 2.830195 1_565
Na19 O74 2.858890 1_555
Na20 O94 2.443125 1_555
Na20 O78 2.484083 1_554
Na20 O80 2.573382 1_544
Na20 O93 2.619566 1_455
Na20 O91 2.672861 1_445
Na20 O83 2.702634 1_444
Na21 O95 2.399310 1_555
Na21 O79 2.550322 1_554
Na21 O92 2.582137 1_555
Na21 O81 2.610311 1_544
Na21 O90 2.622124 1_545
Na21 O82 2.807285 1_544
Na22 O110 2.351712 1_555
Na22 O96 2.579374 1_555
Na22 O112 2.611775 1_555
Na22 O100 2.623729 1_555
Na22 O108 2.701739 1_555
Na22 O98 2.933671 1_555
Na23 O111 2.416790 1_555
Na23 O97 2.428181 1_555
Na23 O101 2.580742 1_555
Na23 O113 2.725488 1_555
Na23 O109 2.863950 1_555
Na23 O99 2.937815 1_555
Na24 O118 2.338001 1_555
Na24 O102 2.548993 1_555
Na24 O104 2.554889 1_555
Na24 O116 2.729511 1_555
Na24 O114 2.786010 1_555
Na25 O119 2.356644 1_555
Na25 O103 2.580148 1_555
Na25 O105 2.592121 1_555
Na25 O117 2.688288 1_555
Na25 O115 2.741673 1_555
Na26 O120 2.370845 1_555
Na26 O134 2.552793 1_555
Na26 O136 2.573841 1_555
Na26 O124 2.659901 1_555
Na26 O122 2.835793 1_555
Na26 O132 2.886212 1_555
Na27 O121 2.388156 1_555
Na27 O135 2.532447 1_555
Na27 O137 2.556845 1_555
Na27 O125 2.668747 1_555
Na27 O123 2.854326 1_555
Na27 O133 2.858446 1_555
Na28 O142 2.462519 1_555
Na28 O140 2.465455 1_555
Na28 O126 2.597898 1_555
Na28 O138 2.646926 1_555
Na28 O128 2.680017 1_555
Na28 O130 2.835971 1_555
Na29 O127 2.227676 1_555
Na29 O143 2.496710 1_555
Na29 O129 2.664034 1_555
Na29 O141 2.736933 1_555
Na29 O131 2.950695 1_555
Na29 O139 3.030194 1_555
In0 O3 2.043172 1_555
In0 O5 2.065610 1_565
In0 O72 2.105502 1_655
In0 O75 2.218211 1_555
In0 O0 2.279943 1_665
In0 O76 2.456226 1_665
In1 O2 2.050232 1_555
In1 O4 2.065055 1_565
In1 O73 2.096299 1_555
In1 O74 2.231716 1_555
In1 O1 2.273701 1_565
In1 O77 2.443121 1_565
In2 O11 2.029251 1_565
In2 O9 2.068267 1_555
In2 O78 2.117720 1_665
In2 O83 2.228055 1_555
In2 O6 2.288092 1_665
In2 O80 2.433694 1_655
In3 O10 2.021227 1_555
In3 O79 2.089961 1_555
In3 O82 2.179712 1_545
In3 O7 2.213791 1_555
In3 O8 2.292651 1_545
In3 O81 2.363875 1_545
In4 O13 2.058868 1_555
In4 O16 2.080011 1_655
In4 O86 2.155990 1_665
In4 O14 2.257036 1_665
In4 O85 2.274997 1_565
In4 O89 2.315699 1_555
In5 O87 2.040975 1_565
In5 O12 2.079270 1_555
In5 O17 2.174765 1_555
In5 O15 2.211674 1_565
In5 O84 2.296533 1_565
In5 O88 2.324677 1_555
In6 O19 2.057492 1_445
In6 O20 2.079715 1_555
In6 O94 2.125648 1_555
In6 O22 2.238060 1_545
In6 O91 2.286245 1_445
In6 O93 2.335713 1_455
In7 O18 2.058670 1_545
In7 O21 2.077620 1_555
In7 O95 2.126540 1_555
In7 O23 2.227608 1_545
In7 O90 2.297113 1_545
In7 O92 2.342161 1_555
In8 O26 2.057673 1_555
In8 O96 2.104965 1_555
In8 O24 2.193279 1_555
In8 O28 2.197294 1_555
In8 O98 2.206209 1_555
In8 O100 2.370346 1_555
In9 O27 2.003217 1_555
In9 O97 2.072415 1_555
In9 O101 2.160271 1_555
In9 O25 2.244756 1_555
In9 O99 2.254976 1_555
In9 O29 2.336696 1_555
In10 O34 2.054968 1_555
In10 O102 2.106845 1_555
In10 O104 2.144384 1_555
In10 O30 2.195991 1_555
In10 O106 2.253383 1_555
In10 O32 2.299357 1_555
In11 O35 2.053870 1_555
In11 O103 2.104383 1_555
In11 O105 2.148225 1_555
In11 O31 2.201006 1_555
In11 O107 2.245705 1_555
In11 O33 2.293845 1_555
In12 O36 2.046723 1_556
In12 O110 2.064607 1_555
In12 O40 2.162315 1_556
In12 O38 2.218529 1_556
In12 O112 2.295870 1_555
In12 O108 2.302627 1_555
In13 O37 2.055414 1_556
In13 O111 2.058112 1_555
In13 O41 2.165239 1_556
In13 O39 2.223495 1_556
In13 O109 2.267409 1_555
In13 O113 2.311394 1_555
In14 O118 2.041140 1_555
In14 O42 2.059086 1_555
In14 O44 2.176184 1_555
In14 O46 2.205827 1_555
In14 O116 2.265881 1_555
In14 O114 2.325535 1_555
In15 O43 2.056514 1_555
In15 O119 2.066839 1_555
In15 O45 2.168467 1_555
In15 O47 2.242382 1_555
In15 O117 2.272146 1_555
In15 O115 2.311928 1_555
In16 O50 2.063799 1_554
In16 O120 2.106193 1_555
In16 O48 2.162571 1_554
In16 O122 2.220669 1_555
In16 O52 2.245651 1_554
In16 O124 2.300901 1_555
In17 O51 2.054854 1_554
In17 O121 2.110719 1_555
In17 O49 2.131720 1_554
In17 O123 2.196031 1_555
In17 O125 2.267151 1_555
In17 O53 2.267809 1_554
In18 O58 2.046315 1_555
In18 O126 2.126122 1_555
In18 O54 2.161118 1_555
In18 O130 2.184380 1_555
In18 O56 2.199653 1_555
In18 O128 2.361159 1_555
In19 O59 2.024016 1_555
In19 O127 2.059869 1_555
In19 O55 2.164897 1_555
In19 O131 2.199770 1_555
In19 O57 2.321843 1_555
In19 O129 2.327668 1_555
In20 O60 2.053902 1_555
In20 O136 2.112215 1_555
In20 O134 2.121042 1_555
In20 O64 2.180736 1_555
In20 O132 2.300810 1_555
In20 O62 2.304726 1_555
In21 O61 2.061326 1_555
In21 O137 2.123765 1_555
In21 O135 2.128394 1_555
In21 O65 2.171359 1_555
In21 O63 2.301704 1_555
In21 O133 2.319475 1_555
In22 O66 2.067943 1_555
In22 O140 2.119149 1_555
In22 O142 2.136969 1_555
In22 O68 2.204352 1_555
In22 O70 2.242234 1_555
In22 O138 2.300016 1_555
In23 O67 2.053508 1_555
In23 O143 2.059662 1_555
In23 O69 2.150867 1_555
In23 O71 2.262597 1_555
In23 O141 2.268409 1_555
In23 O139 2.323320 1_555
O0 S0 1.486299 1_555
O1 S1 1.487412 1_545
O2 Si0 1.624044 1_555
O3 Si1 1.626265 1_555
O4 Si3 1.633614 1_555
O5 Si2 1.631709 1_555
O6 S2 1.487124 1_555
O7 S3 1.487271 1_555
O8 S4 1.480669 1_555
O9 Si4 1.629937 1_555
O10 Si5 1.629294 1_555
O11 Si6 1.627242 1_545
O12 Si5 1.646327 1_565
O13 Si6 1.644867 1_555
O14 S2 1.481040 1_555
O15 S3 1.484750 1_555
O16 Si4 1.643609 1_455
O17 S4 1.483108 1_555
O18 Si0 1.636128 1_555
O19 Si1 1.636361 1_555
O20 Si2 1.637744 1_455
O21 Si3 1.637954 1_555
O22 S0 1.475940 1_565
O23 S1 1.474033 1_555
O24 S5 1.499887 1_555
O25 S6 1.489398 1_555
O26 Si7 1.648797 1_555
O27 Si8 1.613689 1_555
O28 S7 1.491038 1_555
O29 S8 1.489387 1_555
O30 S9 1.499204 1_555
O31 S10 1.499959 1_555
O32 S11 1.495867 1_555
O33 S12 1.494418 1_555
O34 Si9 1.636990 1_555
O35 Si10 1.635552 1_555
O36 Si9 1.644366 1_555
O37 Si10 1.643124 1_555
O38 S9 1.476068 1_555
O39 S10 1.475717 1_555
O40 S11 1.485585 1_555
O41 S12 1.483643 1_555
O42 Si7 1.638323 1_555
O43 Si8 1.654183 1_555
O44 S7 1.469829 1_555
O45 S8 1.483751 1_555
O46 S5 1.469585 1_555
O47 S6 1.475923 1_555
O48 S13 1.482865 1_555
O49 S14 1.481127 1_555
O50 Si11 1.654204 1_555
O51 Si12 1.637766 1_555
O52 S15 1.480082 1_555
O53 S16 1.477435 1_555
O54 S17 1.492682 1_555
O55 S18 1.484564 1_555
O56 S19 1.485129 1_555
O57 S20 1.484409 1_555
O58 Si13 1.653126 1_555
O59 Si14 1.631328 1_555
O60 Si13 1.649522 1_555
O61 Si14 1.647992 1_555
O62 S17 1.490070 1_555
O63 S18 1.495397 1_555
O64 S19 1.491259 1_555
O65 S20 1.495127 1_555
O66 Si11 1.646332 1_555
O67 Si12 1.654151 1_555
O68 S15 1.492176 1_555
O69 S16 1.484055 1_555
O70 S13 1.481371 1_555
O71 S14 1.492386 1_555
O72 Si13 1.661890 1_555
O73 Si14 1.662947 1_555
O74 S17 1.473824 1_555
O75 S18 1.473157 1_555
O76 S19 1.484064 1_555
O77 S20 1.490014 1_555
O78 Si11 1.666992 1_555
O79 Si12 1.669106 1_555
O80 S15 1.488348 1_555
O81 S16 1.502956 1_555
O82 S13 1.484768 1_555
O83 S14 1.472906 1_555
O84 S5 1.487211 1_555
O85 S6 1.477960 1_555
O86 Si7 1.645231 1_555
O87 Si8 1.666474 1_555
O88 S7 1.493817 1_555
O89 S8 1.496673 1_555
O90 S9 1.475034 1_555
O91 S10 1.477600 1_555
O92 S11 1.491155 1_555
O93 S12 1.490247 1_555
O94 Si9 1.664633 1_555
O95 Si10 1.667321 1_555
O96 Si5 1.677627 1_555
O97 Si6 1.635144 1_545
O98 S2 1.493176 1_555
O99 S3 1.470413 1_555
O100 S4 1.501712 1_555
O101 Si4 1.656359 1_555
O102 Si0 1.648841 1_555
O103 Si1 1.648003 1_555
O104 Si3 1.663562 1_555
O105 Si2 1.660954 1_555
O106 S0 1.487650 1_555
O107 S1 1.488191 1_545
O108 S13 1.493259 1_555
O109 S14 1.492059 1_555
O110 Si12 1.643479 1_555
O111 Si11 1.647408 1_655
O112 S15 1.499817 1_545
O113 S16 1.493249 1_545
O114 S17 1.492425 1_545
O115 S18 1.494582 1_545
O116 S19 1.492138 1_555
O117 S20 1.493898 1_555
O118 Si14 1.644418 1_555
O119 Si13 1.639989 1_655
O120 Si9 1.672322 1_555
O121 Si10 1.672967 1_555
O122 S10 1.492808 1_455
O123 S9 1.492610 1_555
O124 S11 1.481648 1_565
O125 S12 1.483664 1_565
O126 Si7 1.681555 1_565
O127 Si8 1.654433 1_565
O128 S7 1.499688 1_555
O129 S8 1.487157 1_555
O130 S6 1.505884 1_455
O131 S5 1.484079 1_555
O132 S0 1.486657 1_565
O133 S1 1.485986 1_555
O134 Si0 1.664408 1_555
O135 Si1 1.660682 1_555
O136 Si2 1.650933 1_455
O137 Si3 1.646819 1_555
O138 S2 1.484045 1_555
O139 S3 1.497878 1_555
O140 Si4 1.651810 1_455
O141 S4 1.497455 1_555
O142 Si5 1.643786 1_565
O143 Si6 1.670362 1_555
