# generated using pymatgen
data_Ti3Zn2O8
_symmetry_space_group_name_H-M   'P 1'
_cell_length_a   8.38757391
_cell_length_b   8.38757391
_cell_length_c   8.38757391
_cell_angle_alpha   90.00000000
_cell_angle_beta   90.00000000
_cell_angle_gamma   90.00000000
_symmetry_Int_Tables_number   1
_chemical_formula_structural   Ti3Zn2O8
_chemical_formula_sum   'Ti12 Zn8 O32'
_cell_volume   590.07753442
_cell_formula_units_Z   4
loop_
 _symmetry_equiv_pos_site_id
 _symmetry_equiv_pos_as_xyz
  1  'x, y, z'
loop_
 _atom_site_type_symbol
 _atom_site_label
 _atom_site_symmetry_multiplicity
 _atom_site_fract_x
 _atom_site_fract_y
 _atom_site_fract_z
 _atom_site_occupancy
  Ti  Ti0  1  0.62500000  0.13604442  0.11395558  1
  Ti  Ti1  1  0.61395558  0.87500000  0.86395558  1
  Ti  Ti2  1  0.63604442  0.38604442  0.37500000  1
  Ti  Ti3  1  0.36395558  0.88604442  0.12500000  1
  Ti  Ti4  1  0.88604442  0.12500000  0.36395558  1
  Ti  Ti5  1  0.11395558  0.62500000  0.13604442  1
  Ti  Ti6  1  0.38604442  0.37500000  0.63604442  1
  Ti  Ti7  1  0.86395558  0.61395558  0.87500000  1
  Ti  Ti8  1  0.13604442  0.11395558  0.62500000  1
  Ti  Ti9  1  0.37500000  0.63604442  0.38604442  1
  Ti  Ti10  1  0.87500000  0.86395558  0.61395558  1
  Ti  Ti11  1  0.12500000  0.36395558  0.88604442  1
  Zn  Zn0  1  0.25521417  0.25521417  0.25521417  1
  Zn  Zn1  1  0.00521417  0.49478583  0.50521417  1
  Zn  Zn2  1  0.49478583  0.50521417  0.00521417  1
  Zn  Zn3  1  0.50521417  0.00521417  0.49478583  1
  Zn  Zn4  1  0.75521417  0.24478583  0.74478583  1
  Zn  Zn5  1  0.24478583  0.74478583  0.75521417  1
  Zn  Zn6  1  0.74478583  0.75521417  0.24478583  1
  Zn  Zn7  1  0.99478583  0.99478583  0.99478583  1
  O  O0  1  0.11012423  0.14346439  0.85862680  1
  O  O1  1  0.61012423  0.35653561  0.14137320  1
  O  O2  1  0.14346439  0.85862680  0.11012423  1
  O  O3  1  0.85653561  0.35862680  0.38987577  1
  O  O4  1  0.85862680  0.11012423  0.14346439  1
  O  O5  1  0.64137320  0.88987577  0.64346439  1
  O  O6  1  0.36012423  0.60862680  0.60653561  1
  O  O7  1  0.86012423  0.89137320  0.39346439  1
  O  O8  1  0.63987577  0.10862680  0.89346439  1
  O  O9  1  0.89137320  0.39346439  0.86012423  1
  O  O10  1  0.89346439  0.63987577  0.10862680  1
  O  O11  1  0.39346439  0.86012423  0.89137320  1
  O  O12  1  0.60862680  0.60653561  0.36012423  1
  O  O13  1  0.60653561  0.36012423  0.60862680  1
  O  O14  1  0.10862680  0.89346439  0.63987577  1
  O  O15  1  0.39137320  0.10653561  0.13987577  1
  O  O16  1  0.10653561  0.13987577  0.39137320  1
  O  O17  1  0.14137320  0.61012423  0.35653561  1
  O  O18  1  0.35862680  0.38987577  0.85653561  1
  O  O19  1  0.64346439  0.64137320  0.88987577  1
  O  O20  1  0.39088306  0.39088306  0.39088306  1
  O  O21  1  0.14088306  0.35911694  0.64088306  1
  O  O22  1  0.64088306  0.14088306  0.35911694  1
  O  O23  1  0.35911694  0.64088306  0.14088306  1
  O  O24  1  0.10911694  0.60911694  0.89088306  1
  O  O25  1  0.89088306  0.10911694  0.60911694  1
  O  O26  1  0.60911694  0.89088306  0.10911694  1
  O  O27  1  0.85911694  0.85911694  0.85911694  1
  O  O28  1  0.13987577  0.39137320  0.10653561  1
  O  O29  1  0.88987577  0.64346439  0.64137320  1
  O  O30  1  0.38987577  0.85653561  0.35862680  1
  O  O31  1  0.35653561  0.14137320  0.61012423  1
loop_
_geom_bond_atom_site_label_1
_geom_bond_atom_site_label_2
_geom_bond_distance
_geom_bond_site_symmetry_2
O0 Ti11 1.867801 1_555
O0 Zn7 1.948149 1_445
O0 Ti8 1.987060 1_555
O1 Ti0 1.867801 1_555
O1 Zn2 1.948149 1_555
O1 Ti2 1.987060 1_555
O2 Ti3 1.867801 1_555
O2 Zn7 1.948149 1_454
O2 Ti5 1.987060 1_555
O3 Ti2 1.867801 1_555
O3 Zn1 1.948149 1_655
O3 Ti4 1.987060 1_555
O4 Ti4 1.867801 1_555
O4 Zn7 1.948149 1_544
O4 Ti0 1.987060 1_555
O5 Ti1 1.867801 1_555
O5 Zn3 1.948149 1_565
O5 Ti10 1.987060 1_555
O6 Ti9 1.867801 1_555
O6 Zn5 1.948149 1_555
O6 Ti6 1.987060 1_555
O7 Ti10 1.867801 1_555
O7 Zn6 1.948149 1_555
O7 Ti4 1.987060 1_565
O8 Ti0 1.867801 1_556
O8 Zn4 1.948149 1_555
O8 Ti1 1.987060 1_545
O9 Ti7 1.867801 1_555
O9 Zn4 1.948149 1_555
O9 Ti11 1.987060 1_655
O10 Ti5 1.867801 1_655
O10 Zn6 1.948149 1_555
O10 Ti7 1.987060 1_554
O11 Ti1 1.867801 1_555
O11 Zn5 1.948149 1_555
O11 Ti3 1.987060 1_556
O12 Ti2 1.867801 1_555
O12 Zn6 1.948149 1_555
O12 Ti9 1.987060 1_555
O13 Ti6 1.867801 1_555
O13 Zn4 1.948149 1_555
O13 Ti2 1.987060 1_555
O14 Ti8 1.867801 1_565
O14 Zn5 1.948149 1_555
O14 Ti10 1.987060 1_455
O15 Ti3 1.867801 1_545
O15 Zn0 1.948149 1_555
O15 Ti0 1.987060 1_555
O16 Ti4 1.867801 1_455
O16 Zn0 1.948149 1_555
O16 Ti8 1.987060 1_555
O17 Ti5 1.867801 1_555
O17 Zn1 1.948149 1_555
O17 Ti9 1.987060 1_555
O18 Ti6 1.867801 1_555
O18 Zn2 1.948149 1_556
O18 Ti11 1.987060 1_555
O19 Ti7 1.867801 1_555
O19 Zn2 1.948149 1_556
O19 Ti1 1.987060 1_555
O20 Zn0 1.970957 1_555
O20 Ti2 2.061020 1_555
O20 Ti9 2.061020 1_555
O20 Ti6 2.061020 1_555
O21 Zn1 1.970957 1_555
O21 Ti6 2.061020 1_555
O21 Ti8 2.061020 1_555
O21 Ti11 2.061020 1_555
O22 Zn3 1.970957 1_555
O22 Ti2 2.061020 1_555
O22 Ti0 2.061020 1_555
O22 Ti4 2.061020 1_555
O23 Zn2 1.970957 1_555
O23 Ti5 2.061020 1_555
O23 Ti9 2.061020 1_555
O23 Ti3 2.061020 1_555
O24 Zn5 1.970957 1_555
O24 Ti11 2.061020 1_555
O24 Ti5 2.061020 1_556
O24 Ti7 2.061020 1_455
O25 Zn4 1.970957 1_555
O25 Ti8 2.061020 1_655
O25 Ti10 2.061020 1_545
O25 Ti4 2.061020 1_555
O26 Zn6 1.970957 1_555
O26 Ti0 2.061020 1_565
O26 Ti1 2.061020 1_554
O26 Ti3 2.061020 1_555
O27 Zn7 1.970957 1_555
O27 Ti7 2.061020 1_555
O27 Ti10 2.061020 1_555
O27 Ti1 2.061020 1_555
O28 Ti11 1.867801 1_554
O28 Zn0 1.948149 1_555
O28 Ti5 1.987060 1_555
O29 Ti10 1.867801 1_555
O29 Zn1 1.948149 1_655
O29 Ti7 1.987060 1_555
O30 Ti9 1.867801 1_555
O30 Zn3 1.948149 1_565
O30 Ti3 1.987060 1_555
O31 Ti8 1.867801 1_555
O31 Zn3 1.948149 1_555
O31 Ti6 1.987060 1_555
