# generated using pymatgen
data_Na3Ti3ZnP5SO24
_symmetry_space_group_name_H-M   'P 1'
_cell_length_a   8.69101157
_cell_length_b   8.68501051
_cell_length_c   22.15704736
_cell_angle_alpha   89.94275897
_cell_angle_beta   90.11887979
_cell_angle_gamma   119.94287100
_symmetry_Int_Tables_number   1
_chemical_formula_structural   Na3Ti3ZnP5SO24
_chemical_formula_sum   'Na9 Ti9 Zn3 P15 S3 O72'
_cell_volume   1449.21219970
_cell_formula_units_Z   3
loop_
 _symmetry_equiv_pos_site_id
 _symmetry_equiv_pos_as_xyz
  1  'x, y, z'
loop_
 _atom_site_type_symbol
 _atom_site_label
 _atom_site_symmetry_multiplicity
 _atom_site_fract_x
 _atom_site_fract_y
 _atom_site_fract_z
 _atom_site_occupancy
  Na  Na0  1  0.99326096  0.36813815  0.74599918  1
  Na  Na1  1  0.31254967  0.97416224  0.08462218  1
  Na  Na2  1  0.32738514  0.03615826  0.41234946  1
  Na  Na3  1  0.98558561  0.99959093  0.49690291  1
  Na  Na4  1  0.98810051  0.00136802  0.99807798  1
  Na  Na5  1  0.65320447  0.33268322  0.83051964  1
  Na  Na6  1  0.67142457  0.33769524  0.32663867  1
  Na  Na7  1  0.33415622  0.65515883  0.16741956  1
  Na  Na8  1  0.34499109  0.67351001  0.66511363  1
  Ti  Ti0  1  0.00247998  -0.00009054  0.85463454  1
  Ti  Ti1  1  0.99233204  0.99676516  0.64701874  1
  Ti  Ti2  1  0.00164522  0.99782509  0.14712923  1
  Ti  Ti3  1  0.67015751  0.33450199  0.98011155  1
  Ti  Ti4  1  0.68056588  0.34476103  0.48030207  1
  Ti  Ti5  1  0.33398784  0.66179683  0.01827844  1
  Ti  Ti6  1  0.33507443  0.65985758  0.51960346  1
  Ti  Ti7  1  0.33243871  0.67159823  0.31425199  1
  Ti  Ti8  1  0.33848823  0.67123579  0.81331438  1
  Zn  Zn0  1  0.99789990  0.00144633  0.35403955  1
  Zn  Zn1  1  0.66431342  0.34064193  0.68623708  1
  Zn  Zn2  1  0.66148538  0.32812644  0.18120799  1
  P  P0  1  0.29475740  0.00217450  0.25288102  1
  P  P1  1  0.28828411  0.28634765  0.75087589  1
  P  P2  1  0.00310204  0.71607669  0.75116195  1
  P  P3  1  0.70912896  0.99504912  0.75110522  1
  P  P4  1  0.95990437  0.33449152  0.58567828  1
  P  P5  1  0.66753213  0.62455300  0.58444216  1
  P  P6  1  0.95595282  0.62003704  0.08423230  1
  P  P7  1  0.66899261  0.04147184  0.08276418  1
  P  P8  1  0.37753623  0.33680493  0.08372053  1
  P  P9  1  0.62196689  0.66546453  0.91636133  1
  P  P10  1  0.04318182  0.37833120  0.91517519  1
  P  P11  1  0.33538280  0.95722473  0.91728029  1
  P  P12  1  0.62334175  0.95615234  0.41805194  1
  P  P13  1  0.33757071  0.38088711  0.41637392  1
  P  P14  1  0.04393805  0.66250581  0.41749718  1
  S  S0  1  0.70845285  0.70897685  0.25106899  1
  S  S1  1  0.00133108  0.29208282  0.25078230  1
  S  S2  1  0.37402499  0.04082433  0.58271571  1
  O  O0  1  0.20986777  0.02108873  0.31001254  1
  O  O1  1  0.80976982  0.79218655  0.30541400  1
  O  O2  1  0.97898572  0.19007709  0.30533437  1
  O  O3  1  0.19083443  0.17413854  0.80760972  1
  O  O4  1  0.98542412  0.81166484  0.80738900  1
  O  O5  1  0.82856345  0.01965426  0.80635521  1
  O  O6  1  0.79828793  0.96942232  0.69344951  1
  O  O7  1  0.16623746  0.19811408  0.69467271  1
  O  O8  1  0.02581979  0.82905795  0.69405169  1
  O  O9  1  0.79761724  0.82241022  0.19585807  1
  O  O10  1  0.02190841  0.19977256  0.19598432  1
  O  O11  1  0.17360430  0.97759779  0.19488982  1
  O  O12  1  0.88897445  0.36645444  0.64377433  1
  O  O13  1  0.48222733  0.11749140  0.63642598  1
  O  O14  1  0.62767869  0.51480649  0.64053245  1
  O  O15  1  0.88420579  0.51235229  0.14052237  1
  O  O16  1  0.61670474  0.10746220  0.13767200  1
  O  O17  1  0.48408784  0.37450693  0.14060966  1
  O  O18  1  0.46507467  0.29821138  0.02870696  1
  O  O19  1  0.83693447  0.53204174  0.02776592  1
  O  O20  1  0.69838357  0.16263800  0.02682429  1
  O  O21  1  0.45655110  0.14817489  0.52706365  1
  O  O22  1  0.69342425  0.52997145  0.52797265  1
  O  O23  1  0.83595624  0.30867022  0.53024875  1
  O  O24  1  0.53180540  0.69310365  0.97188790  1
  O  O25  1  0.16266348  0.47215059  0.97025530  1
  O  O26  1  0.30771744  0.84600662  0.97463771  1
  O  O27  1  0.52559861  0.84075001  0.47338922  1
  O  O28  1  0.31781992  0.47510225  0.47281039  1
  O  O29  1  0.16300343  0.68621758  0.47224660  1
  O  O30  1  0.13303081  0.63700619  0.36001661  1
  O  O31  1  0.50037794  0.86845273  0.36111668  1
  O  O32  1  0.36297004  0.49690464  0.35992505  1
  O  O33  1  0.12728329  0.48938131  0.85746147  1
  O  O34  1  0.36042047  0.86234852  0.86189990  1
  O  O35  1  0.50417125  0.63793848  0.86018174  1
  O  O36  1  0.02646771  0.82699056  0.41417976  1
  O  O37  1  0.80374731  0.97513568  0.41310677  1
  O  O38  1  0.17604153  0.19628691  0.41434331  1
  O  O39  1  0.02423792  0.19262256  0.91072940  1
  O  O40  1  0.16869436  0.97589044  0.91041802  1
  O  O41  1  0.80657213  0.83181091  0.91026226  1
  O  O42  1  0.97700127  0.16471451  0.58897758  1
  O  O43  1  0.19534287  0.02404833  0.58759649  1
  O  O44  1  0.83820562  0.81003394  0.58878720  1
  O  O45  1  0.97943904  0.81190223  0.09012922  1
  O  O46  1  0.83576760  0.02347381  0.09064557  1
  O  O47  1  0.19031883  0.16375384  0.08996354  1
  O  O48  1  0.69382369  0.16076914  0.74659342  1
  O  O49  1  0.46788007  0.30216531  0.74728422  1
  O  O50  1  0.84297709  0.53020505  0.74918409  1
  O  O51  1  0.68615615  0.53254346  0.24436701  1
  O  O52  1  0.85072334  0.32038115  0.24376036  1
  O  O53  1  0.47938356  0.15991378  0.24541263  1
  O  O54  1  0.63845673  0.49829237  0.92383774  1
  O  O55  1  0.85904433  0.36116759  0.92330053  1
  O  O56  1  0.50227351  0.14179985  0.92298328  1
  O  O57  1  0.63057512  0.13859583  0.42452709  1
  O  O58  1  0.50626295  0.36277695  0.42348938  1
  O  O59  1  0.86091147  0.49050628  0.42336609  1
  O  O60  1  0.34561289  0.49387659  0.07178406  1
  O  O61  1  0.14855839  0.65586243  0.07330103  1
  O  O62  1  0.50550521  0.85315252  0.07099652  1
  O  O63  1  0.34808149  0.85857155  0.57531180  1
  O  O64  1  0.50828668  0.65557329  0.57339463  1
  O  O65  1  0.14709631  0.49680363  0.57410364  1
  O  O66  1  0.30250826  0.82349393  0.25595553  1
  O  O67  1  0.52953826  0.69780755  0.25361554  1
  O  O68  1  0.17141293  0.46877469  0.25339607  1
  O  O69  1  0.29735268  0.47068198  0.75660904  1
  O  O70  1  0.17429908  0.70045943  0.75643950  1
  O  O71  1  0.52624955  0.82474620  0.75693852  1
loop_
_geom_bond_atom_site_label_1
_geom_bond_atom_site_label_2
_geom_bond_distance
_geom_bond_site_symmetry_2
Na0 O48 2.310319 1_555
Na0 O69 2.341227 1_655
Na0 O50 2.351163 1_555
Na0 O12 2.435208 1_555
Na0 O70 2.515120 1_655
Na0 O33 2.708079 1_655
Na0 O7 2.821422 1_655
Na0 O5 2.944931 1_555
Na1 O47 2.366624 1_565
Na1 O62 2.402101 1_555
Na1 O61 2.408956 1_555
Na1 O45 2.512089 1_455
Na1 O16 2.577667 1_565
Na1 O26 2.671623 1_554
Na1 O11 2.734363 1_555
Na1 O18 2.736489 1_565
Na2 O36 2.323567 1_545
Na2 O57 2.337725 1_555
Na2 O38 2.343629 1_555
Na2 O0 2.461564 1_555
Na2 O58 2.474271 1_555
Na2 O21 2.751346 1_555
Na2 O31 2.804815 1_545
Na2 O29 2.950360 1_545
Na3 O37 2.375588 1_555
Na3 O38 2.487560 1_665
Na3 O36 2.504549 1_655
Na3 O42 2.517442 1_565
Na3 O44 2.528804 1_555
Na3 O43 2.646818 1_665
Na4 O39 2.465513 1_655
Na4 O41 2.473299 1_545
Na4 O46 2.502427 1_556
Na4 O40 2.577811 1_645
Na4 O47 2.596006 1_656
Na4 O45 2.596836 1_546
Na5 O49 2.372386 1_555
Na5 O50 2.468310 1_555
Na5 O48 2.519187 1_555
Na5 O56 2.549469 1_555
Na5 O54 2.559581 1_555
Na5 O55 2.651722 1_555
Na6 O53 2.414380 1_555
Na6 O51 2.445731 1_555
Na6 O52 2.463607 1_555
Na6 O59 2.622194 1_555
Na6 O58 2.653063 1_555
Na6 O57 2.683873 1_555
Na7 O68 2.443208 1_555
Na7 O67 2.455244 1_555
Na7 O66 2.543762 1_555
Na7 O60 2.570638 1_555
Na7 O61 2.635643 1_555
Na7 O62 2.681150 1_555
Na8 O71 2.504556 1_555
Na8 O64 2.530146 1_555
Na8 O63 2.548299 1_555
Na8 O69 2.579266 1_555
Na8 O70 2.590393 1_555
Na8 O65 2.595479 1_555
O0 P0 1.516243 1_555
O0 Zn0 2.016897 1_455
O1 S0 1.452456 1_555
O1 Zn0 2.041408 1_565
O2 S1 1.452804 1_655
O2 Zn0 2.034719 1_555
O3 P1 1.557316 1_555
O3 Ti0 1.893732 1_555
O4 P2 1.547605 1_655
O4 Ti0 1.884562 1_665
O5 P3 1.547756 1_545
O5 Ti0 1.926152 1_655
O6 P3 1.568049 1_555
O6 Ti1 1.888321 1_555
O7 P1 1.564639 1_555
O7 Ti1 1.953419 1_445
O8 P2 1.551837 1_555
O8 Ti1 1.926421 1_455
O9 S0 1.518872 1_555
O9 Ti2 1.984657 1_655
O10 S1 1.514891 1_555
O10 Ti2 1.993406 1_545
O11 P0 1.604938 1_565
O11 Ti2 1.907722 1_555
O12 P4 1.512908 1_555
O12 Zn1 2.077997 1_555
O13 S2 1.454578 1_555
O13 Zn1 2.100913 1_555
O14 P5 1.497616 1_555
O14 Zn1 1.972636 1_555
O15 P6 1.495925 1_555
O15 Zn2 2.008010 1_555
O16 P7 1.509561 1_555
O16 Zn2 2.003096 1_555
O17 P8 1.498966 1_555
O17 Zn2 1.990467 1_555
O18 P8 1.560835 1_555
O18 Ti3 1.970289 1_554
O19 P6 1.557797 1_555
O19 Ti3 1.916779 1_554
O20 P7 1.561820 1_555
O20 Ti3 1.928939 1_554
O21 S2 1.495997 1_555
O21 Ti4 2.113182 1_555
O22 P5 1.574373 1_555
O22 Ti4 1.881232 1_555
O23 P4 1.572574 1_555
O23 Ti4 1.887460 1_555
O24 P9 1.541965 1_555
O24 Ti5 1.904298 1_556
O25 P10 1.543929 1_555
O25 Ti5 1.900220 1_556
O26 P11 1.540427 1_555
O26 Ti5 1.976695 1_556
O27 P12 1.543193 1_555
O27 Ti6 1.914536 1_555
O28 P13 1.551073 1_555
O28 Ti6 1.853281 1_555
O29 P14 1.538619 1_555
O29 Ti6 1.929932 1_555
O30 P14 1.564127 1_555
O30 Ti7 1.899704 1_555
O31 P12 1.580315 1_555
O31 Ti7 1.907291 1_555
O32 P13 1.550790 1_555
O32 Ti7 1.947863 1_555
O33 P10 1.548346 1_555
O33 Ti8 1.982663 1_555
O34 P11 1.553751 1_555
O34 Ti8 1.907114 1_555
O35 P9 1.551028 1_555
O35 Ti8 1.909018 1_555
O36 P14 1.511784 1_555
O36 Zn0 2.122048 1_465
O37 P12 1.496710 1_555
O37 Zn0 2.058147 1_565
O38 P13 1.515351 1_555
O38 Zn0 2.103900 1_455
O39 P10 1.540571 1_555
O39 Ti0 2.017202 1_555
O40 P11 1.543239 1_555
O40 Ti0 1.987685 1_565
O41 P9 1.538244 1_555
O41 Ti0 2.018223 1_665
O42 P4 1.555659 1_555
O42 Ti1 1.997196 1_545
O43 S2 1.489733 1_555
O43 Ti1 2.119977 1_445
O44 P5 1.555276 1_555
O44 Ti1 1.979272 1_555
O45 P6 1.579950 1_555
O45 Ti2 1.982839 1_655
O46 P7 1.543012 1_555
O46 Ti2 2.001695 1_645
O47 P8 1.576311 1_555
O47 Ti2 2.003974 1_545
O48 P3 1.513272 1_545
O48 Zn1 2.165417 1_555
O49 P1 1.499320 1_555
O49 Zn1 2.072433 1_555
O50 P2 1.517167 1_655
O50 Zn1 2.123778 1_555
O51 S0 1.453113 1_555
O51 Zn2 2.186315 1_555
O52 S1 1.455383 1_655
O52 Zn2 2.175129 1_555
O53 P0 1.511658 1_555
O53 Zn2 2.088034 1_555
O54 P9 1.537240 1_555
O54 Ti3 2.010078 1_555
O55 P10 1.542311 1_655
O55 Ti3 1.990351 1_555
O56 P11 1.538842 1_545
O56 Ti3 2.022621 1_555
O57 P12 1.560842 1_545
O57 Ti4 2.036577 1_555
O58 P13 1.558286 1_555
O58 Ti4 2.032782 1_555
O59 P14 1.551471 1_655
O59 Ti4 1.916992 1_555
O60 P8 1.544243 1_555
O60 Ti5 1.919823 1_555
O61 P6 1.561773 1_455
O61 Ti5 2.002803 1_555
O62 P7 1.562471 1_565
O62 Ti5 1.967749 1_555
O63 S2 1.492416 1_565
O63 Ti6 2.079368 1_555
O64 P5 1.555202 1_555
O64 Ti6 1.932998 1_555
O65 P4 1.552841 1_455
O65 Ti6 1.956495 1_555
O66 P0 1.587929 1_565
O66 Ti7 1.952997 1_555
O67 S0 1.510045 1_555
O67 Ti7 2.100217 1_555
O68 S1 1.509520 1_555
O68 Ti7 2.101336 1_555
O69 P1 1.568368 1_555
O69 Ti8 2.030072 1_555
O70 P2 1.564146 1_555
O70 Ti8 2.010513 1_555
O71 P3 1.544109 1_555
O71 Ti8 1.958056 1_555
