# generated using pymatgen
data_MgTe4Mo2WS2
_symmetry_space_group_name_H-M   'P 1'
_cell_length_a   6.80614200
_cell_length_b   6.80681702
_cell_length_c   63.39816800
_cell_angle_alpha   89.99989374
_cell_angle_beta   90.00003130
_cell_angle_gamma   119.99440129
_symmetry_Int_Tables_number   1
_chemical_formula_structural   MgTe4Mo2WS2
_chemical_formula_sum   'Mg8 Te32 Mo16 W8 S16'
_cell_volume   2543.76460744
_cell_formula_units_Z   8
loop_
 _symmetry_equiv_pos_site_id
 _symmetry_equiv_pos_as_xyz
  1  'x, y, z'
loop_
 _atom_site_type_symbol
 _atom_site_label
 _atom_site_symmetry_multiplicity
 _atom_site_fract_x
 _atom_site_fract_y
 _atom_site_fract_z
 _atom_site_occupancy
  Mg  Mg0_0  1  0.34504000  0.18264350  0.42566600  1
  Mg  Mg0_1  1  0.34504000  0.18264350  0.92566600  1
  Mg  Mg0_2  1  0.34504000  0.68264350  0.42566600  1
  Mg  Mg0_3  1  0.34504000  0.68264350  0.92566600  1
  Mg  Mg0_4  1  0.84504000  0.18264350  0.42566600  1
  Mg  Mg0_5  1  0.84504000  0.18264350  0.92566600  1
  Mg  Mg0_6  1  0.84504000  0.68264350  0.42566600  1
  Mg  Mg0_7  1  0.84504000  0.68264350  0.92566600  1
  Te  Te0_0  1  0.33332600  0.16665100  0.02835950  1
  Te  Te0_1  1  0.33332600  0.16665100  0.52835950  1
  Te  Te0_2  1  0.33332600  0.66665100  0.02835950  1
  Te  Te0_3  1  0.33332600  0.66665100  0.52835950  1
  Te  Te0_4  1  0.83332600  0.16665100  0.02835950  1
  Te  Te0_5  1  0.83332600  0.16665100  0.52835950  1
  Te  Te0_6  1  0.83332600  0.66665100  0.02835950  1
  Te  Te0_7  1  0.83332600  0.66665100  0.52835950  1
  Te  Te1_0  1  0.33331850  0.16663750  0.25964500  1
  Te  Te1_1  1  0.33331850  0.16663750  0.75964500  1
  Te  Te1_2  1  0.33331850  0.66663750  0.25964500  1
  Te  Te1_3  1  0.33331850  0.66663750  0.75964500  1
  Te  Te1_4  1  0.83331850  0.16663750  0.25964500  1
  Te  Te1_5  1  0.83331850  0.16663750  0.75964500  1
  Te  Te1_6  1  0.83331850  0.66663750  0.25964500  1
  Te  Te1_7  1  0.83331850  0.66663750  0.75964500  1
  Te  Te2_0  1  0.33332250  0.16664550  0.08730800  1
  Te  Te2_1  1  0.33332250  0.16664550  0.58730800  1
  Te  Te2_2  1  0.33332250  0.66664550  0.08730800  1
  Te  Te2_3  1  0.33332250  0.66664550  0.58730800  1
  Te  Te2_4  1  0.83332250  0.16664550  0.08730800  1
  Te  Te2_5  1  0.83332250  0.16664550  0.58730800  1
  Te  Te2_6  1  0.83332250  0.66664550  0.08730800  1
  Te  Te2_7  1  0.83332250  0.66664550  0.58730800  1
  Te  Te3_0  1  0.33332450  0.16664950  0.31864150  1
  Te  Te3_1  1  0.33332450  0.16664950  0.81864150  1
  Te  Te3_2  1  0.33332450  0.66664950  0.31864150  1
  Te  Te3_3  1  0.33332450  0.66664950  0.81864150  1
  Te  Te3_4  1  0.83332450  0.16664950  0.31864150  1
  Te  Te3_5  1  0.83332450  0.16664950  0.81864150  1
  Te  Te3_6  1  0.83332450  0.66664950  0.31864150  1
  Te  Te3_7  1  0.83332450  0.66664950  0.81864150  1
  Mo  Mo0_0  1  0.16665750  0.33331500  0.05780100  1
  Mo  Mo0_1  1  0.16665750  0.33331500  0.55780100  1
  Mo  Mo0_2  1  0.16665750  0.83331500  0.05780100  1
  Mo  Mo0_3  1  0.16665750  0.83331500  0.55780100  1
  Mo  Mo0_4  1  0.66665750  0.33331500  0.05780100  1
  Mo  Mo0_5  1  0.66665750  0.33331500  0.55780100  1
  Mo  Mo0_6  1  0.66665750  0.83331500  0.05780100  1
  Mo  Mo0_7  1  0.66665750  0.83331500  0.55780100  1
  Mo  Mo1_0  1  0.16665700  0.33331400  0.28918000  1
  Mo  Mo1_1  1  0.16665700  0.33331400  0.78918000  1
  Mo  Mo1_2  1  0.16665700  0.83331400  0.28918000  1
  Mo  Mo1_3  1  0.16665700  0.83331400  0.78918000  1
  Mo  Mo1_4  1  0.66665700  0.33331400  0.28918000  1
  Mo  Mo1_5  1  0.66665700  0.33331400  0.78918000  1
  Mo  Mo1_6  1  0.66665700  0.83331400  0.28918000  1
  Mo  Mo1_7  1  0.66665700  0.83331400  0.78918000  1
  W  W0_0  1  0.33334100  0.16670400  0.17349600  1
  W  W0_1  1  0.33334100  0.16670400  0.67349600  1
  W  W0_2  1  0.33334100  0.66670400  0.17349600  1
  W  W0_3  1  0.33334100  0.66670400  0.67349600  1
  W  W0_4  1  0.83334100  0.16670400  0.17349600  1
  W  W0_5  1  0.83334100  0.16670400  0.67349600  1
  W  W0_6  1  0.83334100  0.66670400  0.17349600  1
  W  W0_7  1  0.83334100  0.66670400  0.67349600  1
  S  S0_0  1  0.16668100  0.33335100  0.19718600  1
  S  S0_1  1  0.16668100  0.33335100  0.69718600  1
  S  S0_2  1  0.16668100  0.83335100  0.19718600  1
  S  S0_3  1  0.16668100  0.83335100  0.69718600  1
  S  S0_4  1  0.66668100  0.33335100  0.19718600  1
  S  S0_5  1  0.66668100  0.33335100  0.69718600  1
  S  S0_6  1  0.66668100  0.83335100  0.19718600  1
  S  S0_7  1  0.66668100  0.83335100  0.69718600  1
  S  S1_0  1  0.16668000  0.33334900  0.14980050  1
  S  S1_1  1  0.16668000  0.33334900  0.64980050  1
  S  S1_2  1  0.16668000  0.83334900  0.14980050  1
  S  S1_3  1  0.16668000  0.83334900  0.64980050  1
  S  S1_4  1  0.66668000  0.33334900  0.14980050  1
  S  S1_5  1  0.66668000  0.33334900  0.64980050  1
  S  S1_6  1  0.66668000  0.83334900  0.14980050  1
  S  S1_7  1  0.66668000  0.83334900  0.64980050  1
loop_
_geom_bond_atom_site_label_1
_geom_bond_atom_site_label_2
_geom_bond_distance
_geom_bond_site_symmetry_2
Mg0_0 Mg0_4 3.403071 1_455
Mg0_0 Mg0_4 3.403071 1_555
Mg0_0 Mg0_2 3.403409 1_545
Mg0_0 Mg0_2 3.403409 1_555
Mg0_0 Mg0_6 3.403528 1_445
Mg0_0 Mg0_6 3.403528 1_555
Mg0_1 Mg0_5 3.403071 1_455
Mg0_1 Mg0_5 3.403071 1_555
Mg0_1 Mg0_3 3.403409 1_545
Mg0_1 Mg0_3 3.403409 1_555
Mg0_1 Mg0_7 3.403528 1_445
Mg0_1 Mg0_7 3.403528 1_555
Mg0_2 Mg0_6 3.403071 1_455
Mg0_2 Mg0_6 3.403071 1_555
Mg0_2 Mg0_4 3.403528 1_455
Mg0_2 Mg0_4 3.403528 1_565
Mg0_3 Mg0_7 3.403071 1_455
Mg0_3 Mg0_7 3.403071 1_555
Mg0_3 Mg0_5 3.403528 1_455
Mg0_3 Mg0_5 3.403528 1_565
Mg0_4 Mg0_6 3.403409 1_545
Mg0_4 Mg0_6 3.403409 1_555
Mg0_5 Mg0_7 3.403409 1_545
Mg0_5 Mg0_7 3.403409 1_555
Mo0_0 Te0_0 2.710058 1_555
Mo0_0 Te0_4 2.710102 1_455
Mo0_0 Te0_2 2.710260 1_555
Mo0_0 Te2_0 2.712925 1_555
Mo0_0 Te2_4 2.712978 1_455
Mo0_0 Te2_2 2.713103 1_555
Mo0_1 Te0_1 2.710058 1_555
Mo0_1 Te0_5 2.710102 1_455
Mo0_1 Te0_3 2.710260 1_555
Mo0_1 Te2_1 2.712925 1_555
Mo0_1 Te2_5 2.712978 1_455
Mo0_1 Te2_3 2.713103 1_555
Mo0_2 Te0_2 2.710058 1_555
Mo0_2 Te0_6 2.710102 1_455
Mo0_2 Te0_0 2.710260 1_565
Mo0_2 Te2_2 2.712925 1_555
Mo0_2 Te2_6 2.712978 1_455
Mo0_2 Te2_0 2.713103 1_565
Mo0_3 Te0_3 2.710058 1_555
Mo0_3 Te0_7 2.710102 1_455
Mo0_3 Te0_1 2.710260 1_565
Mo0_3 Te2_3 2.712925 1_555
Mo0_3 Te2_7 2.712978 1_455
Mo0_3 Te2_1 2.713103 1_565
Mo0_4 Te0_4 2.710058 1_555
Mo0_4 Te0_0 2.710102 1_555
Mo0_4 Te0_6 2.710260 1_555
Mo0_4 Te2_4 2.712925 1_555
Mo0_4 Te2_0 2.712978 1_555
Mo0_4 Te2_6 2.713103 1_555
Mo0_5 Te0_5 2.710058 1_555
Mo0_5 Te0_1 2.710102 1_555
Mo0_5 Te0_7 2.710260 1_555
Mo0_5 Te2_5 2.712925 1_555
Mo0_5 Te2_1 2.712978 1_555
Mo0_5 Te2_7 2.713103 1_555
Mo0_6 Te0_6 2.710058 1_555
Mo0_6 Te0_2 2.710102 1_555
Mo0_6 Te0_4 2.710260 1_565
Mo0_6 Te2_6 2.712925 1_555
Mo0_6 Te2_2 2.712978 1_555
Mo0_6 Te2_4 2.713103 1_565
Mo0_7 Te0_7 2.710058 1_555
Mo0_7 Te0_3 2.710102 1_555
Mo0_7 Te0_5 2.710260 1_565
Mo0_7 Te2_7 2.712925 1_555
Mo0_7 Te2_3 2.712978 1_555
Mo0_7 Te2_5 2.713103 1_565
Mo1_0 Te3_0 2.710926 1_555
Mo1_0 Te3_4 2.710979 1_455
Mo1_0 Te3_2 2.711136 1_555
Mo1_0 Te1_0 2.714168 1_555
Mo1_0 Te1_4 2.714218 1_455
Mo1_0 Te1_2 2.714292 1_555
Mo1_1 Te3_1 2.710926 1_555
Mo1_1 Te3_5 2.710979 1_455
Mo1_1 Te3_3 2.711136 1_555
Mo1_1 Te1_1 2.714168 1_555
Mo1_1 Te1_5 2.714218 1_455
Mo1_1 Te1_3 2.714292 1_555
Mo1_2 Te3_2 2.710926 1_555
Mo1_2 Te3_6 2.710979 1_455
Mo1_2 Te3_0 2.711136 1_565
Mo1_2 Te1_2 2.714168 1_555
Mo1_2 Te1_6 2.714218 1_455
Mo1_2 Te1_0 2.714292 1_565
Mo1_3 Te3_3 2.710926 1_555
Mo1_3 Te3_7 2.710979 1_455
Mo1_3 Te3_1 2.711136 1_565
Mo1_3 Te1_3 2.714168 1_555
Mo1_3 Te1_7 2.714218 1_455
Mo1_3 Te1_1 2.714292 1_565
Mo1_4 Te3_4 2.710926 1_555
Mo1_4 Te3_0 2.710979 1_555
Mo1_4 Te3_6 2.711136 1_555
Mo1_4 Te1_4 2.714168 1_555
Mo1_4 Te1_0 2.714218 1_555
Mo1_4 Te1_6 2.714292 1_555
Mo1_5 Te3_5 2.710926 1_555
Mo1_5 Te3_1 2.710979 1_555
Mo1_5 Te3_7 2.711136 1_555
Mo1_5 Te1_5 2.714168 1_555
Mo1_5 Te1_1 2.714218 1_555
Mo1_5 Te1_7 2.714292 1_555
Mo1_6 Te3_6 2.710926 1_555
Mo1_6 Te3_2 2.710979 1_555
Mo1_6 Te3_4 2.711136 1_565
Mo1_6 Te1_6 2.714168 1_555
Mo1_6 Te1_2 2.714218 1_555
Mo1_6 Te1_4 2.714292 1_565
Mo1_7 Te3_7 2.710926 1_555
Mo1_7 Te3_3 2.710979 1_555
Mo1_7 Te3_5 2.711136 1_565
Mo1_7 Te1_7 2.714168 1_555
Mo1_7 Te1_3 2.714218 1_555
Mo1_7 Te1_5 2.714292 1_565
S0_0 W0_0 2.472968 1_555
S0_0 W0_4 2.473176 1_455
S0_0 W0_2 2.473389 1_555
S0_1 W0_1 2.472968 1_555
S0_1 W0_5 2.473176 1_455
S0_1 W0_3 2.473389 1_555
S0_2 W0_2 2.472968 1_555
S0_2 W0_6 2.473176 1_455
S0_2 W0_0 2.473389 1_565
S0_3 W0_3 2.472968 1_555
S0_3 W0_7 2.473176 1_455
S0_3 W0_1 2.473389 1_565
S0_4 W0_4 2.472968 1_555
S0_4 W0_0 2.473176 1_555
S0_4 W0_6 2.473389 1_555
S0_5 W0_5 2.472968 1_555
S0_5 W0_1 2.473176 1_555
S0_5 W0_7 2.473389 1_555
S0_6 W0_6 2.472968 1_555
S0_6 W0_2 2.473176 1_555
S0_6 W0_4 2.473389 1_565
S0_7 W0_7 2.472968 1_555
S0_7 W0_3 2.473176 1_555
S0_7 W0_5 2.473389 1_565
S1_0 W0_0 2.473172 1_555
S1_0 W0_4 2.473382 1_455
S1_0 W0_2 2.473615 1_555
S1_1 W0_1 2.473172 1_555
S1_1 W0_5 2.473382 1_455
S1_1 W0_3 2.473615 1_555
S1_2 W0_2 2.473172 1_555
S1_2 W0_6 2.473382 1_455
S1_2 W0_0 2.473615 1_565
S1_3 W0_3 2.473172 1_555
S1_3 W0_7 2.473382 1_455
S1_3 W0_1 2.473615 1_565
S1_4 W0_4 2.473172 1_555
S1_4 W0_0 2.473382 1_555
S1_4 W0_6 2.473615 1_555
S1_5 W0_5 2.473172 1_555
S1_5 W0_1 2.473382 1_555
S1_5 W0_7 2.473615 1_555
S1_6 W0_6 2.473172 1_555
S1_6 W0_2 2.473382 1_555
S1_6 W0_4 2.473615 1_565
S1_7 W0_7 2.473172 1_555
S1_7 W0_3 2.473382 1_555
S1_7 W0_5 2.473615 1_565
