# generated using pymatgen
data_ZrV2
_symmetry_space_group_name_H-M   'P 1'
_cell_length_a   5.18648338
_cell_length_b   5.18649224
_cell_length_c   5.18649248
_cell_angle_alpha   60.00000499
_cell_angle_beta   59.99994857
_cell_angle_gamma   59.99994514
_symmetry_Int_Tables_number   1
_chemical_formula_structural   ZrV2
_chemical_formula_sum   'Zr2 V4'
_cell_volume   98.65182975
_cell_formula_units_Z   2
loop_
 _symmetry_equiv_pos_site_id
 _symmetry_equiv_pos_as_xyz
  1  'x, y, z'
loop_
 _atom_site_type_symbol
 _atom_site_label
 _atom_site_symmetry_multiplicity
 _atom_site_fract_x
 _atom_site_fract_y
 _atom_site_fract_z
 _atom_site_occupancy
  Zr  Zr0  1  0.87500028  0.87499957  0.87499957  1
  Zr  Zr1  1  0.12499972  0.12500043  0.12500043  1
  V  V0  1  0.50000000  0.50000000  0.50000000  1
  V  V1  1  0.50000000  0.50000000  -0.00000000  1
  V  V2  1  0.00000000  0.50000000  0.50000000  1
  V  V3  1  0.50000000  -0.00000000  0.50000000  1
loop_
_geom_bond_atom_site_label_1
_geom_bond_atom_site_label_2
_geom_bond_distance
_geom_bond_site_symmetry_2
Zr0 Zr1 3.176059 1_566
Zr0 Zr1 3.176060 1_656
Zr0 Zr1 3.176061 1_665
Zr0 Zr1 3.176069 1_666
V0 V2 2.593242 1_555
V0 V2 2.593242 1_655
V0 V3 2.593246 1_555
V0 V3 2.593246 1_565
V0 V1 2.593246 1_555
V0 V1 2.593246 1_556
V0 Zr0 3.040842 1_455
V0 Zr1 3.040842 1_655
V0 Zr0 3.040849 1_545
V0 Zr1 3.040849 1_565
V0 Zr0 3.040849 1_554
V0 Zr1 3.040849 1_556
V1 V2 2.593242 1_555
V1 V2 2.593242 1_654
V1 V3 2.593246 1_564
V1 V3 2.593246 1_555
V1 Zr1 3.040844 1_655
V1 Zr0 3.040844 1_454
V1 Zr0 3.040847 1_554
V1 Zr1 3.040847 1_555
V1 Zr0 3.040851 1_544
V1 Zr1 3.040851 1_565
V2 V3 2.593242 1_465
V2 V3 2.593242 1_555
V2 Zr0 3.040847 1_455
V2 Zr1 3.040847 1_555
V2 Zr0 3.040852 1_445
V2 Zr1 3.040852 1_565
V2 Zr0 3.040852 1_454
V2 Zr1 3.040852 1_556
V3 Zr1 3.040845 1_655
V3 Zr0 3.040845 1_445
V3 Zr0 3.040847 1_545
V3 Zr1 3.040847 1_555
V3 Zr1 3.040852 1_556
V3 Zr0 3.040852 1_544
