# generated using pymatgen
data_BaNdMg(CoO3)2
_symmetry_space_group_name_H-M   'P 1'
_cell_length_a   3.77438467
_cell_length_b   3.93746126
_cell_length_c   11.25810232
_cell_angle_alpha   90.00000000
_cell_angle_beta   90.00000000
_cell_angle_gamma   90.00000000
_symmetry_Int_Tables_number   1
_chemical_formula_structural   BaNdMg(CoO3)2
_chemical_formula_sum   'Ba1 Nd1 Mg1 Co2 O6'
_cell_volume   167.31221353
_cell_formula_units_Z   1
loop_
 _symmetry_equiv_pos_site_id
 _symmetry_equiv_pos_as_xyz
  1  'x, y, z'
loop_
 _atom_site_type_symbol
 _atom_site_label
 _atom_site_symmetry_multiplicity
 _atom_site_fract_x
 _atom_site_fract_y
 _atom_site_fract_z
 _atom_site_occupancy
  Ba  Ba0  1  0.00000000  0.00000000  0.44813046  1
  Nd  Nd0  1  0.00000000  0.00000000  0.11929941  1
  Mg  Mg0  1  0.00000000  0.00000000  0.75570870  1
  Co  Co0  1  0.50000000  0.50000000  0.66173192  1
  Co  Co1  1  0.50000000  0.50000000  0.24624798  1
  O  O0  1  0.50000000  0.50000000  0.06840430  1
  O  O1  1  0.50000000  0.50000000  0.49652042  1
  O  O2  1  0.00000000  0.50000000  0.74321122  1
  O  O3  1  0.50000000  0.00000000  0.69944744  1
  O  O4  1  0.00000000  0.50000000  0.26015691  1
  O  O5  1  0.50000000  0.00000000  0.25114124  1
loop_
_geom_bond_atom_site_label_1
_geom_bond_atom_site_label_2
_geom_bond_distance
_geom_bond_site_symmetry_2
Ba0 O1 2.781039 1_545
Ba0 O1 2.781039 1_555
Ba0 O1 2.781039 1_445
Ba0 O1 2.781039 1_455
Ba0 O4 2.890382 1_545
Ba0 O4 2.890382 1_555
Ba0 O5 2.912009 1_455
Ba0 O5 2.912009 1_555
Nd0 O5 2.400960 1_455
Nd0 O5 2.400960 1_555
Nd0 O4 2.527968 1_555
Nd0 O4 2.527968 1_545
Nd0 O0 2.786701 1_445
Nd0 O0 2.786701 1_545
Nd0 O0 2.786701 1_555
Nd0 O0 2.786701 1_455
Mg0 O2 1.973752 1_545
Mg0 O2 1.973752 1_555
Mg0 O3 1.990649 1_555
Mg0 O3 1.990649 1_455
Co0 O1 1.859968 1_555
Co0 O3 2.013998 1_555
Co0 O3 2.013998 1_565
Co0 O2 2.098318 1_655
Co0 O2 2.098318 1_555
Co1 O4 1.893678 1_555
Co1 O4 1.893678 1_655
Co1 O5 1.969501 1_555
Co1 O5 1.969501 1_565
Co1 O0 2.002182 1_555
