# generated using pymatgen
data_Na7NbSi6(SnO8)3
_symmetry_space_group_name_H-M   'P 1'
_cell_length_a   9.12180571
_cell_length_b   9.11935500
_cell_length_c   22.43370089
_cell_angle_alpha   90.06450370
_cell_angle_beta   89.89769619
_cell_angle_gamma   120.03242022
_symmetry_Int_Tables_number   1
_chemical_formula_structural   Na7NbSi6(SnO8)3
_chemical_formula_sum   'Na21 Nb3 Si18 Sn9 O72'
_cell_volume   1615.59989977
_cell_formula_units_Z   3
loop_
 _symmetry_equiv_pos_site_id
 _symmetry_equiv_pos_as_xyz
  1  'x, y, z'
loop_
 _atom_site_type_symbol
 _atom_site_label
 _atom_site_symmetry_multiplicity
 _atom_site_fract_x
 _atom_site_fract_y
 _atom_site_fract_z
 _atom_site_occupancy
  Na  Na0  1  0.37106330  0.36618351  0.24927009  1
  Na  Na1  1  0.63671481  0.63328836  0.74890010  1
  Na  Na2  1  0.99661599  0.36413478  0.74876103  1
  Na  Na3  1  0.36617293  0.00359166  0.74901858  1
  Na  Na4  1  0.29873837  0.33340200  0.58226228  1
  Na  Na5  1  0.03438015  0.70110529  0.58217987  1
  Na  Na6  1  0.66661890  0.96534496  0.58215758  1
  Na  Na7  1  0.30581494  0.96951951  0.08273363  1
  Na  Na8  1  0.66373615  0.69671389  0.08285070  1
  Na  Na9  1  0.03225975  0.33709904  0.08239088  1
  Na  Na10  1  0.96291714  0.66631449  0.91878701  1
  Na  Na11  1  0.70559966  0.03492930  0.91881635  1
  Na  Na12  1  0.96594849  0.29681664  0.41461243  1
  Na  Na13  1  0.33161209  0.03560896  0.41523176  1
  Na  Na14  1  0.70274531  0.66781288  0.41447689  1
  Na  Na15  1  0.00016969  0.00025959  0.49880197  1
  Na  Na16  1  0.01103783  0.01039945  0.99724251  1
  Na  Na17  1  0.65734167  0.33255213  0.83608228  1
  Na  Na18  1  0.67613555  0.33312109  0.32803649  1
  Na  Na19  1  0.33241986  0.67452684  0.16731990  1
  Na  Na20  1  0.33319855  0.66669080  0.66423412  1
  Nb  Nb0  1  0.99886450  0.99891887  0.14834562  1
  Nb  Nb1  1  0.33316908  0.67003364  0.31034576  1
  Nb  Nb2  1  0.33384472  0.66611141  0.81523603  1
  Si  Si0  1  0.29388376  0.00066151  0.25075789  1
  Si  Si1  1  0.70810195  0.70537224  0.25156028  1
  Si  Si2  1  0.99520501  0.29198330  0.25170089  1
  Si  Si3  1  0.29240570  0.29124259  0.74899496  1
  Si  Si4  1  0.99890339  0.70772564  0.75003139  1
  Si  Si5  1  0.70848966  0.00120699  0.74988196  1
  Si  Si6  1  0.95953998  0.33322083  0.58293107  1
  Si  Si7  1  0.37375209  0.04022352  0.58311533  1
  Si  Si8  1  0.66670669  0.62648830  0.58305941  1
  Si  Si9  1  0.95794918  0.62416571  0.08203999  1
  Si  Si10  1  0.66604840  0.04318042  0.08210731  1
  Si  Si11  1  0.37671214  0.33370624  0.08383330  1
  Si  Si12  1  0.62677140  0.66465239  0.91762080  1
  Si  Si13  1  0.04047877  0.37104347  0.91851866  1
  Si  Si14  1  0.33275353  0.96179062  0.91800597  1
  Si  Si15  1  0.62538738  0.95759805  0.41717188  1
  Si  Si16  1  0.33248014  0.37451055  0.41640880  1
  Si  Si17  1  0.04243926  0.66733249  0.41703258  1
  Sn  Sn0  1  0.99890768  0.99930430  0.35086482  1
  Sn  Sn1  1  0.00364298  0.00329060  0.85291276  1
  Sn  Sn2  1  0.00049888  0.00060565  0.64773555  1
  Sn  Sn3  1  0.66685833  0.33356165  0.68479750  1
  Sn  Sn4  1  0.66984712  0.33307135  0.18672383  1
  Sn  Sn5  1  0.66338557  0.33282392  0.97942859  1
  Sn  Sn6  1  0.66659017  0.33336664  0.47955480  1
  Sn  Sn7  1  0.33326157  0.66571782  0.01879591  1
  Sn  Sn8  1  0.33323416  0.66665022  0.51808315  1
  O  O0  1  0.21421901  0.03812996  0.31022497  1
  O  O1  1  0.81741299  0.78582510  0.31179134  1
  O  O2  1  0.97117530  0.18410156  0.31223833  1
  O  O3  1  0.20901099  0.16312767  0.80483915  1
  O  O4  1  0.95775455  0.78717187  0.80842041  1
  O  O5  1  0.82811821  0.04037237  0.80828017  1
  O  O6  1  0.78291976  0.95518282  0.69074731  1
  O  O7  1  0.17421670  0.22085607  0.68912601  1
  O  O8  1  0.04515864  0.82800033  0.69084709  1
  O  O9  1  0.80475206  0.82847028  0.19302479  1
  O  O10  1  0.02741606  0.19556411  0.19376584  1
  O  O11  1  0.17010254  0.97433198  0.19236620  1
  O  O12  1  0.88180717  0.37322574  0.64278180  1
  O  O13  1  0.49163655  0.11841291  0.64276575  1
  O  O14  1  0.62707800  0.50859081  0.64272534  1
  O  O15  1  0.87385674  0.49660773  0.13791496  1
  O  O16  1  0.61986658  0.12526623  0.13795500  1
  O  O17  1  0.49360865  0.37568682  0.14334147  1
  O  O18  1  0.45366126  0.28290202  0.02692783  1
  O  O19  1  0.84011694  0.55337200  0.02177850  1
  O  O20  1  0.71456381  0.16088930  0.02163975  1
  O  O21  1  0.45364133  0.16087474  0.52405074  1
  O  O22  1  0.70770618  0.54663668  0.52399231  1
  O  O23  1  0.83875068  0.29268449  0.52401003  1
  O  O24  1  0.54757524  0.70515251  0.97624879  1
  O  O25  1  0.15057389  0.45359019  0.97825678  1
  O  O26  1  0.29588392  0.84292024  0.97678408  1
  O  O27  1  0.55084846  0.84334928  0.47785687  1
  O  O28  1  0.29263655  0.45046194  0.47677574  1
  O  O29  1  0.15687836  0.70793480  0.47765406  1
  O  O30  1  0.14246562  0.63681115  0.36157668  1
  O  O31  1  0.49526552  0.85662063  0.36179178  1
  O  O32  1  0.36300999  0.49915558  0.35915326  1
  O  O33  1  0.14011136  0.49650152  0.86000994  1
  O  O34  1  0.35781748  0.86070135  0.85941934  1
  O  O35  1  0.50493509  0.64454228  0.85891885  1
  O  O36  1  0.02302743  0.83600715  0.41156167  1
  O  O37  1  0.81383289  0.97779819  0.41217985  1
  O  O38  1  0.16420239  0.18501666  0.41234516  1
  O  O39  1  0.01183509  0.18065814  0.91253925  1
  O  O40  1  0.15710744  0.96605655  0.91158590  1
  O  O41  1  0.81194798  0.83732636  0.91114897  1
  O  O42  1  0.97579950  0.16182487  0.58732205  1
  O  O43  1  0.18575452  0.02326976  0.58749630  1
  O  O44  1  0.83799108  0.81438443  0.58760942  1
  O  O45  1  0.97787949  0.81484700  0.09021376  1
  O  O46  1  0.83634841  0.02290244  0.09093938  1
  O  O47  1  0.18454388  0.16416401  0.09069696  1
  O  O48  1  0.68664602  0.16873663  0.74553786  1
  O  O49  1  0.48253691  0.31466903  0.74514828  1
  O  O50  1  0.83142431  0.51825722  0.74548217  1
  O  O51  1  0.67637258  0.51437632  0.24537156  1
  O  O52  1  0.83085101  0.31283839  0.24555779  1
  O  O53  1  0.47494570  0.17368719  0.24423728  1
  O  O54  1  0.64746193  0.49791778  0.91799939  1
  O  O55  1  0.85731299  0.36526148  0.91816518  1
  O  O56  1  0.51221488  0.13923067  0.91839896  1
  O  O57  1  0.63669495  0.14322372  0.41915941  1
  O  O58  1  0.50675168  0.36257431  0.41937557  1
  O  O59  1  0.85673025  0.49304613  0.41920531  1
  O  O60  1  0.35410854  0.50141360  0.07879327  1
  O  O61  1  0.14952356  0.64944327  0.07896751  1
  O  O62  1  0.49972078  0.85168590  0.07827770  1
  O  O63  1  0.35610528  0.85203986  0.57932954  1
  O  O64  1  0.49590183  0.64370690  0.57928141  1
  O  O65  1  0.14773293  0.50397012  0.57918281  1
  O  O66  1  0.30618061  0.82824819  0.25586603  1
  O  O67  1  0.51910887  0.68893144  0.25584524  1
  O  O68  1  0.17645029  0.47391362  0.25560727  1
  O  O69  1  0.31179554  0.48144669  0.75719258  1
  O  O70  1  0.16954321  0.68773935  0.75725300  1
  O  O71  1  0.51767569  0.83031844  0.75669472  1
loop_
_geom_bond_atom_site_label_1
_geom_bond_atom_site_label_2
_geom_bond_distance
_geom_bond_site_symmetry_2
Na0 O53 2.378342 1_555
Na0 O51 2.412902 1_555
Na0 O68 2.425142 1_555
Na0 O67 2.555256 1_555
Na0 O17 2.607338 1_555
Na0 O32 2.763021 1_555
Na0 O0 2.929947 1_555
Na0 O10 2.987481 1_555
Na1 O50 2.474903 1_555
Na1 O49 2.517340 1_555
Na1 O71 2.527779 1_555
Na1 O69 2.574288 1_555
Na1 O14 2.620852 1_555
Na1 O35 2.767576 1_555
Na1 O6 2.860284 1_555
Na1 O4 2.867798 1_555
Na2 O48 2.476344 1_555
Na2 O69 2.523628 1_655
Na2 O50 2.524280 1_555
Na2 O70 2.563885 1_655
Na2 O12 2.617711 1_555
Na2 O33 2.796849 1_655
Na2 O7 2.868573 1_655
Na2 O5 2.884719 1_555
Na3 O49 2.483529 1_555
Na3 O70 2.525151 1_545
Na3 O48 2.532278 1_555
Na3 O71 2.573652 1_545
Na3 O13 2.623794 1_555
Na3 O34 2.782985 1_545
Na3 O3 2.795931 1_555
Na3 O8 2.856062 1_545
Na4 O64 2.480397 1_555
Na4 O43 2.481405 1_555
Na4 O65 2.543003 1_555
Na4 O42 2.554259 1_455
Na4 O28 2.609294 1_555
Na4 O7 2.630539 1_555
Na4 O21 2.896791 1_555
Na4 O14 2.929599 1_555
Na5 O44 2.478415 1_455
Na5 O65 2.483076 1_555
Na5 O63 2.543096 1_555
Na5 O43 2.547824 1_565
Na5 O29 2.583088 1_555
Na5 O8 2.678116 1_555
Na5 O22 2.894110 1_455
Na5 O12 2.926191 1_455
Na6 O42 2.473928 1_565
Na6 O63 2.483015 1_555
Na6 O64 2.541710 1_555
Na6 O44 2.551280 1_555
Na6 O27 2.579684 1_555
Na6 O6 2.678922 1_555
Na6 O23 2.896159 1_565
Na6 O13 2.926275 1_565
Na7 O62 2.488954 1_555
Na7 O47 2.523969 1_565
Na7 O61 2.528638 1_555
Na7 O45 2.596384 1_455
Na7 O26 2.623044 1_554
Na7 O11 2.761640 1_555
Na7 O16 2.773896 1_565
Na7 O18 2.774435 1_565
Na8 O60 2.474412 1_555
Na8 O45 2.512064 1_555
Na8 O62 2.522593 1_555
Na8 O46 2.583034 1_565
Na8 O24 2.634181 1_554
Na8 O9 2.768531 1_555
Na8 O19 2.875368 1_555
Na8 O17 2.876495 1_555
Na9 O61 2.492739 1_555
Na9 O46 2.512912 1_455
Na9 O60 2.543017 1_555
Na9 O25 2.568983 1_554
Na9 O47 2.577959 1_555
Na9 O15 2.801537 1_455
Na9 O10 2.803645 1_555
Na9 O20 2.861050 1_455
Na10 O40 2.406011 1_655
Na10 O55 2.412080 1_555
Na10 O54 2.493108 1_555
Na10 O19 2.548561 1_556
Na10 O41 2.551288 1_555
Na10 O4 2.721338 1_555
Na10 O26 2.936764 1_655
Na11 O56 2.386660 1_555
Na11 O39 2.423262 1_655
Na11 O41 2.442628 1_545
Na11 O20 2.558854 1_556
Na11 O55 2.610958 1_555
Na11 O5 2.708397 1_555
Na11 O24 2.906006 1_545
Na12 O59 2.447284 1_555
Na12 O38 2.481457 1_655
Na12 O37 2.520159 1_545
Na12 O2 2.525210 1_555
Na12 O57 2.604029 1_555
Na12 O23 2.704994 1_555
Na12 O28 2.935857 1_655
Na12 O30 2.936958 1_655
Na13 O57 2.445886 1_555
Na13 O36 2.472892 1_545
Na13 O38 2.505157 1_555
Na13 O58 2.585195 1_555
Na13 O0 2.594277 1_555
Na13 O21 2.689633 1_555
Na13 O29 2.943580 1_545
Na13 O31 2.959437 1_545
Na14 O58 2.444434 1_555
Na14 O37 2.480617 1_555
Na14 O36 2.531079 1_655
Na14 O1 2.535570 1_555
Na14 O59 2.601157 1_555
Na14 O22 2.704772 1_555
Na14 O27 2.951604 1_555
Na14 O32 2.957720 1_555
Na15 O38 2.512559 1_555
Na15 O37 2.523820 1_445
Na15 O36 2.534166 1_545
Na15 O42 2.546264 1_455
Na15 O44 2.553025 1_445
Na15 O43 2.554295 1_555
Na16 O39 2.452927 1_555
Na16 O40 2.481899 1_545
Na16 O47 2.578828 1_556
Na16 O41 2.579919 1_445
Na16 O45 2.662328 1_446
Na16 O46 2.672044 1_456
Na17 O54 2.405958 1_555
Na17 O56 2.435815 1_555
Na17 O55 2.504650 1_555
Na17 O49 2.545831 1_555
Na17 O48 2.611528 1_555
Na17 O50 2.612466 1_555
Na18 O52 2.387625 1_555
Na18 O51 2.484873 1_555
Na18 O53 2.520185 1_555
Na18 O59 2.573760 1_555
Na18 O57 2.586295 1_555
Na18 O58 2.657255 1_555
Na19 O66 2.509220 1_555
Na19 O61 2.528456 1_555
Na19 O62 2.541195 1_555
Na19 O67 2.578534 1_555
Na19 O68 2.585852 1_555
Na19 O60 2.603778 1_555
Na20 O64 2.485778 1_555
Na20 O63 2.486147 1_555
Na20 O65 2.489352 1_555
Na20 O71 2.617783 1_555
Na20 O70 2.625786 1_555
Na20 O69 2.630042 1_555
Nb0 O9 1.948888 1_555
Nb0 O11 1.954978 1_655
Nb0 O10 1.962461 1_665
Nb0 O45 2.056558 1_555
Nb0 O46 2.058151 1_565
Nb0 O47 2.062486 1_665
Nb1 O31 1.974044 1_555
Nb1 O30 1.976068 1_555
Nb1 O66 1.999160 1_555
Nb1 O67 2.025297 1_555
Nb1 O32 2.032427 1_555
Nb1 O68 2.047523 1_555
Nb2 O35 1.935933 1_555
Nb2 O33 1.945605 1_555
Nb2 O34 1.946188 1_555
Nb2 O69 2.056426 1_555
Nb2 O71 2.064484 1_555
Nb2 O70 2.068942 1_555
O0 Si0 1.633589 1_555
O0 Sn0 2.027863 1_445
O1 Si1 1.621289 1_555
O1 Sn0 2.018512 1_555
O2 Si2 1.626775 1_555
O2 Sn0 2.021307 1_545
O3 Si3 1.619696 1_555
O3 Sn1 2.014981 1_555
O4 Si4 1.627849 1_555
O4 Sn1 2.055980 1_665
O5 Si5 1.627452 1_555
O5 Sn1 2.056425 1_655
O6 Si5 1.636389 1_565
O6 Sn2 2.052527 1_665
O7 Si3 1.639730 1_555
O7 Sn2 2.054899 1_555
O8 Si4 1.637664 1_455
O8 Sn2 2.055642 1_565
O9 Si1 1.664443 1_555
O10 Si2 1.674321 1_455
O11 Si0 1.667838 1_565
O12 Si6 1.641057 1_555
O12 Sn3 2.036653 1_555
O13 Si7 1.640413 1_555
O13 Sn3 2.038501 1_555
O14 Si8 1.640352 1_555
O14 Sn3 2.038278 1_555
O15 Si9 1.618469 1_555
O15 Sn4 2.025962 1_555
O16 Si10 1.618381 1_555
O16 Sn4 2.031830 1_555
O17 Si11 1.631282 1_555
O17 Sn4 2.077121 1_555
O18 Si11 1.630346 1_555
O18 Sn5 2.030903 1_554
O19 Si9 1.645695 1_555
O19 Sn5 2.074198 1_554
O20 Si10 1.647376 1_555
O20 Sn5 2.076218 1_554
O21 Si7 1.641525 1_555
O21 Sn6 2.045015 1_555
O22 Si8 1.641545 1_555
O22 Sn6 2.045451 1_555
O23 Si6 1.641417 1_555
O23 Sn6 2.046473 1_555
O24 Si12 1.628109 1_555
O24 Sn7 2.037771 1_556
O25 Si13 1.617721 1_555
O25 Sn7 2.029998 1_556
O26 Si14 1.632068 1_555
O26 Sn7 2.042540 1_556
O27 Si15 1.640725 1_555
O27 Sn8 2.036266 1_555
O28 Si16 1.641322 1_555
O28 Sn8 2.036904 1_555
O29 Si17 1.641142 1_555
O29 Sn8 2.040694 1_555
O30 Si17 1.645325 1_555
O31 Si15 1.645884 1_555
O32 Si16 1.644558 1_555
O33 Si13 1.678116 1_555
O34 Si14 1.684253 1_555
O35 Si12 1.674416 1_555
O36 Si17 1.638789 1_555
O36 Sn0 2.110384 1_455
O37 Si15 1.638202 1_555
O37 Sn0 2.107486 1_555
O38 Si16 1.641859 1_555
O38 Sn0 2.118965 1_445
O39 Si13 1.626697 1_555
O39 Sn1 2.070170 1_555
O40 Si14 1.628668 1_555
O40 Sn1 2.071436 1_565
O41 Si12 1.640448 1_555
O41 Sn1 2.098164 1_665
O42 Si6 1.645352 1_555
O42 Sn2 2.094343 1_655
O43 Si7 1.645724 1_555
O43 Sn2 2.089853 1_555
O44 Si8 1.645598 1_555
O44 Sn2 2.093534 1_665
O45 Si9 1.665345 1_555
O46 Si10 1.665944 1_555
O47 Si11 1.665417 1_555
O48 Si5 1.639625 1_555
O48 Sn3 2.103737 1_555
O49 Si3 1.640016 1_555
O49 Sn3 2.095724 1_555
O50 Si4 1.639409 1_555
O50 Sn3 2.101176 1_555
O51 Si1 1.622270 1_555
O51 Sn4 2.089287 1_555
O52 Si2 1.609031 1_555
O52 Sn4 2.052249 1_555
O53 Si0 1.621723 1_555
O53 Sn4 2.085068 1_555
O54 Si12 1.623250 1_555
O54 Sn5 2.100281 1_555
O55 Si13 1.645080 1_655
O55 Sn5 2.138708 1_555
O56 Si14 1.626890 1_545
O56 Sn5 2.111219 1_555
O57 Si15 1.644149 1_545
O57 Sn6 2.107012 1_555
O58 Si16 1.648312 1_555
O58 Sn6 2.101414 1_555
O59 Si17 1.644072 1_655
O59 Sn6 2.104652 1_555
O60 Si11 1.646338 1_555
O60 Sn7 2.093678 1_555
O61 Si9 1.645614 1_455
O61 Sn7 2.096811 1_555
O62 Si10 1.645269 1_565
O62 Sn7 2.094474 1_555
O63 Si7 1.643586 1_565
O63 Sn8 2.105311 1_555
O64 Si8 1.644611 1_555
O64 Sn8 2.109278 1_555
O65 Si6 1.643999 1_455
O65 Sn8 2.103910 1_555
O66 Si0 1.635489 1_565
O67 Si1 1.656643 1_555
O68 Si2 1.657757 1_455
O69 Si3 1.663141 1_555
O70 Si4 1.663501 1_455
O71 Si5 1.663119 1_565
