# generated using pymatgen
data_MgMn6Nb4O18
_symmetry_space_group_name_H-M   'P 1'
_cell_length_a   5.24798830
_cell_length_b   5.56757754
_cell_length_c   15.02827636
_cell_angle_alpha   85.04992752
_cell_angle_beta   93.64749090
_cell_angle_gamma   120.74550792
_symmetry_Int_Tables_number   1
_chemical_formula_structural   MgMn6Nb4O18
_chemical_formula_sum   'Mg1 Mn6 Nb4 O18'
_cell_volume   375.88206578
_cell_formula_units_Z   1
loop_
 _symmetry_equiv_pos_site_id
 _symmetry_equiv_pos_as_xyz
  1  'x, y, z'
loop_
 _atom_site_type_symbol
 _atom_site_label
 _atom_site_symmetry_multiplicity
 _atom_site_fract_x
 _atom_site_fract_y
 _atom_site_fract_z
 _atom_site_occupancy
  Mg  Mg0  1  0.65940900  0.38641600  0.53547900  1
  Mn  Mn0  1  0.70580700  0.33576100  0.77828700  1
  Mn  Mn1  1  0.65360600  0.31713900  0.98177100  1
  Mn  Mn2  1  0.70042800  0.34806600  0.34674400  1
  Mn  Mn3  1  0.33521300  0.72259700  0.52420900  1
  Mn  Mn4  1  0.33262300  0.66027000  0.00532500  1
  Mn  Mn5  1  0.66749800  0.30624400  0.17046500  1
  Nb  Nb0  1  0.97195100  0.97952400  0.85851600  1
  Nb  Nb1  1  0.99748900  0.96297100  0.15267900  1
  Nb  Nb2  1  0.00564200  0.02582100  0.64935400  1
  Nb  Nb3  1  0.99897000  0.00024200  0.36249000  1
  O  O0  1  0.35139800  0.29679000  0.08966100  1
  O  O1  1  0.65839000  0.67537900  0.92604400  1
  O  O2  1  0.93526900  0.22928400  0.24784600  1
  O  O3  1  0.34181200  0.07928300  0.24916100  1
  O  O4  1  0.97702100  0.64535500  0.09641100  1
  O  O5  1  0.68857800  0.70981700  0.59057100  1
  O  O6  1  0.72229500  0.02674300  0.75001100  1
  O  O7  1  0.95208800  0.30578300  0.89684400  1
  O  O8  1  0.97830000  0.67449700  0.43068000  1
  O  O9  1  0.32299700  0.03565800  0.59079400  1
  O  O10  1  0.30596200  0.24096900  0.75553300  1
  O  O11  1  0.99412200  0.33516800  0.58663900  1
  O  O12  1  0.78873000  0.69808700  0.25570200  1
  O  O13  1  0.29068600  0.97931300  0.92911800  1
  O  O14  1  0.70204000  0.01612500  0.08511100  1
  O  O15  1  0.69321100  0.00092100  0.41889500  1
  O  O16  1  0.33874400  0.28497800  0.41960100  1
  O  O17  1  0.93805800  0.72496600  0.76271000  1
loop_
_geom_bond_atom_site_label_1
_geom_bond_atom_site_label_2
_geom_bond_distance
_geom_bond_site_symmetry_2
Mg0 O5 1.977437 1_555
Mg0 O9 2.000773 1_555
Mg0 O11 2.015150 1_555
Mg0 O16 2.238006 1_555
Mg0 O8 2.238006 1_555
Mn0 O6 1.852344 1_555
Mn0 O17 1.866623 1_555
Mn0 O10 1.899002 1_555
Mn0 O7 2.179240 1_555
Mn1 O13 2.047844 1_545
Mn1 O1 2.084073 1_555
Mn1 O7 2.110976 1_555
Mn1 O14 2.285026 1_556
Mn1 O0 2.295406 1_556
Mn1 O4 2.487626 1_556
Mn2 O16 2.107471 1_555
Mn2 O8 2.114839 1_555
Mn2 O15 2.116935 1_555
Mn2 O12 2.140470 1_555
Mn2 O3 2.253882 1_555
Mn2 O2 2.324068 1_555
Mn3 O5 2.079913 1_555
Mn3 O9 2.113493 1_565
Mn3 O11 2.157284 1_455
Mn3 O8 2.184694 1_455
Mn3 O15 2.326867 1_565
Mn4 O1 2.108147 1_554
Mn4 O13 2.128816 1_554
Mn4 O14 2.304025 1_565
Mn4 O0 2.335979 1_555
Mn4 O4 2.347411 1_455
Mn4 O7 2.579213 1_454
Mn5 O3 1.925568 1_555
Mn5 O2 1.957657 1_555
Mn5 O0 1.973514 1_555
Mn5 O4 2.042908 1_555
Mn5 O14 2.230210 1_555
Mn5 O12 2.400942 1_555
Nb0 O1 1.916255 1_555
Nb0 O13 1.923471 1_655
Nb0 O7 2.005997 1_565
Nb0 O17 2.043315 1_555
Nb0 O6 2.109757 1_565
Nb0 O10 2.221317 1_665
Nb1 O14 1.933842 1_565
Nb1 O4 1.976348 1_555
Nb1 O12 1.985470 1_555
Nb1 O0 2.047286 1_665
Nb1 O3 2.102195 1_665
Nb1 O2 2.295852 1_565
Nb2 O9 1.906886 1_555
Nb2 O11 1.917654 1_455
Nb2 O5 1.931967 1_445
Nb2 O10 2.131822 1_555
Nb2 O6 2.189706 1_455
Nb2 O17 2.193307 1_445
Nb3 O15 1.863648 1_555
Nb3 O16 1.891873 1_655
Nb3 O8 1.960453 1_545
Nb3 O2 2.165581 1_555
Nb3 O12 2.228393 1_545
Nb3 O3 2.404696 1_655
