# generated using pymatgen
data_Ba2GdNbO6
_symmetry_space_group_name_H-M   'P 1'
_cell_length_a   6.07866274
_cell_length_b   6.07866274
_cell_length_c   6.07866274
_cell_angle_alpha   120.11617042
_cell_angle_beta   120.11617042
_cell_angle_gamma   89.79890443
_symmetry_Int_Tables_number   1
_chemical_formula_structural   Ba2GdNbO6
_chemical_formula_sum   'Ba2 Gd1 Nb1 O6'
_cell_volume   158.54151125
_cell_formula_units_Z   1
loop_
 _symmetry_equiv_pos_site_id
 _symmetry_equiv_pos_as_xyz
  1  'x, y, z'
loop_
 _atom_site_type_symbol
 _atom_site_label
 _atom_site_symmetry_multiplicity
 _atom_site_fract_x
 _atom_site_fract_y
 _atom_site_fract_z
 _atom_site_occupancy
  Ba  Ba0  1  0.25000000  0.75000000  0.50000000  1
  Ba  Ba1  1  0.75000000  0.25000000  0.50000000  1
  Gd  Gd0  1  0.00000000  0.00000000  0.00000000  1
  Nb  Nb0  1  0.50000000  0.50000000  0.00000000  1
  O  O0  1  0.70453800  0.76448500  0.46902400  1
  O  O1  1  0.76448500  0.29546200  0.05994700  1
  O  O2  1  0.23551500  0.70453800  0.94005300  1
  O  O3  1  0.29546200  0.23551500  0.53097600  1
  O  O4  1  0.26375600  0.26375600  0.00000000  1
  O  O5  1  0.73624400  0.73624400  0.00000000  1
loop_
_geom_bond_atom_site_label_1
_geom_bond_atom_site_label_2
_geom_bond_distance
_geom_bond_site_symmetry_2
Ba0 O0 2.866654 1_555
Ba0 O2 2.866657 1_555
Ba0 O1 2.866657 1_455
Ba0 O3 2.866660 1_565
Ba0 O4 3.036305 1_566
Ba0 O5 3.036305 1_556
Ba0 O4 3.036305 1_555
Ba0 O5 3.036305 1_455
Ba0 O3 3.228774 1_555
Ba0 O1 3.228777 1_566
Ba0 O2 3.228777 1_554
Ba0 O0 3.228779 1_455
Ba1 O3 2.866654 1_555
Ba1 O2 2.866657 1_655
Ba1 O1 2.866657 1_555
Ba1 O0 2.866660 1_545
Ba1 O4 3.036305 1_656
Ba1 O5 3.036305 1_556
Ba1 O5 3.036305 1_545
Ba1 O4 3.036305 1_555
Ba1 O0 3.228774 1_555
Ba1 O1 3.228777 1_556
Ba1 O2 3.228777 1_544
Ba1 O3 3.228779 1_655
Gd0 O5 2.271361 1_445
Gd0 O4 2.271361 1_555
Gd0 O3 2.292740 1_555
Gd0 O0 2.292740 1_444
Gd0 O2 2.292744 1_544
Gd0 O1 2.292744 1_455
Nb0 O1 2.028815 1_555
Nb0 O2 2.028815 1_554
Nb0 O0 2.028819 1_555
Nb0 O3 2.028819 1_554
Nb0 O5 2.034439 1_555
Nb0 O4 2.034439 1_555
