# generated using pymatgen
data_Na10Sc4Ga4Si5S7O48
_symmetry_space_group_name_H-M   'P 1'
_cell_length_a   17.82646801
_cell_length_b   8.95457949
_cell_length_c   22.37717628
_cell_angle_alpha   89.54377166
_cell_angle_beta   89.28956422
_cell_angle_gamma   120.03220325
_symmetry_Int_Tables_number   1
_chemical_formula_structural   Na10Sc4Ga4Si5S7O48
_chemical_formula_sum   'Na30 Sc12 Ga12 Si15 S21 O144'
_cell_volume   3091.81737827
_cell_formula_units_Z   3
loop_
 _symmetry_equiv_pos_site_id
 _symmetry_equiv_pos_as_xyz
  1  'x, y, z'
loop_
 _atom_site_type_symbol
 _atom_site_label
 _atom_site_symmetry_multiplicity
 _atom_site_fract_x
 _atom_site_fract_y
 _atom_site_fract_z
 _atom_site_occupancy
  Na  Na0  1  0.32255377  0.00026291  0.24911419  1
  Na  Na1  1  0.82405411  -0.00015896  0.25204341  1
  Na  Na2  1  0.18385374  0.37337124  0.24158026  1
  Na  Na3  1  0.67791387  0.36801406  0.24428513  1
  Na  Na4  1  0.99516324  0.63083796  0.25922787  1
  Na  Na5  1  0.49693112  0.62781717  0.25796452  1
  Na  Na6  1  0.82564221  0.64834804  0.74467493  1
  Na  Na7  1  0.99564011  0.36082126  0.75691279  1
  Na  Na8  1  0.49762833  0.35566790  0.75696601  1
  Na  Na9  1  0.17826667  0.99074571  0.74268549  1
  Na  Na10  1  0.01772275  0.70789792  0.58589133  1
  Na  Na11  1  0.33033349  0.97248938  0.59101770  1
  Na  Na12  1  0.02050347  0.32873881  0.08350804  1
  Na  Na13  1  0.51651571  0.33215056  0.08528441  1
  Na  Na14  1  0.16190249  0.30209490  0.92605284  1
  Na  Na15  1  0.66235232  0.29946979  0.92664949  1
  Na  Na16  1  0.16354869  0.02294682  0.42489175  1
  Na  Na17  1  0.66299103  0.02972827  0.42457603  1
  Na  Na18  1  0.99419241  0.99891731  0.50189674  1
  Na  Na19  1  0.51023341  0.99448657  0.49705420  1
  Na  Na20  1  0.00229555  0.00082533  0.00040271  1
  Na  Na21  1  0.50003804  0.99426724  0.00435309  1
  Na  Na22  1  0.34510390  0.33578508  0.83545066  1
  Na  Na23  1  0.84592394  0.32150651  0.83174648  1
  Na  Na24  1  0.34991025  0.36403851  0.33666871  1
  Na  Na25  1  0.84738299  0.35899000  0.33849575  1
  Na  Na26  1  0.17692460  0.66327829  0.16706778  1
  Na  Na27  1  0.67495878  0.66199304  0.16560141  1
  Na  Na28  1  0.17229321  0.67279554  0.67004374  1
  Na  Na29  1  0.68034003  0.71143207  0.66072203  1
  Sc  Sc0  1  0.98938700  0.98233423  0.35314843  1
  Sc  Sc1  1  0.99080464  0.99365588  0.84889586  1
  Sc  Sc2  1  0.49293147  0.01036064  0.85197069  1
  Sc  Sc3  1  0.50712463  0.00152081  0.64415364  1
  Sc  Sc4  1  0.99847027  0.00691841  0.15072940  1
  Sc  Sc5  1  0.82880570  0.34179150  0.18510238  1
  Sc  Sc6  1  0.33582160  0.33472884  0.98288092  1
  Sc  Sc7  1  0.83185127  0.33107124  0.98245478  1
  Sc  Sc8  1  0.16599134  0.64881399  0.02000239  1
  Sc  Sc9  1  0.16236840  0.66976816  0.51910704  1
  Sc  Sc10  1  0.16179602  0.66671956  0.81259247  1
  Sc  Sc11  1  0.66640791  0.67901032  0.81393942  1
  Ga  Ga0  1  0.48556981  0.97297341  0.34864882  1
  Ga  Ga1  1  0.00134192  0.98969609  0.64857906  1
  Ga  Ga2  1  0.50034659  0.01681076  0.15297983  1
  Ga  Ga3  1  0.33094322  0.31732047  0.68065589  1
  Ga  Ga4  1  0.83155804  0.31162657  0.68503521  1
  Ga  Ga5  1  0.33735727  0.35428668  0.18629109  1
  Ga  Ga6  1  0.33695315  0.34726389  0.48274729  1
  Ga  Ga7  1  0.83482938  0.34474552  0.48391862  1
  Ga  Ga8  1  0.66262834  0.64185689  0.01836424  1
  Ga  Ga9  1  0.66041814  0.69921752  0.51782057  1
  Ga  Ga10  1  0.15836709  0.64195343  0.31540103  1
  Ga  Ga11  1  0.65353752  0.63439104  0.31754951  1
  Si  Si0  1  0.35458705  0.71157204  0.24960277  1
  Si  Si1  1  0.84622185  0.70287440  0.25317821  1
  Si  Si2  1  0.00028576  0.29796964  0.24992047  1
  Si  Si3  1  0.49663889  0.28613626  0.25042508  1
  Si  Si4  1  0.99506199  0.69777292  0.74440353  1
  Si  Si5  1  0.35322367  0.00676538  0.74369510  1
  Si  Si6  1  0.85509885  0.00009892  0.74477569  1
  Si  Si7  1  0.18638246  0.05307873  0.58089125  1
  Si  Si8  1  0.69461250  0.05340467  0.57987289  1
  Si  Si9  1  0.18741663  0.32864385  0.08481967  1
  Si  Si10  1  0.67866452  0.32512727  0.08305883  1
  Si  Si11  1  0.01527982  0.36212046  0.91703893  1
  Si  Si12  1  0.51873174  0.37351859  0.91606565  1
  Si  Si13  1  0.01536719  0.65762894  0.41823442  1
  Si  Si14  1  0.51640209  0.66787396  0.41509453  1
  S  S0  1  0.14913390  0.00076792  0.25174405  1
  S  S1  1  0.64297601  0.99607702  0.25099003  1
  S  S2  1  0.15067923  0.29400383  0.74738386  1
  S  S3  1  0.64916351  0.29336492  0.75057039  1
  S  S4  1  0.49643281  0.70169167  0.74878500  1
  S  S5  1  0.48229366  0.34328372  0.58190503  1
  S  S6  1  0.97843022  0.32738665  0.58398483  1
  S  S7  1  0.33437929  0.61923974  0.58471919  1
  S  S8  1  0.82969766  0.62454266  0.58253995  1
  S  S9  1  0.48332116  0.63484790  0.08453503  1
  S  S10  1  0.98150972  0.63249958  0.08306133  1
  S  S11  1  0.33255407  0.03928343  0.08704508  1
  S  S12  1  0.82744105  0.02665855  0.08294226  1
  S  S13  1  0.31459012  0.66693392  0.91539988  1
  S  S14  1  0.81144963  0.66867578  0.91833000  1
  S  S15  1  0.16742211  0.96214109  0.91647202  1
  S  S16  1  0.66553129  0.95404677  0.92017941  1
  S  S17  1  0.31554387  0.96222586  0.41577993  1
  S  S18  1  0.80881180  0.95406758  0.41687735  1
  S  S19  1  0.16993678  0.37431212  0.41595295  1
  S  S20  1  0.66682127  0.37820113  0.41883595  1
  O  O0  1  0.11090694  0.02784967  0.30675729  1
  O  O1  1  0.60718834  0.03066271  0.30574806  1
  O  O2  1  0.41790499  0.77760094  0.30669217  1
  O  O3  1  0.91384258  0.78162375  0.30794553  1
  O  O4  1  0.47841268  0.15252072  0.30636222  1
  O  O5  1  0.98604460  0.17045956  0.30587484  1
  O  O6  1  0.11357619  0.18884729  0.80290431  1
  O  O7  1  0.61160166  0.19275023  0.80665094  1
  O  O8  1  0.48859096  0.78388915  0.80304381  1
  O  O9  1  0.97772363  0.78950167  0.80103805  1
  O  O10  1  0.41827729  0.04627322  0.80028560  1
  O  O11  1  0.91462790  0.03998162  0.80401844  1
  O  O12  1  0.39862167  0.98743635  0.68325315  1
  O  O13  1  0.90431498  0.96739050  0.68832018  1
  O  O14  1  0.09537482  0.21211044  0.69545973  1
  O  O15  1  0.59309371  0.20620816  0.69962440  1
  O  O16  1  0.02245663  0.82399144  0.68449211  1
  O  O17  1  0.50925285  0.80747845  0.69486184  1
  O  O18  1  0.39947081  0.84259781  0.19211595  1
  O  O19  1  0.88983763  0.82918548  0.19521663  1
  O  O20  1  0.01992259  0.22239862  0.18863166  1
  O  O21  1  0.52158124  0.21989088  0.18944270  1
  O  O22  1  0.09326391  0.97193847  0.19996575  1
  O  O23  1  0.58832780  0.96851126  0.19854251  1
  O  O24  1  0.44577441  0.36980119  0.63899182  1
  O  O25  1  0.94265538  0.36409266  0.63892317  1
  O  O26  1  0.24658642  0.13174294  0.64015363  1
  O  O27  1  0.75090480  0.14671497  0.63826019  1
  O  O28  1  0.32657057  0.51619094  0.63900405  1
  O  O29  1  0.82006584  0.52942081  0.63917795  1
  O  O30  1  0.44670600  0.52311449  0.14012789  1
  O  O31  1  0.94288158  0.52620222  0.13869115  1
  O  O32  1  0.32411788  0.11854940  0.14280702  1
  O  O33  1  0.81754056  0.10179738  0.13945108  1
  O  O34  1  0.24425877  0.34441758  0.14443091  1
  O  O35  1  0.73528622  0.34851374  0.14243877  1
  O  O36  1  0.23355146  0.31893558  0.02280165  1
  O  O37  1  0.72459820  0.30846769  0.02214416  1
  O  O38  1  0.42991230  0.54598721  0.03263121  1
  O  O39  1  0.92880169  0.54190205  0.03122059  1
  O  O40  1  0.34697218  0.15374484  0.03450158  1
  O  O41  1  0.84226149  0.14559910  0.03206033  1
  O  O42  1  0.23717709  0.16724165  0.52034396  1
  O  O43  1  0.73832683  0.16231868  0.51724715  1
  O  O44  1  0.34570915  0.54283520  0.52967674  1
  O  O45  1  0.84932203  0.54222076  0.53116404  1
  O  O46  1  0.42338664  0.31430175  0.53183166  1
  O  O47  1  0.92682722  0.31032133  0.53105197  1
  O  O48  1  0.27570586  0.69094137  0.97058192  1
  O  O49  1  0.76919739  0.69203100  0.97196787  1
  O  O50  1  0.07687038  0.45984215  0.97557205  1
  O  O51  1  0.57901859  0.46248815  0.97493912  1
  O  O52  1  0.16225119  0.85944184  0.96931937  1
  O  O53  1  0.65867343  0.85031238  0.97354602  1
  O  O54  1  0.27452505  0.86025747  0.47160035  1
  O  O55  1  0.76828016  0.84591894  0.47107353  1
  O  O56  1  0.16332190  0.46593561  0.46797423  1
  O  O57  1  0.65901270  0.47092161  0.46986559  1
  O  O58  1  0.07645364  0.68636514  0.47636807  1
  O  O59  1  0.58210815  0.71312358  0.47076854  1
  O  O60  1  0.06363189  0.63850335  0.35714035  1
  O  O61  1  0.55934242  0.63765122  0.35381366  1
  O  O62  1  0.26202598  0.87644471  0.36282719  1
  O  O63  1  0.75869297  0.87265063  0.36226805  1
  O  O64  1  0.18156998  0.47369239  0.35917311  1
  O  O65  1  0.67898483  0.47373386  0.36059475  1
  O  O66  1  0.06399638  0.47427301  0.85622110  1
  O  O67  1  0.56627667  0.48223523  0.85449407  1
  O  O68  1  0.17771189  0.88541314  0.86036277  1
  O  O69  1  0.67839505  0.87845057  0.86484646  1
  O  O70  1  0.26242532  0.65107081  0.86280022  1
  O  O71  1  0.76173936  0.65151376  0.86336515  1
  O  O72  1  0.01391477  0.83937561  0.41478489  1
  O  O73  1  0.51276762  0.85033389  0.40872121  1
  O  O74  1  0.40275136  0.98181586  0.41269817  1
  O  O75  1  0.89731063  0.97797100  0.41514639  1
  O  O76  1  0.09182958  0.20047525  0.41437772  1
  O  O77  1  0.58949044  0.20330920  0.41593106  1
  O  O78  1  0.01345154  0.17682669  0.91483532  1
  O  O79  1  0.51485510  0.18391116  0.91438534  1
  O  O80  1  0.08871285  0.97828635  0.91415540  1
  O  O81  1  0.58658599  0.96876069  0.91579117  1
  O  O82  1  0.40322643  0.81532132  0.91063197  1
  O  O83  1  0.89937128  0.81786073  0.91557012  1
  O  O84  1  0.48757677  0.18292250  0.58576897  1
  O  O85  1  0.98747210  0.17384328  0.58882907  1
  O  O86  1  0.08788205  0.02647578  0.58569143  1
  O  O87  1  0.59591918  0.02688538  0.58483772  1
  O  O88  1  0.41072427  0.79671649  0.58698442  1
  O  O89  1  0.90959064  0.79954497  0.58393280  1
  O  O90  1  0.48887202  0.80258199  0.09018346  1
  O  O91  1  0.98852738  0.80203577  0.08711845  1
  O  O92  1  0.41152980  0.02254696  0.08784559  1
  O  O93  1  0.90743165  0.01301432  0.08453342  1
  O  O94  1  0.08867607  0.16031316  0.08652168  1
  O  O95  1  0.58047333  0.15148908  0.08849371  1
  O  O96  1  0.34608048  0.18756402  0.74208165  1
  O  O97  1  0.84535490  0.17207186  0.74205797  1
  O  O98  1  0.23817997  0.31302742  0.74069371  1
  O  O99  1  0.73743137  0.32141706  0.74426089  1
  O  O100  1  0.41810513  0.52729063  0.74428835  1
  O  O101  1  0.90697808  0.50759232  0.73649874  1
  O  O102  1  0.33995880  0.51478934  0.24267836  1
  O  O103  1  0.83200710  0.50792105  0.24589322  1
  O  O104  1  0.40928516  0.30693972  0.24245910  1
  O  O105  1  0.91329497  0.31520548  0.24455063  1
  O  O106  1  0.23636776  0.15532406  0.24487560  1
  O  O107  1  0.73157939  0.14882112  0.24366334  1
  O  O108  1  0.31871427  0.50502273  0.91890814  1
  O  O109  1  0.81520426  0.50681251  0.92222786  1
  O  O110  1  0.42327675  0.35172020  0.92124631  1
  O  O111  1  0.92020219  0.34551363  0.92203270  1
  O  O112  1  0.24431899  0.14077779  0.91877056  1
  O  O113  1  0.74161831  0.13267794  0.92210931  1
  O  O114  1  0.32063319  0.13315029  0.41906285  1
  O  O115  1  0.81509295  0.12562504  0.41980996  1
  O  O116  1  0.24766389  0.35267557  0.41865411  1
  O  O117  1  0.74501408  0.35686238  0.42087079  1
  O  O118  1  0.42070123  0.49273059  0.42598256  1
  O  O119  1  0.91928420  0.48282146  0.42574173  1
  O  O120  1  0.17474974  0.50118015  0.08418699  1
  O  O121  1  0.66770036  0.50032550  0.08007800  1
  O  O122  1  0.06914379  0.65121788  0.07792933  1
  O  O123  1  0.57098727  0.65382348  0.07781188  1
  O  O124  1  0.25417259  0.86948589  0.08092281  1
  O  O125  1  0.74941732  0.85613520  0.07563626  1
  O  O126  1  0.17801334  0.85826320  0.57790635  1
  O  O127  1  0.68390478  0.85764928  0.57789168  1
  O  O128  1  0.25563945  0.63648463  0.58214538  1
  O  O129  1  0.75143244  0.63641702  0.57423906  1
  O  O130  1  0.06713934  0.48459833  0.57835008  1
  O  O131  1  0.56978277  0.49391913  0.57441212  1
  O  O132  1  0.15952096  0.84621206  0.25625143  1
  O  O133  1  0.65333236  0.84258263  0.25559892  1
  O  O134  1  0.25832935  0.69632837  0.26038976  1
  O  O135  1  0.75107006  0.69089051  0.26270077  1
  O  O136  1  0.08717567  0.49278850  0.25411892  1
  O  O137  1  0.58158973  0.48077304  0.25666998  1
  O  O138  1  0.15912023  0.46665877  0.75243104  1
  O  O139  1  0.65529838  0.46594378  0.75359166  1
  O  O140  1  0.07901375  0.66973134  0.75175678  1
  O  O141  1  0.57376316  0.67634415  0.75125324  1
  O  O142  1  0.25600191  0.84354847  0.75243386  1
  O  O143  1  0.76091957  0.82104960  0.75133315  1
loop_
_geom_bond_atom_site_label_1
_geom_bond_atom_site_label_2
_geom_bond_distance
_geom_bond_site_symmetry_2
Na0 O134 2.375816 1_545
Na0 O104 2.385753 1_555
Na0 O132 2.519315 1_545
Na0 O106 2.536599 1_555
Na0 O32 2.590426 1_555
Na0 O18 2.724546 1_545
Na0 O4 2.746604 1_555
Na0 O62 2.749163 1_545
Na1 O135 2.404612 1_545
Na1 O105 2.454104 1_555
Na1 O107 2.595653 1_555
Na1 O133 2.637008 1_545
Na1 O19 2.667436 1_545
Na1 O33 2.696593 1_555
Na1 O63 2.700766 1_545
Na1 O5 2.797063 1_555
Na2 O102 2.413088 1_555
Na2 O136 2.455585 1_555
Na2 O34 2.486580 1_555
Na2 O134 2.548172 1_555
Na2 O106 2.554048 1_555
Na2 O64 2.793654 1_555
Na2 O20 2.815714 1_555
Na3 O103 2.382210 1_555
Na3 O137 2.402697 1_555
Na3 O35 2.529386 1_555
Na3 O135 2.547125 1_555
Na3 O107 2.578289 1_555
Na3 O21 2.728119 1_555
Na3 O65 2.773606 1_555
Na3 O1 2.947063 1_555
Na4 O105 2.474647 1_555
Na4 O136 2.501771 1_655
Na4 O60 2.505956 1_655
Na4 O103 2.565582 1_555
Na4 O132 2.577850 1_655
Na4 O3 2.656425 1_555
Na4 O31 2.872331 1_555
Na4 O22 2.945768 1_655
Na5 O61 2.410394 1_555
Na5 O137 2.449646 1_555
Na5 O133 2.470282 1_555
Na5 O102 2.483139 1_555
Na5 O104 2.520543 1_555
Na5 O2 2.617064 1_555
Na5 O30 2.809147 1_555
Na5 O23 2.938730 1_555
Na6 O143 2.351678 1_555
Na6 O101 2.356010 1_555
Na6 O99 2.536935 1_555
Na6 O29 2.580096 1_555
Na6 O139 2.635117 1_555
Na6 O9 2.686712 1_555
Na6 O13 2.758113 1_555
Na6 O71 2.882893 1_555
Na7 O97 2.375515 1_555
Na7 O140 2.397780 1_655
Na7 O66 2.513812 1_655
Na7 O101 2.553758 1_555
Na7 O138 2.574460 1_655
Na7 O11 2.685457 1_555
Na7 O25 2.819992 1_555
Na8 O96 2.373812 1_555
Na8 O139 2.469048 1_555
Na8 O141 2.488533 1_555
Na8 O67 2.502454 1_555
Na8 O10 2.572294 1_555
Na8 O100 2.575978 1_555
Na8 O24 2.830548 1_555
Na8 O15 2.930328 1_555
Na9 O142 2.352969 1_555
Na9 O140 2.515072 1_555
Na9 O98 2.526384 1_565
Na9 O26 2.585905 1_565
Na9 O96 2.603211 1_565
Na9 O16 2.758500 1_555
Na9 O68 2.788260 1_555
Na9 O6 2.887853 1_565
Na10 O16 2.430923 1_555
Na10 O89 2.444602 1_455
Na10 O86 2.476009 1_565
Na10 O126 2.478320 1_555
Na10 O130 2.562728 1_555
Na10 O58 2.699222 1_555
Na10 O45 2.893921 1_455
Na10 O25 2.907856 1_455
Na11 O12 2.379791 1_555
Na11 O126 2.397870 1_555
Na11 O84 2.474480 1_565
Na11 O88 2.606942 1_555
Na11 O128 2.621267 1_555
Na11 O26 2.754390 1_565
Na11 O54 2.872008 1_555
Na11 O46 2.944979 1_565
Na12 O94 2.364552 1_555
Na12 O120 2.386770 1_555
Na12 O93 2.519923 1_455
Na12 O20 2.528705 1_555
Na12 O122 2.567355 1_555
Na12 O50 2.633524 1_554
Na13 O121 2.339179 1_555
Na13 O95 2.401794 1_555
Na13 O92 2.448087 1_555
Na13 O123 2.540945 1_555
Na13 O21 2.551452 1_555
Na13 O51 2.699046 1_554
Na13 O30 2.846851 1_555
Na13 O40 2.873882 1_555
Na14 O78 2.318202 1_555
Na14 O108 2.457952 1_555
Na14 O36 2.494424 1_556
Na14 O112 2.528619 1_555
Na14 O80 2.532741 1_545
Na14 O50 2.765407 1_555
Na14 O6 2.931451 1_555
Na15 O79 2.314855 1_555
Na15 O37 2.403363 1_556
Na15 O109 2.409978 1_555
Na15 O113 2.519727 1_555
Na15 O81 2.582420 1_545
Na15 O51 2.767920 1_555
Na15 O7 2.859699 1_555
Na16 O72 2.345284 1_545
Na16 O114 2.460719 1_555
Na16 O76 2.500587 1_555
Na16 O42 2.523975 1_555
Na16 O116 2.557785 1_555
Na16 O0 2.823409 1_555
Na16 O58 2.835077 1_545
Na17 O73 2.367364 1_545
Na17 O115 2.400296 1_555
Na17 O43 2.454742 1_555
Na17 O77 2.492037 1_555
Na17 O117 2.536070 1_555
Na17 O59 2.647568 1_545
Na17 O1 2.851958 1_555
Na18 O89 2.452705 1_555
Na18 O86 2.457387 1_665
Na18 O85 2.546114 1_565
Na18 O72 2.548440 1_655
Na18 O75 2.559486 1_555
Na18 O76 2.614789 1_665
Na19 O73 2.381634 1_555
Na19 O87 2.432265 1_565
Na19 O77 2.454782 1_565
Na19 O88 2.653835 1_555
Na19 O74 2.668847 1_555
Na19 O84 2.768920 1_565
Na20 O78 2.412145 1_554
Na20 O94 2.457766 1_555
Na20 O80 2.526342 1_544
Na20 O91 2.547574 1_445
Na20 O93 2.554405 1_455
Na20 O83 2.604072 1_444
Na21 O95 2.381515 1_565
Na21 O90 2.504146 1_555
Na21 O92 2.525581 1_565
Na21 O79 2.547556 1_564
Na21 O81 2.577605 1_554
Na21 O82 2.705463 1_554
Na22 O110 2.349442 1_555
Na22 O96 2.488699 1_555
Na22 O100 2.537777 1_555
Na22 O112 2.545212 1_555
Na22 O108 2.596636 1_555
Na22 O98 2.808740 1_555
Na23 O111 2.381103 1_555
Na23 O97 2.418329 1_555
Na23 O101 2.564082 1_555
Na23 O113 2.666538 1_555
Na23 O99 2.768644 1_555
Na23 O109 2.844004 1_555
Na24 O118 2.357633 1_555
Na24 O104 2.515858 1_555
Na24 O116 2.535110 1_555
Na24 O102 2.545798 1_555
Na24 O114 2.604172 1_555
Na24 O106 2.861239 1_555
Na25 O119 2.314705 1_555
Na25 O105 2.523221 1_555
Na25 O103 2.546286 1_555
Na25 O117 2.570912 1_555
Na25 O115 2.591996 1_555
Na25 O107 2.930877 1_555
Na26 O120 2.352960 1_555
Na26 O136 2.472935 1_555
Na26 O134 2.491882 1_555
Na26 O124 2.520731 1_555
Na26 O132 2.703286 1_555
Na26 O122 2.751857 1_555
Na27 O121 2.374398 1_555
Na27 O135 2.521821 1_555
Na27 O125 2.530837 1_555
Na27 O137 2.591556 1_555
Na27 O123 2.693818 1_555
Na27 O133 2.734237 1_555
Na28 O142 2.406860 1_555
Na28 O140 2.446910 1_555
Na28 O138 2.522380 1_555
Na28 O128 2.569684 1_555
Na28 O126 2.605813 1_555
Na28 O130 2.748139 1_555
Na29 O127 2.242540 1_555
Na29 O143 2.414682 1_555
Na29 O129 2.571870 1_555
Na29 O141 2.666307 1_555
Na29 O131 2.778486 1_555
Na29 O139 2.876158 1_555
Ga0 O2 1.827308 1_555
Ga0 O4 1.918514 1_565
Ga0 O73 1.942603 1_555
Ga0 O74 2.075197 1_555
Ga0 O1 2.169847 1_565
Ga0 O77 2.499354 1_565
Ga1 O13 1.853547 1_455
Ga1 O16 1.880632 1_555
Ga1 O86 1.974578 1_565
Ga1 O14 2.147583 1_565
Ga1 O85 2.224648 1_465
Ga1 O89 2.230992 1_455
Ga2 O21 1.859630 1_555
Ga2 O18 1.888244 1_545
Ga2 O95 1.942642 1_555
Ga2 O23 2.097154 1_545
Ga2 O92 2.184319 1_555
Ga2 O90 2.313808 1_545
Ga3 O26 1.844093 1_555
Ga3 O96 1.899951 1_555
Ga3 O28 2.039697 1_555
Ga3 O24 2.064751 1_555
Ga3 O98 2.102710 1_555
Ga3 O100 2.269396 1_555
Ga4 O27 1.811109 1_555
Ga4 O97 1.881585 1_555
Ga4 O101 1.980432 1_555
Ga4 O25 2.053771 1_555
Ga4 O99 2.161844 1_555
Ga4 O29 2.296026 1_555
Ga5 O34 1.879529 1_555
Ga5 O102 1.903553 1_555
Ga5 O104 1.994800 1_555
Ga5 O30 2.031690 1_555
Ga5 O106 2.197168 1_555
Ga5 O32 2.235680 1_555
Ga6 O118 1.875937 1_555
Ga6 O42 1.881834 1_555
Ga6 O44 1.988421 1_555
Ga6 O46 2.039521 1_555
Ga6 O116 2.173846 1_555
Ga6 O114 2.299341 1_555
Ga7 O43 1.822084 1_555
Ga7 O119 1.884836 1_555
Ga7 O45 1.972466 1_555
Ga7 O47 2.107313 1_555
Ga7 O117 2.189332 1_555
Ga7 O115 2.323375 1_555
Ga8 O51 1.846628 1_554
Ga8 O121 1.900366 1_555
Ga8 O49 1.994518 1_554
Ga8 O123 2.138568 1_555
Ga8 O53 2.144475 1_554
Ga8 O125 2.198778 1_555
Ga9 O59 1.811419 1_555
Ga9 O127 1.855984 1_555
Ga9 O55 1.979137 1_555
Ga9 O131 2.129035 1_555
Ga9 O57 2.305567 1_555
Ga9 O129 2.344200 1_555
Ga10 O60 1.906188 1_555
Ga10 O136 1.910699 1_555
Ga10 O134 1.998855 1_555
Ga10 O64 2.002755 1_555
Ga10 O132 2.240732 1_555
Ga10 O62 2.269402 1_555
Ga11 O61 1.869390 1_555
Ga11 O137 1.923614 1_555
Ga11 O135 1.960106 1_555
Ga11 O65 1.960926 1_555
Ga11 O63 2.268131 1_555
Ga11 O133 2.315831 1_555
O0 S0 1.479194 1_555
O0 Sc0 2.233882 1_445
O1 S1 1.479453 1_545
O2 Si0 1.623391 1_555
O3 Si1 1.628441 1_555
O3 Sc0 1.925342 1_555
O4 Si3 1.637328 1_555
O5 Si2 1.617131 1_655
O5 Sc0 2.008500 1_545
O6 S2 1.485009 1_555
O6 Sc1 2.233946 1_445
O7 S3 1.480613 1_555
O7 Sc2 2.152466 1_555
O8 S4 1.465777 1_555
O8 Sc2 2.279841 1_565
O9 Si4 1.623979 1_555
O9 Sc1 2.038116 1_555
O10 Si5 1.645144 1_555
O10 Sc2 1.916448 1_555
O11 Si6 1.635294 1_555
O11 Sc1 1.901492 1_545
O12 Si5 1.622038 1_565
O12 Sc3 2.057848 1_565
O13 Si6 1.639242 1_565
O14 S2 1.475830 1_555
O15 S3 1.472890 1_555
O15 Sc3 2.126173 1_555
O16 Si4 1.649363 1_455
O17 S4 1.470993 1_555
O17 Sc3 2.084177 1_565
O18 Si0 1.637787 1_555
O19 Si1 1.624020 1_555
O19 Sc4 2.028807 1_565
O20 Si2 1.643591 1_555
O20 Sc4 1.970836 1_455
O21 Si3 1.635119 1_555
O22 S0 1.475493 1_565
O22 Sc4 2.176707 1_465
O23 S1 1.476357 1_555
O24 S5 1.500332 1_555
O25 S6 1.490938 1_555
O26 Si7 1.643184 1_555
O27 Si8 1.619510 1_555
O28 S7 1.481837 1_555
O29 S8 1.480649 1_555
O30 S9 1.510299 1_555
O31 S10 1.494524 1_555
O31 Sc5 2.121280 1_555
O32 S11 1.483143 1_555
O33 S12 1.486512 1_555
O33 Sc5 2.304419 1_555
O34 Si9 1.649043 1_555
O35 Si10 1.629224 1_555
O35 Sc5 1.957896 1_555
O36 Si9 1.629440 1_555
O36 Sc6 1.959918 1_554
O37 Si10 1.627457 1_555
O37 Sc7 2.013193 1_554
O38 S9 1.473919 1_555
O38 Sc6 2.129581 1_554
O39 S10 1.471639 1_555
O39 Sc7 2.134365 1_554
O40 S11 1.486156 1_555
O40 Sc6 2.073312 1_554
O41 S12 1.480582 1_555
O41 Sc7 2.075864 1_554
O42 Si7 1.649732 1_555
O43 Si8 1.647036 1_555
O44 S7 1.473608 1_555
O45 S8 1.499710 1_555
O46 S5 1.478720 1_555
O47 S6 1.470296 1_555
O48 S13 1.477713 1_555
O48 Sc8 2.095648 1_556
O49 S14 1.480186 1_555
O50 Si11 1.667037 1_555
O50 Sc8 1.936722 1_556
O51 Si12 1.649268 1_555
O52 S15 1.465544 1_555
O52 Sc8 2.222998 1_556
O53 S16 1.472732 1_555
O54 S17 1.489811 1_555
O54 Sc9 2.131153 1_555
O55 S18 1.479814 1_555
O56 S19 1.466559 1_555
O56 Sc9 2.169058 1_555
O57 S20 1.462705 1_555
O58 Si13 1.644466 1_555
O58 Sc9 1.882634 1_555
O59 Si14 1.630149 1_555
O60 Si13 1.661521 1_555
O61 Si14 1.651327 1_555
O62 S17 1.487705 1_555
O63 S18 1.487383 1_555
O64 S19 1.496673 1_555
O65 S20 1.505626 1_555
O66 Si11 1.640372 1_555
O66 Sc10 1.971298 1_555
O67 Si12 1.639566 1_555
O67 Sc11 1.974993 1_555
O68 S15 1.488735 1_555
O68 Sc10 2.131398 1_555
O69 S16 1.485139 1_555
O69 Sc11 2.046760 1_555
O70 S13 1.472381 1_555
O70 Sc10 2.190649 1_555
O71 S14 1.488427 1_555
O71 Sc11 2.152447 1_555
O72 Si13 1.641797 1_555
O72 Sc0 2.068663 1_455
O73 Si14 1.672270 1_555
O74 S17 1.475293 1_555
O75 S18 1.482075 1_555
O75 Sc0 2.121059 1_555
O76 S19 1.481765 1_555
O76 Sc0 2.358359 1_445
O77 S20 1.483254 1_555
O78 Si11 1.644306 1_555
O78 Sc1 2.102619 1_445
O79 Si12 1.665093 1_555
O79 Sc2 1.989647 1_555
O80 S15 1.482240 1_555
O80 Sc1 2.344826 1_455
O81 S16 1.482014 1_555
O81 Sc2 2.374616 1_565
O82 S13 1.471592 1_555
O82 Sc2 2.108651 1_565
O83 S14 1.464722 1_555
O83 Sc1 2.166728 1_555
O84 S5 1.487260 1_555
O84 Sc3 2.238530 1_555
O85 S6 1.465612 1_555
O86 Si7 1.651587 1_555
O87 Si8 1.655474 1_555
O87 Sc3 1.975386 1_555
O88 S7 1.489444 1_555
O88 Sc3 2.211401 1_565
O89 S8 1.500975 1_555
O90 S9 1.461609 1_555
O91 S10 1.463206 1_555
O91 Sc4 2.268440 1_565
O92 S11 1.488834 1_555
O93 S12 1.491680 1_555
O93 Sc4 2.231135 1_555
O94 Si9 1.647249 1_555
O94 Sc4 2.058459 1_455
O95 Si10 1.662442 1_555
O96 Si5 1.686458 1_555
O97 Si6 1.634571 1_555
O98 S2 1.487390 1_555
O99 S3 1.468752 1_555
O100 S4 1.490615 1_555
O101 Si4 1.652898 1_555
O102 Si0 1.656028 1_555
O103 Si1 1.643503 1_555
O103 Sc5 2.003979 1_555
O104 Si3 1.669760 1_555
O105 Si2 1.639191 1_655
O105 Sc5 2.120934 1_555
O106 S0 1.481108 1_555
O107 S1 1.489956 1_545
O107 Sc5 2.148691 1_555
O108 S13 1.489513 1_555
O108 Sc6 2.215669 1_555
O109 S14 1.485980 1_555
O109 Sc7 2.196470 1_555
O110 Si12 1.615347 1_555
O110 Sc6 2.015391 1_555
O111 Si11 1.627892 1_655
O111 Sc7 2.016416 1_555
O112 S15 1.499560 1_545
O112 Sc6 2.235427 1_555
O113 S16 1.493669 1_545
O113 Sc7 2.190569 1_555
O114 S17 1.489695 1_545
O115 S18 1.485409 1_545
O116 S19 1.493882 1_555
O117 S20 1.499862 1_555
O118 Si14 1.653757 1_555
O119 Si13 1.648383 1_655
O120 Si9 1.669467 1_555
O120 Sc8 2.004210 1_555
O121 Si10 1.676142 1_555
O122 S10 1.488258 1_455
O122 Sc8 2.154874 1_555
O123 S9 1.490550 1_555
O124 S11 1.471202 1_565
O124 Sc8 2.284930 1_555
O125 S12 1.475340 1_565
O126 Si7 1.676769 1_565
O126 Sc9 2.057004 1_555
O127 Si8 1.666616 1_565
O128 S7 1.488702 1_555
O128 Sc9 2.321793 1_555
O129 S8 1.465257 1_555
O130 S6 1.504093 1_455
O130 Sc9 2.116667 1_555
O131 S5 1.471098 1_555
O132 S0 1.488160 1_565
O133 S1 1.478554 1_555
O134 Si0 1.666157 1_555
O135 Si1 1.656067 1_555
O136 Si2 1.659164 1_555
O137 Si3 1.648543 1_555
O138 S2 1.481895 1_555
O138 Sc10 2.231242 1_555
O139 S3 1.495787 1_555
O139 Sc11 2.274300 1_555
O140 Si4 1.646642 1_455
O140 Sc10 2.029965 1_555
O141 S4 1.506583 1_555
O141 Sc11 2.171246 1_555
O142 Si5 1.621603 1_565
O142 Sc10 2.094744 1_555
O143 Si6 1.645157 1_565
O143 Sc11 2.046234 1_555
