# generated using pymatgen
data_As4(Pb3S5)3
_symmetry_space_group_name_H-M   'P 1'
_cell_length_a   10.77728188
_cell_length_b   10.77728188
_cell_length_c   10.77728144
_cell_angle_alpha   114.25965492
_cell_angle_beta   114.25965492
_cell_angle_gamma   114.25965066
_symmetry_Int_Tables_number   1
_chemical_formula_structural   As4(Pb3S5)3
_chemical_formula_sum   'As4 Pb9 S15'
_cell_volume   745.65238447
_cell_formula_units_Z   1
loop_
 _symmetry_equiv_pos_site_id
 _symmetry_equiv_pos_as_xyz
  1  'x, y, z'
loop_
 _atom_site_type_symbol
 _atom_site_label
 _atom_site_symmetry_multiplicity
 _atom_site_fract_x
 _atom_site_fract_y
 _atom_site_fract_z
 _atom_site_occupancy
  As  As0  1  0.05593700  0.05593700  0.05593700  1
  As  As1  1  0.40748900  0.84246700  0.40748900  1
  As  As2  1  0.40748900  0.40748900  0.84246700  1
  As  As3  1  0.84246700  0.40748900  0.40748900  1
  Pb  Pb0  1  0.59823400  0.33436500  0.59823400  1
  Pb  Pb1  1  0.59823400  0.59823400  0.33436500  1
  Pb  Pb2  1  0.33436500  0.59823400  0.59823400  1
  Pb  Pb3  1  0.24332700  0.77442000  0.97857700  1
  Pb  Pb4  1  0.97857700  0.24332700  0.77442000  1
  Pb  Pb5  1  0.77442000  0.97857700  0.24332700  1
  Pb  Pb6  1  0.24332700  0.97857700  0.77442000  1
  Pb  Pb7  1  0.77442000  0.24332700  0.97857700  1
  Pb  Pb8  1  0.97857700  0.77442000  0.24332700  1
  S  S0  1  0.92173300  0.47517300  0.92173300  1
  S  S1  1  0.92173300  0.92173300  0.47517300  1
  S  S2  1  0.47517300  0.92173300  0.92173300  1
  S  S3  1  0.12902100  0.32242800  0.12902100  1
  S  S4  1  0.12902100  0.12902100  0.32242800  1
  S  S5  1  0.32242800  0.12902100  0.12902100  1
  S  S6  1  0.63139600  0.88780900  0.63139600  1
  S  S7  1  0.63139600  0.63139600  0.88780900  1
  S  S8  1  0.88780900  0.63139600  0.63139600  1
  S  S9  1  0.58623700  0.03972100  0.39480300  1
  S  S10  1  0.39480300  0.58623700  0.03972100  1
  S  S11  1  0.03972100  0.39480300  0.58623700  1
  S  S12  1  0.58623700  0.39480300  0.03972100  1
  S  S13  1  0.39480300  0.03972100  0.58623700  1
  S  S14  1  0.03972100  0.58623700  0.39480300  1
loop_
_geom_bond_atom_site_label_1
_geom_bond_atom_site_label_2
_geom_bond_distance
_geom_bond_site_symmetry_2
As0 S4 2.293861 1_555
As0 S3 2.293862 1_555
As0 S5 2.293862 1_555
As1 S6 2.271977 1_555
As1 S13 2.310638 1_565
As1 S9 2.310638 1_565
As2 S7 2.271978 1_555
As2 S10 2.310638 1_556
As2 S12 2.310638 1_556
As3 S8 2.271977 1_555
As3 S11 2.310638 1_655
As3 S14 2.310638 1_655
Pb0 S0 2.815948 1_555
Pb0 S9 2.935257 1_555
Pb0 S13 2.935257 1_555
Pb0 S7 3.169966 1_555
Pb0 S8 3.169966 1_555
Pb1 S1 2.815949 1_555
Pb1 S12 2.935257 1_555
Pb1 S10 2.935257 1_555
Pb1 S8 3.169966 1_555
Pb1 S6 3.169966 1_555
Pb2 S2 2.815948 1_555
Pb2 S14 2.935257 1_555
Pb2 S11 2.935257 1_555
Pb2 S7 3.169966 1_555
Pb2 S6 3.169966 1_555
Pb3 S2 2.817185 1_555
Pb3 S5 3.009270 1_566
Pb3 S9 3.018233 1_566
Pb3 S8 3.111792 1_455
Pb3 S10 3.185498 1_556
Pb3 S11 3.196105 1_555
Pb3 S0 3.199255 1_455
Pb4 S0 2.817184 1_555
Pb4 S3 3.009270 1_656
Pb4 S10 3.018233 1_656
Pb4 S6 3.111792 1_545
Pb4 S11 3.185498 1_655
Pb4 S9 3.196105 1_555
Pb4 S1 3.199255 1_545
Pb5 S1 2.817184 1_555
Pb5 S4 3.009271 1_665
Pb5 S11 3.018233 1_665
Pb5 S7 3.111792 1_554
Pb5 S9 3.185498 1_565
Pb5 S10 3.196105 1_555
Pb5 S2 3.199255 1_554
Pb6 S2 2.817184 1_555
Pb6 S5 3.009270 1_566
Pb6 S12 3.018233 1_566
Pb6 S8 3.111792 1_455
Pb6 S13 3.185498 1_565
Pb6 S14 3.196105 1_555
Pb6 S1 3.199255 1_455
Pb7 S0 2.817185 1_555
Pb7 S3 3.009270 1_656
Pb7 S14 3.018233 1_656
Pb7 S6 3.111792 1_545
Pb7 S12 3.185498 1_556
Pb7 S13 3.196105 1_555
Pb7 S2 3.199255 1_545
Pb8 S1 2.817184 1_555
Pb8 S4 3.009271 1_665
Pb8 S13 3.018233 1_665
Pb8 S7 3.111792 1_554
Pb8 S14 3.185498 1_655
Pb8 S12 3.196105 1_555
Pb8 S0 3.199255 1_554
