# generated using pymatgen
data_Sn7Ir3
_symmetry_space_group_name_H-M   'P 1'
_cell_length_a   8.17259799
_cell_length_b   8.17259799
_cell_length_c   8.17259799
_cell_angle_alpha   109.47122063
_cell_angle_beta   109.47122063
_cell_angle_gamma   109.47122063
_symmetry_Int_Tables_number   1
_chemical_formula_structural   Sn7Ir3
_chemical_formula_sum   'Sn14 Ir6'
_cell_volume   420.20239065
_cell_formula_units_Z   2
loop_
 _symmetry_equiv_pos_site_id
 _symmetry_equiv_pos_as_xyz
  1  'x, y, z'
loop_
 _atom_site_type_symbol
 _atom_site_label
 _atom_site_symmetry_multiplicity
 _atom_site_fract_x
 _atom_site_fract_y
 _atom_site_fract_z
 _atom_site_occupancy
  Sn  Sn0  1  0.00000000  0.00000000  0.67030801  1
  Sn  Sn1  1  0.32969199  0.00000000  -0.00000000  1
  Sn  Sn2  1  0.67030801  0.67030801  0.67030801  1
  Sn  Sn3  1  -0.00000000  0.32969199  0.00000000  1
  Sn  Sn4  1  0.32969199  0.32969199  0.32969199  1
  Sn  Sn5  1  0.00000000  0.67030801  0.00000000  1
  Sn  Sn6  1  0.25000000  0.75000000  0.50000000  1
  Sn  Sn7  1  0.75000000  0.25000000  0.50000000  1
  Sn  Sn8  1  0.75000000  0.50000000  0.25000000  1
  Sn  Sn9  1  0.25000000  0.50000000  0.75000000  1
  Sn  Sn10  1  0.50000000  0.75000000  0.25000000  1
  Sn  Sn11  1  0.50000000  0.25000000  0.75000000  1
  Sn  Sn12  1  -0.00000000  0.00000000  0.32969199  1
  Sn  Sn13  1  0.67030801  -0.00000000  0.00000000  1
  Ir  Ir0  1  0.65796820  0.00000000  0.65796820  1
  Ir  Ir1  1  0.65796820  0.65796820  0.00000000  1
  Ir  Ir2  1  0.34203180  0.34203180  -0.00000000  1
  Ir  Ir3  1  0.00000000  0.65796820  0.65796820  1
  Ir  Ir4  1  -0.00000000  0.34203180  0.34203180  1
  Ir  Ir5  1  0.34203180  -0.00000000  0.34203180  1
loop_
_geom_bond_atom_site_label_1
_geom_bond_atom_site_label_2
_geom_bond_distance
_geom_bond_site_symmetry_2
Sn0 Sn12 2.783718 1_555
Sn0 Sn2 3.111271 1_445
Sn0 Sn1 3.111271 1_556
Sn0 Sn3 3.111271 1_556
Sn1 Sn13 2.783718 1_555
Sn1 Sn5 3.111271 1_545
Sn1 Sn4 3.111271 1_555
Sn2 Sn4 2.783718 1_555
Sn2 Sn5 3.111271 1_656
Sn3 Sn5 2.783718 1_555
Sn3 Sn4 3.111271 1_555
Sn12 Sn5 3.111271 1_545
Sn12 Sn13 3.111271 1_455
Sn12 Sn4 3.111271 1_555
Sn13 Sn2 3.111271 1_544
Sn13 Sn3 3.111271 1_655
Ir0 Sn0 2.763309 1_655
Ir0 Sn3 2.763309 1_656
Ir0 Sn2 2.763309 1_545
Ir0 Sn13 2.763309 1_556
Ir0 Sn6 2.790739 1_545
Ir0 Sn10 2.790739 1_545
Ir0 Sn11 2.790739 1_555
Ir0 Sn7 2.790739 1_555
Ir0 Ir5 2.981461 1_555
Ir1 Sn12 2.763309 1_665
Ir1 Sn2 2.763309 1_554
Ir1 Sn13 2.763309 1_565
Ir1 Sn5 2.763309 1_655
Ir1 Sn8 2.790739 1_555
Ir1 Sn9 2.790739 1_554
Ir1 Sn10 2.790739 1_555
Ir1 Sn11 2.790739 1_554
Ir1 Ir2 2.981461 1_555
Ir2 Sn4 2.763309 1_555
Ir2 Sn1 2.763309 1_555
Ir2 Sn0 2.763309 1_554
Ir2 Sn3 2.763309 1_555
Ir2 Sn8 2.790739 1_555
Ir2 Sn9 2.790739 1_554
Ir2 Sn10 2.790739 1_555
Ir2 Sn11 2.790739 1_554
Ir3 Sn5 2.763309 1_556
Ir3 Sn1 2.763309 1_566
Ir3 Sn0 2.763309 1_565
Ir3 Sn2 2.763309 1_455
Ir3 Sn8 2.790739 1_455
Ir3 Sn7 2.790739 1_455
Ir3 Sn6 2.790739 1_555
Ir3 Sn9 2.790739 1_555
Ir3 Ir4 2.981461 1_555
Ir4 Sn4 2.763309 1_555
Ir4 Sn13 2.763309 1_455
Ir4 Sn12 2.763309 1_555
Ir4 Sn3 2.763309 1_555
Ir4 Sn8 2.790739 1_455
Ir4 Sn7 2.790739 1_455
Ir4 Sn6 2.790739 1_555
Ir4 Sn9 2.790739 1_555
Ir5 Sn4 2.763309 1_555
Ir5 Sn1 2.763309 1_555
Ir5 Sn5 2.763309 1_545
Ir5 Sn12 2.763309 1_555
Ir5 Sn7 2.790739 1_555
Ir5 Sn10 2.790739 1_545
Ir5 Sn11 2.790739 1_555
Ir5 Sn6 2.790739 1_545
