# generated using pymatgen
data_Na7Ti3Nb(SiO4)6
_symmetry_space_group_name_H-M   'P 1'
_cell_length_a   9.00428546
_cell_length_b   9.00514327
_cell_length_c   22.20750103
_cell_angle_alpha   90.06398135
_cell_angle_beta   89.85152153
_cell_angle_gamma   120.03903965
_symmetry_Int_Tables_number   1
_chemical_formula_structural   Na7Ti3Nb(SiO4)6
_chemical_formula_sum   'Na21 Ti9 Nb3 Si18 O72'
_cell_volume   1558.82641025
_cell_formula_units_Z   3
loop_
 _symmetry_equiv_pos_site_id
 _symmetry_equiv_pos_as_xyz
  1  'x, y, z'
loop_
 _atom_site_type_symbol
 _atom_site_label
 _atom_site_symmetry_multiplicity
 _atom_site_fract_x
 _atom_site_fract_y
 _atom_site_fract_z
 _atom_site_occupancy
  Na  Na0  1  0.37242844  0.36682871  0.24861826  1
  Na  Na1  1  0.63695670  0.63102347  0.74892430  1
  Na  Na2  1  0.99408981  0.36408906  0.74880884  1
  Na  Na3  1  0.36938944  0.00537131  0.74864161  1
  Na  Na4  1  0.29738888  0.33345531  0.58278630  1
  Na  Na5  1  0.03604178  0.70249875  0.58285982  1
  Na  Na6  1  0.66644823  0.96383073  0.58284287  1
  Na  Na7  1  0.30419385  0.96552764  0.08240292  1
  Na  Na8  1  0.66113086  0.69624477  0.08239808  1
  Na  Na9  1  0.03441201  0.33825639  0.08197250  1
  Na  Na10  1  0.96137230  0.66417352  0.91790595  1
  Na  Na11  1  0.70454528  0.03695004  0.91800784  1
  Na  Na12  1  0.96413931  0.29694898  0.41615499  1
  Na  Na13  1  0.33289223  0.03702913  0.41632503  1
  Na  Na14  1  0.70308790  0.66661767  0.41602100  1
  Na  Na15  1  0.00028486  0.00018705  0.49892876  1
  Na  Na16  1  0.00725586  0.00669867  0.99636794  1
  Na  Na17  1  0.65980413  0.33277073  0.83591693  1
  Na  Na18  1  0.67285799  0.33298218  0.32956171  1
  Na  Na19  1  0.33298781  0.67304611  0.16606441  1
  Na  Na20  1  0.33322792  0.66682522  0.66332723  1
  Ti  Ti0  1  0.99893533  0.00026381  0.35094645  1
  Ti  Ti1  1  0.00526098  0.00481598  0.85368984  1
  Ti  Ti2  1  0.00003767  0.99968611  0.64718332  1
  Ti  Ti3  1  0.66715681  0.33352569  0.68429602  1
  Ti  Ti4  1  0.67252519  0.33272059  0.18739811  1
  Ti  Ti5  1  0.66109137  0.33266086  0.98065805  1
  Ti  Ti6  1  0.66638847  0.33356553  0.48140221  1
  Ti  Ti7  1  0.33214579  0.66559796  0.01829193  1
  Ti  Ti8  1  0.33296992  0.66643952  0.51784258  1
  Nb  Nb0  1  0.99919610  0.99868246  0.14715203  1
  Nb  Nb1  1  0.33318872  0.67076809  0.31122476  1
  Nb  Nb2  1  0.33469724  0.66725956  0.81479229  1
  Si  Si0  1  0.29308971  0.00183921  0.25088345  1
  Si  Si1  1  0.71168262  0.70641583  0.25141643  1
  Si  Si2  1  0.99331896  0.28882456  0.25128124  1
  Si  Si3  1  0.28879590  0.28622164  0.74908643  1
  Si  Si4  1  0.99719983  0.71155149  0.75002588  1
  Si  Si5  1  0.71452496  0.00303827  0.74986378  1
  Si  Si6  1  0.95677923  0.33322957  0.58306217  1
  Si  Si7  1  0.37668203  0.04312198  0.58333907  1
  Si  Si8  1  0.66642438  0.62341773  0.58332737  1
  Si  Si9  1  0.95453498  0.61842543  0.08232571  1
  Si  Si10  1  0.66377418  0.04587138  0.08237842  1
  Si  Si11  1  0.38122636  0.33661142  0.08402894  1
  Si  Si12  1  0.62529511  0.66329817  0.91856240  1
  Si  Si13  1  0.04161441  0.37146776  0.91855844  1
  Si  Si14  1  0.33311287  0.96287810  0.91865289  1
  Si  Si15  1  0.62569927  0.95892992  0.41816003  1
  Si  Si16  1  0.33344479  0.37494918  0.41735639  1
  Si  Si17  1  0.04124383  0.66676914  0.41805114  1
  O  O0  1  0.19749152  0.03149322  0.30920939  1
  O  O1  1  0.83144500  0.80448119  0.30999655  1
  O  O2  1  0.97250826  0.16958443  0.31015852  1
  O  O3  1  0.19304685  0.15908173  0.80634584  1
  O  O4  1  0.96495455  0.80042803  0.80900828  1
  O  O5  1  0.83466104  0.03373778  0.80881884  1
  O  O6  1  0.80119660  0.96519553  0.69075030  1
  O  O7  1  0.16469550  0.20022211  0.69005953  1
  O  O8  1  0.03491323  0.83607328  0.69091769  1
  O  O9  1  0.80109379  0.82925927  0.19149148  1
  O  O10  1  0.03185688  0.20007703  0.19187152  1
  O  O11  1  0.17066612  0.97171338  0.19105020  1
  O  O12  1  0.86516878  0.36650093  0.64221476  1
  O  O13  1  0.50138499  0.13500532  0.64228077  1
  O  O14  1  0.63344906  0.49854110  0.64230688  1
  O  O15  1  0.86033727  0.49258530  0.13992593  1
  O  O16  1  0.63059494  0.13934433  0.13995708  1
  O  O17  1  0.50026000  0.37004351  0.14340716  1
  O  O18  1  0.47240344  0.29760065  0.02649144  1
  O  O19  1  0.83204057  0.53474677  0.02307911  1
  O  O20  1  0.70414721  0.16902358  0.02301724  1
  O  O21  1  0.46782526  0.16889699  0.52490469  1
  O  O22  1  0.70122591  0.53230724  0.52488127  1
  O  O23  1  0.83096281  0.29885385  0.52484068  1
  O  O24  1  0.53097133  0.69950440  0.97541866  1
  O  O25  1  0.16501240  0.46962069  0.97625076  1
  O  O26  1  0.29970733  0.83318611  0.97565006  1
  O  O27  1  0.53300893  0.83243212  0.47674379  1
  O  O28  1  0.30013431  0.46857901  0.47595757  1
  O  O29  1  0.16777175  0.70061972  0.47659622  1
  O  O30  1  0.13623628  0.63028247  0.36121468  1
  O  O31  1  0.49489949  0.86332298  0.36135140  1
  O  O32  1  0.36948606  0.50015379  0.35892069  1
  O  O33  1  0.13489901  0.49832890  0.85879461  1
  O  O34  1  0.36473853  0.86737786  0.85863945  1
  O  O35  1  0.50397614  0.63804837  0.85817742  1
  O  O36  1  0.02576414  0.83908775  0.41207017  1
  O  O37  1  0.81383844  0.97483982  0.41236794  1
  O  O38  1  0.16101033  0.18604972  0.41254039  1
  O  O39  1  0.01886212  0.18143346  0.91109130  1
  O  O40  1  0.15552903  0.96626153  0.91062881  1
  O  O41  1  0.81154387  0.83830473  0.91134455  1
  O  O42  1  0.97340912  0.16062024  0.58891202  1
  O  O43  1  0.18725823  0.02657407  0.58899597  1
  O  O44  1  0.83953927  0.81278269  0.58897162  1
  O  O45  1  0.97438654  0.81117194  0.08807802  1
  O  O46  1  0.83679992  0.02629889  0.08860243  1
  O  O47  1  0.18831454  0.16299049  0.08772188  1
  O  O48  1  0.69142265  0.17134989  0.74413794  1
  O  O49  1  0.47948196  0.30779426  0.74435607  1
  O  O50  1  0.82834687  0.52015485  0.74405726  1
  O  O51  1  0.68484087  0.51516342  0.24482998  1
  O  O52  1  0.82445920  0.30695765  0.24409515  1
  O  O53  1  0.47618930  0.17744059  0.24429018  1
  O  O54  1  0.64872579  0.49622412  0.92214864  1
  O  O55  1  0.85513514  0.35971242  0.92166746  1
  O  O56  1  0.51159971  0.14418710  0.92220978  1
  O  O57  1  0.64089836  0.14708139  0.42312460  1
  O  O58  1  0.50623166  0.35899622  0.42343497  1
  O  O59  1  0.85298827  0.49356569  0.42326725  1
  O  O60  1  0.35781922  0.50477897  0.07693651  1
  O  O61  1  0.14667941  0.64235764  0.07782132  1
  O  O62  1  0.49517584  0.85388810  0.07736378  1
  O  O63  1  0.35952510  0.85380945  0.57850913  1
  O  O64  1  0.49410953  0.64025915  0.57851163  1
  O  O65  1  0.14619094  0.50587515  0.57841093  1
  O  O66  1  0.30647286  0.82850469  0.25553361  1
  O  O67  1  0.52013836  0.68669724  0.25608922  1
  O  O68  1  0.17364069  0.47250678  0.25620579  1
  O  O69  1  0.30670682  0.47768597  0.75491757  1
  O  O70  1  0.17094374  0.69292303  0.75488308  1
  O  O71  1  0.52184541  0.82914855  0.75443053  1
loop_
_geom_bond_atom_site_label_1
_geom_bond_atom_site_label_2
_geom_bond_distance
_geom_bond_site_symmetry_2
Na0 O53 2.320606 1_555
Na0 O68 2.416897 1_555
Na0 O51 2.437543 1_555
Na0 O67 2.501604 1_555
Na0 O17 2.595704 1_555
Na0 O32 2.732648 1_555
Na0 O0 2.940487 1_555
Na0 O10 2.941518 1_555
Na1 O50 2.387407 1_555
Na1 O71 2.474417 1_555
Na1 O49 2.522132 1_555
Na1 O69 2.579627 1_555
Na1 O14 2.643235 1_555
Na1 O35 2.717504 1_555
Na1 O4 2.887076 1_555
Na1 O6 2.907742 1_555
Na2 O48 2.390777 1_555
Na2 O69 2.471280 1_655
Na2 O50 2.512876 1_555
Na2 O70 2.569412 1_655
Na2 O12 2.644089 1_555
Na2 O33 2.740377 1_655
Na2 O5 2.899992 1_555
Na2 O7 2.914517 1_655
Na3 O49 2.388654 1_555
Na3 O70 2.468751 1_545
Na3 O48 2.512336 1_555
Na3 O71 2.569370 1_545
Na3 O13 2.637604 1_555
Na3 O34 2.732626 1_545
Na3 O3 2.874944 1_555
Na3 O8 2.908040 1_545
Na4 O64 2.424838 1_555
Na4 O43 2.428137 1_555
Na4 O65 2.528055 1_555
Na4 O42 2.530553 1_455
Na4 O28 2.661868 1_555
Na4 O7 2.664337 1_555
Na4 O21 2.909597 1_555
Na4 O14 2.937059 1_555
Na5 O65 2.426081 1_555
Na5 O44 2.427569 1_455
Na5 O63 2.524937 1_555
Na5 O43 2.532001 1_565
Na5 O29 2.642269 1_555
Na5 O8 2.685363 1_555
Na5 O22 2.912965 1_455
Na5 O12 2.932099 1_455
Na6 O63 2.426589 1_555
Na6 O42 2.428088 1_565
Na6 O64 2.526020 1_555
Na6 O44 2.534125 1_555
Na6 O27 2.642060 1_555
Na6 O6 2.686051 1_555
Na6 O23 2.912013 1_565
Na6 O13 2.933670 1_565
Na7 O62 2.389570 1_555
Na7 O47 2.474074 1_565
Na7 O61 2.521673 1_555
Na7 O45 2.575404 1_455
Na7 O26 2.643517 1_554
Na7 O11 2.705906 1_555
Na7 O16 2.851437 1_565
Na7 O18 2.870888 1_565
Na8 O60 2.394413 1_555
Na8 O45 2.474259 1_555
Na8 O62 2.527006 1_555
Na8 O46 2.578414 1_565
Na8 O24 2.658501 1_554
Na8 O9 2.718541 1_555
Na8 O17 2.881212 1_555
Na8 O19 2.905955 1_555
Na9 O61 2.399617 1_555
Na9 O46 2.464665 1_455
Na9 O60 2.523483 1_555
Na9 O47 2.572708 1_555
Na9 O25 2.625576 1_554
Na9 O10 2.735534 1_555
Na9 O15 2.865490 1_455
Na9 O20 2.891105 1_455
Na10 O40 2.391826 1_655
Na10 O55 2.411090 1_555
Na10 O54 2.440824 1_555
Na10 O41 2.533708 1_555
Na10 O19 2.608226 1_556
Na10 O4 2.705834 1_555
Na10 O26 2.935227 1_655
Na10 O33 2.952326 1_655
Na11 O56 2.374501 1_555
Na11 O41 2.423671 1_545
Na11 O39 2.457225 1_655
Na11 O55 2.519398 1_555
Na11 O20 2.617400 1_556
Na11 O5 2.696713 1_555
Na11 O24 2.923286 1_545
Na11 O34 2.961511 1_545
Na12 O38 2.432625 1_655
Na12 O59 2.436020 1_555
Na12 O37 2.514392 1_545
Na12 O57 2.526285 1_555
Na12 O2 2.634700 1_555
Na12 O23 2.696187 1_555
Na12 O30 2.870819 1_655
Na12 O28 2.939442 1_655
Na13 O36 2.428942 1_545
Na13 O57 2.438574 1_555
Na13 O38 2.506686 1_555
Na13 O58 2.517322 1_555
Na13 O0 2.664839 1_555
Na13 O21 2.695347 1_555
Na13 O31 2.887271 1_545
Na13 O29 2.944271 1_545
Na14 O58 2.434410 1_555
Na14 O37 2.435948 1_555
Na14 O36 2.518481 1_655
Na14 O59 2.526607 1_555
Na14 O1 2.641361 1_555
Na14 O22 2.700653 1_555
Na14 O32 2.895768 1_555
Na14 O27 2.944075 1_555
Na15 O38 2.478707 1_555
Na15 O37 2.489549 1_445
Na15 O36 2.490504 1_545
Na15 O42 2.545601 1_455
Na15 O44 2.547252 1_445
Na15 O43 2.550958 1_555
Na16 O39 2.431925 1_555
Na16 O40 2.452041 1_545
Na16 O41 2.511088 1_445
Na16 O47 2.543239 1_556
Na16 O45 2.611307 1_446
Na16 O46 2.614672 1_456
Na17 O54 2.446101 1_555
Na17 O56 2.462170 1_555
Na17 O55 2.523447 1_555
Na17 O49 2.543979 1_555
Na17 O50 2.596111 1_555
Na17 O48 2.598645 1_555
Na18 O52 2.413830 1_555
Na18 O51 2.464233 1_555
Na18 O53 2.492377 1_555
Na18 O59 2.591295 1_555
Na18 O57 2.593240 1_555
Na18 O58 2.643190 1_555
Na19 O62 2.505225 1_555
Na19 O61 2.506505 1_555
Na19 O66 2.508081 1_555
Na19 O60 2.567859 1_555
Na19 O67 2.580946 1_555
Na19 O68 2.593490 1_555
Na20 O64 2.456683 1_555
Na20 O63 2.458628 1_555
Na20 O65 2.461645 1_555
Na20 O71 2.576836 1_555
Na20 O70 2.579120 1_555
Na20 O69 2.587109 1_555
Nb0 O9 1.936152 1_555
Nb0 O11 1.943430 1_655
Nb0 O10 1.955852 1_665
Nb0 O45 2.059392 1_555
Nb0 O46 2.065269 1_565
Nb0 O47 2.073897 1_665
Nb1 O31 1.960194 1_555
Nb1 O30 1.963096 1_555
Nb1 O66 1.988131 1_555
Nb1 O32 2.024216 1_555
Nb1 O67 2.025193 1_555
Nb1 O68 2.044652 1_555
Nb2 O35 1.931418 1_555
Nb2 O33 1.939024 1_555
Nb2 O34 1.943779 1_555
Nb2 O71 2.072431 1_555
Nb2 O69 2.076478 1_555
Nb2 O70 2.085564 1_555
O0 Si0 1.647299 1_555
O0 Ti0 1.903478 1_455
O1 Si1 1.639027 1_555
O1 Ti0 1.884485 1_565
O2 Si2 1.642597 1_555
O2 Ti0 1.889294 1_555
O3 Si3 1.637188 1_555
O3 Ti1 1.880601 1_555
O4 Si4 1.633678 1_555
O4 Ti1 1.957784 1_665
O5 Si5 1.633351 1_555
O5 Ti1 1.956923 1_655
O6 Si5 1.645746 1_565
O6 Ti2 1.916535 1_655
O7 Si3 1.644882 1_555
O7 Ti2 1.920635 1_545
O8 Si4 1.647875 1_455
O8 Ti2 1.918511 1_555
O9 Si1 1.657997 1_555
O10 Si2 1.665140 1_455
O11 Si0 1.661835 1_565
O12 Si6 1.654321 1_555
O12 Ti3 1.897987 1_555
O13 Si7 1.653424 1_555
O13 Ti3 1.904315 1_555
O14 Si8 1.653863 1_555
O14 Ti3 1.904179 1_555
O15 Si9 1.635583 1_555
O15 Ti4 1.897495 1_555
O16 Si10 1.637126 1_555
O16 Ti4 1.903849 1_555
O17 Si11 1.631445 1_555
O17 Ti4 2.000968 1_555
O18 Si11 1.646942 1_555
O18 Ti5 1.864672 1_554
O19 Si9 1.639720 1_555
O19 Ti5 1.941073 1_554
O20 Si10 1.642258 1_555
O20 Ti5 1.945142 1_554
O21 Si7 1.645440 1_555
O21 Ti6 1.915394 1_555
O22 Si8 1.645882 1_555
O22 Ti6 1.915560 1_555
O23 Si6 1.645168 1_555
O23 Ti6 1.922516 1_555
O24 Si12 1.640932 1_555
O24 Ti7 1.910337 1_556
O25 Si13 1.636732 1_555
O25 Ti7 1.896195 1_556
O26 Si14 1.645064 1_555
O26 Ti7 1.924984 1_556
O27 Si15 1.653064 1_555
O27 Ti8 1.900182 1_555
O28 Si16 1.656257 1_555
O28 Ti8 1.896733 1_555
O29 Si17 1.655405 1_555
O29 Ti8 1.900649 1_555
O30 Si17 1.645462 1_555
O31 Si15 1.646213 1_555
O32 Si16 1.641752 1_555
O33 Si13 1.676006 1_555
O34 Si14 1.684505 1_555
O35 Si12 1.673777 1_555
O36 Si17 1.631597 1_555
O36 Ti0 2.089173 1_465
O37 Si15 1.631816 1_555
O37 Ti0 2.073071 1_565
O38 Si16 1.634614 1_555
O38 Ti0 2.088200 1_455
O39 Si13 1.626810 1_555
O39 Ti1 1.992691 1_555
O40 Si14 1.624746 1_555
O40 Ti1 2.007575 1_565
O41 Si12 1.635513 1_555
O41 Ti1 2.074702 1_665
O42 Si6 1.639801 1_555
O42 Ti2 2.045985 1_645
O43 Si7 1.640614 1_555
O43 Ti2 2.037406 1_545
O44 Si8 1.640940 1_555
O44 Ti2 2.040119 1_655
O45 Si9 1.658300 1_555
O46 Si10 1.659380 1_555
O47 Si11 1.658013 1_555
O48 Si5 1.634909 1_555
O48 Ti3 2.066869 1_555
O49 Si3 1.631564 1_555
O49 Ti3 2.070105 1_555
O50 Si4 1.636085 1_555
O50 Ti3 2.062824 1_555
O51 Si1 1.621372 1_555
O51 Ti4 2.037605 1_555
O52 Si2 1.616732 1_555
O52 Ti4 1.959101 1_555
O53 Si0 1.621497 1_555
O53 Ti4 2.048002 1_555
O54 Si12 1.622529 1_555
O54 Ti5 2.009822 1_555
O55 Si13 1.629984 1_655
O55 Ti5 2.095482 1_555
O56 Si14 1.621165 1_545
O56 Ti5 2.023394 1_555
O57 Si15 1.633753 1_545
O57 Ti6 2.039248 1_555
O58 Si16 1.638397 1_555
O58 Ti6 2.032282 1_555
O59 Si17 1.634597 1_655
O59 Ti6 2.033467 1_555
O60 Si11 1.637929 1_555
O60 Ti7 2.046407 1_555
O61 Si9 1.635734 1_455
O61 Ti7 2.054171 1_555
O62 Si10 1.636679 1_565
O62 Ti7 2.064912 1_555
O63 Si7 1.636358 1_565
O63 Ti8 2.076509 1_555
O64 Si8 1.636551 1_555
O64 Ti8 2.080717 1_555
O65 Si6 1.637467 1_455
O65 Ti8 2.070352 1_555
O66 Si0 1.627988 1_565
O67 Si1 1.646041 1_555
O68 Si2 1.641925 1_455
O69 Si3 1.654308 1_555
O70 Si4 1.658587 1_455
O71 Si5 1.658869 1_565
