# generated using pymatgen
data_Sr2MnGaO5
_symmetry_space_group_name_H-M   'P 1'
_cell_length_a   5.44313956
_cell_length_b   5.61414198
_cell_length_c   16.34110843
_cell_angle_alpha   89.99714111
_cell_angle_beta   90.00061247
_cell_angle_gamma   90.00124069
_symmetry_Int_Tables_number   1
_chemical_formula_structural   Sr2MnGaO5
_chemical_formula_sum   'Sr8 Mn4 Ga4 O20'
_cell_volume   499.36071379
_cell_formula_units_Z   4
loop_
 _symmetry_equiv_pos_site_id
 _symmetry_equiv_pos_as_xyz
  1  'x, y, z'
loop_
 _atom_site_type_symbol
 _atom_site_label
 _atom_site_symmetry_multiplicity
 _atom_site_fract_x
 _atom_site_fract_y
 _atom_site_fract_z
 _atom_site_occupancy
  Sr  Sr0  1  0.99888500  0.48382500  0.11254200  1
  Sr  Sr1  1  0.49887200  0.98384100  0.61255300  1
  Sr  Sr2  1  0.49887000  0.01617500  0.11254700  1
  Sr  Sr3  1  0.99883300  0.51618500  0.61255700  1
  Sr  Sr4  1  0.49886800  0.01621400  0.38744800  1
  Sr  Sr5  1  0.99888400  0.51617800  0.88745700  1
  Sr  Sr6  1  0.99882000  0.48379800  0.38744500  1
  Sr  Sr7  1  0.49886500  0.98382100  0.88745500  1
  Mn  Mn0  1  0.49539200  0.49982900  0.50000700  1
  Mn  Mn1  1  0.49506400  0.50003600  0.00000300  1
  Mn  Mn2  1  0.99536300  0.99991900  0.99999300  1
  Mn  Mn3  1  0.99498500  0.00012700  0.50000800  1
  Ga  Ga0  1  0.03320300  0.93173200  0.24999900  1
  Ga  Ga1  1  0.53320500  0.43174800  0.75000200  1
  Ga  Ga2  1  0.53321000  0.56824800  0.24999400  1
  Ga  Ga3  1  0.03320500  0.06824600  0.75000000  1
  O  O0  1  0.37961800  0.87286900  0.24999300  1
  O  O1  1  0.87961600  0.37286600  0.75000600  1
  O  O2  1  0.87962200  0.62711700  0.24999200  1
  O  O3  1  0.37962000  0.12712600  0.75000700  1
  O  O4  1  0.97412100  0.04956500  0.35411300  1
  O  O5  1  0.47411300  0.54957700  0.85411700  1
  O  O6  1  0.47412600  0.45042900  0.14588400  1
  O  O7  1  0.97414300  0.95043600  0.64588100  1
  O  O8  1  0.47412900  0.45043500  0.35411800  1
  O  O9  1  0.97413300  0.95042100  0.85411800  1
  O  O10  1  0.97412600  0.04956700  0.14587900  1
  O  O11  1  0.47413200  0.54957100  0.64588100  1
  O  O12  1  0.24653400  0.75215400  0.00626800  1
  O  O13  1  0.74648500  0.25217800  0.50625600  1
  O  O14  1  0.74646900  0.74788500  0.49373700  1
  O  O15  1  0.24649100  0.24788500  0.99373600  1
  O  O16  1  0.24647400  0.75215200  0.49373200  1
  O  O17  1  0.74651200  0.25212400  0.99372900  1
  O  O18  1  0.74653600  0.74785300  0.00627500  1
  O  O19  1  0.24647500  0.24787100  0.50626800  1
loop_
_geom_bond_atom_site_label_1
_geom_bond_atom_site_label_2
_geom_bond_distance
_geom_bond_site_symmetry_2
Mn0 O13 1.952312 1_555
Mn0 O14 1.953848 1_555
Mn0 O19 1.961374 1_555
Mn0 O16 1.962909 1_555
Mn0 O11 2.402848 1_555
Mn0 O8 2.402863 1_555
Mn1 O18 1.954405 1_555
Mn1 O17 1.954739 1_554
Mn1 O12 1.960621 1_555
Mn1 O15 1.960874 1_554
Mn1 O6 2.402762 1_555
Mn1 O5 2.402802 1_554
Mn2 O12 1.953087 1_656
Mn2 O15 1.953671 1_665
Mn2 O18 1.961491 1_556
Mn2 O17 1.962170 1_565
Mn2 O9 2.402695 1_555
Mn2 O10 2.402976 1_566
Mn3 O19 1.954172 1_655
Mn3 O16 1.955148 1_645
Mn3 O13 1.960223 1_555
Mn3 O14 1.961033 1_545
Mn3 O7 2.402662 1_545
Mn3 O4 2.402858 1_555
Ga0 O4 1.853572 1_465
Ga0 O10 1.853594 1_465
Ga0 O2 1.903521 1_455
Ga0 O0 1.914332 1_555
Ga1 O11 1.853582 1_555
Ga1 O5 1.853589 1_555
Ga1 O3 1.903566 1_555
Ga1 O1 1.914329 1_555
Ga2 O6 1.853475 1_555
Ga2 O8 1.853615 1_555
Ga2 O0 1.903610 1_555
Ga2 O2 1.914307 1_555
Ga3 O9 1.853541 1_445
Ga3 O7 1.853571 1_445
Ga3 O1 1.903598 1_455
Ga3 O3 1.914334 1_555
O0 Sr2 2.472460 1_565
O0 Sr4 2.472722 1_565
O1 Sr3 2.472478 1_555
O1 Sr5 2.472628 1_555
O2 Sr6 2.472507 1_555
O2 Sr0 2.472591 1_555
O3 Sr7 2.472474 1_545
O3 Sr1 2.472622 1_545
O4 Sr6 2.501592 1_555
O4 Sr4 2.650222 1_555
O4 Sr4 2.913770 1_655
O5 Sr7 2.501689 1_555
O5 Sr5 2.650130 1_455
O5 Sr5 2.913930 1_555
O6 Sr2 2.501744 1_555
O6 Sr0 2.650196 1_455
O6 Sr0 2.913875 1_555
O7 Sr3 2.501665 1_555
O7 Sr1 2.650312 1_555
O7 Sr1 2.913675 1_655
O8 Sr4 2.501483 1_555
O8 Sr6 2.650509 1_455
O8 Sr6 2.913446 1_555
O9 Sr5 2.501639 1_555
O9 Sr7 2.650340 1_555
O9 Sr7 2.913709 1_655
O10 Sr0 2.501711 1_555
O10 Sr2 2.650237 1_555
O10 Sr2 2.913774 1_655
O11 Sr1 2.501740 1_555
O11 Sr3 2.650436 1_455
O11 Sr3 2.913518 1_555
O12 Sr2 2.664559 1_565
O12 Sr0 2.664963 1_455
O12 Sr5 2.709566 1_454
O12 Sr7 2.710592 1_554
O13 Sr3 2.664783 1_555
O13 Sr1 2.665134 1_545
O13 Sr4 2.709409 1_555
O13 Sr6 2.710453 1_555
O14 Sr6 2.664998 1_555
O14 Sr4 2.665005 1_565
O14 Sr1 2.709475 1_555
O14 Sr3 2.710861 1_555
O15 Sr5 2.664800 1_455
O15 Sr7 2.664873 1_545
O15 Sr0 2.709339 1_456
O15 Sr2 2.710824 1_556
O16 Sr4 2.664826 1_565
O16 Sr6 2.665273 1_455
O16 Sr3 2.709607 1_455
O16 Sr1 2.711001 1_555
O17 Sr5 2.664611 1_555
O17 Sr7 2.664954 1_545
O17 Sr2 2.709478 1_556
O17 Sr0 2.710871 1_556
O18 Sr0 2.664426 1_555
O18 Sr2 2.665097 1_565
O18 Sr7 2.709640 1_554
O18 Sr5 2.710840 1_554
O19 Sr1 2.664759 1_545
O19 Sr3 2.665187 1_455
O19 Sr6 2.709519 1_455
O19 Sr4 2.710939 1_555
