# generated using pymatgen
data_V2CdP2O9
_symmetry_space_group_name_H-M   'P 1'
_cell_length_a   6.40291400
_cell_length_b   7.45259700
_cell_length_c   14.56048300
_cell_angle_alpha   90.00000000
_cell_angle_beta   90.00000000
_cell_angle_gamma   90.00000000
_symmetry_Int_Tables_number   1
_chemical_formula_structural   V2CdP2O9
_chemical_formula_sum   'V8 Cd4 P8 O36'
_cell_volume   694.80204440
_cell_formula_units_Z   4
loop_
 _symmetry_equiv_pos_site_id
 _symmetry_equiv_pos_as_xyz
  1  'x, y, z'
loop_
 _atom_site_type_symbol
 _atom_site_label
 _atom_site_symmetry_multiplicity
 _atom_site_fract_x
 _atom_site_fract_y
 _atom_site_fract_z
 _atom_site_occupancy
  V  V0  1  0.50000000  0.50000000  0.50000000  1
  V  V1  1  0.00000000  0.50000000  0.50000000  1
  V  V2  1  0.25000000  0.14970400  0.37849700  1
  V  V3  1  0.00000000  0.00000000  0.00000000  1
  V  V4  1  0.25000000  0.35029600  0.87849700  1
  V  V5  1  0.75000000  0.64970400  0.12150300  1
  V  V6  1  0.75000000  0.85029600  0.62150300  1
  V  V7  1  0.50000000  0.00000000  0.00000000  1
  Cd  Cd0  1  0.75000000  0.36724000  0.72285200  1
  Cd  Cd1  1  0.25000000  0.63276000  0.27714800  1
  Cd  Cd2  1  0.25000000  0.86724000  0.77714800  1
  Cd  Cd3  1  0.75000000  0.13276000  0.22285200  1
  P  P0  1  0.75000000  0.36717200  0.93312700  1
  P  P1  1  0.25000000  0.63282800  0.06687300  1
  P  P2  1  0.25000000  0.86717200  0.56687300  1
  P  P3  1  0.75000000  0.13282800  0.43312700  1
  P  P4  1  0.25000000  0.39358000  0.69385200  1
  P  P5  1  0.75000000  0.60642000  0.30614800  1
  P  P6  1  0.75000000  0.89358000  0.80614800  1
  P  P7  1  0.25000000  0.10642000  0.19385200  1
  O  O0  1  0.54900400  0.59947300  0.36700400  1
  O  O1  1  0.04900400  0.40052700  0.63299600  1
  O  O2  1  0.45099600  0.09947300  0.13299600  1
  O  O3  1  0.95099600  0.90052700  0.86700400  1
  O  O4  1  0.45099600  0.40052700  0.63299600  1
  O  O5  1  0.95099600  0.59947300  0.36700400  1
  O  O6  1  0.54900400  0.90052700  0.86700400  1
  O  O7  1  0.04900400  0.09947300  0.13299600  1
  O  O8  1  0.75000000  0.32008600  0.48114000  1
  O  O9  1  0.25000000  0.67991400  0.51886000  1
  O  O10  1  0.25000000  0.82008600  0.01886000  1
  O  O11  1  0.75000000  0.17991400  0.98114000  1
  O  O12  1  0.25000000  0.12841000  0.95200800  1
  O  O13  1  0.75000000  0.87159000  0.04799200  1
  O  O14  1  0.75000000  0.62841000  0.54799200  1
  O  O15  1  0.25000000  0.37159000  0.45200800  1
  O  O16  1  0.25000000  0.21968000  0.75304500  1
  O  O17  1  0.75000000  0.78032000  0.24695500  1
  O  O18  1  0.75000000  0.71968000  0.74695500  1
  O  O19  1  0.25000000  0.28032000  0.25304500  1
  O  O20  1  0.93926600  0.12577600  0.36577900  1
  O  O21  1  0.43926600  0.87422400  0.63422100  1
  O  O22  1  0.06073400  0.62577600  0.13422100  1
  O  O23  1  0.56073400  0.37422400  0.86577900  1
  O  O24  1  0.06073400  0.87422400  0.63422100  1
  O  O25  1  0.56073400  0.12577600  0.36577900  1
  O  O26  1  0.93926600  0.37422400  0.86577900  1
  O  O27  1  0.43926600  0.62577600  0.13422100  1
  O  O28  1  0.25000000  0.48409300  0.99756300  1
  O  O29  1  0.75000000  0.04714400  0.73313600  1
  O  O30  1  0.75000000  0.45285600  0.23313600  1
  O  O31  1  0.25000000  0.54714400  0.76686400  1
  O  O32  1  0.25000000  0.01590700  0.49756300  1
  O  O33  1  0.75000000  0.98409300  0.50243700  1
  O  O34  1  0.75000000  0.51590700  0.00243700  1
  O  O35  1  0.25000000  0.95285600  0.26686400  1
loop_
_geom_bond_atom_site_label_1
_geom_bond_atom_site_label_2
_geom_bond_distance
_geom_bond_site_symmetry_2
Cd0 O1 2.332083 1_655
Cd0 O4 2.332083 1_555
Cd0 O29 2.390241 1_555
Cd0 O26 2.408779 1_555
Cd0 O23 2.408779 1_555
Cd0 O18 2.649936 1_555
Cd1 O0 2.332083 1_555
Cd1 O5 2.332083 1_455
Cd1 O35 2.390241 1_555
Cd1 O27 2.408779 1_555
Cd1 O22 2.408779 1_555
Cd1 O19 2.649936 1_555
Cd2 O6 2.332083 1_555
Cd2 O3 2.332083 1_455
Cd2 O31 2.390241 1_555
Cd2 O21 2.408779 1_555
Cd2 O24 2.408779 1_555
Cd2 O16 2.649936 1_565
Cd3 O7 2.332083 1_655
Cd3 O2 2.332083 1_555
Cd3 O30 2.390241 1_555
Cd3 O20 2.408779 1_555
Cd3 O25 2.408779 1_555
Cd3 O17 2.649936 1_545
O0 P5 1.563364 1_555
O0 V0 2.097141 1_555
O1 P4 1.563364 1_555
O1 V1 2.097141 1_555
O2 P7 1.563364 1_555
O2 V7 2.097141 1_555
O3 P6 1.563364 1_555
O3 V3 2.097141 1_666
O4 P4 1.563364 1_555
O4 V0 2.097141 1_555
O5 P5 1.563364 1_555
O5 V1 2.097141 1_655
O6 P6 1.563364 1_555
O6 V7 2.097141 1_566
O7 P7 1.563364 1_555
O7 V3 2.097141 1_555
O8 P3 1.560869 1_555
O8 V1 2.106077 1_655
O8 V0 2.106077 1_555
O9 P2 1.560869 1_555
O9 V1 2.106077 1_555
O9 V0 2.106077 1_555
O10 P1 1.560869 1_555
O10 V7 2.106077 1_565
O10 V3 2.106077 1_565
O11 P0 1.560869 1_555
O11 V3 2.106077 1_656
O11 V7 2.106077 1_556
O12 V4 1.969808 1_555
O12 V7 1.991597 1_556
O12 V3 1.991597 1_556
O13 V5 1.969808 1_555
O13 V7 1.991597 1_565
O13 V3 1.991597 1_665
O14 V6 1.969808 1_555
O14 V1 1.991597 1_655
O14 V0 1.991597 1_555
O15 V2 1.969808 1_555
O15 V1 1.991597 1_555
O15 V0 1.991597 1_555
O16 P4 1.556428 1_555
O16 V4 2.069827 1_555
O17 P5 1.556428 1_555
O17 V5 2.069827 1_555
O18 P6 1.556428 1_555
O18 V6 2.069827 1_555
O19 P7 1.556428 1_555
O19 V2 2.069827 1_555
O20 P3 1.559797 1_555
O20 V2 2.006144 1_655
O21 P2 1.559797 1_555
O21 V6 2.006144 1_555
O22 P1 1.559797 1_555
O22 V5 2.006144 1_455
O23 P0 1.559797 1_555
O23 V4 2.006144 1_555
O24 P2 1.559797 1_555
O24 V6 2.006144 1_455
O25 P3 1.559797 1_555
O25 V2 2.006144 1_555
O26 P0 1.559797 1_555
O26 V4 2.006144 1_655
O27 P1 1.559797 1_555
O27 V5 2.006144 1_555
O28 P1 1.499049 1_556
O28 V4 1.999963 1_555
O29 P6 1.562027 1_545
O29 V6 2.189566 1_545
O30 P5 1.562027 1_555
O30 V5 2.189566 1_555
O31 P4 1.562027 1_555
O31 V4 2.189566 1_555
O32 P2 1.499049 1_545
O32 V2 1.999963 1_555
O33 P3 1.499049 1_565
O33 V6 1.999963 1_555
O34 P0 1.499049 1_554
O34 V5 1.999963 1_555
O35 P7 1.562027 1_565
O35 V2 2.189566 1_565
