# generated using pymatgen
data_Co3(BO3)2
_symmetry_space_group_name_H-M   'P 1'
_cell_length_a   4.51212295
_cell_length_b   5.46829357
_cell_length_c   8.38816377
_cell_angle_alpha   90.00007618
_cell_angle_beta   89.99968421
_cell_angle_gamma   89.99990464
_symmetry_Int_Tables_number   1
_chemical_formula_structural   Co3(BO3)2
_chemical_formula_sum   'Co6 B4 O12'
_cell_volume   206.96630592
_cell_formula_units_Z   2
loop_
 _symmetry_equiv_pos_site_id
 _symmetry_equiv_pos_as_xyz
  1  'x, y, z'
loop_
 _atom_site_type_symbol
 _atom_site_label
 _atom_site_symmetry_multiplicity
 _atom_site_fract_x
 _atom_site_fract_y
 _atom_site_fract_z
 _atom_site_occupancy
  Co  Co0  1  0.00001211  0.00001597  0.31714348  1
  Co  Co1  1  0.00002583  0.50002981  0.50001987  1
  Co  Co2  1  0.50000808  0.49998481  0.81713943  1
  Co  Co3  1  0.50000182  0.49998611  0.18280151  1
  Co  Co4  1  0.00000135  0.00001491  0.68280390  1
  Co  Co5  1  0.50002728  -0.00003009  0.00003198  1
  B  B0  1  0.46013323  0.24707204  0.50000275  1
  B  B1  1  0.03986346  0.74709609  0.00000803  1
  B  B2  1  0.96013217  0.25292032  0.00000362  1
  B  B3  1  0.53986205  0.75291205  0.50000786  1
  O  O0  1  0.24565891  0.81950414  0.49995747  1
  O  O1  1  0.74566048  0.68049769  -0.00004420  1
  O  O2  1  0.80511667  0.20565302  0.13973861  1
  O  O3  1  0.25432502  0.31950344  0.99994983  1
  O  O4  1  0.30504205  0.29450310  0.36031013  1
  O  O5  1  0.69494800  0.70547003  0.36031553  1
  O  O6  1  0.30511380  0.29434434  0.63973679  1
  O  O7  1  0.69487549  0.70563926  0.63974302  1
  O  O8  1  0.75432748  0.18049297  0.49995160  1
  O  O9  1  0.19495458  0.79453615  0.86032062  1
  O  O10  1  0.19487324  0.79436377  0.13974409  1
  O  O11  1  0.80503591  0.20549008  0.86031507  1
loop_
_geom_bond_atom_site_label_1
_geom_bond_atom_site_label_2
_geom_bond_distance
_geom_bond_site_symmetry_2
Co0 O10 2.062036 1_545
Co0 O2 2.062100 1_455
Co0 O8 2.134067 1_455
Co0 O0 2.134112 1_545
Co0 O4 2.149096 1_555
Co0 O5 2.149441 1_445
Co1 O0 2.068896 1_555
Co1 O8 2.069343 1_455
Co1 O5 2.128429 1_455
Co1 O4 2.128514 1_555
Co1 O7 2.129206 1_455
Co1 O6 2.129225 1_555
Co2 O7 2.062041 1_555
Co2 O6 2.062094 1_555
Co2 O3 2.134092 1_555
Co2 O1 2.134142 1_556
Co2 O11 2.149131 1_555
Co2 O9 2.149442 1_555
Co3 O4 2.062387 1_555
Co3 O5 2.062401 1_555
Co3 O1 2.134324 1_555
Co3 O3 2.134336 1_554
Co3 O2 2.148558 1_555
Co3 O10 2.148775 1_555
Co4 O11 2.062386 1_455
Co4 O9 2.062416 1_545
Co4 O0 2.134320 1_545
Co4 O8 2.134321 1_455
Co4 O6 2.148546 1_555
Co4 O7 2.148767 1_445
Co5 O1 2.068884 1_545
Co5 O3 2.069334 1_554
Co5 O9 2.128428 1_544
Co5 O11 2.128510 1_554
Co5 O10 2.129160 1_545
Co5 O2 2.129175 1_555
B0 O8 1.376462 1_555
B0 O6 1.389213 1_555
B0 O4 1.389251 1_555
B1 O1 1.376529 1_455
B1 O10 1.389207 1_555
B1 O9 1.389217 1_554
B2 O3 1.376463 1_654
B2 O2 1.389206 1_555
B2 O11 1.389233 1_554
B3 O0 1.376519 1_555
B3 O7 1.389214 1_555
B3 O5 1.389242 1_555
