# generated using pymatgen
data_La4MgTi4O10
_symmetry_space_group_name_H-M   'P 1'
_cell_length_a   5.53197187
_cell_length_b   5.72101853
_cell_length_c   9.31343299
_cell_angle_alpha   109.06579744
_cell_angle_beta   107.21082048
_cell_angle_gamma   90.03878588
_symmetry_Int_Tables_number   1
_chemical_formula_structural   La4MgTi4O10
_chemical_formula_sum   'La4 Mg1 Ti4 O10'
_cell_volume   264.56181521
_cell_formula_units_Z   1
loop_
 _symmetry_equiv_pos_site_id
 _symmetry_equiv_pos_as_xyz
  1  'x, y, z'
loop_
 _atom_site_type_symbol
 _atom_site_label
 _atom_site_symmetry_multiplicity
 _atom_site_fract_x
 _atom_site_fract_y
 _atom_site_fract_z
 _atom_site_occupancy
  La  La0  1  0.60710147  0.13529999  0.23499911  1
  La  La1  1  0.37589527  0.86577849  0.76647375  1
  La  La2  1  0.15928747  0.66992627  0.34036345  1
  La  La3  1  0.82206968  0.33186184  0.66420647  1
  Mg  Mg0  1  0.99249963  0.50069659  0.00288621  1
  Ti  Ti0  1  0.99174307  0.00091025  0.00160211  1
  Ti  Ti1  1  0.49064781  0.50040458  0.99982729  1
  Ti  Ti2  1  0.23894098  0.27859536  0.49683562  1
  Ti  Ti3  1  0.74165454  0.72364678  0.50248052  1
  O  O0  1  0.22690927  0.23456709  0.97129513  1
  O  O1  1  0.25404732  0.76310591  0.02483995  1
  O  O2  1  0.72627684  0.23545787  0.97199524  1
  O  O3  1  0.75348457  0.76375272  0.02595761  1
  O  O4  1  0.12040158  0.18487765  0.25521684  1
  O  O5  1  0.86096754  0.80962063  0.74328072  1
  O  O6  1  0.61684807  0.56872885  0.25466857  1
  O  O7  1  0.36227818  0.42951851  0.74326816  1
  O  O8  1  0.98517211  0.00309671  0.49801987  1
  O  O9  1  0.48987058  0.00015491  0.50178335  1
loop_
_geom_bond_atom_site_label_1
_geom_bond_atom_site_label_2
_geom_bond_distance
_geom_bond_site_symmetry_2
La0 O6 2.425358 1_555
La0 O1 2.681220 1_545
La0 O3 2.682560 1_545
La0 O4 2.762450 1_555
La0 O4 2.797610 1_655
La0 O0 2.938357 1_554
La0 O2 2.938531 1_554
La0 O8 3.021203 1_555
La0 O9 3.065929 1_555
La1 O7 2.432975 1_555
La1 O2 2.654799 1_565
La1 O0 2.659512 1_565
La1 O5 2.765753 1_555
La1 O5 2.802410 1_455
La1 O1 2.910715 1_556
La1 O3 2.912064 1_556
La1 O9 3.036925 1_565
La1 O8 3.102854 1_465
La2 O9 2.384655 1_565
La2 O8 2.393291 1_465
La2 O4 2.614612 1_555
La2 O6 2.873191 1_455
La2 O6 2.876599 1_555
La3 O8 2.382061 1_555
La3 O9 2.396146 1_555
La3 O5 2.578717 1_555
La3 O7 2.857534 1_555
La3 O7 2.865617 1_655
Mg0 O1 2.002612 1_655
Mg0 O2 2.003836 1_554
Mg0 O3 2.004715 1_555
Mg0 O0 2.005498 1_654
O0 Ti1 2.003954 1_555
O0 Ti0 2.005109 1_456
O1 Ti1 1.995128 1_554
O1 Ti0 2.003127 1_465
O2 Ti1 2.002440 1_555
O2 Ti0 2.009478 1_556
O3 Ti1 1.997838 1_554
O3 Ti0 2.001277 1_565
O4 Ti2 2.029624 1_555
O4 Ti0 2.138564 1_455
O5 Ti3 2.027339 1_555
O5 Ti0 2.181289 1_566
O6 Ti3 2.075761 1_555
O6 Ti1 2.164809 1_554
O7 Ti2 2.063135 1_555
O7 Ti1 2.177294 1_555
O8 Ti3 2.108566 1_545
O8 Ti2 2.114855 1_655
O9 Ti3 2.108763 1_545
O9 Ti2 2.116523 1_555
