# generated using pymatgen
data_MgFe6(OF)6
_symmetry_space_group_name_H-M   'P 1'
_cell_length_a   5.21292293
_cell_length_b   14.80380568
_cell_length_c   3.05057400
_cell_angle_alpha   90.00000000
_cell_angle_beta   90.00000000
_cell_angle_gamma   90.51034617
_symmetry_Int_Tables_number   1
_chemical_formula_structural   MgFe6(OF)6
_chemical_formula_sum   'Mg1 Fe6 O6 F6'
_cell_volume   235.40680649
_cell_formula_units_Z   1
loop_
 _symmetry_equiv_pos_site_id
 _symmetry_equiv_pos_as_xyz
  1  'x, y, z'
loop_
 _atom_site_type_symbol
 _atom_site_label
 _atom_site_symmetry_multiplicity
 _atom_site_fract_x
 _atom_site_fract_y
 _atom_site_fract_z
 _atom_site_occupancy
  Mg  Mg0  1  0.93679600  0.83827200  0.50000000  1
  Fe  Fe0  1  0.10444400  0.02908300  0.00000000  1
  Fe  Fe1  1  0.03720400  0.34140500  0.00000000  1
  Fe  Fe2  1  0.99756000  0.65253700  0.00000000  1
  Fe  Fe3  1  0.59857900  0.15098200  0.50000000  1
  Fe  Fe4  1  0.41738700  0.50444200  0.50000000  1
  Fe  Fe5  1  0.41047200  0.82512300  0.50000000  1
  O  O0  1  0.16774600  0.59062000  0.50000000  1
  O  O1  1  0.18863600  0.94386700  0.50000000  1
  O  O2  1  0.40004000  0.11088900  0.00000000  1
  O  O3  1  0.15798000  0.78122400  0.00000000  1
  O  O4  1  0.30621600  0.42613900  0.00000000  1
  O  O5  1  0.89345200  0.07913300  0.50000000  1
  F  F0  1  0.18044200  0.26964000  0.50000000  1
  F  F1  1  0.73412500  0.24140200  0.00000000  1
  F  F2  1  0.65515300  0.55394300  0.00000000  1
  F  F3  1  0.69653400  0.88196700  0.00000000  1
  F  F4  1  0.83517000  0.39313000  0.50000000  1
  F  F5  1  0.71262100  0.72879200  0.50000000  1
loop_
_geom_bond_atom_site_label_1
_geom_bond_atom_site_label_2
_geom_bond_distance
_geom_bond_site_symmetry_2
Mg0 O1 2.032379 1_655
Mg0 O3 2.094402 1_656
Mg0 O3 2.094402 1_655
Fe0 O2 1.951360 1_555
Fe0 O5 2.024782 1_454
Fe0 O5 2.024782 1_455
Fe0 O1 2.029882 1_545
Fe0 O1 2.029882 1_544
Fe1 O4 1.873153 1_555
Fe2 O0 1.992039 1_655
Fe2 O0 1.992039 1_654
Fe2 O3 2.073690 1_655
Fe3 O5 1.877041 1_555
Fe3 O2 1.933648 1_555
Fe3 O2 1.933648 1_556
Fe4 O0 1.830487 1_555
Fe4 O4 1.998521 1_555
Fe4 O4 1.998521 1_556
Fe5 O1 2.112721 1_555
Fe5 O3 2.113300 1_556
Fe5 O3 2.113300 1_555
F0 Fe1 2.006704 1_556
F0 Fe1 2.006704 1_555
F1 Fe3 2.144916 1_555
F1 Fe3 2.144916 1_554
F1 Fe1 2.155496 1_655
F2 Fe4 2.093698 1_554
F2 Fe4 2.093698 1_555
F2 Fe2 2.295635 1_555
F3 Mg0 2.080391 1_555
F3 Mg0 2.080391 1_554
F3 Fe5 2.288234 1_555
F3 Fe5 2.288234 1_554
F4 Fe1 2.009082 1_655
F4 Fe1 2.009082 1_656
F5 Mg0 1.989633 1_555
F5 Fe5 2.134140 1_555
F5 Fe2 2.415991 1_556
F5 Fe2 2.415991 1_555
