# generated using pymatgen
data_MgCu2WS4
_symmetry_space_group_name_H-M   'P 1'
_cell_length_a   5.65183300
_cell_length_b   5.44937300
_cell_length_c   5.44937300
_cell_angle_alpha   90.00000000
_cell_angle_beta   90.00000000
_cell_angle_gamma   90.00000000
_symmetry_Int_Tables_number   1
_chemical_formula_structural   MgCu2WS4
_chemical_formula_sum   'Mg1 Cu2 W1 S4'
_cell_volume   167.83494558
_cell_formula_units_Z   1
loop_
 _symmetry_equiv_pos_site_id
 _symmetry_equiv_pos_as_xyz
  1  'x, y, z'
loop_
 _atom_site_type_symbol
 _atom_site_label
 _atom_site_symmetry_multiplicity
 _atom_site_fract_x
 _atom_site_fract_y
 _atom_site_fract_z
 _atom_site_occupancy
  Mg  Mg0  1  0.50000000  0.50000000  0.50000000  1
  Cu  Cu0  1  0.00000000  0.50000000  0.00000000  1
  Cu  Cu1  1  0.00000000  0.00000000  0.50000000  1
  W  W0  1  0.00000000  0.00000000  0.00000000  1
  S  S0  1  0.23913700  0.75716000  0.75716000  1
  S  S1  1  0.76086300  0.75716000  0.24284000  1
  S  S2  1  0.76086300  0.24284000  0.75716000  1
  S  S3  1  0.23913700  0.24284000  0.24284000  1
loop_
_geom_bond_atom_site_label_1
_geom_bond_atom_site_label_2
_geom_bond_distance
_geom_bond_site_symmetry_2
Mg0 S3 2.470090 1_555
Mg0 S2 2.470090 1_555
Mg0 S1 2.470090 1_555
Mg0 S0 2.470090 1_555
Cu0 S2 2.354087 1_454
Cu0 S3 2.354087 1_555
Cu0 S0 2.354087 1_554
Cu0 S1 2.354087 1_455
Cu0 W0 2.724686 1_555
Cu0 W0 2.724686 1_565
Cu1 S1 2.354087 1_445
Cu1 S3 2.354087 1_555
Cu1 S0 2.354087 1_545
Cu1 S2 2.354087 1_455
Cu1 W0 2.724686 1_555
Cu1 W0 2.724686 1_556
S0 W0 2.308485 1_566
S1 W0 2.308485 1_665
S2 W0 2.308485 1_656
S3 W0 2.308485 1_555
