# generated using pymatgen
data_RbLi7Ge8
_symmetry_space_group_name_H-M   'P 1'
_cell_length_a   9.75152025
_cell_length_b   9.75152025
_cell_length_c   16.60010787
_cell_angle_alpha   90.00000000
_cell_angle_beta   90.00000000
_cell_angle_gamma   119.99999998
_symmetry_Int_Tables_number   1
_chemical_formula_structural   RbLi7Ge8
_chemical_formula_sum   'Rb4 Li28 Ge32'
_cell_volume   1367.05565472
_cell_formula_units_Z   4
loop_
 _symmetry_equiv_pos_site_id
 _symmetry_equiv_pos_as_xyz
  1  'x, y, z'
loop_
 _atom_site_type_symbol
 _atom_site_label
 _atom_site_symmetry_multiplicity
 _atom_site_fract_x
 _atom_site_fract_y
 _atom_site_fract_z
 _atom_site_occupancy
  Li  Li0  1  0.55990659  0.44009341  0.94388600  1
  Li  Li1  1  0.11981319  0.55990659  0.44388600  1
  Li  Li2  1  0.44009341  0.88018681  0.44388600  1
  Li  Li3  1  0.55990659  0.11981319  0.94388600  1
  Li  Li4  1  0.88018681  0.44009341  0.94388600  1
  Li  Li5  1  0.44009341  0.55990659  0.44388600  1
  Li  Li6  1  0.52211343  0.47788657  0.31018864  1
  Li  Li7  1  0.04422685  0.52211343  0.81018864  1
  Li  Li8  1  0.47788657  0.95577315  0.81018864  1
  Li  Li9  1  0.52211343  0.04422685  0.31018864  1
  Li  Li10  1  0.95577315  0.47788657  0.31018864  1
  Li  Li11  1  0.47788657  0.52211343  0.81018864  1
  Li  Li12  1  0.16087140  0.83912860  0.08405535  1
  Li  Li13  1  0.32174279  0.16087140  0.58405535  1
  Li  Li14  1  0.83912860  0.67825721  0.58405535  1
  Li  Li15  1  0.16087140  0.32174279  0.08405535  1
  Li  Li16  1  0.67825721  0.83912860  0.08405535  1
  Li  Li17  1  0.83912860  0.16087140  0.58405535  1
  Li  Li18  1  0.83392632  0.16607368  0.40003232  1
  Li  Li19  1  0.66785264  0.83392632  0.90003232  1
  Li  Li20  1  0.16607368  0.33214736  0.90003232  1
  Li  Li21  1  0.83392632  0.66785264  0.40003232  1
  Li  Li22  1  0.33214736  0.16607368  0.40003232  1
  Li  Li23  1  0.16607368  0.83392632  0.90003232  1
  Li  Li24  1  0.00000000  0.00000000  0.65345700  1
  Li  Li25  1  0.00000000  0.00000000  0.15345700  1
  Li  Li26  1  0.00000000  0.00000000  0.83457215  1
  Li  Li27  1  0.00000000  0.00000000  0.33457215  1
  Ge  Ge0  1  0.66666667  0.33333333  0.37716648  1
  Ge  Ge1  1  0.33333333  0.66666667  0.87716648  1
  Ge  Ge2  1  0.57850102  0.42149898  0.50696634  1
  Ge  Ge3  1  0.15700204  0.57850102  0.00696634  1
  Ge  Ge4  1  0.42149898  0.84299796  0.00696634  1
  Ge  Ge5  1  0.57850102  0.15700204  0.50696634  1
  Ge  Ge6  1  0.84299796  0.42149898  0.50696634  1
  Ge  Ge7  1  0.42149898  0.57850102  0.00696634  1
  Ge  Ge8  1  0.34815243  0.17407621  0.86772413  1
  Ge  Ge9  1  0.17407621  0.34815243  0.36772413  1
  Ge  Ge10  1  0.17407621  0.82592379  0.36772413  1
  Ge  Ge11  1  0.82592379  0.17407621  0.86772413  1
  Ge  Ge12  1  0.82592379  0.65184757  0.86772413  1
  Ge  Ge13  1  0.65184757  0.82592379  0.36772413  1
  Ge  Ge14  1  0.26261244  0.26557716  0.73511914  1
  Ge  Ge15  1  0.73442284  0.99703527  0.73511914  1
  Ge  Ge16  1  0.00296473  0.73738756  0.73511914  1
  Ge  Ge17  1  0.99703527  0.26261244  0.23511914  1
  Ge  Ge18  1  0.73738756  0.73442284  0.23511914  1
  Ge  Ge19  1  0.26557716  0.00296473  0.23511914  1
  Ge  Ge20  1  0.26261244  0.99703527  0.73511914  1
  Ge  Ge21  1  0.26557716  0.26261244  0.23511914  1
  Ge  Ge22  1  0.99703527  0.73442284  0.23511914  1
  Ge  Ge23  1  0.00296473  0.26557716  0.73511914  1
  Ge  Ge24  1  0.73442284  0.73738756  0.73511914  1
  Ge  Ge25  1  0.73738756  0.00296473  0.23511914  1
  Ge  Ge26  1  0.18361509  0.09180754  0.99628348  1
  Ge  Ge27  1  0.09180754  0.18361509  0.49628348  1
  Ge  Ge28  1  0.09180754  0.90819246  0.49628348  1
  Ge  Ge29  1  0.90819246  0.09180754  0.99628348  1
  Ge  Ge30  1  0.90819246  0.81638491  0.99628348  1
  Ge  Ge31  1  0.81638491  0.90819246  0.49628348  1
  Rb  Rb0  1  0.66666667  0.33333333  0.15213870  1
  Rb  Rb1  1  0.33333333  0.66666667  0.65213870  1
  Rb  Rb2  1  0.66666667  0.33333333  0.71459207  1
  Rb  Rb3  1  0.33333333  0.66666667  0.21459207  1
loop_
_geom_bond_atom_site_label_1
_geom_bond_atom_site_label_2
_geom_bond_distance
_geom_bond_site_symmetry_2
Li0 Rb0 3.899034 1_556
Li1 Rb1 3.899034 1_555
Li2 Rb1 3.899034 1_555
Li3 Rb0 3.899034 1_556
Li4 Rb0 3.899034 1_556
Li5 Rb1 3.899034 1_555
Li6 Rb3 3.561594 1_555
Li6 Rb0 3.583930 1_555
Li7 Rb2 3.561594 1_455
Li7 Rb1 3.583930 1_555
Li8 Rb2 3.561594 1_565
Li8 Rb1 3.583930 1_555
Li9 Rb3 3.561594 1_545
Li9 Rb0 3.583930 1_555
Li10 Rb3 3.561594 1_655
Li10 Rb0 3.583930 1_555
Li11 Rb2 3.561594 1_555
Li11 Rb1 3.583930 1_555
Li12 Rb3 3.630505 1_555
Li13 Rb2 3.630505 1_555
Li14 Rb2 3.630505 1_555
Li15 Rb3 3.630505 1_555
Li16 Rb3 3.630505 1_555
Li17 Rb2 3.630505 1_555
Li18 Li27 3.008132 1_655
Li19 Li26 3.008132 1_665
Li20 Li26 3.008132 1_555
Li21 Li27 3.008132 1_665
Li22 Li27 3.008132 1_555
Li23 Li26 3.008132 1_565
Li24 Li26 3.006531 1_555
Li25 Li27 3.006531 1_555
Ge0 Ge5 2.619199 1_555
Ge0 Ge6 2.619199 1_555
Ge0 Ge2 2.619199 1_555
Ge0 Li6 2.682764 1_555
Ge0 Li9 2.682764 1_555
Ge0 Li10 2.682764 1_555
Ge0 Li18 2.850423 1_555
Ge0 Li21 2.850423 1_555
Ge0 Li22 2.850423 1_555
Ge0 Rb0 3.735485 1_555
Ge1 Ge4 2.619199 1_556
Ge1 Ge3 2.619199 1_556
Ge1 Ge7 2.619199 1_556
Ge1 Li11 2.682764 1_555
Ge1 Li8 2.682764 1_555
Ge1 Li7 2.682764 1_555
Ge1 Li23 2.850423 1_555
Ge1 Li20 2.850423 1_555
Ge1 Li19 2.850423 1_555
Ge1 Rb1 3.735485 1_555
Ge2 Li5 2.561533 1_555
Ge2 Ge5 2.579247 1_555
Ge2 Ge6 2.579247 1_555
Ge2 Li13 2.828855 1_555
Ge2 Li14 2.828855 1_555
Ge2 Li22 3.023662 1_555
Ge2 Li21 3.023662 1_555
Ge2 Rb2 3.754547 1_555
Ge3 Li4 2.561533 1_454
Ge3 Ge7 2.579247 1_555
Ge3 Ge4 2.579247 1_555
Ge3 Li12 2.828855 1_555
Ge3 Li15 2.828855 1_555
Ge3 Li20 3.023662 1_554
Ge3 Li23 3.023662 1_554
Ge3 Rb3 3.754547 1_555
Ge4 Li3 2.561533 1_564
Ge4 Ge7 2.579247 1_555
Ge4 Li12 2.828855 1_555
Ge4 Li16 2.828855 1_555
Ge4 Li19 3.023662 1_554
Ge4 Li23 3.023662 1_554
Ge4 Rb3 3.754547 1_555
Ge5 Li2 2.561533 1_545
Ge5 Ge6 2.579247 1_555
Ge5 Li17 2.828855 1_555
Ge5 Li13 2.828855 1_555
Ge5 Li22 3.023662 1_555
Ge5 Li18 3.023662 1_555
Ge5 Rb2 3.754547 1_555
Ge6 Li1 2.561533 1_655
Ge6 Li17 2.828855 1_555
Ge6 Li14 2.828855 1_555
Ge6 Li21 3.023662 1_555
Ge6 Li18 3.023662 1_555
Ge6 Rb2 3.754547 1_555
Ge7 Li0 2.561533 1_554
Ge7 Li16 2.828855 1_555
Ge7 Li15 2.828855 1_555
Ge7 Li19 3.023662 1_554
Ge7 Li20 3.023662 1_554
Ge7 Rb3 3.754547 1_555
Ge8 Li3 2.689796 1_555
Ge8 Li0 2.689796 1_555
Ge8 Li23 2.924568 1_545
Ge8 Li20 2.924569 1_555
Ge8 Li26 2.991230 1_555
Ge8 Li8 3.120508 1_545
Ge8 Li11 3.120508 1_555
Ge8 Rb2 3.700976 1_555
Ge9 Li1 2.689796 1_555
Ge9 Li5 2.689796 1_555
Ge9 Li18 2.924568 1_455
Ge9 Li22 2.924569 1_555
Ge9 Li27 2.991230 1_555
Ge9 Li10 3.120508 1_455
Ge9 Li6 3.120508 1_555
Ge9 Rb3 3.700976 1_555
Ge10 Ge28 2.546599 1_555
Ge10 Ge19 2.661159 1_565
Ge10 Ge22 2.661159 1_455
Ge10 Li1 2.689796 1_555
Ge10 Li2 2.689796 1_555
Ge10 Li22 2.924568 1_565
Ge10 Li21 2.924568 1_455
Ge10 Li27 2.991230 1_565
Ge10 Li10 3.120508 1_455
Ge10 Li9 3.120508 1_565
Ge10 Rb3 3.700976 1_555
Ge11 Ge29 2.546599 1_555
Ge11 Ge15 2.661159 1_545
Ge11 Ge23 2.661159 1_655
Ge11 Li4 2.689796 1_555
Ge11 Li3 2.689796 1_555
Ge11 Li19 2.924568 1_545
Ge11 Li20 2.924568 1_655
Ge11 Li26 2.991230 1_655
Ge11 Li7 3.120508 1_655
Ge11 Li8 3.120508 1_545
Ge11 Rb2 3.700976 1_555
Ge12 Ge30 2.546599 1_555
Ge12 Ge24 2.661159 1_555
Ge12 Ge16 2.661159 1_655
Ge12 Li4 2.689796 1_555
Ge12 Li0 2.689796 1_555
Ge12 Li23 2.924568 1_655
Ge12 Li19 2.924569 1_555
Ge12 Li26 2.991230 1_665
Ge12 Li7 3.120508 1_655
Ge12 Li11 3.120508 1_555
Ge12 Rb2 3.700976 1_555
Ge13 Ge31 2.546599 1_555
Ge13 Ge18 2.661159 1_555
Ge13 Ge25 2.661159 1_565
Ge13 Li2 2.689796 1_555
Ge13 Li5 2.689796 1_555
Ge13 Li18 2.924568 1_565
Ge13 Li21 2.924569 1_555
Ge13 Li27 2.991230 1_665
Ge13 Li9 3.120508 1_565
Ge13 Li6 3.120508 1_555
Ge13 Rb3 3.700976 1_555
Ge14 Ge23 2.531960 1_555
Ge14 Ge20 2.618692 1_545
Ge14 Li11 2.639383 1_555
Ge14 Ge8 2.661159 1_555
Ge14 Li13 2.872661 1_555
Ge14 Li24 2.910426 1_555
Ge14 Li26 3.059167 1_555
Ge14 Li20 3.068076 1_555
Ge14 Rb2 3.670701 1_555
Ge14 Rb1 3.869557 1_555
Ge15 Ge24 2.531960 1_555
Ge15 Ge23 2.618692 1_665
Ge15 Li8 2.639383 1_555
Ge15 Li17 2.872661 1_565
Ge15 Li24 2.910426 1_665
Ge15 Li26 3.059167 1_665
Ge15 Li19 3.068076 1_555
Ge15 Rb2 3.670701 1_565
Ge15 Rb1 3.869557 1_555
Ge16 Ge20 2.531960 1_555
Ge16 Ge24 2.618692 1_455
Ge16 Li7 2.639383 1_555
Ge16 Li14 2.872661 1_455
Ge16 Li24 2.910426 1_565
Ge16 Li26 3.059167 1_565
Ge16 Li23 3.068076 1_555
Ge16 Rb2 3.670701 1_455
Ge16 Rb1 3.869557 1_555
Ge17 Ge25 2.531960 1_555
Ge17 Ge21 2.618692 1_655
Ge17 Li10 2.639383 1_555
Ge17 Ge9 2.661159 1_655
Ge17 Li15 2.872661 1_655
Ge17 Li25 2.910426 1_655
Ge17 Li27 3.059167 1_655
Ge17 Li18 3.068076 1_555
Ge17 Rb3 3.670701 1_655
Ge17 Rb0 3.869557 1_555
Ge18 Ge22 2.531960 1_555
Ge18 Ge25 2.618692 1_565
Ge18 Li6 2.639383 1_555
Ge18 Li16 2.872661 1_555
Ge18 Li25 2.910426 1_665
Ge18 Li27 3.059167 1_665
Ge18 Li21 3.068076 1_555
Ge18 Rb3 3.670701 1_555
Ge18 Rb0 3.869557 1_555
Ge19 Ge21 2.531960 1_555
Ge19 Ge22 2.618692 1_445
Ge19 Li9 2.639383 1_555
Ge19 Li12 2.872661 1_545
Ge19 Li25 2.910426 1_555
Ge19 Li27 3.059167 1_555
Ge19 Li22 3.068076 1_555
Ge19 Rb3 3.670701 1_545
Ge19 Rb0 3.869557 1_555
Ge20 Li8 2.639383 1_555
Ge20 Ge8 2.661159 1_565
Ge20 Li13 2.872661 1_565
Ge20 Li24 2.910426 1_565
Ge20 Li26 3.059167 1_565
Ge20 Li23 3.068076 1_555
Ge20 Rb2 3.670701 1_565
Ge20 Rb1 3.869557 1_555
Ge21 Li6 2.639383 1_555
Ge21 Ge9 2.661159 1_555
Ge21 Li15 2.872661 1_555
Ge21 Li25 2.910426 1_555
Ge21 Li27 3.059167 1_555
Ge21 Li22 3.068076 1_555
Ge21 Rb3 3.670701 1_555
Ge21 Rb0 3.869557 1_555
Ge22 Li10 2.639383 1_555
Ge22 Li12 2.872661 1_655
Ge22 Li25 2.910426 1_665
Ge22 Li27 3.059167 1_665
Ge22 Li21 3.068076 1_555
Ge22 Rb3 3.670701 1_655
Ge22 Rb0 3.869557 1_555
Ge23 Li7 2.639383 1_555
Ge23 Li17 2.872661 1_455
Ge23 Li24 2.910426 1_555
Ge23 Li26 3.059167 1_555
Ge23 Li20 3.068076 1_555
Ge23 Rb2 3.670701 1_455
Ge23 Rb1 3.869557 1_555
Ge24 Li11 2.639383 1_555
Ge24 Li14 2.872661 1_555
Ge24 Li24 2.910426 1_665
Ge24 Li26 3.059167 1_665
Ge24 Li19 3.068076 1_555
Ge24 Rb2 3.670701 1_555
Ge24 Rb1 3.869557 1_555
Ge25 Li9 2.639383 1_555
Ge25 Li16 2.872661 1_545
Ge25 Li25 2.910426 1_655
Ge25 Li27 3.059167 1_655
Ge25 Li18 3.068076 1_555
Ge25 Rb3 3.670701 1_545
Ge25 Rb0 3.869557 1_555
Ge26 Ge8 2.546599 1_555
Ge26 Ge29 2.685789 1_455
Ge26 Ge30 2.685789 1_445
Ge26 Li15 2.774336 1_556
Ge26 Li12 2.774336 1_546
Ge26 Li23 2.911338 1_545
Ge26 Li20 2.911338 1_555
Ge26 Li25 3.035107 1_556
Ge26 Li26 3.100101 1_555
Ge27 Ge9 2.546599 1_555
Ge27 Ge28 2.685789 1_545
Ge27 Ge31 2.685789 1_445
Ge27 Li13 2.774336 1_555
Ge27 Li17 2.774336 1_455
Ge27 Li18 2.911338 1_455
Ge27 Li22 2.911338 1_555
Ge27 Li24 3.035107 1_555
Ge27 Li27 3.100101 1_555
Ge28 Ge31 2.685789 1_455
Ge28 Li13 2.774336 1_565
Ge28 Li14 2.774336 1_455
Ge28 Li22 2.911338 1_565
Ge28 Li21 2.911338 1_455
Ge28 Li24 3.035107 1_565
Ge28 Li27 3.100101 1_565
Ge29 Ge30 2.685789 1_545
Ge29 Li16 2.774336 1_546
Ge29 Li15 2.774336 1_656
Ge29 Li19 2.911338 1_545
Ge29 Li20 2.911338 1_655
Ge29 Li25 3.035107 1_656
Ge29 Li26 3.100101 1_655
Ge30 Li16 2.774336 1_556
Ge30 Li12 2.774336 1_656
Ge30 Li23 2.911338 1_655
Ge30 Li19 2.911338 1_555
Ge30 Li25 3.035107 1_666
Ge30 Li26 3.100101 1_665
Ge31 Li14 2.774336 1_555
Ge31 Li17 2.774336 1_565
Ge31 Li18 2.911338 1_565
Ge31 Li21 2.911338 1_555
Ge31 Li24 3.035107 1_665
Ge31 Li27 3.100101 1_665
