# generated using pymatgen
data_Sb2Pt2O7
_symmetry_space_group_name_H-M   'P 1'
_cell_length_a   7.35808104
_cell_length_b   7.35808104
_cell_length_c   7.35808104
_cell_angle_alpha   60.00000000
_cell_angle_beta   60.00000000
_cell_angle_gamma   60.00000000
_symmetry_Int_Tables_number   1
_chemical_formula_structural   Sb2Pt2O7
_chemical_formula_sum   'Sb4 Pt4 O14'
_cell_volume   281.69471715
_cell_formula_units_Z   2
loop_
 _symmetry_equiv_pos_site_id
 _symmetry_equiv_pos_as_xyz
  1  'x, y, z'
loop_
 _atom_site_type_symbol
 _atom_site_label
 _atom_site_symmetry_multiplicity
 _atom_site_fract_x
 _atom_site_fract_y
 _atom_site_fract_z
 _atom_site_occupancy
  Sb  Sb0  1  0.12500000  0.12500000  0.12500000  1
  Sb  Sb1  1  0.62500000  0.12500000  0.12500000  1
  Sb  Sb2  1  0.12500000  0.12500000  0.62500000  1
  Sb  Sb3  1  0.12500000  0.62500000  0.12500000  1
  Pt  Pt0  1  0.62500000  0.62500000  0.62500000  1
  Pt  Pt1  1  0.12500000  0.62500000  0.62500000  1
  Pt  Pt2  1  0.62500000  0.62500000  0.12500000  1
  Pt  Pt3  1  0.62500000  0.12500000  0.62500000  1
  O  O0  1  0.00000000  0.00000000  0.00000000  1
  O  O1  1  0.25000000  0.25000000  0.25000000  1
  O  O2  1  0.53934300  0.53934300  0.96065700  1
  O  O3  1  0.28934300  0.28934300  0.71065700  1
  O  O4  1  0.96065700  0.53934300  0.96065700  1
  O  O5  1  0.96065700  0.53934300  0.53934300  1
  O  O6  1  0.53934300  0.96065700  0.96065700  1
  O  O7  1  0.53934300  0.96065700  0.53934300  1
  O  O8  1  0.96065700  0.96065700  0.53934300  1
  O  O9  1  0.71065700  0.28934300  0.28934300  1
  O  O10  1  0.28934300  0.71065700  0.71065700  1
  O  O11  1  0.71065700  0.71065700  0.28934300  1
  O  O12  1  0.71065700  0.28934300  0.71065700  1
  O  O13  1  0.28934300  0.71065700  0.28934300  1
loop_
_geom_bond_atom_site_label_1
_geom_bond_atom_site_label_2
_geom_bond_distance
_geom_bond_site_symmetry_2
O0 Sb0 2.252943 1_555
O0 Sb1 2.252943 1_455
O0 Sb2 2.252943 1_554
O0 Sb3 2.252943 1_545
O1 Sb3 2.252943 1_555
O1 Sb0 2.252943 1_555
O1 Sb2 2.252943 1_555
O1 Sb1 2.252943 1_555
O2 Pt0 2.044093 1_555
O2 Pt2 2.044093 1_556
O2 Sb3 2.511653 1_556
O2 Sb1 2.511653 1_556
O3 Pt3 2.044093 1_555
O3 Pt1 2.044093 1_555
O3 Sb0 2.511653 1_556
O3 Sb2 2.511653 1_555
O4 Pt1 2.044093 1_655
O4 Pt2 2.044093 1_556
O4 Sb3 2.511653 1_656
O4 Sb0 2.511653 1_656
O5 Pt0 2.044093 1_555
O5 Pt1 2.044093 1_655
O5 Sb2 2.511653 1_655
O5 Sb3 2.511653 1_655
O6 Pt3 2.044093 1_565
O6 Pt2 2.044093 1_556
O6 Sb0 2.511653 1_566
O6 Sb1 2.511653 1_566
O7 Pt0 2.044093 1_555
O7 Pt3 2.044093 1_565
O7 Sb1 2.511653 1_565
O7 Sb2 2.511653 1_565
O8 Pt1 2.044093 1_655
O8 Pt3 2.044093 1_565
O8 Sb0 2.511653 1_665
O8 Sb2 2.511653 1_665
O9 Pt2 2.044093 1_555
O9 Pt3 2.044093 1_555
O9 Sb1 2.511653 1_555
O9 Sb0 2.511653 1_655
O10 Pt1 2.044093 1_555
O10 Pt0 2.044093 1_555
O10 Sb3 2.511653 1_556
O10 Sb2 2.511653 1_565
O11 Pt0 2.044093 1_555
O11 Pt2 2.044093 1_555
O11 Sb1 2.511653 1_565
O11 Sb3 2.511653 1_655
O12 Pt0 2.044093 1_555
O12 Pt3 2.044093 1_555
O12 Sb2 2.511653 1_655
O12 Sb1 2.511653 1_556
O13 Pt1 2.044093 1_555
O13 Pt2 2.044093 1_555
O13 Sb0 2.511653 1_565
O13 Sb3 2.511653 1_555
