# generated using pymatgen
data_Li6Fe9(PO4)8
_symmetry_space_group_name_H-M   'P 1'
_cell_length_a   9.10013700
_cell_length_b   9.01721739
_cell_length_c   8.83356472
_cell_angle_alpha   102.55495999
_cell_angle_beta   99.89370008
_cell_angle_gamma   111.36311597
_symmetry_Int_Tables_number   1
_chemical_formula_structural   Li6Fe9(PO4)8
_chemical_formula_sum   'Li6 Fe9 P8 O32'
_cell_volume   633.29877444
_cell_formula_units_Z   1
loop_
 _symmetry_equiv_pos_site_id
 _symmetry_equiv_pos_as_xyz
  1  'x, y, z'
loop_
 _atom_site_type_symbol
 _atom_site_label
 _atom_site_symmetry_multiplicity
 _atom_site_fract_x
 _atom_site_fract_y
 _atom_site_fract_z
 _atom_site_occupancy
  Li  Li0  1  0.00513100  0.12279800  0.36478900  1
  Li  Li1  1  0.99486900  0.87720200  0.63521100  1
  Li  Li2  1  0.73139200  0.23093400  0.96472300  1
  Li  Li3  1  0.63728900  0.68173600  0.66986600  1
  Li  Li4  1  0.36271100  0.31826400  0.33013400  1
  Li  Li5  1  0.26860800  0.76906600  0.03527700  1
  Fe  Fe0  1  0.93190100  0.73058700  0.19493900  1
  Fe  Fe1  1  0.57467200  0.13482400  0.29193000  1
  Fe  Fe2  1  0.53784700  0.29367200  0.68862200  1
  Fe  Fe3  1  0.50000000  0.50000000  0.00000000  1
  Fe  Fe4  1  0.46215300  0.70632800  0.31137800  1
  Fe  Fe5  1  0.00000000  0.00000000  0.00000000  1
  Fe  Fe6  1  0.42532800  0.86517600  0.70807000  1
  Fe  Fe7  1  0.06809900  0.26941300  0.80506100  1
  Fe  Fe8  1  0.00000000  0.50000000  0.50000000  1
  P  P0  1  0.28373600  0.96997800  0.40506000  1
  P  P1  1  0.09932300  0.38566800  0.16594800  1
  P  P2  1  0.28063000  0.46357700  0.66211000  1
  P  P3  1  0.34543400  0.11273700  0.95855700  1
  P  P4  1  0.65456600  0.88726300  0.04144300  1
  P  P5  1  0.71937000  0.53642300  0.33789000  1
  P  P6  1  0.90067700  0.61433200  0.83405200  1
  P  P7  1  0.71626400  0.03002200  0.59494000  1
  O  O0  1  0.89909400  0.77295300  0.79056200  1
  O  O1  1  0.65765000  0.13177000  0.71834400  1
  O  O2  1  0.88580000  0.03814400  0.67387800  1
  O  O3  1  0.59793100  0.82466500  0.85461400  1
  O  O4  1  0.74237100  0.38660100  0.37901500  1
  O  O5  1  0.88461000  0.69495500  0.42505900  1
  O  O6  1  0.72534200  0.08323100  0.44142300  1
  O  O7  1  0.67134100  0.06852300  0.10225200  1
  O  O8  1  0.96264400  0.51521900  0.71710300  1
  O  O9  1  0.11420000  0.96185600  0.32612200  1
  O  O10  1  0.01761100  0.67607900  0.00894500  1
  O  O11  1  0.03735600  0.48478100  0.28289700  1
  O  O12  1  0.32865900  0.93147700  0.89774800  1
  O  O13  1  0.27465800  0.91676900  0.55857700  1
  O  O14  1  0.11539000  0.30504500  0.57494100  1
  O  O15  1  0.25762900  0.61339900  0.62098500  1
  O  O16  1  0.82819400  0.88760700  0.10414100  1
  O  O17  1  0.34235000  0.86823000  0.28165600  1
  O  O18  1  0.17180600  0.11239300  0.89585900  1
  O  O19  1  0.29839300  0.47765600  0.84568300  1
  O  O20  1  0.27795100  0.49581400  0.16855900  1
  O  O21  1  0.10090600  0.22704700  0.20943800  1
  O  O22  1  0.43123400  0.45033200  0.61563600  1
  O  O23  1  0.58334200  0.84345900  0.54612700  1
  O  O24  1  0.46987800  0.23754600  0.89445800  1
  O  O25  1  0.53012200  0.76245400  0.10554200  1
  O  O26  1  0.41665800  0.15654100  0.45387300  1
  O  O27  1  0.56876600  0.54966800  0.38436400  1
  O  O28  1  0.40206900  0.17533500  0.14538600  1
  O  O29  1  0.72204900  0.50418600  0.83144100  1
  O  O30  1  0.70160700  0.52234400  0.15431700  1
  O  O31  1  0.98238900  0.32392100  0.99105500  1
loop_
_geom_bond_atom_site_label_1
_geom_bond_atom_site_label_2
_geom_bond_distance
_geom_bond_site_symmetry_2
Li0 O21 1.975209 1_555
Li0 O14 1.996465 1_555
Li0 O9 2.039205 1_545
Li0 O16 2.550849 1_445
Li1 O0 1.975209 1_555
Li1 O5 1.996465 1_555
Li1 O2 2.039205 1_565
Li1 O18 2.550849 1_665
Li2 O1 2.049754 1_555
Li2 O31 2.076444 1_555
Li2 O7 2.082754 1_556
Li2 O24 2.379954 1_555
Li3 O3 2.018775 1_555
Li3 O22 2.122668 1_555
Li3 O23 2.143027 1_555
Li3 O0 2.192613 1_555
Li3 O27 2.404235 1_555
Li3 O29 2.590392 1_555
Li4 O28 2.018775 1_555
Li4 O27 2.122668 1_555
Li4 O26 2.143027 1_555
Li4 O21 2.192613 1_555
Li4 O22 2.404235 1_555
Li4 O20 2.590392 1_555
Li5 O17 2.049754 1_555
Li5 O10 2.076444 1_555
Li5 O12 2.082754 1_554
Li5 O25 2.379954 1_555
Fe0 O10 1.979381 1_655
Fe0 O9 2.052348 1_655
Fe0 O30 2.151363 1_555
Fe0 O16 2.178491 1_555
Fe0 O5 2.214604 1_555
Fe1 O6 1.987430 1_555
Fe1 O28 2.049685 1_555
Fe1 O4 2.094791 1_555
Fe1 O7 2.095924 1_555
Fe1 O26 2.223223 1_555
Fe1 O17 2.528497 1_545
Fe2 O29 1.979578 1_555
Fe2 O26 2.037448 1_555
Fe2 O24 2.122094 1_555
Fe2 O22 2.128850 1_555
Fe2 O1 2.148652 1_555
Fe3 O30 2.004153 1_555
Fe3 O19 2.004153 1_554
Fe3 O25 2.241756 1_555
Fe3 O24 2.241756 1_554
Fe4 O20 1.979578 1_555
Fe4 O23 2.037448 1_555
Fe4 O25 2.122094 1_555
Fe4 O27 2.128850 1_555
Fe4 O17 2.148652 1_555
Fe5 O16 2.015685 1_445
Fe5 O18 2.015685 1_554
Fe5 O0 2.203948 1_444
Fe5 O21 2.203948 1_555
Fe6 O13 1.987430 1_555
Fe6 O3 2.049685 1_555
Fe6 O15 2.094791 1_555
Fe6 O12 2.095924 1_555
Fe6 O23 2.223223 1_555
Fe6 O1 2.528497 1_565
Fe7 O31 1.979381 1_455
Fe7 O2 2.052348 1_455
Fe7 O19 2.151363 1_555
Fe7 O18 2.178491 1_555
Fe7 O14 2.214604 1_555
Fe8 O11 1.988952 1_555
Fe8 O8 1.988952 1_455
Fe8 O15 2.145125 1_555
Fe8 O4 2.145125 1_455
Fe8 O5 2.498644 1_455
Fe8 O14 2.498644 1_555
O0 P6 1.563845 1_555
O1 P7 1.560813 1_555
O2 P7 1.548424 1_555
O3 P4 1.548775 1_556
O4 P5 1.547314 1_555
O5 P5 1.566858 1_555
O6 P7 1.539005 1_555
O7 P4 1.546496 1_545
O8 P6 1.532954 1_555
O9 P0 1.548424 1_555
O10 P6 1.567988 1_454
O11 P1 1.532954 1_555
O12 P3 1.546496 1_565
O13 P0 1.539005 1_555
O14 P2 1.566858 1_555
O15 P2 1.547314 1_555
O16 P4 1.580582 1_555
O17 P0 1.560813 1_555
O18 P3 1.580582 1_555
O19 P2 1.573949 1_555
O20 P1 1.558936 1_555
O21 P1 1.563845 1_555
O22 P2 1.533754 1_555
O23 P7 1.581774 1_565
O24 P3 1.561573 1_555
O25 P4 1.561573 1_555
O26 P0 1.581774 1_545
O27 P5 1.533754 1_555
O28 P3 1.548775 1_554
O29 P6 1.558936 1_555
O30 P5 1.573949 1_555
O31 P1 1.567988 1_656
