# generated using pymatgen
data_Na2Ca2Ta3O10
_symmetry_space_group_name_H-M   'P 1'
_cell_length_a   14.63454993
_cell_length_b   14.63454993
_cell_length_c   14.63454993
_cell_angle_alpha   164.33535079
_cell_angle_beta   164.33535079
_cell_angle_gamma   22.22327186
_symmetry_Int_Tables_number   1
_chemical_formula_structural   Na2Ca2Ta3O10
_chemical_formula_sum   'Na2 Ca2 Ta3 O10'
_cell_volume   228.45914540
_cell_formula_units_Z   1
loop_
 _symmetry_equiv_pos_site_id
 _symmetry_equiv_pos_as_xyz
  1  'x, y, z'
loop_
 _atom_site_type_symbol
 _atom_site_label
 _atom_site_symmetry_multiplicity
 _atom_site_fract_x
 _atom_site_fract_y
 _atom_site_fract_z
 _atom_site_occupancy
  Na  Na0  1  0.71184300  0.71184300  0.00000000  1
  Na  Na1  1  0.28815700  0.28815700  0.00000000  1
  Ca  Ca0  1  0.57586000  0.57586000  0.00000000  1
  Ca  Ca1  1  0.42414000  0.42414000  0.00000000  1
  Ta  Ta0  1  0.85633500  0.85633500  0.00000000  1
  Ta  Ta1  1  0.14366500  0.14366500  0.00000000  1
  Ta  Ta2  1  0.00000000  0.00000000  0.00000000  1
  O  O0  1  0.06848800  0.06848800  0.00000000  1
  O  O1  1  0.20835600  0.20835600  0.00000000  1
  O  O2  1  0.93151200  0.93151200  0.00000000  1
  O  O3  1  0.63311700  0.13311700  0.50000000  1
  O  O4  1  0.13311700  0.63311700  0.50000000  1
  O  O5  1  0.86688300  0.36688300  0.50000000  1
  O  O6  1  0.79164400  0.79164400  0.00000000  1
  O  O7  1  0.36688300  0.86688300  0.50000000  1
  O  O8  1  0.50000000  0.00000000  0.50000000  1
  O  O9  1  0.00000000  0.50000000  0.50000000  1
loop_
_geom_bond_atom_site_label_1
_geom_bond_atom_site_label_2
_geom_bond_distance
_geom_bond_site_symmetry_2
Na0 O6 2.291917 1_555
Na0 O1 2.822166 1_666
Na0 O1 2.822166 1_554
Na0 O1 2.822166 1_655
Na0 O1 2.822166 1_565
Na1 O1 2.291917 1_555
Na1 O6 2.822166 1_556
Na1 O6 2.822166 1_444
Na1 O6 2.822166 1_455
Na1 O6 2.822166 1_545
Ca0 O4 2.584859 1_655
Ca0 O3 2.584859 1_565
Ca0 O3 2.584859 1_554
Ca0 O4 2.584859 1_554
Ca0 O0 2.828325 1_655
Ca0 O0 2.828325 1_565
Ca0 O0 2.828325 1_554
Ca0 O0 2.828325 1_666
Ca0 O9 2.953669 1_554
Ca0 O8 2.953669 1_565
Ca0 O9 2.953669 1_655
Ca0 O8 2.953669 1_554
Ca1 O7 2.584859 1_555
Ca1 O7 2.584859 1_544
Ca1 O5 2.584859 1_555
Ca1 O5 2.584859 1_454
Ca1 O2 2.828325 1_545
Ca1 O2 2.828325 1_455
Ca1 O2 2.828325 1_556
Ca1 O2 2.828325 1_444
Ca1 O8 2.953669 1_554
Ca1 O9 2.953669 1_554
Ca1 O8 2.953669 1_565
Ca1 O9 2.953669 1_655
O0 Ta2 1.967003 1_555
O0 Ta1 2.159114 1_555
O1 Ta1 1.857952 1_555
O2 Ta2 1.967003 1_665
O2 Ta0 2.159114 1_555
O3 Ta1 2.017194 1_656
O3 Ta1 2.017194 1_555
O4 Ta1 2.017194 1_566
O4 Ta1 2.017194 1_555
O5 Ta0 2.017194 1_545
O5 Ta0 2.017194 1_556
O6 Ta0 1.857952 1_555
O7 Ta0 2.017194 1_556
O7 Ta0 2.017194 1_455
O8 Ta2 1.994316 1_656
O8 Ta2 1.994316 1_555
O9 Ta2 1.994316 1_555
O9 Ta2 1.994316 1_566
