# generated using pymatgen
data_CoCO3
_symmetry_space_group_name_H-M   'P 1'
_cell_length_a   5.60072405
_cell_length_b   5.60079688
_cell_length_c   5.60060355
_cell_angle_alpha   49.09562594
_cell_angle_beta   49.09799842
_cell_angle_gamma   49.09180710
_symmetry_Int_Tables_number   1
_chemical_formula_structural   CoCO3
_chemical_formula_sum   'Co2 C2 O6'
_cell_volume   92.16431121
_cell_formula_units_Z   2
loop_
 _symmetry_equiv_pos_site_id
 _symmetry_equiv_pos_as_xyz
  1  'x, y, z'
loop_
 _atom_site_type_symbol
 _atom_site_label
 _atom_site_symmetry_multiplicity
 _atom_site_fract_x
 _atom_site_fract_y
 _atom_site_fract_z
 _atom_site_occupancy
  Co  Co0  1  0.50000000  0.50000000  0.50000000  1
  Co  Co1  1  -0.00000000  0.00000000  -0.00000000  1
  C  C0  1  0.75001932  0.74994192  0.75000609  1
  C  C1  1  0.24997868  0.25006008  0.24999391  1
  O  O0  1  0.75005940  0.47267482  0.02721442  1
  O  O1  1  0.47271157  0.02723286  0.75002169  1
  O  O2  1  0.97275320  0.25004390  0.52722270  1
  O  O3  1  0.02724680  0.74995810  0.47277630  1
  O  O4  1  0.24994060  0.52732718  0.97278358  1
  O  O5  1  0.52728943  0.97276614  0.24997831  1
loop_
_geom_bond_atom_site_label_1
_geom_bond_atom_site_label_2
_geom_bond_distance
_geom_bond_site_symmetry_2
Co0 O2 2.094793 1_555
Co0 O3 2.094793 1_555
Co0 O5 2.095103 1_555
Co0 O1 2.095105 1_555
Co0 O4 2.095195 1_555
Co0 O0 2.095199 1_555
Co1 O4 2.094444 1_544
Co1 O0 2.094449 1_455
Co1 O5 2.094760 1_445
Co1 O1 2.094762 1_554
Co1 O3 2.094905 1_545
Co1 O2 2.094907 1_454
C0 O0 1.290167 1_556
C0 O3 1.290175 1_655
C0 O1 1.290374 1_565
C1 O2 1.290168 1_455
C1 O4 1.290172 1_554
C1 O5 1.290388 1_545
