# generated using pymatgen
data_Na9Mg2Nb4Si6(PO12)3
_symmetry_space_group_name_H-M   'P 1'
_cell_length_a   15.71470551
_cell_length_b   27.12296330
_cell_length_c   9.01912223
_cell_angle_alpha   90.01738459
_cell_angle_beta   124.85161748
_cell_angle_gamma   89.98447407
_symmetry_Int_Tables_number   1
_chemical_formula_structural   Na9Mg2Nb4Si6(PO12)3
_chemical_formula_sum   'Na36 Mg8 Nb16 Si24 P12 O144'
_cell_volume   3154.69604914
_cell_formula_units_Z   4
loop_
 _symmetry_equiv_pos_site_id
 _symmetry_equiv_pos_as_xyz
  1  'x, y, z'
loop_
 _atom_site_type_symbol
 _atom_site_label
 _atom_site_symmetry_multiplicity
 _atom_site_fract_x
 _atom_site_fract_y
 _atom_site_fract_z
 _atom_site_occupancy
  Na  Na0  1  0.25822699  0.24591788  0.02736738  1
  Na  Na1  1  0.25020341  0.59049390  0.01781267  1
  Na  Na2  1  0.25893405  0.91393695  0.01985038  1
  Na  Na3  1  0.75066888  0.25149441  0.50367479  1
  Na  Na4  1  0.74689736  0.58190374  0.50088245  1
  Na  Na5  1  0.75731719  0.91624166  0.52203795  1
  Na  Na6  1  0.75020341  0.09049390  0.01781267  1
  Na  Na7  1  0.75893405  0.41393695  0.01985038  1
  Na  Na8  1  0.75822699  0.74591788  0.02736738  1
  Na  Na9  1  0.24689736  0.08190374  0.50088245  1
  Na  Na10  1  0.25731719  0.41624166  0.52203795  1
  Na  Na11  1  0.25066888  0.75149441  0.50367479  1
  Na  Na12  1  0.48732962  0.02522071  0.71783450  1
  Na  Na13  1  0.48988671  0.36778086  0.74239559  1
  Na  Na14  1  0.48689084  0.69529135  0.72409645  1
  Na  Na15  1  0.49136635  0.29651138  0.25556303  1
  Na  Na16  1  0.50037061  0.62759026  0.26945210  1
  Na  Na17  1  0.50176181  0.95841766  0.27667505  1
  Na  Na18  1  0.98689084  0.19529135  0.72409645  1
  Na  Na19  1  0.98732962  0.52522071  0.71783450  1
  Na  Na20  1  0.98988671  0.86778086  0.74239559  1
  Na  Na21  1  0.00037061  0.12759026  0.26945210  1
  Na  Na22  1  0.00176181  0.45841766  0.27667505  1
  Na  Na23  1  0.99136635  0.79651138  0.25556303  1
  Na  Na24  1  0.81644471  0.97935549  0.20539237  1
  Na  Na25  1  0.20711773  0.30914486  0.29888250  1
  Na  Na26  1  0.19680347  0.97463229  0.28350604  1
  Na  Na27  1  0.20018184  0.35928988  0.79044395  1
  Na  Na28  1  0.81792507  0.02004882  0.71021714  1
  Na  Na29  1  0.81621455  0.69559379  0.68535097  1
  Na  Na30  1  0.31644471  0.47935549  0.20539237  1
  Na  Na31  1  0.69680347  0.47463229  0.28350604  1
  Na  Na32  1  0.70711773  0.80914486  0.29888250  1
  Na  Na33  1  0.70018184  0.85928988  0.79044395  1
  Na  Na34  1  0.31621455  0.19559379  0.68535097  1
  Na  Na35  1  0.31792507  0.52004882  0.71021714  1
  Mg  Mg0  1  0.89667495  0.91714733  0.93900985  1
  Mg  Mg1  1  0.89457293  0.08519030  0.43240501  1
  Mg  Mg2  1  0.89672702  0.41612370  0.44297056  1
  Mg  Mg3  1  0.89631260  0.74862130  0.43485657  1
  Mg  Mg4  1  0.39667495  0.41714733  0.93900985  1
  Mg  Mg5  1  0.39631260  0.24862130  0.43485657  1
  Mg  Mg6  1  0.39457293  0.58519030  0.43240501  1
  Mg  Mg7  1  0.39672702  0.91612370  0.44297056  1
  Nb  Nb0  1  0.10490479  0.24988539  0.57809778  1
  Nb  Nb1  1  0.10658655  0.58403755  0.56814826  1
  Nb  Nb2  1  0.10630528  0.91566459  0.56866153  1
  Nb  Nb3  1  0.89082080  0.24968564  0.93125542  1
  Nb  Nb4  1  0.89552798  0.58224817  0.93979836  1
  Nb  Nb5  1  0.10559246  0.08438812  0.06065041  1
  Nb  Nb6  1  0.10492317  0.41693464  0.06100271  1
  Nb  Nb7  1  0.10589472  0.75046887  0.06250732  1
  Nb  Nb8  1  0.60658655  0.08403755  0.56814826  1
  Nb  Nb9  1  0.60630528  0.41566459  0.56866153  1
  Nb  Nb10  1  0.60490479  0.74988539  0.57809778  1
  Nb  Nb11  1  0.39552798  0.08224817  0.93979836  1
  Nb  Nb12  1  0.39082080  0.74968564  0.93125542  1
  Nb  Nb13  1  0.60589472  0.25046887  0.06250732  1
  Nb  Nb14  1  0.60559246  0.58438812  0.06065041  1
  Nb  Nb15  1  0.60492317  0.91693464  0.06100271  1
  Si  Si0  1  0.99434648  0.32115828  0.74231960  1
  Si  Si1  1  0.49434648  0.82115828  0.74231960  1
  Si  Si2  1  0.35249810  0.29908155  0.75083000  1
  Si  Si3  1  0.35273262  0.63052385  0.74985979  1
  Si  Si4  1  0.35078829  0.96375107  0.74497565  1
  Si  Si5  1  0.63996627  0.29759454  0.73116798  1
  Si  Si6  1  0.64498499  0.63077606  0.73498413  1
  Si  Si7  1  0.64563504  0.96690080  0.73680070  1
  Si  Si8  1  0.64859808  0.03443703  0.24711105  1
  Si  Si9  1  0.64422986  0.70054495  0.24722892  1
  Si  Si10  1  0.35270960  0.03535394  0.25645079  1
  Si  Si11  1  0.34949081  0.36916504  0.24572256  1
  Si  Si12  1  0.35223611  0.70308807  0.25630924  1
  Si  Si13  1  0.85273262  0.13052385  0.74985979  1
  Si  Si14  1  0.85078829  0.46375107  0.74497565  1
  Si  Si15  1  0.85249810  0.79908155  0.75083000  1
  Si  Si16  1  0.14498499  0.13077606  0.73498413  1
  Si  Si17  1  0.14563504  0.46690080  0.73680070  1
  Si  Si18  1  0.13996627  0.79759454  0.73116798  1
  Si  Si19  1  0.14422986  0.20054495  0.24722892  1
  Si  Si20  1  0.14859808  0.53443703  0.24711105  1
  Si  Si21  1  0.85223611  0.20308807  0.25630924  1
  Si  Si22  1  0.85270960  0.53535394  0.25645079  1
  Si  Si23  1  0.84949081  0.86916504  0.24572256  1
  P  P0  1  0.00129516  0.65402223  0.74740330  1
  P  P1  1  0.00097764  0.98663362  0.74318132  1
  P  P2  1  0.00141251  0.01301793  0.24468625  1
  P  P3  1  0.00029777  0.34639445  0.25071847  1
  P  P4  1  0.00101555  0.68068086  0.24778218  1
  P  P5  1  0.50129516  0.15402223  0.74740330  1
  P  P6  1  0.50097764  0.48663362  0.74318132  1
  P  P7  1  0.50101555  0.18068086  0.24778218  1
  P  P8  1  0.50141251  0.51301793  0.24468625  1
  P  P9  1  0.50029777  0.84639445  0.25071847  1
  P  P10  1  0.64092321  0.36717435  0.23940356  1
  P  P11  1  0.14092321  0.86717435  0.23940356  1
  O  O0  1  0.15128209  0.19232884  0.74994521  1
  O  O1  1  0.14757763  0.52899799  0.74574559  1
  O  O2  1  0.14639825  0.85931094  0.74110082  1
  O  O3  1  0.84655479  0.19056202  0.77049891  1
  O  O4  1  0.84879481  0.52489232  0.77697766  1
  O  O5  1  0.84301711  0.85808330  0.75643950  1
  O  O6  1  0.84914737  0.14440291  0.24897107  1
  O  O7  1  0.84248535  0.47648222  0.24170691  1
  O  O8  1  0.84045868  0.81022883  0.25359433  1
  O  O9  1  0.14459528  0.13896251  0.24238099  1
  O  O10  1  0.14126997  0.47338469  0.24537307  1
  O  O11  1  0.14676900  0.80882284  0.24843458  1
  O  O12  1  0.64757763  0.02899799  0.74574559  1
  O  O13  1  0.64639825  0.35931094  0.74110082  1
  O  O14  1  0.65128209  0.69232884  0.74994521  1
  O  O15  1  0.34879481  0.02489232  0.77697766  1
  O  O16  1  0.34301711  0.35808330  0.75643950  1
  O  O17  1  0.34655479  0.69056202  0.77049891  1
  O  O18  1  0.34045868  0.31022883  0.25359433  1
  O  O19  1  0.34914737  0.64440291  0.24897107  1
  O  O20  1  0.34248535  0.97648222  0.24170691  1
  O  O21  1  0.64676900  0.30882284  0.24843458  1
  O  O22  1  0.64459528  0.63896251  0.24238099  1
  O  O23  1  0.64126997  0.97338469  0.24537307  1
  O  O24  1  0.43099482  0.18446451  0.58134977  1
  O  O25  1  0.43531332  0.51833234  0.57653155  1
  O  O26  1  0.42892801  0.85438621  0.57099635  1
  O  O27  1  0.56525417  0.18722381  0.92086528  1
  O  O28  1  0.56645948  0.52029888  0.91849671  1
  O  O29  1  0.57085556  0.85595869  0.92907823  1
  O  O30  1  0.56173976  0.14550514  0.41588491  1
  O  O31  1  0.56596673  0.47754291  0.41395984  1
  O  O32  1  0.56569233  0.81318949  0.42412721  1
  O  O33  1  0.44461987  0.14736476  0.07670228  1
  O  O34  1  0.44061082  0.48220301  0.07435244  1
  O  O35  1  0.44682291  0.81237387  0.08404917  1
  O  O36  1  0.93531332  0.01833234  0.57653155  1
  O  O37  1  0.92892801  0.35438621  0.57099635  1
  O  O38  1  0.93099482  0.68446451  0.58134977  1
  O  O39  1  0.06645948  0.02029888  0.91849671  1
  O  O40  1  0.07085556  0.35595869  0.92907823  1
  O  O41  1  0.06525417  0.68722381  0.92086528  1
  O  O42  1  0.06569233  0.31318949  0.42412721  1
  O  O43  1  0.06173976  0.64550514  0.41588491  1
  O  O44  1  0.06596673  0.97754291  0.41395984  1
  O  O45  1  0.94682291  0.31237387  0.08404917  1
  O  O46  1  0.94461987  0.64736476  0.07670228  1
  O  O47  1  0.94061082  0.98220301  0.07435244  1
  O  O48  1  0.25430983  0.27325014  0.74755951  1
  O  O49  1  0.25449489  0.60512659  0.74132979  1
  O  O50  1  0.25288820  0.93886141  0.73529566  1
  O  O51  1  0.74903693  0.27779885  0.76842653  1
  O  O52  1  0.75464931  0.61399806  0.76431379  1
  O  O53  1  0.74806969  0.94876049  0.75358427  1
  O  O54  1  0.74569410  0.05168905  0.24816990  1
  O  O55  1  0.73480661  0.39105780  0.25904435  1
  O  O56  1  0.73780113  0.72556796  0.25427853  1
  O  O57  1  0.25220740  0.05926697  0.24344077  1
  O  O58  1  0.25522353  0.39638945  0.25293201  1
  O  O59  1  0.25182474  0.72910406  0.23932675  1
  O  O60  1  0.75449489  0.10512659  0.74132979  1
  O  O61  1  0.75288820  0.43886141  0.73529566  1
  O  O62  1  0.75430983  0.77325014  0.74755951  1
  O  O63  1  0.25464931  0.11399806  0.76431379  1
  O  O64  1  0.24806969  0.44876049  0.75358427  1
  O  O65  1  0.24903693  0.77779885  0.76842653  1
  O  O66  1  0.23780113  0.22556796  0.25427853  1
  O  O67  1  0.24569410  0.55168905  0.24816990  1
  O  O68  1  0.23480661  0.89105780  0.25904435  1
  O  O69  1  0.75182474  0.22910406  0.23932675  1
  O  O70  1  0.75220740  0.55926697  0.24344077  1
  O  O71  1  0.75522353  0.89638945  0.25293201  1
  O  O72  1  0.34954674  0.28059614  0.57978384  1
  O  O73  1  0.35920855  0.61991215  0.58418150  1
  O  O74  1  0.35005906  0.96089110  0.56761399  1
  O  O75  1  0.63266861  0.28369559  0.90713236  1
  O  O76  1  0.63820282  0.61578934  0.91047808  1
  O  O77  1  0.64431558  0.95248716  0.92147800  1
  O  O78  1  0.64584165  0.04985155  0.42617879  1
  O  O79  1  0.63704440  0.38151725  0.40783073  1
  O  O80  1  0.64225307  0.71419875  0.42784617  1
  O  O81  1  0.35644828  0.05682664  0.08717753  1
  O  O82  1  0.34118920  0.38811413  0.07022120  1
  O  O83  1  0.35707948  0.72415923  0.08968261  1
  O  O84  1  0.85920855  0.11991215  0.58418150  1
  O  O85  1  0.85005906  0.46089110  0.56761399  1
  O  O86  1  0.84954674  0.78059614  0.57978384  1
  O  O87  1  0.13820282  0.11578934  0.91047808  1
  O  O88  1  0.14431558  0.45248716  0.92147800  1
  O  O89  1  0.13266861  0.78369559  0.90713236  1
  O  O90  1  0.14225307  0.21419875  0.42784617  1
  O  O91  1  0.14584165  0.54985155  0.42617879  1
  O  O92  1  0.13704440  0.88151725  0.40783073  1
  O  O93  1  0.85707948  0.22415923  0.08968261  1
  O  O94  1  0.85644828  0.55682664  0.08717753  1
  O  O95  1  0.84118920  0.88811413  0.07022120  1
  O  O96  1  0.46136199  0.27465739  0.93585456  1
  O  O97  1  0.46065963  0.60703802  0.93713224  1
  O  O98  1  0.46119831  0.94198595  0.92504421  1
  O  O99  1  0.54076173  0.27811517  0.54762797  1
  O  O100  1  0.54529602  0.61167614  0.55310329  1
  O  O101  1  0.53891760  0.94812542  0.56269375  1
  O  O102  1  0.53585949  0.05535646  0.07305243  1
  O  O103  1  0.54000876  0.38280298  0.06736234  1
  O  O104  1  0.53094341  0.71854122  0.07226006  1
  O  O105  1  0.46215806  0.05695513  0.43789796  1
  O  O106  1  0.46198931  0.39162101  0.42977275  1
  O  O107  1  0.46160198  0.72442579  0.44343197  1
  O  O108  1  0.96065963  0.10703802  0.93713224  1
  O  O109  1  0.96119831  0.44198595  0.92504421  1
  O  O110  1  0.96136199  0.77465739  0.93585456  1
  O  O111  1  0.04529602  0.11167614  0.55310329  1
  O  O112  1  0.03891760  0.44812542  0.56269375  1
  O  O113  1  0.04076173  0.77811517  0.54762797  1
  O  O114  1  0.03094341  0.21854122  0.07226006  1
  O  O115  1  0.03585949  0.55535646  0.07305243  1
  O  O116  1  0.04000876  0.88280298  0.06736234  1
  O  O117  1  0.96160198  0.22442579  0.44343197  1
  O  O118  1  0.96215806  0.55695513  0.43789796  1
  O  O119  1  0.96198931  0.89162101  0.42977275  1
  O  O120  1  0.08480272  0.28715440  0.74587622  1
  O  O121  1  0.08115996  0.62088980  0.74524113  1
  O  O122  1  0.08328233  0.95402553  0.74082340  1
  O  O123  1  0.92679353  0.28035341  0.76872785  1
  O  O124  1  0.92968969  0.61814589  0.76761700  1
  O  O125  1  0.93165564  0.95121790  0.76270475  1
  O  O126  1  0.92926419  0.04722924  0.25855674  1
  O  O127  1  0.92393995  0.38123280  0.24960881  1
  O  O128  1  0.92315392  0.71369105  0.24823225  1
  O  O129  1  0.08819312  0.04398163  0.24949540  1
  O  O130  1  0.08452086  0.37756502  0.24970241  1
  O  O131  1  0.08279339  0.71277363  0.24557690  1
  O  O132  1  0.58115996  0.12088980  0.74524113  1
  O  O133  1  0.58328233  0.45402553  0.74082340  1
  O  O134  1  0.58480272  0.78715440  0.74587622  1
  O  O135  1  0.42968969  0.11814589  0.76761700  1
  O  O136  1  0.43165564  0.45121790  0.76270475  1
  O  O137  1  0.42679353  0.78035341  0.76872785  1
  O  O138  1  0.42315392  0.21369105  0.24823225  1
  O  O139  1  0.42926419  0.54722924  0.25855674  1
  O  O140  1  0.42393995  0.88123280  0.24960881  1
  O  O141  1  0.58279339  0.21277363  0.24557690  1
  O  O142  1  0.58819312  0.54398163  0.24949540  1
  O  O143  1  0.58452086  0.87756502  0.24970241  1
loop_
_geom_bond_atom_site_label_1
_geom_bond_atom_site_label_2
_geom_bond_distance
_geom_bond_site_symmetry_2
Na0 O66 2.312482 1_555
Na0 O138 2.355551 1_555
Na0 O18 2.420993 1_555
Na0 O0 2.527992 1_554
Na0 O48 2.597228 1_554
Na0 O120 2.686272 1_554
Na1 O19 2.279609 1_555
Na1 O67 2.366204 1_555
Na1 O121 2.513217 1_554
Na1 O49 2.563803 1_554
Na1 O1 2.623022 1_554
Na1 O139 2.650729 1_555
Na2 O20 2.366862 1_555
Na2 O140 2.379781 1_555
Na2 O68 2.473593 1_555
Na2 O2 2.561441 1_554
Na2 O50 2.602875 1_554
Na2 O122 2.682453 1_554
Na3 O21 2.467396 1_555
Na3 O69 2.470242 1_555
Na3 O51 2.506061 1_555
Na3 O123 2.534936 1_555
Na3 O141 2.542188 1_555
Na3 O3 2.578724 1_555
Na4 O142 2.440456 1_555
Na4 O70 2.448609 1_555
Na4 O52 2.466901 1_555
Na4 O22 2.476356 1_555
Na4 O4 2.568997 1_555
Na4 O124 2.665936 1_555
Na5 O53 2.346466 1_555
Na5 O5 2.349096 1_555
Na5 O71 2.467747 1_555
Na5 O125 2.514137 1_555
Na5 O23 2.598895 1_555
Na5 O143 2.623781 1_555
Na6 O6 2.279609 1_555
Na6 O54 2.366204 1_555
Na6 O132 2.513217 1_554
Na6 O60 2.563803 1_554
Na6 O12 2.623022 1_554
Na6 O126 2.650729 1_555
Na7 O7 2.366862 1_555
Na7 O127 2.379781 1_555
Na7 O55 2.473593 1_555
Na7 O13 2.561441 1_554
Na7 O61 2.602875 1_554
Na7 O133 2.682453 1_554
Na8 O56 2.312482 1_555
Na8 O128 2.355551 1_555
Na8 O8 2.420993 1_555
Na8 O14 2.527992 1_554
Na8 O62 2.597228 1_554
Na8 O134 2.686272 1_554
Na9 O129 2.440456 1_555
Na9 O57 2.448609 1_555
Na9 O63 2.466901 1_555
Na9 O9 2.476356 1_555
Na9 O15 2.568997 1_555
Na9 O135 2.665936 1_555
Na10 O64 2.346466 1_555
Na10 O16 2.349096 1_555
Na10 O58 2.467747 1_555
Na10 O136 2.514137 1_555
Na10 O10 2.598895 1_555
Na10 O130 2.623781 1_555
Na11 O11 2.467396 1_555
Na11 O59 2.470242 1_555
Na11 O65 2.506061 1_555
Na11 O137 2.534936 1_555
Na11 O131 2.542188 1_555
Na11 O17 2.578724 1_555
Na12 O12 2.385593 1_555
Na12 O105 2.476197 1_555
Na12 O74 2.488705 1_545
Na12 O15 2.520184 1_555
Na12 O135 2.799536 1_555
Na12 O77 2.858696 1_545
Na12 O101 2.877730 1_545
Na12 O132 2.924647 1_555
Na12 O102 2.952972 1_556
Na13 O16 2.397210 1_555
Na13 O13 2.476839 1_555
Na13 O136 2.486477 1_555
Na13 O103 2.595702 1_556
Na13 O106 2.673679 1_555
Na13 O133 2.766202 1_555
Na13 O75 2.938113 1_555
Na13 O72 2.985066 1_555
Na14 O107 2.457925 1_555
Na14 O14 2.458886 1_555
Na14 O17 2.471875 1_555
Na14 O137 2.609514 1_555
Na14 O73 2.627782 1_555
Na14 O104 2.872608 1_556
Na14 O134 2.875840 1_555
Na14 O76 2.925859 1_555
Na15 O99 2.335380 1_555
Na15 O18 2.390400 1_555
Na15 O138 2.473792 1_555
Na15 O21 2.501884 1_555
Na15 O96 2.708027 1_554
Na15 O141 2.716023 1_555
Na16 O100 2.272846 1_555
Na16 O19 2.321042 1_555
Na16 O139 2.425851 1_555
Na16 O22 2.434012 1_555
Na16 O142 2.713222 1_555
Na16 O97 2.746825 1_554
Na16 O80 2.981728 1_555
Na17 O101 2.313495 1_555
Na17 O140 2.365953 1_555
Na17 O20 2.387819 1_555
Na17 O23 2.399737 1_555
Na17 O143 2.630471 1_555
Na17 O98 2.889906 1_554
Na18 O117 2.457925 1_555
Na18 O0 2.458886 1_655
Na18 O3 2.471875 1_555
Na18 O123 2.609514 1_555
Na18 O84 2.627782 1_555
Na18 O114 2.872608 1_656
Na18 O120 2.875840 1_655
Na18 O87 2.925859 1_655
Na19 O1 2.385593 1_655
Na19 O118 2.476197 1_555
Na19 O85 2.488705 1_555
Na19 O4 2.520184 1_555
Na19 O124 2.799536 1_555
Na19 O88 2.858696 1_655
Na19 O112 2.877730 1_655
Na19 O121 2.924647 1_655
Na19 O115 2.952972 1_656
Na20 O5 2.397210 1_555
Na20 O2 2.476839 1_655
Na20 O125 2.486477 1_555
Na20 O116 2.595702 1_656
Na20 O119 2.673679 1_555
Na20 O122 2.766202 1_655
Na20 O89 2.938113 1_655
Na20 O86 2.985066 1_555
Na21 O111 2.272846 1_555
Na21 O6 2.321042 1_455
Na21 O126 2.425851 1_455
Na21 O9 2.434012 1_555
Na21 O129 2.713222 1_555
Na21 O108 2.746825 1_454
Na21 O90 2.981728 1_555
Na22 O112 2.313495 1_555
Na22 O127 2.365953 1_455
Na22 O7 2.387819 1_455
Na22 O10 2.399737 1_555
Na22 O130 2.630471 1_555
Na22 O109 2.889906 1_454
Na23 O113 2.335380 1_655
Na23 O8 2.390400 1_555
Na23 O128 2.473792 1_555
Na23 O11 2.501884 1_655
Na23 O110 2.708027 1_554
Na23 O131 2.716023 1_655
Na24 O54 2.392213 1_565
Na24 O126 2.406630 1_565
Na24 O77 2.547248 1_554
Na24 O71 2.578065 1_555
Na25 O18 2.353021 1_555
Na25 O72 2.355244 1_555
Na25 O66 2.398647 1_555
Na25 O130 2.524709 1_555
Na25 O58 2.588900 1_555
Na26 O74 2.334959 1_555
Na26 O68 2.386045 1_555
Na26 O129 2.438328 1_565
Na26 O20 2.524327 1_555
Na26 O57 2.553292 1_565
Na26 O44 2.895278 1_555
Na26 O39 2.976863 1_564
Na27 O82 2.344756 1_556
Na27 O16 2.433137 1_555
Na27 O120 2.538811 1_555
Na27 O48 2.587171 1_555
Na27 O64 2.617854 1_555
Na27 O40 2.933659 1_555
Na27 O42 2.994016 1_555
Na28 O53 2.364109 1_545
Na28 O125 2.436267 1_545
Na28 O78 2.571271 1_555
Na28 O60 2.591371 1_555
Na28 O36 2.720468 1_555
Na28 O12 2.882306 1_555
Na28 O47 2.884599 1_546
Na29 O80 2.421879 1_555
Na29 O38 2.481462 1_555
Na29 O62 2.513866 1_555
Na29 O124 2.574830 1_555
Na29 O86 2.658627 1_555
Na29 O52 2.670337 1_555
Na30 O67 2.392213 1_555
Na30 O139 2.406630 1_555
Na30 O88 2.547248 1_554
Na30 O58 2.578065 1_555
Na31 O85 2.334959 1_555
Na31 O55 2.386045 1_555
Na31 O142 2.438328 1_555
Na31 O7 2.524327 1_555
Na31 O70 2.553292 1_555
Na31 O31 2.895278 1_555
Na31 O28 2.976863 1_554
Na32 O8 2.353021 1_555
Na32 O86 2.355244 1_555
Na32 O56 2.398647 1_555
Na32 O143 2.524709 1_555
Na32 O71 2.588900 1_555
Na33 O95 2.344756 1_556
Na33 O5 2.433137 1_555
Na33 O134 2.538811 1_555
Na33 O62 2.587171 1_555
Na33 O53 2.617854 1_555
Na33 O29 2.933659 1_555
Na33 O32 2.994016 1_555
Na34 O90 2.421879 1_555
Na34 O24 2.481462 1_555
Na34 O48 2.513866 1_555
Na34 O135 2.574830 1_555
Na34 O72 2.658627 1_555
Na34 O63 2.670337 1_555
Na35 O64 2.364109 1_555
Na35 O136 2.436267 1_555
Na35 O91 2.571271 1_555
Na35 O49 2.591371 1_555
Na35 O25 2.720468 1_555
Na35 O1 2.882306 1_555
Na35 O34 2.884599 1_556
Mg0 O95 1.990254 1_556
Mg0 O47 2.028873 1_556
Mg0 O116 2.073825 1_656
Mg0 O5 2.097859 1_555
Mg0 O53 2.126454 1_555
Mg0 O125 2.164438 1_555
Mg1 O84 1.984444 1_555
Mg1 O111 2.089207 1_655
Mg1 O36 2.106568 1_555
Mg1 O6 2.115936 1_555
Mg1 O54 2.148835 1_555
Mg1 O126 2.188943 1_555
Mg2 O37 1.930344 1_555
Mg2 O112 2.038421 1_655
Mg2 O85 2.053507 1_555
Mg2 O55 2.205604 1_555
Mg2 O7 2.221341 1_555
Mg2 O127 2.229566 1_555
Mg3 O86 2.024262 1_555
Mg3 O113 2.046699 1_655
Mg3 O38 2.061218 1_555
Mg3 O8 2.143852 1_555
Mg3 O56 2.147539 1_555
Mg3 O128 2.172298 1_555
Mg4 O82 1.990254 1_556
Mg4 O34 2.028873 1_556
Mg4 O103 2.073825 1_556
Mg4 O16 2.097859 1_555
Mg4 O64 2.126454 1_555
Mg4 O136 2.164438 1_555
Mg5 O72 2.024262 1_555
Mg5 O99 2.046699 1_555
Mg5 O24 2.061218 1_555
Mg5 O18 2.143852 1_555
Mg5 O66 2.147539 1_555
Mg5 O138 2.172298 1_555
Mg6 O73 1.984444 1_555
Mg6 O100 2.089207 1_555
Mg6 O25 2.106568 1_555
Mg6 O19 2.115936 1_555
Mg6 O67 2.148835 1_555
Mg6 O139 2.188943 1_555
Mg7 O26 1.930344 1_555
Mg7 O101 2.038421 1_555
Mg7 O74 2.053507 1_555
Mg7 O68 2.205604 1_555
Mg7 O20 2.221341 1_555
Mg7 O140 2.229566 1_555
Nb0 O117 1.974248 1_455
Nb0 O120 1.989133 1_555
Nb0 O90 2.006406 1_555
Nb0 O0 2.019969 1_555
Nb0 O48 2.036904 1_555
Nb0 O42 2.068595 1_555
Nb1 O91 1.944620 1_555
Nb1 O49 2.005060 1_555
Nb1 O118 2.005993 1_455
Nb1 O1 2.007699 1_555
Nb1 O43 2.014125 1_555
Nb1 O121 2.106676 1_555
Nb2 O119 1.972604 1_455
Nb2 O92 1.998756 1_555
Nb2 O50 2.001060 1_555
Nb2 O2 2.008237 1_555
Nb2 O44 2.038472 1_555
Nb2 O122 2.065277 1_555
Nb3 O93 1.915435 1_556
Nb3 O51 1.990619 1_555
Nb3 O114 1.994676 1_656
Nb3 O3 2.001024 1_555
Nb3 O123 2.026883 1_555
Nb3 O45 2.043980 1_556
Nb4 O94 1.884989 1_556
Nb4 O115 1.951961 1_656
Nb4 O4 1.970422 1_555
Nb4 O52 2.035416 1_555
Nb4 O46 2.037105 1_556
Nb4 O124 2.145177 1_555
Nb5 O87 1.901756 1_554
Nb5 O108 1.976259 1_454
Nb5 O9 2.025847 1_555
Nb5 O39 2.035123 1_554
Nb5 O57 2.036966 1_555
Nb5 O129 2.170334 1_555
Nb6 O40 1.925828 1_554
Nb6 O88 1.946276 1_554
Nb6 O109 1.975068 1_454
Nb6 O58 2.052489 1_555
Nb6 O10 2.085425 1_555
Nb6 O130 2.182761 1_555
Nb7 O89 1.904680 1_554
Nb7 O110 1.982022 1_454
Nb7 O59 1.989488 1_555
Nb7 O41 2.012269 1_554
Nb7 O11 2.120735 1_555
Nb7 O131 2.142340 1_555
Nb8 O78 1.944620 1_555
Nb8 O60 2.005060 1_555
Nb8 O105 2.005993 1_555
Nb8 O12 2.007699 1_555
Nb8 O30 2.014125 1_555
Nb8 O132 2.106676 1_555
Nb9 O106 1.972604 1_555
Nb9 O79 1.998756 1_555
Nb9 O61 2.001060 1_555
Nb9 O13 2.008237 1_555
Nb9 O31 2.038472 1_555
Nb9 O133 2.065277 1_555
Nb10 O107 1.974248 1_555
Nb10 O134 1.989133 1_555
Nb10 O80 2.006406 1_555
Nb10 O14 2.019969 1_555
Nb10 O62 2.036904 1_555
Nb10 O32 2.068595 1_555
Nb11 O81 1.884989 1_556
Nb11 O102 1.951961 1_556
Nb11 O15 1.970422 1_555
Nb11 O63 2.035416 1_555
Nb11 O33 2.037105 1_556
Nb11 O135 2.145177 1_555
Nb12 O83 1.915435 1_556
Nb12 O65 1.990619 1_555
Nb12 O104 1.994676 1_556
Nb12 O17 2.001024 1_555
Nb12 O137 2.026883 1_555
Nb12 O35 2.043980 1_556
Nb13 O75 1.904680 1_554
Nb13 O96 1.982022 1_554
Nb13 O69 1.989488 1_555
Nb13 O27 2.012269 1_554
Nb13 O21 2.120735 1_555
Nb13 O141 2.142340 1_555
Nb14 O76 1.901756 1_554
Nb14 O97 1.976259 1_554
Nb14 O22 2.025847 1_555
Nb14 O28 2.035123 1_554
Nb14 O70 2.036966 1_555
Nb14 O142 2.170334 1_555
Nb15 O29 1.925828 1_554
Nb15 O77 1.946276 1_554
Nb15 O98 1.975068 1_554
Nb15 O71 2.052489 1_555
Nb15 O23 2.085425 1_555
Nb15 O143 2.182761 1_555
O0 Si16 1.673291 1_555
O1 Si17 1.685616 1_555
O2 Si18 1.676288 1_555
O3 Si13 1.648087 1_555
O4 Si14 1.686526 1_555
O5 Si15 1.610640 1_555
O6 Si21 1.592671 1_555
O7 Si22 1.602742 1_555
O8 Si23 1.610024 1_555
O9 Si19 1.670951 1_555
O10 Si20 1.659399 1_555
O11 P11 1.584725 1_555
O12 Si7 1.685616 1_545
O13 Si5 1.676288 1_555
O14 Si6 1.673291 1_555
O15 Si4 1.686526 1_545
O16 Si2 1.610640 1_555
O17 Si3 1.648087 1_555
O18 Si11 1.610024 1_555
O19 Si12 1.592671 1_555
O20 Si10 1.602742 1_565
O21 P10 1.584725 1_555
O22 Si9 1.670951 1_555
O23 Si8 1.659399 1_565
O24 P5 1.501493 1_555
O25 P6 1.513539 1_555
O26 Si1 1.562536 1_555
O27 P5 1.572012 1_555
O28 P6 1.591490 1_555
O29 Si1 1.690785 1_555
O30 P7 1.570470 1_555
O31 P8 1.586190 1_555
O32 P9 1.573749 1_555
O33 P7 1.555474 1_555
O34 P8 1.514466 1_555
O35 P9 1.540491 1_555
O36 P1 1.513539 1_645
O37 Si0 1.562536 1_555
O38 P0 1.501493 1_655
O39 P1 1.591490 1_545
O40 Si0 1.690785 1_455
O41 P0 1.572012 1_555
O42 P3 1.573749 1_555
O43 P4 1.570470 1_555
O44 P2 1.586190 1_565
O45 P3 1.540491 1_655
O46 P4 1.555474 1_655
O47 P2 1.514466 1_665
O48 Si2 1.679627 1_555
O49 Si3 1.651812 1_555
O50 Si4 1.636235 1_555
O51 Si5 1.637183 1_555
O52 Si6 1.650940 1_555
O53 Si7 1.605413 1_555
O54 Si8 1.590896 1_555
O55 P10 1.526244 1_555
O56 Si9 1.587622 1_555
O57 Si10 1.648185 1_555
O58 Si11 1.689211 1_555
O59 Si12 1.653629 1_555
O60 Si13 1.651812 1_555
O61 Si14 1.636235 1_555
O62 Si15 1.679627 1_555
O63 Si16 1.650940 1_555
O64 Si17 1.605413 1_555
O65 Si18 1.637183 1_555
O66 Si19 1.587622 1_555
O67 Si20 1.590896 1_555
O68 P11 1.526244 1_555
O69 Si21 1.653629 1_555
O70 Si22 1.648185 1_555
O71 Si23 1.689211 1_555
O72 Si2 1.597242 1_555
O73 Si3 1.581003 1_555
O74 Si4 1.594990 1_555
O75 Si5 1.697756 1_555
O76 Si6 1.695602 1_555
O77 Si7 1.722629 1_555
O78 Si8 1.692496 1_555
O79 P10 1.602519 1_555
O80 Si9 1.687971 1_555
O81 Si10 1.666289 1_555
O82 Si11 1.597214 1_555
O83 Si12 1.649903 1_555
O84 Si13 1.581003 1_555
O85 Si14 1.594990 1_555
O86 Si15 1.597242 1_555
O87 Si16 1.695602 1_555
O88 Si17 1.722629 1_555
O89 Si18 1.697756 1_555
O90 Si19 1.687971 1_555
O91 Si20 1.692496 1_555
O92 P11 1.602519 1_555
O93 Si21 1.649903 1_555
O94 Si22 1.666289 1_555
O95 Si23 1.597214 1_555
O96 Si2 1.699278 1_555
O97 Si3 1.691503 1_555
O98 Si4 1.666133 1_555
O99 Si5 1.581211 1_555
O100 Si6 1.573637 1_555
O101 Si7 1.589905 1_555
O102 Si8 1.657239 1_555
O103 P10 1.513251 1_555
O104 Si9 1.639216 1_555
O105 Si10 1.662121 1_555
O106 Si11 1.702304 1_555
O107 Si12 1.679846 1_555
O108 Si13 1.691503 1_555
O109 Si14 1.666133 1_555
O110 Si15 1.699278 1_555
O111 Si16 1.573637 1_555
O112 Si17 1.589905 1_555
O113 Si18 1.581211 1_555
O114 Si19 1.639216 1_555
O115 Si20 1.657239 1_555
O116 P11 1.513251 1_555
O117 Si21 1.679846 1_555
O118 Si22 1.662121 1_555
O119 Si23 1.702304 1_555
O120 Si0 1.679130 1_455
O121 P0 1.552565 1_555
O122 P1 1.576813 1_555
O123 Si0 1.642662 1_555
O124 P0 1.575271 1_655
O125 P1 1.536346 1_655
O126 P2 1.524341 1_655
O127 P3 1.522661 1_655
O128 P4 1.517844 1_655
O129 P2 1.581123 1_555
O130 P3 1.575146 1_555
O131 P4 1.561868 1_555
O132 P5 1.552565 1_555
O133 P6 1.576813 1_555
O134 Si1 1.679130 1_555
O135 P5 1.575271 1_555
O136 P6 1.536346 1_555
O137 Si1 1.642662 1_555
O138 P7 1.517844 1_555
O139 P8 1.524341 1_555
O140 P9 1.522661 1_555
O141 P7 1.561868 1_555
O142 P8 1.581123 1_555
O143 P9 1.575146 1_555
