# generated using pymatgen
data_MgTe4Mo2W2(SeS)2
_symmetry_space_group_name_H-M   'P 1'
_cell_length_a   3.39023902
_cell_length_b   3.38968417
_cell_length_c   46.77547300
_cell_angle_alpha   90.00184405
_cell_angle_beta   89.99892883
_cell_angle_gamma   119.99415589
_symmetry_Int_Tables_number   1
_chemical_formula_structural   MgTe4Mo2W2(SeS)2
_chemical_formula_sum   'Mg1 Te4 Mo2 W2 Se2 S2'
_cell_volume   465.54744150
_cell_formula_units_Z   1
loop_
 _symmetry_equiv_pos_site_id
 _symmetry_equiv_pos_as_xyz
  1  'x, y, z'
loop_
 _atom_site_type_symbol
 _atom_site_label
 _atom_site_symmetry_multiplicity
 _atom_site_fract_x
 _atom_site_fract_y
 _atom_site_fract_z
 _atom_site_occupancy
  Mg  Mg0  1  0.00002600  0.00005000  0.55863600  1
  Te  Te0  1  0.33356600  0.66709000  0.32197400  1
  Te  Te1  1  0.33328800  0.66668900  0.70451600  1
  Te  Te2  1  0.33355900  0.66707200  0.24177700  1
  Te  Te3  1  0.33322700  0.66658600  0.62352500  1
  Mo  Mo0  1  0.33322800  0.66650200  0.09404100  1
  Mo  Mo1  1  0.66691000  0.33372600  0.28187400  1
  W  W0  1  0.33319100  0.66642400  0.46065400  1
  W  W1  1  0.66663300  0.33331900  0.66422300  1
  Se  Se0  1  0.66655700  0.33310100  0.05874500  1
  Se  Se1  1  0.66656900  0.33314300  0.12935700  1
  S  S0  1  0.66662400  0.33314400  0.42855900  1
  S  S1  1  0.66662300  0.33314900  0.49294900  1
loop_
_geom_bond_atom_site_label_1
_geom_bond_atom_site_label_2
_geom_bond_distance
_geom_bond_site_symmetry_2
Te1 W1 2.717056 1_565
Te1 W1 2.717151 1_555
Te1 W1 2.717308 1_455
Te3 W1 2.730317 1_555
Te3 W1 2.730345 1_455
Te3 W1 2.730377 1_565
Mo0 Se0 2.560388 1_565
Mo0 Se0 2.560602 1_555
Mo0 Se0 2.560765 1_455
Mo0 Se1 2.561019 1_565
Mo0 Se1 2.561212 1_555
Mo0 Se1 2.561334 1_455
Mo1 Te2 2.710684 1_545
Mo1 Te0 2.710815 1_545
Mo1 Te2 2.710842 1_555
Mo1 Te0 2.710883 1_555
Mo1 Te2 2.710937 1_655
Mo1 Te0 2.711057 1_655
S0 W0 2.466646 1_655
S0 W0 2.466683 1_555
S0 W0 2.466776 1_545
S1 W0 2.472346 1_655
S1 W0 2.472429 1_545
S1 W0 2.472444 1_555
