# generated using pymatgen
data_Na10Y7Nb(PO4)12
_symmetry_space_group_name_H-M   'P 1'
_cell_length_a   18.53994667
_cell_length_b   9.28189283
_cell_length_c   23.63669455
_cell_angle_alpha   89.96662375
_cell_angle_beta   90.06761643
_cell_angle_gamma   120.14945702
_symmetry_Int_Tables_number   1
_chemical_formula_structural   Na10Y7Nb(PO4)12
_chemical_formula_sum   'Na30 Y21 Nb3 P36 O144'
_cell_volume   3517.27294073
_cell_formula_units_Z   3
loop_
 _symmetry_equiv_pos_site_id
 _symmetry_equiv_pos_as_xyz
  1  'x, y, z'
loop_
 _atom_site_type_symbol
 _atom_site_label
 _atom_site_symmetry_multiplicity
 _atom_site_fract_x
 _atom_site_fract_y
 _atom_site_fract_z
 _atom_site_occupancy
  Na  Na0  1  0.31732726  0.99930594  0.25234868  1
  Na  Na1  1  0.68343992  0.36485062  0.25223766  1
  Na  Na2  1  0.31443905  0.63140093  0.75403787  1
  Na  Na3  1  0.81444818  0.63120824  0.75364009  1
  Na  Na4  1  0.15248833  0.33415477  0.58218816  1
  Na  Na5  1  0.65239369  0.33454395  0.58235964  1
  Na  Na6  1  0.01387102  0.69640912  0.58297860  1
  Na  Na7  1  0.51477332  0.69556190  0.58258376  1
  Na  Na8  1  0.33250406  0.96915854  0.58224216  1
  Na  Na9  1  0.83369431  0.97124518  0.58208963  1
  Na  Na10  1  0.15234241  0.97086189  0.08206396  1
  Na  Na11  1  0.65287578  0.97207421  0.08304391  1
  Na  Na12  1  0.33290340  0.69482310  0.08286025  1
  Na  Na13  1  0.83303692  0.69507751  0.08255830  1
  Na  Na14  1  0.01420795  0.33325849  0.08201717  1
  Na  Na15  1  0.51439280  0.33308454  0.08312303  1
  Na  Na16  1  0.66759885  0.03277750  0.41440373  1
  Na  Na17  1  0.34736596  0.66536703  0.41360186  1
  Na  Na18  1  0.00012658  0.99930711  0.49477949  1
  Na  Na19  1  0.49970752  0.01181299  0.49443275  1
  Na  Na20  1  0.99995155  0.00007003  0.99701689  1
  Na  Na21  1  0.50003766  0.99968759  0.99716902  1
  Na  Na22  1  0.33340451  0.32262807  0.83671790  1
  Na  Na23  1  0.83345775  0.32277694  0.83675074  1
  Na  Na24  1  0.33375551  0.33417401  0.33263098  1
  Na  Na25  1  0.84372024  0.34355371  0.33322468  1
  Na  Na26  1  0.16277216  0.65448732  0.17110974  1
  Na  Na27  1  0.66555466  0.67885207  0.17128332  1
  Na  Na28  1  0.16084599  0.66668887  0.67123531  1
  Na  Na29  1  0.66086800  0.66609700  0.67130393  1
  Y  Y0  1  0.49972200  0.00499192  0.34925205  1
  Y  Y1  1  0.00187738  0.00373553  0.65327742  1
  Y  Y2  1  0.50179476  0.00303926  0.65261068  1
  Y  Y3  1  0.99981972  0.99905072  0.15310185  1
  Y  Y4  1  0.50024090  0.99698734  0.15280438  1
  Y  Y5  1  0.33371459  0.32533025  0.68960462  1
  Y  Y6  1  0.83365609  0.32540200  0.68992670  1
  Y  Y7  1  0.33167609  0.34082638  0.18611936  1
  Y  Y8  1  0.83931950  0.33307617  0.18797136  1
  Y  Y9  1  0.33327469  0.33405819  0.97840014  1
  Y  Y10  1  0.83325964  0.33414101  0.97851544  1
  Y  Y11  1  0.33230739  0.32362190  0.48027671  1
  Y  Y12  1  0.83804182  0.34301887  0.47971557  1
  Y  Y13  1  0.16653635  0.66720942  0.00821006  1
  Y  Y14  1  0.66651227  0.66649347  0.00862324  1
  Y  Y15  1  0.16127920  0.66179675  0.51019621  1
  Y  Y16  1  0.66973754  0.66703084  0.51119402  1
  Y  Y17  1  0.16265999  0.65976547  0.31634654  1
  Y  Y18  1  0.66460534  0.66916561  0.31668942  1
  Y  Y19  1  0.16292483  0.66729395  0.81774390  1
  Y  Y20  1  0.66295730  0.66734461  0.81778148  1
  Nb  Nb0  1  0.00025294  0.99941452  0.34956396  1
  Nb  Nb1  1  0.00128438  0.00272940  0.85191942  1
  Nb  Nb2  1  0.50130163  0.00268932  0.85188803  1
  P  P0  1  0.14663817  -0.00008217  0.25163571  1
  P  P1  1  0.65115644  0.00209564  0.24998194  1
  P  P2  1  0.34840740  0.70120006  0.25085543  1
  P  P3  1  0.85353091  0.70582446  0.25187284  1
  P  P4  1  0.99976613  0.28891734  0.25140231  1
  P  P5  1  0.49993613  0.29981233  0.24757170  1
  P  P6  1  0.14679724  0.29392476  0.75214688  1
  P  P7  1  0.64661192  0.29353162  0.75208104  1
  P  P8  1  -0.00044743  0.71086485  0.75141421  1
  P  P9  1  0.49955209  0.71099326  0.75133096  1
  P  P10  1  0.35531461  0.99809333  0.75224007  1
  P  P11  1  0.85516785  0.99794641  0.75232368  1
  P  P12  1  0.48234610  0.33529636  0.58390059  1
  P  P13  1  0.98149534  0.33416303  0.58397857  1
  P  P14  1  0.18501548  0.03467174  0.58378797  1
  P  P15  1  0.68610222  0.03704920  0.58164390  1
  P  P16  1  0.33205993  0.62806024  0.58358326  1
  P  P17  1  0.83303082  0.62927985  0.58632457  1
  P  P18  1  0.48212803  0.62900401  0.08226432  1
  P  P19  1  0.98270046  0.62974323  0.08245430  1
  P  P20  1  0.33199522  0.03523838  0.08440933  1
  P  P21  1  0.83266558  0.03601985  0.08240144  1
  P  P22  1  0.18448311  0.33491011  0.08175282  1
  P  P23  1  0.68634314  0.33610197  0.08478020  1
  P  P24  1  0.32069328  0.67426318  0.91305339  1
  P  P25  1  0.82062691  0.67422923  0.91306077  1
  P  P26  1  0.01598623  0.35808948  0.91540556  1
  P  P27  1  0.51605196  0.35795131  0.91543066  1
  P  P28  1  0.16315728  0.96797830  0.91521560  1
  P  P29  1  0.66311585  0.96770171  0.91524301  1
  P  P30  1  0.31647337  0.96266552  0.41593453  1
  P  P31  1  0.82098120  0.96763298  0.41551789  1
  P  P32  1  0.16268511  0.35909792  0.41572531  1
  P  P33  1  0.66669104  0.36302540  0.41608763  1
  P  P34  1  0.01665269  0.67733804  0.41483637  1
  P  P35  1  0.51625734  0.66930701  0.41827551  1
  O  O0  1  0.09197756  0.00953971  0.30200741  1
  O  O1  1  0.60761042  0.02292577  0.30289924  1
  O  O2  1  0.40028277  0.78666171  0.30446732  1
  O  O3  1  0.91329778  0.81553777  0.30231068  1
  O  O4  1  0.48769980  0.18588525  0.29850290  1
  O  O5  1  0.99554689  0.16882166  0.30192142  1
  O  O6  1  0.09335704  0.17577589  0.80217499  1
  O  O7  1  0.59324430  0.17567683  0.80219797  1
  O  O8  1  0.49354505  0.81844982  0.80138225  1
  O  O9  1  0.99356397  0.81850603  0.80143298  1
  O  O10  1  0.41494214  0.01132823  0.80242164  1
  O  O11  1  0.91490527  0.01138476  0.80242848  1
  O  O12  1  0.39213025  0.97658356  0.69633894  1
  O  O13  1  0.89183564  0.97655085  0.69637073  1
  O  O14  1  0.10096797  0.22108604  0.69587671  1
  O  O15  1  0.60071622  0.22027421  0.69584321  1
  O  O16  1  0.00846902  0.80191806  0.69507547  1
  O  O17  1  0.50858001  0.80216513  0.69497564  1
  O  O18  1  0.39101797  0.80602304  0.19686802  1
  O  O19  1  0.89068849  0.79928087  0.19611640  1
  O  O20  1  0.00772139  0.21427666  0.19526250  1
  O  O21  1  0.51181934  0.22124958  0.19289124  1
  O  O22  1  0.10025335  0.98271043  0.19581750  1
  O  O23  1  0.60041975  0.98332607  0.19547722  1
  O  O24  1  0.44107911  0.36203458  0.63653493  1
  O  O25  1  0.94030810  0.36093077  0.63652249  1
  O  O26  1  0.24030795  0.11718595  0.63628673  1
  O  O27  1  0.74221888  0.12393732  0.63346078  1
  O  O28  1  0.31984255  0.52093776  0.63718737  1
  O  O29  1  0.82019394  0.52468551  0.64050586  1
  O  O30  1  0.44163854  0.52076161  0.13526313  1
  O  O31  1  0.94311701  0.52141083  0.13567707  1
  O  O32  1  0.31791408  0.10978863  0.13943267  1
  O  O33  1  0.81898901  0.11686793  0.13541568  1
  O  O34  1  0.23852777  0.36358085  0.13487892  1
  O  O35  1  0.73827261  0.36340666  0.13961851  1
  O  O36  1  0.22590165  0.30598848  0.03031047  1
  O  O37  1  0.72940609  0.30810934  0.03387933  1
  O  O38  1  0.42645718  0.54716400  0.03045028  1
  O  O39  1  0.92659866  0.54760325  0.03087190  1
  O  O40  1  0.34610235  0.15067971  0.03388663  1
  O  O41  1  0.84748201  0.14753568  0.03067678  1
  O  O42  1  0.22535356  0.14483330  0.53166784  1
  O  O43  1  0.72480660  0.14036185  0.52740378  1
  O  O44  1  0.34522412  0.54666030  0.53051451  1
  O  O45  1  0.84651512  0.54385195  0.53495926  1
  O  O46  1  0.42697546  0.30537201  0.53176692  1
  O  O47  1  0.92718439  0.30566410  0.53142472  1
  O  O48  1  0.28496851  0.70708006  0.96787013  1
  O  O49  1  0.78488799  0.70688596  0.96790376  1
  O  O50  1  0.06626722  0.42446827  0.97118557  1
  O  O51  1  0.56637909  0.42430949  0.97122355  1
  O  O52  1  0.14567234  0.86737353  0.97097283  1
  O  O53  1  0.64570975  0.86675463  0.97091618  1
  O  O54  1  0.27349029  0.85672137  0.47018201  1
  O  O55  1  0.78860219  0.86986923  0.47197190  1
  O  O56  1  0.14537035  0.42419086  0.47180162  1
  O  O57  1  0.65884218  0.44635446  0.47109490  1
  O  O58  1  0.06457894  0.70897998  0.47172053  1
  O  O59  1  0.56779269  0.69192845  0.47326429  1
  O  O60  1  0.06295418  0.65375522  0.36614082  1
  O  O61  1  0.56145819  0.64950044  0.36732454  1
  O  O62  1  0.26496997  0.87612475  0.36271270  1
  O  O63  1  0.75966146  0.87521496  0.36748304  1
  O  O64  1  0.17822720  0.48042081  0.36739806  1
  O  O65  1  0.67445249  0.46664460  0.36314719  1
  O  O66  1  0.06240598  0.47258038  0.86572709  1
  O  O67  1  0.56228004  0.47264050  0.86574289  1
  O  O68  1  0.17432235  0.87577043  0.86554362  1
  O  O69  1  0.67447937  0.87617369  0.86548589  1
  O  O70  1  0.26628274  0.65252978  0.86112698  1
  O  O71  1  0.76626499  0.65249397  0.86116080  1
  O  O72  1  0.00819429  0.83810187  0.40318395  1
  O  O73  1  0.51087612  0.83125733  0.41383818  1
  O  O74  1  0.40173323  0.96788708  0.41425796  1
  O  O75  1  0.90937318  0.98731202  0.40307317  1
  O  O76  1  0.08437495  0.18188380  0.40330854  1
  O  O77  1  0.58898171  0.18472462  0.41440830  1
  O  O78  1  0.00880132  0.18090735  0.90342667  1
  O  O79  1  0.50887363  0.18087497  0.90344263  1
  O  O80  1  0.08204348  0.98314107  0.90303559  1
  O  O81  1  0.58198929  0.98297273  0.90302790  1
  O  O82  1  0.41024038  0.83736572  0.90302458  1
  O  O83  1  0.91023251  0.83729834  0.90300064  1
  O  O84  1  0.49232672  0.17805341  0.58874424  1
  O  O85  1  0.99210237  0.17793724  0.58881957  1
  O  O86  1  0.09647090  0.01516830  0.58882521  1
  O  O87  1  0.59762774  0.01774812  0.58774028  1
  O  O88  1  0.41085115  0.80635353  0.58838585  1
  O  O89  1  0.91161606  0.80768910  0.58934038  1
  O  O90  1  0.49244044  0.80674981  0.08771503  1
  O  O91  1  0.99284705  0.80714989  0.08821543  1
  O  O92  1  0.41067212  0.01438726  0.08828311  1
  O  O93  1  0.91101531  0.01442164  0.08812870  1
  O  O94  1  0.09558955  0.17734926  0.08767347  1
  O  O95  1  0.59701602  0.17836561  0.08846493  1
  O  O96  1  0.34861312  0.15600053  0.75200615  1
  O  O97  1  0.84838965  0.15572987  0.75205873  1
  O  O98  1  0.23390043  0.30943281  0.75189543  1
  O  O99  1  0.73364193  0.30863287  0.75193819  1
  O  O100  1  0.41529411  0.54422330  0.75138445  1
  O  O101  1  0.91543912  0.54396270  0.75158202  1
  O  O102  1  0.33833871  0.52674768  0.24730800  1
  O  O103  1  0.84692045  0.53308248  0.25249325  1
  O  O104  1  0.41884118  0.30851209  0.24458750  1
  O  O105  1  0.91892807  0.29620244  0.25361605  1
  O  O106  1  0.23394625  0.15783301  0.25270829  1
  O  O107  1  0.73549155  0.16936979  0.24647643  1
  O  O108  1  0.33355019  0.52467255  0.91898403  1
  O  O109  1  0.83347848  0.52459187  0.91900775  1
  O  O110  1  0.42784517  0.33043119  0.91981022  1
  O  O111  1  0.92789717  0.33111226  0.91970507  1
  O  O112  1  0.23805878  0.14372718  0.91965887  1
  O  O113  1  0.73774319  0.14399680  0.91984806  1
  O  O114  1  0.32733420  0.13761990  0.41983939  1
  O  O115  1  0.82753288  0.13950774  0.42058391  1
  O  O116  1  0.24265571  0.34805725  0.42108702  1
  O  O117  1  0.74358495  0.33825043  0.41925507  1
  O  O118  1  0.42607660  0.51963474  0.42120954  1
  O  O119  1  0.92871927  0.52579002  0.41901449  1
  O  O120  1  0.17529177  0.49320757  0.07572977  1
  O  O121  1  0.67710741  0.49421259  0.07708724  1
  O  O122  1  0.07123535  0.64895279  0.07614168  1
  O  O123  1  0.57087308  0.64862207  0.07625883  1
  O  O124  1  0.25304771  0.85806811  0.07662863  1
  O  O125  1  0.75331852  0.85870136  0.07621740  1
  O  O126  1  0.17492819  0.85729440  0.57812898  1
  O  O127  1  0.67629052  0.85953243  0.57789316  1
  O  O128  1  0.25275707  0.64641281  0.57768052  1
  O  O129  1  0.75394186  0.64758093  0.57983429  1
  O  O130  1  0.06990364  0.49295972  0.57863508  1
  O  O131  1  0.57111204  0.49301785  0.57820159  1
  O  O132  1  0.15795677  0.84727182  0.25749873  1
  O  O133  1  0.66206735  0.84860730  0.25367080  1
  O  O134  1  0.26353002  0.69740910  0.25322400  1
  O  O135  1  0.76518519  0.68002902  0.25854923  1
  O  O136  1  0.07742542  0.46050580  0.25773948  1
  O  O137  1  0.58128930  0.47035436  0.25329662  1
  O  O138  1  0.15971376  0.47114625  0.75747099  1
  O  O139  1  0.65966069  0.47086671  0.75743938  1
  O  O140  1  0.07527148  0.68734504  0.75696573  1
  O  O141  1  0.57521653  0.68729740  0.75694859  1
  O  O142  1  0.27030025  0.83612549  0.75807283  1
  O  O143  1  0.77018494  0.83607932  0.75814584  1
loop_
_geom_bond_atom_site_label_1
_geom_bond_atom_site_label_2
_geom_bond_distance
_geom_bond_site_symmetry_2
Na0 O134 2.457619 1_555
Na0 O104 2.527267 1_565
Na0 O132 2.559063 1_555
Na0 O106 2.615319 1_565
Na0 O62 2.818184 1_555
Na0 O32 2.856706 1_565
Na0 O4 2.943770 1_565
Na0 O18 3.045309 1_555
Na1 O107 2.449794 1_555
Na1 O137 2.531692 1_555
Na1 O135 2.534503 1_555
Na1 O103 2.621186 1_555
Na1 O65 2.820460 1_555
Na1 O35 2.853018 1_555
Na2 O100 2.382272 1_555
Na2 O142 2.419106 1_555
Na2 O138 2.482378 1_555
Na2 O98 2.584695 1_555
Na2 O70 2.724797 1_555
Na2 O28 2.965947 1_555
Na3 O101 2.384798 1_555
Na3 O143 2.422570 1_555
Na3 O139 2.483685 1_555
Na3 O99 2.589380 1_555
Na3 O71 2.734806 1_555
Na3 O29 2.872178 1_555
Na4 O128 2.540744 1_555
Na4 O85 2.576583 1_455
Na4 O86 2.603947 1_555
Na4 O130 2.605897 1_555
Na4 O56 2.762432 1_555
Na4 O14 2.868930 1_555
Na4 O42 2.954621 1_555
Na4 O28 2.985348 1_555
Na5 O129 2.548633 1_555
Na5 O84 2.571036 1_555
Na5 O131 2.582706 1_555
Na5 O87 2.587320 1_555
Na5 O57 2.807278 1_555
Na5 O15 2.867057 1_555
Na6 O86 2.562559 1_565
Na6 O130 2.574267 1_555
Na6 O89 2.579027 1_455
Na6 O126 2.584710 1_555
Na6 O58 2.776407 1_555
Na6 O16 2.844583 1_555
Na6 O45 2.915596 1_455
Na6 O25 2.981861 1_455
Na7 O131 2.570826 1_555
Na7 O87 2.589030 1_565
Na7 O127 2.591964 1_555
Na7 O88 2.603770 1_555
Na7 O59 2.771927 1_555
Na7 O17 2.857891 1_555
Na7 O24 2.971097 1_555
Na7 O44 2.989115 1_555
Na8 O126 2.564134 1_555
Na8 O88 2.572682 1_555
Na8 O128 2.592803 1_555
Na8 O84 2.605983 1_565
Na8 O54 2.855066 1_555
Na8 O12 2.901132 1_555
Na8 O46 2.956337 1_565
Na8 O26 2.967784 1_565
Na9 O127 2.561456 1_555
Na9 O89 2.573570 1_555
Na9 O85 2.582751 1_565
Na9 O129 2.598525 1_555
Na9 O55 2.750727 1_555
Na9 O13 2.898441 1_555
Na9 O47 2.944413 1_565
Na9 O27 2.963213 1_565
Na10 O91 2.561511 1_455
Na10 O124 2.561796 1_555
Na10 O122 2.587503 1_555
Na10 O94 2.612353 1_565
Na10 O52 2.777733 1_554
Na10 O22 2.878768 1_555
Na10 O36 2.961480 1_565
Na10 O32 2.990073 1_565
Na11 O125 2.563314 1_555
Na11 O90 2.574873 1_555
Na11 O95 2.597670 1_565
Na11 O123 2.601074 1_555
Na11 O53 2.805219 1_554
Na11 O23 2.850923 1_555
Na11 O37 2.940449 1_565
Na11 O33 2.942545 1_565
Na12 O120 2.564242 1_555
Na12 O92 2.568542 1_565
Na12 O90 2.598791 1_555
Na12 O124 2.600424 1_555
Na12 O48 2.878489 1_554
Na12 O18 2.892622 1_555
Na12 O34 2.936490 1_555
Na12 O38 2.969252 1_555
Na13 O121 2.536806 1_555
Na13 O93 2.566868 1_565
Na13 O125 2.601431 1_555
Na13 O91 2.604188 1_555
Na13 O19 2.870596 1_555
Na13 O49 2.871500 1_554
Na13 O39 2.960964 1_555
Na13 O35 2.991784 1_555
Na14 O94 2.565382 1_555
Na14 O122 2.571232 1_555
Na14 O120 2.586939 1_555
Na14 O93 2.598450 1_455
Na14 O50 2.773745 1_554
Na14 O20 2.874540 1_555
Na14 O41 2.939400 1_455
Na14 O31 2.952041 1_455
Na15 O123 2.572890 1_555
Na15 O95 2.575633 1_555
Na15 O92 2.597926 1_555
Na15 O121 2.612732 1_555
Na15 O21 2.785487 1_555
Na15 O51 2.797358 1_554
Na15 O40 2.939935 1_555
Na15 O30 2.956279 1_555
Na16 O117 2.454521 1_555
Na16 O77 2.485667 1_555
Na16 O73 2.545987 1_545
Na16 O115 2.615986 1_555
Na16 O1 2.843042 1_555
Na16 O43 2.861569 1_555
Na16 O63 2.965799 1_545
Na17 O118 2.444082 1_555
Na17 O74 2.461255 1_555
Na17 O116 2.594453 1_555
Na17 O73 2.621424 1_555
Na17 O2 2.788787 1_555
Na17 O64 2.925689 1_555
Na17 O44 2.967303 1_555
Na18 O72 2.679161 1_555
Na18 O76 2.707563 1_565
Na18 O75 2.710267 1_455
Na18 O86 2.807226 1_565
Na18 O89 2.814977 1_455
Na18 O85 2.822208 1_465
Na19 O77 2.495719 1_555
Na19 O74 2.511135 1_545
Na19 O73 2.614141 1_545
Na19 O84 2.754245 1_555
Na19 O87 2.837819 1_555
Na19 O88 2.851367 1_545
Na20 O78 2.730912 1_655
Na20 O83 2.731031 1_545
Na20 O94 2.739999 1_656
Na20 O80 2.743061 1_645
Na20 O93 2.757498 1_556
Na20 O91 2.762214 1_546
Na21 O82 2.732945 1_555
Na21 O79 2.735479 1_565
Na21 O81 2.743939 1_555
Na21 O90 2.747774 1_556
Na21 O92 2.763639 1_566
Na21 O95 2.763978 1_566
Na22 O112 2.604098 1_555
Na22 O110 2.606348 1_555
Na22 O96 2.631305 1_555
Na22 O98 2.683765 1_555
Na22 O108 2.701331 1_555
Na22 O100 2.733020 1_555
Na23 O111 2.602354 1_555
Na23 O113 2.609016 1_555
Na23 O97 2.631386 1_555
Na23 O99 2.684802 1_555
Na23 O109 2.700505 1_555
Na23 O101 2.728655 1_555
Na24 O106 2.573880 1_555
Na24 O102 2.667043 1_555
Na24 O104 2.694764 1_555
Na24 O118 2.704177 1_555
Na24 O114 2.714709 1_555
Na24 O116 2.732771 1_555
Na25 O105 2.510153 1_555
Na25 O103 2.575089 1_555
Na25 O119 2.602941 1_555
Na25 O115 2.714174 1_555
Na25 O117 2.738802 1_555
Na25 O107 2.753156 1_555
Na26 O134 2.580737 1_555
Na26 O136 2.660814 1_555
Na26 O132 2.746755 1_555
Na26 O120 2.780586 1_555
Na26 O122 2.797344 1_555
Na26 O124 2.861150 1_555
Na27 O133 2.526915 1_555
Na27 O137 2.628595 1_555
Na27 O135 2.763597 1_555
Na27 O123 2.775175 1_555
Na27 O125 2.785540 1_555
Na27 O121 2.883493 1_555
Na28 O140 2.640781 1_555
Na28 O138 2.721577 1_555
Na28 O130 2.738259 1_555
Na28 O126 2.752124 1_555
Na28 O142 2.755429 1_555
Na28 O128 2.856679 1_555
Na29 O141 2.642034 1_555
Na29 O139 2.717429 1_555
Na29 O131 2.739130 1_555
Na29 O143 2.755391 1_555
Na29 O127 2.767938 1_555
Na29 O129 2.826436 1_555
Nb0 O5 1.970726 1_465
Nb0 O3 1.998367 1_455
Nb0 O0 2.002042 1_565
Nb0 O72 2.022038 1_555
Nb0 O76 2.063761 1_565
Nb0 O75 2.065414 1_455
Nb1 O80 2.000898 1_545
Nb1 O78 2.001800 1_555
Nb1 O83 2.015966 1_445
Nb1 O11 2.016008 1_455
Nb1 O9 2.030898 1_445
Nb1 O6 2.030919 1_555
Nb2 O81 2.000741 1_545
Nb2 O79 2.002185 1_555
Nb2 O10 2.015309 1_555
Nb2 O82 2.016490 1_545
Nb2 O7 2.028903 1_555
Nb2 O8 2.031051 1_545
O0 P0 1.595754 1_555
O1 P1 1.553422 1_555
O1 Y0 2.213501 1_555
O2 P2 1.546604 1_555
O2 Y0 2.207063 1_565
O3 P3 1.597172 1_555
O4 P5 1.541788 1_555
O4 Y0 2.163489 1_555
O5 P4 1.608003 1_555
O6 P6 1.578732 1_555
O7 P7 1.578897 1_555
O8 P9 1.587476 1_555
O9 P8 1.587909 1_655
O10 P10 1.582642 1_545
O11 P11 1.582112 1_545
O12 P10 1.546271 1_555
O12 Y2 2.183015 1_565
O13 P11 1.545560 1_555
O13 Y1 2.179670 1_665
O14 P6 1.539278 1_555
O14 Y1 2.175755 1_555
O15 P7 1.539660 1_555
O15 Y2 2.180997 1_555
O16 P8 1.540710 1_555
O16 Y1 2.174303 1_565
O17 P9 1.541249 1_555
O17 Y2 2.174403 1_565
O18 P2 1.558191 1_555
O18 Y4 2.173578 1_555
O19 P3 1.537672 1_555
O19 Y3 2.190818 1_555
O20 P4 1.538419 1_455
O20 Y3 2.171029 1_445
O21 P5 1.553675 1_555
O21 Y4 2.197682 1_545
O22 P0 1.537973 1_565
O22 Y3 2.188299 1_455
O23 P1 1.551681 1_565
O23 Y4 2.171417 1_555
O24 P12 1.545344 1_555
O24 Y5 2.230689 1_555
O25 P13 1.542881 1_555
O25 Y6 2.227633 1_555
O26 P14 1.544899 1_555
O26 Y5 2.226347 1_555
O27 P15 1.545388 1_555
O27 Y6 2.228269 1_555
O28 P16 1.555076 1_555
O28 Y5 2.315882 1_555
O29 P17 1.551271 1_555
O29 Y6 2.304105 1_555
O30 P18 1.544465 1_555
O30 Y7 2.230201 1_555
O31 P19 1.546510 1_555
O31 Y8 2.216054 1_555
O32 P20 1.556203 1_555
O32 Y7 2.309559 1_555
O33 P21 1.546165 1_555
O33 Y8 2.225878 1_555
O34 P22 1.543116 1_555
O34 Y7 2.203421 1_555
O35 P23 1.556796 1_555
O35 Y8 2.327978 1_555
O36 P22 1.532927 1_555
O36 Y9 2.240676 1_554
O37 P23 1.537353 1_555
O37 Y10 2.239739 1_554
O38 P18 1.533878 1_555
O38 Y9 2.230686 1_554
O39 P19 1.533355 1_555
O39 Y10 2.237281 1_554
O40 P20 1.536349 1_555
O40 Y9 2.253236 1_554
O41 P21 1.534698 1_555
O41 Y10 2.246139 1_554
O42 P14 1.534626 1_555
O42 Y11 2.204374 1_555
O43 P15 1.545208 1_555
O43 Y12 2.291839 1_555
O44 P16 1.546260 1_555
O44 Y11 2.292900 1_555
O45 P17 1.538265 1_555
O45 Y12 2.216491 1_555
O46 P12 1.536381 1_555
O46 Y11 2.209935 1_555
O47 P13 1.535186 1_555
O47 Y12 2.217169 1_555
O48 P24 1.554162 1_555
O48 Y13 2.248469 1_556
O49 P25 1.554208 1_555
O49 Y14 2.249792 1_556
O50 P26 1.551786 1_555
O50 Y13 2.255928 1_556
O51 P27 1.552368 1_555
O51 Y14 2.255549 1_556
O52 P28 1.552248 1_555
O52 Y13 2.257282 1_556
O53 P29 1.552280 1_555
O53 Y14 2.261780 1_556
O54 P30 1.568418 1_555
O54 Y15 2.172024 1_555
O55 P31 1.554886 1_555
O55 Y16 2.257351 1_555
O56 P32 1.556180 1_555
O56 Y15 2.263359 1_555
O57 P33 1.557104 1_555
O57 Y16 2.172751 1_555
O58 P34 1.555346 1_555
O58 Y15 2.239971 1_555
O59 P35 1.562759 1_555
O59 Y16 2.205446 1_555
O60 P34 1.516903 1_555
O60 Y17 2.169550 1_555
O61 P35 1.530962 1_555
O61 Y18 2.185709 1_555
O62 P30 1.538639 1_555
O62 Y17 2.236784 1_555
O63 P31 1.528356 1_555
O63 Y18 2.194758 1_555
O64 P32 1.526209 1_555
O64 Y17 2.188592 1_555
O65 P33 1.539992 1_555
O65 Y18 2.261546 1_555
O66 P26 1.526773 1_555
O66 Y19 2.155231 1_555
O67 P27 1.526945 1_555
O67 Y20 2.156231 1_555
O68 P28 1.527588 1_555
O68 Y19 2.157973 1_555
O69 P29 1.526716 1_555
O69 Y20 2.158755 1_555
O70 P24 1.535478 1_555
O70 Y19 2.236357 1_555
O71 P25 1.534444 1_555
O71 Y20 2.235885 1_555
O72 P34 1.600490 1_555
O73 P35 1.559173 1_555
O73 Y0 2.303277 1_565
O74 P30 1.557486 1_555
O74 Y0 2.270994 1_565
O75 P31 1.582998 1_555
O76 P32 1.581239 1_555
O77 P33 1.555960 1_555
O77 Y0 2.262142 1_555
O78 P26 1.607161 1_555
O79 P27 1.606288 1_555
O80 P28 1.604923 1_555
O81 P29 1.605864 1_555
O82 P24 1.606279 1_555
O83 P25 1.606866 1_555
O84 P12 1.564790 1_555
O84 Y2 2.287251 1_555
O85 P13 1.562266 1_555
O85 Y1 2.293334 1_655
O86 P14 1.563251 1_555
O86 Y1 2.286256 1_555
O87 P15 1.564871 1_555
O87 Y2 2.299790 1_555
O88 P16 1.567460 1_555
O88 Y2 2.320652 1_565
O89 P17 1.564093 1_555
O89 Y1 2.309526 1_665
O90 P18 1.567924 1_555
O90 Y4 2.291710 1_555
O91 P19 1.566680 1_555
O91 Y3 2.305005 1_555
O92 P20 1.567416 1_555
O92 Y4 2.317899 1_545
O93 P21 1.568626 1_555
O93 Y3 2.306371 1_545
O94 P22 1.566436 1_555
O94 Y3 2.309751 1_445
O95 P23 1.567934 1_555
O95 Y4 2.309853 1_545
O96 P10 1.531859 1_545
O96 Y5 2.270351 1_555
O97 P11 1.531515 1_545
O97 Y6 2.267185 1_555
O98 P6 1.547624 1_555
O98 Y5 2.312141 1_555
O99 P7 1.547892 1_555
O99 Y6 2.308060 1_555
O100 P9 1.551576 1_555
O100 Y5 2.336528 1_555
O101 P8 1.550834 1_655
O101 Y6 2.333808 1_555
O102 P2 1.536336 1_555
O102 Y7 2.207586 1_555
O103 P3 1.545517 1_555
O103 Y8 2.352041 1_555
O104 P5 1.547157 1_555
O104 Y7 2.256676 1_555
O105 P4 1.534765 1_555
O105 Y8 2.281333 1_555
O106 P0 1.544623 1_555
O106 Y7 2.357422 1_555
O107 P1 1.556859 1_555
O107 Y8 2.234355 1_555
O108 P24 1.528566 1_555
O108 Y9 2.256258 1_555
O109 P25 1.528969 1_555
O109 Y10 2.256828 1_555
O110 P27 1.526789 1_555
O110 Y9 2.249056 1_555
O111 P26 1.526379 1_655
O111 Y10 2.251001 1_555
O112 P28 1.524740 1_545
O112 Y9 2.242637 1_555
O113 P29 1.526239 1_545
O113 Y10 2.243063 1_555
O114 P30 1.535515 1_545
O114 Y11 2.207378 1_555
O115 P31 1.542622 1_545
O115 Y12 2.278683 1_555
O116 P32 1.541747 1_555
O116 Y11 2.268106 1_555
O117 P33 1.555598 1_555
O117 Y12 2.242174 1_555
O118 P35 1.548271 1_555
O118 Y11 2.259913 1_555
O119 P34 1.530642 1_655
O119 Y12 2.213776 1_555
O120 P22 1.568234 1_555
O120 Y13 2.332715 1_555
O121 P23 1.571043 1_555
O121 Y14 2.350793 1_555
O122 P19 1.566816 1_455
O122 Y13 2.331178 1_555
O123 P18 1.568432 1_555
O123 Y14 2.332009 1_555
O124 P20 1.569187 1_565
O124 Y13 2.338625 1_555
O125 P21 1.569059 1_565
O125 Y14 2.332097 1_555
O126 P14 1.566650 1_565
O126 Y15 2.340136 1_555
O127 P15 1.566808 1_565
O127 Y16 2.340430 1_555
O128 P16 1.568839 1_555
O128 Y15 2.382807 1_555
O129 P17 1.565913 1_555
O129 Y16 2.319230 1_555
O130 P13 1.564767 1_455
O130 Y15 2.297688 1_555
O131 P12 1.565200 1_555
O131 Y16 2.344767 1_555
O132 P0 1.539172 1_565
O132 Y17 2.262913 1_555
O133 P1 1.538666 1_565
O133 Y18 2.251829 1_555
O134 P2 1.557319 1_555
O134 Y17 2.279285 1_555
O135 P3 1.540018 1_555
O135 Y18 2.278814 1_555
O136 P4 1.525890 1_455
O136 Y17 2.213321 1_555
O137 P5 1.549328 1_555
O137 Y18 2.273970 1_555
O138 P6 1.543865 1_555
O138 Y19 2.289495 1_555
O139 P7 1.544042 1_555
O139 Y20 2.292319 1_555
O140 P8 1.530680 1_555
O140 Y19 2.244404 1_555
O141 P9 1.530801 1_555
O141 Y20 2.246063 1_555
O142 P10 1.543837 1_555
O142 Y19 2.297475 1_555
O143 P11 1.543073 1_555
O143 Y20 2.295302 1_555
