# generated using pymatgen
data_LiH6NO6
_symmetry_space_group_name_H-M   'P 1'
_cell_length_a   7.22974352
_cell_length_b   7.22974352
_cell_length_c   6.06861000
_cell_angle_alpha   90.00000000
_cell_angle_beta   90.00000000
_cell_angle_gamma   122.64220213
_symmetry_Int_Tables_number   1
_chemical_formula_structural   LiH6NO6
_chemical_formula_sum   'Li2 H12 N2 O12'
_cell_volume   267.10107611
_cell_formula_units_Z   2
loop_
 _symmetry_equiv_pos_site_id
 _symmetry_equiv_pos_as_xyz
  1  'x, y, z'
loop_
 _atom_site_type_symbol
 _atom_site_label
 _atom_site_symmetry_multiplicity
 _atom_site_fract_x
 _atom_site_fract_y
 _atom_site_fract_z
 _atom_site_occupancy
  Li  Li0  1  0.00000000  0.00000000  0.50000000  1
  Li  Li1  1  0.00000000  0.00000000  0.00000000  1
  H  H0  1  0.31932400  0.68067600  0.62057600  1
  H  H1  1  0.36982500  0.20094400  0.75000000  1
  H  H2  1  0.68067600  0.31932400  0.12057600  1
  H  H3  1  0.68067600  0.31932400  0.37942400  1
  H  H4  1  0.31932400  0.68067600  0.87942400  1
  H  H5  1  0.26694500  0.34315600  0.75000000  1
  H  H6  1  0.63017500  0.79905600  0.25000000  1
  H  H7  1  0.73305500  0.65684400  0.25000000  1
  H  H8  1  0.65684400  0.73305500  0.75000000  1
  H  H9  1  0.79905600  0.63017500  0.75000000  1
  H  H10  1  0.20094400  0.36982500  0.25000000  1
  H  H11  1  0.34315600  0.26694500  0.25000000  1
  N  N0  1  0.77991900  0.22008100  0.75000000  1
  N  N1  1  0.22008100  0.77991900  0.25000000  1
  O  O0  1  0.82775300  0.17224700  0.56786200  1
  O  O1  1  0.77190200  0.81093800  0.25000000  1
  O  O2  1  0.22809800  0.18906200  0.75000000  1
  O  O3  1  0.32139700  0.67860300  0.25000000  1
  O  O4  1  0.67860300  0.32139700  0.75000000  1
  O  O5  1  0.18906200  0.22809800  0.25000000  1
  O  O6  1  0.17224700  0.82775300  0.06786200  1
  O  O7  1  0.17224700  0.82775300  0.43213800  1
  O  O8  1  0.82775300  0.17224700  0.93213800  1
  O  O9  1  0.81093800  0.77190200  0.75000000  1
  O  O10  1  0.63401200  0.36598800  0.25000000  1
  O  O11  1  0.36598800  0.63401200  0.75000000  1
loop_
_geom_bond_atom_site_label_1
_geom_bond_atom_site_label_2
_geom_bond_distance
_geom_bond_site_symmetry_2
Li0 O2 2.111376 1_555
Li0 O5 2.111376 1_555
Li0 O9 2.111376 1_445
Li0 O1 2.111376 1_445
Li0 O0 2.223534 1_455
Li0 O7 2.223534 1_545
Li1 O5 2.111376 1_555
Li1 O2 2.111376 1_554
Li1 O9 2.111376 1_444
Li1 O1 2.111376 1_445
Li1 O6 2.223534 1_545
Li1 O8 2.223534 1_454
H0 O11 0.983519 1_555
H1 O2 0.980985 1_555
H2 O10 0.983519 1_555
H3 O10 0.983519 1_555
H4 O11 0.983519 1_555
H5 O2 0.991197 1_555
H6 O1 0.980985 1_555
H7 O1 0.991197 1_555
H8 O9 0.991197 1_555
H9 O9 0.980985 1_555
H10 O5 0.980985 1_555
H11 O5 0.991197 1_555
N0 O8 1.260934 1_555
N0 O0 1.260934 1_555
N0 O4 1.285258 1_555
N1 O7 1.260934 1_555
N1 O6 1.260934 1_555
N1 O3 1.285258 1_555
