# generated using pymatgen
data_Na3ScSi2GeSO12
_symmetry_space_group_name_H-M   'P 1'
_cell_length_a   8.96104747
_cell_length_b   8.96104716
_cell_length_c   22.12450308
_cell_angle_alpha   86.56102408
_cell_angle_beta   93.43897594
_cell_angle_gamma   118.80243066
_symmetry_Int_Tables_number   1
_chemical_formula_structural   Na3ScSi2GeSO12
_chemical_formula_sum   'Na18 Sc6 Si12 Ge6 S6 O72'
_cell_volume   1553.03014987
_cell_formula_units_Z   6
loop_
 _symmetry_equiv_pos_site_id
 _symmetry_equiv_pos_as_xyz
  1  'x, y, z'
loop_
 _atom_site_type_symbol
 _atom_site_label
 _atom_site_symmetry_multiplicity
 _atom_site_fract_x
 _atom_site_fract_y
 _atom_site_fract_z
 _atom_site_occupancy
  Na  Na0  1  0.64142228  0.00534900  0.24337923  1
  Na  Na1  1  0.99600628  0.63290522  0.24912940  1
  Na  Na2  1  0.99465100  0.35857772  0.74337923  1
  Na  Na3  1  0.36709478  0.00399372  0.74912940  1
  Na  Na4  1  0.30808928  0.33868200  0.57671223  1
  Na  Na5  1  0.66267328  0.96623822  0.58246240  1
  Na  Na6  1  0.66131800  0.69191072  0.07671223  1
  Na  Na7  1  0.03376178  0.33732672  0.08246240  1
  Na  Na8  1  0.97475528  0.67201600  0.91004623  1
  Na  Na9  1  0.32933928  0.29957222  0.91579640  1
  Na  Na10  1  0.32798400  0.02524472  0.41004623  1
  Na  Na11  1  0.70042778  0.67066072  0.41579640  1
  Na  Na12  1  0.00194238  0.01933262  0.49806088  1
  Na  Na13  1  0.98066738  0.99805762  0.99806088  1
  Na  Na14  1  0.66860938  0.35266562  0.83139388  1
  Na  Na15  1  0.64733438  0.33139062  0.33139388  1
  Na  Na16  1  0.33527538  0.68599962  0.16472788  1
  Na  Na17  1  0.31400038  0.66472462  0.66472788  1
  Sc  Sc0  1  0.00495887  0.00522708  0.35373106  1
  Sc  Sc1  1  0.99477292  0.99504113  0.85373106  1
  Sc  Sc2  1  0.67162587  0.33856008  0.68706406  1
  Sc  Sc3  1  0.66143992  0.32837413  0.18706406  1
  Sc  Sc4  1  0.33829187  0.67189408  0.02039806  1
  Sc  Sc5  1  0.32810592  0.66170813  0.52039806  1
  Si  Si0  1  0.28481055  0.99221694  0.25350887  1
  Si  Si1  1  0.70398580  0.70294656  0.25257472  1
  Si  Si2  1  0.29705344  0.29601420  0.75257472  1
  Si  Si3  1  0.00778306  0.71518945  0.75350887  1
  Si  Si4  1  0.95147755  0.32554994  0.58684187  1
  Si  Si5  1  0.37065280  0.03627956  0.58590772  1
  Si  Si6  1  0.96372044  0.62934720  0.08590772  1
  Si  Si7  1  0.67445006  0.04852245  0.08684187  1
  Si  Si8  1  0.61814355  0.65888394  0.92017587  1
  Si  Si9  1  0.03731880  0.36961356  0.91924172  1
  Si  Si10  1  0.63038644  0.96268120  0.41924172  1
  Si  Si11  1  0.34111606  0.38185645  0.42017587  1
  Ge  Ge0  1  0.04776816  0.02919329  0.64709806  1
  Ge  Ge1  1  0.97080671  0.95223184  0.14709806  1
  Ge  Ge2  1  0.71443516  0.36252629  0.98043106  1
  Ge  Ge3  1  0.63747371  0.28556484  0.48043106  1
  Ge  Ge4  1  0.38110116  0.69586029  0.31376506  1
  Ge  Ge5  1  0.30413971  0.61889884  0.81376506  1
  S  S0  1  0.01218060  0.30139107  0.24714104  1
  S  S1  1  0.69860893  0.98781940  0.74714104  1
  S  S2  1  0.67884760  0.63472407  0.58047404  1
  S  S3  1  0.36527593  0.32115240  0.08047404  1
  S  S4  1  0.34551360  0.96805807  0.91380804  1
  S  S5  1  0.03194193  0.65448640  0.41380804  1
  O  O0  1  0.20454450  0.01369915  0.31306200  1
  O  O1  1  0.81952351  0.79784765  0.31081196  1
  O  O2  1  0.99248769  0.19129774  0.30166068  1
  O  O3  1  0.20215235  0.18047649  0.81081196  1
  O  O4  1  0.98630085  0.79545550  0.81306200  1
  O  O5  1  0.80870226  0.00751231  0.80166068  1
  O  O6  1  0.77622425  0.97346280  0.69242091  1
  O  O7  1  0.17601076  0.21842433  0.68922614  1
  O  O8  1  0.04627128  0.85605192  0.69391385  1
  O  O9  1  0.78157567  0.82398924  0.18922614  1
  O  O10  1  0.02653720  0.22377575  0.19242091  1
  O  O11  1  0.14394808  0.95372872  0.19391385  1
  O  O12  1  0.87121150  0.34703215  0.64639500  1
  O  O13  1  0.48619051  0.13118065  0.64414496  1
  O  O14  1  0.65915469  0.52463074  0.63499368  1
  O  O15  1  0.86881935  0.51380949  0.14414496  1
  O  O16  1  0.65296785  0.12878850  0.14639500  1
  O  O17  1  0.47536926  0.34084531  0.13499368  1
  O  O18  1  0.44289125  0.30679580  0.02575391  1
  O  O19  1  0.84267776  0.55175733  0.02255914  1
  O  O20  1  0.71293828  0.18938492  0.02724685  1
  O  O21  1  0.44824267  0.15732224  0.52255914  1
  O  O22  1  0.69320420  0.55710875  0.52575391  1
  O  O23  1  0.81061508  0.28706172  0.52724685  1
  O  O24  1  0.53787750  0.68036615  0.97972900  1
  O  O25  1  0.15285651  0.46451465  0.97747896  1
  O  O26  1  0.32582069  0.85796474  0.96832768  1
  O  O27  1  0.53548535  0.84714349  0.47747896  1
  O  O28  1  0.31963385  0.46212250  0.47972900  1
  O  O29  1  0.14203526  0.67417931  0.46832768  1
  O  O30  1  0.10955725  0.64012980  0.35908791  1
  O  O31  1  0.50934376  0.88509133  0.35589314  1
  O  O32  1  0.37960428  0.52271892  0.36058085  1
  O  O33  1  0.11490867  0.49065624  0.85589314  1
  O  O34  1  0.35987020  0.89044275  0.85908791  1
  O  O35  1  0.47728108  0.62039572  0.86058085  1
  O  O36  1  0.01727798  0.81430478  0.41306856  1
  O  O37  1  0.81503046  0.97675321  0.41376734  1
  O  O38  1  0.19045413  0.18858350  0.41174953  1
  O  O39  1  0.02324679  0.18496954  0.91376734  1
  O  O40  1  0.18569522  0.98272202  0.91306856  1
  O  O41  1  0.81141650  0.80954587  0.91174953  1
  O  O42  1  0.95782214  0.13618324  0.59212125  1
  O  O43  1  0.18422675  0.03651502  0.58766192  1
  O  O44  1  0.82598216  0.80724541  0.58591262  1
  O  O45  1  0.96348498  0.81577325  0.08766192  1
  O  O46  1  0.86381676  0.04217786  0.09212125  1
  O  O47  1  0.19275459  0.17401784  0.08591262  1
  O  O48  1  0.68394498  0.14763778  0.74640156  1
  O  O49  1  0.48169746  0.31008621  0.74710034  1
  O  O50  1  0.85712113  0.52191650  0.74508253  1
  O  O51  1  0.68991379  0.51830254  0.24710034  1
  O  O52  1  0.85236222  0.31605502  0.24640156  1
  O  O53  1  0.47808350  0.14287887  0.24508253  1
  O  O54  1  0.62448914  0.46951624  0.92545425  1
  O  O55  1  0.85089375  0.36984802  0.92099492  1
  O  O56  1  0.49264916  0.14057841  0.91924562  1
  O  O57  1  0.63015198  0.14910625  0.42099492  1
  O  O58  1  0.53048376  0.37551086  0.42545425  1
  O  O59  1  0.85942159  0.50735084  0.41924562  1
  O  O60  1  0.35061098  0.48097178  0.07973556  1
  O  O61  1  0.14836346  0.64342021  0.08043434  1
  O  O62  1  0.52378713  0.85525050  0.07841653  1
  O  O63  1  0.35657979  0.85163654  0.58043434  1
  O  O64  1  0.51902822  0.64938902  0.57973556  1
  O  O65  1  0.14474950  0.47621287  0.57841653  1
  O  O66  1  0.29115514  0.80285024  0.25878825  1
  O  O67  1  0.51755975  0.70318202  0.25432892  1
  O  O68  1  0.15931516  0.47391241  0.25257962  1
  O  O69  1  0.29681798  0.48244025  0.75432892  1
  O  O70  1  0.19714976  0.70884486  0.75878825  1
  O  O71  1  0.52608759  0.84068484  0.75257962  1
loop_
_geom_bond_atom_site_label_1
_geom_bond_atom_site_label_2
_geom_bond_distance
_geom_bond_site_symmetry_2
Na0 O53 2.326585 1_555
Na0 O16 2.338808 1_555
Na0 O67 2.383289 1_545
Na0 O52 2.503092 1_555
Na0 O31 2.749807 1_545
Na0 O66 2.797642 1_545
Na0 O9 2.834585 1_545
Na0 O2 3.009316 1_555
Na1 O66 2.334560 1_655
Na1 O51 2.420062 1_555
Na1 O68 2.481919 1_655
Na1 O52 2.492345 1_555
Na1 O30 2.572239 1_655
Na1 O15 2.576967 1_555
Na1 O11 2.759608 1_655
Na2 O50 2.326585 1_555
Na2 O12 2.338808 1_555
Na2 O69 2.383289 1_655
Na2 O48 2.503092 1_555
Na2 O33 2.749807 1_655
Na2 O70 2.797642 1_655
Na2 O7 2.834585 1_655
Na2 O5 3.009316 1_555
Na3 O70 2.334560 1_545
Na3 O49 2.420062 1_555
Na3 O71 2.481919 1_545
Na3 O48 2.492345 1_555
Na3 O34 2.572239 1_545
Na3 O13 2.576967 1_555
Na3 O8 2.759608 1_545
Na4 O65 2.326602 1_555
Na4 O28 2.338793 1_555
Na4 O43 2.383289 1_555
Na4 O64 2.503098 1_555
Na4 O7 2.749807 1_555
Na4 O42 2.797642 1_455
Na4 O21 2.834585 1_555
Na4 O14 3.009316 1_555
Na5 O42 2.334560 1_565
Na5 O63 2.420072 1_555
Na5 O44 2.481919 1_555
Na5 O64 2.492335 1_555
Na5 O6 2.572239 1_555
Na5 O27 2.576947 1_555
Na5 O23 2.759608 1_565
Na6 O62 2.326602 1_555
Na6 O24 2.338793 1_554
Na6 O45 2.383289 1_555
Na6 O60 2.503098 1_555
Na6 O9 2.749807 1_555
Na6 O46 2.797642 1_565
Na6 O19 2.834585 1_555
Na6 O17 3.009316 1_555
Na7 O46 2.334560 1_455
Na7 O61 2.420072 1_555
Na7 O47 2.481919 1_555
Na7 O60 2.492335 1_555
Na7 O10 2.572239 1_555
Na7 O25 2.576947 1_554
Na7 O20 2.759608 1_455
Na8 O41 2.326585 1_555
Na8 O4 2.338808 1_555
Na8 O55 2.383296 1_555
Na8 O40 2.503092 1_655
Na8 O19 2.749785 1_556
Na8 O54 2.797633 1_555
Na8 O33 2.834585 1_655
Na8 O26 3.009316 1_655
Na9 O54 2.334565 1_555
Na9 O39 2.420062 1_555
Na9 O56 2.481936 1_555
Na9 O40 2.492345 1_545
Na9 O18 2.572223 1_556
Na9 O3 2.576967 1_555
Na9 O35 2.759608 1_555
Na10 O38 2.326585 1_555
Na10 O0 2.338808 1_555
Na10 O57 2.383296 1_555
Na10 O36 2.503092 1_545
Na10 O21 2.749785 1_555
Na10 O58 2.797633 1_555
Na10 O31 2.834585 1_545
Na10 O29 3.009316 1_545
Na11 O58 2.334565 1_555
Na11 O37 2.420062 1_555
Na11 O59 2.481936 1_555
Na11 O36 2.492345 1_655
Na11 O22 2.572223 1_555
Na11 O1 2.576967 1_555
Na11 O32 2.759608 1_555
Na12 O37 2.350283 1_445
Na12 O43 2.455099 1_555
Na12 O42 2.518433 1_455
Na12 O38 2.524131 1_555
Na12 O44 2.629268 1_445
Na12 O36 2.760280 1_545
Na13 O39 2.350283 1_665
Na13 O45 2.455099 1_556
Na13 O46 2.518433 1_566
Na13 O41 2.524131 1_555
Na13 O47 2.629268 1_666
Na13 O40 2.760280 1_655
Na14 O49 2.350283 1_555
Na14 O55 2.455099 1_555
Na14 O54 2.518433 1_555
Na14 O50 2.524131 1_555
Na14 O56 2.629268 1_555
Na14 O48 2.760280 1_555
Na15 O51 2.350283 1_555
Na15 O57 2.455099 1_555
Na15 O58 2.518433 1_555
Na15 O53 2.524131 1_555
Na15 O59 2.629268 1_555
Na15 O52 2.760280 1_555
Na16 O61 2.350283 1_555
Na16 O67 2.455099 1_555
Na16 O66 2.518433 1_555
Na16 O62 2.524131 1_555
Na16 O68 2.629268 1_555
Na16 O60 2.760280 1_555
Na17 O63 2.350283 1_555
Na17 O69 2.455099 1_555
Na17 O70 2.518433 1_555
Na17 O65 2.524131 1_555
Na17 O71 2.629268 1_555
Na17 O64 2.760280 1_555
Ge0 O7 1.802274 1_555
Ge0 O8 1.808056 1_545
Ge0 O43 1.825935 1_555
Ge0 O42 1.880266 1_455
Ge0 O44 2.435050 1_445
Ge1 O9 1.802274 1_555
Ge1 O11 1.808056 1_655
Ge1 O45 1.825935 1_555
Ge1 O46 1.880266 1_565
Ge1 O47 2.435050 1_665
Ge2 O19 1.802274 1_556
Ge2 O20 1.808056 1_556
Ge2 O55 1.825935 1_555
Ge2 O54 1.880266 1_555
Ge2 O56 2.435050 1_555
Ge3 O21 1.802274 1_555
Ge3 O23 1.808056 1_555
Ge3 O57 1.825935 1_555
Ge3 O58 1.880266 1_555
Ge3 O59 2.435050 1_555
Ge4 O31 1.802274 1_555
Ge4 O32 1.808056 1_555
Ge4 O67 1.825935 1_555
Ge4 O66 1.880266 1_555
Ge4 O68 2.435050 1_555
Ge5 O33 1.802274 1_555
Ge5 O35 1.808056 1_555
Ge5 O69 1.825935 1_555
Ge5 O70 1.880266 1_555
Ge5 O71 2.435050 1_555
O0 Si0 1.602490 1_545
O0 Sc0 2.016959 1_555
O1 Si1 1.605708 1_555
O1 Sc0 2.040389 1_665
O2 S0 1.474587 1_655
O2 Sc0 2.013332 1_655
O3 Si2 1.605708 1_555
O3 Sc1 2.040389 1_445
O4 Si3 1.602490 1_655
O4 Sc1 2.016959 1_555
O5 S1 1.474587 1_545
O5 Sc1 2.013332 1_545
O6 S1 1.473738 1_555
O7 Si2 1.682892 1_555
O8 Si3 1.698867 1_555
O9 Si1 1.682892 1_555
O10 S0 1.473738 1_555
O11 Si0 1.698867 1_555
O12 Si4 1.602490 1_555
O12 Sc2 2.016959 1_555
O13 Si5 1.605708 1_555
O13 Sc2 2.040389 1_555
O14 S2 1.474587 1_555
O14 Sc2 2.013332 1_555
O15 Si6 1.605708 1_555
O15 Sc3 2.040389 1_555
O16 Si7 1.602490 1_555
O16 Sc3 2.016959 1_555
O17 S3 1.474587 1_555
O17 Sc3 2.013332 1_555
O18 S3 1.473738 1_555
O19 Si6 1.682892 1_555
O20 Si7 1.698867 1_555
O21 Si5 1.682892 1_555
O22 S2 1.473738 1_555
O23 Si4 1.698867 1_555
O24 Si8 1.602490 1_555
O24 Sc4 2.016959 1_556
O25 Si9 1.605708 1_555
O25 Sc4 2.040389 1_556
O26 S4 1.474587 1_555
O26 Sc4 2.013332 1_556
O27 Si10 1.605708 1_555
O27 Sc5 2.040389 1_555
O28 Si11 1.602490 1_555
O28 Sc5 2.016959 1_555
O29 S5 1.474587 1_555
O29 Sc5 2.013332 1_555
O30 S5 1.473738 1_555
O31 Si10 1.682892 1_555
O32 Si11 1.698867 1_555
O33 Si9 1.682892 1_555
O34 S4 1.473738 1_555
O35 Si8 1.698867 1_555
O36 S5 1.498942 1_555
O36 Sc0 2.134914 1_565
O37 Si10 1.609176 1_555
O37 Sc0 2.130300 1_665
O38 Si11 1.616326 1_555
O38 Sc0 2.115595 1_555
O39 Si9 1.609176 1_555
O39 Sc1 2.130300 1_445
O40 S4 1.498942 1_555
O40 Sc1 2.134914 1_455
O41 Si8 1.616326 1_555
O41 Sc1 2.115595 1_555
O42 Si4 1.721864 1_555
O43 Si5 1.674368 1_555
O44 S2 1.477187 1_555
O45 Si6 1.674368 1_555
O46 Si7 1.721864 1_555
O47 S3 1.477187 1_555
O48 S1 1.498942 1_545
O48 Sc2 2.134914 1_555
O49 Si2 1.609176 1_555
O49 Sc2 2.130300 1_555
O50 Si3 1.616326 1_655
O50 Sc2 2.115595 1_555
O51 Si1 1.609176 1_555
O51 Sc3 2.130300 1_555
O52 S0 1.498942 1_655
O52 Sc3 2.134914 1_555
O53 Si0 1.616326 1_545
O53 Sc3 2.115595 1_555
O54 Si8 1.721877 1_555
O55 Si9 1.674353 1_655
O56 S4 1.477182 1_545
O57 Si10 1.674353 1_545
O58 Si11 1.721877 1_555
O59 S5 1.477182 1_655
O60 S3 1.498957 1_555
O60 Sc4 2.134914 1_555
O61 Si6 1.609160 1_455
O61 Sc4 2.130300 1_555
O62 Si7 1.616320 1_565
O62 Sc4 2.115595 1_555
O63 Si5 1.609160 1_565
O63 Sc5 2.130300 1_555
O64 S2 1.498957 1_555
O64 Sc5 2.134914 1_555
O65 Si4 1.616320 1_455
O65 Sc5 2.115595 1_555
O66 Si0 1.721864 1_555
O67 Si1 1.674368 1_555
O68 S0 1.477187 1_555
O69 Si2 1.674368 1_555
O70 Si3 1.721864 1_555
O71 S1 1.477187 1_555
