# generated using pymatgen
data_RbBe2F5
_symmetry_space_group_name_H-M   'P 1'
_cell_length_a   4.52152736
_cell_length_b   4.66174397
_cell_length_c   6.12021352
_cell_angle_alpha   93.64222988
_cell_angle_beta   89.99430418
_cell_angle_gamma   119.28544979
_symmetry_Int_Tables_number   1
_chemical_formula_structural   RbBe2F5
_chemical_formula_sum   'Rb1 Be2 F5'
_cell_volume   112.21728772
_cell_formula_units_Z   1
loop_
 _symmetry_equiv_pos_site_id
 _symmetry_equiv_pos_as_xyz
  1  'x, y, z'
loop_
 _atom_site_type_symbol
 _atom_site_label
 _atom_site_symmetry_multiplicity
 _atom_site_fract_x
 _atom_site_fract_y
 _atom_site_fract_z
 _atom_site_occupancy
  Rb  Rb0  1  0.02501895  0.01924095  0.98881567  1
  Be  Be0  1  0.28401063  0.68343558  0.39847523  1
  Be  Be1  1  0.61755937  0.34635757  0.57985365  1
  F  F0  1  0.37860574  0.69669715  0.16357189  1
  F  F1  1  0.90934654  0.39917084  0.42105635  1
  F  F2  1  0.29673924  0.01224843  0.49314471  1
  F  F3  1  0.52340866  0.62563681  0.55336335  1
  F  F4  1  0.70731086  0.34421067  0.81471814  1
loop_
_geom_bond_atom_site_label_1
_geom_bond_atom_site_label_2
_geom_bond_distance
_geom_bond_site_symmetry_2
Be0 F0 1.496304 1_555
Be0 F3 1.568720 1_555
Be0 F1 1.572250 1_455
Be0 F2 1.577808 1_565
Be1 F4 1.495621 1_555
Be1 F1 1.567844 1_555
Be1 F3 1.572126 1_555
Be1 F2 1.580038 1_555
F0 Rb0 2.802078 1_664
F0 Rb0 2.881889 1_554
F0 Rb0 2.918435 1_564
F1 Rb0 3.274038 1_654
F2 Rb0 3.277068 1_555
F2 Rb0 3.330214 1_554
F3 Rb0 3.304829 1_665
F4 Rb0 2.797922 1_655
F4 Rb0 2.872839 1_665
F4 Rb0 2.929121 1_555
