# generated using pymatgen
data_Tl3PbI5
_symmetry_space_group_name_H-M   'P 1'
_cell_length_a   9.12259900
_cell_length_b   9.83322800
_cell_length_c   16.58972000
_cell_angle_alpha   90.00000000
_cell_angle_beta   90.00000000
_cell_angle_gamma   90.00000000
_symmetry_Int_Tables_number   1
_chemical_formula_structural   Tl3PbI5
_chemical_formula_sum   'Tl12 Pb4 I20'
_cell_volume   1488.17412902
_cell_formula_units_Z   4
loop_
 _symmetry_equiv_pos_site_id
 _symmetry_equiv_pos_as_xyz
  1  'x, y, z'
loop_
 _atom_site_type_symbol
 _atom_site_label
 _atom_site_symmetry_multiplicity
 _atom_site_fract_x
 _atom_site_fract_y
 _atom_site_fract_z
 _atom_site_occupancy
  Tl  Tl0  1  0.77596800  0.70350100  0.44678400  1
  Tl  Tl1  1  0.27596800  0.79649900  0.55321600  1
  Tl  Tl2  1  0.22403200  0.20350100  0.05321600  1
  Tl  Tl3  1  0.72403200  0.29649900  0.94678400  1
  Tl  Tl4  1  0.92097100  0.16806000  0.52593700  1
  Tl  Tl5  1  0.42097100  0.33194000  0.47406300  1
  Tl  Tl6  1  0.07902900  0.66806000  0.97406300  1
  Tl  Tl7  1  0.57902900  0.83194000  0.02593700  1
  Tl  Tl8  1  0.93797300  0.09063200  0.21691900  1
  Tl  Tl9  1  0.43797300  0.40936800  0.78308100  1
  Tl  Tl10  1  0.06202700  0.59063200  0.28308100  1
  Tl  Tl11  1  0.56202700  0.90936800  0.71691900  1
  Pb  Pb0  1  0.57872500  0.45122700  0.20538400  1
  Pb  Pb1  1  0.07872500  0.04877300  0.79461600  1
  Pb  Pb2  1  0.42127500  0.95122700  0.29461600  1
  Pb  Pb3  1  0.92127500  0.54877300  0.70538400  1
  I  I0  1  0.72782800  0.65071600  0.85290300  1
  I  I1  1  0.22782800  0.84928400  0.14709700  1
  I  I2  1  0.27217200  0.15071600  0.64709700  1
  I  I3  1  0.77217200  0.34928400  0.35290300  1
  I  I4  1  0.27234600  0.28510400  0.27630700  1
  I  I5  1  0.77234600  0.21489600  0.72369300  1
  I  I6  1  0.72765400  0.78510400  0.22369300  1
  I  I7  1  0.22765400  0.71489600  0.77630700  1
  I  I8  1  0.91502600  0.85518800  0.63566800  1
  I  I9  1  0.41502600  0.64481200  0.36433200  1
  I  I10  1  0.08497400  0.35518800  0.86433200  1
  I  I11  1  0.58497400  0.14481200  0.13566800  1
  I  I12  1  0.59737800  0.55923000  0.60967700  1
  I  I13  1  0.09737800  0.94077000  0.39032300  1
  I  I14  1  0.40262200  0.05923000  0.89032300  1
  I  I15  1  0.90262200  0.44077000  0.10967700  1
  I  I16  1  0.07974700  0.49645800  0.52745100  1
  I  I17  1  0.57974700  0.00354200  0.47254900  1
  I  I18  1  0.92025300  0.99645800  0.97254900  1
  I  I19  1  0.42025300  0.50354200  0.02745100  1
loop_
_geom_bond_atom_site_label_1
_geom_bond_atom_site_label_2
_geom_bond_distance
_geom_bond_site_symmetry_2
I0 Pb3 3.179377 1_555
I0 Tl7 3.641218 1_556
I1 Pb2 3.179377 1_555
I1 Tl6 3.641218 1_554
I2 Pb1 3.179377 1_555
I2 Tl5 3.641218 1_555
I3 Pb0 3.179377 1_555
I3 Tl4 3.641218 1_555
I4 Pb0 3.444510 1_555
I4 Pb2 3.566059 1_545
I4 Tl10 3.566489 1_555
I4 Tl5 3.579599 1_555
I5 Pb1 3.444510 1_655
I5 Pb3 3.566059 1_555
I5 Tl11 3.566489 1_545
I5 Tl4 3.579599 1_555
I6 Pb2 3.444510 1_555
I6 Pb0 3.566059 1_555
I6 Tl8 3.566489 1_565
I6 Tl7 3.579599 1_555
I7 Pb3 3.444510 1_455
I7 Pb1 3.566059 1_565
I7 Tl9 3.566489 1_555
I7 Tl6 3.579599 1_555
I8 Pb3 3.227904 1_555
I8 Tl11 3.531414 1_555
I8 Tl4 3.575183 1_565
I8 Pb1 3.578679 1_665
I8 Tl1 3.611944 1_655
I9 Pb2 3.227904 1_555
I9 Tl10 3.531414 1_555
I9 Tl5 3.575183 1_555
I9 Pb0 3.578679 1_555
I9 Tl0 3.611944 1_555
I10 Pb1 3.227904 1_555
I10 Tl9 3.531414 1_555
I10 Tl6 3.575183 1_555
I10 Pb3 3.578679 1_455
I10 Tl3 3.611944 1_455
I11 Pb0 3.227904 1_555
I11 Tl8 3.531414 1_555
I11 Tl7 3.575183 1_545
I11 Pb2 3.578679 1_545
I11 Tl2 3.611944 1_555
I12 Pb3 3.355931 1_555
I12 Tl0 3.459706 1_555
I12 Tl9 3.544260 1_555
I12 Tl5 3.556207 1_555
I13 Pb2 3.355931 1_555
I13 Tl1 3.459706 1_555
I13 Tl8 3.544260 1_465
I13 Tl4 3.556207 1_465
I14 Pb1 3.355931 1_555
I14 Tl2 3.459706 1_556
I14 Tl11 3.544260 1_545
I14 Tl7 3.556207 1_546
I15 Pb0 3.355931 1_555
I15 Tl3 3.459706 1_554
I15 Tl10 3.544260 1_655
I15 Tl6 3.556207 1_654
I16 Pb3 3.326873 1_455
I16 Tl1 3.477306 1_555
I16 Tl4 3.539273 1_455
I16 Tl5 3.618201 1_555
I17 Pb2 3.326873 1_545
I17 Tl0 3.477306 1_545
I17 Tl5 3.539273 1_555
I17 Tl4 3.618201 1_555
I18 Pb1 3.326873 1_665
I18 Tl3 3.477306 1_565
I18 Tl6 3.539273 1_655
I18 Tl7 3.618201 1_556
I19 Pb0 3.326873 1_555
I19 Tl2 3.477306 1_555
I19 Tl7 3.539273 1_555
I19 Tl6 3.618201 1_554
