# generated using pymatgen
data_NaSb3F10
_symmetry_space_group_name_H-M   'P 1'
_cell_length_a   8.15403051
_cell_length_b   8.15419059
_cell_length_c   7.54821258
_cell_angle_alpha   90.00010408
_cell_angle_beta   90.00014644
_cell_angle_gamma   120.00278986
_symmetry_Int_Tables_number   1
_chemical_formula_structural   NaSb3F10
_chemical_formula_sum   'Na2 Sb6 F20'
_cell_volume   434.62603196
_cell_formula_units_Z   2
loop_
 _symmetry_equiv_pos_site_id
 _symmetry_equiv_pos_as_xyz
  1  'x, y, z'
loop_
 _atom_site_type_symbol
 _atom_site_label
 _atom_site_symmetry_multiplicity
 _atom_site_fract_x
 _atom_site_fract_y
 _atom_site_fract_z
 _atom_site_occupancy
  Na  Na0  1  0.66666050  0.33332793  0.66496923  1
  Na  Na1  1  0.33333995  0.66667245  0.16496965  1
  Sb  Sb0  1  0.12162046  0.78220119  0.74824227  1
  Sb  Sb1  1  0.33941522  0.12161200  0.24823546  1
  Sb  Sb2  1  0.78219416  0.66058014  0.24824574  1
  Sb  Sb3  1  0.21780159  0.33941622  0.74825012  1
  Sb  Sb4  1  0.66058496  0.87838839  0.74823665  1
  Sb  Sb5  1  0.87837849  0.21780189  0.24823891  1
  F  F0  1  0.33333824  0.66667474  0.73891999  1
  F  F1  1  0.66666280  0.33332705  0.23891997  1
  F  F2  1  0.96453665  0.50548721  0.78285196  1
  F  F3  1  0.45905875  0.96453710  0.28285894  1
  F  F4  1  0.50548093  0.54092458  0.28286240  1
  F  F5  1  0.49451725  0.45907504  0.78286384  1
  F  F6  1  0.54094238  0.03546247  0.78285880  1
  F  F7  1  0.03546369  0.49451282  0.28285199  1
  F  F8  1  0.20138618  0.39484415  0.99647980  1
  F  F9  1  0.80654491  0.20137913  0.49647634  1
  F  F10  1  0.39484930  0.19345317  0.49647788  1
  F  F11  1  0.60515189  0.80654619  0.99647707  1
  F  F12  1  0.19345539  0.79862040  0.99647580  1
  F  F13  1  0.79861474  0.60515598  0.49647690  1
  F  F14  1  0.11220800  0.22443249  0.34011874  1
  F  F15  1  0.88778735  0.11221961  0.84013596  1
  F  F16  1  0.22443189  0.11221961  0.84012738  1
  F  F17  1  0.77556863  0.88777779  0.34012505  1
  F  F18  1  0.11221343  0.88778291  0.34013265  1
  F  F19  1  0.88779229  0.77556735  0.84011849  1
loop_
_geom_bond_atom_site_label_1
_geom_bond_atom_site_label_2
_geom_bond_distance
_geom_bond_site_symmetry_2
F0 Sb4 2.344896 1_555
F0 Sb0 2.345008 1_555
F0 Sb3 2.345066 1_555
F1 Sb1 2.344903 1_555
F1 Sb5 2.344983 1_555
F1 Sb2 2.345030 1_555
F2 Sb0 1.977309 1_655
F2 Na0 2.291712 1_555
F3 Sb1 1.977420 1_565
F3 Na1 2.291707 1_555
F4 Sb2 1.977271 1_555
F4 Na1 2.291912 1_555
F5 Sb3 1.977282 1_555
F5 Na0 2.291930 1_555
F6 Sb4 1.977407 1_545
F6 Na0 2.291719 1_555
F7 Sb5 1.977291 1_455
F7 Na1 2.291719 1_555
F8 Sb3 1.947668 1_555
F8 Na1 2.302842 1_556
F9 Sb5 1.947694 1_555
F9 Na0 2.302938 1_555
F10 Sb1 1.947752 1_555
F10 Na0 2.302714 1_555
F11 Sb4 1.947743 1_555
F11 Na1 2.302732 1_556
F12 Sb0 1.947668 1_555
F12 Na1 2.302937 1_556
F13 Sb2 1.947679 1_555
F13 Na0 2.302858 1_555
F14 Sb5 2.004028 1_455
F14 Sb1 2.483893 1_555
F15 Sb4 2.004044 1_545
F15 Sb3 2.483690 1_655
F16 Sb3 2.004044 1_555
F16 Sb0 2.483812 1_545
F17 Sb2 2.004036 1_555
F17 Sb5 2.483863 1_565
F18 Sb1 2.004033 1_565
F18 Sb2 2.483726 1_455
F19 Sb0 2.004000 1_655
F19 Sb4 2.483892 1_555
