# generated using pymatgen
data_Ba2SmMgCu3O7
_symmetry_space_group_name_H-M   'P 1'
_cell_length_a   4.00189004
_cell_length_b   3.75491560
_cell_length_c   14.58609391
_cell_angle_alpha   90.00000000
_cell_angle_beta   90.00000000
_cell_angle_gamma   90.00000000
_symmetry_Int_Tables_number   1
_chemical_formula_structural   Ba2SmMgCu3O7
_chemical_formula_sum   'Ba2 Sm1 Mg1 Cu3 O7'
_cell_volume   219.18172291
_cell_formula_units_Z   1
loop_
 _symmetry_equiv_pos_site_id
 _symmetry_equiv_pos_as_xyz
  1  'x, y, z'
loop_
 _atom_site_type_symbol
 _atom_site_label
 _atom_site_symmetry_multiplicity
 _atom_site_fract_x
 _atom_site_fract_y
 _atom_site_fract_z
 _atom_site_occupancy
  Ba  Ba0  1  0.50000000  0.50000000  0.77562949  1
  Ba  Ba1  1  0.50000000  0.50000000  0.08811334  1
  Sm  Sm0  1  0.50000000  0.50000000  0.51845876  1
  Mg  Mg0  1  0.00000000  0.50000000  0.27472887  1
  Cu  Cu0  1  0.00000000  0.00000000  0.63747885  1
  Cu  Cu1  1  0.00000000  0.00000000  0.41475128  1
  Cu  Cu2  1  0.00000000  0.00000000  0.93798177  1
  O  O0  1  0.00000000  0.00000000  0.80459513  1
  O  O1  1  0.00000000  0.00000000  0.20803433  1
  O  O2  1  0.00000000  0.50000000  0.61041711  1
  O  O3  1  0.00000000  0.50000000  0.40756984  1
  O  O4  1  0.50000000  0.00000000  0.62898344  1
  O  O5  1  0.50000000  0.00000000  0.42036385  1
  O  O6  1  0.00000000  0.50000000  0.98400494  1
loop_
_geom_bond_atom_site_label_1
_geom_bond_atom_site_label_2
_geom_bond_distance
_geom_bond_site_symmetry_2
Ba0 O0 2.776172 1_555
Ba0 O0 2.776172 1_565
Ba0 O0 2.776172 1_665
Ba0 O0 2.776172 1_655
Ba0 O4 2.846074 1_555
Ba0 O4 2.846074 1_565
Ba0 O2 3.132241 1_655
Ba0 O2 3.132241 1_555
Ba1 O6 2.511917 1_654
Ba1 O6 2.511917 1_554
Mg0 O3 1.937631 1_555
Mg0 O1 2.114524 1_565
Mg0 O1 2.114524 1_555
Cu0 O2 1.918504 1_555
Cu0 O2 1.918504 1_545
Cu0 O4 2.004778 1_555
Cu0 O4 2.004778 1_455
Cu0 O0 2.437574 1_555
Cu1 O3 1.880378 1_555
Cu1 O3 1.880378 1_545
Cu1 O5 2.002619 1_555
Cu1 O5 2.002619 1_455
Cu2 O0 1.945590 1_555
Cu2 O6 1.993863 1_555
Cu2 O6 1.993863 1_545
O2 Sm0 2.408921 1_555
O2 Sm0 2.408921 1_455
O3 Sm0 2.572913 1_455
O3 Sm0 2.572913 1_555
O4 Sm0 2.474629 1_545
O4 Sm0 2.474629 1_555
O5 Sm0 2.360529 1_555
O5 Sm0 2.360529 1_545
