# generated using pymatgen
data_V2P3O10
_symmetry_space_group_name_H-M   'P 1'
_cell_length_a   8.46540900
_cell_length_b   4.80240800
_cell_length_c   9.04513288
_cell_angle_alpha   81.62737498
_cell_angle_beta   90.00000000
_cell_angle_gamma   90.00000000
_symmetry_Int_Tables_number   1
_chemical_formula_structural   V2P3O10
_chemical_formula_sum   'V4 P6 O20'
_cell_volume   363.80478273
_cell_formula_units_Z   2
loop_
 _symmetry_equiv_pos_site_id
 _symmetry_equiv_pos_as_xyz
  1  'x, y, z'
loop_
 _atom_site_type_symbol
 _atom_site_label
 _atom_site_symmetry_multiplicity
 _atom_site_fract_x
 _atom_site_fract_y
 _atom_site_fract_z
 _atom_site_occupancy
  V  V0  1  0.92258500  0.96110400  0.33274600  1
  V  V1  1  0.57741500  0.96110400  0.33274600  1
  V  V2  1  0.42258500  0.03889600  0.66725400  1
  V  V3  1  0.07741500  0.03889600  0.66725400  1
  P  P0  1  0.75000000  0.67142900  0.81341700  1
  P  P1  1  0.25000000  0.60780500  0.45631600  1
  P  P2  1  0.25000000  0.46025000  0.85428300  1
  P  P3  1  0.75000000  0.53975000  0.14571700  1
  P  P4  1  0.75000000  0.39219500  0.54368400  1
  P  P5  1  0.25000000  0.32857100  0.18658300  1
  O  O0  1  0.90075300  0.83285000  0.78582800  1
  O  O1  1  0.59924700  0.83285000  0.78582800  1
  O  O2  1  0.25000000  0.77316300  0.77302900  1
  O  O3  1  0.40139900  0.76990500  0.48645000  1
  O  O4  1  0.09860100  0.76990500  0.48645000  1
  O  O5  1  0.75000000  0.69552900  0.45754900  1
  O  O6  1  0.90185600  0.68854700  0.17641700  1
  O  O7  1  0.59814400  0.68854700  0.17641700  1
  O  O8  1  0.75000000  0.48749200  0.97312400  1
  O  O9  1  0.25000000  0.58812100  0.28306500  1
  O  O10  1  0.75000000  0.41187900  0.71693500  1
  O  O11  1  0.25000000  0.51250800  0.02687600  1
  O  O12  1  0.40185600  0.31145300  0.82358300  1
  O  O13  1  0.09814400  0.31145300  0.82358300  1
  O  O14  1  0.25000000  0.30447100  0.54245100  1
  O  O15  1  0.09924700  0.16715000  0.21417200  1
  O  O16  1  0.59860100  0.23009500  0.51355000  1
  O  O17  1  0.75000000  0.22683700  0.22697100  1
  O  O18  1  0.40075300  0.16715000  0.21417200  1
  O  O19  1  0.90139900  0.23009500  0.51355000  1
loop_
_geom_bond_atom_site_label_1
_geom_bond_atom_site_label_2
_geom_bond_distance
_geom_bond_site_symmetry_2
O0 P0 1.495171 1_555
O0 V3 2.014185 1_665
O1 P0 1.495171 1_555
O1 V2 2.014185 1_565
O2 P2 1.573765 1_555
O2 V3 2.079160 1_565
O2 V2 2.079160 1_565
O3 P1 1.544260 1_555
O3 V1 2.150455 1_555
O3 V2 2.233983 1_565
O4 P1 1.544260 1_555
O4 V0 2.150455 1_455
O4 V3 2.233983 1_565
O5 P4 1.548727 1_555
O5 V0 2.148537 1_555
O5 V1 2.148537 1_555
O6 P3 1.515947 1_555
O6 V0 2.069430 1_555
O7 P3 1.515947 1_555
O7 V1 2.069430 1_555
O8 P0 1.579704 1_555
O8 P3 1.616848 1_556
O9 P1 1.583607 1_555
O9 P5 1.622360 1_555
O10 P4 1.583607 1_555
O10 P0 1.622360 1_555
O11 P5 1.579704 1_555
O11 P2 1.616848 1_554
O12 P2 1.515947 1_555
O12 V2 2.069430 1_555
O13 P2 1.515947 1_555
O13 V3 2.069430 1_555
O14 P1 1.548727 1_555
O14 V2 2.148537 1_555
O14 V3 2.148537 1_555
O15 P5 1.495171 1_555
O15 V0 2.014185 1_445
O16 P4 1.544260 1_555
O16 V2 2.150455 1_555
O16 V1 2.233983 1_545
O17 P3 1.573765 1_555
O17 V1 2.079160 1_545
O17 V0 2.079160 1_545
O18 P5 1.495171 1_555
O18 V1 2.014185 1_545
O19 P4 1.544260 1_555
O19 V3 2.150455 1_655
O19 V0 2.233983 1_545
