# generated using pymatgen
data_Th3Al2
_symmetry_space_group_name_H-M   'P 1'
_cell_length_a   7.55885860
_cell_length_b   17.11269420
_cell_length_c   17.11269420
_cell_angle_alpha   90.00134997
_cell_angle_beta   90.00000000
_cell_angle_gamma   90.00000000
_symmetry_Int_Tables_number   1
_chemical_formula_structural   Th3Al2
_chemical_formula_sum   'Th48 Al32'
_cell_volume   2213.56867624
_cell_formula_units_Z   16
loop_
 _symmetry_equiv_pos_site_id
 _symmetry_equiv_pos_as_xyz
  1  'x, y, z'
loop_
 _atom_site_type_symbol
 _atom_site_label
 _atom_site_symmetry_multiplicity
 _atom_site_fract_x
 _atom_site_fract_y
 _atom_site_fract_z
 _atom_site_occupancy
  Th  Th0_0  1  0.00000000  0.00000000  0.00000000  1
  Th  Th0_1  1  0.00000000  0.00000000  0.50000000  1
  Th  Th0_2  1  0.00000000  0.50000000  0.00000000  1
  Th  Th0_3  1  0.00000000  0.50000000  0.50000000  1
  Th  Th0_4  1  0.50000000  0.00000000  0.00000000  1
  Th  Th0_5  1  0.50000000  0.00000000  0.50000000  1
  Th  Th0_6  1  0.50000000  0.50000000  0.00000000  1
  Th  Th0_7  1  0.50000000  0.50000000  0.50000000  1
  Th  Th1_0  1  0.00000000  0.25000000  0.25000000  1
  Th  Th1_1  1  0.00000000  0.25000000  0.75000000  1
  Th  Th1_2  1  0.00000000  0.75000000  0.25000000  1
  Th  Th1_3  1  0.00000000  0.75000000  0.75000000  1
  Th  Th1_4  1  0.50000000  0.25000000  0.25000000  1
  Th  Th1_5  1  0.50000000  0.25000000  0.75000000  1
  Th  Th1_6  1  0.50000000  0.75000000  0.25000000  1
  Th  Th1_7  1  0.50000000  0.75000000  0.75000000  1
  Th  Th2_0  1  0.25000000  0.09105866  0.34105867  1
  Th  Th2_1  1  0.25000000  0.09105866  0.84105867  1
  Th  Th2_2  1  0.25000000  0.59105866  0.34105866  1
  Th  Th2_3  1  0.25000000  0.59105867  0.84105867  1
  Th  Th2_4  1  0.75000000  0.09105866  0.34105867  1
  Th  Th2_5  1  0.75000000  0.09105866  0.84105867  1
  Th  Th2_6  1  0.75000000  0.59105866  0.34105866  1
  Th  Th2_7  1  0.75000000  0.59105867  0.84105867  1
  Th  Th3_0  1  0.25000000  0.15897627  0.09102373  1
  Th  Th3_1  1  0.25000000  0.15897627  0.59102373  1
  Th  Th3_2  1  0.25000000  0.65897627  0.09102373  1
  Th  Th3_3  1  0.25000000  0.65897627  0.59102373  1
  Th  Th3_4  1  0.75000000  0.15897627  0.09102373  1
  Th  Th3_5  1  0.75000000  0.15897627  0.59102373  1
  Th  Th3_6  1  0.75000000  0.65897627  0.09102373  1
  Th  Th3_7  1  0.75000000  0.65897627  0.59102373  1
  Th  Th4_0  1  0.25000000  0.34102373  0.40897627  1
  Th  Th4_1  1  0.25000000  0.34102373  0.90897627  1
  Th  Th4_2  1  0.25000000  0.84102373  0.40897627  1
  Th  Th4_3  1  0.25000000  0.84102373  0.90897627  1
  Th  Th4_4  1  0.75000000  0.34102373  0.40897627  1
  Th  Th4_5  1  0.75000000  0.34102373  0.90897627  1
  Th  Th4_6  1  0.75000000  0.84102373  0.40897627  1
  Th  Th4_7  1  0.75000000  0.84102373  0.90897627  1
  Th  Th5_0  1  0.25000000  0.40894134  0.15894134  1
  Th  Th5_1  1  0.25000000  0.40894134  0.65894134  1
  Th  Th5_2  1  0.25000000  0.90894133  0.15894134  1
  Th  Th5_3  1  0.25000000  0.90894133  0.65894134  1
  Th  Th5_4  1  0.75000000  0.40894134  0.15894134  1
  Th  Th5_5  1  0.75000000  0.40894134  0.65894134  1
  Th  Th5_6  1  0.75000000  0.90894133  0.15894134  1
  Th  Th5_7  1  0.75000000  0.90894133  0.65894134  1
  Al  Al0_0  1  0.00000000  0.19407109  0.44407109  1
  Al  Al0_1  1  0.00000000  0.19407109  0.94407109  1
  Al  Al0_2  1  0.00000000  0.69407109  0.44407109  1
  Al  Al0_3  1  0.00000000  0.69407109  0.94407109  1
  Al  Al0_4  1  0.50000000  0.19407109  0.44407109  1
  Al  Al0_5  1  0.50000000  0.19407109  0.94407109  1
  Al  Al0_6  1  0.50000000  0.69407109  0.44407109  1
  Al  Al0_7  1  0.50000000  0.69407109  0.94407109  1
  Al  Al1_0  1  0.00000000  0.05593910  0.19406091  1
  Al  Al1_1  1  0.00000000  0.05593909  0.69406091  1
  Al  Al1_2  1  0.00000000  0.55593909  0.19406091  1
  Al  Al1_3  1  0.00000000  0.55593910  0.69406091  1
  Al  Al1_4  1  0.50000000  0.05593910  0.19406091  1
  Al  Al1_5  1  0.50000000  0.05593909  0.69406091  1
  Al  Al1_6  1  0.50000000  0.55593909  0.19406091  1
  Al  Al1_7  1  0.50000000  0.55593910  0.69406091  1
  Al  Al2_0  1  0.00000000  0.44406090  0.30593910  1
  Al  Al2_1  1  0.00000000  0.44406090  0.80593910  1
  Al  Al2_2  1  0.00000000  0.94406091  0.30593909  1
  Al  Al2_3  1  0.00000000  0.94406090  0.80593910  1
  Al  Al2_4  1  0.50000000  0.44406090  0.30593910  1
  Al  Al2_5  1  0.50000000  0.44406090  0.80593910  1
  Al  Al2_6  1  0.50000000  0.94406091  0.30593909  1
  Al  Al2_7  1  0.50000000  0.94406090  0.80593910  1
  Al  Al3_0  1  0.00000000  0.30592891  0.05592891  1
  Al  Al3_1  1  0.00000000  0.30592891  0.55592891  1
  Al  Al3_2  1  0.00000000  0.80592891  0.05592891  1
  Al  Al3_3  1  0.00000000  0.80592891  0.55592891  1
  Al  Al3_4  1  0.50000000  0.30592891  0.05592891  1
  Al  Al3_5  1  0.50000000  0.30592891  0.55592891  1
  Al  Al3_6  1  0.50000000  0.80592891  0.05592891  1
  Al  Al3_7  1  0.50000000  0.80592891  0.55592891  1
loop_
_geom_bond_atom_site_label_1
_geom_bond_atom_site_label_2
_geom_bond_distance
_geom_bond_site_symmetry_2
Th0_0 Th2_5 3.660236 1_454
Th0_0 Th2_1 3.660236 1_554
Th0_0 Th5_6 3.660236 1_445
Th0_0 Th5_2 3.660236 1_545
Th0_0 Th4_3 3.660371 1_544
Th0_0 Th4_7 3.660371 1_444
Th0_0 Th3_4 3.660371 1_455
Th0_0 Th3_0 3.660371 1_555
Th0_0 Th0_4 3.779429 1_455
Th0_0 Th0_4 3.779429 1_555
Th0_1 Th2_0 3.660236 1_555
Th0_1 Th2_4 3.660236 1_455
Th0_1 Th5_7 3.660236 1_445
Th0_1 Th5_3 3.660236 1_545
Th0_1 Th3_5 3.660371 1_455
Th0_1 Th3_1 3.660371 1_555
Th0_1 Th4_2 3.660371 1_545
Th0_1 Th4_6 3.660371 1_445
Th0_1 Th0_5 3.779429 1_555
Th0_1 Th0_5 3.779429 1_455
Th0_2 Th2_7 3.660236 1_454
Th0_2 Th2_3 3.660236 1_554
Th0_2 Th5_0 3.660236 1_555
Th0_2 Th5_4 3.660236 1_455
Th0_2 Th4_1 3.660371 1_554
Th0_2 Th4_5 3.660371 1_454
Th0_2 Th3_2 3.660371 1_555
Th0_2 Th3_6 3.660371 1_455
Th0_2 Th0_6 3.779429 1_455
Th0_2 Th0_6 3.779429 1_555
Th0_3 Th2_2 3.660236 1_555
Th0_3 Th2_6 3.660236 1_455
Th0_3 Th5_5 3.660236 1_455
Th0_3 Th5_1 3.660236 1_555
Th0_3 Th4_4 3.660371 1_455
Th0_3 Th4_0 3.660371 1_555
Th0_3 Th3_3 3.660371 1_555
Th0_3 Th3_7 3.660371 1_455
Th0_3 Th0_7 3.779429 1_455
Th0_3 Th0_7 3.779429 1_555
Th0_4 Th2_1 3.660236 1_554
Th0_4 Th2_5 3.660236 1_554
Th0_4 Th5_2 3.660236 1_545
Th0_4 Th5_6 3.660236 1_545
Th0_4 Th4_3 3.660371 1_544
Th0_4 Th4_7 3.660371 1_544
Th0_4 Th3_4 3.660371 1_555
Th0_4 Th3_0 3.660371 1_555
Th0_5 Th2_0 3.660236 1_555
Th0_5 Th2_4 3.660236 1_555
Th0_5 Th5_3 3.660236 1_545
Th0_5 Th5_7 3.660236 1_545
Th0_5 Th3_5 3.660371 1_555
Th0_5 Th3_1 3.660371 1_555
Th0_5 Th4_2 3.660371 1_545
Th0_5 Th4_6 3.660371 1_545
Th0_6 Th2_3 3.660236 1_554
Th0_6 Th2_7 3.660236 1_554
Th0_6 Th5_0 3.660236 1_555
Th0_6 Th5_4 3.660236 1_555
Th0_6 Th4_1 3.660371 1_554
Th0_6 Th4_5 3.660371 1_554
Th0_6 Th3_2 3.660371 1_555
Th0_6 Th3_6 3.660371 1_555
Th0_7 Th2_2 3.660236 1_555
Th0_7 Th2_6 3.660236 1_555
Th0_7 Th5_1 3.660236 1_555
Th0_7 Th5_5 3.660236 1_555
Th0_7 Th4_0 3.660371 1_555
Th0_7 Th4_4 3.660371 1_555
Th0_7 Th3_3 3.660371 1_555
Th0_7 Th3_7 3.660371 1_555
Th1_0 Th5_0 3.660236 1_555
Th1_0 Th5_4 3.660236 1_455
Th1_0 Th2_0 3.660236 1_555
Th1_0 Th2_4 3.660236 1_455
Th1_0 Th3_4 3.660371 1_455
Th1_0 Th3_0 3.660371 1_555
Th1_0 Th4_4 3.660371 1_455
Th1_0 Th4_0 3.660371 1_555
Th1_0 Th1_4 3.779429 1_555
Th1_0 Th1_4 3.779429 1_455
Th1_1 Th5_1 3.660236 1_555
Th1_1 Th2_5 3.660236 1_455
Th1_1 Th5_5 3.660236 1_455
Th1_1 Th2_1 3.660236 1_555
Th1_1 Th3_5 3.660371 1_455
Th1_1 Th3_1 3.660371 1_555
Th1_1 Th4_5 3.660371 1_455
Th1_1 Th4_1 3.660371 1_555
Th1_1 Th1_5 3.779429 1_455
Th1_1 Th1_5 3.779429 1_555
Th1_2 Th5_2 3.660236 1_555
Th1_2 Th5_6 3.660236 1_455
Th1_2 Th2_2 3.660236 1_555
Th1_2 Th2_6 3.660236 1_455
Th1_2 Th4_6 3.660371 1_455
Th1_2 Th4_2 3.660371 1_555
Th1_2 Th3_2 3.660371 1_555
Th1_2 Th3_6 3.660371 1_455
Th1_2 Th1_6 3.779429 1_555
Th1_2 Th1_6 3.779429 1_455
Th1_3 Th5_7 3.660236 1_455
Th1_3 Th2_7 3.660236 1_455
Th1_3 Th5_3 3.660236 1_555
Th1_3 Th2_3 3.660236 1_555
Th1_3 Th4_7 3.660371 1_455
Th1_3 Th4_3 3.660371 1_555
Th1_3 Th3_7 3.660371 1_455
Th1_3 Th3_3 3.660371 1_555
Th1_3 Th1_7 3.779429 1_555
Th1_3 Th1_7 3.779429 1_455
Th1_4 Th5_0 3.660236 1_555
Th1_4 Th5_4 3.660236 1_555
Th1_4 Th2_0 3.660236 1_555
Th1_4 Th2_4 3.660236 1_555
Th1_4 Th3_4 3.660371 1_555
Th1_4 Th3_0 3.660371 1_555
Th1_4 Th4_0 3.660371 1_555
Th1_4 Th4_4 3.660371 1_555
Th1_5 Th5_1 3.660236 1_555
Th1_5 Th5_5 3.660236 1_555
Th1_5 Th2_1 3.660236 1_555
Th1_5 Th2_5 3.660236 1_555
Th1_5 Th3_1 3.660371 1_555
Th1_5 Th3_5 3.660371 1_555
Th1_5 Th4_1 3.660371 1_555
Th1_5 Th4_5 3.660371 1_555
Th1_6 Th5_6 3.660236 1_555
Th1_6 Th5_2 3.660236 1_555
Th1_6 Th2_2 3.660236 1_555
Th1_6 Th2_6 3.660236 1_555
Th1_6 Th4_2 3.660371 1_555
Th1_6 Th4_6 3.660371 1_555
Th1_6 Th3_2 3.660371 1_555
Th1_6 Th3_6 3.660371 1_555
Th1_7 Th5_3 3.660236 1_555
Th1_7 Th2_3 3.660236 1_555
Th1_7 Th5_7 3.660236 1_555
Th1_7 Th2_7 3.660236 1_555
Th1_7 Th4_7 3.660371 1_555
Th1_7 Th4_3 3.660371 1_555
Th1_7 Th3_7 3.660371 1_555
Th1_7 Th3_3 3.660371 1_555
Al0_0 Al3_1 2.707040 1_555
Al0_0 Th2_0 3.128249 1_555
Al0_0 Th2_4 3.128249 1_455
Al0_0 Th3_5 3.202463 1_455
Al0_0 Th3_1 3.202463 1_555
Al0_0 Th4_0 3.202463 1_555
Al0_0 Th4_4 3.202463 1_455
Al0_0 Th1_0 3.456262 1_555
Al0_0 Th0_1 3.456262 1_555
Al0_1 Al3_0 2.707040 1_556
Al0_1 Th2_5 3.128249 1_455
Al0_1 Th2_1 3.128249 1_555
Al0_1 Th3_0 3.202463 1_556
Al0_1 Th3_4 3.202463 1_456
Al0_1 Th4_5 3.202463 1_455
Al0_1 Th4_1 3.202463 1_555
Al0_1 Th0_0 3.456262 1_556
Al0_1 Th1_1 3.456262 1_555
Al0_2 Al3_3 2.707040 1_555
Al0_2 Th2_6 3.128249 1_455
Al0_2 Th2_2 3.128249 1_555
Al0_2 Th4_6 3.202463 1_455
Al0_2 Th4_2 3.202463 1_555
Al0_2 Th3_3 3.202463 1_555
Al0_2 Th3_7 3.202463 1_455
Al0_2 Th0_3 3.456262 1_555
Al0_2 Th1_2 3.456262 1_555
Al0_3 Al3_2 2.707040 1_556
Al0_3 Th2_7 3.128249 1_455
Al0_3 Th2_3 3.128249 1_555
Al0_3 Th4_7 3.202463 1_455
Al0_3 Th4_3 3.202463 1_555
Al0_3 Th3_2 3.202463 1_556
Al0_3 Th3_6 3.202463 1_456
Al0_3 Th1_3 3.456262 1_555
Al0_3 Th0_2 3.456262 1_556
Al0_4 Al3_5 2.707040 1_555
Al0_4 Th2_0 3.128249 1_555
Al0_4 Th2_4 3.128249 1_555
Al0_4 Th3_1 3.202463 1_555
Al0_4 Th3_5 3.202463 1_555
Al0_4 Th4_0 3.202463 1_555
Al0_4 Th4_4 3.202463 1_555
Al0_4 Th1_4 3.456262 1_555
Al0_4 Th0_5 3.456262 1_555
Al0_5 Al3_4 2.707040 1_556
Al0_5 Th2_1 3.128249 1_555
Al0_5 Th2_5 3.128249 1_555
Al0_5 Th3_4 3.202463 1_556
Al0_5 Th3_0 3.202463 1_556
Al0_5 Th4_5 3.202463 1_555
Al0_5 Th4_1 3.202463 1_555
Al0_5 Th0_4 3.456262 1_556
Al0_5 Th1_5 3.456262 1_555
Al0_6 Al3_7 2.707040 1_555
Al0_6 Th2_2 3.128249 1_555
Al0_6 Th2_6 3.128249 1_555
Al0_6 Th4_6 3.202463 1_555
Al0_6 Th4_2 3.202463 1_555
Al0_6 Th3_3 3.202463 1_555
Al0_6 Th3_7 3.202463 1_555
Al0_6 Th0_7 3.456262 1_555
Al0_6 Th1_6 3.456262 1_555
Al0_7 Al3_6 2.707040 1_556
Al0_7 Th2_7 3.128249 1_555
Al0_7 Th2_3 3.128249 1_555
Al0_7 Th4_3 3.202463 1_555
Al0_7 Th4_7 3.202463 1_555
Al0_7 Th3_2 3.202463 1_556
Al0_7 Th3_6 3.202463 1_556
Al0_7 Th1_7 3.456262 1_555
Al0_7 Th0_6 3.456262 1_556
Al1_0 Al2_2 2.707596 1_545
Al1_0 Th3_4 3.128774 1_455
Al1_0 Th3_0 3.128774 1_555
Al1_0 Th2_0 3.203127 1_555
Al1_0 Th2_4 3.203127 1_455
Al1_0 Th5_6 3.203127 1_445
Al1_0 Th5_2 3.203127 1_545
Al1_0 Th1_0 3.456099 1_555
Al1_0 Th0_0 3.456099 1_555
Al1_1 Al2_3 2.707596 1_545
Al1_1 Th3_1 3.128774 1_555
Al1_1 Th3_5 3.128774 1_455
Al1_1 Th2_1 3.203127 1_555
Al1_1 Th2_5 3.203127 1_455
Al1_1 Th5_3 3.203127 1_545
Al1_1 Th5_7 3.203127 1_445
Al1_1 Th1_1 3.456099 1_555
Al1_1 Th0_1 3.456099 1_555
Al1_2 Al2_0 2.707596 1_555
Al1_2 Th3_6 3.128774 1_455
Al1_2 Th3_2 3.128774 1_555
Al1_2 Th2_6 3.203127 1_455
Al1_2 Th2_2 3.203127 1_555
Al1_2 Th5_0 3.203127 1_555
Al1_2 Th5_4 3.203127 1_455
Al1_2 Th1_2 3.456099 1_555
Al1_2 Th0_2 3.456099 1_555
Al1_3 Al2_1 2.707596 1_555
Al1_3 Th3_7 3.128774 1_455
Al1_3 Th3_3 3.128774 1_555
Al1_3 Th5_5 3.203127 1_455
Al1_3 Th5_1 3.203127 1_555
Al1_3 Th2_3 3.203127 1_555
Al1_3 Th2_7 3.203127 1_455
Al1_3 Th1_3 3.456099 1_555
Al1_3 Th0_3 3.456099 1_555
Al1_4 Al2_6 2.707596 1_545
Al1_4 Th3_0 3.128774 1_555
Al1_4 Th3_4 3.128774 1_555
Al1_4 Th2_0 3.203127 1_555
Al1_4 Th2_4 3.203127 1_555
Al1_4 Th5_6 3.203127 1_545
Al1_4 Th5_2 3.203127 1_545
Al1_4 Th1_4 3.456099 1_555
Al1_4 Th0_4 3.456099 1_555
Al1_5 Al2_7 2.707596 1_545
Al1_5 Th3_1 3.128774 1_555
Al1_5 Th3_5 3.128774 1_555
Al1_5 Th2_1 3.203127 1_555
Al1_5 Th2_5 3.203127 1_555
Al1_5 Th5_3 3.203127 1_545
Al1_5 Th5_7 3.203127 1_545
Al1_5 Th1_5 3.456099 1_555
Al1_5 Th0_5 3.456099 1_555
Al1_6 Al2_4 2.707596 1_555
Al1_6 Th3_6 3.128774 1_555
Al1_6 Th3_2 3.128774 1_555
Al1_6 Th2_2 3.203127 1_555
Al1_6 Th2_6 3.203127 1_555
Al1_6 Th5_0 3.203127 1_555
Al1_6 Th5_4 3.203127 1_555
Al1_6 Th1_6 3.456099 1_555
Al1_6 Th0_6 3.456099 1_555
Al1_7 Al2_5 2.707596 1_555
Al1_7 Th3_7 3.128774 1_555
Al1_7 Th3_3 3.128774 1_555
Al1_7 Th5_5 3.203127 1_555
Al1_7 Th5_1 3.203127 1_555
Al1_7 Th2_3 3.203127 1_555
Al1_7 Th2_7 3.203127 1_555
Al1_7 Th1_7 3.456099 1_555
Al1_7 Th0_7 3.456099 1_555
Al2_0 Th4_0 3.128774 1_555
Al2_0 Th4_4 3.128774 1_455
Al2_0 Th2_2 3.203127 1_555
Al2_0 Th5_0 3.203127 1_555
Al2_0 Th5_4 3.203127 1_455
Al2_0 Th2_6 3.203127 1_455
Al2_0 Th0_3 3.456099 1_555
Al2_0 Th1_0 3.456099 1_555
Al2_1 Th4_5 3.128774 1_455
Al2_1 Th4_1 3.128774 1_555
Al2_1 Th5_5 3.203127 1_455
Al2_1 Th5_1 3.203127 1_555
Al2_1 Th2_7 3.203127 1_455
Al2_1 Th2_3 3.203127 1_555
Al2_1 Th0_2 3.456099 1_556
Al2_1 Th1_1 3.456099 1_555
Al2_2 Th4_2 3.128774 1_555
Al2_2 Th4_6 3.128774 1_455
Al2_2 Th5_6 3.203127 1_455
Al2_2 Th5_2 3.203127 1_555
Al2_2 Th2_4 3.203127 1_465
Al2_2 Th2_0 3.203127 1_565
Al2_2 Th0_1 3.456099 1_565
Al2_2 Th1_2 3.456099 1_555
Al2_3 Th4_3 3.128774 1_555
Al2_3 Th4_7 3.128774 1_455
Al2_3 Th2_1 3.203127 1_565
Al2_3 Th2_5 3.203127 1_465
Al2_3 Th5_3 3.203127 1_555
Al2_3 Th5_7 3.203127 1_455
Al2_3 Th0_0 3.456099 1_566
Al2_3 Th1_3 3.456099 1_555
Al2_4 Th4_0 3.128774 1_555
Al2_4 Th4_4 3.128774 1_555
Al2_4 Th2_2 3.203127 1_555
Al2_4 Th5_0 3.203127 1_555
Al2_4 Th5_4 3.203127 1_555
Al2_4 Th2_6 3.203127 1_555
Al2_4 Th0_7 3.456099 1_555
Al2_4 Th1_4 3.456099 1_555
Al2_5 Th4_1 3.128774 1_555
Al2_5 Th4_5 3.128774 1_555
Al2_5 Th5_1 3.203127 1_555
Al2_5 Th5_5 3.203127 1_555
Al2_5 Th2_3 3.203127 1_555
Al2_5 Th2_7 3.203127 1_555
Al2_5 Th0_6 3.456099 1_556
Al2_5 Th1_5 3.456099 1_555
Al2_6 Th4_2 3.128774 1_555
Al2_6 Th4_6 3.128774 1_555
Al2_6 Th5_6 3.203127 1_555
Al2_6 Th5_2 3.203127 1_555
Al2_6 Th2_0 3.203127 1_565
Al2_6 Th2_4 3.203127 1_565
Al2_6 Th0_5 3.456099 1_565
Al2_6 Th1_6 3.456099 1_555
Al2_7 Th4_3 3.128774 1_555
Al2_7 Th4_7 3.128774 1_555
Al2_7 Th2_1 3.203127 1_565
Al2_7 Th2_5 3.203127 1_565
Al2_7 Th5_3 3.203127 1_555
Al2_7 Th5_7 3.203127 1_555
Al2_7 Th0_4 3.456099 1_566
Al2_7 Th1_7 3.456099 1_555
Al3_0 Th5_0 3.128249 1_555
Al3_0 Th5_4 3.128249 1_455
Al3_0 Th4_1 3.202463 1_554
Al3_0 Th4_5 3.202463 1_454
Al3_0 Th3_4 3.202463 1_455
Al3_0 Th3_0 3.202463 1_555
Al3_0 Th0_2 3.456262 1_555
Al3_0 Th1_0 3.456262 1_555
Al3_1 Th5_5 3.128249 1_455
Al3_1 Th5_1 3.128249 1_555
Al3_1 Th3_5 3.202463 1_455
Al3_1 Th3_1 3.202463 1_555
Al3_1 Th4_4 3.202463 1_455
Al3_1 Th4_0 3.202463 1_555
Al3_1 Th1_1 3.456262 1_555
Al3_1 Th0_3 3.456262 1_555
Al3_2 Th5_2 3.128249 1_555
Al3_2 Th5_6 3.128249 1_455
Al3_2 Th4_3 3.202463 1_554
Al3_2 Th4_7 3.202463 1_454
Al3_2 Th3_6 3.202463 1_455
Al3_2 Th3_2 3.202463 1_555
Al3_2 Th1_2 3.456262 1_555
Al3_2 Th0_0 3.456262 1_565
Al3_3 Th5_3 3.128249 1_555
Al3_3 Th5_7 3.128249 1_455
Al3_3 Th3_7 3.202463 1_455
Al3_3 Th3_3 3.202463 1_555
Al3_3 Th4_6 3.202463 1_455
Al3_3 Th4_2 3.202463 1_555
Al3_3 Th1_3 3.456262 1_555
Al3_3 Th0_1 3.456262 1_565
Al3_4 Th5_0 3.128249 1_555
Al3_4 Th5_4 3.128249 1_555
Al3_4 Th4_5 3.202463 1_554
Al3_4 Th4_1 3.202463 1_554
Al3_4 Th3_4 3.202463 1_555
Al3_4 Th3_0 3.202463 1_555
Al3_4 Th0_6 3.456262 1_555
Al3_4 Th1_4 3.456262 1_555
Al3_5 Th5_5 3.128249 1_555
Al3_5 Th5_1 3.128249 1_555
Al3_5 Th3_1 3.202463 1_555
Al3_5 Th3_5 3.202463 1_555
Al3_5 Th4_0 3.202463 1_555
Al3_5 Th4_4 3.202463 1_555
Al3_5 Th1_5 3.456262 1_555
Al3_5 Th0_7 3.456262 1_555
Al3_6 Th5_6 3.128249 1_555
Al3_6 Th5_2 3.128249 1_555
Al3_6 Th4_3 3.202463 1_554
Al3_6 Th4_7 3.202463 1_554
Al3_6 Th3_6 3.202463 1_555
Al3_6 Th3_2 3.202463 1_555
Al3_6 Th1_6 3.456262 1_555
Al3_6 Th0_4 3.456262 1_565
Al3_7 Th5_3 3.128249 1_555
Al3_7 Th5_7 3.128249 1_555
Al3_7 Th3_3 3.202463 1_555
Al3_7 Th3_7 3.202463 1_555
Al3_7 Th4_6 3.202463 1_555
Al3_7 Th4_2 3.202463 1_555
Al3_7 Th1_7 3.456262 1_555
Al3_7 Th0_5 3.456262 1_565
