# generated using pymatgen
data_Yb2MgCu(GeO3)4
_symmetry_space_group_name_H-M   'P 1'
_cell_length_a   5.23005047
_cell_length_b   7.30716542
_cell_length_c   7.51923320
_cell_angle_alpha   69.33926735
_cell_angle_beta   89.49389507
_cell_angle_gamma   75.20876690
_symmetry_Int_Tables_number   1
_chemical_formula_structural   Yb2MgCu(GeO3)4
_chemical_formula_sum   'Yb2 Mg1 Cu1 Ge4 O12'
_cell_volume   258.91956113
_cell_formula_units_Z   1
loop_
 _symmetry_equiv_pos_site_id
 _symmetry_equiv_pos_as_xyz
  1  'x, y, z'
loop_
 _atom_site_type_symbol
 _atom_site_label
 _atom_site_symmetry_multiplicity
 _atom_site_fract_x
 _atom_site_fract_y
 _atom_site_fract_z
 _atom_site_occupancy
  Yb  Yb0  1  0.03462800  0.77199700  0.43925400  1
  Yb  Yb1  1  0.99092100  0.24143700  0.54492500  1
  Mg  Mg0  1  0.07551800  0.64700700  0.93866100  1
  Cu  Cu0  1  0.00722200  0.02275400  0.99959900  1
  Ge  Ge0  1  0.53429000  0.83447800  0.79043300  1
  Ge  Ge1  1  0.47099800  0.16130200  0.22052500  1
  Ge  Ge2  1  0.55463100  0.58421300  0.24132700  1
  Ge  Ge3  1  0.45339900  0.39717300  0.76840000  1
  O  O0  1  0.82556500  0.86499900  0.68488000  1
  O  O1  1  0.24839600  0.05928100  0.36967500  1
  O  O2  1  0.73513000  0.58952700  0.42721300  1
  O  O3  1  0.25532800  0.43284500  0.57222600  1
  O  O4  1  0.35966100  0.67348500  0.73748500  1
  O  O5  1  0.62101300  0.31222800  0.30920500  1
  O  O6  1  0.71255700  0.65407700  0.02041800  1
  O  O7  1  0.78750100  0.26915300  0.80891000  1
  O  O8  1  0.21393500  0.71601900  0.15683000  1
  O  O9  1  0.74305200  0.98860200  0.17792000  1
  O  O10  1  0.28213100  0.03020700  0.81534400  1
  O  O11  1  0.28856800  0.34743000  0.99343700  1
loop_
_geom_bond_atom_site_label_1
_geom_bond_atom_site_label_2
_geom_bond_distance
_geom_bond_site_symmetry_2
Mg0 O6 1.983902 1_456
Mg0 O8 2.064132 1_556
Mg0 O11 2.080776 1_555
Mg0 O4 2.105865 1_555
Mg0 O0 2.173366 1_455
Cu0 O9 1.917342 1_446
Cu0 O7 1.941414 1_455
Cu0 O10 1.985254 1_555
Cu0 O8 2.122652 1_546
Ge0 O0 1.739990 1_555
Ge0 O10 1.743983 1_565
Ge0 O4 1.806131 1_555
Ge0 O6 1.841136 1_556
Ge1 O1 1.731765 1_555
Ge1 O9 1.755016 1_545
Ge1 O5 1.801789 1_555
Ge1 O11 1.844767 1_554
Ge2 O2 1.710739 1_555
Ge2 O8 1.793941 1_555
Ge2 O5 1.807197 1_555
Ge2 O6 1.815113 1_555
Ge3 O3 1.713105 1_555
Ge3 O7 1.730573 1_555
Ge3 O11 1.854378 1_555
Ge3 O4 1.880526 1_555
O0 Yb0 2.353532 1_655
O0 Yb1 2.928744 1_565
O1 Yb1 2.369108 1_455
O1 Yb0 2.518623 1_545
O2 Yb0 2.322424 1_655
O2 Yb1 2.395324 1_555
O3 Yb1 2.259615 1_455
O3 Yb0 2.298905 1_555
O4 Yb0 2.596162 1_555
O5 Yb1 2.460596 1_555
O7 Yb1 2.291143 1_555
O8 Yb0 2.436886 1_555
O9 Yb0 2.306030 1_655
O10 Yb1 2.340131 1_455
