# generated using pymatgen
data_MgCr2(PO5)2
_symmetry_space_group_name_H-M   'P 1'
_cell_length_a   6.12434200
_cell_length_b   6.12458600
_cell_length_c   5.45006400
_cell_angle_alpha   89.99755820
_cell_angle_beta   90.00013415
_cell_angle_gamma   89.99902705
_symmetry_Int_Tables_number   1
_chemical_formula_structural   MgCr2(PO5)2
_chemical_formula_sum   'Mg1 Cr2 P2 O10'
_cell_volume   204.42677351
_cell_formula_units_Z   1
loop_
 _symmetry_equiv_pos_site_id
 _symmetry_equiv_pos_as_xyz
  1  'x, y, z'
loop_
 _atom_site_type_symbol
 _atom_site_label
 _atom_site_symmetry_multiplicity
 _atom_site_fract_x
 _atom_site_fract_y
 _atom_site_fract_z
 _atom_site_occupancy
  Mg  Mg0  1  0.75009400  0.24989600  0.00017700  1
  Cr  Cr0  1  0.25000500  0.25000400  0.73047300  1
  Cr  Cr1  1  0.74999000  0.75000800  0.26939300  1
  P  P0  1  0.25000100  0.75000200  0.49998700  1
  P  P1  1  0.74999100  0.25000800  0.50007600  1
  O  O0  1  0.04828000  0.81375400  0.34453800  1
  O  O1  1  0.18626800  0.54829500  0.65544300  1
  O  O2  1  0.24991400  0.24995900  0.03599500  1
  O  O3  1  0.31375500  0.95169900  0.65544000  1
  O  O4  1  0.45170100  0.68624500  0.34450700  1
  O  O5  1  0.56917400  0.31183100  0.68760400  1
  O  O6  1  0.68814300  0.06915600  0.31248300  1
  O  O7  1  0.75001400  0.75013300  0.96391500  1
  O  O8  1  0.81181400  0.43084600  0.31243300  1
  O  O9  1  0.93085600  0.18816400  0.68753600  1
loop_
_geom_bond_atom_site_label_1
_geom_bond_atom_site_label_2
_geom_bond_distance
_geom_bond_site_symmetry_2
Mg0 O6 2.065494 1_555
Mg0 O8 2.065776 1_555
Mg0 O9 2.066851 1_554
Mg0 O5 2.067261 1_554
Cr0 O2 1.665115 1_556
Cr0 O1 1.912353 1_555
Cr0 O3 1.912488 1_545
Cr0 O9 2.004648 1_455
Cr0 O5 2.004706 1_555
Cr1 O7 1.664875 1_554
Cr1 O4 1.912432 1_555
Cr1 O0 1.912458 1_655
Cr1 O6 2.004816 1_565
Cr1 O8 2.004822 1_555
O0 P0 1.548031 1_555
O1 P0 1.547982 1_555
O3 P0 1.548013 1_555
O4 P0 1.548050 1_555
O5 P1 1.553789 1_555
O6 P1 1.554267 1_555
O8 P1 1.554287 1_555
O9 P1 1.553761 1_555
