# generated using pymatgen
data_MgCo4(CuO4)3
_symmetry_space_group_name_H-M   'P 1'
_cell_length_a   6.29568436
_cell_length_b   6.29018273
_cell_length_c   6.22668101
_cell_angle_alpha   109.41220928
_cell_angle_beta   109.14576573
_cell_angle_gamma   110.05986791
_symmetry_Int_Tables_number   1
_chemical_formula_structural   MgCo4(CuO4)3
_chemical_formula_sum   'Mg1 Co4 Cu3 O12'
_cell_volume   189.33015167
_cell_formula_units_Z   1
loop_
 _symmetry_equiv_pos_site_id
 _symmetry_equiv_pos_as_xyz
  1  'x, y, z'
loop_
 _atom_site_type_symbol
 _atom_site_label
 _atom_site_symmetry_multiplicity
 _atom_site_fract_x
 _atom_site_fract_y
 _atom_site_fract_z
 _atom_site_occupancy
  Mg  Mg0  1  0.91459500  0.95796500  0.94543300  1
  Co  Co0  1  0.98664500  0.99258200  0.47502900  1
  Co  Co1  1  0.98697300  0.49359400  0.97439700  1
  Co  Co2  1  0.47790800  0.48403500  0.46429800  1
  Co  Co3  1  0.47613600  0.99284700  0.97315700  1
  Cu  Cu0  1  0.48586700  0.49378100  0.97161000  1
  Cu  Cu1  1  0.98234600  0.48976800  0.47156600  1
  Cu  Cu2  1  0.48498200  0.99102900  0.47448600  1
  O  O0  1  0.80276700  0.30255000  0.10458900  1
  O  O1  1  0.16301700  0.67425800  0.83711300  1
  O  O2  1  0.82043300  0.69294000  0.50913600  1
  O  O3  1  0.30521400  0.47737600  0.15569700  1
  O  O4  1  0.47003000  0.16209200  0.28137200  1
  O  O5  1  0.12022600  0.81902100  0.28655600  1
  O  O6  1  0.68447900  0.85947500  0.14534800  1
  O  O7  1  0.50619400  0.82253600  0.67180200  1
  O  O8  1  0.14497000  0.28832900  0.43480100  1
  O  O9  1  0.67094700  0.51825800  0.79067800  1
  O  O10  1  0.85033100  0.16029300  0.66473000  1
  O  O11  1  0.29094200  0.12935400  0.79528500  1
loop_
_geom_bond_atom_site_label_1
_geom_bond_atom_site_label_2
_geom_bond_distance
_geom_bond_site_symmetry_2
Mg0 O7 2.213286 1_555
Mg0 O6 2.260982 1_556
Mg0 O9 2.297766 1_555
Mg0 O2 2.401267 1_555
Mg0 O10 2.491264 1_565
Mg0 O0 2.500498 1_566
Mg0 O8 2.555642 1_666
Mg0 O5 2.675427 1_656
Co0 O11 1.899976 1_665
Co0 O5 1.924044 1_655
Co0 O10 1.924138 1_565
Co0 O8 1.928338 1_665
Co0 O6 1.933201 1_555
Co0 O2 1.936860 1_555
Co1 O1 1.911460 1_655
Co1 O0 1.937622 1_556
Co1 O5 1.944111 1_656
Co1 O10 1.959837 1_555
Co1 O3 2.008023 1_656
Co1 O9 2.031747 1_555
Co2 O3 1.849618 1_555
Co2 O9 1.887609 1_555
Co2 O4 1.939475 1_555
Co2 O8 1.941584 1_555
Co2 O2 1.967785 1_555
Co2 O7 1.998751 1_555
Co3 O4 1.880517 1_566
Co3 O1 1.919830 1_555
Co3 O7 1.933974 1_555
Co3 O0 1.944653 1_566
Co3 O11 1.948135 1_565
Co3 O6 2.001035 1_556
Cu0 O3 1.863148 1_556
Cu0 O11 1.865360 1_555
Cu0 O9 1.871886 1_555
Cu0 O6 1.873643 1_556
Cu1 O1 1.860582 1_655
Cu1 O0 1.868101 1_555
Cu1 O8 1.886004 1_655
Cu1 O2 1.891672 1_555
Cu2 O4 1.862226 1_565
Cu2 O5 1.872075 1_555
Cu2 O7 1.872347 1_555
Cu2 O10 1.876644 1_565
