# generated using pymatgen
data_ZrHg
_symmetry_space_group_name_H-M   'P 1'
_cell_length_a   4.28169634
_cell_length_b   4.45196333
_cell_length_c   4.45196333
_cell_angle_alpha   90.00000000
_cell_angle_beta   90.00000000
_cell_angle_gamma   90.00000000
_symmetry_Int_Tables_number   1
_chemical_formula_structural   ZrHg
_chemical_formula_sum   'Zr2 Hg2'
_cell_volume   84.86312508
_cell_formula_units_Z   2
loop_
 _symmetry_equiv_pos_site_id
 _symmetry_equiv_pos_as_xyz
  1  'x, y, z'
loop_
 _atom_site_type_symbol
 _atom_site_label
 _atom_site_symmetry_multiplicity
 _atom_site_fract_x
 _atom_site_fract_y
 _atom_site_fract_z
 _atom_site_occupancy
  Zr  Zr0  1  0.50000000  0.50000000  0.00000000  1
  Zr  Zr1  1  0.50000000  0.00000000  0.50000000  1
  Hg  Hg0  1  -0.00000000  0.50000000  0.50000000  1
  Hg  Hg1  1  0.00000000  -0.00000000  -0.00000000  1
loop_
_geom_bond_atom_site_label_1
_geom_bond_atom_site_label_2
_geom_bond_distance
_geom_bond_site_symmetry_2
Zr0 Zr1 3.148013 1_555
Zr0 Zr1 3.148013 1_554
Zr0 Zr1 3.148013 1_565
Zr0 Zr1 3.148013 1_564
Hg0 Zr1 3.088402 1_555
Hg0 Zr1 3.088402 1_455
Hg0 Zr1 3.088402 1_465
Hg0 Zr0 3.088402 1_556
Hg0 Zr0 3.088402 1_455
Hg0 Zr1 3.088402 1_565
Hg0 Zr0 3.088402 1_456
Hg0 Zr0 3.088402 1_555
Hg0 Hg1 3.148013 1_566
Hg0 Hg1 3.148013 1_556
Hg0 Hg1 3.148013 1_555
Hg0 Hg1 3.148013 1_565
Hg1 Zr1 3.088402 1_555
Hg1 Zr1 3.088402 1_455
Hg1 Zr1 3.088402 1_454
Hg1 Zr1 3.088402 1_554
Hg1 Zr0 3.088402 1_455
Hg1 Zr0 3.088402 1_445
Hg1 Zr0 3.088402 1_545
Hg1 Zr0 3.088402 1_555
