# generated using pymatgen
data_ZrNi2
_symmetry_space_group_name_H-M   'P 1'
_cell_length_a   4.88747193
_cell_length_b   4.88747319
_cell_length_c   4.88747288
_cell_angle_alpha   60.00000888
_cell_angle_beta   60.00000036
_cell_angle_gamma   60.00000083
_symmetry_Int_Tables_number   1
_chemical_formula_structural   ZrNi2
_chemical_formula_sum   'Zr2 Ni4'
_cell_volume   82.55398850
_cell_formula_units_Z   2
loop_
 _symmetry_equiv_pos_site_id
 _symmetry_equiv_pos_as_xyz
  1  'x, y, z'
loop_
 _atom_site_type_symbol
 _atom_site_label
 _atom_site_symmetry_multiplicity
 _atom_site_fract_x
 _atom_site_fract_y
 _atom_site_fract_z
 _atom_site_occupancy
  Zr  Zr0  1  0.87500000  0.87500000  0.87500000  1
  Zr  Zr1  1  0.12500000  0.12500000  0.12500000  1
  Ni  Ni0  1  0.50000000  0.50000000  0.50000000  1
  Ni  Ni1  1  0.50000000  0.50000000  0.00000000  1
  Ni  Ni2  1  -0.00000000  0.50000000  0.50000000  1
  Ni  Ni3  1  0.50000000  0.00000000  0.50000000  1
loop_
_geom_bond_atom_site_label_1
_geom_bond_atom_site_label_2
_geom_bond_distance
_geom_bond_site_symmetry_2
Ni0 Ni2 2.443736 1_555
Ni0 Ni2 2.443736 1_655
Ni0 Ni1 2.443736 1_556
Ni0 Ni1 2.443736 1_555
Ni0 Ni3 2.443737 1_565
Ni0 Ni3 2.443737 1_555
Ni0 Zr0 2.865535 1_455
Ni0 Zr1 2.865535 1_655
Ni0 Zr1 2.865535 1_556
Ni0 Zr0 2.865535 1_554
Ni0 Zr1 2.865535 1_565
Ni0 Zr0 2.865535 1_545
Ni1 Ni2 2.443736 1_654
Ni1 Ni2 2.443736 1_555
Ni1 Ni3 2.443737 1_564
Ni1 Ni3 2.443737 1_555
Ni1 Zr0 2.865535 1_454
Ni1 Zr1 2.865535 1_655
Ni1 Zr0 2.865535 1_554
Ni1 Zr1 2.865535 1_555
Ni1 Zr0 2.865535 1_544
Ni1 Zr1 2.865535 1_565
Ni2 Ni3 2.443736 1_555
Ni2 Ni3 2.443736 1_465
Ni2 Zr1 2.865535 1_555
Ni2 Zr0 2.865535 1_455
Ni2 Zr0 2.865535 1_454
Ni2 Zr1 2.865535 1_556
Ni2 Zr0 2.865535 1_445
Ni2 Zr1 2.865535 1_565
Ni3 Zr1 2.865535 1_655
Ni3 Zr0 2.865535 1_445
Ni3 Zr0 2.865535 1_545
Ni3 Zr1 2.865535 1_555
Ni3 Zr0 2.865535 1_544
Ni3 Zr1 2.865535 1_556
