# generated using pymatgen
data_Pr2Si3Pd
_symmetry_space_group_name_H-M   'P 1'
_cell_length_a   8.26536183
_cell_length_b   8.26536171
_cell_length_c   8.65450687
_cell_angle_alpha   90.00000094
_cell_angle_beta   89.99999974
_cell_angle_gamma   120.00001314
_symmetry_Int_Tables_number   1
_chemical_formula_structural   Pr2Si3Pd
_chemical_formula_sum   'Pr8 Si12 Pd4'
_cell_volume   512.03144839
_cell_formula_units_Z   4
loop_
 _symmetry_equiv_pos_site_id
 _symmetry_equiv_pos_as_xyz
  1  'x, y, z'
loop_
 _atom_site_type_symbol
 _atom_site_label
 _atom_site_symmetry_multiplicity
 _atom_site_fract_x
 _atom_site_fract_y
 _atom_site_fract_z
 _atom_site_occupancy
  Pr  Pr0  1  0.49982467  0.50017570  0.74999896  1
  Pr  Pr1  1  0.50017588  0.49982396  0.25000106  1
  Pr  Pr2  1  0.00035109  0.50017575  0.74999892  1
  Pr  Pr3  1  0.99964821  0.49982386  0.25000109  1
  Pr  Pr4  1  0.49982427  0.99964863  0.74999896  1
  Pr  Pr5  1  0.50017589  0.00035175  0.25000103  1
  Pr  Pr6  1  -0.00000002  -0.00000010  0.75000390  1
  Pr  Pr7  1  0.00000002  0.00000002  0.24999612  1
  Si  Si0  1  0.83401434  0.16598580  0.99985243  1
  Si  Si1  1  0.16598496  0.83401493  0.00015189  1
  Si  Si2  1  0.33197166  0.16598586  0.99985245  1
  Si  Si3  1  0.16598333  0.83401659  0.49984814  1
  Si  Si4  1  0.66802986  0.83401491  0.00015189  1
  Si  Si5  1  0.83401581  0.16598427  0.50014757  1
  Si  Si6  1  0.83401411  0.66802819  0.99985250  1
  Si  Si7  1  0.66803306  0.83401651  0.49984813  1
  Si  Si8  1  0.16598508  0.33197026  0.00015179  1
  Si  Si9  1  0.33196870  0.16598437  0.50014755  1
  Si  Si10  1  0.16598345  0.33196698  0.49984822  1
  Si  Si11  1  0.83401561  0.66803120  0.50014750  1
  Pd  Pd0  1  0.66666690  0.33333298  0.99945448  1
  Pd  Pd1  1  0.33333312  0.66666680  0.00053239  1
  Pd  Pd2  1  0.33333311  0.66666681  0.49946766  1
  Pd  Pd3  1  0.66666691  0.33333297  0.50054537  1
loop_
_geom_bond_atom_site_label_1
_geom_bond_atom_site_label_2
_geom_bond_distance
_geom_bond_site_symmetry_2
Pr0 Si7 3.224501 1_555
Pr0 Si10 3.224503 1_555
Pr0 Si4 3.224505 1_556
Pr0 Si8 3.224506 1_556
Pr0 Si11 3.224610 1_555
Pr0 Si9 3.224611 1_555
Pr0 Si6 3.224614 1_555
Pr0 Si2 3.224615 1_555
Pr1 Si9 3.224469 1_555
Pr1 Si11 3.224470 1_555
Pr1 Si2 3.224474 1_554
Pr1 Si6 3.224474 1_554
Pr1 Si10 3.224592 1_555
Pr1 Si7 3.224593 1_555
Pr1 Si8 3.224596 1_555
Pr1 Si4 3.224596 1_555
Pr2 Si3 3.224501 1_555
Pr2 Si10 3.224502 1_555
Pr2 Si1 3.224505 1_556
Pr2 Si8 3.224506 1_556
Pr2 Si11 3.224610 1_455
Pr2 Si5 3.224612 1_455
Pr2 Si6 3.224614 1_455
Pr2 Si0 3.224616 1_455
Pr3 Si5 3.224469 1_555
Pr3 Si11 3.224471 1_555
Pr3 Si0 3.224474 1_554
Pr3 Si6 3.224476 1_554
Pr3 Si10 3.224591 1_655
Pr3 Si3 3.224593 1_655
Pr3 Si8 3.224595 1_655
Pr3 Si1 3.224597 1_655
Pr4 Si3 3.224502 1_555
Pr4 Si7 3.224502 1_555
Pr4 Si1 3.224505 1_556
Pr4 Si4 3.224506 1_556
Pr4 Si9 3.224612 1_565
Pr4 Si5 3.224612 1_565
Pr4 Si2 3.224616 1_565
Pr4 Si0 3.224617 1_565
Pr5 Si9 3.224471 1_555
Pr5 Si5 3.224471 1_555
Pr5 Si2 3.224475 1_554
Pr5 Si0 3.224476 1_554
Pr5 Si7 3.224592 1_545
Pr5 Si3 3.224593 1_545
Pr5 Si4 3.224596 1_545
Pr5 Si1 3.224596 1_545
Pr6 Si0 3.212819 1_455
Pr6 Si2 3.212820 1_555
Pr6 Si6 3.212820 1_445
Pr6 Si5 3.212849 1_455
Pr6 Si9 3.212849 1_555
Pr6 Si11 3.212849 1_445
Pr6 Si1 3.214556 1_546
Pr6 Si4 3.214556 1_446
Pr6 Si8 3.214557 1_556
Pr6 Si3 3.214583 1_545
Pr6 Si7 3.214584 1_445
Pr6 Si10 3.214585 1_555
Pr7 Si1 3.212786 1_545
Pr7 Si4 3.212786 1_445
Pr7 Si8 3.212787 1_555
Pr7 Si3 3.212814 1_545
Pr7 Si7 3.212815 1_445
Pr7 Si10 3.212815 1_555
Pr7 Si0 3.214538 1_454
Pr7 Si2 3.214539 1_554
Pr7 Si6 3.214540 1_444
Pr7 Si5 3.214568 1_455
Pr7 Si9 3.214568 1_555
Pr7 Si11 3.214569 1_445
Si0 Si8 2.376252 1_656
Si0 Si4 2.376253 1_546
Si1 Si6 2.376253 1_454
Si1 Si2 2.376253 1_564
Si2 Si8 2.376254 1_556
Si3 Si9 2.376231 1_565
Si4 Si6 2.376254 1_554
Si5 Si7 2.376231 1_545
Si10 Si5 2.376230 1_455
Si10 Si9 2.376232 1_555
Si11 Si3 2.376230 1_655
Si11 Si7 2.376232 1_555
Pd0 Si0 2.395751 1_555
Pd0 Si6 2.395755 1_555
Pd0 Si2 2.395755 1_555
Pd0 Pr2 3.219615 1_655
Pd0 Pr4 3.219615 1_545
Pd0 Pr0 3.219619 1_555
Pd0 Pr5 3.222230 1_556
Pd0 Pr3 3.222231 1_556
Pd0 Pr1 3.222235 1_556
Pd1 Si1 2.395763 1_555
Pd1 Si8 2.395764 1_555
Pd1 Si4 2.395766 1_555
Pd1 Pr5 3.219695 1_565
Pd1 Pr3 3.219695 1_455
Pd1 Pr1 3.219699 1_555
Pd1 Pr4 3.222157 1_554
Pd1 Pr2 3.222158 1_554
Pd1 Pr0 3.222161 1_554
Pd2 Si3 2.395786 1_555
Pd2 Si10 2.395788 1_555
Pd2 Si7 2.395789 1_555
Pd2 Pr3 3.219683 1_455
Pd2 Pr5 3.219683 1_565
Pd2 Pr1 3.219687 1_555
Pd2 Pr4 3.222144 1_555
Pd2 Pr2 3.222145 1_555
Pd2 Pr0 3.222149 1_555
Pd3 Si5 2.395772 1_555
Pd3 Si9 2.395776 1_555
Pd3 Si11 2.395777 1_555
Pd3 Pr2 3.219603 1_655
Pd3 Pr4 3.219604 1_545
Pd3 Pr0 3.219608 1_555
Pd3 Pr5 3.222217 1_555
Pd3 Pr3 3.222217 1_555
Pd3 Pr1 3.222222 1_555
