# generated using pymatgen
data_MgMnV4NiO12
_symmetry_space_group_name_H-M   'P 1'
_cell_length_a   6.89616134
_cell_length_b   6.89901914
_cell_length_c   5.74690577
_cell_angle_alpha   73.13188307
_cell_angle_beta   106.78499841
_cell_angle_gamma   99.91411823
_symmetry_Int_Tables_number   1
_chemical_formula_structural   MgMnV4NiO12
_chemical_formula_sum   'Mg1 Mn1 V4 Ni1 O12'
_cell_volume   249.33937259
_cell_formula_units_Z   1
loop_
 _symmetry_equiv_pos_site_id
 _symmetry_equiv_pos_as_xyz
  1  'x, y, z'
loop_
 _atom_site_type_symbol
 _atom_site_label
 _atom_site_symmetry_multiplicity
 _atom_site_fract_x
 _atom_site_fract_y
 _atom_site_fract_z
 _atom_site_occupancy
  Mg  Mg0  1  0.27955700  0.27999300  0.24886000  1
  Mn  Mn0  1  0.08218100  0.08219800  0.74999200  1
  V  V0  1  0.19477400  0.61718500  0.75597700  1
  V  V1  1  0.39472700  0.81753300  0.25057000  1
  V  V2  1  0.61692000  0.19446200  0.74372500  1
  V  V3  1  0.81712100  0.39465500  0.24816700  1
  Ni  Ni0  1  0.92501600  0.92489200  0.25029300  1
  O  O0  1  0.03053600  0.80538800  0.64322300  1
  O  O1  1  0.07845600  0.37202700  0.78284600  1
  O  O2  1  0.20947600  0.00579000  0.15463600  1
  O  O3  1  0.36171300  0.65488100  0.56656200  1
  O  O4  1  0.37243500  0.07701500  0.71930700  1
  O  O5  1  0.31705700  0.59590800  0.08626200  1
  O  O6  1  0.65444200  0.36151200  0.93279600  1
  O  O7  1  0.64158200  0.90478800  0.28196200  1
  O  O8  1  0.59537600  0.31685600  0.41328000  1
  O  O9  1  0.80549600  0.03066600  0.85688700  1
  O  O10  1  0.90412200  0.64138000  0.21878200  1
  O  O11  1  0.00605000  0.20990800  0.34587500  1
loop_
_geom_bond_atom_site_label_1
_geom_bond_atom_site_label_2
_geom_bond_distance
_geom_bond_site_symmetry_2
Mg0 O2 2.057657 1_555
Mg0 O11 2.058900 1_555
Mg0 O5 2.110414 1_555
Mg0 O8 2.112127 1_555
Mg0 O1 2.582654 1_554
Mg0 O4 2.606202 1_555
Mn0 O4 2.066665 1_555
Mn0 O1 2.067374 1_555
Mn0 O9 2.112142 1_455
Mn0 O0 2.114231 1_545
Mn0 O11 2.170975 1_555
Mn0 O2 2.173736 1_556
Ni0 O7 1.992563 1_555
Ni0 O10 1.993178 1_555
Ni0 O0 2.117902 1_655
Ni0 O9 2.120558 1_564
Ni0 O2 2.128304 1_665
Ni0 O11 2.133456 1_665
O0 V0 1.727084 1_555
O1 V0 1.726484 1_555
O2 V1 1.836265 1_545
O3 V0 1.741932 1_555
O3 V1 1.891300 1_555
O4 V2 1.725623 1_555
O5 V0 1.814380 1_554
O5 V1 1.944250 1_555
O6 V2 1.742833 1_555
O6 V3 1.890372 1_556
O7 V1 1.680980 1_555
O8 V2 1.814130 1_555
O8 V3 1.945960 1_555
O9 V2 1.726893 1_555
O10 V3 1.681034 1_555
O11 V3 1.836106 1_455
