# generated using pymatgen
data_Na4La2Si2SO12
_symmetry_space_group_name_H-M   'P 1'
_cell_length_a   9.84351873
_cell_length_b   9.84351833
_cell_length_c   23.71970847
_cell_angle_alpha   90.18650422
_cell_angle_beta   89.81349577
_cell_angle_gamma   120.04732614
_symmetry_Int_Tables_number   1
_chemical_formula_structural   Na4La2Si2SO12
_chemical_formula_sum   'Na24 La12 Si12 S6 O72'
_cell_volume   1989.43764022
_cell_formula_units_Z   6
loop_
 _symmetry_equiv_pos_site_id
 _symmetry_equiv_pos_as_xyz
  1  'x, y, z'
loop_
 _atom_site_type_symbol
 _atom_site_label
 _atom_site_symmetry_multiplicity
 _atom_site_fract_x
 _atom_site_fract_y
 _atom_site_fract_z
 _atom_site_occupancy
  Na  Na0  1  0.65784029  0.00126135  0.25988235  1
  Na  Na1  1  0.36784879  0.38751796  0.23647528  1
  Na  Na2  1  0.98574371  0.61186154  0.25631935  1
  Na  Na3  1  0.61248204  0.63215121  0.73647528  1
  Na  Na4  1  0.99873865  0.34215971  0.75988235  1
  Na  Na5  1  0.38813846  0.01425629  0.75631935  1
  Na  Na6  1  0.32450729  0.33459435  0.59321535  1
  Na  Na7  1  0.03451579  0.72085096  0.56980828  1
  Na  Na8  1  0.65241071  0.94519454  0.58965235  1
  Na  Na9  1  0.27914904  0.96548421  0.06980828  1
  Na  Na10  1  0.66540565  0.67549271  0.09321535  1
  Na  Na11  1  0.05480546  0.34758929  0.08965235  1
  Na  Na12  1  0.99117329  0.66792835  0.92654935  1
  Na  Na13  1  0.70118179  0.05418496  0.90314228  1
  Na  Na14  1  0.31907671  0.27852854  0.92298635  1
  Na  Na15  1  0.94581504  0.29881821  0.40314228  1
  Na  Na16  1  0.33207165  0.00882671  0.42654935  1
  Na  Na17  1  0.72147146  0.68092329  0.42298635  1
  Na  Na18  1  0.98500038  0.96769080  0.50046179  1
  Na  Na19  1  0.03230920  0.01499962  0.00046179  1
  Na  Na20  1  0.65166738  0.30102380  0.83379479  1
  Na  Na21  1  0.69897620  0.34833262  0.33379479  1
  Na  Na22  1  0.31833338  0.63435780  0.16712879  1
  Na  Na23  1  0.36564220  0.68166662  0.66712879  1
  La  La0  1  0.98610154  0.99181635  0.34706476  1
  La  La1  1  0.00818365  0.01389846  0.84706476  1
  La  La2  1  -0.00007668  0.00154732  0.65357768  1
  La  La3  1  0.99845268  0.00007668  0.15357768  1
  La  La4  1  0.65276854  0.32514935  0.68039776  1
  La  La5  1  0.67485065  0.34723146  0.18039776  1
  La  La6  1  0.66659032  0.33488032  0.98691068  1
  La  La7  1  0.66511968  0.33340968  0.48691068  1
  La  La8  1  0.31943454  0.65848335  0.01373176  1
  La  La9  1  0.34151665  0.68056546  0.51373176  1
  La  La10  1  0.33325632  0.66821432  0.32024468  1
  La  La11  1  0.33178568  0.66674368  0.82024468  1
  Si  Si0  1  0.68459506  0.68788200  0.24824611  1
  Si  Si1  1  -0.00015064  0.31115976  0.25053085  1
  Si  Si2  1  0.31211800  0.31540494  0.74824611  1
  Si  Si3  1  0.68884024  0.00015064  0.75053085  1
  Si  Si4  1  0.35126206  0.02121500  0.58157911  1
  Si  Si5  1  0.66651636  0.64449276  0.58386385  1
  Si  Si6  1  0.97878500  0.64873794  0.08157911  1
  Si  Si7  1  0.35550724  0.33348364  0.08386385  1
  Si  Si8  1  0.01792806  0.35454900  0.91491311  1
  Si  Si9  1  0.33318236  0.97782676  0.91719785  1
  Si  Si10  1  0.64545100  0.98207194  0.41491311  1
  Si  Si11  1  0.02217324  0.66681764  0.41719785  1
  S  S0  1  0.31007775  0.00024687  0.25059304  1
  S  S1  1  -0.00024687  0.68992225  0.75059304  1
  S  S2  1  0.97674475  0.33357987  0.58392604  1
  S  S3  1  0.66642013  0.02325525  0.08392604  1
  S  S4  1  0.64341075  0.66691387  0.91726004  1
  S  S5  1  0.33308613  0.35658925  0.41726004  1
  O  O0  1  0.23235880  0.01582121  0.30181610  1
  O  O1  1  0.79338793  0.77944029  0.30354977  1
  O  O2  1  0.99225336  0.21045652  0.30720160  1
  O  O3  1  0.22055971  0.20661207  0.80354977  1
  O  O4  1  0.98417879  0.76764120  0.80181610  1
  O  O5  1  0.78954348  0.00774664  0.80720160  1
  O  O6  1  0.77790891  0.98474912  0.69385978  1
  O  O7  1  0.21012291  0.22626875  0.69127415  1
  O  O8  1  0.00929269  0.78307816  0.69970194  1
  O  O9  1  0.77373125  0.78987709  0.19127415  1
  O  O10  1  0.01525088  0.22209109  0.19385978  1
  O  O11  1  0.21692184  0.99070731  0.19970194  1
  O  O12  1  0.89902580  0.34915421  0.63514910  1
  O  O13  1  0.46005493  0.11277329  0.63688277  1
  O  O14  1  0.65892036  0.54378952  0.64053460  1
  O  O15  1  0.88722671  0.53994507  0.13688277  1
  O  O16  1  0.65084579  0.10097420  0.13514910  1
  O  O17  1  0.45621048  0.34107964  0.14053460  1
  O  O18  1  0.44457591  0.31808212  0.02719278  1
  O  O19  1  0.87678991  0.55960175  0.02460715  1
  O  O20  1  0.67595969  0.11641116  0.03303494  1
  O  O21  1  0.44039825  0.12321009  0.52460715  1
  O  O22  1  0.68191788  0.55542409  0.52719278  1
  O  O23  1  0.88358884  0.32404031  0.53303494  1
  O  O24  1  0.56569180  0.68248821  0.96848310  1
  O  O25  1  0.12672093  0.44610729  0.97021677  1
  O  O26  1  0.32558636  0.87712352  0.97386860  1
  O  O27  1  0.55389271  0.87327907  0.47021677  1
  O  O28  1  0.31751179  0.43430820  0.46848310  1
  O  O29  1  0.12287648  0.67441364  0.47386860  1
  O  O30  1  0.11124191  0.65141612  0.36052678  1
  O  O31  1  0.54345591  0.89293575  0.35794115  1
  O  O32  1  0.34262569  0.44974516  0.36636894  1
  O  O33  1  0.10706425  0.45654409  0.85794115  1
  O  O34  1  0.34858388  0.88875809  0.86052678  1
  O  O35  1  0.55025484  0.65737431  0.86636894  1
  O  O36  1  0.01461974  0.83200059  0.41785526  1
  O  O37  1  0.82398198  0.00419310  0.41555960  1
  O  O38  1  0.19485204  0.19520239  0.41402299  1
  O  O39  1  0.99580690  0.17601802  0.91555960  1
  O  O40  1  0.16799941  0.98538026  0.91785526  1
  O  O41  1  0.80479761  0.80514796  0.91402299  1
  O  O42  1  0.98691995  0.18779239  0.58506703  1
  O  O43  1  0.17549554  0.00522251  0.58346356  1
  O  O44  1  0.82129423  0.82425929  0.58347700  1
  O  O45  1  0.99477749  0.82450446  0.08346356  1
  O  O46  1  0.81220761  0.01308005  0.08506703  1
  O  O47  1  0.17574071  0.17870577  0.08347700  1
  O  O48  1  0.68128674  0.16533359  0.75118826  1
  O  O49  1  0.49064898  0.33752610  0.74889260  1
  O  O50  1  0.86151904  0.52853539  0.74735599  1
  O  O51  1  0.66247390  0.50935102  0.24889260  1
  O  O52  1  0.83466641  0.31871326  0.25118826  1
  O  O53  1  0.47146461  0.13848096  0.24735599  1
  O  O54  1  0.65358695  0.52112539  0.91840003  1
  O  O55  1  0.84216254  0.33855551  0.91679656  1
  O  O56  1  0.48796123  0.15759229  0.91681000  1
  O  O57  1  0.66144449  0.15783746  0.41679656  1
  O  O58  1  0.47887461  0.34641305  0.41840003  1
  O  O59  1  0.84240771  0.51203877  0.41681000  1
  O  O60  1  0.34795274  0.49866759  0.08452226  1
  O  O61  1  0.15731498  0.67086010  0.08222660  1
  O  O62  1  0.52818504  0.86186939  0.08068999  1
  O  O63  1  0.32913990  0.84268502  0.58222660  1
  O  O64  1  0.50133241  0.65204726  0.58452226  1
  O  O65  1  0.13813061  0.47181496  0.58068999  1
  O  O66  1  0.32025295  0.85445939  0.25173403  1
  O  O67  1  0.50882854  0.67188951  0.25013056  1
  O  O68  1  0.15462723  0.49092629  0.25014400  1
  O  O69  1  0.32811049  0.49117146  0.75013056  1
  O  O70  1  0.14554061  0.67974705  0.75173403  1
  O  O71  1  0.50907371  0.84537277  0.75014400  1
loop_
_geom_bond_atom_site_label_1
_geom_bond_atom_site_label_2
_geom_bond_distance
_geom_bond_site_symmetry_2
Na0 O31 2.571278 1_545
Na0 O52 2.718793 1_555
Na0 O53 2.786790 1_555
Na0 O67 2.819862 1_545
Na0 O66 2.891659 1_545
Na1 O67 2.444019 1_555
Na1 O51 2.540883 1_555
Na1 O17 2.553965 1_555
Na1 O68 2.771158 1_555
Na2 O68 2.486215 1_655
Na2 O52 2.500918 1_555
Na2 O30 2.705412 1_655
Na2 O51 2.821706 1_555
Na2 O66 2.946458 1_655
Na2 O15 2.963917 1_555
Na3 O69 2.444019 1_555
Na3 O49 2.540883 1_555
Na3 O14 2.553965 1_555
Na3 O71 2.771158 1_555
Na4 O33 2.571278 1_655
Na4 O48 2.718793 1_555
Na4 O50 2.786790 1_555
Na4 O69 2.819862 1_655
Na4 O70 2.891659 1_655
Na5 O71 2.486215 1_545
Na5 O48 2.500918 1_555
Na5 O34 2.705412 1_545
Na5 O49 2.821706 1_555
Na5 O70 2.946458 1_545
Na5 O13 2.963917 1_555
Na6 O7 2.571278 1_555
Na6 O64 2.718799 1_555
Na6 O65 2.786804 1_555
Na6 O43 2.819862 1_555
Na6 O42 2.891659 1_455
Na7 O43 2.444019 1_565
Na7 O63 2.540876 1_555
Na7 O29 2.553936 1_555
Na7 O44 2.771158 1_455
Na8 O44 2.486215 1_555
Na8 O64 2.500909 1_555
Na8 O6 2.705412 1_555
Na8 O63 2.821716 1_555
Na8 O42 2.946458 1_565
Na8 O27 2.963895 1_555
Na9 O45 2.444019 1_455
Na9 O61 2.540876 1_555
Na9 O26 2.553936 1_554
Na9 O47 2.771158 1_565
Na10 O9 2.571278 1_555
Na10 O60 2.718799 1_555
Na10 O62 2.786804 1_555
Na10 O45 2.819862 1_555
Na10 O46 2.891659 1_565
Na11 O47 2.486215 1_555
Na11 O60 2.500909 1_555
Na11 O10 2.705412 1_555
Na11 O61 2.821716 1_555
Na11 O46 2.946458 1_455
Na11 O25 2.963895 1_554
Na12 O19 2.571256 1_556
Na12 O40 2.718793 1_655
Na12 O41 2.786790 1_555
Na12 O55 2.819873 1_555
Na12 O54 2.891652 1_555
Na13 O55 2.444007 1_555
Na13 O39 2.540883 1_555
Na13 O5 2.553965 1_555
Na13 O56 2.771138 1_555
Na14 O56 2.486233 1_555
Na14 O40 2.500918 1_545
Na14 O18 2.705395 1_556
Na14 O39 2.821706 1_455
Na14 O54 2.946464 1_555
Na14 O3 2.963917 1_555
Na15 O57 2.444008 1_555
Na15 O37 2.540883 1_555
Na15 O2 2.553965 1_555
Na15 O59 2.771138 1_555
Na16 O21 2.571256 1_555
Na16 O36 2.718793 1_545
Na16 O38 2.786790 1_555
Na16 O57 2.819873 1_555
Na16 O58 2.891651 1_555
Na17 O59 2.486233 1_555
Na17 O36 2.500918 1_655
Na17 O22 2.705395 1_555
Na17 O37 2.821706 1_565
Na17 O58 2.946464 1_555
Na17 O1 2.963917 1_555
Na18 O36 2.465259 1_655
Na18 O44 2.487270 1_555
Na18 O43 2.618068 1_665
Na18 O37 2.700502 1_565
Na18 O42 2.941537 1_565
Na18 O38 2.975867 1_665
Na19 O40 2.465259 1_544
Na19 O47 2.487270 1_555
Na19 O45 2.618068 1_445
Na19 O39 2.700502 1_454
Na19 O46 2.941537 1_455
Na19 O41 2.975867 1_444
Na20 O48 2.465259 1_555
Na20 O56 2.487270 1_555
Na20 O55 2.618068 1_555
Na20 O49 2.700502 1_555
Na20 O54 2.941537 1_555
Na20 O50 2.975867 1_555
Na21 O52 2.465259 1_555
Na21 O59 2.487270 1_555
Na21 O57 2.618068 1_555
Na21 O51 2.700502 1_555
Na21 O58 2.941537 1_555
Na21 O53 2.975867 1_555
Na22 O60 2.465259 1_555
Na22 O68 2.487270 1_555
Na22 O67 2.618068 1_555
Na22 O61 2.700502 1_555
Na22 O66 2.941537 1_555
Na22 O62 2.975867 1_555
Na23 O64 2.465259 1_555
Na23 O71 2.487270 1_555
Na23 O69 2.618068 1_555
Na23 O63 2.700502 1_555
Na23 O70 2.941537 1_555
Na23 O65 2.975867 1_555
La0 O1 2.249786 1_555
La0 O37 2.318969 1_565
La0 O2 2.326370 1_565
La0 O36 2.415697 1_655
La0 O0 2.548499 1_665
La0 O38 2.575613 1_665
La1 O3 2.249786 1_555
La1 O39 2.318968 1_455
La1 O5 2.326370 1_455
La1 O40 2.415697 1_545
La1 O4 2.548499 1_445
La1 O41 2.575613 1_445
La2 O6 2.311238 1_445
La2 O7 2.321533 1_555
La2 O43 2.381822 1_555
La2 O44 2.414388 1_445
La2 O8 2.458602 1_545
La2 O42 2.504783 1_455
La3 O10 2.311238 1_655
La3 O9 2.321533 1_545
La3 O45 2.381822 1_545
La3 O47 2.414388 1_655
La3 O11 2.458603 1_645
La3 O46 2.504783 1_555
La4 O13 2.249786 1_555
La4 O49 2.318969 1_555
La4 O14 2.326370 1_555
La4 O48 2.415697 1_555
La4 O12 2.548499 1_555
La4 O50 2.575613 1_555
La5 O15 2.249786 1_555
La5 O51 2.318968 1_555
La5 O17 2.326370 1_555
La5 O52 2.415697 1_555
La5 O16 2.548499 1_555
La5 O53 2.575613 1_555
La6 O18 2.311238 1_556
La6 O19 2.321533 1_556
La6 O55 2.381822 1_555
La6 O56 2.414388 1_555
La6 O20 2.458602 1_556
La6 O54 2.504783 1_555
La7 O22 2.311238 1_555
La7 O21 2.321533 1_555
La7 O57 2.381822 1_555
La7 O59 2.414388 1_555
La7 O23 2.458603 1_555
La7 O58 2.504783 1_555
La8 O25 2.249786 1_554
La8 O61 2.318969 1_555
La8 O26 2.326370 1_554
La8 O60 2.415697 1_555
La8 O24 2.548499 1_554
La8 O62 2.575613 1_555
La9 O27 2.249786 1_555
La9 O63 2.318968 1_555
La9 O29 2.326370 1_555
La9 O64 2.415697 1_555
La9 O28 2.548499 1_555
La9 O65 2.575613 1_555
La10 O30 2.311238 1_555
La10 O31 2.321533 1_555
La10 O67 2.381822 1_555
La10 O68 2.414388 1_555
La10 O32 2.458602 1_555
La10 O66 2.504783 1_555
La11 O34 2.311238 1_555
La11 O33 2.321533 1_555
La11 O69 2.381822 1_555
La11 O71 2.414388 1_555
La11 O35 2.458603 1_555
La11 O70 2.504783 1_555
O0 S0 1.481612 1_555
O1 Si0 1.647663 1_555
O2 Si1 1.651945 1_655
O3 Si2 1.647663 1_555
O4 S1 1.481612 1_655
O5 Si3 1.651945 1_555
O6 Si3 1.650065 1_565
O7 Si2 1.650139 1_555
O8 S1 1.492332 1_555
O9 Si0 1.650139 1_555
O10 Si1 1.650065 1_555
O11 S0 1.492332 1_565
O12 S2 1.481612 1_555
O13 Si4 1.647663 1_555
O14 Si5 1.651945 1_555
O15 Si6 1.647663 1_555
O16 S3 1.481612 1_555
O17 Si7 1.651945 1_555
O18 Si7 1.650065 1_555
O19 Si6 1.650139 1_555
O20 S3 1.492332 1_555
O21 Si4 1.650139 1_555
O22 Si5 1.650065 1_555
O23 S2 1.492332 1_555
O24 S4 1.481612 1_555
O25 Si8 1.647663 1_555
O26 Si9 1.651945 1_555
O27 Si10 1.647663 1_555
O28 S5 1.481612 1_555
O29 Si11 1.651945 1_555
O30 Si11 1.650065 1_555
O31 Si10 1.650139 1_555
O32 S5 1.492332 1_555
O33 Si8 1.650139 1_555
O34 Si9 1.650065 1_555
O35 S4 1.492332 1_555
O36 Si11 1.664477 1_555
O37 Si10 1.659201 1_545
O38 S5 1.488715 1_555
O39 Si8 1.659201 1_655
O40 Si9 1.664477 1_555
O41 S4 1.488715 1_555
O42 S2 1.488079 1_555
O43 Si4 1.657415 1_555
O44 Si5 1.659138 1_555
O45 Si6 1.657415 1_555
O46 S3 1.488079 1_555
O47 Si7 1.659138 1_555
O48 Si3 1.664477 1_555
O49 Si2 1.659201 1_555
O50 S1 1.488715 1_655
O51 Si0 1.659201 1_555
O52 Si1 1.664477 1_655
O53 S0 1.488715 1_555
O54 S4 1.488093 1_555
O55 Si8 1.657400 1_655
O56 Si9 1.659136 1_545
O57 Si10 1.657400 1_545
O58 S5 1.488093 1_555
O59 Si11 1.659136 1_655
O60 Si7 1.664492 1_555
O61 Si6 1.659188 1_455
O62 S3 1.488712 1_565
O63 Si4 1.659188 1_565
O64 Si5 1.664492 1_555
O65 S2 1.488712 1_455
O66 S0 1.488079 1_565
O67 Si0 1.657415 1_555
O68 Si1 1.659138 1_555
O69 Si2 1.657415 1_555
O70 S1 1.488079 1_555
O71 Si3 1.659138 1_565
