# generated using pymatgen
data_Sr2MgFeO4
_symmetry_space_group_name_H-M   'P 1'
_cell_length_a   3.88650649
_cell_length_b   3.88650637
_cell_length_c   9.37003947
_cell_angle_alpha   114.06156189
_cell_angle_beta   114.06157092
_cell_angle_gamma   90.02658733
_symmetry_Int_Tables_number   1
_chemical_formula_structural   Sr2MgFeO4
_chemical_formula_sum   'Sr2 Mg1 Fe1 O4'
_cell_volume   115.62346543
_cell_formula_units_Z   1
loop_
 _symmetry_equiv_pos_site_id
 _symmetry_equiv_pos_as_xyz
  1  'x, y, z'
loop_
 _atom_site_type_symbol
 _atom_site_label
 _atom_site_symmetry_multiplicity
 _atom_site_fract_x
 _atom_site_fract_y
 _atom_site_fract_z
 _atom_site_occupancy
  Sr  Sr0  1  0.55220149  0.55220049  0.32123997  1
  Sr  Sr1  1  0.39246440  0.39246540  0.66454355  1
  Mg  Mg0  1  0.11842030  0.11842030  0.89359914  1
  Fe  Fe0  1  0.79796723  0.79796723  0.07452276  1
  O  O0  1  0.85951160  0.85951060  0.62858283  1
  O  O1  1  0.07199153  0.07198953  0.33583797  1
  O  O2  1  0.18823396  0.68587649  0.96213188  1
  O  O3  1  0.68587649  0.18823396  0.96213288  1
loop_
_geom_bond_atom_site_label_1
_geom_bond_atom_site_label_2
_geom_bond_distance
_geom_bond_site_symmetry_2
Mg0 O2 2.012622 1_545
Mg0 O3 2.012628 1_455
Mg0 O3 2.013055 1_555
Mg0 O2 2.013057 1_555
Mg0 O0 2.028638 1_445
Fe0 O1 2.002475 1_665
Fe0 O2 2.122357 1_554
Fe0 O3 2.122358 1_554
Fe0 O3 2.128008 1_564
Fe0 O2 2.128015 1_654
O0 Sr0 2.352777 1_555
O0 Sr1 2.748109 1_665
O0 Sr1 2.762587 1_655
O0 Sr1 2.762598 1_565
O0 Sr1 2.774475 1_555
O1 Sr1 2.516184 1_555
O1 Sr0 2.719977 1_555
O1 Sr0 2.751242 1_545
O1 Sr0 2.751248 1_455
O1 Sr0 2.779641 1_445
