# generated using pymatgen
data_Na6Hf4Si7Ge4S5O48
_symmetry_space_group_name_H-M   'P 1'
_cell_length_a   17.57818290
_cell_length_b   8.77317573
_cell_length_c   22.58863481
_cell_angle_alpha   89.90752291
_cell_angle_beta   89.75100147
_cell_angle_gamma   120.01045017
_symmetry_Int_Tables_number   1
_chemical_formula_structural   Na6Hf4Si7Ge4S5O48
_chemical_formula_sum   'Na18 Hf12 Si21 Ge12 S15 O144'
_cell_volume   3016.45899226
_cell_formula_units_Z   3
loop_
 _symmetry_equiv_pos_site_id
 _symmetry_equiv_pos_as_xyz
  1  'x, y, z'
loop_
 _atom_site_type_symbol
 _atom_site_label
 _atom_site_symmetry_multiplicity
 _atom_site_fract_x
 _atom_site_fract_y
 _atom_site_fract_z
 _atom_site_occupancy
  Na  Na0  1  0.00113594  0.63543676  0.25104309  1
  Na  Na1  1  0.49762336  0.64490196  0.24544113  1
  Na  Na2  1  0.99927950  0.35234922  0.75167848  1
  Na  Na3  1  0.50048764  0.36820887  0.75331216  1
  Na  Na4  1  0.66498926  0.30280862  0.91771038  1
  Na  Na5  1  0.16601629  0.02998956  0.41434615  1
  Na  Na6  1  0.99916412  0.98881876  0.49985383  1
  Na  Na7  1  0.49298057  0.98810723  0.49524809  1
  Na  Na8  1  0.99328128  0.99790100  0.99688534  1
  Na  Na9  1  0.49808059  0.00040275  0.00389938  1
  Na  Na10  1  0.33274934  0.33508429  0.83150210  1
  Na  Na11  1  0.83115769  0.33054029  0.83545338  1
  Na  Na12  1  0.33143752  0.33401561  0.33074147  1
  Na  Na13  1  0.83209922  0.32798914  0.32825436  1
  Na  Na14  1  0.17564395  0.67627029  0.17215980  1
  Na  Na15  1  0.66918417  0.66629226  0.16432919  1
  Na  Na16  1  0.17553062  0.68133428  0.66865196  1
  Na  Na17  1  0.67283416  0.67276632  0.67345625  1
  Hf  Hf0  1  0.49566939  0.97619412  0.35156003  1
  Hf  Hf1  1  0.99548956  0.01496306  0.85337274  1
  Hf  Hf2  1  0.00136672  0.00190067  0.64613444  1
  Hf  Hf3  1  0.49486762  0.99219152  0.65284321  1
  Hf  Hf4  1  0.99588418  0.99947042  0.15230598  1
  Hf  Hf5  1  0.49937336  0.99097958  0.14266330  1
  Hf  Hf6  1  0.34330722  0.33550350  0.97917063  1
  Hf  Hf7  1  0.83977388  0.35157669  0.47674269  1
  Hf  Hf8  1  0.16927052  0.67142700  0.02288911  1
  Hf  Hf9  1  0.66220979  0.64368183  0.02216245  1
  Hf  Hf10  1  0.16851245  0.68764691  0.51900940  1
  Hf  Hf11  1  0.66848211  0.66652752  0.52214688  1
  Si  Si0  1  0.15130613  0.00978571  0.24927228  1
  Si  Si1  1  0.64816811  0.00352492  0.25082274  1
  Si  Si2  1  0.34645478  0.69599437  0.24824210  1
  Si  Si3  1  0.84733099  0.70416659  0.25279669  1
  Si  Si4  1  0.00077649  0.29183300  0.25336503  1
  Si  Si5  1  0.14836185  0.29543863  0.75072544  1
  Si  Si6  1  0.64675262  0.29248907  0.75111543  1
  Si  Si7  1  0.50086708  0.71008148  0.75359038  1
  Si  Si8  1  0.34750256  0.98976011  0.75339731  1
  Si  Si9  1  0.84694859  0.99667562  0.74767362  1
  Si  Si10  1  0.19793222  0.06409697  0.58433042  1
  Si  Si11  1  0.83345166  0.61912206  0.58768504  1
  Si  Si12  1  0.47627623  0.61593152  0.08690804  1
  Si  Si13  1  0.33282798  0.04907286  0.08789432  1
  Si  Si14  1  0.69865211  0.33249896  0.08436342  1
  Si  Si15  1  0.81065757  0.66754941  0.91602476  1
  Si  Si16  1  0.02049458  0.38624697  0.91830521  1
  Si  Si17  1  0.52138818  0.36760633  0.90978622  1
  Si  Si18  1  0.31295623  0.95836317  0.41408895  1
  Si  Si19  1  0.02323209  0.67692954  0.40970713  1
  Si  Si20  1  0.52066782  0.65685102  0.41785605  1
  Ge  Ge0  1  0.00168506  0.98757250  0.34034423  1
  Ge  Ge1  1  0.50048800  0.01213362  0.84323145  1
  Ge  Ge2  1  0.32617582  0.31962781  0.69587178  1
  Ge  Ge3  1  0.81960748  0.32587836  0.69080226  1
  Ge  Ge4  1  0.33045601  0.32944413  0.18609753  1
  Ge  Ge5  1  0.82594411  0.33081941  0.19508326  1
  Ge  Ge6  1  0.83406003  0.34543541  0.97669375  1
  Ge  Ge7  1  0.33377704  0.32292334  0.47575253  1
  Ge  Ge8  1  0.16806183  0.68383503  0.30882403  1
  Ge  Ge9  1  0.66311681  0.67510775  0.31086439  1
  Ge  Ge10  1  0.16749826  0.65307627  0.81459279  1
  Ge  Ge11  1  0.66769472  0.65443362  0.81090857  1
  S  S0  1  0.50103217  0.29415350  0.25099291  1
  S  S1  1  0.00041457  0.70562407  0.75049019  1
  S  S2  1  0.47484372  0.33045307  0.58315858  1
  S  S3  1  0.97691546  0.33413900  0.58486074  1
  S  S4  1  0.68848369  0.04667796  0.58372904  1
  S  S5  1  0.33366917  0.61408695  0.58237488  1
  S  S6  1  0.97504925  0.61933309  0.08306725  1
  S  S7  1  0.83454455  0.05478641  0.08228585  1
  S  S8  1  0.18794366  0.32930726  0.08321120  1
  S  S9  1  0.31284963  0.67132643  0.91449264  1
  S  S10  1  0.16597173  0.95282858  0.91415436  1
  S  S11  1  0.66578024  0.95371664  0.91589566  1
  S  S12  1  0.81309033  0.95394631  0.41479017  1
  S  S13  1  0.16594564  0.37734229  0.41691783  1
  S  S14  1  0.66628608  0.37912015  0.41485793  1
  O  O0  1  0.10764062  0.04205210  0.31021069  1
  O  O1  1  0.60820960  0.04238749  0.30982464  1
  O  O2  1  0.41252782  0.77561147  0.30576959  1
  O  O3  1  0.91633305  0.78884744  0.30854218  1
  O  O4  1  0.48847866  0.18827688  0.30488319  1
  O  O5  1  0.98051354  0.15640679  0.31095785  1
  O  O6  1  0.10612381  0.17122200  0.80786227  1
  O  O7  1  0.60488519  0.17017919  0.81018302  1
  O  O8  1  0.48025738  0.80425782  0.81028619  1
  O  O9  1  0.98536417  0.78365149  0.80289792  1
  O  O10  1  0.41698292  0.04243583  0.80790577  1
  O  O11  1  0.91400752  0.05424488  0.80392230  1
  O  O12  1  0.38832341  0.95269185  0.69391098  1
  O  O13  1  0.89379287  0.96373982  0.69120710  1
  O  O14  1  0.08422156  0.21657051  0.69381003  1
  O  O15  1  0.58369192  0.20606353  0.69363224  1
  O  O16  1  0.01479847  0.81331723  0.69651950  1
  O  O17  1  0.51850937  0.82792660  0.69376642  1
  O  O18  1  0.39264720  0.82628166  0.19322498  1
  O  O19  1  0.88916977  0.82520745  0.19427563  1
  O  O20  1  0.01876449  0.20932812  0.19439935  1
  O  O21  1  0.51608623  0.22013653  0.19797622  1
  O  O22  1  0.08293085  0.96131641  0.19447218  1
  O  O23  1  0.58416796  0.95463213  0.19526473  1
  O  O24  1  0.43971967  0.36169572  0.63812115  1
  O  O25  1  0.93721760  0.36023371  0.63857038  1
  O  O26  1  0.26043565  0.15475266  0.64232677  1
  O  O27  1  0.74205510  0.12256383  0.63809585  1
  O  O28  1  0.32290677  0.51334068  0.63714230  1
  O  O29  1  0.81913599  0.48738919  0.64432005  1
  O  O30  1  0.42946295  0.49418240  0.14638235  1
  O  O31  1  0.93997544  0.51758081  0.13833299  1
  O  O32  1  0.31344401  0.14004103  0.14477616  1
  O  O33  1  0.82411934  0.13478746  0.13724529  1
  O  O34  1  0.24030326  0.35961294  0.13733415  1
  O  O35  1  0.76174834  0.36677431  0.14240590  1
  O  O36  1  0.22796544  0.30816490  0.02874654  1
  O  O37  1  0.74115237  0.30148268  0.02191553  1
  O  O38  1  0.41786627  0.53188834  0.02725224  1
  O  O39  1  0.92242953  0.53823278  0.02912650  1
  O  O40  1  0.34202378  0.15454976  0.02621238  1
  O  O41  1  0.85117286  0.16360937  0.02777432  1
  O  O42  1  0.24108452  0.17830411  0.52207954  1
  O  O43  1  0.73124026  0.14958049  0.53006894  1
  O  O44  1  0.34942905  0.53876873  0.52788891  1
  O  O45  1  0.84518739  0.52848243  0.52779749  1
  O  O46  1  0.42216218  0.30662094  0.52917893  1
  O  O47  1  0.92311653  0.30841892  0.53099957  1
  O  O48  1  0.27215236  0.69745085  0.96818682  1
  O  O49  1  0.76953770  0.70375058  0.97415533  1
  O  O50  1  0.08275826  0.47736810  0.97407875  1
  O  O51  1  0.58085370  0.44765730  0.96912422  1
  O  O52  1  0.15624665  0.84962037  0.96853899  1
  O  O53  1  0.65312151  0.85066288  0.97002096  1
  O  O54  1  0.27124661  0.84102295  0.47373968  1
  O  O55  1  0.77202392  0.84641980  0.46953223  1
  O  O56  1  0.15332373  0.45643822  0.47143646  1
  O  O57  1  0.65734569  0.46283535  0.46968219  1
  O  O58  1  0.08076591  0.71037390  0.47029749  1
  O  O59  1  0.58246527  0.68799636  0.47456424  1
  O  O60  1  0.06897464  0.64027951  0.35354211  1
  O  O61  1  0.56689081  0.62478171  0.35762273  1
  O  O62  1  0.24504731  0.86725246  0.35898787  1
  O  O63  1  0.75648209  0.87288105  0.36236600  1
  O  O64  1  0.18115941  0.48469514  0.36375705  1
  O  O65  1  0.68348653  0.49074560  0.36244412  1
  O  O66  1  0.06627794  0.50699600  0.85636342  1
  O  O67  1  0.56794075  0.49490582  0.85263410  1
  O  O68  1  0.18226364  0.87178902  0.86120316  1
  O  O69  1  0.68127482  0.87750703  0.86214314  1
  O  O70  1  0.25637386  0.64163598  0.86104101  1
  O  O71  1  0.74600363  0.62420916  0.85798047  1
  O  O72  1  0.01401904  0.85782745  0.40440580  1
  O  O73  1  0.51312317  0.83290332  0.41284348  1
  O  O74  1  0.41180645  0.99437747  0.40958158  1
  O  O75  1  0.90042449  0.97315803  0.41016809  1
  O  O76  1  0.08782643  0.19735455  0.41280735  1
  O  O77  1  0.58669384  0.20557846  0.41173332  1
  O  O78  1  0.01272356  0.19452852  0.91216414  1
  O  O79  1  0.51371075  0.16852939  0.90423421  1
  O  O80  1  0.08561767  0.96342721  0.90982482  1
  O  O81  1  0.58742942  0.97754281  0.91074172  1
  O  O82  1  0.40009117  0.82781278  0.90866504  1
  O  O83  1  0.91045491  0.82783533  0.90841037  1
  O  O84  1  0.48559895  0.17329004  0.58629728  1
  O  O85  1  0.98424336  0.17367443  0.58724113  1
  O  O86  1  0.09995354  0.03879175  0.58876058  1
  O  O87  1  0.60081607  0.02881649  0.58783735  1
  O  O88  1  0.41228761  0.79618639  0.58626223  1
  O  O89  1  0.91984445  0.81135647  0.58948964  1
  O  O90  1  0.48482450  0.80735089  0.08752111  1
  O  O91  1  0.98552053  0.79763690  0.08637014  1
  O  O92  1  0.41973979  0.03421194  0.08988176  1
  O  O93  1  0.91400736  0.03270915  0.08655593  1
  O  O94  1  0.09918205  0.17210651  0.08775573  1
  O  O95  1  0.60103556  0.16614838  0.08889729  1
  O  O96  1  0.34722716  0.17569817  0.74408458  1
  O  O97  1  0.84748734  0.18831479  0.73542095  1
  O  O98  1  0.24624143  0.32341293  0.74317285  1
  O  O99  1  0.74361048  0.30982739  0.74565252  1
  O  O100  1  0.41524819  0.50913000  0.73971566  1
  O  O101  1  0.92255688  0.52453508  0.74348849  1
  O  O102  1  0.34431616  0.50594326  0.23978829  1
  O  O103  1  0.84734571  0.51803651  0.24423656  1
  O  O104  1  0.42300297  0.31797253  0.24739288  1
  O  O105  1  0.91554002  0.32167350  0.24024302  1
  O  O106  1  0.24731127  0.18329165  0.24217545  1
  O  O107  1  0.74709638  0.16996320  0.24420992  1
  O  O108  1  0.31667843  0.50755586  0.91946772  1
  O  O109  1  0.81560208  0.48162986  0.92253635  1
  O  O110  1  0.42482383  0.35019980  0.91483783  1
  O  O111  1  0.92038135  0.35729807  0.92700407  1
  O  O112  1  0.24300635  0.13186368  0.91940181  1
  O  O113  1  0.74614492  0.13677443  0.92065840  1
  O  O114  1  0.31539663  0.15008745  0.42255017  1
  O  O115  1  0.81890237  0.12771036  0.42259431  1
  O  O116  1  0.24662491  0.35628289  0.42240501  1
  O  O117  1  0.74407564  0.35451440  0.42162536  1
  O  O118  1  0.42068297  0.48438828  0.42764491  1
  O  O119  1  0.92672698  0.49906479  0.41743769  1
  O  O120  1  0.17869620  0.48933861  0.07826543  1
  O  O121  1  0.69026012  0.50966727  0.08034562  1
  O  O122  1  0.06438895  0.64047813  0.07629404  1
  O  O123  1  0.57360763  0.63913647  0.08134357  1
  O  O124  1  0.24495099  0.85278703  0.08101917  1
  O  O125  1  0.75553414  0.87965617  0.07722005  1
  O  O126  1  0.18477657  0.86409782  0.58052949  1
  O  O127  1  0.67978704  0.86902768  0.57930798  1
  O  O128  1  0.25338045  0.63001044  0.57744183  1
  O  O129  1  0.74518910  0.63477439  0.58149783  1
  O  O130  1  0.06549843  0.48934296  0.57811535  1
  O  O131  1  0.56456488  0.48831584  0.57640200  1
  O  O132  1  0.15361491  0.82653287  0.25587936  1
  O  O133  1  0.65229330  0.81819535  0.25937807  1
  O  O134  1  0.25137343  0.67766666  0.26177252  1
  O  O135  1  0.74967916  0.67732595  0.26573966  1
  O  O136  1  0.08511103  0.48846353  0.26195400  1
  O  O137  1  0.58122202  0.47612924  0.25686928  1
  O  O138  1  0.15254578  0.48846542  0.75959314  1
  O  O139  1  0.65381402  0.48381260  0.75570635  1
  O  O140  1  0.07953201  0.68575442  0.75506023  1
  O  O141  1  0.58547336  0.68323370  0.76137513  1
  O  O142  1  0.24911056  0.82142954  0.76498349  1
  O  O143  1  0.75185244  0.82782254  0.76053996  1
loop_
_geom_bond_atom_site_label_1
_geom_bond_atom_site_label_2
_geom_bond_distance
_geom_bond_site_symmetry_2
Na0 O132 2.348364 1_555
Na0 O103 2.368853 1_455
Na0 O105 2.400633 1_455
Na0 O136 2.410063 1_555
Na0 O60 2.599639 1_555
Na0 O31 2.761737 1_455
Na0 O3 2.777818 1_455
Na0 O22 2.781068 1_555
Na1 O102 2.341354 1_555
Na1 O133 2.382574 1_555
Na1 O104 2.486925 1_555
Na1 O137 2.568485 1_555
Na1 O30 2.576609 1_555
Na1 O23 2.612032 1_555
Na1 O2 2.666972 1_555
Na1 O61 2.859261 1_555
Na2 O97 2.344032 1_555
Na2 O138 2.345848 1_655
Na2 O101 2.484799 1_555
Na2 O140 2.534895 1_655
Na2 O11 2.555898 1_555
Na2 O14 2.669149 1_655
Na2 O66 2.693644 1_655
Na2 O25 2.796761 1_555
Na3 O139 2.358543 1_555
Na3 O96 2.368189 1_555
Na3 O100 2.392427 1_555
Na3 O141 2.403584 1_555
Na3 O67 2.527392 1_555
Na3 O10 2.760478 1_555
Na3 O24 2.806835 1_555
Na3 O15 2.837313 1_555
Na4 O109 2.308817 1_555
Na4 O79 2.329452 1_555
Na4 O81 2.477544 1_545
Na4 O113 2.498106 1_555
Na4 O51 2.649682 1_555
Na4 O7 2.677944 1_555
Na4 O37 2.715888 1_556
Na4 O71 2.784490 1_555
Na5 O114 2.297131 1_555
Na5 O72 2.332365 1_545
Na5 O76 2.462774 1_555
Na5 O116 2.486357 1_555
Na5 O0 2.593487 1_555
Na5 O58 2.733942 1_545
Na5 O62 2.739837 1_545
Na5 O42 2.770757 1_555
Na6 O89 2.502289 1_555
Na6 O72 2.518067 1_655
Na6 O86 2.573147 1_665
Na6 O76 2.598427 1_665
Na6 O75 2.632205 1_555
Na6 O85 2.650807 1_565
Na7 O74 2.426066 1_555
Na7 O73 2.434946 1_555
Na7 O88 2.578387 1_555
Na7 O77 2.594232 1_565
Na7 O84 2.665625 1_565
Na7 O87 2.730304 1_565
Na8 O78 2.479697 1_665
Na8 O83 2.490367 1_555
Na8 O93 2.557540 1_566
Na8 O91 2.633948 1_556
Na8 O80 2.656804 1_655
Na8 O94 2.685489 1_666
Na9 O90 2.466141 1_545
Na9 O92 2.478668 1_555
Na9 O95 2.546138 1_555
Na9 O79 2.626404 1_554
Na9 O81 2.687526 1_544
Na9 O82 2.705757 1_544
Na10 O110 2.448123 1_555
Na10 O98 2.484977 1_555
Na10 O96 2.505954 1_555
Na10 O100 2.545951 1_555
Na10 O108 2.598081 1_555
Na10 O112 2.599524 1_555
Na11 O109 2.463239 1_555
Na11 O113 2.500115 1_555
Na11 O99 2.502920 1_555
Na11 O111 2.540288 1_555
Na11 O101 2.649082 1_555
Na11 O97 2.665866 1_555
Na12 O106 2.452733 1_555
Na12 O102 2.488324 1_555
Na12 O104 2.521167 1_555
Na12 O114 2.552074 1_555
Na12 O116 2.610327 1_555
Na12 O118 2.638509 1_555
Na13 O107 2.391603 1_555
Na13 O103 2.447851 1_555
Na13 O105 2.482552 1_555
Na13 O119 2.572814 1_555
Na13 O117 2.688881 1_555
Na13 O115 2.694112 1_555
Na14 O134 2.424232 1_555
Na14 O132 2.444674 1_555
Na14 O124 2.490282 1_555
Na14 O136 2.588379 1_555
Na14 O120 2.699832 1_555
Na14 O122 2.834998 1_555
Na15 O123 2.453908 1_555
Na15 O121 2.477061 1_555
Na15 O125 2.607605 1_555
Na15 O133 2.621715 1_555
Na15 O137 2.631336 1_555
Na15 O135 2.674091 1_555
Na16 O126 2.507173 1_555
Na16 O142 2.522180 1_555
Na16 O138 2.558112 1_555
Na16 O140 2.587638 1_555
Na16 O128 2.629672 1_555
Na16 O130 2.747208 1_555
Na17 O139 2.396233 1_555
Na17 O143 2.406575 1_555
Na17 O141 2.534926 1_555
Na17 O129 2.539075 1_555
Na17 O127 2.697747 1_555
Na17 O131 2.830897 1_555
Hf0 O2 1.936198 1_555
Hf0 O1 1.993071 1_565
Hf0 O73 1.993657 1_555
Hf0 O74 2.033582 1_555
Hf0 O4 2.195388 1_565
Hf0 O77 2.294399 1_565
Hf1 O78 1.967236 1_655
Hf1 O11 1.981017 1_555
Hf1 O83 1.999408 1_545
Hf1 O6 2.007338 1_655
Hf1 O80 2.252266 1_645
Hf1 O9 2.257825 1_545
Hf2 O13 2.018234 1_445
Hf2 O14 2.025904 1_555
Hf2 O89 2.027751 1_445
Hf2 O86 2.050765 1_555
Hf2 O16 2.115511 1_545
Hf2 O85 2.140598 1_455
Hf3 O17 1.924108 1_555
Hf3 O12 1.955217 1_555
Hf3 O15 1.973560 1_565
Hf3 O88 2.203735 1_555
Hf3 O84 2.250283 1_565
Hf3 O87 2.259202 1_565
Hf4 O20 1.929718 1_665
Hf4 O19 1.966218 1_555
Hf4 O22 1.970917 1_655
Hf4 O93 2.190732 1_565
Hf4 O94 2.221693 1_665
Hf4 O91 2.252808 1_555
Hf5 O90 1.951755 1_555
Hf5 O92 2.017168 1_565
Hf5 O18 2.043588 1_555
Hf5 O23 2.055435 1_555
Hf5 O95 2.063535 1_565
Hf5 O21 2.260475 1_565
Hf6 O40 1.899591 1_556
Hf6 O38 1.904044 1_556
Hf6 O110 1.994521 1_555
Hf6 O36 2.217048 1_556
Hf6 O112 2.236225 1_555
Hf6 O108 2.240973 1_555
Hf7 O45 1.899167 1_555
Hf7 O119 1.950212 1_555
Hf7 O47 2.088222 1_555
Hf7 O117 2.107611 1_555
Hf7 O115 2.186070 1_555
Hf7 O43 2.195997 1_555
Hf8 O50 1.964066 1_554
Hf8 O124 1.982454 1_555
Hf8 O52 2.087554 1_554
Hf8 O120 2.098629 1_555
Hf8 O122 2.099244 1_555
Hf8 O48 2.101471 1_554
Hf9 O121 1.983267 1_555
Hf9 O49 1.999717 1_554
Hf9 O51 1.999859 1_554
Hf9 O123 2.033219 1_555
Hf9 O53 2.234970 1_554
Hf9 O125 2.269930 1_555
Hf10 O54 1.914747 1_555
Hf10 O58 1.987775 1_555
Hf10 O126 1.994235 1_555
Hf10 O56 2.192806 1_555
Hf10 O130 2.215500 1_555
Hf10 O128 2.234488 1_555
Hf11 O59 1.943009 1_555
Hf11 O129 2.020721 1_555
Hf11 O57 2.072482 1_555
Hf11 O55 2.077917 1_555
Hf11 O131 2.097778 1_555
Hf11 O127 2.125876 1_555
Ge0 O3 1.789831 1_455
Ge0 O0 1.805032 1_565
Ge0 O5 1.823050 1_465
Ge0 O72 1.918580 1_555
Ge0 O75 2.328462 1_455
Ge0 O76 2.367047 1_565
Ge1 O10 1.806072 1_555
Ge1 O7 1.812990 1_555
Ge1 O8 1.834176 1_545
Ge1 O79 1.877583 1_555
Ge1 O82 2.242541 1_545
Ge1 O81 2.288214 1_545
Ge2 O98 1.775042 1_555
Ge2 O26 1.798981 1_555
Ge2 O96 1.839544 1_555
Ge2 O100 1.900333 1_555
Ge2 O28 2.177732 1_555
Ge2 O24 2.249557 1_555
Ge3 O29 1.765590 1_555
Ge3 O99 1.770990 1_555
Ge3 O97 1.817838 1_555
Ge3 O27 2.011482 1_555
Ge3 O101 2.144578 1_555
Ge3 O25 2.260807 1_555
Ge4 O32 1.797820 1_555
Ge4 O30 1.840826 1_555
Ge4 O106 1.867840 1_555
Ge4 O102 1.886589 1_555
Ge4 O34 2.056331 1_555
Ge4 O104 2.180962 1_555
Ge5 O35 1.776317 1_555
Ge5 O107 1.780165 1_555
Ge5 O103 1.861046 1_555
Ge5 O105 1.915088 1_555
Ge5 O33 2.148987 1_555
Ge5 O31 2.243073 1_555
Ge6 O37 1.792652 1_556
Ge6 O111 1.843891 1_555
Ge6 O109 1.848258 1_555
Ge6 O39 2.017649 1_556
Ge6 O41 2.107974 1_556
Ge6 O113 2.129816 1_555
Ge7 O42 1.809046 1_555
Ge7 O118 1.826787 1_555
Ge7 O114 1.834953 1_555
Ge7 O46 2.031930 1_555
Ge7 O116 2.085223 1_555
Ge7 O44 2.130118 1_555
Ge8 O134 1.828423 1_555
Ge8 O132 1.837906 1_555
Ge8 O60 1.875584 1_555
Ge8 O62 1.882978 1_555
Ge8 O136 1.924617 1_555
Ge8 O64 2.245643 1_555
Ge9 O133 1.789068 1_555
Ge9 O135 1.819750 1_555
Ge9 O61 1.845947 1_555
Ge9 O137 2.028708 1_555
Ge9 O63 2.057194 1_555
Ge9 O65 2.163028 1_555
Ge10 O138 1.824031 1_555
Ge10 O142 1.832064 1_555
Ge10 O66 1.843646 1_555
Ge10 O70 1.929339 1_555
Ge10 O68 2.090076 1_555
Ge10 O140 2.177578 1_555
Ge11 O67 1.856972 1_555
Ge11 O71 1.863508 1_555
Ge11 O139 1.870399 1_555
Ge11 O143 1.877670 1_555
Ge11 O141 1.945019 1_555
Ge11 O69 2.183770 1_555
O0 Si0 1.665383 1_555
O1 Si1 1.618264 1_555
O2 Si2 1.652269 1_555
O3 Si3 1.650349 1_555
O4 S0 1.477267 1_555
O5 Si4 1.672903 1_655
O6 Si5 1.606978 1_555
O7 Si6 1.634068 1_555
O8 Si7 1.659170 1_555
O9 S1 1.456393 1_655
O10 Si8 1.634495 1_545
O11 Si9 1.636618 1_545
O12 Si8 1.628703 1_555
O13 Si9 1.618183 1_555
O14 Si5 1.624168 1_555
O15 Si6 1.632364 1_555
O16 S1 1.482397 1_555
O17 Si7 1.631661 1_555
O18 Si2 1.602661 1_555
O19 Si3 1.619192 1_555
O20 Si4 1.620620 1_555
O21 S0 1.448285 1_555
O22 Si0 1.631285 1_565
O23 Si1 1.598718 1_565
O24 S2 1.470187 1_555
O25 S3 1.471265 1_555
O26 Si10 1.642472 1_555
O27 S4 1.491217 1_555
O28 S5 1.474668 1_555
O29 Si11 1.654430 1_555
O30 Si12 1.652094 1_555
O31 S6 1.474660 1_555
O32 Si13 1.635690 1_555
O33 S7 1.482198 1_555
O34 S8 1.475976 1_555
O35 Si14 1.649193 1_555
O36 S8 1.471962 1_555
O37 Si14 1.678520 1_555
O38 Si12 1.634524 1_555
O39 S6 1.483468 1_555
O40 Si13 1.633402 1_555
O41 S7 1.492334 1_555
O42 Si10 1.668086 1_555
O43 S4 1.469326 1_555
O44 S5 1.486920 1_555
O45 Si11 1.634028 1_555
O46 S2 1.484921 1_555
O47 S3 1.490942 1_555
O48 S9 1.480793 1_555
O49 Si15 1.603205 1_555
O50 Si16 1.601309 1_555
O51 Si17 1.631968 1_555
O52 S10 1.482560 1_555
O53 S11 1.467836 1_555
O54 Si18 1.626285 1_555
O55 S12 1.499114 1_555
O56 S13 1.483827 1_555
O57 S14 1.488107 1_555
O58 Si19 1.642743 1_555
O59 Si20 1.616122 1_555
O60 Si19 1.615724 1_555
O61 Si20 1.676556 1_555
O62 Si18 1.635454 1_555
O63 S12 1.484358 1_555
O64 S13 1.463609 1_555
O65 S14 1.466006 1_555
O66 Si16 1.691219 1_555
O67 Si17 1.629583 1_555
O68 S10 1.490498 1_555
O69 S11 1.475598 1_555
O70 S9 1.504647 1_555
O71 Si15 1.654566 1_555
O72 Si19 1.678079 1_555
O73 Si20 1.618788 1_555
O74 Si18 1.605817 1_555
O75 S12 1.461435 1_555
O76 S13 1.490054 1_555
O77 S14 1.466586 1_555
O78 Si16 1.624206 1_555
O79 Si17 1.688019 1_555
O80 S10 1.464874 1_555
O81 S11 1.497800 1_555
O82 S9 1.464759 1_555
O83 Si15 1.616600 1_555
O84 S2 1.484072 1_555
O85 S3 1.477346 1_555
O86 Si10 1.625277 1_555
O87 S4 1.471433 1_555
O88 S5 1.504272 1_555
O89 Si11 1.609650 1_555
O90 Si12 1.609557 1_555
O91 S6 1.482877 1_555
O92 Si13 1.597768 1_555
O93 S7 1.506534 1_555
O94 S8 1.480762 1_555
O95 Si14 1.605532 1_555
O96 Si8 1.646848 1_545
O97 Si9 1.698810 1_545
O98 Si5 1.620041 1_555
O99 Si6 1.635912 1_555
O100 Si7 1.680222 1_555
O101 S1 1.499934 1_655
O102 Si2 1.660220 1_555
O103 Si3 1.644799 1_555
O104 S0 1.489707 1_555
O105 Si4 1.672509 1_655
O106 Si0 1.618011 1_555
O107 Si1 1.623427 1_555
O108 S9 1.475735 1_555
O109 Si15 1.682511 1_555
O110 Si17 1.629895 1_555
O111 Si16 1.658248 1_655
O112 S10 1.479601 1_545
O113 S11 1.522778 1_545
O114 Si18 1.672282 1_545
O115 S12 1.486852 1_545
O116 S13 1.524577 1_555
O117 S14 1.495571 1_555
O118 Si20 1.662118 1_555
O119 Si19 1.640667 1_655
O120 S8 1.496001 1_555
O121 Si14 1.635530 1_555
O122 S6 1.493476 1_455
O123 Si12 1.622986 1_555
O124 Si13 1.648561 1_565
O125 S7 1.473113 1_565
O126 Si10 1.653583 1_565
O127 S4 1.491558 1_565
O128 S5 1.490747 1_555
O129 Si11 1.631095 1_555
O130 S3 1.475896 1_455
O131 S2 1.497006 1_555
O132 Si0 1.634991 1_565
O133 Si1 1.674305 1_565
O134 Si2 1.624585 1_555
O135 Si3 1.636619 1_555
O136 Si4 1.629912 1_555
O137 S0 1.518083 1_555
O138 Si5 1.670320 1_555
O139 Si6 1.623525 1_555
O140 S1 1.489599 1_555
O141 Si7 1.628125 1_555
O142 Si8 1.637249 1_555
O143 Si9 1.609522 1_555
