# generated using pymatgen
data_Na3ScSiSn(PO6)2
_symmetry_space_group_name_H-M   'P 1'
_cell_length_a   15.67927196
_cell_length_b   9.07212367
_cell_length_c   9.08177843
_cell_angle_alpha   90.00000000
_cell_angle_beta   125.16751776
_cell_angle_gamma   90.00000000
_symmetry_Int_Tables_number   1
_chemical_formula_structural   Na3ScSiSn(PO6)2
_chemical_formula_sum   'Na12 Sc4 Si4 Sn4 P8 O48'
_cell_volume   1056.03523559
_cell_formula_units_Z   4
loop_
 _symmetry_equiv_pos_site_id
 _symmetry_equiv_pos_as_xyz
  1  'x, y, z'
loop_
 _atom_site_type_symbol
 _atom_site_label
 _atom_site_symmetry_multiplicity
 _atom_site_fract_x
 _atom_site_fract_y
 _atom_site_fract_z
 _atom_site_occupancy
  Na  Na0  1  0.25209091  0.72489274  0.99808967  1
  Na  Na1  1  0.75209091  0.77510726  0.49808967  1
  Na  Na2  1  0.75209091  0.22489274  0.99808967  1
  Na  Na3  1  0.25209091  0.27510726  0.49808967  1
  Na  Na4  1  0.50675580  0.10595252  0.76308416  1
  Na  Na5  1  0.50675580  0.89404748  0.26308416  1
  Na  Na6  1  0.00675580  0.60595252  0.76308416  1
  Na  Na7  1  0.00675580  0.39404748  0.26308416  1
  Na  Na8  1  0.18378136  0.93086387  0.28930458  1
  Na  Na9  1  0.18378136  0.06913613  0.78930458  1
  Na  Na10  1  0.68378136  0.43086387  0.28930458  1
  Na  Na11  1  0.68378136  0.56913613  0.78930458  1
  Sc  Sc0  1  0.10580351  0.74423072  0.56412338  1
  Sc  Sc1  1  0.10580351  0.25576928  0.06412338  1
  Sc  Sc2  1  0.60580351  0.24423072  0.56412338  1
  Sc  Sc3  1  0.60580351  0.75576928  0.06412338  1
  Si  Si0  1  0.64844725  0.89324361  0.74721405  1
  Si  Si1  1  0.64844725  0.10675639  0.24721405  1
  Si  Si2  1  0.14844725  0.39324361  0.74721405  1
  Si  Si3  1  0.14844725  0.60675639  0.24721405  1
  Sn  Sn0  1  0.89843842  0.75671879  0.94480590  1
  Sn  Sn1  1  0.89843842  0.24328121  0.44480590  1
  Sn  Sn2  1  0.39843842  0.25671879  0.94480590  1
  Sn  Sn3  1  0.39843842  0.74328121  0.44480590  1
  P  P0  1  0.99717755  0.95463595  0.75465515  1
  P  P1  1  0.99717755  0.04536405  0.25465515  1
  P  P2  1  0.49717755  0.45463595  0.75465515  1
  P  P3  1  0.49717755  0.54536405  0.25465515  1
  P  P4  1  0.35342162  0.90175052  0.75679234  1
  P  P5  1  0.35342162  0.09824948  0.25679234  1
  P  P6  1  0.85342162  0.40175052  0.75679234  1
  P  P7  1  0.85342162  0.59824948  0.25679234  1
  O  O0  1  0.15166310  0.57200475  0.74452360  1
  O  O1  1  0.84969047  0.57525958  0.75715081  1
  O  O2  1  0.84969047  0.42474042  0.25715081  1
  O  O3  1  0.15166310  0.42799525  0.24452360  1
  O  O4  1  0.65166310  0.07200475  0.74452360  1
  O  O5  1  0.34969047  0.07525958  0.75715081  1
  O  O6  1  0.34969047  0.92474042  0.25715081  1
  O  O7  1  0.65166310  0.92799525  0.24452360  1
  O  O8  1  0.43013366  0.54976802  0.58108605  1
  O  O9  1  0.55921119  0.54946719  0.92451364  1
  O  O10  1  0.55921119  0.45053281  0.42451364  1
  O  O11  1  0.43013366  0.45023198  0.08108605  1
  O  O12  1  0.93013366  0.04976802  0.58108605  1
  O  O13  1  0.05921119  0.04946719  0.92451364  1
  O  O14  1  0.05921119  0.95053281  0.42451364  1
  O  O15  1  0.93013366  0.95023198  0.08108605  1
  O  O16  1  0.25691517  0.84616886  0.74559755  1
  O  O17  1  0.74579625  0.80934700  0.75895015  1
  O  O18  1  0.74579625  0.19065300  0.25895015  1
  O  O19  1  0.25691517  0.15383114  0.24559755  1
  O  O20  1  0.75691517  0.34616886  0.74559755  1
  O  O21  1  0.24579625  0.30934700  0.75895015  1
  O  O22  1  0.24579625  0.69065300  0.25895015  1
  O  O23  1  0.75691517  0.65383114  0.24559755  1
  O  O24  1  0.34913468  0.86896770  0.58191941  1
  O  O25  1  0.64067435  0.84008551  0.90884843  1
  O  O26  1  0.64067435  0.15991449  0.40884843  1
  O  O27  1  0.34913468  0.13103230  0.08191941  1
  O  O28  1  0.84913468  0.36896770  0.58191941  1
  O  O29  1  0.14067435  0.34008551  0.90884843  1
  O  O30  1  0.14067435  0.65991449  0.40884843  1
  O  O31  1  0.84913468  0.63103230  0.08191941  1
  O  O32  1  0.45314532  0.84341306  0.92551812  1
  O  O33  1  0.54380219  0.82562420  0.55727645  1
  O  O34  1  0.54380219  0.17437580  0.05727645  1
  O  O35  1  0.45314532  0.15658694  0.42551812  1
  O  O36  1  0.95314532  0.34341306  0.92551812  1
  O  O37  1  0.04380219  0.32562420  0.55727645  1
  O  O38  1  0.04380219  0.67437580  0.05727645  1
  O  O39  1  0.95314532  0.65658694  0.42551812  1
  O  O40  1  0.07594380  0.85897952  0.74563713  1
  O  O41  1  0.91797340  0.84732938  0.75090944  1
  O  O42  1  0.91797340  0.15267062  0.25090944  1
  O  O43  1  0.07594380  0.14102048  0.24563713  1
  O  O44  1  0.57594380  0.35897952  0.74563713  1
  O  O45  1  0.41797340  0.34732938  0.75090944  1
  O  O46  1  0.41797340  0.65267062  0.25090944  1
  O  O47  1  0.57594380  0.64102048  0.24563713  1
loop_
_geom_bond_atom_site_label_1
_geom_bond_atom_site_label_2
_geom_bond_distance
_geom_bond_site_symmetry_2
Na0 O0 2.351439 1_555
Na0 O46 2.363627 1_556
Na0 O22 2.447059 1_556
Na0 O16 2.583455 1_555
Na0 O6 2.648939 1_556
Na0 O40 2.658931 1_555
Na1 O7 2.351439 1_555
Na1 O41 2.363627 1_555
Na1 O17 2.447059 1_555
Na1 O23 2.583455 1_555
Na1 O1 2.648939 1_555
Na1 O47 2.658931 1_555
Na2 O4 2.351439 1_555
Na2 O42 2.363627 1_556
Na2 O18 2.447059 1_556
Na2 O20 2.583455 1_555
Na2 O2 2.648939 1_556
Na2 O44 2.658931 1_555
Na3 O3 2.351439 1_555
Na3 O45 2.363627 1_555
Na3 O21 2.447059 1_555
Na3 O19 2.583455 1_555
Na3 O5 2.648939 1_555
Na3 O43 2.658931 1_555
Na4 O4 2.393033 1_555
Na4 O5 2.447921 1_555
Na4 O34 2.464436 1_556
Na4 O45 2.562798 1_555
Na4 O44 2.582484 1_555
Na4 O35 2.710648 1_555
Na5 O7 2.393033 1_555
Na5 O6 2.447921 1_555
Na5 O33 2.464436 1_555
Na5 O46 2.562798 1_555
Na5 O47 2.582484 1_555
Na5 O32 2.710648 1_554
Na6 O0 2.393033 1_555
Na6 O1 2.447921 1_455
Na6 O38 2.464436 1_556
Na6 O41 2.562798 1_455
Na6 O40 2.582484 1_555
Na6 O39 2.710648 1_455
Na7 O3 2.393033 1_555
Na7 O2 2.447921 1_455
Na7 O37 2.464436 1_555
Na7 O42 2.562798 1_455
Na7 O43 2.582484 1_555
Na7 O36 2.710648 1_454
Na8 O43 2.424604 1_565
Na8 O22 2.465612 1_555
Na8 O19 2.467474 1_565
Na8 O24 2.482436 1_555
Na8 O6 2.780348 1_555
Na9 O40 2.424604 1_545
Na9 O21 2.465612 1_555
Na9 O16 2.467474 1_545
Na9 O27 2.482436 1_556
Na9 O5 2.780348 1_555
Na10 O47 2.424604 1_555
Na10 O18 2.465612 1_555
Na10 O23 2.467474 1_555
Na10 O28 2.482436 1_555
Na10 O2 2.780348 1_555
Na11 O44 2.424604 1_555
Na11 O17 2.465612 1_555
Na11 O20 2.467474 1_555
Na11 O31 2.482436 1_556
Na11 O1 2.780348 1_555
O0 Si2 1.623148 1_555
O0 Sc0 2.070135 1_555
O1 P6 1.575255 1_555
O1 Sn0 2.167525 1_555
O2 P7 1.575255 1_555
O2 Sn1 2.167525 1_555
O3 Si3 1.623148 1_555
O3 Sc1 2.070135 1_555
O4 Si0 1.623148 1_545
O4 Sc2 2.070135 1_555
O5 P4 1.575255 1_545
O5 Sn2 2.167525 1_555
O6 P5 1.575255 1_565
O6 Sn3 2.167525 1_555
O7 Si1 1.623148 1_565
O7 Sc3 2.070135 1_555
O8 P2 1.557517 1_555
O8 Sn3 2.037722 1_555
O9 P2 1.528878 1_555
O9 Sc3 2.139430 1_556
O10 P3 1.528878 1_555
O10 Sc2 2.139430 1_555
O11 P3 1.557517 1_555
O11 Sn2 2.037722 1_554
O12 P0 1.557517 1_545
O12 Sn1 2.037722 1_555
O13 P0 1.528878 1_445
O13 Sc1 2.139430 1_556
O14 P1 1.528878 1_465
O14 Sc0 2.139430 1_555
O15 P1 1.557517 1_565
O15 Sn0 2.037722 1_554
O16 P4 1.541755 1_555
O16 Sc0 2.164946 1_555
O17 Si0 1.653191 1_555
O17 Sn0 2.037517 1_555
O18 Si1 1.653191 1_555
O18 Sn1 2.037517 1_555
O19 P5 1.541755 1_555
O19 Sc1 2.164946 1_555
O20 P6 1.541755 1_555
O20 Sc2 2.164946 1_555
O21 Si2 1.653191 1_555
O21 Sn2 2.037517 1_555
O22 Si3 1.653191 1_555
O22 Sn3 2.037517 1_555
O23 P7 1.541755 1_555
O23 Sc3 2.164946 1_555
O24 P4 1.578685 1_555
O24 Sn3 2.134771 1_555
O25 Si0 1.615029 1_555
O25 Sc3 1.939276 1_556
O26 Si1 1.615029 1_555
O26 Sc2 1.939276 1_555
O27 P5 1.578685 1_555
O27 Sn2 2.134771 1_554
O28 P6 1.578685 1_555
O28 Sn1 2.134771 1_555
O29 Si2 1.615029 1_555
O29 Sc1 1.939276 1_556
O30 Si3 1.615029 1_555
O30 Sc0 1.939276 1_555
O31 P7 1.578685 1_555
O31 Sn0 2.134771 1_554
O32 P4 1.520851 1_555
O32 Sc3 2.115454 1_556
O33 Si0 1.668428 1_555
O33 Sn3 2.028386 1_555
O34 Si1 1.668428 1_555
O34 Sn2 2.028386 1_554
O35 P5 1.520851 1_555
O35 Sc2 2.115454 1_555
O36 P6 1.520851 1_555
O36 Sc1 2.115454 1_656
O37 Si2 1.668428 1_555
O37 Sn1 2.028386 1_455
O38 Si3 1.668428 1_555
O38 Sn0 2.028386 1_454
O39 P7 1.520851 1_555
O39 Sc0 2.115454 1_655
O40 P0 1.549687 1_455
O40 Sc0 2.215714 1_555
O41 P0 1.562823 1_555
O41 Sn0 2.119367 1_555
O42 P1 1.562823 1_555
O42 Sn1 2.119367 1_555
O43 P1 1.549687 1_455
O43 Sc1 2.215714 1_555
O44 P2 1.549687 1_555
O44 Sc2 2.215714 1_555
O45 P2 1.562823 1_555
O45 Sn2 2.119367 1_555
O46 P3 1.562823 1_555
O46 Sn3 2.119367 1_555
O47 P3 1.549687 1_555
O47 Sc3 2.215714 1_555
