# generated using pymatgen
data_BaYMgMnCuO5
_symmetry_space_group_name_H-M   'P 1'
_cell_length_a   4.09969589
_cell_length_b   3.89434869
_cell_length_c   10.04292885
_cell_angle_alpha   90.00993805
_cell_angle_beta   75.23766844
_cell_angle_gamma   89.99716821
_symmetry_Int_Tables_number   1
_chemical_formula_structural   BaYMgMnCuO5
_chemical_formula_sum   'Ba1 Y1 Mg1 Mn1 Cu1 O5'
_cell_volume   155.04913256
_cell_formula_units_Z   1
loop_
 _symmetry_equiv_pos_site_id
 _symmetry_equiv_pos_as_xyz
  1  'x, y, z'
loop_
 _atom_site_type_symbol
 _atom_site_label
 _atom_site_symmetry_multiplicity
 _atom_site_fract_x
 _atom_site_fract_y
 _atom_site_fract_z
 _atom_site_occupancy
  Ba  Ba0  1  0.16800494  0.99977929  0.10156510  1
  Y  Y0  1  0.06980900  0.00011360  0.47010702  1
  Mg  Mg0  1  0.83861511  0.49962631  0.85177839  1
  Mn  Mn0  1  0.46572942  0.50030746  0.64795546  1
  Cu  Cu0  1  0.58642115  0.49982586  0.28138603  1
  O  O0  1  0.96383731  0.50022757  0.65124725  1
  O  O1  1  0.50436886  0.00021145  0.57237684  1
  O  O2  1  0.03448127  0.50009191  0.35426412  1
  O  O3  1  0.55349203  1.00004530  0.25914876  1
  O  O4  1  0.31523492  0.49976725  0.88975503  1
loop_
_geom_bond_atom_site_label_1
_geom_bond_atom_site_label_2
_geom_bond_distance
_geom_bond_site_symmetry_2
Ba0 O3 2.505363 1_555
Ba0 O3 2.611453 1_455
Ba0 O4 2.832854 1_554
Ba0 O4 2.833338 1_564
Mg0 O0 1.947445 1_555
Mg0 O4 2.081451 1_555
Mg0 O4 2.084073 1_655
Mn0 O0 2.049431 1_455
Mn0 O0 2.050764 1_555
Mn0 O1 2.080990 1_565
Mn0 O1 2.081429 1_555
Mn0 O4 2.348220 1_555
Cu0 O3 1.967613 1_545
Cu0 O3 1.969367 1_555
Cu0 O2 2.143616 1_655
Cu0 O2 2.193600 1_555
O0 Y0 2.624205 1_665
O0 Y0 2.624364 1_655
O1 Y0 2.271870 1_555
O1 Y0 2.283699 1_655
O2 Y0 2.291596 1_565
O2 Y0 2.291783 1_555
O3 Y0 2.505940 1_565
