# generated using pymatgen
data_Ba2YMgFe3O8
_symmetry_space_group_name_H-M   'P 1'
_cell_length_a   3.98973126
_cell_length_b   3.98972678
_cell_length_c   15.18140131
_cell_angle_alpha   90.00000000
_cell_angle_beta   90.00000000
_cell_angle_gamma   90.00000000
_symmetry_Int_Tables_number   1
_chemical_formula_structural   Ba2YMgFe3O8
_chemical_formula_sum   'Ba2 Y1 Mg1 Fe3 O8'
_cell_volume   241.65659954
_cell_formula_units_Z   1
loop_
 _symmetry_equiv_pos_site_id
 _symmetry_equiv_pos_as_xyz
  1  'x, y, z'
loop_
 _atom_site_type_symbol
 _atom_site_label
 _atom_site_symmetry_multiplicity
 _atom_site_fract_x
 _atom_site_fract_y
 _atom_site_fract_z
 _atom_site_occupancy
  Ba  Ba0  1  0.50000000  0.50000000  0.25919654  1
  Ba  Ba1  1  0.50000000  0.50000000  0.74080346  1
  Y  Y0  1  0.50000000  0.50000000  0.50000000  1
  Mg  Mg0  1  0.50000000  0.50000000  -0.00000000  1
  Fe  Fe0  1  0.00000000  0.00000000  0.37464909  1
  Fe  Fe1  1  0.00000000  0.00000000  -0.00000000  1
  Fe  Fe2  1  -0.00000000  -0.00000000  0.62535091  1
  O  O0  1  -0.00000000  0.50000000  0.40667812  1
  O  O1  1  0.50000000  0.00000000  0.40667781  1
  O  O2  1  0.50000000  0.00000000  -0.00000000  1
  O  O3  1  0.00000000  0.00000000  0.24715343  1
  O  O4  1  0.00000000  0.50000000  0.59332188  1
  O  O5  1  0.50000000  -0.00000000  0.59332219  1
  O  O6  1  -0.00000000  -0.00000000  0.75284657  1
  O  O7  1  0.00000000  0.50000000  -0.00000000  1
loop_
_geom_bond_atom_site_label_1
_geom_bond_atom_site_label_2
_geom_bond_distance
_geom_bond_site_symmetry_2
Ba0 O3 2.827083 1_655
Ba0 O3 2.827083 1_665
Ba0 O3 2.827083 1_565
Ba0 O3 2.827083 1_555
Ba0 O1 2.998746 1_565
Ba0 O1 2.998746 1_555
Ba0 O0 2.998751 1_555
Ba0 O0 2.998751 1_655
Ba1 O6 2.827083 1_665
Ba1 O6 2.827083 1_655
Ba1 O6 2.827083 1_555
Ba1 O6 2.827083 1_565
Ba1 O5 2.998746 1_555
Ba1 O5 2.998746 1_565
Ba1 O4 2.998751 1_555
Ba1 O4 2.998751 1_655
Mg0 O2 1.994863 1_565
Mg0 O2 1.994863 1_555
Mg0 O7 1.994866 1_655
Mg0 O7 1.994866 1_555
Fe0 O3 1.935563 1_555
Fe0 O0 2.053269 1_545
Fe0 O0 2.053269 1_555
Fe0 O1 2.053270 1_455
Fe0 O1 2.053270 1_555
Fe1 O7 1.994863 1_545
Fe1 O7 1.994863 1_555
Fe1 O2 1.994866 1_455
Fe1 O2 1.994866 1_555
Fe2 O6 1.935563 1_555
Fe2 O4 2.053269 1_555
Fe2 O4 2.053269 1_545
Fe2 O5 2.053270 1_555
Fe2 O5 2.053270 1_455
O0 Y0 2.446771 1_555
O0 Y0 2.446771 1_455
O1 Y0 2.446772 1_545
O1 Y0 2.446772 1_555
O4 Y0 2.446771 1_455
O4 Y0 2.446771 1_555
O5 Y0 2.446772 1_545
O5 Y0 2.446772 1_555
