# generated using pymatgen
data_La2MgTiCoO6
_symmetry_space_group_name_H-M   'P 1'
_cell_length_a   8.07637989
_cell_length_b   5.57469718
_cell_length_c   6.53112898
_cell_angle_alpha   66.03154748
_cell_angle_beta   44.53743660
_cell_angle_gamma   69.39790898
_symmetry_Int_Tables_number   1
_chemical_formula_structural   La2MgTiCoO6
_chemical_formula_sum   'La2 Mg1 Ti1 Co1 O6'
_cell_volume   187.56443983
_cell_formula_units_Z   1
loop_
 _symmetry_equiv_pos_site_id
 _symmetry_equiv_pos_as_xyz
  1  'x, y, z'
loop_
 _atom_site_type_symbol
 _atom_site_label
 _atom_site_symmetry_multiplicity
 _atom_site_fract_x
 _atom_site_fract_y
 _atom_site_fract_z
 _atom_site_occupancy
  La  La0  1  0.02813767  0.87460597  0.76243222  1
  La  La1  1  0.97186233  0.12539403  0.23756778  1
  Mg  Mg0  1  0.50000000  0.50000000  -0.00000000  1
  Ti  Ti0  1  0.00000000  0.50000000  0.50000000  1
  Co  Co0  1  0.50000000  0.00000000  -0.00000000  1
  O  O0  1  0.03182689  0.28374158  0.81656578  1
  O  O1  1  0.24065363  0.73081217  0.29476097  1
  O  O2  1  0.96817311  0.71625842  0.18343422  1
  O  O3  1  0.75934637  0.26918783  0.70523903  1
  O  O4  1  0.24820037  0.25686356  0.23249242  1
  O  O5  1  0.75179963  0.74313644  0.76750758  1
loop_
_geom_bond_atom_site_label_1
_geom_bond_atom_site_label_2
_geom_bond_distance
_geom_bond_site_symmetry_2
La0 O2 2.237110 1_456
La0 O0 2.458856 1_565
La0 O1 2.542710 1_555
La0 O5 2.558349 1_455
La0 O3 2.611248 1_465
La0 O4 2.753673 1_565
La0 O0 3.158382 1_555
La1 O0 2.237110 1_654
La1 O2 2.458856 1_545
La1 O3 2.542710 1_555
La1 O4 2.558349 1_655
La1 O1 2.611248 1_645
La1 O5 2.753673 1_545
La1 O2 3.158382 1_555
Mg0 O3 2.028893 1_554
Mg0 O1 2.028893 1_555
Mg0 O4 2.035683 1_555
Mg0 O5 2.035683 1_554
Co0 O4 1.951111 1_555
Co0 O5 1.951111 1_544
Co0 O1 2.112287 1_545
Co0 O3 2.112287 1_554
O0 Ti0 2.075714 1_555
O1 Ti0 1.968407 1_555
O2 Ti0 2.075714 1_655
O3 Ti0 1.968407 1_655
O4 Ti0 1.981674 1_555
O5 Ti0 1.981674 1_655
