# generated using pymatgen
data_Na4MgZnP2SO12
_symmetry_space_group_name_H-M   'P 1'
_cell_length_a   9.06649052
_cell_length_b   9.02850389
_cell_length_c   21.84912321
_cell_angle_alpha   89.83032989
_cell_angle_beta   89.95739438
_cell_angle_gamma   120.21797464
_symmetry_Int_Tables_number   1
_chemical_formula_structural   Na4MgZnP2SO12
_chemical_formula_sum   'Na24 Mg6 Zn6 P12 S6 O72'
_cell_volume   1545.46148168
_cell_formula_units_Z   6
loop_
 _symmetry_equiv_pos_site_id
 _symmetry_equiv_pos_as_xyz
  1  'x, y, z'
loop_
 _atom_site_type_symbol
 _atom_site_label
 _atom_site_symmetry_multiplicity
 _atom_site_fract_x
 _atom_site_fract_y
 _atom_site_fract_z
 _atom_site_occupancy
  Na  Na0  1  0.63383017  0.00783451  0.25508354  1
  Na  Na1  1  0.35403956  0.35281004  0.24630738  1
  Na  Na2  1  0.00832903  0.63240570  0.24834602  1
  Na  Na3  1  0.62350132  0.63213871  0.74849081  1
  Na  Na4  1  0.00060453  0.35612609  0.74699467  1
  Na  Na5  1  0.37294670  0.00571242  0.75522437  1
  Na  Na6  1  0.30093045  0.34214925  0.58775431  1
  Na  Na7  1  0.02404142  0.68805940  0.57948793  1
  Na  Na8  1  0.67242496  0.96420716  0.58134094  1
  Na  Na9  1  0.29160889  0.96445105  0.08165478  1
  Na  Na10  1  0.66441191  0.68824448  0.07962783  1
  Na  Na11  1  0.04102900  0.34177271  0.08782138  1
  Na  Na12  1  0.96646511  0.67322442  0.92133654  1
  Na  Na13  1  0.69177487  0.02443836  0.91349234  1
  Na  Na14  1  0.33968595  0.29725154  0.91495609  1
  Na  Na15  1  0.95686966  0.29875110  0.41512493  1
  Na  Na16  1  0.33381834  0.02281978  0.41343488  1
  Na  Na17  1  0.70613120  0.67219097  0.42203445  1
  Na  Na18  1  0.98560672  0.99178609  0.49994998  1
  Na  Na19  1  0.00621567  0.99260452  0.99934683  1
  Na  Na20  1  0.65310576  0.32511295  0.83403322  1
  Na  Na21  1  0.67209946  0.32465553  0.33397451  1
  Na  Na22  1  0.31911913  0.65885380  0.16600544  1
  Na  Na23  1  0.33879260  0.65882876  0.66657122  1
  Mg  Mg0  1  0.00114335  0.00194628  0.34823259  1
  Mg  Mg1  1  0.99288567  0.00515100  0.65125466  1
  Mg  Mg2  1  0.01307330  0.00564261  0.15164469  1
  Mg  Mg3  1  0.66730155  0.33486352  0.68201931  1
  Mg  Mg4  1  0.66737900  0.33441153  0.18231112  1
  Mg  Mg5  1  0.32568188  0.67204343  0.31757999  1
  Zn  Zn0  1  0.00041147  0.00178857  0.84489455  1
  Zn  Zn1  1  0.65613963  0.34400516  0.98814329  1
  Zn  Zn2  1  0.68905515  0.34446605  0.48785572  1
  Zn  Zn3  1  0.33363211  0.66759888  0.01247143  1
  Zn  Zn4  1  0.33359260  0.66793166  0.51188571  1
  Zn  Zn5  1  0.35445179  0.67702586  0.82053327  1
  P  P0  1  0.29959683  0.00093281  0.25022163  1
  P  P1  1  0.99973298  0.29646779  0.25000983  1
  P  P2  1  0.29756238  0.29646241  0.74982084  1
  P  P3  1  0.70167341  0.00226167  0.74984741  1
  P  P4  1  0.96733301  0.33331119  0.58410673  1
  P  P5  1  0.66701599  0.63051522  0.58354667  1
  P  P6  1  0.96333641  0.63078114  0.08371599  1
  P  P7  1  0.36624417  0.33337461  0.08419107  1
  P  P8  1  0.63502959  0.66803166  0.91712463  1
  P  P9  1  0.33308625  0.96395931  0.91677716  1
  P  P10  1  0.63065050  0.96286562  0.41647789  1
  P  P11  1  0.03502927  0.66906257  0.41658372  1
  S  S0  1  0.70404499  0.70471369  0.24987621  1
  S  S1  1  0.99871228  0.70244199  0.74889472  1
  S  S2  1  0.36897952  0.03865674  0.58391841  1
  S  S3  1  0.66962698  0.03840560  0.08397983  1
  S  S4  1  0.03517108  0.36953098  0.91627256  1
  S  S5  1  0.33213607  0.36915409  0.41549409  1
  O  O0  1  0.21607239  0.02861016  0.30749062  1
  O  O1  1  0.80968706  0.78545148  0.30486139  1
  O  O2  1  0.97053131  0.18419306  0.30727925  1
  O  O3  1  0.21932714  0.18614923  0.80842987  1
  O  O4  1  0.97187939  0.77778915  0.80531540  1
  O  O5  1  0.80943179  0.03128311  0.80854656  1
  O  O6  1  0.78579658  0.97120515  0.69397631  1
  O  O7  1  0.18665061  0.20831665  0.69319824  1
  O  O8  1  0.02360483  0.81195039  0.69474539  1
  O  O9  1  0.78416044  0.81154391  0.19469816  1
  O  O10  1  0.02329614  0.21116687  0.19251924  1
  O  O11  1  0.18649321  0.96914985  0.19340795  1
  O  O12  1  0.88010013  0.36043157  0.64013863  1
  O  O13  1  0.47654909  0.12325483  0.63813961  1
  O  O14  1  0.63930982  0.51654784  0.63992805  1
  O  O15  1  0.87695779  0.51665213  0.14015003  1
  O  O16  1  0.64646162  0.12290076  0.13820914  1
  O  O17  1  0.48070421  0.36086624  0.14026278  1
  O  O18  1  0.44034266  0.29713334  0.02580078  1
  O  O19  1  0.85793530  0.55010157  0.02467380  1
  O  O20  1  0.69731998  0.14208245  0.02766293  1
  O  O21  1  0.44502006  0.14245300  0.52756047  1
  O  O22  1  0.69190344  0.54971948  0.52446356  1
  O  O23  1  0.85683207  0.29670635  0.52572338  1
  O  O24  1  0.55257901  0.69658415  0.97473622  1
  O  O25  1  0.13941350  0.44875993  0.97199358  1
  O  O26  1  0.30260549  0.85197242  0.97456249  1
  O  O27  1  0.55212407  0.85278828  0.47516558  1
  O  O28  1  0.30540049  0.44459127  0.47194382  1
  O  O29  1  0.14291321  0.69815972  0.47533295  1
  O  O30  1  0.11922137  0.63812972  0.36068630  1
  O  O31  1  0.52005390  0.87457741  0.35972123  1
  O  O32  1  0.35708658  0.47874522  0.36131540  1
  O  O33  1  0.11593849  0.47617235  0.86085510  1
  O  O34  1  0.35686982  0.88031372  0.85846699  1
  O  O35  1  0.52249739  0.63234279  0.85969239  1
  O  O36  1  0.01734332  0.83166627  0.41076732  1
  O  O37  1  0.81274552  0.98561477  0.41173047  1
  O  O38  1  0.17649764  0.19586556  0.41038875  1
  O  O39  1  0.01843851  0.19650014  0.91269500  1
  O  O40  1  0.17267246  0.98487016  0.91291954  1
  O  O41  1  0.81457549  0.83261025  0.91192425  1
  O  O42  1  0.98975887  0.17365458  0.58886337  1
  O  O43  1  0.19500913  0.01683370  0.59010861  1
  O  O44  1  0.83254284  0.81018476  0.58832353  1
  O  O45  1  0.97747924  0.81022923  0.08852244  1
  O  O46  1  0.82169779  0.01670438  0.09013022  1
  O  O47  1  0.18399035  0.17361553  0.08889651  1
  O  O48  1  0.68412827  0.16496022  0.74402453  1
  O  O49  1  0.47979911  0.31958136  0.74508128  1
  O  O50  1  0.84325688  0.52906947  0.74370535  1
  O  O51  1  0.68645164  0.53155511  0.24512715  1
  O  O52  1  0.84008834  0.31925690  0.24554485  1
  O  O53  1  0.48028431  0.16483952  0.24448022  1
  O  O54  1  0.65592803  0.50684085  0.92054978  1
  O  O55  1  0.86202063  0.34936087  0.92107880  1
  O  O56  1  0.49976488  0.14286161  0.92084710  1
  O  O57  1  0.64279727  0.14193666  0.42042034  1
  O  O58  1  0.48550632  0.34989180  0.41976840  1
  O  O59  1  0.85224903  0.50681320  0.41965531  1
  O  O60  1  0.35219120  0.49882646  0.07911952  1
  O  O61  1  0.14523116  0.65182221  0.08015752  1
  O  O62  1  0.51287158  0.86533180  0.08084136  1
  O  O63  1  0.35249804  0.86575909  0.58082597  1
  O  O64  1  0.50621897  0.65135972  0.57998162  1
  O  O65  1  0.14702117  0.49885146  0.57900119  1
  O  O66  1  0.32182942  0.84053229  0.25466122  1
  O  O67  1  0.53043404  0.68364854  0.25555966  1
  O  O68  1  0.16574228  0.47643631  0.25470222  1
  O  O69  1  0.30982915  0.47561862  0.75374936  1
  O  O70  1  0.15215572  0.68326569  0.75315595  1
  O  O71  1  0.51878945  0.84020240  0.75295753  1
loop_
_geom_bond_atom_site_label_1
_geom_bond_atom_site_label_2
_geom_bond_distance
_geom_bond_site_symmetry_2
Na0 O66 2.445955 1_545
Na0 O53 2.446615 1_555
Na0 O52 2.479800 1_555
Na0 O31 2.543509 1_545
Na0 O67 2.585279 1_545
Na0 O16 2.734477 1_555
Na0 O2 2.877166 1_555
Na1 O68 2.472401 1_555
Na1 O53 2.479400 1_555
Na1 O17 2.569726 1_555
Na1 O67 2.591562 1_555
Na1 O51 2.606148 1_555
Na1 O32 2.755583 1_555
Na1 O10 2.857053 1_555
Na1 O0 2.864989 1_555
Na2 O52 2.446237 1_455
Na2 O68 2.461945 1_555
Na2 O66 2.500976 1_555
Na2 O51 2.583887 1_455
Na2 O15 2.620143 1_455
Na2 O30 2.643933 1_555
Na2 O11 2.885415 1_555
Na3 O49 2.442717 1_555
Na3 O69 2.459924 1_555
Na3 O71 2.497135 1_555
Na3 O50 2.590967 1_555
Na3 O35 2.596200 1_555
Na3 O14 2.626933 1_555
Na3 O6 2.897732 1_555
Na3 O4 3.013619 1_555
Na4 O69 2.450058 1_555
Na4 O48 2.496434 1_455
Na4 O70 2.558775 1_555
Na4 O12 2.586902 1_455
Na4 O50 2.592299 1_455
Na4 O33 2.708520 1_555
Na4 O5 2.875890 1_455
Na4 O7 2.877477 1_555
Na5 O71 2.443989 1_545
Na5 O48 2.449635 1_555
Na5 O34 2.491941 1_545
Na5 O49 2.500096 1_555
Na5 O70 2.572798 1_545
Na5 O13 2.744059 1_555
Na5 O3 2.870164 1_555
Na6 O42 2.440037 1_455
Na6 O65 2.443643 1_555
Na6 O64 2.460320 1_555
Na6 O7 2.561460 1_555
Na6 O43 2.590632 1_555
Na6 O28 2.684780 1_555
Na6 O14 2.888640 1_555
Na6 O21 3.011539 1_555
Na7 O65 2.465528 1_555
Na7 O44 2.489018 1_455
Na7 O29 2.498969 1_555
Na7 O63 2.575706 1_555
Na7 O43 2.576976 1_565
Na7 O8 2.759348 1_555
Na7 O12 2.880521 1_455
Na7 O22 2.881289 1_455
Na8 O64 2.442524 1_555
Na8 O44 2.468920 1_555
Na8 O42 2.531156 1_565
Na8 O27 2.548802 1_555
Na8 O63 2.570736 1_555
Na8 O6 2.656368 1_555
Na8 O23 2.864808 1_565
Na9 O61 2.441165 1_555
Na9 O45 2.465583 1_455
Na9 O47 2.529733 1_565
Na9 O26 2.575238 1_554
Na9 O62 2.575382 1_555
Na9 O11 2.628661 1_555
Na9 O18 2.868499 1_565
Na10 O60 2.462755 1_555
Na10 O45 2.482499 1_555
Na10 O24 2.522956 1_554
Na10 O46 2.574530 1_565
Na10 O62 2.579929 1_555
Na10 O9 2.746485 1_555
Na10 O17 2.878157 1_555
Na10 O19 2.878242 1_555
Na11 O47 2.442571 1_555
Na11 O60 2.444717 1_555
Na11 O61 2.468104 1_555
Na11 O10 2.538083 1_555
Na11 O46 2.587435 1_455
Na11 O25 2.692248 1_554
Na11 O15 2.895731 1_455
Na11 O20 3.008975 1_455
Na12 O54 2.434503 1_555
Na12 O41 2.450075 1_555
Na12 O40 2.479395 1_655
Na12 O19 2.486468 1_556
Na12 O55 2.580609 1_555
Na12 O4 2.694194 1_555
Na12 O26 2.882795 1_655
Na13 O56 2.464490 1_555
Na13 O41 2.486277 1_545
Na13 O5 2.515678 1_555
Na13 O55 2.541883 1_555
Na13 O39 2.560034 1_655
Na13 O20 2.704715 1_556
Na13 O24 2.891175 1_545
Na13 O34 2.897592 1_545
Na14 O40 2.439522 1_545
Na14 O56 2.470136 1_555
Na14 O54 2.521339 1_555
Na14 O3 2.555396 1_555
Na14 O39 2.578118 1_555
Na14 O18 2.588919 1_556
Na14 O35 2.878536 1_555
Na15 O37 2.447159 1_545
Na15 O57 2.463086 1_555
Na15 O59 2.496551 1_555
Na15 O23 2.577201 1_555
Na15 O38 2.588587 1_655
Na15 O2 2.603911 1_555
Na15 O30 2.899300 1_655
Na15 O28 3.014562 1_655
Na16 O57 2.448783 1_555
Na16 O36 2.496230 1_545
Na16 O58 2.558397 1_555
Na16 O0 2.561204 1_555
Na16 O38 2.592769 1_555
Na16 O21 2.706368 1_555
Na16 O29 2.878014 1_545
Na16 O31 2.881117 1_545
Na17 O59 2.445105 1_555
Na17 O36 2.450031 1_655
Na17 O22 2.467633 1_555
Na17 O37 2.497023 1_555
Na17 O58 2.571595 1_555
Na17 O1 2.737872 1_555
Na17 O27 2.873392 1_555
Na18 O44 2.455477 1_555
Na18 O37 2.468181 1_555
Na18 O36 2.530638 1_655
Na18 O42 2.535422 1_565
Na18 O38 2.642577 1_665
Na18 O43 2.666852 1_665
Na19 O40 2.439472 1_555
Na19 O45 2.474634 1_456
Na19 O41 2.499790 1_455
Na19 O47 2.543441 1_566
Na19 O39 2.599856 1_565
Na19 O46 2.672916 1_466
Na20 O56 2.431698 1_555
Na20 O49 2.484920 1_555
Na20 O54 2.498422 1_555
Na20 O48 2.542203 1_555
Na20 O55 2.615946 1_555
Na20 O50 2.652539 1_555
Na21 O57 2.428806 1_555
Na21 O52 2.475091 1_555
Na21 O59 2.489173 1_555
Na21 O53 2.534914 1_555
Na21 O58 2.610278 1_555
Na21 O51 2.647302 1_555
Na22 O61 2.431495 1_555
Na22 O68 2.464471 1_555
Na22 O60 2.496538 1_555
Na22 O66 2.534092 1_555
Na22 O62 2.588777 1_555
Na22 O67 2.669417 1_555
Na23 O69 2.444699 1_555
Na23 O64 2.446960 1_555
Na23 O71 2.498041 1_555
Na23 O65 2.502706 1_555
Na23 O63 2.600186 1_555
Na23 O70 2.620006 1_555
Mg0 O2 2.009082 1_455
Mg0 O0 2.042441 1_555
Mg0 O1 2.080829 1_445
Mg0 O36 2.113550 1_545
Mg0 O37 2.146141 1_445
Mg0 O38 2.157013 1_555
Mg1 O6 1.976606 1_545
Mg1 O7 2.014795 1_655
Mg1 O42 2.050549 1_555
Mg1 O8 2.121965 1_645
Mg1 O44 2.131659 1_545
Mg1 O43 2.226025 1_655
Mg2 O11 1.983722 1_545
Mg2 O10 2.021424 1_555
Mg2 O47 2.049350 1_555
Mg2 O45 2.135633 1_445
Mg2 O9 2.142347 1_445
Mg2 O46 2.236984 1_455
Mg3 O14 2.002831 1_555
Mg3 O12 2.039798 1_555
Mg3 O13 2.060985 1_555
Mg3 O48 2.106011 1_555
Mg3 O49 2.136997 1_555
Mg3 O50 2.153481 1_555
Mg4 O15 2.001938 1_555
Mg4 O17 2.042919 1_555
Mg4 O16 2.063437 1_555
Mg4 O53 2.106317 1_555
Mg4 O52 2.144118 1_555
Mg4 O51 2.187849 1_555
Mg5 O30 1.975718 1_555
Mg5 O31 2.016384 1_555
Mg5 O66 2.060655 1_555
Mg5 O32 2.128524 1_555
Mg5 O68 2.132747 1_555
Mg5 O67 2.256776 1_555
O0 P0 1.546777 1_555
O1 S0 1.481948 1_555
O2 P1 1.544409 1_555
O3 P2 1.553991 1_555
O3 Zn0 2.002274 1_555
O4 S1 1.487520 1_555
O4 Zn0 2.094958 1_665
O5 P3 1.553774 1_555
O5 Zn0 2.040755 1_655
O6 P3 1.538322 1_565
O7 P2 1.541826 1_555
O8 S1 1.481988 1_455
O9 S0 1.482552 1_555
O10 P1 1.545164 1_455
O11 P0 1.543568 1_565
O12 P4 1.542569 1_555
O13 S2 1.481652 1_555
O14 P5 1.539885 1_555
O15 P6 1.540847 1_555
O16 S3 1.481970 1_555
O17 P7 1.543977 1_555
O18 P7 1.551924 1_555
O18 Zn1 1.961163 1_554
O19 P6 1.553923 1_555
O19 Zn1 2.007726 1_554
O20 S3 1.486420 1_555
O20 Zn1 2.210163 1_554
O21 S2 1.487063 1_555
O21 Zn2 2.213652 1_555
O22 P5 1.555737 1_555
O22 Zn2 2.008771 1_555
O23 P4 1.552828 1_555
O23 Zn2 1.960705 1_555
O24 P8 1.550563 1_555
O24 Zn3 2.040143 1_556
O25 S4 1.487777 1_555
O25 Zn3 2.072981 1_556
O26 P9 1.550279 1_555
O26 Zn3 1.999912 1_556
O27 P10 1.554892 1_555
O27 Zn4 2.003984 1_555
O28 S5 1.488141 1_555
O28 Zn4 2.094009 1_555
O29 P11 1.555198 1_555
O29 Zn4 2.043703 1_555
O30 P11 1.538661 1_555
O31 P10 1.543310 1_555
O32 S5 1.482841 1_555
O33 S4 1.487084 1_555
O33 Zn5 2.186630 1_555
O34 P9 1.552149 1_555
O34 Zn5 2.006139 1_555
O35 P8 1.546867 1_555
O35 Zn5 1.958234 1_555
O36 P11 1.559796 1_555
O37 P10 1.561063 1_555
O38 S5 1.493463 1_555
O39 S4 1.493924 1_555
O39 Zn0 2.244587 1_555
O40 P9 1.560280 1_555
O40 Zn0 2.216720 1_565
O41 P8 1.560348 1_555
O41 Zn0 2.170102 1_665
O42 P4 1.556954 1_555
O43 S2 1.493886 1_555
O44 P5 1.563738 1_555
O45 P6 1.563414 1_555
O46 S3 1.493127 1_555
O47 P7 1.556040 1_555
O48 P3 1.559922 1_555
O49 P2 1.560990 1_555
O50 S1 1.493351 1_555
O51 S0 1.493414 1_555
O52 P1 1.564201 1_555
O53 P0 1.564519 1_555
O54 P8 1.560888 1_555
O54 Zn1 2.081461 1_555
O55 S4 1.490151 1_655
O55 Zn1 2.353373 1_555
O56 P9 1.563528 1_545
O56 Zn1 2.212973 1_555
O57 P10 1.566852 1_545
O57 Zn2 2.221555 1_555
O58 S5 1.488642 1_555
O58 Zn2 2.390799 1_555
O59 P11 1.565984 1_655
O59 Zn2 2.087792 1_555
O60 P7 1.565413 1_555
O60 Zn3 2.171635 1_555
O61 P6 1.564031 1_455
O61 Zn3 2.207984 1_555
O62 S3 1.493870 1_565
O62 Zn3 2.271255 1_555
O63 S2 1.493145 1_565
O63 Zn4 2.279590 1_555
O64 P5 1.563043 1_555
O64 Zn4 2.218893 1_555
O65 P4 1.564656 1_455
O65 Zn4 2.173907 1_555
O66 P0 1.562141 1_565
O67 S0 1.492460 1_555
O68 P1 1.567021 1_455
O69 P2 1.567113 1_555
O69 Zn5 2.208061 1_555
O70 S1 1.488827 1_455
O70 Zn5 2.375262 1_555
O71 P3 1.565880 1_565
O71 Zn5 2.084399 1_555
