# generated using pymatgen
data_MgFe4O5F3
_symmetry_space_group_name_H-M   'P 1'
_cell_length_a   5.31772099
_cell_length_b   5.37880173
_cell_length_c   6.04215049
_cell_angle_alpha   94.52874643
_cell_angle_beta   85.26069111
_cell_angle_gamma   106.41787533
_symmetry_Int_Tables_number   1
_chemical_formula_structural   MgFe4O5F3
_chemical_formula_sum   'Mg1 Fe4 O5 F3'
_cell_volume   164.93015365
_cell_formula_units_Z   1
loop_
 _symmetry_equiv_pos_site_id
 _symmetry_equiv_pos_as_xyz
  1  'x, y, z'
loop_
 _atom_site_type_symbol
 _atom_site_label
 _atom_site_symmetry_multiplicity
 _atom_site_fract_x
 _atom_site_fract_y
 _atom_site_fract_z
 _atom_site_occupancy
  Mg  Mg0  1  0.55392428  0.05298412  0.04645901  1
  Fe  Fe0  1  0.02401974  0.95166493  -0.00650281  1
  Fe  Fe1  1  0.00602606  0.97783888  0.47749318  1
  Fe  Fe2  1  0.40748357  0.55491383  0.25229697  1
  Fe  Fe3  1  0.49751887  0.49378626  0.72647552  1
  O  O0  1  0.20667695  0.82045718  0.21234439  1
  O  O1  1  0.33123566  0.27192946  -0.00459149  1
  O  O2  1  0.27285699  0.30345347  0.47733476  1
  O  O3  1  0.66658011  0.72444085  -0.00252548  1
  O  O4  1  0.67819609  0.71657937  0.46872217  1
  F  F0  1  0.16330224  0.82196625  0.71081160  1
  F  F1  1  0.84926064  0.16377434  0.23842582  1
  F  F2  1  0.84291581  0.14621407  0.78867233  1
loop_
_geom_bond_atom_site_label_1
_geom_bond_atom_site_label_2
_geom_bond_distance
_geom_bond_site_symmetry_2
Mg0 O1 1.946898 1_555
Mg0 O3 2.013931 1_545
Mg0 O0 2.136656 1_545
Fe0 O3 1.947081 1_455
Fe0 O0 1.984222 1_555
Fe0 O1 2.011389 1_565
Fe1 O4 1.906665 1_455
Fe1 O2 1.917307 1_565
Fe1 O0 2.106105 1_555
Fe2 O2 1.942409 1_555
Fe2 O4 1.990580 1_555
Fe2 O0 2.048855 1_555
Fe2 O3 2.064313 1_555
Fe2 O1 2.066995 1_555
Fe3 O2 2.025799 1_555
Fe3 O4 2.044810 1_555
Fe3 O1 2.078131 1_556
Fe3 O3 2.078587 1_556
F0 Fe0 1.961503 1_556
F0 Fe1 2.041482 1_555
F1 Mg0 1.956989 1_555
F1 Fe0 2.112065 1_645
F1 Fe1 2.163354 1_645
F2 Mg0 2.081202 1_556
F2 Fe0 2.127271 1_646
F2 Fe1 2.239048 1_645
