# generated using pymatgen
data_BiSeI
_symmetry_space_group_name_H-M   'P 1'
_cell_length_a   4.27399100
_cell_length_b   9.03710600
_cell_length_c   11.27748800
_cell_angle_alpha   90.00000000
_cell_angle_beta   90.00000000
_cell_angle_gamma   90.00000000
_symmetry_Int_Tables_number   1
_chemical_formula_structural   BiSeI
_chemical_formula_sum   'Bi4 Se4 I4'
_cell_volume   435.58744476
_cell_formula_units_Z   4
loop_
 _symmetry_equiv_pos_site_id
 _symmetry_equiv_pos_as_xyz
  1  'x, y, z'
loop_
 _atom_site_type_symbol
 _atom_site_label
 _atom_site_symmetry_multiplicity
 _atom_site_fract_x
 _atom_site_fract_y
 _atom_site_fract_z
 _atom_site_occupancy
  Bi  Bi0  1  0.75000000  0.61074600  0.37189800  1
  Bi  Bi1  1  0.25000000  0.38925400  0.62810200  1
  Bi  Bi2  1  0.75000000  0.11074600  0.12810200  1
  Bi  Bi3  1  0.25000000  0.88925400  0.87189800  1
  Se  Se0  1  0.25000000  0.67159700  0.53872400  1
  Se  Se1  1  0.75000000  0.82840300  0.03872400  1
  Se  Se2  1  0.25000000  0.17159700  0.96127600  1
  Se  Se3  1  0.75000000  0.32840300  0.46127600  1
  I  I0  1  0.25000000  0.97606200  0.31575200  1
  I  I1  1  0.75000000  0.52393800  0.81575200  1
  I  I2  1  0.25000000  0.47606200  0.18424800  1
  I  I3  1  0.75000000  0.02393800  0.68424800  1
loop_
_geom_bond_atom_site_label_1
_geom_bond_atom_site_label_2
_geom_bond_distance
_geom_bond_site_symmetry_2
Bi0 Se3 2.743439 1_555
Bi0 Se0 2.899783 1_555
Bi0 Se0 2.899783 1_655
Bi0 I2 3.244473 1_555
Bi0 I2 3.244473 1_655
Bi1 Se0 2.743439 1_555
Bi1 Se3 2.899783 1_455
Bi1 Se3 2.899783 1_555
Bi1 I1 3.244473 1_555
Bi1 I1 3.244473 1_455
Bi2 Se1 2.743439 1_545
Bi2 Se2 2.899783 1_654
Bi2 Se2 2.899783 1_554
Bi2 I0 3.244473 1_645
Bi2 I0 3.244473 1_545
Bi3 Se2 2.743439 1_565
Bi3 Se1 2.899783 1_456
Bi3 Se1 2.899783 1_556
Bi3 I3 3.244473 1_565
Bi3 I3 3.244473 1_465
