# generated using pymatgen
data_BSF7
_symmetry_space_group_name_H-M   'P 1'
_cell_length_a   5.56443064
_cell_length_b   8.82068847
_cell_length_c   9.33311290
_cell_angle_alpha   90.00000000
_cell_angle_beta   90.00000000
_cell_angle_gamma   90.00000000
_symmetry_Int_Tables_number   1
_chemical_formula_structural   BSF7
_chemical_formula_sum   'B4 S4 F28'
_cell_volume   458.08886643
_cell_formula_units_Z   4
loop_
 _symmetry_equiv_pos_site_id
 _symmetry_equiv_pos_as_xyz
  1  'x, y, z'
loop_
 _atom_site_type_symbol
 _atom_site_label
 _atom_site_symmetry_multiplicity
 _atom_site_fract_x
 _atom_site_fract_y
 _atom_site_fract_z
 _atom_site_occupancy
  B  B0  1  0.75000000  0.16667175  0.48457886  1
  B  B1  1  0.75000000  0.33332825  0.98457886  1
  B  B2  1  0.25000000  0.66667175  0.01542114  1
  B  B3  1  0.25000000  0.83332825  0.51542114  1
  S  S0  1  0.25000000  0.38486817  0.78191096  1
  S  S1  1  0.75000000  0.61513183  0.21808904  1
  S  S2  1  0.75000000  0.88486817  0.71808904  1
  S  S3  1  0.25000000  0.11513183  0.28191096  1
  F  F0  1  0.04386389  0.74584589  0.06290456  1
  F  F1  1  0.45613611  0.75415411  0.56290456  1
  F  F2  1  0.95613611  0.24584589  0.43709544  1
  F  F3  1  0.54386389  0.25415411  0.93709544  1
  F  F4  1  0.04400331  0.05507869  0.18787476  1
  F  F5  1  0.54400331  0.94492131  0.81212524  1
  F  F6  1  0.95599669  0.55507869  0.31212524  1
  F  F7  1  0.45599669  0.44492131  0.68787476  1
  F  F8  1  0.95599669  0.94492131  0.81212524  1
  F  F9  1  0.45599669  0.05507869  0.18787476  1
  F  F10  1  0.04400331  0.44492131  0.68787476  1
  F  F11  1  0.54400331  0.55507869  0.31212524  1
  F  F12  1  0.25000000  0.27601418  0.22125838  1
  F  F13  1  0.75000000  0.72398582  0.77874162  1
  F  F14  1  0.75000000  0.77601418  0.27874162  1
  F  F15  1  0.25000000  0.22398582  0.72125838  1
  F  F16  1  0.75000000  0.15925716  0.63561283  1
  F  F17  1  0.25000000  0.84074284  0.36438717  1
  F  F18  1  0.25000000  0.65925716  0.86438717  1
  F  F19  1  0.75000000  0.34074284  0.13561283  1
  F  F20  1  0.75000000  0.02106734  0.42776238  1
  F  F21  1  0.25000000  0.97893266  0.57223762  1
  F  F22  1  0.25000000  0.52106734  0.07223762  1
  F  F23  1  0.75000000  0.47893266  0.92776238  1
  F  F24  1  0.54386389  0.24584589  0.43709544  1
  F  F25  1  0.04386389  0.75415411  0.56290456  1
  F  F26  1  0.45613611  0.74584589  0.06290456  1
  F  F27  1  0.95613611  0.25415411  0.93709544  1
loop_
_geom_bond_atom_site_label_1
_geom_bond_atom_site_label_2
_geom_bond_distance
_geom_bond_site_symmetry_2
B0 F20 1.389495 1_555
B0 F16 1.411133 1_555
B0 F24 1.414142 1_555
B0 F2 1.414142 1_555
B1 F23 1.389495 1_555
B1 F19 1.411133 1_556
B1 F27 1.414142 1_555
B1 F3 1.414142 1_555
B2 F22 1.389495 1_555
B2 F18 1.411133 1_554
B2 F0 1.414142 1_555
B2 F26 1.414142 1_555
B3 F21 1.389495 1_555
B3 F17 1.411133 1_555
B3 F25 1.414142 1_555
B3 F1 1.414142 1_555
F4 S3 1.537778 1_555
F5 S2 1.537778 1_555
F6 S1 1.537778 1_555
F7 S0 1.537778 1_555
F8 S2 1.537778 1_555
F9 S3 1.537778 1_555
F10 S0 1.537778 1_555
F11 S1 1.537778 1_555
F12 S3 1.527831 1_555
F13 S2 1.527831 1_555
F14 S1 1.527831 1_555
F15 S0 1.527831 1_555
