# generated using pymatgen
data_MgFe6(OF)6
_symmetry_space_group_name_H-M   'P 1'
_cell_length_a   14.29722382
_cell_length_b   5.14340011
_cell_length_c   3.10890497
_cell_angle_alpha   89.91900227
_cell_angle_beta   90.12429217
_cell_angle_gamma   87.41666321
_symmetry_Int_Tables_number   1
_chemical_formula_structural   MgFe6(OF)6
_chemical_formula_sum   'Mg1 Fe6 O6 F6'
_cell_volume   228.38436262
_cell_formula_units_Z   1
loop_
 _symmetry_equiv_pos_site_id
 _symmetry_equiv_pos_as_xyz
  1  'x, y, z'
loop_
 _atom_site_type_symbol
 _atom_site_label
 _atom_site_symmetry_multiplicity
 _atom_site_fract_x
 _atom_site_fract_y
 _atom_site_fract_z
 _atom_site_occupancy
  Mg  Mg0  1  0.18329732  0.91817437  0.49174809  1
  Fe  Fe0  1  0.99510206  0.94095796  0.99217910  1
  Fe  Fe1  1  0.12728388  0.41796295  0.49399337  1
  Fe  Fe2  1  0.38057658  0.04974027  0.98216844  1
  Fe  Fe3  1  0.51389407  0.61227837  0.48503117  1
  Fe  Fe4  1  0.67476773  0.01891757  0.98616393  1
  Fe  Fe5  1  0.80114325  0.51339776  0.48741725  1
  O  O0  1  0.05290457  0.75025843  0.49301006  1
  O  O1  1  0.10879573  0.15524502  0.99401140  1
  O  O2  1  0.40203710  0.83209520  0.48266969  1
  O  O3  1  0.57488738  0.75907917  0.98526094  1
  O  O4  1  0.73682844  0.84792201  0.48711165  1
  O  O5  1  0.76181587  0.32807391  0.98732815  1
  F  F0  1  0.21307896  0.68363854  0.99298550  1
  F  F1  1  0.26656824  0.21246735  0.49678625  1
  F  F2  1  0.45158996  0.39025624  0.98590432  1
  F  F3  1  0.60317222  0.23848691  0.48612140  1
  F  F4  1  0.89412086  0.66573027  0.99048573  1
  F  F5  1  0.93406575  0.15143071  0.49129054  1
loop_
_geom_bond_atom_site_label_1
_geom_bond_atom_site_label_2
_geom_bond_distance
_geom_bond_site_symmetry_2
Mg0 O0 2.089624 1_555
Mg0 O1 2.210502 1_564
Mg0 O1 2.226018 1_565
Fe0 O0 1.996599 1_656
Fe0 O0 1.997527 1_655
Fe0 O1 2.004630 1_665
Fe1 O0 1.971831 1_555
Fe1 O1 2.083344 1_555
Fe1 O1 2.085254 1_554
Fe2 O2 1.931448 1_546
Fe2 O2 1.932558 1_545
Fe3 O2 1.916465 1_555
Fe3 O3 1.950869 1_555
Fe3 O3 1.951044 1_554
Fe4 O4 1.976383 1_546
Fe4 O4 1.976731 1_545
Fe4 O3 1.999341 1_545
Fe4 O5 2.062951 1_555
Fe5 O4 1.913983 1_555
Fe5 O5 1.920445 1_555
Fe5 O5 1.921100 1_554
F0 Mg0 2.000679 1_556
F0 Mg0 2.002571 1_555
F0 Fe1 2.434606 1_555
F0 Fe1 2.439534 1_556
F1 Mg0 1.967552 1_545
F1 Fe1 2.212005 1_555
F1 Fe2 2.344634 1_555
F1 Fe2 2.410232 1_554
F2 Fe2 2.063661 1_555
F2 Fe3 2.143858 1_556
F2 Fe3 2.148252 1_555
F3 Fe4 2.150312 1_555
F3 Fe4 2.155633 1_554
F3 Fe3 2.259262 1_555
F4 Fe0 2.067029 1_555
F4 Fe5 2.206153 1_556
F4 Fe5 2.217067 1_555
F5 Fe0 2.064587 1_545
F5 Fe0 2.065582 1_544
F5 Fe5 2.599755 1_555
