# generated using pymatgen
data_Na10Sc6Ta2Si7S5O48
_symmetry_space_group_name_H-M   'P 1'
_cell_length_a   18.13418489
_cell_length_b   9.06000262
_cell_length_c   22.82454663
_cell_angle_alpha   90.01872152
_cell_angle_beta   90.03084305
_cell_angle_gamma   119.98100362
_symmetry_Int_Tables_number   1
_chemical_formula_structural   Na10Sc6Ta2Si7S5O48
_chemical_formula_sum   'Na30 Sc18 Ta6 Si21 S15 O144'
_cell_volume   3248.19497077
_cell_formula_units_Z   3
loop_
 _symmetry_equiv_pos_site_id
 _symmetry_equiv_pos_as_xyz
  1  'x, y, z'
loop_
 _atom_site_type_symbol
 _atom_site_label
 _atom_site_symmetry_multiplicity
 _atom_site_fract_x
 _atom_site_fract_y
 _atom_site_fract_z
 _atom_site_occupancy
  Na  Na0  1  0.31658135  0.00108114  0.24547688  1
  Na  Na1  1  0.81551543  0.01311286  0.24609743  1
  Na  Na2  1  0.18716636  0.36661032  0.24678221  1
  Na  Na3  1  0.31828980  0.62082414  0.74724209  1
  Na  Na4  1  0.81579950  0.63119544  0.74561009  1
  Na  Na5  1  0.68647964  0.00693938  0.74725757  1
  Na  Na6  1  0.16423347  0.34034373  0.58484996  1
  Na  Na7  1  0.65817716  0.33743055  0.57844671  1
  Na  Na8  1  0.01639882  0.69880179  0.57322811  1
  Na  Na9  1  0.16029195  0.98307719  0.08123669  1
  Na  Na10  1  0.66337774  0.98651274  0.08477975  1
  Na  Na11  1  0.51553751  0.33258246  0.07252765  1
  Na  Na12  1  0.85074717  0.02247522  0.92058833  1
  Na  Na13  1  0.66445256  0.31140658  0.91925007  1
  Na  Na14  1  0.48425642  0.28941924  0.42053622  1
  Na  Na15  1  0.16675660  0.02041976  0.42042704  1
  Na  Na16  1  0.66649208  0.05207948  0.41576787  1
  Na  Na17  1  0.84972763  0.65517051  0.41657744  1
  Na  Na18  1  0.99707664  0.99121942  0.49787559  1
  Na  Na19  1  0.48618510  0.98050431  0.49489041  1
  Na  Na20  1  0.99531926  0.99240295  0.99593692  1
  Na  Na21  1  0.48814584  0.00181379  0.99470685  1
  Na  Na22  1  0.33728285  0.33207836  0.83239019  1
  Na  Na23  1  0.84007545  0.34255560  0.83181737  1
  Na  Na24  1  0.33504789  0.34987476  0.33188981  1
  Na  Na25  1  0.83759795  0.34306664  0.33028715  1
  Na  Na26  1  0.16709890  0.65288974  0.16175086  1
  Na  Na27  1  0.67625207  0.67104765  0.16290193  1
  Na  Na28  1  0.17752028  0.68595952  0.66229973  1
  Na  Na29  1  0.66700539  0.68270394  0.66103623  1
  Sc  Sc0  1  0.00399542  0.00511492  0.34982233  1
  Sc  Sc1  1  0.49992103  0.99195843  0.35192825  1
  Sc  Sc2  1  0.00261864  0.00835128  0.85121096  1
  Sc  Sc3  1  0.49942241  0.00349457  0.85088723  1
  Sc  Sc4  1  0.32661201  0.33256728  0.68645278  1
  Sc  Sc5  1  0.82459097  0.31836072  0.68422011  1
  Sc  Sc6  1  0.32483634  0.32998197  0.18373784  1
  Sc  Sc7  1  0.82605695  0.32002351  0.18612289  1
  Sc  Sc8  1  0.33243365  0.31354581  0.97992490  1
  Sc  Sc9  1  0.83000399  0.33554913  0.98708027  1
  Sc  Sc10  1  0.32668765  0.33270556  0.48693572  1
  Sc  Sc11  1  0.83207016  0.34804751  0.48099362  1
  Sc  Sc12  1  0.17226561  0.66388882  0.02186268  1
  Sc  Sc13  1  0.67689915  0.65735197  0.01818203  1
  Sc  Sc14  1  0.17826862  0.69682741  0.51840803  1
  Sc  Sc15  1  0.66934563  0.66613237  0.52201686  1
  Sc  Sc16  1  0.66516379  0.66074253  0.31252698  1
  Sc  Sc17  1  0.16440175  0.65629318  0.81308373  1
  Ta  Ta0  1  0.99859264  0.00581507  0.65009634  1
  Ta  Ta1  1  0.50445298  0.98862721  0.64634573  1
  Ta  Ta2  1  0.00418730  0.02014801  0.14601185  1
  Ta  Ta3  1  0.49803866  0.98961112  0.14949898  1
  Ta  Ta4  1  0.16341973  0.67683873  0.31078761  1
  Ta  Ta5  1  0.66231126  0.64703665  0.81082333  1
  Si  Si0  1  0.14452507  0.99918356  0.24935582  1
  Si  Si1  1  0.64674376  0.99458541  0.25339623  1
  Si  Si2  1  0.35385788  0.70245091  0.25278376  1
  Si  Si3  1  0.99868497  0.29543383  0.25344609  1
  Si  Si4  1  0.14684226  0.29599773  0.75202216  1
  Si  Si5  1  0.64347146  0.28705248  0.75008439  1
  Si  Si6  1  0.49896205  0.70321903  0.75415103  1
  Si  Si7  1  0.85415702  0.00512223  0.75465414  1
  Si  Si8  1  0.18394664  0.03545381  0.58553721  1
  Si  Si9  1  0.68636262  0.03389934  0.58153729  1
  Si  Si10  1  0.33260643  0.62938676  0.58482892  1
  Si  Si11  1  0.83520157  0.63212755  0.58634001  1
  Si  Si12  1  0.33475054  0.03988161  0.08658954  1
  Si  Si13  1  0.83255588  0.03640893  0.08227282  1
  Si  Si14  1  0.18781291  0.33601288  0.08222606  1
  Si  Si15  1  0.68403405  0.33214147  0.08560347  1
  Si  Si16  1  0.81868382  0.66731858  0.91378007  1
  Si  Si17  1  0.51626663  0.37146480  0.91878322  1
  Si  Si18  1  0.31693642  0.96948352  0.41379763  1
  Si  Si19  1  0.66515661  0.37393126  0.41753462  1
  Si  Si20  1  0.01820284  0.66319734  0.41842980  1
  S  S0  1  0.85701800  0.71402039  0.24996211  1
  S  S1  1  0.50166832  0.29159957  0.24833206  1
  S  S2  1  0.00267739  0.71393531  0.74886052  1
  S  S3  1  0.35569383  -0.00063322  0.74940203  1
  S  S4  1  0.47888805  0.32790307  0.58432318  1
  S  S5  1  0.97799427  0.32670343  0.58413681  1
  S  S6  1  0.47767680  0.62804451  0.08378969  1
  S  S7  1  0.98037716  0.63206856  0.08460125  1
  S  S8  1  0.31248099  0.66577483  0.91583259  1
  S  S9  1  0.02060533  0.37784809  0.91718735  1
  S  S10  1  0.16505936  0.95239822  0.91669981  1
  S  S11  1  0.66576203  0.95387192  0.91627247  1
  S  S12  1  0.81278099  0.95756884  0.41595278  1
  S  S13  1  0.16623138  0.37814746  0.41605248  1
  S  S14  1  0.52120973  0.66245945  0.41724230  1
  O  O0  1  0.10399415  0.03122135  0.30753388  1
  O  O1  1  0.60349492  0.01683102  0.31192632  1
  O  O2  1  0.41097793  0.80238912  0.30782513  1
  O  O3  1  0.90341334  0.78895356  0.30525121  1
  O  O4  1  0.48895234  0.18908520  0.30156488  1
  O  O5  1  0.98093158  0.16488977  0.30649283  1
  O  O6  1  0.09850355  0.17617167  0.80665118  1
  O  O7  1  0.60245075  0.17229519  0.80761618  1
  O  O8  1  0.48137528  0.79938294  0.80685304  1
  O  O9  1  0.98764756  0.79324718  0.80029653  1
  O  O10  1  0.40507313  0.02056868  0.80318840  1
  O  O11  1  0.90822958  0.02130547  0.81238459  1
  O  O12  1  0.39845086  0.97186150  0.69749221  1
  O  O13  1  0.90384567  0.97142949  0.69811498  1
  O  O14  1  0.08546448  0.19589125  0.69302955  1
  O  O15  1  0.58406013  0.19475010  0.69184219  1
  O  O16  1  0.01342250  0.82020355  0.69456720  1
  O  O17  1  0.51560843  0.83424324  0.69533008  1
  O  O18  1  0.40114477  0.83193250  0.19511383  1
  O  O19  1  0.90268014  0.82781658  0.19901125  1
  O  O20  1  0.01521340  0.19663661  0.19513515  1
  O  O21  1  0.51122691  0.20219010  0.19521072  1
  O  O22  1  0.08474556  0.97386354  0.19146564  1
  O  O23  1  0.58362839  0.97792581  0.19562943  1
  O  O24  1  0.43658018  0.34854271  0.63566912  1
  O  O25  1  0.93863789  0.35277024  0.63647303  1
  O  O26  1  0.24631923  0.13363090  0.63911867  1
  O  O27  1  0.73737081  0.11713755  0.64248869  1
  O  O28  1  0.31967292  0.51826294  0.64386322  1
  O  O29  1  0.82359456  0.51778467  0.64417937  1
  O  O30  1  0.43853222  0.52353213  0.13627422  1
  O  O31  1  0.94219715  0.52930335  0.13730865  1
  O  O32  1  0.31984166  0.12098763  0.14599682  1
  O  O33  1  0.82092649  0.12671226  0.14058519  1
  O  O34  1  0.23608254  0.35897657  0.14460153  1
  O  O35  1  0.74678544  0.36048523  0.13918285  1
  O  O36  1  0.23064991  0.28933565  0.02842943  1
  O  O37  1  0.72064498  0.28876975  0.02525869  1
  O  O38  1  0.42576418  0.55556942  0.03082984  1
  O  O39  1  0.92816010  0.55425773  0.03148485  1
  O  O40  1  0.36008691  0.17049428  0.03099670  1
  O  O41  1  0.85122217  0.15142660  0.02239532  1
  O  O42  1  0.21842020  0.15061721  0.52472203  1
  O  O43  1  0.72681887  0.15830937  0.52469358  1
  O  O44  1  0.35170120  0.54450163  0.52763305  1
  O  O45  1  0.85899113  0.56005936  0.52711328  1
  O  O46  1  0.43041430  0.30514800  0.52902845  1
  O  O47  1  0.92623330  0.29630038  0.53105177  1
  O  O48  1  0.26817325  0.68616991  0.96736581  1
  O  O49  1  0.77335943  0.70425137  0.96920125  1
  O  O50  1  0.07114412  0.46624632  0.96951315  1
  O  O51  1  0.57532485  0.45934770  0.97656540  1
  O  O52  1  0.15761432  0.85677184  0.97154332  1
  O  O53  1  0.65604818  0.85646577  0.97018095  1
  O  O54  1  0.27193493  0.85407004  0.47100029  1
  O  O55  1  0.76935081  0.84719671  0.46715233  1
  O  O56  1  0.15649505  0.45615199  0.46994713  1
  O  O57  1  0.65121539  0.46168069  0.47603191  1
  O  O58  1  0.07649938  0.69601375  0.47630514  1
  O  O59  1  0.57456619  0.68749222  0.46927307  1
  O  O60  1  0.07435781  0.65237522  0.36083386  1
  O  O61  1  0.56253495  0.64258274  0.36358946  1
  O  O62  1  0.25224276  0.86048258  0.35668359  1
  O  O63  1  0.76214529  0.88226978  0.36123760  1
  O  O64  1  0.17364881  0.47996408  0.36247434  1
  O  O65  1  0.67993997  0.50312279  0.36248015  1
  O  O66  1  0.06314899  0.47806338  0.86357947  1
  O  O67  1  0.57382112  0.49602189  0.86092541  1
  O  O68  1  0.17244584  0.86070884  0.86503776  1
  O  O69  1  0.67528637  0.86708666  0.86323879  1
  O  O70  1  0.26296062  0.65082639  0.86132016  1
  O  O71  1  0.75358529  0.64596578  0.85619484  1
  O  O72  1  0.00823150  0.83485329  0.41098316  1
  O  O73  1  0.51280226  0.81740141  0.41319523  1
  O  O74  1  0.41272252  0.00154288  0.40865832  1
  O  O75  1  0.89696300  0.96687383  0.41197631  1
  O  O76  1  0.09034518  0.20238830  0.41161049  1
  O  O77  1  0.58171678  0.18286946  0.41353545  1
  O  O78  1  0.01226063  0.20495001  0.91469930  1
  O  O79  1  0.51408725  0.18845953  0.91114485  1
  O  O80  1  0.08836087  0.97000525  0.91238280  1
  O  O81  1  0.59174051  0.98118300  0.91126096  1
  O  O82  1  0.39771723  0.82207478  0.91302634  1
  O  O83  1  0.91122570  0.83924459  0.90961837  1
  O  O84  1  0.48955313  0.17321768  0.59014248  1
  O  O85  1  0.98778187  0.16922404  0.59146683  1
  O  O86  1  0.08849247  0.02480496  0.59502633  1
  O  O87  1  0.59167388  0.03023315  0.59098090  1
  O  O88  1  0.41550429  0.82574468  0.59527849  1
  O  O89  1  0.92224063  0.82249109  0.59507014  1
  O  O90  1  0.48798703  0.80559341  0.09147980  1
  O  O91  1  0.99046628  0.80780574  0.09055599  1
  O  O92  1  0.42136443  0.02190944  0.09476110  1
  O  O93  1  0.91550892  0.00633943  0.09493463  1
  O  O94  1  0.09154814  0.15336260  0.09071957  1
  O  O95  1  0.58873397  0.15202957  0.09489131  1
  O  O96  1  0.34619373  0.14963713  0.74226931  1
  O  O97  1  0.83995246  0.16651520  0.74621615  1
  O  O98  1  0.24238272  0.32430000  0.74704868  1
  O  O99  1  0.74082972  0.32164237  0.74553594  1
  O  O100  1  0.41872068  0.51721684  0.74405028  1
  O  O101  1  0.92615652  0.54404369  0.74144695  1
  O  O102  1  0.33894991  0.51187837  0.24561815  1
  O  O103  1  0.84754634  0.54431211  0.24306324  1
  O  O104  1  0.42488950  0.30687425  0.24099116  1
  O  O105  1  0.91799333  0.31987439  0.24386469  1
  O  O106  1  0.24131286  0.16027578  0.24539591  1
  O  O107  1  0.74168850  0.16173929  0.24685784  1
  O  O108  1  0.31901697  0.51055737  0.92125424  1
  O  O109  1  0.81601134  0.48366668  0.91748957  1
  O  O110  1  0.42406343  0.35998438  0.91772200  1
  O  O111  1  0.93322704  0.35473354  0.91939131  1
  O  O112  1  0.24351634  0.12406637  0.91873612  1
  O  O113  1  0.74601610  0.12514022  0.91792035  1
  O  O114  1  0.32018697  0.15561561  0.41627816  1
  O  O115  1  0.82119250  0.12771891  0.42283171  1
  O  O116  1  0.24361124  0.35941485  0.41756787  1
  O  O117  1  0.75171116  0.35636578  0.41980091  1
  O  O118  1  0.43685363  0.50455087  0.42183676  1
  O  O119  1  0.92401998  0.49473911  0.41741072  1
  O  O120  1  0.16809300  0.49136530  0.07586094  1
  O  O121  1  0.66116440  0.48461494  0.08246956  1
  O  O122  1  0.06871308  0.66233456  0.07673233  1
  O  O123  1  0.56538356  0.65819699  0.07799873  1
  O  O124  1  0.24678500  0.85766012  0.07667455  1
  O  O125  1  0.74288926  0.85477584  0.07729216  1
  O  O126  1  0.16075596  0.83682625  0.58295593  1
  O  O127  1  0.66648330  0.84029282  0.57624230  1
  O  O128  1  0.24300339  0.63128680  0.57810390  1
  O  O129  1  0.74760809  0.63974408  0.57988560  1
  O  O130  1  0.06554545  0.47215691  0.57812244  1
  O  O131  1  0.56673249  0.47743952  0.58009849  1
  O  O132  1  0.15349043  0.82477472  0.25375868  1
  O  O133  1  0.65938911  0.82632450  0.25264121  1
  O  O134  1  0.25855757  0.68922033  0.25732334  1
  O  O135  1  0.77260860  0.70654068  0.25209981  1
  O  O136  1  0.09182820  0.47231735  0.25905421  1
  O  O137  1  0.57940209  0.46039675  0.25107537  1
  O  O138  1  0.15768820  0.48932135  0.75463448  1
  O  O139  1  0.65300536  0.47997956  0.75417408  1
  O  O140  1  0.08066481  0.70225899  0.75363562  1
  O  O141  1  0.59201544  0.71131321  0.75964949  1
  O  O142  1  0.27068317  0.83910732  0.75408680  1
  O  O143  1  0.75909101  0.82758004  0.75762497  1
loop_
_geom_bond_atom_site_label_1
_geom_bond_atom_site_label_2
_geom_bond_distance
_geom_bond_site_symmetry_2
Na0 O106 2.431214 1_555
Na0 O104 2.470983 1_555
Na0 O134 2.488576 1_545
Na0 O32 2.505352 1_555
Na0 O132 2.571673 1_545
Na0 O62 2.818955 1_545
Na0 O18 2.893257 1_545
Na0 O4 2.997318 1_555
Na1 O107 2.325426 1_555
Na1 O105 2.453299 1_555
Na1 O133 2.472672 1_545
Na1 O135 2.485837 1_545
Na1 O33 2.601846 1_555
Na1 O63 2.847207 1_545
Na1 O5 2.942972 1_555
Na1 O19 3.020687 1_545
Na2 O136 2.374834 1_555
Na2 O102 2.385073 1_555
Na2 O106 2.508836 1_555
Na2 O34 2.508859 1_555
Na2 O134 2.548405 1_555
Na2 O64 2.887592 1_555
Na2 O20 2.946201 1_555
Na2 O0 2.975808 1_555
Na3 O98 2.327281 1_555
Na3 O100 2.431459 1_555
Na3 O142 2.527265 1_555
Na3 O28 2.540388 1_555
Na3 O138 2.542182 1_555
Na3 O70 2.852226 1_555
Na3 O8 2.902978 1_555
Na3 O12 2.983462 1_555
Na4 O99 2.429639 1_555
Na4 O143 2.475296 1_555
Na4 O101 2.493360 1_555
Na4 O29 2.565041 1_555
Na4 O139 2.566889 1_555
Na4 O71 2.795585 1_555
Na4 O13 2.882979 1_555
Na4 O9 2.974379 1_555
Na5 O141 2.367208 1_545
Na5 O97 2.411464 1_555
Na5 O99 2.508771 1_555
Na5 O143 2.562973 1_545
Na5 O27 2.578737 1_555
Na5 O69 2.898302 1_545
Na5 O17 2.933196 1_545
Na5 O7 2.957483 1_555
Na6 O128 2.291228 1_555
Na6 O86 2.487887 1_555
Na6 O130 2.605444 1_555
Na6 O42 2.737103 1_555
Na6 O85 2.776303 1_455
Na6 O28 2.794906 1_555
Na6 O14 2.826203 1_555
Na6 O56 2.854325 1_555
Na7 O129 2.386124 1_555
Na7 O87 2.434915 1_555
Na7 O131 2.542176 1_555
Na7 O57 2.625039 1_555
Na7 O84 2.662628 1_555
Na7 O43 2.776243 1_555
Na7 O15 2.906163 1_555
Na7 O29 3.002335 1_555
Na8 O126 2.278911 1_555
Na8 O58 2.472341 1_555
Na8 O89 2.516492 1_455
Na8 O86 2.611431 1_565
Na8 O130 2.617689 1_555
Na8 O45 2.691794 1_455
Na9 O124 2.354445 1_555
Na9 O94 2.429672 1_565
Na9 O122 2.527734 1_555
Na9 O91 2.676655 1_455
Na9 O36 2.691706 1_565
Na9 O52 2.742777 1_554
Na9 O22 2.846617 1_555
Na9 O32 2.915200 1_565
Na10 O125 2.291903 1_555
Na10 O95 2.482548 1_565
Na10 O123 2.597361 1_555
Na10 O37 2.754075 1_565
Na10 O90 2.759794 1_555
Na10 O33 2.786841 1_565
Na10 O53 2.844062 1_554
Na10 O23 2.896638 1_555
Na11 O121 2.299228 1_555
Na11 O51 2.460007 1_554
Na11 O92 2.508842 1_555
Na11 O40 2.619271 1_555
Na11 O95 2.620721 1_555
Na11 O123 2.621091 1_555
Na12 O83 2.416809 1_545
Na12 O113 2.498265 1_555
Na12 O78 2.547736 1_655
Na12 O41 2.598600 1_556
Na12 O111 2.607638 1_555
Na12 O11 2.683267 1_555
Na12 O49 2.733666 1_545
Na13 O79 2.381998 1_555
Na13 O109 2.388361 1_555
Na13 O81 2.603770 1_545
Na13 O37 2.672345 1_556
Na13 O113 2.744300 1_555
Na13 O7 2.814866 1_555
Na13 O51 2.878616 1_555
Na13 O71 2.996724 1_555
Na14 O74 2.275198 1_555
Na14 O77 2.405478 1_555
Na14 O118 2.492642 1_555
Na14 O114 2.593475 1_555
Na14 O46 2.692035 1_555
Na14 O4 2.878080 1_555
Na14 O57 2.911871 1_555
Na15 O114 2.417639 1_555
Na15 O72 2.511142 1_545
Na15 O42 2.612882 1_555
Na15 O76 2.638483 1_555
Na15 O116 2.664909 1_555
Na15 O0 2.837753 1_555
Na15 O58 2.853218 1_545
Na15 O62 2.977539 1_545
Na16 O77 2.364464 1_555
Na16 O117 2.395533 1_555
Na16 O73 2.523704 1_545
Na16 O115 2.538454 1_555
Na16 O1 2.580036 1_555
Na16 O43 2.692099 1_555
Na17 O117 2.384259 1_555
Na17 O119 2.425935 1_555
Na17 O72 2.500455 1_655
Na17 O75 2.510497 1_555
Na17 O45 2.698439 1_555
Na17 O3 2.774670 1_555
Na17 O65 2.942456 1_555
Na17 O55 3.003105 1_555
Na18 O72 2.503257 1_655
Na18 O75 2.604667 1_555
Na18 O89 2.651800 1_555
Na18 O76 2.677649 1_665
Na18 O86 2.692425 1_665
Na18 O85 2.731730 1_565
Na19 O74 2.436410 1_565
Na19 O73 2.570132 1_555
Na19 O77 2.577203 1_565
Na19 O88 2.658581 1_555
Na19 O84 2.769411 1_565
Na19 O87 2.793934 1_565
Na20 O83 2.452090 1_555
Na20 O78 2.579225 1_665
Na20 O80 2.621126 1_655
Na20 O94 2.702314 1_666
Na20 O91 2.706351 1_556
Na20 O93 2.720711 1_566
Na21 O79 2.434443 1_555
Na21 O82 2.478400 1_545
Na21 O92 2.634018 1_556
Na21 O81 2.747036 1_545
Na21 O95 2.814378 1_556
Na21 O90 2.834903 1_546
Na22 O110 2.435682 1_555
Na22 O100 2.567047 1_555
Na22 O98 2.576029 1_555
Na22 O112 2.670282 1_555
Na22 O96 2.693408 1_555
Na22 O108 2.715196 1_555
Na23 O109 2.491079 1_555
Na23 O97 2.521025 1_555
Na23 O111 2.582820 1_555
Na23 O99 2.609287 1_555
Na23 O101 2.679867 1_555
Na23 O113 2.701834 1_555
Na24 O102 2.436175 1_555
Na24 O114 2.531579 1_555
Na24 O116 2.593782 1_555
Na24 O106 2.610258 1_555
Na24 O118 2.644868 1_555
Na24 O104 2.783524 1_555
Na25 O119 2.478160 1_555
Na25 O105 2.523805 1_555
Na25 O107 2.547295 1_555
Na25 O117 2.608717 1_555
Na25 O103 2.644692 1_555
Na25 O115 2.789289 1_555
Na26 O120 2.451447 1_555
Na26 O124 2.574243 1_555
Na26 O134 2.658495 1_555
Na26 O122 2.665528 1_555
Na26 O136 2.691814 1_555
Na26 O132 2.697902 1_555
Na27 O121 2.415304 1_555
Na27 O125 2.458361 1_555
Na27 O133 2.587803 1_555
Na27 O135 2.595322 1_555
Na27 O137 2.726449 1_555
Na27 O123 2.751870 1_555
Na28 O126 2.378381 1_555
Na28 O128 2.436847 1_555
Na28 O142 2.611499 1_555
Na28 O138 2.666029 1_555
Na28 O130 2.762087 1_555
Na28 O140 2.777710 1_555
Na29 O127 2.408232 1_555
Na29 O129 2.507930 1_555
Na29 O131 2.606178 1_555
Na29 O143 2.678654 1_555
Na29 O141 2.708832 1_555
Na29 O139 2.737538 1_555
O0 Si0 1.613002 1_545
O0 Sc0 1.961977 1_555
O1 Si1 1.612247 1_545
O1 Sc1 1.997776 1_545
O2 Si2 1.591084 1_555
O2 Sc1 1.947597 1_555
O3 S0 1.479429 1_555
O3 Sc0 2.150319 1_665
O4 S1 1.476164 1_555
O4 Sc1 2.215126 1_545
O5 Si3 1.609117 1_555
O5 Sc0 1.963163 1_655
O6 Si4 1.597705 1_555
O6 Sc2 1.931390 1_555
O7 Si5 1.608614 1_555
O7 Sc3 1.988035 1_555
O8 Si6 1.607848 1_555
O8 Sc3 1.982564 1_565
O9 S2 1.471202 1_655
O9 Sc2 2.166003 1_665
O10 S3 1.473978 1_555
O10 Sc3 2.097419 1_555
O11 Si7 1.604385 1_555
O11 Sc2 1.981952 1_655
O12 S3 1.503658 1_565
O12 Ta1 2.188993 1_555
O13 Si7 1.687107 1_565
O13 Ta0 1.928119 1_565
O14 Si4 1.692077 1_555
O14 Ta0 1.921845 1_455
O15 Si5 1.650615 1_555
O15 Ta1 1.988110 1_545
O16 S2 1.521231 1_555
O16 Ta0 2.093638 1_465
O17 Si6 1.716419 1_555
O17 Ta1 1.879078 1_555
O18 Si2 1.685517 1_555
O18 Ta3 1.925203 1_555
O19 S0 1.499872 1_555
O19 Ta2 2.164754 1_665
O20 Si3 1.711778 1_455
O20 Ta2 1.879607 1_555
O21 S1 1.515331 1_555
O21 Ta3 2.095995 1_545
O22 Si0 1.650271 1_555
O22 Ta2 1.999293 1_565
O23 Si1 1.702000 1_555
O23 Ta3 1.921295 1_555
O24 S4 1.463305 1_555
O24 Sc4 2.248420 1_555
O25 S5 1.470127 1_555
O25 Sc5 2.218191 1_555
O26 Si8 1.599525 1_555
O26 Sc4 1.977377 1_555
O27 Si9 1.631103 1_555
O27 Sc5 1.961618 1_555
O28 Si10 1.627705 1_555
O28 Sc4 2.000947 1_555
O29 Si11 1.625907 1_555
O29 Sc5 2.033153 1_555
O30 S6 1.471538 1_555
O30 Sc6 2.211290 1_555
O31 S7 1.466582 1_555
O31 Sc7 2.298916 1_555
O32 Si12 1.627863 1_555
O32 Sc6 2.040343 1_555
O33 Si13 1.630125 1_555
O33 Sc7 1.998054 1_555
O34 Si14 1.628755 1_555
O34 Sc6 1.969394 1_555
O35 Si15 1.600829 1_555
O35 Sc7 1.968246 1_555
O36 Si14 1.618329 1_555
O36 Sc8 2.068418 1_554
O37 Si15 1.659403 1_555
O37 Sc9 2.008455 1_554
O38 S6 1.469356 1_555
O38 Sc8 2.304284 1_554
O39 S7 1.481378 1_555
O39 Sc9 2.143275 1_554
O40 Si12 1.636980 1_555
O40 Sc8 1.984933 1_554
O41 Si13 1.648385 1_555
O41 Sc9 2.054880 1_554
O42 Si8 1.660182 1_555
O42 Sc10 2.021328 1_555
O43 Si9 1.633268 1_555
O43 Sc11 2.077714 1_555
O44 Si10 1.637554 1_555
O44 Sc10 1.969558 1_555
O45 Si11 1.649677 1_555
O45 Sc11 2.024089 1_555
O46 S4 1.491830 1_555
O46 Sc10 2.234077 1_555
O47 S5 1.471447 1_555
O47 Sc11 2.288970 1_555
O48 S8 1.487443 1_555
O48 Sc12 2.065043 1_556
O49 Si16 1.631980 1_555
O49 Sc13 1.936433 1_556
O50 S9 1.473893 1_555
O50 Sc12 2.170545 1_556
O51 Si17 1.632750 1_555
O51 Sc13 2.051298 1_556
O52 S10 1.489890 1_555
O52 Sc12 2.215519 1_556
O53 S11 1.472884 1_555
O53 Sc13 2.297867 1_556
O54 Si18 1.616542 1_555
O54 Sc14 1.915745 1_555
O55 S12 1.483412 1_555
O55 Sc15 2.139758 1_555
O56 S13 1.472481 1_555
O56 Sc14 2.295975 1_555
O57 Si19 1.636823 1_555
O57 Sc15 2.007626 1_555
O58 Si20 1.623292 1_555
O58 Sc14 2.076994 1_555
O59 S14 1.475552 1_555
O59 Sc15 2.184297 1_555
O60 Si20 1.695854 1_555
O60 Ta4 1.899149 1_555
O61 S14 1.493117 1_555
O61 Sc16 2.132018 1_555
O62 Si18 1.700167 1_555
O62 Ta4 1.943896 1_555
O63 S12 1.496774 1_555
O63 Sc16 2.196811 1_555
O64 S13 1.497133 1_555
O64 Ta4 2.222501 1_555
O65 Si19 1.645791 1_555
O65 Sc16 1.947873 1_555
O66 S9 1.489423 1_555
O66 Sc17 2.085062 1_555
O67 Si17 1.712325 1_555
O67 Ta5 1.887711 1_555
O68 S10 1.486330 1_555
O68 Sc17 2.141441 1_555
O69 S11 1.499541 1_555
O69 Ta5 2.233967 1_555
O70 S8 1.499997 1_555
O70 Sc17 2.120230 1_555
O71 Si16 1.711280 1_555
O71 Ta5 1.956109 1_555
O72 Si20 1.661757 1_555
O72 Sc0 2.110420 1_565
O73 S14 1.488734 1_555
O73 Sc1 2.209404 1_555
O74 Si18 1.615955 1_545
O74 Sc1 2.079407 1_545
O75 S12 1.489060 1_555
O75 Sc0 2.287147 1_665
O76 S13 1.499790 1_555
O76 Sc0 2.198684 1_555
O77 Si19 1.635939 1_555
O77 Sc1 2.145041 1_545
O78 S9 1.497644 1_555
O78 Sc2 2.233795 1_555
O79 Si17 1.647825 1_555
O79 Sc3 2.079248 1_555
O80 S10 1.480292 1_555
O80 Sc2 2.241782 1_565
O81 S11 1.485913 1_555
O81 Sc3 2.253514 1_565
O82 S8 1.486991 1_555
O82 Sc3 2.255969 1_565
O83 Si16 1.624599 1_555
O83 Sc2 2.082615 1_665
O84 S4 1.513305 1_555
O84 Ta1 2.228935 1_545
O85 S5 1.532437 1_555
O85 Ta0 2.076563 1_555
O86 Si8 1.698832 1_555
O86 Ta0 1.997321 1_455
O87 Si9 1.714470 1_555
O87 Ta1 1.909784 1_545
O88 Si10 1.675747 1_555
O88 Ta1 1.938043 1_555
O89 Si11 1.668634 1_555
O89 Ta0 1.987844 1_565
O90 S6 1.533798 1_555
O90 Ta3 2.064226 1_555
O91 S7 1.515150 1_555
O91 Ta2 2.210157 1_665
O92 Si12 1.668418 1_555
O92 Ta3 1.996205 1_545
O93 Si13 1.682193 1_555
O93 Ta2 1.938456 1_655
O94 Si14 1.713724 1_555
O94 Ta2 1.910844 1_555
O95 Si15 1.696040 1_555
O95 Ta3 2.002114 1_545
O96 S3 1.464327 1_555
O96 Sc4 2.254998 1_555
O97 Si7 1.618054 1_555
O97 Sc5 2.087195 1_555
O98 Si4 1.623758 1_555
O98 Sc4 2.034587 1_555
O99 Si5 1.635015 1_555
O99 Sc5 2.077037 1_555
O100 Si6 1.599688 1_555
O100 Sc4 2.126122 1_555
O101 S2 1.479290 1_655
O101 Sc5 2.347554 1_555
O102 Si2 1.616850 1_555
O102 Sc6 2.086323 1_555
O103 S0 1.467737 1_555
O103 Sc7 2.275187 1_555
O104 S1 1.475845 1_555
O104 Sc6 2.328251 1_555
O105 Si3 1.600486 1_555
O105 Sc7 2.125172 1_555
O106 Si0 1.630638 1_545
O106 Sc6 2.077238 1_555
O107 Si1 1.635425 1_545
O107 Sc7 2.032181 1_555
O108 S8 1.474326 1_555
O108 Sc8 2.339586 1_555
O109 Si16 1.642419 1_555
O109 Sc9 2.174723 1_555
O110 Si17 1.622724 1_555
O110 Sc8 2.063483 1_555
O111 S9 1.491841 1_655
O111 Sc9 2.366252 1_555
O112 S10 1.494561 1_545
O112 Sc8 2.174173 1_555
O113 S11 1.506698 1_545
O113 Sc9 2.353550 1_555
O114 Si18 1.658634 1_545
O114 Sc10 2.235637 1_555
O115 S12 1.479572 1_545
O115 Sc11 2.321722 1_555
O116 S13 1.495659 1_555
O116 Sc10 2.279694 1_555
O117 Si19 1.655657 1_555
O117 Sc11 2.046372 1_555
O118 S14 1.486893 1_555
O118 Sc10 2.349249 1_555
O119 Si20 1.625325 1_655
O119 Sc11 2.107570 1_555
O120 Si14 1.622695 1_555
O120 Sc12 1.962414 1_555
O121 Si15 1.630341 1_555
O121 Sc13 2.058971 1_555
O122 S7 1.494948 1_455
O122 Sc12 2.251898 1_555
O123 S6 1.479110 1_555
O123 Sc13 2.443764 1_555
O124 Si12 1.639736 1_565
O124 Sc12 2.024605 1_555
O125 Si13 1.640217 1_565
O125 Sc13 2.075824 1_555
O126 Si8 1.631658 1_565
O126 Sc14 2.069318 1_555
O127 Si9 1.609095 1_565
O127 Sc15 2.026061 1_555
O128 Si10 1.640663 1_555
O128 Sc14 2.069452 1_555
O129 Si11 1.630613 1_555
O129 Sc15 2.037951 1_555
O130 S5 1.478333 1_455
O130 Sc14 2.454752 1_555
O131 S4 1.491878 1_555
O131 Sc15 2.228775 1_555
O132 Si0 1.670397 1_555
O132 Ta4 1.940419 1_555
O133 Si1 1.651113 1_555
O133 Sc16 2.070748 1_555
O134 Si2 1.674790 1_555
O134 Ta4 2.070537 1_555
O135 S0 1.498804 1_555
O135 Sc16 2.250789 1_555
O136 Si3 1.652850 1_455
O136 Ta4 2.026300 1_555
O137 S1 1.474817 1_555
O137 Sc16 2.203496 1_555
O138 Si4 1.663028 1_555
O138 Sc17 1.974205 1_555
O139 Si5 1.670832 1_555
O139 Ta5 1.932440 1_555
O140 S2 1.473942 1_555
O140 Sc17 2.224985 1_555
O141 Si6 1.656713 1_555
O141 Ta5 2.017218 1_555
O142 S3 1.503117 1_565
O142 Sc17 2.255003 1_555
O143 Si7 1.671146 1_565
O143 Ta5 2.089152 1_555
