# generated using pymatgen
data_Cs(WO3)2
_symmetry_space_group_name_H-M   'P 1'
_cell_length_a   7.32651758
_cell_length_b   7.32651774
_cell_length_c   7.32651124
_cell_angle_alpha   60.00001153
_cell_angle_beta   60.00001315
_cell_angle_gamma   59.99993701
_symmetry_Int_Tables_number   1
_chemical_formula_structural   Cs(WO3)2
_chemical_formula_sum   'Cs2 W4 O12'
_cell_volume   278.08482986
_cell_formula_units_Z   2
loop_
 _symmetry_equiv_pos_site_id
 _symmetry_equiv_pos_as_xyz
  1  'x, y, z'
loop_
 _atom_site_type_symbol
 _atom_site_label
 _atom_site_symmetry_multiplicity
 _atom_site_fract_x
 _atom_site_fract_y
 _atom_site_fract_z
 _atom_site_occupancy
  Cs  Cs0  1  0.99999896  -0.00000012  0.00000093  1
  Cs  Cs1  1  0.25000110  0.25000003  0.24999905  1
  W  W0  1  0.12499997  0.62500049  0.62499927  1
  W  W1  1  0.62500026  0.62499930  0.62500046  1
  W  W2  1  0.62499951  0.12500009  0.62499969  1
  W  W3  1  0.62500068  0.62499973  0.12500012  1
  O  O0  1  0.56529749  0.93470098  0.56529902  1
  O  O1  1  0.31529993  0.68470194  0.31529756  1
  O  O2  1  0.56529711  0.56529851  0.93470199  1
  O  O3  1  0.93470017  0.56529809  0.56529854  1
  O  O4  1  0.56529752  0.93470075  0.93470250  1
  O  O5  1  0.93470017  0.93470128  0.56530014  1
  O  O6  1  0.93469999  0.56529788  0.93470252  1
  O  O7  1  0.68470274  0.31529898  0.31529727  1
  O  O8  1  0.31530010  0.68470164  0.68470118  1
  O  O9  1  0.68470271  0.31529910  0.68470077  1
  O  O10  1  0.31529975  0.31529883  0.68470087  1
  O  O11  1  0.68470186  0.68470250  0.31529814  1
loop_
_geom_bond_atom_site_label_1
_geom_bond_atom_site_label_2
_geom_bond_distance
_geom_bond_site_symmetry_2
Cs0 O7 3.266879 1_555
Cs0 O11 3.266879 1_545
Cs0 O9 3.266884 1_554
Cs0 O1 3.266890 1_645
Cs0 O8 3.266892 1_644
Cs0 O10 3.266906 1_654
Cs1 O2 3.266879 1_554
Cs1 O4 3.266881 1_544
Cs1 O0 3.266884 1_545
Cs1 O3 3.266890 1_455
Cs1 O6 3.266890 1_454
Cs1 O5 3.266906 1_445
O0 W1 1.933263 1_555
O0 W2 1.933267 1_565
O1 W3 1.933258 1_555
O1 W0 1.933267 1_555
O2 W1 1.933261 1_555
O2 W3 1.933270 1_556
O3 W1 1.933253 1_555
O3 W0 1.933274 1_655
O4 W3 1.933260 1_556
O4 W2 1.933272 1_565
O5 W2 1.933259 1_565
O5 W0 1.933262 1_655
O6 W3 1.933251 1_556
O6 W0 1.933275 1_655
O7 W3 1.933257 1_555
O7 W2 1.933269 1_555
O8 W1 1.933255 1_555
O8 W0 1.933276 1_555
O9 W1 1.933255 1_555
O9 W2 1.933274 1_555
O10 W2 1.933254 1_555
O10 W0 1.933266 1_555
O11 W3 1.933265 1_555
O11 W1 1.933265 1_555
