# generated using pymatgen
data_Na8Hf2Sc2Si5SO24
_symmetry_space_group_name_H-M   'P 1'
_cell_length_a   9.24620605
_cell_length_b   9.23039521
_cell_length_c   22.53443923
_cell_angle_alpha   90.03271713
_cell_angle_beta   89.83105626
_cell_angle_gamma   119.94760674
_symmetry_Int_Tables_number   1
_chemical_formula_structural   Na8Hf2Sc2Si5SO24
_chemical_formula_sum   'Na24 Hf6 Sc6 Si15 S3 O72'
_cell_volume   1666.43420418
_cell_formula_units_Z   3
loop_
 _symmetry_equiv_pos_site_id
 _symmetry_equiv_pos_as_xyz
  1  'x, y, z'
loop_
 _atom_site_type_symbol
 _atom_site_label
 _atom_site_symmetry_multiplicity
 _atom_site_fract_x
 _atom_site_fract_y
 _atom_site_fract_z
 _atom_site_occupancy
  Na  Na0  1  0.64554196  0.00407553  0.25330174  1
  Na  Na1  1  0.35419815  0.35861228  0.24621217  1
  Na  Na2  1  0.99993124  0.64001231  0.24970000  1
  Na  Na3  1  0.63697497  0.63666952  0.74622575  1
  Na  Na4  1  0.99525960  0.35858954  0.74988582  1
  Na  Na5  1  0.36667269  0.00679472  0.74974015  1
  Na  Na6  1  0.30109435  0.34021285  0.58685821  1
  Na  Na7  1  0.03880656  0.70029854  0.58215876  1
  Na  Na8  1  0.66303142  0.95959100  0.58268564  1
  Na  Na9  1  0.28200952  0.96344112  0.07981249  1
  Na  Na10  1  0.67010875  0.68981526  0.08822141  1
  Na  Na11  1  0.04864094  0.33864749  0.08735977  1
  Na  Na12  1  0.97904020  0.66935961  0.91620001  1
  Na  Na13  1  0.70622064  0.04889267  0.90772467  1
  Na  Na14  1  0.31772416  0.27992554  0.91898349  1
  Na  Na15  1  0.95828966  0.29269775  0.41035742  1
  Na  Na16  1  0.32532998  0.01601553  0.41547585  1
  Na  Na17  1  0.71719209  0.68572086  0.41861969  1
  Na  Na18  1  0.98868944  0.98646731  0.50066396  1
  Na  Na19  1  0.02431185  0.00949169  0.99966383  1
  Na  Na20  1  0.66775814  0.32251932  0.83236176  1
  Na  Na21  1  0.67633374  0.33012888  0.33202822  1
  Na  Na22  1  0.32305050  0.65218427  0.16553869  1
  Na  Na23  1  0.33591981  0.66633661  0.66242145  1
  Hf  Hf0  1  0.99986712  0.00026276  0.64838983  1
  Hf  Hf1  1  0.66894340  0.33403022  0.68519924  1
  Hf  Hf2  1  0.66869304  0.34301845  0.18627930  1
  Hf  Hf3  1  0.67490204  0.33161819  0.48393991  1
  Hf  Hf4  1  0.32975101  0.67443745  0.31361874  1
  Hf  Hf5  1  0.32269746  0.66906795  0.81239543  1
  Sc  Sc0  1  0.99329468  0.99184331  0.34767939  1
  Sc  Sc1  1  0.00969602  0.00712846  0.84889579  1
  Sc  Sc2  1  0.00788484  0.99935893  0.15159030  1
  Sc  Sc3  1  0.66446922  0.33564990  0.98143331  1
  Sc  Sc4  1  0.31152020  0.65343733  0.01796189  1
  Sc  Sc5  1  0.33667319  0.68071497  0.52105772  1
  Si  Si0  1  0.29715349  0.00289058  0.25064866  1
  Si  Si1  1  0.70231408  0.70569225  0.24939011  1
  Si  Si2  1  0.00007393  0.29355246  0.24996131  1
  Si  Si3  1  0.29764751  0.29712640  0.75031129  1
  Si  Si4  1  0.99612377  0.70622239  0.75133415  1
  Si  Si5  1  0.70607361  0.99869448  0.75172127  1
  Si  Si6  1  0.96518080  0.33230286  0.58401029  1
  Si  Si7  1  0.37213959  0.04285351  0.58328186  1
  Si  Si8  1  0.66624772  0.62709423  0.58298426  1
  Si  Si9  1  0.96046167  0.63125406  0.08178305  1
  Si  Si10  1  0.37087016  0.33511033  0.08200074  1
  Si  Si11  1  0.03296837  0.36478979  0.91711818  1
  Si  Si12  1  0.33463633  0.96337101  0.91846597  1
  Si  Si13  1  0.63110063  0.96378532  0.41753897  1
  Si  Si14  1  0.03547756  0.66708226  0.41822852  1
  S  S0  1  0.66759949  0.04109338  0.08270362  1
  S  S1  1  0.62280482  0.66735250  0.91739016  1
  S  S2  1  0.33461176  0.37527696  0.41710244  1
  O  O0  1  0.21793002  0.04129158  0.30910924  1
  O  O1  1  0.82046361  0.78526469  0.30772676  1
  O  O2  1  0.96680459  0.17851302  0.30894601  1
  O  O3  1  0.21633235  0.17975602  0.80873799  1
  O  O4  1  0.96304738  0.78727549  0.81000208  1
  O  O5  1  0.82169282  0.03214817  0.80997720  1
  O  O6  1  0.79447177  0.96822604  0.69308437  1
  O  O7  1  0.17549659  0.21021707  0.69244228  1
  O  O8  1  0.03003901  0.82587219  0.69302323  1
  O  O9  1  0.78187705  0.82375935  0.19107977  1
  O  O10  1  0.03368690  0.21138700  0.19119165  1
  O  O11  1  0.17890924  0.96389323  0.19240770  1
  O  O12  1  0.87431324  0.36216793  0.64129830  1
  O  O13  1  0.49119888  0.13416534  0.64062683  1
  O  O14  1  0.64145375  0.50998503  0.64100999  1
  O  O15  1  0.86843617  0.50955033  0.13997984  1
  O  O16  1  0.64394130  0.12186184  0.13673476  1
  O  O17  1  0.48835669  0.35374065  0.14032800  1
  O  O18  1  0.45889188  0.30429648  0.02394306  1
  O  O19  1  0.84490962  0.53782311  0.02394053  1
  O  O20  1  0.68848996  0.14372385  0.02959980  1
  O  O21  1  0.46152880  0.16071804  0.52436070  1
  O  O22  1  0.69495467  0.53655045  0.52426073  1
  O  O23  1  0.84340695  0.30083884  0.52566219  1
  O  O24  1  0.54264889  0.68751021  0.97100817  1
  O  O25  1  0.15115005  0.45106004  0.97561479  1
  O  O26  1  0.31446524  0.84845648  0.97672851  1
  O  O27  1  0.54385394  0.84587938  0.47530119  1
  O  O28  1  0.31452623  0.45594412  0.47048422  1
  O  O29  1  0.15060976  0.68906125  0.47578256  1
  O  O30  1  0.12489428  0.63507354  0.35966678  1
  O  O31  1  0.51121853  0.86886399  0.35942171  1
  O  O32  1  0.35623480  0.47842837  0.36320851  1
  O  O33  1  0.13194500  0.48775837  0.85964801  1
  O  O34  1  0.36160433  0.87002189  0.85982812  1
  O  O35  1  0.51997262  0.64683834  0.86362692  1
  O  O36  1  0.02158338  0.83726102  0.41338488  1
  O  O37  1  0.82043713  0.99189611  0.41269324  1
  O  O38  1  0.18612400  0.20741498  0.41234469  1
  O  O39  1  0.00983948  0.17696196  0.91343934  1
  O  O40  1  0.16204605  0.97334584  0.91471897  1
  O  O41  1  0.79082443  0.81652533  0.91269505  1
  O  O42  1  0.97540983  0.16056776  0.58787027  1
  O  O43  1  0.18745312  0.02648642  0.58768593  1
  O  O44  1  0.83664042  0.81141698  0.58760284  1
  O  O45  1  0.97305261  0.81497898  0.08631035  1
  O  O46  1  0.81961709  0.02688677  0.08743752  1
  O  O47  1  0.18263417  0.17095446  0.08673694  1
  O  O48  1  0.68302560  0.16385273  0.74491570  1
  O  O49  1  0.48372801  0.31731661  0.74373453  1
  O  O50  1  0.83393573  0.51802913  0.74484709  1
  O  O51  1  0.68301442  0.51721414  0.24369886  1
  O  O52  1  0.83275135  0.31402223  0.24341620  1
  O  O53  1  0.48738463  0.16258672  0.24249789  1
  O  O54  1  0.63777480  0.51360386  0.91995782  1
  O  O55  1  0.85066473  0.35562560  0.91986731  1
  O  O56  1  0.50200069  0.15082976  0.91975528  1
  O  O57  1  0.63827084  0.14802312  0.41989231  1
  O  O58  1  0.48916093  0.36080132  0.41987912  1
  O  O59  1  0.84613828  0.49799804  0.42036473  1
  O  O60  1  0.36658519  0.51195121  0.08048853  1
  O  O61  1  0.14831355  0.65083814  0.08124560  1
  O  O62  1  0.51778472  0.87228895  0.07888329  1
  O  O63  1  0.35466989  0.85755471  0.58054436  1
  O  O64  1  0.49853204  0.64276930  0.57901012  1
  O  O65  1  0.14997853  0.49572461  0.57818757  1
  O  O66  1  0.31606870  0.83364155  0.25652015  1
  O  O67  1  0.51231965  0.67577037  0.25815481  1
  O  O68  1  0.16755591  0.48118302  0.25678695  1
  O  O69  1  0.31976943  0.48502842  0.75659353  1
  O  O70  1  0.16658410  0.68908481  0.75493155  1
  O  O71  1  0.52056180  0.82903041  0.75649752  1
loop_
_geom_bond_atom_site_label_1
_geom_bond_atom_site_label_2
_geom_bond_distance
_geom_bond_site_symmetry_2
Na0 O52 2.506975 1_555
Na0 O53 2.545034 1_555
Na0 O66 2.640926 1_545
Na0 O67 2.642953 1_545
Na0 O31 2.693886 1_545
Na0 O16 2.846355 1_555
Na0 O2 2.869296 1_555
Na0 O9 2.899472 1_545
Na1 O68 2.502314 1_555
Na1 O67 2.551137 1_555
Na1 O51 2.635352 1_555
Na1 O53 2.649779 1_555
Na1 O17 2.696676 1_555
Na1 O32 2.854908 1_555
Na1 O10 2.857492 1_555
Na1 O0 2.912908 1_555
Na2 O66 2.559023 1_655
Na2 O51 2.564295 1_555
Na2 O52 2.611621 1_555
Na2 O68 2.616744 1_655
Na2 O30 2.747251 1_655
Na2 O15 2.755735 1_555
Na2 O11 2.897436 1_655
Na2 O1 2.909892 1_555
Na3 O71 2.504202 1_555
Na3 O50 2.550990 1_555
Na3 O69 2.552159 1_555
Na3 O49 2.555431 1_555
Na3 O14 2.652401 1_555
Na3 O35 2.874443 1_555
Na3 O6 2.909465 1_555
Na3 O4 2.987721 1_555
Na4 O48 2.529576 1_555
Na4 O50 2.568399 1_555
Na4 O69 2.625652 1_655
Na4 O70 2.646571 1_655
Na4 O12 2.700443 1_555
Na4 O33 2.765367 1_655
Na4 O7 2.931294 1_655
Na4 O5 2.941473 1_555
Na5 O49 2.511448 1_555
Na5 O48 2.536534 1_555
Na5 O70 2.572689 1_545
Na5 O71 2.659462 1_545
Na5 O13 2.718225 1_555
Na5 O34 2.773818 1_545
Na5 O3 2.907074 1_555
Na5 O8 2.990287 1_545
Na6 O65 2.460765 1_555
Na6 O64 2.464075 1_555
Na6 O43 2.540113 1_555
Na6 O42 2.613903 1_455
Na6 O7 2.654259 1_555
Na6 O28 2.811137 1_555
Na7 O63 2.530752 1_555
Na7 O44 2.544391 1_455
Na7 O65 2.562714 1_555
Na7 O43 2.615090 1_565
Na7 O29 2.630169 1_555
Na7 O8 2.771413 1_555
Na8 O63 2.517589 1_555
Na8 O64 2.536113 1_555
Na8 O42 2.539591 1_565
Na8 O44 2.579313 1_555
Na8 O27 2.651351 1_555
Na8 O6 2.755589 1_555
Na9 O45 2.479764 1_455
Na9 O47 2.508686 1_565
Na9 O61 2.508702 1_555
Na9 O26 2.631283 1_554
Na9 O62 2.700346 1_555
Na9 O11 2.708543 1_555
Na10 O45 2.439469 1_555
Na10 O60 2.450348 1_555
Na10 O9 2.589247 1_555
Na10 O62 2.689871 1_555
Na10 O46 2.701337 1_565
Na10 O24 2.891240 1_554
Na10 O17 2.934885 1_555
Na10 O19 2.987733 1_555
Na11 O47 2.417766 1_555
Na11 O61 2.553506 1_555
Na11 O60 2.554914 1_555
Na11 O46 2.584786 1_455
Na11 O10 2.590880 1_555
Na11 O25 2.706082 1_554
Na12 O40 2.448853 1_655
Na12 O55 2.523826 1_555
Na12 O4 2.664439 1_555
Na12 O41 2.690956 1_555
Na12 O19 2.718273 1_556
Na12 O54 2.738610 1_555
Na12 O33 2.964064 1_655
Na12 O26 3.019184 1_655
Na13 O39 2.446154 1_655
Na13 O55 2.469938 1_555
Na13 O5 2.483173 1_555
Na13 O56 2.508969 1_555
Na13 O41 2.626937 1_545
Na13 O20 2.910945 1_556
Na13 O34 2.968112 1_545
Na14 O40 2.454147 1_545
Na14 O39 2.514683 1_555
Na14 O56 2.520053 1_555
Na14 O54 2.652842 1_555
Na14 O3 2.655430 1_555
Na14 O18 2.659503 1_556
Na15 O37 2.408911 1_545
Na15 O2 2.533467 1_555
Na15 O57 2.576111 1_555
Na15 O59 2.584047 1_555
Na15 O38 2.591473 1_655
Na15 O23 2.819306 1_555
Na15 O30 2.966193 1_655
Na16 O36 2.446713 1_545
Na16 O57 2.519620 1_555
Na16 O0 2.651744 1_555
Na16 O38 2.655920 1_555
Na16 O58 2.760457 1_555
Na16 O21 2.779468 1_555
Na16 O29 2.947626 1_545
Na16 O31 2.951383 1_545
Na17 O36 2.441181 1_655
Na17 O37 2.494426 1_555
Na17 O59 2.547246 1_555
Na17 O1 2.667049 1_555
Na17 O58 2.669716 1_555
Na17 O22 2.706179 1_555
Na17 O27 2.955839 1_555
Na18 O44 2.478865 1_555
Na18 O36 2.503819 1_655
Na18 O37 2.539415 1_555
Na18 O42 2.579021 1_565
Na18 O43 2.588844 1_665
Na18 O38 2.778290 1_665
Na19 O40 2.409645 1_545
Na19 O47 2.459569 1_556
Na19 O39 2.528690 1_555
Na19 O45 2.531703 1_446
Na19 O46 2.793042 1_456
Na19 O41 2.802820 1_445
Na20 O48 2.499878 1_555
Na20 O56 2.509896 1_555
Na20 O55 2.518899 1_555
Na20 O50 2.593159 1_555
Na20 O49 2.612412 1_555
Na20 O54 2.750489 1_555
Na21 O57 2.505721 1_555
Na21 O52 2.509662 1_555
Na21 O59 2.532689 1_555
Na21 O53 2.614174 1_555
Na21 O51 2.616199 1_555
Na21 O58 2.731797 1_555
Na22 O60 2.454291 1_555
Na22 O61 2.493313 1_555
Na22 O68 2.550895 1_555
Na22 O67 2.665781 1_555
Na22 O66 2.667615 1_555
Na22 O62 2.741214 1_555
Na23 O64 2.479999 1_555
Na23 O63 2.499179 1_555
Na23 O65 2.520220 1_555
Na23 O69 2.660658 1_555
Na23 O71 2.668709 1_555
Na23 O70 2.673922 1_555
Hf0 O8 2.032833 1_645
Hf0 O6 2.033930 1_545
Hf0 O7 2.059961 1_655
Hf0 O42 2.106815 1_555
Hf0 O43 2.122589 1_655
Hf0 O44 2.139032 1_545
Hf1 O13 2.023297 1_555
Hf1 O14 2.027187 1_555
Hf1 O12 2.036845 1_555
Hf1 O49 2.102294 1_555
Hf1 O50 2.107397 1_555
Hf1 O48 2.122000 1_555
Hf2 O15 2.004582 1_555
Hf2 O17 2.009329 1_555
Hf2 O51 2.015723 1_555
Hf2 O53 2.095553 1_555
Hf2 O52 2.108961 1_555
Hf2 O16 2.235727 1_555
Hf3 O23 1.960362 1_555
Hf3 O22 2.021628 1_555
Hf3 O21 2.023409 1_555
Hf3 O59 2.116415 1_555
Hf3 O57 2.120528 1_555
Hf3 O58 2.362812 1_555
Hf4 O66 2.004937 1_555
Hf4 O30 2.024418 1_555
Hf4 O31 2.025589 1_555
Hf4 O67 2.092530 1_555
Hf4 O68 2.099755 1_555
Hf4 O32 2.242394 1_555
Hf5 O34 2.011535 1_555
Hf5 O70 2.017940 1_555
Hf5 O33 2.022203 1_555
Hf5 O71 2.098892 1_555
Hf5 O69 2.102277 1_555
Hf5 O35 2.255754 1_555
O0 Si0 1.628100 1_555
O0 Sc0 2.078723 1_445
O1 Si1 1.633179 1_555
O1 Sc0 1.991075 1_555
O2 Si2 1.631559 1_655
O2 Sc0 2.053052 1_545
O3 Si3 1.629417 1_555
O3 Sc1 1.990019 1_555
O4 Si4 1.620497 1_555
O4 Sc1 2.049065 1_665
O5 Si5 1.624738 1_545
O5 Sc1 2.062585 1_655
O6 Si5 1.647976 1_555
O7 Si3 1.650023 1_555
O8 Si4 1.642596 1_455
O9 Si1 1.628165 1_555
O9 Sc2 2.096395 1_655
O10 Si2 1.630164 1_555
O10 Sc2 2.053443 1_545
O11 Si0 1.631675 1_565
O11 Sc2 1.994882 1_555
O12 Si6 1.634899 1_555
O13 Si7 1.634900 1_555
O14 Si8 1.638055 1_555
O15 Si9 1.657282 1_555
O16 S0 1.498776 1_555
O17 Si10 1.660980 1_555
O18 Si10 1.636866 1_555
O18 Sc3 2.013658 1_554
O19 Si9 1.634386 1_555
O19 Sc3 2.020493 1_554
O20 S0 1.477826 1_555
O20 Sc3 2.182267 1_554
O21 Si7 1.651385 1_555
O22 Si8 1.654756 1_555
O23 Si6 1.662143 1_555
O24 S1 1.475100 1_555
O24 Sc4 2.258643 1_556
O25 Si11 1.644480 1_555
O25 Sc4 1.959500 1_556
O26 Si12 1.638980 1_555
O26 Sc4 2.014273 1_556
O27 Si13 1.627371 1_555
O27 Sc5 2.032572 1_555
O28 S2 1.473656 1_555
O28 Sc5 2.284666 1_555
O29 Si14 1.627478 1_555
O29 Sc5 2.036989 1_555
O30 Si14 1.658110 1_555
O31 Si13 1.658038 1_555
O32 S2 1.493749 1_555
O33 Si11 1.661509 1_555
O34 Si12 1.661899 1_555
O35 S1 1.494811 1_555
O36 Si14 1.642450 1_555
O36 Sc0 2.161928 1_455
O37 Si13 1.639934 1_555
O37 Sc0 2.165140 1_555
O38 S2 1.474442 1_555
O38 Sc0 2.394068 1_445
O39 Si11 1.639565 1_555
O39 Sc1 2.137342 1_555
O40 Si12 1.646117 1_555
O40 Sc1 2.175572 1_565
O41 S1 1.477866 1_555
O41 Sc1 2.385086 1_665
O42 Si6 1.636829 1_555
O43 Si7 1.640178 1_555
O44 Si8 1.646869 1_555
O45 Si9 1.643970 1_555
O45 Sc2 2.148685 1_655
O46 S0 1.479586 1_555
O46 Sc2 2.375202 1_645
O47 Si10 1.643956 1_555
O47 Sc2 2.165360 1_545
O48 Si5 1.648570 1_545
O49 Si3 1.641749 1_555
O50 Si4 1.639478 1_555
O51 Si1 1.662788 1_555
O52 Si2 1.656562 1_655
O53 Si0 1.646249 1_555
O54 S1 1.494251 1_555
O54 Sc3 2.255550 1_555
O55 Si11 1.646004 1_655
O55 Sc3 2.142881 1_555
O56 Si12 1.648140 1_545
O56 Sc3 2.132996 1_555
O57 Si13 1.669299 1_545
O58 S2 1.501653 1_555
O59 Si14 1.665717 1_655
O60 Si10 1.652819 1_555
O60 Sc4 2.149485 1_555
O61 Si9 1.654116 1_455
O61 Sc4 2.064616 1_555
O62 S0 1.483116 1_565
O62 Sc4 2.401755 1_555
O63 Si7 1.636888 1_565
O63 Sc5 2.053451 1_555
O64 Si8 1.630515 1_555
O64 Sc5 2.145523 1_555
O65 Si6 1.624114 1_455
O65 Sc5 2.144614 1_555
O66 Si0 1.661878 1_565
O67 Si1 1.647718 1_555
O68 Si2 1.656683 1_555
O69 Si3 1.647952 1_555
O70 Si4 1.662954 1_455
O71 Si5 1.650288 1_555
