# generated using pymatgen
data_Na5Y2Hf2SiP5O24
_symmetry_space_group_name_H-M   'P 1'
_cell_length_a   9.18132312
_cell_length_b   9.17512397
_cell_length_c   23.30348233
_cell_angle_alpha   89.90233715
_cell_angle_beta   90.05460401
_cell_angle_gamma   120.24563402
_symmetry_Int_Tables_number   1
_chemical_formula_structural   Na5Y2Hf2SiP5O24
_chemical_formula_sum   'Na15 Y6 Hf6 Si3 P15 O72'
_cell_volume   1695.85123294
_cell_formula_units_Z   3
loop_
 _symmetry_equiv_pos_site_id
 _symmetry_equiv_pos_as_xyz
  1  'x, y, z'
loop_
 _atom_site_type_symbol
 _atom_site_label
 _atom_site_symmetry_multiplicity
 _atom_site_fract_x
 _atom_site_fract_y
 _atom_site_fract_z
 _atom_site_occupancy
  Na  Na0  1  0.00351361  0.64183890  0.25046014  1
  Na  Na1  1  0.63202016  0.64090061  0.75014851  1
  Na  Na2  1  0.37059551  0.99753148  0.75112844  1
  Na  Na3  1  0.66511217  0.97224163  0.58585033  1
  Na  Na4  1  0.29785811  0.97000289  0.08270390  1
  Na  Na5  1  0.67851699  0.69670342  0.08118863  1
  Na  Na6  1  0.02592813  0.33259473  0.08384021  1
  Na  Na7  1  0.96618128  0.30131803  0.41730443  1
  Na  Na8  1  0.33885493  0.03585048  0.41998581  1
  Na  Na9  1  0.00687811  0.99012356  0.50186412  1
  Na  Na10  1  0.00037430  0.99166133  0.99441400  1
  Na  Na11  1  0.67936519  0.33134196  0.83781462  1
  Na  Na12  1  0.65440112  0.33387548  0.33318537  1
  Na  Na13  1  0.34076848  0.66658874  0.17077053  1
  Na  Na14  1  0.31918895  0.65564520  0.66674678  1
  Y  Y0  1  0.99305041  0.99491352  0.34993033  1
  Y  Y1  1  0.00093697  0.00243546  0.15272614  1
  Y  Y2  1  0.66857148  0.33787335  0.97827838  1
  Y  Y3  1  0.66331331  0.34187103  0.48703004  1
  Y  Y4  1  0.34452557  0.66782517  0.31499411  1
  Y  Y5  1  0.32738308  0.66215881  0.81405339  1
  Hf  Hf0  1  0.99518288  0.00259473  0.85323669  1
  Hf  Hf1  1  0.00447920  0.00286107  0.64778310  1
  Hf  Hf2  1  0.66937271  0.32813577  0.68391608  1
  Hf  Hf3  1  0.66722127  0.33098180  0.18331765  1
  Hf  Hf4  1  0.32961835  0.66644487  0.01362875  1
  Hf  Hf5  1  0.33231885  0.66526586  0.52164720  1
  Si  Si0  1  0.71384413  0.00715656  0.74820483  1
  Si  Si1  1  0.36570950  0.03276266  0.58313658  1
  Si  Si2  1  0.96671639  0.62928637  0.08364678  1
  P  P0  1  0.30662752  0.00582407  0.24972705  1
  P  P1  1  0.69893869  0.69037946  0.24594747  1
  P  P2  1  0.99230445  0.30279414  0.24902344  1
  P  P3  1  0.29122440  0.28410939  0.74895146  1
  P  P4  1  0.99261841  0.71216703  0.74937916  1
  P  P5  1  0.96415988  0.33380315  0.58369419  1
  P  P6  1  0.66632460  0.63300894  0.58705796  1
  P  P7  1  0.66075909  0.03657984  0.08257361  1
  P  P8  1  0.37672440  0.33973034  0.08289122  1
  P  P9  1  0.63204850  0.67487727  0.91505665  1
  P  P10  1  0.04080196  0.36476097  0.91675807  1
  P  P11  1  0.32413515  0.95882824  0.91464764  1
  P  P12  1  0.62820219  0.96156984  0.42088377  1
  P  P13  1  0.33135461  0.37197696  0.41888187  1
  P  P14  1  0.04503458  0.66712683  0.41727385  1
  O  O0  1  0.22394419  0.02885620  0.30408262  1
  O  O1  1  0.81571505  0.77584376  0.29791443  1
  O  O2  1  0.97204052  0.19785273  0.30327188  1
  O  O3  1  0.20842807  0.17295346  0.80282211  1
  O  O4  1  0.96805740  0.79684793  0.80330745  1
  O  O5  1  0.83157286  0.02632188  0.80441768  1
  O  O6  1  0.80272519  0.98135055  0.69151299  1
  O  O7  1  0.18231618  0.19566398  0.69595205  1
  O  O8  1  0.01807360  0.82524900  0.69666829  1
  O  O9  1  0.77826436  0.79161228  0.19074986  1
  O  O10  1  0.01521333  0.22289937  0.19448356  1
  O  O11  1  0.19642502  0.97882748  0.19611267  1
  O  O12  1  0.87001668  0.36075135  0.63476677  1
  O  O13  1  0.49773230  0.13308203  0.63777208  1
  O  O14  1  0.64226822  0.52143637  0.64058172  1
  O  O15  1  0.87764767  0.50749664  0.14132324  1
  O  O16  1  0.62959701  0.12101877  0.13592203  1
  O  O17  1  0.49136494  0.36575243  0.13613774  1
  O  O18  1  0.44783411  0.29818777  0.03084987  1
  O  O19  1  0.84035721  0.54319958  0.03111656  1
  O  O20  1  0.69329155  0.14691676  0.03038926  1
  O  O21  1  0.44121342  0.13640794  0.52424505  1
  O  O22  1  0.70151644  0.56143727  0.53342257  1
  O  O23  1  0.85884996  0.29615677  0.52863450  1
  O  O24  1  0.53858215  0.69236682  0.96979299  1
  O  O25  1  0.15079577  0.45655514  0.97231294  1
  O  O26  1  0.30618336  0.84412309  0.96925522  1
  O  O27  1  0.53593516  0.85291178  0.47510604  1
  O  O28  1  0.31693919  0.46874435  0.47164818  1
  O  O29  1  0.16196785  0.68285666  0.46909337  1
  O  O30  1  0.12051800  0.64572256  0.36101334  1
  O  O31  1  0.52039749  0.87985355  0.36730598  1
  O  O32  1  0.34851325  0.47039003  0.36386711  1
  O  O33  1  0.12567065  0.47226783  0.86427483  1
  O  O34  1  0.34504915  0.87807108  0.86018180  1
  O  O35  1  0.53094409  0.65619834  0.86064287  1
  O  O36  1  0.03888367  0.83262266  0.41611924  1
  O  O37  1  0.80578461  0.98268192  0.41727880  1
  O  O38  1  0.16494420  0.19670230  0.41712322  1
  O  O39  1  0.03323277  0.19137615  0.91247224  1
  O  O40  1  0.15986614  0.96795861  0.91165467  1
  O  O41  1  0.80866402  0.83926641  0.91204414  1
  O  O42  1  0.97800274  0.17384718  0.59390234  1
  O  O43  1  0.17860580  0.00677111  0.59338729  1
  O  O44  1  0.81724443  0.81618057  0.59414083  1
  O  O45  1  0.00002037  0.82153339  0.08912862  1
  O  O46  1  0.81471232  0.01313716  0.09050115  1
  O  O47  1  0.19469902  0.19192155  0.09104492  1
  O  O48  1  0.69006982  0.17472476  0.74232890  1
  O  O49  1  0.46920425  0.29904079  0.74183663  1
  O  O50  1  0.82831158  0.53790766  0.74193640  1
  O  O51  1  0.68865195  0.51511297  0.24087211  1
  O  O52  1  0.82963695  0.31762488  0.24340758  1
  O  O53  1  0.48332230  0.16383546  0.24169252  1
  O  O54  1  0.65210832  0.51991914  0.91985661  1
  O  O55  1  0.86427865  0.33989441  0.92178488  1
  O  O56  1  0.47880396  0.13381308  0.92107417  1
  O  O57  1  0.64724892  0.13958137  0.42441285  1
  O  O58  1  0.48244510  0.34280858  0.42193494  1
  O  O59  1  0.87158821  0.50628461  0.42356152  1
  O  O60  1  0.36980093  0.50680506  0.07594054  1
  O  O61  1  0.15322753  0.64038515  0.07530028  1
  O  O62  1  0.49832848  0.85782170  0.07605575  1
  O  O63  1  0.36004390  0.84835640  0.57854603  1
  O  O64  1  0.50617019  0.65055612  0.57965065  1
  O  O65  1  0.14180652  0.49133232  0.57790511  1
  O  O66  1  0.31704599  0.84294663  0.25329869  1
  O  O67  1  0.52283934  0.66767062  0.25130473  1
  O  O68  1  0.14296747  0.48557300  0.25248118  1
  O  O69  1  0.31978624  0.46388099  0.75213519  1
  O  O70  1  0.15205041  0.69763645  0.75280588  1
  O  O71  1  0.52461598  0.83874938  0.75111049  1
loop_
_geom_bond_atom_site_label_1
_geom_bond_atom_site_label_2
_geom_bond_distance
_geom_bond_site_symmetry_2
Na0 O68 2.355047 1_555
Na0 O66 2.518869 1_555
Na0 O51 2.524344 1_455
Na0 O52 2.577111 1_455
Na0 O30 2.783695 1_555
Na0 O1 2.802065 1_455
Na0 O15 2.809464 1_455
Na0 O11 2.962256 1_555
Na1 O50 2.427864 1_555
Na1 O71 2.464086 1_555
Na1 O69 2.483462 1_555
Na1 O49 2.718158 1_555
Na1 O35 2.765509 1_555
Na1 O14 2.800618 1_555
Na1 O4 2.941473 1_555
Na1 O6 3.022966 1_555
Na2 O49 2.448394 1_565
Na2 O70 2.456944 1_555
Na2 O71 2.489485 1_555
Na2 O48 2.546520 1_565
Na2 O34 2.728982 1_555
Na2 O13 2.901643 1_565
Na2 O3 2.946660 1_565
Na3 O63 2.441027 1_555
Na3 O44 2.460076 1_555
Na3 O42 2.521181 1_565
Na3 O64 2.554170 1_555
Na3 O6 2.748580 1_555
Na3 O27 2.821553 1_555
Na3 O13 2.880580 1_565
Na3 O23 2.905118 1_565
Na4 O45 2.367108 1_555
Na4 O62 2.526017 1_555
Na4 O61 2.625831 1_555
Na4 O47 2.650505 1_565
Na4 O11 2.817753 1_555
Na4 O18 2.870007 1_565
Na4 O26 2.903261 1_554
Na4 O16 2.912372 1_565
Na5 O60 2.471754 1_555
Na5 O46 2.526703 1_565
Na5 O45 2.579358 1_655
Na5 O9 2.704689 1_555
Na5 O62 2.720172 1_555
Na5 O19 2.769533 1_555
Na5 O24 2.886778 1_554
Na5 O17 2.923573 1_555
Na6 O61 2.460510 1_555
Na6 O47 2.471585 1_555
Na6 O46 2.578509 1_455
Na6 O60 2.733666 1_555
Na6 O10 2.750012 1_555
Na6 O25 2.836300 1_554
Na6 O15 2.904270 1_455
Na6 O20 2.922238 1_455
Na7 O59 2.441052 1_555
Na7 O38 2.452818 1_655
Na7 O37 2.525559 1_545
Na7 O57 2.535065 1_555
Na7 O23 2.767956 1_555
Na7 O2 2.833008 1_555
Na8 O36 2.428332 1_545
Na8 O58 2.435552 1_555
Na8 O57 2.493715 1_555
Na8 O21 2.601384 1_555
Na8 O38 2.665622 1_555
Na8 O0 2.887782 1_555
Na8 O31 2.957556 1_545
Na8 O29 3.021374 1_545
Na9 O36 2.570217 1_555
Na9 O43 2.609642 1_565
Na9 O38 2.611496 1_565
Na9 O37 2.676825 1_455
Na9 O44 2.720049 1_455
Na9 O42 2.824122 1_465
Na10 O40 2.497731 1_555
Na10 O41 2.502210 1_455
Na10 O39 2.554857 1_565
Na10 O45 2.700253 1_556
Na10 O46 2.881940 1_466
Na10 O47 2.886862 1_566
Na11 O55 2.564675 1_555
Na11 O56 2.659461 1_555
Na11 O54 2.675800 1_555
Na11 O48 2.679452 1_555
Na11 O50 2.799032 1_555
Na11 O49 2.869047 1_555
Na12 O58 2.629407 1_555
Na12 O51 2.637061 1_555
Na12 O53 2.642595 1_555
Na12 O52 2.690159 1_555
Na12 O57 2.751577 1_555
Na12 O59 2.782048 1_555
Na13 O67 2.508782 1_555
Na13 O68 2.576725 1_555
Na13 O66 2.594384 1_555
Na13 O62 2.734734 1_555
Na13 O60 2.740379 1_555
Na13 O61 2.747693 1_555
Na14 O65 2.596564 1_555
Na14 O63 2.610093 1_555
Na14 O69 2.655746 1_555
Na14 O71 2.656471 1_555
Na14 O70 2.670082 1_555
Na14 O64 2.675169 1_555
Hf0 O5 1.980774 1_555
Hf0 O39 2.103644 1_655
Hf0 O41 2.113887 1_545
Hf0 O4 2.124319 1_545
Hf0 O3 2.138181 1_655
Hf0 O40 2.172346 1_645
Hf1 O43 2.027298 1_555
Hf1 O6 2.035514 1_445
Hf1 O7 2.036859 1_555
Hf1 O8 2.041394 1_545
Hf1 O42 2.115120 1_455
Hf1 O44 2.118602 1_445
Hf2 O13 2.001170 1_555
Hf2 O48 2.032907 1_555
Hf2 O12 2.059729 1_555
Hf2 O14 2.159921 1_555
Hf2 O49 2.186297 1_555
Hf2 O50 2.199461 1_555
Hf3 O15 2.039426 1_555
Hf3 O51 2.089040 1_555
Hf3 O52 2.092620 1_555
Hf3 O16 2.094395 1_555
Hf3 O17 2.105191 1_555
Hf3 O53 2.107587 1_555
Hf4 O26 2.029873 1_554
Hf4 O25 2.036969 1_554
Hf4 O24 2.079468 1_554
Hf4 O61 2.087715 1_555
Hf4 O62 2.205283 1_555
Hf4 O60 2.219494 1_555
Hf5 O63 2.054524 1_555
Hf5 O29 2.054783 1_555
Hf5 O28 2.092623 1_555
Hf5 O27 2.095323 1_555
Hf5 O65 2.123718 1_555
Hf5 O64 2.146010 1_555
O0 P0 1.545890 1_555
O0 Y0 2.251799 1_445
O1 P1 1.544267 1_555
O1 Y0 2.206351 1_555
O2 P2 1.541322 1_555
O2 Y0 2.245216 1_545
O3 P3 1.552543 1_555
O4 P4 1.553778 1_555
O5 Si0 1.649808 1_555
O6 Si0 1.632518 1_565
O7 P3 1.538630 1_555
O8 P4 1.546566 1_455
O9 P1 1.537509 1_555
O9 Y1 2.172590 1_665
O10 P2 1.534917 1_455
O10 Y1 2.189774 1_555
O11 P0 1.546698 1_565
O11 Y1 2.162881 1_565
O12 P5 1.563015 1_555
O13 Si1 1.677680 1_555
O14 P6 1.555910 1_555
O15 Si2 1.673411 1_555
O16 P7 1.566811 1_555
O17 P8 1.565210 1_555
O18 P8 1.515278 1_555
O18 Y2 2.236201 1_554
O19 Si2 1.595546 1_555
O19 Y2 2.136274 1_554
O20 P7 1.511553 1_555
O20 Y2 2.233539 1_554
O21 Si1 1.612932 1_555
O21 Y3 2.142255 1_555
O22 P6 1.521569 1_555
O22 Y3 2.155243 1_555
O23 P5 1.537261 1_555
O23 Y3 2.256733 1_555
O24 P9 1.590816 1_555
O25 P10 1.596755 1_555
O26 P11 1.604756 1_555
O27 P12 1.566870 1_555
O28 P13 1.562122 1_555
O29 P14 1.572805 1_555
O30 P14 1.541910 1_555
O30 Y4 2.237058 1_555
O31 P12 1.534250 1_555
O31 Y4 2.172034 1_555
O32 P13 1.528689 1_555
O32 Y4 2.153988 1_555
O33 P10 1.516364 1_555
O33 Y5 2.140476 1_555
O34 P11 1.530971 1_555
O34 Y5 2.188494 1_555
O35 P9 1.528788 1_555
O35 Y5 2.184865 1_555
O36 P14 1.547848 1_555
O36 Y0 2.322842 1_455
O37 P12 1.544330 1_555
O37 Y0 2.289562 1_555
O38 P13 1.564313 1_555
O38 Y0 2.330651 1_445
O39 P10 1.560349 1_555
O40 P11 1.553587 1_555
O41 P9 1.563735 1_555
O42 P5 1.553481 1_555
O43 Si1 1.628759 1_555
O44 P6 1.557639 1_555
O45 Si2 1.636602 1_455
O45 Y1 2.223904 1_565
O46 P7 1.544023 1_555
O46 Y1 2.280265 1_655
O47 P8 1.544266 1_555
O47 Y1 2.265837 1_555
O48 Si0 1.663576 1_555
O49 P3 1.578424 1_555
O50 P4 1.559727 1_555
O51 P1 1.567320 1_555
O52 P2 1.571781 1_555
O53 P0 1.548866 1_555
O54 P9 1.526777 1_555
O54 Y2 2.216397 1_555
O55 P10 1.523239 1_655
O55 Y2 2.221044 1_555
O56 P11 1.523236 1_545
O56 Y2 2.244086 1_555
O57 P12 1.554875 1_545
O57 Y3 2.308444 1_555
O58 P13 1.541035 1_555
O58 Y3 2.251301 1_555
O59 P14 1.538652 1_655
O59 Y3 2.282888 1_555
O60 P8 1.573993 1_555
O61 Si2 1.674955 1_455
O62 P7 1.572723 1_565
O63 Si1 1.669966 1_565
O64 P6 1.567097 1_555
O65 P5 1.546725 1_455
O66 P0 1.546913 1_565
O66 Y4 2.261016 1_555
O67 P1 1.527758 1_555
O67 Y4 2.211349 1_555
O68 P2 1.547776 1_455
O68 Y4 2.286637 1_555
O69 P3 1.536071 1_555
O69 Y5 2.297249 1_555
O70 P4 1.537268 1_455
O70 Y5 2.292689 1_555
O71 Si0 1.644989 1_565
O71 Y5 2.257661 1_555
