# generated using pymatgen
data_LiCoP2O7
_symmetry_space_group_name_H-M   'P 1'
_cell_length_a   6.16002891
_cell_length_b   6.16002891
_cell_length_c   13.03495677
_cell_angle_alpha   74.75815936
_cell_angle_beta   74.75815936
_cell_angle_gamma   80.48119999
_symmetry_Int_Tables_number   1
_chemical_formula_structural   LiCoP2O7
_chemical_formula_sum   'Li4 Co4 P8 O28'
_cell_volume   457.97063385
_cell_formula_units_Z   4
loop_
 _symmetry_equiv_pos_site_id
 _symmetry_equiv_pos_as_xyz
  1  'x, y, z'
loop_
 _atom_site_type_symbol
 _atom_site_label
 _atom_site_symmetry_multiplicity
 _atom_site_fract_x
 _atom_site_fract_y
 _atom_site_fract_z
 _atom_site_occupancy
  Li  Li0  1  0.76483200  0.00047000  0.14454900  1
  Li  Li1  1  0.99953000  0.23516800  0.35545100  1
  Li  Li2  1  0.23516800  0.99953000  0.85545100  1
  Li  Li3  1  0.00047000  0.76483200  0.64454900  1
  Co  Co0  1  0.87713600  0.40610800  0.86049700  1
  Co  Co1  1  0.12286400  0.59389200  0.13950300  1
  Co  Co2  1  0.59389200  0.12286400  0.63950300  1
  Co  Co3  1  0.40610800  0.87713600  0.36049700  1
  P  P0  1  0.57877300  0.66471300  0.57265400  1
  P  P1  1  0.42122700  0.33528800  0.42734600  1
  P  P2  1  0.66471300  0.57877300  0.07265400  1
  P  P3  1  0.24855400  0.08802100  0.13767000  1
  P  P4  1  0.75144600  0.91197900  0.86233000  1
  P  P5  1  0.33528700  0.42122700  0.92734600  1
  P  P6  1  0.08802100  0.24855400  0.63767000  1
  P  P7  1  0.91197900  0.75144600  0.36233000  1
  O  O0  1  0.20358900  0.39373500  0.52105000  1
  O  O1  1  0.18987300  0.33845600  0.86861200  1
  O  O2  1  0.10909800  0.92213800  0.11858500  1
  O  O3  1  0.66154400  0.81012700  0.63138800  1
  O  O4  1  0.27539800  0.08039600  0.68231700  1
  O  O5  1  0.42937300  0.97772200  0.20174500  1
  O  O6  1  0.07786300  0.89090200  0.38141500  1
  O  O7  1  0.60626500  0.79641100  0.97895000  1
  O  O8  1  0.81012700  0.66154400  0.13138800  1
  O  O9  1  0.97772200  0.42937300  0.70174500  1
  O  O10  1  0.72460200  0.91960400  0.31768300  1
  O  O11  1  0.38561300  0.78915900  0.51689600  1
  O  O12  1  0.08039600  0.27539800  0.18231700  1
  O  O13  1  0.79641100  0.60626500  0.47895000  1
  O  O14  1  0.43614600  0.52542300  0.14776000  1
  O  O15  1  0.21084100  0.61438700  0.98310400  1
  O  O16  1  0.33845600  0.18987300  0.36861200  1
  O  O17  1  0.92213800  0.10909800  0.61858500  1
  O  O18  1  0.52542300  0.43614600  0.64776000  1
  O  O19  1  0.61438700  0.21084100  0.48310400  1
  O  O20  1  0.47457700  0.56385400  0.35224000  1
  O  O21  1  0.39373500  0.20358900  0.02105000  1
  O  O22  1  0.02227800  0.57062700  0.29825500  1
  O  O23  1  0.57062700  0.02227800  0.79825500  1
  O  O24  1  0.56385400  0.47457700  0.85224000  1
  O  O25  1  0.78915900  0.38561300  0.01689600  1
  O  O26  1  0.89090200  0.07786200  0.88141500  1
  O  O27  1  0.91960400  0.72460200  0.81768300  1
loop_
_geom_bond_atom_site_label_1
_geom_bond_atom_site_label_2
_geom_bond_distance
_geom_bond_site_symmetry_2
Li0 O5 2.019019 1_545
Li0 O2 2.052984 1_645
Li0 O8 2.106336 1_545
Li0 O10 2.135031 1_545
Li0 O25 2.516095 1_555
Li1 O22 2.019019 1_655
Li1 O6 2.052984 1_645
Li1 O16 2.106336 1_655
Li1 O12 2.135031 1_655
Li1 O19 2.516095 1_555
Li2 O23 2.019019 1_565
Li2 O26 2.052984 1_465
Li2 O1 2.106336 1_565
Li2 O4 2.135031 1_565
Li2 O15 2.516095 1_555
Li3 O9 2.019019 1_455
Li3 O17 2.052984 1_465
Li3 O3 2.106336 1_455
Li3 O27 2.135031 1_455
Li3 O11 2.516095 1_555
Co0 O1 1.927324 1_655
Co0 O24 1.931279 1_555
Co0 O27 1.935553 1_555
Co0 O25 1.942201 1_556
Co0 O26 1.958470 1_555
Co0 O9 1.971257 1_555
Co1 O8 1.927324 1_455
Co1 O14 1.931279 1_555
Co1 O12 1.935553 1_555
Co1 O15 1.942201 1_554
Co1 O2 1.958470 1_555
Co1 O22 1.971257 1_555
Co2 O3 1.927324 1_545
Co2 O18 1.931279 1_555
Co2 O4 1.935553 1_555
Co2 O19 1.942201 1_555
Co2 O17 1.958470 1_555
Co2 O23 1.971257 1_555
Co3 O16 1.927324 1_565
Co3 O20 1.931279 1_555
Co3 O10 1.935553 1_555
Co3 O11 1.942201 1_555
Co3 O6 1.958464 1_555
Co3 O5 1.971257 1_555
O0 P6 1.595054 1_555
O0 P1 1.621561 1_555
O1 P5 1.537972 1_555
O2 P3 1.542848 1_565
O3 P0 1.537972 1_555
O4 P6 1.544267 1_555
O5 P3 1.529821 1_565
O6 P7 1.542853 1_455
O7 P4 1.595054 1_555
O7 P2 1.621563 1_556
O8 P2 1.537972 1_555
O9 P6 1.529821 1_655
O10 P7 1.544267 1_555
O11 P0 1.546534 1_555
O12 P3 1.544267 1_555
O13 P7 1.595054 1_555
O13 P0 1.621563 1_555
O14 P2 1.519202 1_555
O15 P5 1.546534 1_555
O16 P1 1.537977 1_555
O17 P6 1.542848 1_655
O18 P0 1.519202 1_555
O19 P1 1.546535 1_555
O20 P1 1.519197 1_555
O21 P3 1.595054 1_555
O21 P5 1.621563 1_554
O22 P7 1.529821 1_455
O23 P4 1.529821 1_545
O24 P5 1.519202 1_555
O25 P2 1.546534 1_555
O26 P4 1.542848 1_545
O27 P4 1.544267 1_555
