# generated using pymatgen
data_Ba3Al5
_symmetry_space_group_name_H-M   'P 1'
_cell_length_a   6.07529737
_cell_length_b   6.07529961
_cell_length_c   14.81157321
_cell_angle_alpha   90.00000000
_cell_angle_beta   90.00000000
_cell_angle_gamma   120.00000470
_symmetry_Int_Tables_number   1
_chemical_formula_structural   Ba3Al5
_chemical_formula_sum   'Ba6 Al10'
_cell_volume   473.44228255
_cell_formula_units_Z   2
loop_
 _symmetry_equiv_pos_site_id
 _symmetry_equiv_pos_as_xyz
  1  'x, y, z'
loop_
 _atom_site_type_symbol
 _atom_site_label
 _atom_site_symmetry_multiplicity
 _atom_site_fract_x
 _atom_site_fract_y
 _atom_site_fract_z
 _atom_site_occupancy
  Ba  Ba0  1  0.00000000  0.00000000  0.50000000  1
  Ba  Ba1  1  0.00000000  0.00000000  -0.00000000  1
  Ba  Ba2  1  0.33333300  0.66666700  0.87399330  1
  Ba  Ba3  1  0.66666700  0.33333300  0.37399330  1
  Ba  Ba4  1  0.66666700  0.33333300  0.12600670  1
  Ba  Ba5  1  0.33333300  0.66666700  0.62600670  1
  Al  Al0  1  0.84513673  0.69027245  0.75000000  1
  Al  Al1  1  0.15486327  0.84513673  0.25000000  1
  Al  Al2  1  0.69027245  0.84513673  0.25000000  1
  Al  Al3  1  0.30972755  0.15486327  0.75000000  1
  Al  Al4  1  0.84513673  0.15486327  0.75000000  1
  Al  Al5  1  0.15486327  0.30972755  0.25000000  1
  Al  Al6  1  0.33333300  0.66666700  0.11714932  1
  Al  Al7  1  0.66666700  0.33333300  0.61714932  1
  Al  Al8  1  0.66666700  0.33333300  0.88285068  1
  Al  Al9  1  0.33333300  0.66666700  0.38285068  1
loop_
_geom_bond_atom_site_label_1
_geom_bond_atom_site_label_2
_geom_bond_distance
_geom_bond_site_symmetry_2
Ba0 Ba5 3.973204 1_545
Ba0 Ba3 3.973204 1_455
Ba0 Ba5 3.973208 1_445
Ba0 Ba3 3.973208 1_555
Ba0 Ba3 3.973209 1_445
Ba0 Ba5 3.973209 1_555
Ba1 Ba4 3.973204 1_455
Ba1 Ba2 3.973204 1_544
Ba1 Ba4 3.973208 1_555
Ba1 Ba2 3.973208 1_444
Ba1 Ba4 3.973209 1_445
Ba1 Ba2 3.973209 1_554
Al0 Al8 2.720072 1_555
Al0 Al7 2.720072 1_555
Al0 Al3 2.822528 1_665
Al0 Al4 2.822528 1_565
Al0 Ba5 3.551839 1_655
Al0 Ba2 3.551839 1_655
Al0 Ba5 3.551850 1_555
Al0 Ba2 3.551850 1_555
Al0 Ba1 4.045612 1_666
Al0 Ba0 4.045612 1_665
Al1 Al6 2.720072 1_555
Al1 Al9 2.720072 1_555
Al1 Al2 2.822527 1_455
Al1 Al5 2.822528 1_565
Al1 Ba4 3.551845 1_565
Al1 Ba3 3.551845 1_565
Al1 Ba3 3.551845 1_455
Al1 Ba4 3.551845 1_455
Al1 Ba1 4.045610 1_565
Al1 Ba0 4.045610 1_565
Al2 Al6 2.720071 1_555
Al2 Al9 2.720071 1_555
Al2 Al5 2.822528 1_665
Al2 Ba3 3.551840 1_565
Al2 Ba4 3.551840 1_565
Al2 Ba3 3.551851 1_555
Al2 Ba4 3.551851 1_555
Al2 Ba0 4.045612 1_665
Al2 Ba1 4.045612 1_665
Al3 Al7 2.720071 1_555
Al3 Al8 2.720071 1_555
Al3 Al4 2.822527 1_455
Al3 Ba5 3.551840 1_545
Al3 Ba2 3.551840 1_545
Al3 Ba5 3.551851 1_555
Al3 Ba2 3.551851 1_555
Al3 Ba1 4.045612 1_556
Al3 Ba0 4.045612 1_555
Al4 Al8 2.720072 1_555
Al4 Al7 2.720072 1_555
Al4 Ba5 3.551845 1_545
Al4 Ba2 3.551845 1_545
Al4 Ba2 3.551845 1_655
Al4 Ba5 3.551845 1_655
Al4 Ba1 4.045610 1_656
Al4 Ba0 4.045610 1_655
Al5 Al6 2.720072 1_555
Al5 Al9 2.720072 1_555
Al5 Ba3 3.551839 1_455
Al5 Ba4 3.551839 1_455
Al5 Ba3 3.551850 1_555
Al5 Ba4 3.551850 1_555
Al5 Ba1 4.045612 1_555
Al5 Ba0 4.045612 1_555
Al6 Ba4 3.510023 1_455
Al6 Ba4 3.510025 1_565
Al6 Ba4 3.510035 1_555
Al6 Ba2 3.601523 1_554
Al6 Ba1 3.913293 1_565
Al6 Ba1 3.913297 1_665
Al6 Ba1 3.913298 1_555
Al7 Ba5 3.510023 1_655
Al7 Ba5 3.510025 1_545
Al7 Ba5 3.510035 1_555
Al7 Ba3 3.601523 1_555
Al7 Ba0 3.913293 1_655
Al7 Ba0 3.913297 1_555
Al7 Ba0 3.913298 1_665
Al8 Ba2 3.510023 1_655
Al8 Ba2 3.510025 1_545
Al8 Ba2 3.510035 1_555
Al8 Ba4 3.601523 1_556
Al8 Ba1 3.913293 1_656
Al8 Ba1 3.913297 1_556
Al8 Ba1 3.913298 1_666
Al9 Ba3 3.510023 1_455
Al9 Ba3 3.510025 1_565
Al9 Ba3 3.510035 1_555
Al9 Ba5 3.601523 1_555
Al9 Ba0 3.913293 1_565
Al9 Ba0 3.913297 1_665
Al9 Ba0 3.913298 1_555
