# generated using pymatgen
data_Na14Y4Zr4Si9(SO16)3
_symmetry_space_group_name_H-M   'P 1'
_cell_length_a   18.86250034
_cell_length_b   9.42729233
_cell_length_c   23.02528843
_cell_angle_alpha   89.98317233
_cell_angle_beta   89.86865960
_cell_angle_gamma   119.98573876
_symmetry_Int_Tables_number   1
_chemical_formula_structural   Na14Y4Zr4Si9(SO16)3
_chemical_formula_sum   'Na42 Y12 Zr12 Si27 S9 O144'
_cell_volume   3546.35818575
_cell_formula_units_Z   3
loop_
 _symmetry_equiv_pos_site_id
 _symmetry_equiv_pos_as_xyz
  1  'x, y, z'
loop_
 _atom_site_type_symbol
 _atom_site_label
 _atom_site_symmetry_multiplicity
 _atom_site_fract_x
 _atom_site_fract_y
 _atom_site_fract_z
 _atom_site_occupancy
  Na  Na0  1  0.82375691  0.01455013  0.25926075  1
  Na  Na1  1  0.17148772  0.34708387  0.25601118  1
  Na  Na2  1  0.69425703  0.36930370  0.25508682  1
  Na  Na3  1  0.99689432  0.62938321  0.24354954  1
  Na  Na4  1  0.49897448  0.65065272  0.24734858  1
  Na  Na5  1  0.32172788  0.63145260  0.75383171  1
  Na  Na6  1  0.99741719  0.34494934  0.73607998  1
  Na  Na7  1  0.49986366  0.36819595  0.73921003  1
  Na  Na8  1  0.19193941  0.01796483  0.74807410  1
  Na  Na9  1  0.67895319  0.00213412  0.74716562  1
  Na  Na10  1  0.14397992  0.31320640  0.58049367  1
  Na  Na11  1  0.65462102  0.32844898  0.58167161  1
  Na  Na12  1  0.33622462  0.99773562  0.58953510  1
  Na  Na13  1  0.83354784  0.97462350  0.58319343  1
  Na  Na14  1  0.14570465  0.97779553  0.07934482  1
  Na  Na15  1  0.64848665  0.97736188  0.07669782  1
  Na  Na16  1  0.33402608  0.67888189  0.08146400  1
  Na  Na17  1  0.83668201  0.67714634  0.09023053  1
  Na  Na18  1  0.48011522  0.67875149  0.91517066  1
  Na  Na19  1  0.97840745  0.68149066  0.92922371  1
  Na  Na20  1  0.33980440  0.01609650  0.90195516  1
  Na  Na21  1  0.83941861  0.01395102  0.90449631  1
  Na  Na22  1  0.17589334  0.29558658  0.90743479  1
  Na  Na23  1  0.67076633  0.28737018  0.90817118  1
  Na  Na24  1  0.48393952  0.28346278  0.43408055  1
  Na  Na25  1  0.97831170  0.27739214  0.42210266  1
  Na  Na26  1  0.16830531  0.05296450  0.41366516  1
  Na  Na27  1  0.67798753  0.05606333  0.41694168  1
  Na  Na28  1  0.34191974  0.66805953  0.41004142  1
  Na  Na29  1  0.84135267  0.66444096  0.42133589  1
  Na  Na30  1  0.99574910  0.99222825  0.50335452  1
  Na  Na31  1  0.50992206  0.01895798  0.50538885  1
  Na  Na32  1  0.00497474  0.99518783  0.00269357  1
  Na  Na33  1  0.50611689  0.99770928  0.99698763  1
  Na  Na34  1  0.32876995  0.33687400  0.82307492  1
  Na  Na35  1  0.81703799  0.32727983  0.82658664  1
  Na  Na36  1  0.31552679  0.29897301  0.33470837  1
  Na  Na37  1  0.82723238  0.31837686  0.33133258  1
  Na  Na38  1  0.15094104  0.64308381  0.16788270  1
  Na  Na39  1  0.66306267  0.65584765  0.16827085  1
  Na  Na40  1  0.16052948  0.66827280  0.66626206  1
  Na  Na41  1  0.66022664  0.66149032  0.66314675  1
  Y  Y0  1  0.00097624  0.00782918  0.35005550  1
  Y  Y1  1  0.50060523  0.00327009  0.35093156  1
  Y  Y2  1  -0.00001838  0.99797163  0.84920531  1
  Y  Y3  1  0.50097007  0.99384906  0.84863809  1
  Y  Y4  1  0.33616431  0.32883283  0.68144361  1
  Y  Y5  1  0.83591963  0.34358067  0.18221487  1
  Y  Y6  1  0.33105558  0.33943787  0.98397376  1
  Y  Y7  1  0.82714812  0.33740716  0.98473388  1
  Y  Y8  1  0.32817947  0.31850695  0.48495550  1
  Y  Y9  1  0.83190048  0.33372231  0.48720322  1
  Y  Y10  1  0.67446529  0.67595240  0.31568637  1
  Y  Y11  1  0.17282607  0.67050125  0.81377079  1
  Zr  Zr0  1  0.99686590  0.00254391  0.64758396  1
  Zr  Zr1  1  0.50701980  0.00922385  0.65454601  1
  Zr  Zr2  1  0.00585356  0.00511131  0.15404802  1
  Zr  Zr3  1  0.50182769  0.99244806  0.14946448  1
  Zr  Zr4  1  0.82894903  0.32726795  0.67842306  1
  Zr  Zr5  1  0.33061079  0.34394400  0.18301369  1
  Zr  Zr6  1  0.16627121  0.66813209  0.01930308  1
  Zr  Zr7  1  0.66533866  0.66489622  0.01987691  1
  Zr  Zr8  1  0.16475144  0.66533618  0.51948237  1
  Zr  Zr9  1  0.67199879  0.66370101  0.52154347  1
  Zr  Zr10  1  0.17591140  0.67241316  0.30947444  1
  Zr  Zr11  1  0.67663918  0.68222259  0.80844186  1
  Si  Si0  1  0.15394910  0.00226340  0.25127747  1
  Si  Si1  1  0.64937911  0.99458284  0.25081644  1
  Si  Si2  1  0.35235708  0.69951943  0.25007972  1
  Si  Si3  1  0.85131937  0.70405818  0.24944886  1
  Si  Si4  1  0.00069326  0.30198471  0.25388912  1
  Si  Si5  1  0.14800934  0.29973272  0.75066630  1
  Si  Si6  1  0.65437377  0.30595967  0.75291887  1
  Si  Si7  1  0.50059780  0.69936160  0.75467924  1
  Si  Si8  1  0.35079724  0.99938865  0.75034105  1
  Si  Si9  1  0.85309789  0.01551680  0.75214972  1
  Si  Si10  1  0.48691882  0.32606461  0.58227367  1
  Si  Si11  1  0.98590153  0.33891203  0.58444579  1
  Si  Si12  1  0.17780928  0.02284660  0.58440737  1
  Si  Si13  1  0.67893606  0.02462291  0.58195986  1
  Si  Si14  1  0.83648874  0.63676312  0.57878706  1
  Si  Si15  1  0.48610076  0.63475391  0.08428485  1
  Si  Si16  1  0.98775807  0.64710148  0.08229623  1
  Si  Si17  1  0.17969123  0.33507848  0.08240444  1
  Si  Si18  1  0.67606553  0.33061138  0.08440062  1
  Si  Si19  1  0.31821402  0.67200418  0.91948713  1
  Si  Si20  1  0.81199345  0.66649022  0.91811169  1
  Si  Si21  1  0.16664420  0.96454888  0.91560652  1
  Si  Si22  1  0.66798283  0.96132149  0.91745332  1
  Si  Si23  1  0.31207418  0.95919944  0.41784104  1
  Si  Si24  1  0.81838848  0.96963250  0.41818725  1
  Si  Si25  1  0.16838335  0.37489700  0.41670062  1
  Si  Si26  1  0.66667395  0.36672332  0.41398667  1
  S  S0  1  0.49509713  0.29313146  0.24808758  1
  S  S1  1  0.99563741  0.69616916  0.74953161  1
  S  S2  1  0.33352036  0.64140892  0.58175863  1
  S  S3  1  0.33375338  0.03415679  0.08279390  1
  S  S4  1  0.83382044  0.02639393  0.08162785  1
  S  S5  1  0.01980175  0.37301640  0.91834495  1
  S  S6  1  0.52343360  0.37928915  0.91587736  1
  S  S7  1  0.02418785  0.66560610  0.41387678  1
  S  S8  1  0.51948994  0.66497200  0.41723217  1
  O  O0  1  0.12061426  0.04987812  0.30969436  1
  O  O1  1  0.60947572  0.02414686  0.30975741  1
  O  O2  1  0.40620479  0.77467824  0.30889878  1
  O  O3  1  0.90375278  0.79089452  0.30813242  1
  O  O4  1  0.48606858  0.20648759  0.30412739  1
  O  O5  1  0.98765825  0.20363564  0.31497034  1
  O  O6  1  0.11158727  0.19959771  0.81251670  1
  O  O7  1  0.61785927  0.19603848  0.81216335  1
  O  O8  1  0.48628999  0.76736011  0.81660191  1
  O  O9  1  0.98793061  0.76526108  0.80630055  1
  O  O10  1  0.39971029  0.01370331  0.81097227  1
  O  O11  1  0.90345203  0.03732534  0.81257971  1
  O  O12  1  0.40339361  0.98778028  0.69442828  1
  O  O13  1  0.90332269  0.99757343  0.69709455  1
  O  O14  1  0.08857041  0.18216936  0.69754249  1
  O  O15  1  0.59261352  0.20682574  0.69739577  1
  O  O16  1  0.00168474  0.80522074  0.70121835  1
  O  O17  1  0.51486412  0.83715857  0.70433618  1
  O  O18  1  0.39915555  0.81231634  0.19271526  1
  O  O19  1  0.90172400  0.81749475  0.19163341  1
  O  O20  1  0.01552325  0.19525284  0.20233864  1
  O  O21  1  0.50028630  0.19601543  0.19905542  1
  O  O22  1  0.09299534  0.97915847  0.19524422  1
  O  O23  1  0.58949765  0.99013001  0.19549629  1
  O  O24  1  0.44524587  0.34901973  0.64083403  1
  O  O25  1  0.93763490  0.35410390  0.64205111  1
  O  O26  1  0.23969138  0.10679042  0.63951001  1
  O  O27  1  0.74249733  0.12395837  0.63736575  1
  O  O28  1  0.32341179  0.53897955  0.63360468  1
  O  O29  1  0.82236650  0.49824550  0.62873863  1
  O  O30  1  0.43688268  0.51893270  0.14109930  1
  O  O31  1  0.94603515  0.54130647  0.14075103  1
  O  O32  1  0.32589427  0.12981867  0.13124121  1
  O  O33  1  0.82373379  0.10784069  0.13342403  1
  O  O34  1  0.24514731  0.36012527  0.13640134  1
  O  O35  1  0.73636735  0.36443759  0.13974085  1
  O  O36  1  0.21934408  0.29907208  0.02485478  1
  O  O37  1  0.71499056  0.28621497  0.02741603  1
  O  O38  1  0.43222715  0.55424598  0.02594551  1
  O  O39  1  0.93117423  0.55807874  0.02440040  1
  O  O40  1  0.34528068  0.12105267  0.02684782  1
  O  O41  1  0.84121350  0.11977427  0.02769290  1
  O  O42  1  0.21738285  0.14265067  0.52690165  1
  O  O43  1  0.71727214  0.14092001  0.52439278  1
  O  O44  1  0.34144518  0.56349661  0.52782046  1
  O  O45  1  0.85047136  0.57623445  0.51587161  1
  O  O46  1  0.42827144  0.29655866  0.52504599  1
  O  O47  1  0.93311661  0.31058515  0.52550100  1
  O  O48  1  0.26386866  0.67463048  0.97666541  1
  O  O49  1  0.76326700  0.67466726  0.97724897  1
  O  O50  1  0.07317027  0.46865982  0.96859233  1
  O  O51  1  0.57292733  0.47285942  0.96773333  1
  O  O52  1  0.16188460  0.84648377  0.97177911  1
  O  O53  1  0.66204708  0.85239402  0.97627125  1
  O  O54  1  0.26303731  0.85231849  0.47636172  1
  O  O55  1  0.76226608  0.85211887  0.47310926  1
  O  O56  1  0.16329425  0.47550295  0.47442652  1
  O  O57  1  0.66216064  0.47744291  0.46868809  1
  O  O58  1  0.07358879  0.67194856  0.46585263  1
  O  O59  1  0.57270926  0.67561804  0.46633233  1
  O  O60  1  0.06517364  0.65542378  0.36010692  1
  O  O61  1  0.55340100  0.64646769  0.36094114  1
  O  O62  1  0.25430116  0.85637353  0.36193410  1
  O  O63  1  0.76658241  0.88963486  0.35783904  1
  O  O64  1  0.17168648  0.48275073  0.35857495  1
  O  O65  1  0.66693037  0.45657769  0.35273106  1
  O  O66  1  0.05486574  0.46440327  0.86355357  1
  O  O67  1  0.56155001  0.47283428  0.86206152  1
  O  O68  1  0.17004117  0.87519242  0.85567361  1
  O  O69  1  0.67129526  0.85770001  0.86060547  1
  O  O70  1  0.26381048  0.64621405  0.86083013  1
  O  O71  1  0.75350262  0.65273729  0.86294731  1
  O  O72  1  0.01940698  0.81871592  0.41495855  1
  O  O73  1  0.51306442  0.81748377  0.41741462  1
  O  O74  1  0.40221386  0.97142626  0.41582255  1
  O  O75  1  0.90599005  0.96933622  0.42107184  1
  O  O76  1  0.08835678  0.18955570  0.41953093  1
  O  O77  1  0.58260245  0.18349767  0.41980423  1
  O  O78  1  0.01576918  0.21074199  0.91857275  1
  O  O79  1  0.51944247  0.21735332  0.91683155  1
  O  O80  1  0.08331722  0.98127247  0.91989169  1
  O  O81  1  0.58746525  0.98558332  0.91942546  1
  O  O82  1  0.40592724  0.84568374  0.92161397  1
  O  O83  1  0.90275053  0.83400859  0.91641487  1
  O  O84  1  0.49445702  0.15704756  0.58702398  1
  O  O85  1  0.99537121  0.17220014  0.59082075  1
  O  O86  1  0.08730403  0.00589979  0.59267997  1
  O  O87  1  0.58884376  0.00813563  0.59225990  1
  O  O88  1  0.40459605  0.81000005  0.58694345  1
  O  O89  1  0.90962482  0.82416026  0.59243617  1
  O  O90  1  0.49104976  0.81808854  0.08979639  1
  O  O91  1  0.99591430  0.83210207  0.08564802  1
  O  O92  1  0.40293642  0.00268765  0.09108016  1
  O  O93  1  0.90514481  0.00011295  0.08620726  1
  O  O94  1  0.08976357  0.17236933  0.09163200  1
  O  O95  1  0.58301822  0.16831389  0.09144758  1
  O  O96  1  0.34047003  0.16263730  0.74829417  1
  O  O97  1  0.84358006  0.18046389  0.74536534  1
  O  O98  1  0.24225765  0.33528905  0.74418050  1
  O  O99  1  0.74410590  0.32085383  0.74123895  1
  O  O100  1  0.41900475  0.52168726  0.74450959  1
  O  O101  1  0.92397430  0.52819032  0.74381067  1
  O  O102  1  0.34382412  0.51375943  0.24333421  1
  O  O103  1  0.84059859  0.51980575  0.24730849  1
  O  O104  1  0.42285946  0.31709329  0.24171451  1
  O  O105  1  0.91918749  0.31650536  0.24421296  1
  O  O106  1  0.24579431  0.16286840  0.23801149  1
  O  O107  1  0.74253334  0.14785273  0.24366291  1
  O  O108  1  0.33154469  0.51166760  0.92077308  1
  O  O109  1  0.82139447  0.50097248  0.91751440  1
  O  O110  1  0.43887208  0.35385854  0.92085192  1
  O  O111  1  0.93612240  0.34893506  0.92539889  1
  O  O112  1  0.25250347  0.14327049  0.91865810  1
  O  O113  1  0.75452351  0.13958262  0.91692125  1
  O  O114  1  0.32102943  0.14288691  0.41689619  1
  O  O115  1  0.83164833  0.15607138  0.42059746  1
  O  O116  1  0.25527569  0.37074802  0.41631660  1
  O  O117  1  0.75094470  0.35459009  0.41559969  1
  O  O118  1  0.43536904  0.52002036  0.42350954  1
  O  O119  1  0.94123560  0.51874840  0.41675729  1
  O  O120  1  0.17839329  0.50906999  0.08049469  1
  O  O121  1  0.67051483  0.49958901  0.07717775  1
  O  O122  1  0.08326050  0.68025610  0.07756640  1
  O  O123  1  0.58203089  0.67556444  0.08219490  1
  O  O124  1  0.25540327  0.86929814  0.08132997  1
  O  O125  1  0.75699417  0.85860660  0.07939205  1
  O  O126  1  0.17149467  0.84210493  0.57669163  1
  O  O127  1  0.67535498  0.84714508  0.57849371  1
  O  O128  1  0.25651656  0.65434736  0.57939291  1
  O  O129  1  0.75044462  0.64710956  0.57983049  1
  O  O130  1  0.08170667  0.49357377  0.58163329  1
  O  O131  1  0.58055488  0.48222327  0.57540839  1
  O  O132  1  0.15306207  0.82725369  0.25474596  1
  O  O133  1  0.64352629  0.81452842  0.24797395  1
  O  O134  1  0.25761472  0.66456677  0.25179154  1
  O  O135  1  0.75985063  0.68864458  0.24697556  1
  O  O136  1  0.08356604  0.48643406  0.25401858  1
  O  O137  1  0.57074010  0.45805753  0.24762700  1
  O  O138  1  0.14380346  0.47060124  0.74780535  1
  O  O139  1  0.65473951  0.48080324  0.75592180  1
  O  O140  1  0.07208090  0.68397708  0.74903503  1
  O  O141  1  0.58334153  0.68032491  0.75464593  1
  O  O142  1  0.25937380  0.83181417  0.74664161  1
  O  O143  1  0.75889507  0.85487126  0.75298245  1
loop_
_geom_bond_atom_site_label_1
_geom_bond_atom_site_label_2
_geom_bond_distance
_geom_bond_site_symmetry_2
Na0 O107 2.445868 1_555
Na0 O105 2.517577 1_555
Na0 O63 2.533683 1_545
Na0 O135 2.696824 1_545
Na1 O136 2.579981 1_555
Na1 O134 2.597229 1_555
Na1 O64 2.685102 1_555
Na1 O106 2.753734 1_555
Na1 O0 2.757549 1_555
Na1 O102 2.830366 1_555
Na1 O20 2.835374 1_555
Na2 O103 2.397408 1_555
Na2 O65 2.533198 1_555
Na2 O135 2.627612 1_555
Na2 O107 2.675126 1_555
Na2 O35 2.777322 1_555
Na2 O137 2.847461 1_555
Na3 O31 2.535278 1_555
Na3 O105 2.554822 1_555
Na3 O103 2.592431 1_555
Na3 O132 2.595110 1_655
Na3 O136 2.598218 1_655
Na3 O60 2.936291 1_655
Na4 O133 2.368753 1_555
Na4 O102 2.542582 1_555
Na4 O104 2.730334 1_555
Na4 O30 2.731274 1_555
Na4 O137 2.754244 1_555
Na4 O61 2.819413 1_555
Na4 O2 2.910726 1_555
Na4 O23 3.018178 1_555
Na5 O98 2.431094 1_555
Na5 O100 2.525845 1_555
Na5 O142 2.683266 1_555
Na5 O70 2.724397 1_555
Na5 O28 2.907397 1_555
Na5 O138 2.915029 1_555
Na6 O138 2.415482 1_655
Na6 O25 2.464710 1_555
Na6 O97 2.523825 1_555
Na6 O101 2.706664 1_555
Na6 O140 2.791192 1_655
Na7 O24 2.459607 1_555
Na7 O141 2.576052 1_555
Na7 O100 2.576865 1_555
Na7 O139 2.591287 1_555
Na7 O96 2.647936 1_555
Na8 O96 2.426948 1_555
Na8 O142 2.632444 1_545
Na8 O26 2.644926 1_555
Na8 O98 2.649407 1_555
Na8 O68 2.749164 1_545
Na8 O140 2.812450 1_545
Na9 O143 2.512446 1_545
Na9 O99 2.620105 1_555
Na9 O141 2.648647 1_545
Na9 O97 2.692936 1_555
Na9 O27 2.784911 1_555
Na9 O17 2.859093 1_545
Na9 O69 2.914950 1_545
Na9 O7 3.001446 1_555
Na10 O85 2.439936 1_455
Na10 O130 2.503609 1_555
Na10 O86 2.552838 1_555
Na10 O56 2.806191 1_555
Na10 O128 2.832909 1_555
Na10 O42 2.871159 1_555
Na10 O14 2.928555 1_555
Na11 O131 2.469696 1_555
Na11 O129 2.620207 1_555
Na11 O84 2.621414 1_555
Na11 O87 2.640179 1_555
Na11 O43 2.888585 1_555
Na11 O15 2.902771 1_555
Na11 O57 2.925291 1_555
Na11 O29 2.949981 1_555
Na12 O84 2.585665 1_565
Na12 O88 2.660885 1_555
Na12 O126 2.709698 1_555
Na12 O26 2.749339 1_565
Na12 O12 2.753172 1_555
Na12 O128 2.816317 1_555
Na12 O46 2.872645 1_565
Na12 O54 2.949993 1_555
Na13 O89 2.480402 1_555
Na13 O127 2.603232 1_555
Na13 O85 2.671507 1_565
Na13 O129 2.675660 1_555
Na13 O55 2.834007 1_555
Na13 O13 2.896307 1_555
Na13 O27 2.982521 1_565
Na13 O47 3.059968 1_565
Na14 O122 2.440253 1_555
Na14 O91 2.451434 1_455
Na14 O94 2.547896 1_565
Na14 O124 2.728694 1_555
Na14 O22 2.847947 1_555
Na14 O52 2.852324 1_554
Na14 O36 2.908870 1_565
Na15 O123 2.473111 1_555
Na15 O90 2.589000 1_555
Na15 O53 2.664663 1_554
Na15 O95 2.664842 1_565
Na15 O37 2.771199 1_565
Na15 O125 2.781589 1_555
Na15 O23 2.975719 1_555
Na16 O120 2.546363 1_555
Na16 O90 2.578588 1_555
Na16 O92 2.663189 1_565
Na16 O48 2.745393 1_554
Na16 O124 2.843034 1_555
Na16 O18 2.850434 1_555
Na16 O34 2.897093 1_555
Na16 O38 2.934503 1_555
Na17 O91 2.603652 1_555
Na17 O93 2.648691 1_565
Na17 O19 2.664508 1_555
Na17 O121 2.734338 1_555
Na17 O125 2.796382 1_555
Na17 O35 2.825422 1_555
Na17 O49 2.944460 1_554
Na17 O39 2.953426 1_555
Na18 O8 2.400572 1_555
Na18 O108 2.436628 1_555
Na18 O81 2.573576 1_555
Na18 O82 2.580173 1_555
Na18 O110 2.760618 1_555
Na18 O38 2.761738 1_556
Na19 O39 2.429681 1_556
Na19 O83 2.498717 1_555
Na19 O80 2.521242 1_655
Na19 O109 2.589630 1_555
Na19 O111 2.823787 1_555
Na19 O9 2.919131 1_555
Na20 O10 2.383411 1_555
Na20 O112 2.503542 1_555
Na20 O82 2.519221 1_545
Na20 O110 2.806630 1_555
Na20 O79 2.962788 1_555
Na20 O68 2.986413 1_545
Na20 O40 3.026573 1_556
Na21 O11 2.389258 1_555
Na21 O113 2.437762 1_555
Na21 O83 2.531182 1_545
Na21 O111 2.789048 1_555
Na21 O78 2.906654 1_655
Na21 O69 2.931566 1_545
Na21 O41 3.001875 1_556
Na22 O6 2.445978 1_555
Na22 O112 2.508479 1_555
Na22 O80 2.595545 1_545
Na22 O108 2.624919 1_555
Na22 O78 2.722047 1_555
Na22 O36 2.822359 1_556
Na23 O7 2.403414 1_555
Na23 O81 2.481847 1_545
Na23 O109 2.541252 1_555
Na23 O113 2.584408 1_555
Na23 O79 2.595536 1_555
Na23 O37 2.872998 1_556
Na24 O46 2.371587 1_555
Na24 O77 2.491999 1_555
Na24 O74 2.584068 1_545
Na24 O114 2.700148 1_555
Na24 O118 2.813340 1_555
Na25 O115 2.408375 1_555
Na25 O75 2.517077 1_545
Na25 O76 2.591404 1_655
Na25 O5 2.592484 1_555
Na25 O47 2.598180 1_555
Na25 O119 2.696699 1_555
Na26 O76 2.427081 1_555
Na26 O0 2.554381 1_555
Na26 O72 2.562374 1_545
Na26 O114 2.565721 1_555
Na26 O116 2.599619 1_555
Na26 O42 2.756785 1_555
Na27 O117 2.437939 1_555
Na27 O115 2.562526 1_555
Na27 O43 2.593688 1_555
Na27 O77 2.616256 1_555
Na27 O1 2.734546 1_555
Na27 O73 2.782503 1_545
Na28 O116 2.442892 1_555
Na28 O74 2.498015 1_555
Na28 O2 2.582929 1_555
Na28 O118 2.759016 1_555
Na28 O73 2.809213 1_555
Na28 O44 2.883688 1_555
Na29 O45 2.367013 1_555
Na29 O75 2.499072 1_555
Na29 O117 2.545623 1_555
Na29 O119 2.834247 1_555
Na29 O3 2.860446 1_555
Na29 O72 2.920915 1_655
Na30 O75 2.480374 1_555
Na30 O89 2.601269 1_555
Na30 O85 2.636025 1_565
Na30 O76 2.640337 1_665
Na30 O86 2.650120 1_665
Na30 O72 2.782960 1_655
Na31 O84 2.385683 1_555
Na31 O77 2.455416 1_555
Na31 O87 2.528397 1_555
Na31 O88 2.724433 1_545
Na31 O74 2.773299 1_545
Na31 O73 2.797945 1_545
Na32 O91 2.403208 1_455
Na32 O80 2.452916 1_554
Na32 O94 2.624551 1_565
Na32 O83 2.657832 1_454
Na32 O93 2.704902 1_465
Na32 O78 2.739483 1_564
Na33 O81 2.391621 1_555
Na33 O82 2.438570 1_555
Na33 O90 2.651180 1_556
Na33 O95 2.665687 1_566
Na33 O79 2.689322 1_565
Na33 O92 2.925038 1_566
Na34 O98 2.439727 1_555
Na34 O96 2.464509 1_555
Na34 O100 2.494963 1_555
Na34 O112 2.757351 1_555
Na34 O108 2.773981 1_555
Na35 O99 2.384778 1_555
Na35 O97 2.520640 1_555
Na35 O113 2.597844 1_555
Na35 O109 2.634317 1_555
Na35 O101 2.729486 1_555
Na36 O114 2.430863 1_555
Na36 O116 2.457623 1_555
Na36 O106 2.581037 1_555
Na36 O102 2.779106 1_555
Na36 O104 2.889123 1_555
Na36 O118 2.991366 1_555
Na37 O117 2.535843 1_555
Na37 O107 2.580901 1_555
Na37 O115 2.588232 1_555
Na37 O103 2.632401 1_555
Na37 O105 2.654680 1_555
Na37 O119 2.832397 1_555
Na38 O136 2.416654 1_555
Na38 O122 2.556572 1_555
Na38 O120 2.561954 1_555
Na38 O132 2.636143 1_555
Na38 O134 2.726377 1_555
Na38 O124 2.860308 1_555
Na39 O135 2.482736 1_555
Na39 O133 2.508196 1_555
Na39 O137 2.566274 1_555
Na39 O123 2.568350 1_555
Na39 O121 2.607007 1_555
Na39 O125 2.752591 1_555
Na40 O130 2.507505 1_555
Na40 O142 2.534307 1_555
Na40 O138 2.550486 1_555
Na40 O126 2.576630 1_555
Na40 O140 2.582668 1_555
Na40 O128 2.741758 1_555
Na41 O127 2.537746 1_555
Na41 O131 2.583220 1_555
Na41 O129 2.609649 1_555
Na41 O141 2.610925 1_555
Na41 O139 2.701130 1_555
Na41 O143 2.773877 1_555
O0 Si0 1.638492 1_555
O0 Y0 2.282400 1_555
O1 Si1 1.640499 1_545
O1 Y1 2.177533 1_555
O2 Si2 1.629538 1_555
O2 Y1 2.219203 1_565
O3 Si3 1.634492 1_555
O3 Y0 2.176642 1_665
O4 S0 1.490127 1_555
O4 Y1 2.330676 1_555
O5 Si4 1.633361 1_655
O5 Y0 2.141665 1_655
O6 Si5 1.654604 1_555
O6 Y2 2.179333 1_545
O7 Si6 1.640270 1_555
O7 Y3 2.233733 1_545
O8 Si7 1.639617 1_555
O8 Y3 2.142581 1_555
O9 S1 1.499410 1_555
O9 Y2 2.311781 1_655
O10 Si8 1.643157 1_545
O10 Y3 2.190931 1_545
O11 Si9 1.640573 1_555
O11 Y2 2.201402 1_645
O12 Si8 1.660243 1_555
O12 Zr1 2.074002 1_565
O13 Si9 1.639477 1_565
O13 Zr0 2.079232 1_565
O14 Si5 1.657279 1_555
O14 Zr0 2.065245 1_455
O15 Si6 1.668592 1_555
O15 Zr1 2.013053 1_555
O16 S1 1.479508 1_455
O16 Zr0 2.271996 1_465
O17 Si7 1.658877 1_555
O17 Zr1 2.051106 1_565
O18 Si2 1.646250 1_555
O18 Zr3 2.080611 1_555
O19 Si3 1.672350 1_555
O19 Zr2 2.062511 1_665
O20 Si4 1.667357 1_555
O20 Zr2 2.039123 1_555
O21 S0 1.487302 1_555
O21 Zr3 2.245989 1_545
O22 Si0 1.670496 1_565
O22 Zr2 2.017524 1_565
O23 Si1 1.690937 1_555
O23 Zr3 1.975510 1_555
O24 Si10 1.627317 1_555
O24 Y4 2.178009 1_555
O25 Si11 1.653355 1_555
O25 Zr4 2.107558 1_555
O26 Si12 1.637842 1_555
O26 Y4 2.197068 1_555
O27 Si13 1.681469 1_555
O27 Zr4 2.027422 1_555
O28 S2 1.485977 1_555
O28 Y4 2.381651 1_555
O29 Si14 1.658025 1_555
O29 Zr4 2.030232 1_555
O30 Si15 1.657029 1_555
O30 Zr5 2.087059 1_555
O31 Si16 1.623397 1_555
O31 Y5 2.195466 1_555
O32 S3 1.487653 1_555
O32 Zr5 2.307853 1_555
O33 S4 1.481086 1_555
O33 Y5 2.397076 1_555
O34 Si17 1.685745 1_555
O34 Zr5 2.006870 1_555
O35 Si18 1.632004 1_555
O35 Y5 2.213283 1_555
O36 Si17 1.637081 1_555
O36 Y6 2.158738 1_554
O37 Si18 1.654963 1_555
O37 Y7 2.155002 1_554
O38 Si15 1.627579 1_555
O38 Y6 2.196215 1_554
O39 Si16 1.652994 1_555
O39 Y7 2.222891 1_554
O40 S3 1.482498 1_555
O40 Y6 2.416053 1_554
O41 S4 1.487450 1_555
O41 Y7 2.408802 1_554
O42 Si12 1.654658 1_555
O42 Y8 2.139047 1_555
O43 Si13 1.638340 1_555
O43 Y9 2.185007 1_555
O44 S2 1.487847 1_555
O44 Y8 2.407435 1_555
O45 Si14 1.625705 1_555
O45 Y9 2.233100 1_555
O46 Si10 1.654310 1_555
O46 Y8 2.204033 1_555
O47 Si11 1.626447 1_555
O47 Y9 2.212248 1_555
O48 Si19 1.674490 1_555
O48 Zr6 2.058046 1_556
O49 Si20 1.664312 1_555
O49 Zr7 2.050725 1_556
O50 S5 1.504525 1_555
O50 Zr6 2.166400 1_556
O51 S6 1.502626 1_555
O51 Zr7 2.148011 1_556
O52 Si21 1.678840 1_555
O52 Zr6 2.041972 1_556
O53 Si22 1.668752 1_555
O53 Zr7 2.060407 1_556
O54 Si23 1.657812 1_555
O54 Zr8 2.062524 1_555
O55 Si24 1.663711 1_555
O55 Zr9 2.065175 1_555
O56 Si25 1.663301 1_555
O56 Zr8 2.057127 1_555
O57 Si26 1.664998 1_555
O57 Zr9 2.067693 1_555
O58 S7 1.501189 1_555
O58 Zr8 2.145326 1_555
O59 S8 1.483402 1_555
O59 Zr9 2.314609 1_555
O60 S7 1.486458 1_555
O60 Zr10 2.324258 1_555
O61 S8 1.492437 1_555
O61 Y10 2.394201 1_555
O62 Si23 1.653949 1_555
O62 Zr10 2.024646 1_555
O63 Si24 1.650657 1_555
O63 Y10 2.128215 1_555
O64 Si25 1.662650 1_555
O64 Zr10 2.082649 1_555
O65 Si26 1.643792 1_555
O65 Y10 2.174724 1_555
O66 S5 1.482313 1_555
O66 Y11 2.388610 1_555
O67 S6 1.480392 1_555
O67 Zr11 2.415860 1_555
O68 Si21 1.634711 1_555
O68 Y11 2.181630 1_555
O69 Si22 1.653143 1_555
O69 Zr11 2.087267 1_555
O70 Si19 1.641168 1_555
O70 Y11 2.138455 1_555
O71 Si20 1.646490 1_555
O71 Zr11 2.040906 1_555
O72 S7 1.490741 1_555
O72 Y0 2.480513 1_565
O73 S8 1.502027 1_555
O73 Y1 2.424393 1_565
O74 Si23 1.646228 1_555
O74 Y1 2.279708 1_565
O75 Si24 1.655268 1_555
O75 Y0 2.313419 1_665
O76 Si25 1.642833 1_555
O76 Y0 2.324189 1_555
O77 Si26 1.666502 1_555
O77 Y1 2.275933 1_555
O78 S5 1.493254 1_555
O78 Y2 2.463771 1_545
O79 S6 1.490571 1_555
O79 Y3 2.509397 1_545
O80 Si21 1.658914 1_555
O80 Y2 2.324574 1_555
O81 Si22 1.645580 1_555
O81 Y3 2.337452 1_555
O82 Si19 1.647186 1_555
O82 Y3 2.338834 1_555
O83 Si20 1.650293 1_555
O83 Y2 2.302093 1_655
O84 Si10 1.672558 1_555
O84 Zr1 2.178497 1_555
O85 Si11 1.674545 1_555
O85 Zr0 2.076321 1_555
O86 Si12 1.643793 1_555
O86 Zr0 2.108401 1_455
O87 Si13 1.643886 1_555
O87 Zr1 2.108244 1_555
O88 S2 1.486156 1_555
O88 Zr1 2.464017 1_565
O89 Si14 1.639859 1_555
O89 Zr0 2.095959 1_565
O90 Si15 1.688467 1_555
O90 Zr3 2.073480 1_555
O91 Si16 1.674301 1_555
O91 Zr2 2.207477 1_665
O92 S3 1.488433 1_555
O92 Zr3 2.342518 1_545
O93 S4 1.488724 1_555
O93 Zr2 2.444372 1_655
O94 Si17 1.634835 1_555
O94 Zr2 2.133169 1_555
O95 Si18 1.661942 1_555
O95 Zr3 2.080861 1_545
O96 Si8 1.645700 1_545
O96 Y4 2.226438 1_555
O97 Si9 1.659430 1_555
O97 Zr4 2.179405 1_555
O98 Si5 1.642618 1_555
O98 Y4 2.307385 1_555
O99 Si6 1.648387 1_555
O99 Zr4 2.132917 1_555
O100 Si7 1.629169 1_555
O100 Y4 2.242323 1_555
O101 S1 1.487806 1_555
O101 Zr4 2.384891 1_555
O102 Si2 1.683838 1_555
O102 Zr5 2.039141 1_555
O103 Si3 1.646052 1_555
O103 Y5 2.206740 1_555
O104 S0 1.495914 1_555
O104 Zr5 2.317217 1_555
O105 Si4 1.626008 1_655
O105 Y5 2.231743 1_555
O106 Si0 1.662058 1_555
O106 Zr5 2.082489 1_555
O107 Si1 1.631909 1_545
O107 Y5 2.290756 1_555
O108 Si19 1.651901 1_555
O108 Y6 2.176599 1_555
O109 Si20 1.656204 1_555
O109 Y7 2.225229 1_555
O110 S6 1.493876 1_555
O110 Y6 2.444732 1_555
O111 S5 1.486572 1_655
O111 Y7 2.422244 1_555
O112 Si21 1.655186 1_545
O112 Y6 2.269376 1_555
O113 Si22 1.657342 1_545
O113 Y7 2.291388 1_555
O114 Si23 1.653869 1_545
O114 Y8 2.234799 1_555
O115 Si24 1.647893 1_545
O115 Y9 2.269456 1_555
O116 Si25 1.658905 1_555
O116 Y8 2.306036 1_555
O117 Si26 1.650201 1_555
O117 Y9 2.323861 1_555
O118 S8 1.495804 1_555
O118 Y8 2.417552 1_555
O119 S7 1.484434 1_655
O119 Y9 2.512773 1_555
O120 Si17 1.653214 1_555
O120 Zr6 2.151504 1_555
O121 Si18 1.656175 1_555
O121 Zr7 2.080948 1_555
O122 Si16 1.670606 1_455
O122 Zr6 2.105661 1_555
O123 Si15 1.651752 1_555
O123 Zr7 2.164721 1_555
O124 S3 1.518250 1_565
O124 Zr6 2.299656 1_555
O125 S4 1.521130 1_565
O125 Zr7 2.249044 1_555
O126 Si12 1.657242 1_565
O126 Zr8 2.078123 1_555
O127 Si13 1.642391 1_565
O127 Zr9 2.146286 1_555
O128 S2 1.518224 1_555
O128 Zr8 2.258278 1_555
O129 Si14 1.674008 1_555
O129 Zr9 2.062867 1_555
O130 Si11 1.661764 1_455
O130 Zr8 2.139295 1_555
O131 Si10 1.646601 1_555
O131 Zr9 2.116510 1_555
O132 Si0 1.643486 1_565
O132 Zr10 2.129503 1_555
O133 Si1 1.646363 1_555
O133 Y10 2.289776 1_555
O134 Si2 1.647678 1_555
O134 Zr10 2.061358 1_555
O135 Si3 1.658607 1_555
O135 Y10 2.215144 1_555
O136 Si4 1.658381 1_555
O136 Zr10 2.167343 1_555
O137 S0 1.495257 1_555
O137 Y10 2.549896 1_555
O138 Si5 1.653208 1_555
O138 Y11 2.265468 1_555
O139 Si6 1.646338 1_555
O139 Zr11 2.111447 1_555
O140 S1 1.502680 1_455
O140 Y11 2.470477 1_555
O141 Si7 1.657750 1_555
O141 Zr11 2.147124 1_555
O142 Si8 1.659639 1_555
O142 Y11 2.207335 1_555
O143 Si9 1.661706 1_565
O143 Zr11 2.037778 1_555
