# generated using pymatgen
data_Na2HfTiSi(PO6)2
_symmetry_space_group_name_H-M   'P 1'
_cell_length_a   8.88604661
_cell_length_b   8.87208824
_cell_length_c   22.46261324
_cell_angle_alpha   90.04308123
_cell_angle_beta   89.93020933
_cell_angle_gamma   119.79931336
_symmetry_Int_Tables_number   1
_chemical_formula_structural   Na2HfTiSi(PO6)2
_chemical_formula_sum   'Na12 Hf6 Ti6 Si6 P12 O72'
_cell_volume   1536.73763733
_cell_formula_units_Z   6
loop_
 _symmetry_equiv_pos_site_id
 _symmetry_equiv_pos_as_xyz
  1  'x, y, z'
loop_
 _atom_site_type_symbol
 _atom_site_label
 _atom_site_symmetry_multiplicity
 _atom_site_fract_x
 _atom_site_fract_y
 _atom_site_fract_z
 _atom_site_occupancy
  Na  Na0  1  0.00144088  0.63098574  0.25068954  1
  Na  Na1  1  0.36600483  0.00165834  0.74838617  1
  Na  Na2  1  0.66566570  0.96280669  0.58369955  1
  Na  Na3  1  0.02909632  0.33432628  0.08825398  1
  Na  Na4  1  0.97735252  0.67153355  0.92016369  1
  Na  Na5  1  0.33281785  0.03252556  0.41834469  1
  Na  Na6  1  0.00163400  0.99764119  0.50071039  1
  Na  Na7  1  0.00615005  0.99564755  0.00281337  1
  Na  Na8  1  0.66547430  0.32794924  0.83028106  1
  Na  Na9  1  0.67318193  0.33328213  0.33885534  1
  Na  Na10  1  0.35363560  0.67673267  0.16694550  1
  Na  Na11  1  0.32242539  0.64124755  0.66241483  1
  Hf  Hf0  1  0.99717973  0.00695290  0.85158245  1
  Hf  Hf1  1  0.66396230  0.32864634  0.18993128  1
  Hf  Hf2  1  0.65972897  0.32950606  0.98081941  1
  Hf  Hf3  1  0.33552930  0.67555096  0.02084457  1
  Hf  Hf4  1  0.33135481  0.65913200  0.31391774  1
  Hf  Hf5  1  0.34004439  0.66962275  0.80924602  1
  Ti  Ti0  1  0.99267212  0.00303673  0.35659605  1
  Ti  Ti1  1  0.00322066  0.99689688  0.64530566  1
  Ti  Ti2  1  0.00204066  0.99622384  0.14796120  1
  Ti  Ti3  1  0.67036379  0.33007455  0.68298843  1
  Ti  Ti4  1  0.66966780  0.34196617  0.48252377  1
  Ti  Ti5  1  0.32276077  0.66862966  0.51943862  1
  Si  Si0  1  0.00091514  0.28394012  0.24949591  1
  Si  Si1  1  0.71135062  0.00472662  0.74385187  1
  Si  Si2  1  0.37374070  0.04476714  0.58146860  1
  Si  Si3  1  0.95920876  0.63222580  0.08444208  1
  Si  Si4  1  0.33574625  0.96556858  0.91296370  1
  Si  Si5  1  0.03418516  0.66347074  0.41627232  1
  P  P0  1  0.28257664  0.00258340  0.25373305  1
  P  P1  1  0.71866352  0.72243021  0.25117350  1
  P  P2  1  0.29039614  0.28716419  0.74509851  1
  P  P3  1  0.98985435  0.70392162  0.74808612  1
  P  P4  1  0.95670052  0.33559047  0.58227791  1
  P  P5  1  0.66517156  0.62008070  0.58415377  1
  P  P6  1  0.67180157  0.03975561  0.08543706  1
  P  P7  1  0.36916526  0.32729909  0.08569596  1
  P  P8  1  0.62474643  0.66624668  0.91589957  1
  P  P9  1  0.04467864  0.37642174  0.91809498  1
  P  P10  1  0.62432549  0.95713790  0.41982427  1
  P  P11  1  0.33358107  0.37682301  0.41984656  1
  O  O0  1  0.19680281  0.01624947  0.31146225  1
  O  O1  1  0.83170256  0.80562916  0.30702157  1
  O  O2  1  0.98617863  0.16392419  0.30759920  1
  O  O3  1  0.21102826  0.17312840  0.80157055  1
  O  O4  1  0.97121643  0.78665006  0.80653395  1
  O  O5  1  0.82461717  0.03046629  0.80334665  1
  O  O6  1  0.80993269  0.98371291  0.68550822  1
  O  O7  1  0.17411871  0.19035980  0.69131081  1
  O  O8  1  0.02271647  0.83129810  0.69560554  1
  O  O9  1  0.80881940  0.82788445  0.19481310  1
  O  O10  1  0.01699148  0.19217369  0.18870256  1
  O  O11  1  0.16717869  0.97536602  0.19843768  1
  O  O12  1  0.87124873  0.36308751  0.63854726  1
  O  O13  1  0.50315238  0.13709355  0.63914578  1
  O  O14  1  0.64470193  0.50692510  0.63874279  1
  O  O15  1  0.86420369  0.50574587  0.14209783  1
  O  O16  1  0.64360113  0.12607223  0.14081722  1
  O  O17  1  0.47983808  0.34863318  0.14083276  1
  O  O18  1  0.45667712  0.30352921  0.02996376  1
  O  O19  1  0.84853860  0.54444135  0.02378012  1
  O  O20  1  0.69707191  0.15618645  0.03072003  1
  O  O21  1  0.46970491  0.16282465  0.52274602  1
  O  O22  1  0.69054287  0.53054476  0.52832906  1
  O  O23  1  0.83458961  0.30614096  0.52879378  1
  O  O24  1  0.53624581  0.68300632  0.97188198  1
  O  O25  1  0.14720345  0.45698282  0.97605116  1
  O  O26  1  0.30650006  0.83746045  0.96978069  1
  O  O27  1  0.54105308  0.84686651  0.47643895  1
  O  O28  1  0.31306981  0.47303866  0.47339948  1
  O  O29  1  0.17320246  0.69583773  0.47155819  1
  O  O30  1  0.11959015  0.63387080  0.35582919  1
  O  O31  1  0.50422020  0.86804943  0.36568279  1
  O  O32  1  0.36193844  0.48537862  0.36255286  1
  O  O33  1  0.13883469  0.49318235  0.86417293  1
  O  O34  1  0.35305007  0.87226877  0.85225663  1
  O  O35  1  0.51575030  0.64513903  0.85998442  1
  O  O36  1  0.02881751  0.84513343  0.41237412  1
  O  O37  1  0.80573225  0.97574430  0.41154134  1
  O  O38  1  0.17076158  0.19325088  0.41387819  1
  O  O39  1  0.02148487  0.19410582  0.91218494  1
  O  O40  1  0.15630684  0.97371725  0.91083495  1
  O  O41  1  0.80755881  0.82848896  0.91091185  1
  O  O42  1  0.96825575  0.16763657  0.58701116  1
  O  O43  1  0.18085976  0.02073183  0.58999147  1
  O  O44  1  0.82886299  0.80398015  0.58867585  1
  O  O45  1  0.98369858  0.82551360  0.09266940  1
  O  O46  1  0.83950911  0.03015478  0.09012055  1
  O  O47  1  0.18565460  0.16719529  0.09031887  1
  O  O48  1  0.68535238  0.17615791  0.73896775  1
  O  O49  1  0.47114671  0.30442459  0.73862355  1
  O  O50  1  0.82849226  0.52667084  0.73999695  1
  O  O51  1  0.70111766  0.53940110  0.24649168  1
  O  O52  1  0.82975232  0.30982219  0.24977020  1
  O  O53  1  0.46133839  0.16615225  0.24805162  1
  O  O54  1  0.65270749  0.50777529  0.91961983  1
  O  O55  1  0.86611463  0.36629740  0.92208173  1
  O  O56  1  0.50676355  0.15447507  0.91931553  1
  O  O57  1  0.63851329  0.13790501  0.42460264  1
  O  O58  1  0.49287416  0.35009173  0.42518315  1
  O  O59  1  0.84469542  0.49386146  0.42754855  1
  O  O60  1  0.34680564  0.48876743  0.08029751  1
  O  O61  1  0.14891235  0.64189130  0.08140821  1
  O  O62  1  0.51441705  0.85713763  0.07960655  1
  O  O63  1  0.36376949  0.85325976  0.57480544  1
  O  O64  1  0.50450309  0.64266130  0.57818749  1
  O  O65  1  0.13771501  0.49772848  0.57513194  1
  O  O66  1  0.30103266  0.83700238  0.25582262  1
  O  O67  1  0.53945090  0.70810258  0.25548022  1
  O  O68  1  0.17237870  0.47960581  0.25262637  1
  O  O69  1  0.30274420  0.46519824  0.75066443  1
  O  O70  1  0.15659679  0.68836466  0.75131071  1
  O  O71  1  0.51455795  0.83441492  0.74734581  1
loop_
_geom_bond_atom_site_label_1
_geom_bond_atom_site_label_2
_geom_bond_distance
_geom_bond_site_symmetry_2
Na0 O66 2.367577 1_555
Na0 O51 2.374077 1_455
Na0 O52 2.475131 1_455
Na0 O68 2.478073 1_555
Na0 O30 2.580663 1_555
Na0 O15 2.707052 1_455
Na0 O11 2.900104 1_555
Na0 O1 2.931242 1_455
Na1 O49 2.375385 1_555
Na1 O71 2.427221 1_545
Na1 O70 2.460096 1_545
Na1 O48 2.475228 1_555
Na1 O34 2.578161 1_545
Na1 O13 2.737146 1_555
Na1 O3 2.777337 1_555
Na1 O8 2.901549 1_545
Na2 O63 2.364476 1_555
Na2 O42 2.383576 1_565
Na2 O64 2.467955 1_555
Na2 O44 2.476458 1_555
Na2 O6 2.584156 1_555
Na2 O27 2.638159 1_555
Na2 O13 2.870502 1_565
Na2 O23 2.917104 1_565
Na3 O46 2.367237 1_455
Na3 O61 2.390787 1_555
Na3 O60 2.456429 1_555
Na3 O47 2.487333 1_555
Na3 O10 2.561656 1_555
Na3 O25 2.738698 1_554
Na3 O15 2.851412 1_455
Na3 O20 2.871306 1_455
Na4 O40 2.350107 1_655
Na4 O55 2.377417 1_555
Na4 O54 2.503472 1_555
Na4 O41 2.519571 1_555
Na4 O19 2.591041 1_556
Na4 O4 2.760532 1_555
Na4 O26 2.773052 1_655
Na4 O33 2.897252 1_655
Na5 O36 2.369829 1_545
Na5 O57 2.397769 1_555
Na5 O58 2.449820 1_555
Na5 O38 2.481676 1_555
Na5 O21 2.630750 1_555
Na5 O0 2.660612 1_555
Na5 O31 2.837356 1_545
Na5 O29 2.855448 1_545
Na6 O36 2.479128 1_555
Na6 O43 2.506636 1_565
Na6 O38 2.545671 1_565
Na6 O42 2.561141 1_465
Na6 O44 2.566972 1_455
Na6 O37 2.598416 1_455
Na7 O45 2.469100 1_455
Na7 O47 2.512870 1_565
Na7 O40 2.517458 1_554
Na7 O46 2.564205 1_465
Na7 O41 2.641617 1_454
Na7 O39 2.651282 1_564
Na8 O56 2.489556 1_555
Na8 O48 2.506666 1_555
Na8 O54 2.599996 1_555
Na8 O50 2.603738 1_555
Na8 O49 2.629476 1_555
Na8 O55 2.636601 1_555
Na9 O59 2.483283 1_555
Na9 O52 2.502752 1_555
Na9 O57 2.506451 1_555
Na9 O58 2.564986 1_555
Na9 O53 2.670786 1_555
Na9 O51 2.695096 1_555
Na10 O62 2.485350 1_555
Na10 O67 2.511817 1_555
Na10 O60 2.543181 1_555
Na10 O61 2.558400 1_555
Na10 O68 2.560235 1_555
Na10 O66 2.622996 1_555
Na11 O65 2.467009 1_555
Na11 O69 2.476304 1_555
Na11 O64 2.483922 1_555
Na11 O71 2.566396 1_555
Na11 O63 2.619699 1_555
Na11 O70 2.633875 1_555
Hf0 O5 1.972597 1_555
Hf0 O3 2.063823 1_655
Hf0 O40 2.068197 1_645
Hf0 O39 2.073087 1_655
Hf0 O4 2.108751 1_545
Hf0 O41 2.113815 1_545
Hf1 O15 2.002109 1_555
Hf1 O16 2.038205 1_555
Hf1 O17 2.053726 1_555
Hf1 O52 2.062688 1_555
Hf1 O53 2.107563 1_555
Hf1 O51 2.145529 1_555
Hf2 O56 2.017693 1_555
Hf2 O18 2.027202 1_556
Hf2 O19 2.050304 1_556
Hf2 O20 2.059545 1_556
Hf2 O54 2.120562 1_555
Hf2 O55 2.147209 1_555
Hf3 O26 1.953758 1_554
Hf3 O61 2.047618 1_555
Hf3 O24 2.067175 1_554
Hf3 O62 2.078732 1_555
Hf3 O25 2.085420 1_554
Hf3 O60 2.169883 1_555
Hf4 O30 2.013542 1_555
Hf4 O32 2.015788 1_555
Hf4 O68 2.047702 1_555
Hf4 O31 2.078081 1_555
Hf4 O67 2.127821 1_555
Hf4 O66 2.166209 1_555
Hf5 O34 1.992568 1_555
Hf5 O35 2.031181 1_555
Hf5 O71 2.054268 1_555
Hf5 O33 2.094085 1_555
Hf5 O69 2.128574 1_555
Hf5 O70 2.157184 1_555
O0 P0 1.538311 1_555
O0 Ti0 2.028847 1_455
O1 P1 1.546709 1_555
O1 Ti0 1.965824 1_565
O2 Si0 1.648465 1_655
O2 Ti0 1.826614 1_555
O3 P2 1.555849 1_555
O4 P3 1.551990 1_555
O5 Si1 1.620349 1_555
O6 Si1 1.636719 1_565
O6 Ti1 1.891010 1_655
O7 P2 1.544173 1_555
O7 Ti1 1.931474 1_545
O8 P3 1.557319 1_455
O8 Ti1 1.929024 1_555
O9 P1 1.540857 1_555
O9 Ti2 1.932714 1_655
O10 Si0 1.631416 1_555
O10 Ti2 1.909407 1_545
O11 P0 1.552134 1_565
O11 Ti2 1.935827 1_555
O12 P4 1.554026 1_555
O12 Ti3 1.935263 1_555
O13 Si2 1.654598 1_555
O13 Ti3 1.892498 1_555
O14 P5 1.537647 1_555
O14 Ti3 1.964730 1_555
O15 Si3 1.645336 1_555
O16 P6 1.544441 1_555
O17 P7 1.534442 1_555
O18 P7 1.541639 1_555
O19 Si3 1.634272 1_555
O20 P6 1.548813 1_555
O21 Si2 1.635776 1_555
O21 Ti4 1.921190 1_555
O22 P5 1.558880 1_555
O22 Ti4 1.892533 1_555
O23 P4 1.552396 1_555
O23 Ti4 1.948369 1_555
O24 P8 1.528213 1_555
O25 P9 1.545944 1_555
O26 Si4 1.641947 1_555
O27 P10 1.549834 1_555
O27 Ti5 2.035967 1_555
O28 P11 1.536729 1_555
O28 Ti5 1.984228 1_555
O29 Si5 1.673712 1_555
O29 Ti5 1.817673 1_555
O30 Si5 1.638089 1_555
O31 P10 1.551160 1_555
O32 P11 1.551524 1_555
O33 P9 1.542133 1_555
O34 Si4 1.640929 1_555
O35 P8 1.540460 1_555
O36 Si5 1.638364 1_555
O36 Ti0 2.021494 1_465
O37 P10 1.547645 1_555
O37 Ti0 1.984193 1_565
O38 P11 1.556242 1_555
O38 Ti0 2.086914 1_455
O39 P9 1.531299 1_555
O40 Si4 1.632401 1_555
O41 P8 1.548908 1_555
O42 P4 1.547446 1_555
O42 Ti1 2.139539 1_645
O43 Si2 1.629644 1_555
O43 Ti1 1.934958 1_545
O44 P5 1.558655 1_555
O44 Ti1 2.076992 1_655
O45 Si3 1.628183 1_555
O45 Ti2 1.901398 1_655
O46 P6 1.538100 1_555
O46 Ti2 2.074096 1_645
O47 P7 1.544399 1_555
O47 Ti2 2.043877 1_545
O48 Si1 1.651744 1_555
O48 Ti3 1.909823 1_555
O49 P2 1.542513 1_555
O49 Ti3 2.083743 1_555
O50 P3 1.523496 1_555
O50 Ti3 2.054650 1_555
O51 P1 1.555763 1_555
O52 Si0 1.647179 1_655
O53 P0 1.534316 1_555
O54 P8 1.546904 1_555
O55 P9 1.546544 1_655
O56 Si4 1.614741 1_545
O57 P10 1.548657 1_545
O57 Ti4 2.132204 1_555
O58 P11 1.551880 1_555
O58 Ti4 2.061519 1_555
O59 Si5 1.626319 1_655
O59 Ti4 1.916924 1_555
O60 P7 1.545846 1_555
O61 Si3 1.646112 1_455
O62 P6 1.531691 1_565
O63 Si2 1.663464 1_565
O63 Ti5 1.941008 1_555
O64 P5 1.543126 1_555
O64 Ti5 2.185901 1_555
O65 P4 1.543461 1_455
O65 Ti5 2.021791 1_555
O66 P0 1.557816 1_565
O67 P1 1.536225 1_555
O68 Si0 1.646554 1_555
O69 P2 1.532994 1_555
O70 P3 1.556668 1_455
O71 Si1 1.649509 1_565
