# generated using pymatgen
data_MgFe6(OF)6
_symmetry_space_group_name_H-M   'P 1'
_cell_length_a   5.48768299
_cell_length_b   5.22326219
_cell_length_c   8.67323130
_cell_angle_alpha   87.45201193
_cell_angle_beta   89.56220639
_cell_angle_gamma   90.07404587
_symmetry_Int_Tables_number   1
_chemical_formula_structural   MgFe6(OF)6
_chemical_formula_sum   'Mg1 Fe6 O6 F6'
_cell_volume   248.35272497
_cell_formula_units_Z   1
loop_
 _symmetry_equiv_pos_site_id
 _symmetry_equiv_pos_as_xyz
  1  'x, y, z'
loop_
 _atom_site_type_symbol
 _atom_site_label
 _atom_site_symmetry_multiplicity
 _atom_site_fract_x
 _atom_site_fract_y
 _atom_site_fract_z
 _atom_site_occupancy
  Mg  Mg0  1  0.96129600  0.53159400  0.65133800  1
  Fe  Fe0  1  0.90650000  0.91843200  0.99865800  1
  Fe  Fe1  1  0.06565300  0.05666400  0.32783000  1
  Fe  Fe2  1  0.16804800  0.03301100  0.67648100  1
  Fe  Fe3  1  0.41778100  0.56773300  0.84540300  1
  Fe  Fe4  1  0.57615200  0.39964300  0.16410000  1
  Fe  Fe5  1  0.42176400  0.54522100  0.47529200  1
  O  O0  1  0.13037800  0.80831100  0.49957100  1
  O  O1  1  0.11539000  0.75305400  0.84054700  1
  O  O2  1  0.30799800  0.37037700  0.67419600  1
  O  O3  1  0.34201600  0.27539400  0.31537100  1
  O  O4  1  0.64334500  0.67493600  0.99926900  1
  O  O5  1  0.83846600  0.16118500  0.15990900  1
  F  F0  1  0.14081000  0.79887000  0.16213700  1
  F  F1  1  0.36686000  0.27088700  0.99172000  1
  F  F2  1  0.64995800  0.71077200  0.67403100  1
  F  F3  1  0.65928300  0.66697300  0.31277000  1
  F  F4  1  0.87184800  0.19807000  0.82474600  1
  F  F5  1  0.88867400  0.27276700  0.49234600  1
loop_
_geom_bond_atom_site_label_1
_geom_bond_atom_site_label_2
_geom_bond_distance
_geom_bond_site_symmetry_2
Mg0 O2 2.088855 1_655
Mg0 O0 2.119293 1_655
Mg0 O1 2.221180 1_655
Fe0 O4 1.922916 1_555
Fe0 O5 1.963167 1_566
Fe0 O1 2.006151 1_655
Fe1 O3 1.897114 1_555
Fe1 O0 1.965999 1_545
Fe1 O5 1.983016 1_455
Fe2 O2 1.920562 1_555
Fe2 O0 1.984664 1_545
Fe2 O1 2.013526 1_545
Fe3 O1 1.921991 1_555
Fe3 O4 1.927842 1_555
Fe3 O2 1.943896 1_555
Fe4 O5 1.905957 1_555
Fe4 O3 1.920885 1_555
Fe4 O4 2.013754 1_554
Fe5 O2 2.010447 1_555
Fe5 O3 2.069593 1_555
Fe5 O0 2.125067 1_555
F0 Fe0 2.001239 1_454
F0 Fe1 2.052536 1_565
F1 Fe3 1.977657 1_555
F1 Fe4 2.029865 1_556
F2 Mg0 1.961903 1_555
F2 Fe3 2.064138 1_555
F2 Fe5 2.334474 1_555
F3 Fe5 1.995088 1_555
F3 Fe4 1.996991 1_555
F4 Fe0 2.062522 1_545
F4 Fe2 2.260371 1_655
F4 Mg0 2.300302 1_555
F5 Mg0 2.015154 1_555
F5 Fe1 2.092416 1_655
F5 Fe2 2.516710 1_655
