# generated using pymatgen
data_Na10Y4Ti4Si7S5O48
_symmetry_space_group_name_H-M   'P 1'
_cell_length_a   18.39001756
_cell_length_b   9.22105912
_cell_length_c   22.73331977
_cell_angle_alpha   90.05196870
_cell_angle_beta   87.67735993
_cell_angle_gamma   119.88466249
_symmetry_Int_Tables_number   1
_chemical_formula_structural   Na10Y4Ti4Si7S5O48
_chemical_formula_sum   'Na30 Y12 Ti12 Si21 S15 O144'
_cell_volume   3338.83869415
_cell_formula_units_Z   3
loop_
 _symmetry_equiv_pos_site_id
 _symmetry_equiv_pos_as_xyz
  1  'x, y, z'
loop_
 _atom_site_type_symbol
 _atom_site_label
 _atom_site_symmetry_multiplicity
 _atom_site_fract_x
 _atom_site_fract_y
 _atom_site_fract_z
 _atom_site_occupancy
  Na  Na0  1  0.18447603  0.36735378  0.24018393  1
  Na  Na1  1  0.68508859  0.36888354  0.24081997  1
  Na  Na2  1  0.99233321  0.63821704  0.25454448  1
  Na  Na3  1  0.49385732  0.63838474  0.25398648  1
  Na  Na4  1  0.49255443  0.34325992  0.75969987  1
  Na  Na5  1  0.18458666  0.00288234  0.74322468  1
  Na  Na6  1  0.68166036  0.00233952  0.74333383  1
  Na  Na7  1  0.65699515  0.34206344  0.58153464  1
  Na  Na8  1  0.01578920  0.70048064  0.57706402  1
  Na  Na9  1  0.82690481  0.96725365  0.59031872  1
  Na  Na10  1  0.49135656  0.67587249  0.91681587  1
  Na  Na11  1  0.99263228  0.67576535  0.91542625  1
  Na  Na12  1  0.84961197  0.03495158  0.91051818  1
  Na  Na13  1  0.15593173  0.30383987  0.92324520  1
  Na  Na14  1  0.49107962  0.30867919  0.41472978  1
  Na  Na15  1  0.98598372  0.30056299  0.41462024  1
  Na  Na16  1  0.34596617  0.66215880  0.40871832  1
  Na  Na17  1  0.84887341  0.66706238  0.41022353  1
  Na  Na18  1  0.02606851  0.01458780  0.50065707  1
  Na  Na19  1  0.51799056  0.98772277  0.49977468  1
  Na  Na20  1  0.01173236  0.01419841  0.00556225  1
  Na  Na21  1  0.51553300  0.04218418  0.99968021  1
  Na  Na22  1  0.34347221  0.33361447  0.83446787  1
  Na  Na23  1  0.84831932  0.34524546  0.82885430  1
  Na  Na24  1  0.33760785  0.32418764  0.33040142  1
  Na  Na25  1  0.83626154  0.32173636  0.33477668  1
  Na  Na26  1  0.17908141  0.66349180  0.16383901  1
  Na  Na27  1  0.67902288  0.66515903  0.16442993  1
  Na  Na28  1  0.17810017  0.67486840  0.67245268  1
  Na  Na29  1  0.67669346  0.68298302  0.66845915  1
  Y  Y0  1  0.00132269  0.99482887  0.35131367  1
  Y  Y1  1  0.50192675  0.99791831  0.35050082  1
  Y  Y2  1  0.99844794  0.00291365  0.84790501  1
  Y  Y3  1  0.49422670  0.00375351  0.85502380  1
  Y  Y4  1  0.33416905  0.33320859  0.68413403  1
  Y  Y5  1  0.83678116  0.33667425  0.68691886  1
  Y  Y6  1  0.33548792  0.33932000  0.18163835  1
  Y  Y7  1  0.83548657  0.33815634  0.18231314  1
  Y  Y8  1  0.16152108  0.65360300  0.02019411  1
  Y  Y9  1  0.66010418  0.65010513  0.02189961  1
  Y  Y10  1  0.16674555  0.67505988  0.51908889  1
  Y  Y11  1  0.65922950  0.67263504  0.51911846  1
  Ti  Ti0  1  0.99252626  0.96576066  0.64967643  1
  Ti  Ti1  1  0.49540800  0.96703107  0.65049281  1
  Ti  Ti2  1  0.99638816  0.02384109  0.14926940  1
  Ti  Ti3  1  0.49607183  0.02108440  0.14909323  1
  Ti  Ti4  1  0.32253599  0.30263330  0.97721862  1
  Ti  Ti5  1  0.81959910  0.31500524  0.97668399  1
  Ti  Ti6  1  0.32069000  0.32774066  0.47623258  1
  Ti  Ti7  1  0.82372043  0.35440039  0.47965509  1
  Ti  Ti8  1  0.16017289  0.62985723  0.31267607  1
  Ti  Ti9  1  0.65956956  0.63155151  0.31344044  1
  Ti  Ti10  1  0.15816137  0.68870233  0.81189653  1
  Ti  Ti11  1  0.65970063  0.69100785  0.81317379  1
  Si  Si0  1  0.35016085  0.71463137  0.25161248  1
  Si  Si1  1  0.85047416  0.71512731  0.25147009  1
  Si  Si2  1  0.00020571  0.30035483  0.25427026  1
  Si  Si3  1  0.50054915  0.30120026  0.25375079  1
  Si  Si4  1  0.00084842  0.69844625  0.75407433  1
  Si  Si5  1  0.50039623  0.69955472  0.75522660  1
  Si  Si6  1  0.34988745  0.98587003  0.74903033  1
  Si  Si7  1  0.84660398  0.98216162  0.75317392  1
  Si  Si8  1  0.18107828  0.04383242  0.58836093  1
  Si  Si9  1  0.68389259  0.04958777  0.58770126  1
  Si  Si10  1  0.83413064  0.63534788  0.58272714  1
  Si  Si11  1  0.18115918  0.31846056  0.08761679  1
  Si  Si12  1  0.68010386  0.31736499  0.08943473  1
  Si  Si13  1  0.01700583  0.37901616  0.91674247  1
  Si  Si14  1  0.51483206  0.37879550  0.91738346  1
  Si  Si15  1  0.16743754  0.96491430  0.91671512  1
  Si  Si16  1  0.66682588  0.96505851  0.91904482  1
  Si  Si17  1  0.16622916  0.36773315  0.41785312  1
  Si  Si18  1  0.66633690  0.36710228  0.42046045  1
  Si  Si19  1  0.01570289  0.65302220  0.41926323  1
  Si  Si20  1  0.51299708  0.65321212  0.41580335  1
  S  S0  1  0.14505029  0.98554806  0.24541751  1
  S  S1  1  0.64506327  0.98537164  0.24523501  1
  S  S2  1  0.14434199  0.30618323  0.74756296  1
  S  S3  1  0.64143826  0.29713884  0.74538045  1
  S  S4  1  0.47882019  0.31211866  0.58035241  1
  S  S5  1  0.97975678  0.31779065  0.57848479  1
  S  S6  1  0.34116119  0.63692388  0.57926585  1
  S  S7  1  0.48026846  0.65131033  0.08190703  1
  S  S8  1  0.97976200  0.64799205  0.08073266  1
  S  S9  1  0.33995438  0.04365451  0.08108320  1
  S  S10  1  0.84031519  0.04371910  0.07990730  1
  S  S11  1  0.30935004  0.64632209  0.91647983  1
  S  S12  1  0.81114486  0.64964350  0.91720418  1
  S  S13  1  0.31194435  0.97494396  0.41519176  1
  S  S14  1  0.81013578  0.96841134  0.41560369  1
  O  O0  1  0.11158499  0.01618137  0.30170267  1
  O  O1  1  0.61177539  0.01610077  0.30151239  1
  O  O2  1  0.40222693  0.77647479  0.31035768  1
  O  O3  1  0.90371316  0.77525929  0.30975858  1
  O  O4  1  0.49127436  0.20552927  0.31431970  1
  O  O5  1  0.99227732  0.20440839  0.31439894  1
  O  O6  1  0.11192671  0.21809720  0.80576762  1
  O  O7  1  0.60188363  0.19495464  0.79931540  1
  O  O8  1  0.49272373  0.78256940  0.81429875  1
  O  O9  1  0.99720026  0.78365575  0.81417604  1
  O  O10  1  0.41268217  0.04258959  0.80158125  1
  O  O11  1  0.89368410  0.00784181  0.81319053  1
  O  O12  1  0.40681451  0.96795294  0.69064949  1
  O  O13  1  0.90498076  0.97231552  0.69457538  1
  O  O14  1  0.09149971  0.20500648  0.70015598  1
  O  O15  1  0.59236161  0.20775598  0.69301389  1
  O  O16  1  0.01040987  0.82359774  0.69499819  1
  O  O17  1  0.51117054  0.82630802  0.69602082  1
  O  O18  1  0.40898417  0.84645029  0.19582471  1
  O  O19  1  0.90950299  0.84791835  0.19566968  1
  O  O20  1  0.01268320  0.19741289  0.19623030  1
  O  O21  1  0.51181595  0.19513729  0.19624038  1
  O  O22  1  0.09202297  0.97595760  0.19686938  1
  O  O23  1  0.59167055  0.97526792  0.19688558  1
  O  O24  1  0.43872523  0.32691503  0.63594593  1
  O  O25  1  0.93829147  0.33959478  0.63176950  1
  O  O26  1  0.23058899  0.12290134  0.64621901  1
  O  O27  1  0.73269928  0.12113074  0.64679505  1
  O  O28  1  0.32970889  0.53577940  0.63191106  1
  O  O29  1  0.81858585  0.50807873  0.63476038  1
  O  O30  1  0.44106615  0.55534760  0.13811550  1
  O  O31  1  0.93994527  0.55357668  0.13684812  1
  O  O32  1  0.32871415  0.11826757  0.13503227  1
  O  O33  1  0.82978801  0.12309426  0.13267457  1
  O  O34  1  0.22679144  0.32671625  0.14693106  1
  O  O35  1  0.72601821  0.32422687  0.14817213  1
  O  O36  1  0.23918824  0.30100562  0.02912938  1
  O  O37  1  0.74090427  0.30414270  0.03103167  1
  O  O38  1  0.43395718  0.55586767  0.03105218  1
  O  O39  1  0.93324351  0.55256605  0.02952188  1
  O  O40  1  0.34793817  0.14894730  0.02829129  1
  O  O41  1  0.84819424  0.14304730  0.02548201  1
  O  O42  1  0.24184299  0.17494383  0.52949514  1
  O  O43  1  0.74133475  0.19028917  0.53109143  1
  O  O44  1  0.34750290  0.55121037  0.52460486  1
  O  O45  1  0.84754358  0.54645958  0.51986594  1
  O  O46  1  0.43385131  0.31547989  0.52872050  1
  O  O47  1  0.93321922  0.31023378  0.52571350  1
  O  O48  1  0.27325859  0.66687619  0.97224520  1
  O  O49  1  0.77393298  0.67272752  0.97179574  1
  O  O50  1  0.07969692  0.44947449  0.96962693  1
  O  O51  1  0.56980938  0.46718374  0.97205458  1
  O  O52  1  0.15162669  0.84179080  0.97025322  1
  O  O53  1  0.66624709  0.85496758  0.97225574  1
  O  O54  1  0.27514456  0.88027906  0.47058055  1
  O  O55  1  0.77527739  0.87827700  0.47250227  1
  O  O56  1  0.16315506  0.47372670  0.47141404  1
  O  O57  1  0.66045194  0.45752861  0.47860412  1
  O  O58  1  0.06418246  0.67637457  0.47873140  1
  O  O59  1  0.56739803  0.68161713  0.47136601  1
  O  O60  1  0.07291059  0.63383280  0.36127931  1
  O  O61  1  0.56583090  0.62988646  0.35614778  1
  O  O62  1  0.26273322  0.89165284  0.36424095  1
  O  O63  1  0.75947200  0.87494367  0.36611021  1
  O  O64  1  0.18161392  0.48560170  0.35573254  1
  O  O65  1  0.67712068  0.49011093  0.36022885  1
  O  O66  1  0.07070259  0.51597596  0.85951820  1
  O  O67  1  0.56602845  0.50823641  0.85699591  1
  O  O68  1  0.17773374  0.87633675  0.85386866  1
  O  O69  1  0.68193536  0.87628239  0.85638938  1
  O  O70  1  0.26101916  0.63722197  0.86566180  1
  O  O71  1  0.76314418  0.63396801  0.86536773  1
  O  O72  1  0.99404461  0.80220522  0.41322024  1
  O  O73  1  0.48893639  0.79962953  0.41149846  1
  O  O74  1  0.39795278  0.99856846  0.41104057  1
  O  O75  1  0.89612695  0.98718438  0.41115665  1
  O  O76  1  0.08456246  0.18582517  0.41585379  1
  O  O77  1  0.58448869  0.18485279  0.41586088  1
  O  O78  1  0.99666858  0.18708981  0.90981522  1
  O  O79  1  0.49496812  0.18942333  0.91323910  1
  O  O80  1  0.09228983  0.00927433  0.91377753  1
  O  O81  1  0.58488316  0.98295072  0.91593048  1
  O  O82  1  0.39754864  0.78398813  0.91278828  1
  O  O83  1  0.89856158  0.79670946  0.91289666  1
  O  O84  1  0.48532783  0.15787608  0.58162310  1
  O  O85  1  0.98195719  0.15992527  0.58309588  1
  O  O86  1  0.08746485  0.03197720  0.59166882  1
  O  O87  1  0.59051092  0.04114529  0.59157986  1
  O  O88  1  0.42222062  0.80068320  0.58267313  1
  O  O89  1  0.92470980  0.81546975  0.58989796  1
  O  O90  1  0.48233872  0.81361052  0.08440438  1
  O  O91  1  0.98242660  0.81086520  0.08262852  1
  O  O92  1  0.42066553  0.03992781  0.08396337  1
  O  O93  1  0.92122435  0.03961545  0.08395734  1
  O  O94  1  0.08631162  0.14265826  0.09246335  1
  O  O95  1  0.58587895  0.14217564  0.09262770  1
  O  O96  1  0.33119977  0.14080690  0.74136593  1
  O  O97  1  0.82435929  0.13037461  0.74585484  1
  O  O98  1  0.23038738  0.32703878  0.74210292  1
  O  O99  1  0.72699999  0.32150947  0.74271164  1
  O  O100  1  0.42882153  0.50712721  0.74736180  1
  O  O101  1  0.92467897  0.51258026  0.74886944  1
  O  O102  1  0.33157484  0.52256059  0.24293171  1
  O  O103  1  0.83246897  0.52396923  0.24200967  1
  O  O104  1  0.42802543  0.34907122  0.24651046  1
  O  O105  1  0.92786524  0.34837785  0.24715044  1
  O  O106  1  0.23219473  0.12766337  0.24014575  1
  O  O107  1  0.73225112  0.12695763  0.23991901  1
  O  O108  1  0.31092176  0.48290381  0.91952139  1
  O  O109  1  0.82132652  0.49669866  0.92254807  1
  O  O110  1  0.42260908  0.38003044  0.92673129  1
  O  O111  1  0.92525498  0.37527269  0.92693396  1
  O  O112  1  0.25723942  0.15012928  0.92356146  1
  O  O113  1  0.75761980  0.15278933  0.92371524  1
  O  O114  1  0.32141748  0.14673247  0.42010781  1
  O  O115  1  0.82071248  0.13892703  0.41778957  1
  O  O116  1  0.25664004  0.36176000  0.42305394  1
  O  O117  1  0.75800371  0.36753095  0.42009335  1
  O  O118  1  0.42110882  0.46983726  0.42417606  1
  O  O119  1  0.92385395  0.47024661  0.42272716  1
  O  O120  1  0.16922150  0.47983859  0.08270057  1
  O  O121  1  0.66911771  0.47903139  0.08451829  1
  O  O122  1  0.06588403  0.67256852  0.08027069  1
  O  O123  1  0.56722835  0.67856766  0.08169749  1
  O  O124  1  0.26874622  0.87273456  0.07693438  1
  O  O125  1  0.76950379  0.87114991  0.07786933  1
  O  O126  1  0.16227970  0.85246909  0.58217516  1
  O  O127  1  0.67629229  0.86933444  0.57947751  1
  O  O128  1  0.27025639  0.66881939  0.57717792  1
  O  O129  1  0.75776956  0.67379092  0.57986983  1
  O  O130  1  0.06567108  0.46618708  0.57740512  1
  O  O131  1  0.56629771  0.45886992  0.58092931  1
  O  O132  1  0.14453142  0.82403171  0.24920741  1
  O  O133  1  0.64499822  0.82424423  0.24881213  1
  O  O134  1  0.25645969  0.70369442  0.25894256  1
  O  O135  1  0.75647690  0.70216713  0.25940415  1
  O  O136  1  0.09344603  0.48292604  0.25449833  1
  O  O137  1  0.59418234  0.48221060  0.25412559  1
  O  O138  1  0.15088797  0.47237210  0.74907102  1
  O  O139  1  0.64267980  0.45873326  0.74815671  1
  O  O140  1  0.09503361  0.70697182  0.75186819  1
  O  O141  1  0.59439776  0.70657834  0.75336550  1
  O  O142  1  0.25812877  0.81172010  0.75799583  1
  O  O143  1  0.75432861  0.80040913  0.75820375  1
loop_
_geom_bond_atom_site_label_1
_geom_bond_atom_site_label_2
_geom_bond_distance
_geom_bond_site_symmetry_2
Na0 O34 2.322840 1_555
Na0 O102 2.350637 1_555
Na0 O136 2.403549 1_555
Na0 O134 2.739548 1_555
Na0 O106 2.754595 1_555
Na1 O35 2.313215 1_555
Na1 O103 2.352688 1_555
Na1 O137 2.382782 1_555
Na1 O135 2.714552 1_555
Na1 O107 2.766902 1_555
Na2 O105 2.331214 1_555
Na2 O132 2.445069 1_655
Na2 O103 2.610574 1_555
Na2 O3 2.777044 1_555
Na2 O31 2.855197 1_555
Na2 O136 2.856799 1_655
Na2 O60 2.904535 1_655
Na2 O22 2.983642 1_655
Na3 O104 2.325719 1_555
Na3 O133 2.429711 1_555
Na3 O102 2.644689 1_555
Na3 O61 2.739478 1_555
Na3 O30 2.816079 1_555
Na3 O2 2.839604 1_555
Na3 O137 2.850608 1_555
Na3 O23 2.969897 1_555
Na4 O100 2.351132 1_555
Na4 O139 2.416002 1_555
Na4 O10 2.565936 1_555
Na4 O96 2.653754 1_555
Na4 O67 2.687019 1_555
Na5 O96 2.337226 1_555
Na5 O140 2.385971 1_545
Na5 O26 2.392463 1_555
Na5 O98 2.670984 1_555
Na5 O142 2.731771 1_545
Na5 O68 2.745423 1_545
Na6 O97 2.282195 1_555
Na6 O141 2.382275 1_545
Na6 O27 2.389596 1_555
Na6 O99 2.628861 1_555
Na6 O143 2.807964 1_545
Na7 O131 2.394657 1_555
Na7 O87 2.417481 1_555
Na7 O57 2.556960 1_555
Na7 O129 2.671729 1_555
Na7 O84 2.739964 1_555
Na7 O15 2.768365 1_555
Na7 O43 2.774042 1_555
Na7 O29 2.897089 1_555
Na8 O126 2.344738 1_555
Na8 O89 2.396766 1_455
Na8 O58 2.423539 1_555
Na8 O86 2.685129 1_565
Na9 O129 2.364398 1_555
Na9 O127 2.471920 1_555
Na9 O85 2.495655 1_565
Na9 O89 2.775116 1_555
Na9 O13 2.808909 1_555
Na9 O55 2.859030 1_555
Na10 O110 2.373225 1_555
Na10 O82 2.388549 1_555
Na10 O81 2.473989 1_555
Na10 O8 2.524847 1_555
Na10 O38 2.775252 1_556
Na10 O67 2.843348 1_555
Na10 O108 2.877558 1_555
Na11 O111 2.415602 1_555
Na11 O83 2.484065 1_555
Na11 O9 2.489996 1_555
Na11 O80 2.682516 1_665
Na11 O109 2.729955 1_555
Na11 O39 2.783949 1_556
Na11 O66 2.793633 1_655
Na11 O52 2.877107 1_655
Na12 O78 2.344744 1_555
Na12 O11 2.381268 1_555
Na12 O113 2.433668 1_555
Na12 O111 2.758982 1_555
Na12 O83 2.759385 1_545
Na12 O41 2.800051 1_556
Na12 O69 2.995287 1_545
Na13 O80 2.375994 1_555
Na13 O108 2.479596 1_555
Na13 O50 2.575736 1_555
Na13 O78 2.600032 1_455
Na13 O6 2.818892 1_555
Na13 O112 2.848243 1_555
Na13 O36 2.911658 1_556
Na13 O70 2.963236 1_555
Na14 O118 2.406816 1_555
Na14 O4 2.472652 1_555
Na14 O77 2.492669 1_555
Na14 O74 2.499617 1_545
Na14 O114 2.703014 1_555
Na14 O46 2.769702 1_555
Na14 O61 2.870081 1_555
Na15 O119 2.356162 1_555
Na15 O5 2.463270 1_555
Na15 O76 2.514387 1_655
Na15 O75 2.517697 1_545
Na15 O115 2.632962 1_555
Na15 O47 2.686065 1_555
Na15 O60 2.902417 1_655
Na16 O73 2.283806 1_555
Na16 O116 2.429279 1_555
Na16 O2 2.431368 1_555
Na16 O74 2.754631 1_555
Na16 O118 2.767780 1_555
Na16 O44 2.833321 1_555
Na16 O64 2.936772 1_555
Na17 O72 2.320383 1_555
Na17 O117 2.417190 1_555
Na17 O3 2.458343 1_555
Na17 O75 2.629502 1_555
Na17 O45 2.724528 1_555
Na17 O119 2.793257 1_555
Na17 O65 3.013690 1_555
Na18 O76 2.347728 1_555
Na18 O86 2.364238 1_555
Na18 O85 2.630962 1_455
Na18 O72 2.659267 1_445
Na18 O89 2.692804 1_445
Na19 O87 2.438456 1_565
Na19 O77 2.457807 1_565
Na19 O88 2.517523 1_555
Na19 O73 2.545212 1_555
Na19 O84 2.669826 1_565
Na20 O94 2.404871 1_555
Na20 O91 2.407855 1_445
Na20 O93 2.479722 1_455
Na20 O80 2.523263 1_554
Na20 O78 2.802038 1_454
Na20 O83 2.996593 1_444
Na21 O95 2.453138 1_556
Na21 O81 2.458696 1_545
Na21 O92 2.531455 1_556
Na21 O79 2.534704 1_555
Na21 O90 2.674817 1_546
Na22 O100 2.489180 1_555
Na22 O110 2.515065 1_555
Na22 O112 2.559651 1_555
Na22 O108 2.591236 1_555
Na22 O96 2.706198 1_555
Na22 O98 2.994260 1_555
Na23 O101 2.301739 1_555
Na23 O97 2.621199 1_555
Na23 O111 2.629470 1_555
Na23 O109 2.708006 1_555
Na23 O113 2.710658 1_555
Na23 O99 2.954195 1_555
Na24 O104 2.412086 1_555
Na24 O114 2.529108 1_555
Na24 O118 2.628949 1_555
Na24 O116 2.651828 1_555
Na24 O102 2.745737 1_555
Na24 O106 2.840206 1_555
Na25 O115 2.442621 1_555
Na25 O105 2.486545 1_555
Na25 O117 2.527679 1_555
Na25 O119 2.554521 1_555
Na25 O103 2.842267 1_555
Na25 O107 2.904913 1_555
Na26 O120 2.453271 1_555
Na26 O134 2.561031 1_555
Na26 O136 2.574920 1_555
Na26 O124 2.630074 1_555
Na26 O132 2.682091 1_555
Na26 O122 2.905879 1_555
Na27 O121 2.447184 1_555
Na27 O137 2.561939 1_555
Na27 O135 2.563297 1_555
Na27 O125 2.615481 1_555
Na27 O133 2.652457 1_555
Na27 O123 2.889033 1_555
Na28 O138 2.403102 1_555
Na28 O140 2.430370 1_555
Na28 O142 2.432489 1_555
Na28 O128 2.713473 1_555
Na28 O126 2.740047 1_555
Na28 O130 3.006054 1_555
Na29 O143 2.462671 1_555
Na29 O141 2.480737 1_555
Na29 O129 2.483625 1_555
Na29 O139 2.564320 1_555
Na29 O127 2.657982 1_555
Na29 O131 2.913915 1_555
O0 S0 1.484768 1_545
O0 Y0 2.199912 1_545
O1 S1 1.483423 1_545
O1 Y1 2.197663 1_545
O2 Si0 1.607367 1_555
O2 Y1 2.182988 1_555
O3 Si1 1.607709 1_555
O3 Y0 2.173975 1_655
O4 Si3 1.592644 1_555
O4 Y1 2.183906 1_545
O5 Si2 1.590590 1_655
O5 Y0 2.191176 1_645
O6 S2 1.490447 1_555
O6 Y2 2.219198 1_455
O7 S3 1.472115 1_555
O7 Y3 2.225849 1_555
O8 Si5 1.581037 1_555
O8 Y3 2.227138 1_565
O9 Si4 1.591169 1_655
O9 Y2 2.151392 1_565
O10 Si6 1.594717 1_545
O10 Y3 2.129957 1_555
O11 Si7 1.599397 1_545
O11 Y2 2.132424 1_555
O12 Si6 1.715824 1_555
O12 Ti1 1.838775 1_555
O13 Si7 1.707730 1_555
O13 Ti0 1.897665 1_555
O14 S2 1.468274 1_555
O14 Ti0 2.379071 1_445
O15 S3 1.501700 1_555
O15 Ti1 2.287470 1_545
O16 Si4 1.716916 1_555
O16 Ti0 1.829668 1_455
O17 Si5 1.722608 1_555
O17 Ti1 1.800180 1_555
O18 Si0 1.684459 1_555
O18 Ti3 1.892582 1_565
O19 Si1 1.689238 1_555
O19 Ti2 1.892294 1_565
O20 Si2 1.698488 1_555
O20 Ti2 1.826487 1_455
O21 Si3 1.698941 1_555
O21 Ti3 1.835060 1_555
O22 S0 1.475794 1_555
O22 Ti2 2.321202 1_465
O23 S1 1.475479 1_555
O23 Ti3 2.312035 1_565
O24 S4 1.477822 1_555
O24 Y4 2.200207 1_555
O25 S5 1.471976 1_555
O25 Y5 2.194921 1_555
O26 Si8 1.588845 1_555
O26 Y4 2.140331 1_555
O27 Si9 1.597373 1_555
O27 Y5 2.189336 1_555
O28 S6 1.460272 1_555
O28 Y4 2.251640 1_555
O29 Si10 1.580815 1_555
O29 Y5 2.139764 1_555
O30 S7 1.492384 1_555
O30 Y6 2.170368 1_555
O31 S8 1.487464 1_555
O31 Y7 2.178194 1_555
O32 S9 1.462836 1_555
O32 Y6 2.246475 1_555
O33 S10 1.460465 1_555
O33 Y7 2.239530 1_555
O34 Si11 1.598779 1_555
O34 Y6 2.127894 1_555
O35 Si12 1.593099 1_555
O35 Y7 2.130810 1_555
O36 Si11 1.728689 1_555
O36 Ti4 1.890169 1_554
O37 Si12 1.744438 1_555
O37 Ti5 1.828041 1_554
O38 S7 1.472238 1_555
O38 Ti4 2.564955 1_554
O39 S8 1.479928 1_555
O39 Ti5 2.499148 1_554
O40 S9 1.500109 1_555
O40 Ti4 2.069112 1_554
O41 S10 1.498664 1_555
O41 Ti5 2.214227 1_554
O42 Si8 1.742594 1_555
O42 Ti6 1.838123 1_555
O43 Si9 1.726979 1_555
O43 Ti7 1.878205 1_555
O44 S6 1.503573 1_555
O44 Ti6 2.173911 1_555
O45 Si10 1.716276 1_555
O45 Ti7 1.849409 1_555
O46 S4 1.472027 1_555
O46 Ti6 2.490634 1_555
O47 S5 1.483285 1_555
O47 Ti7 2.511182 1_555
O48 S11 1.462981 1_555
O48 Y8 2.234650 1_556
O49 S12 1.459333 1_555
O49 Y9 2.257185 1_556
O50 Si13 1.600360 1_555
O50 Y8 2.107733 1_556
O51 Si14 1.584304 1_555
O51 Y9 2.060186 1_556
O52 Si15 1.581047 1_555
O52 Y8 2.160617 1_556
O53 Si16 1.576182 1_555
O53 Y9 2.153094 1_556
O54 S13 1.466192 1_555
O54 Y10 2.199400 1_555
O55 S14 1.476027 1_555
O55 Y11 2.249643 1_555
O56 Si17 1.577456 1_555
O56 Y10 2.122641 1_555
O57 Si18 1.590743 1_555
O57 Y11 2.196029 1_555
O58 Si19 1.604595 1_555
O58 Y10 2.135991 1_555
O59 Si20 1.582926 1_555
O59 Y11 2.079772 1_555
O60 Si19 1.717081 1_555
O60 Ti8 1.926720 1_555
O61 Si20 1.711845 1_555
O61 Ti9 1.937142 1_555
O62 S13 1.463288 1_555
O62 Ti8 2.529013 1_555
O63 S14 1.469648 1_555
O63 Ti9 2.431160 1_555
O64 Si17 1.708694 1_555
O64 Ti8 1.854526 1_555
O65 Si18 1.719719 1_555
O65 Ti9 1.840217 1_555
O66 Si13 1.708366 1_555
O66 Ti10 1.898652 1_555
O67 Si14 1.724541 1_555
O67 Ti11 1.941947 1_555
O68 Si15 1.695364 1_555
O68 Ti10 1.854129 1_555
O69 Si16 1.722969 1_555
O69 Ti11 1.839695 1_555
O70 S11 1.463003 1_555
O70 Ti10 2.525965 1_555
O71 S12 1.464796 1_555
O71 Ti11 2.546475 1_555
O72 Si19 1.618836 1_655
O72 Y0 2.214894 1_655
O73 Si20 1.620882 1_555
O73 Y1 2.205808 1_555
O74 S13 1.484151 1_555
O74 Y1 2.312645 1_555
O75 S14 1.501741 1_555
O75 Y0 2.291112 1_655
O76 Si17 1.601950 1_555
O76 Y0 2.255782 1_545
O77 Si18 1.610113 1_555
O77 Y1 2.248213 1_545
O78 Si13 1.625246 1_655
O78 Y2 2.216629 1_555
O79 Si14 1.599501 1_555
O79 Y3 2.157991 1_555
O80 Si15 1.628638 1_545
O80 Y2 2.309246 1_455
O81 Si16 1.599840 1_555
O81 Y3 2.289036 1_565
O82 S11 1.478733 1_555
O82 Y3 2.284133 1_565
O83 S12 1.499330 1_555
O83 Y2 2.340330 1_565
O84 S4 1.485937 1_555
O84 Ti1 2.436403 1_545
O85 S5 1.480192 1_555
O85 Ti0 2.431016 1_545
O86 Si8 1.668332 1_555
O86 Ti0 1.978023 1_445
O87 Si9 1.678523 1_555
O87 Ti1 1.985012 1_545
O88 S6 1.508098 1_555
O88 Ti1 2.155921 1_555
O89 Si10 1.680607 1_555
O89 Ti0 1.932446 1_555
O90 S7 1.479076 1_555
O90 Ti3 2.330238 1_565
O91 S8 1.478705 1_555
O91 Ti2 2.396137 1_565
O92 S9 1.505743 1_555
O92 Ti3 2.133640 1_555
O93 S10 1.513616 1_555
O93 Ti2 2.122126 1_555
O94 Si11 1.688044 1_555
O94 Ti2 1.904402 1_455
O95 Si12 1.678703 1_555
O95 Ti3 1.901381 1_555
O96 Si6 1.638347 1_545
O96 Y4 2.178361 1_555
O97 Si7 1.620466 1_545
O97 Y5 2.238928 1_555
O98 S2 1.495721 1_555
O98 Y4 2.251783 1_555
O99 S3 1.473075 1_555
O99 Y5 2.283767 1_555
O100 Si5 1.613706 1_555
O100 Y4 2.254924 1_555
O101 Si4 1.591924 1_655
O101 Y5 2.189729 1_555
O102 Si0 1.641384 1_555
O102 Y6 2.215967 1_555
O103 Si1 1.639024 1_555
O103 Y7 2.205661 1_555
O104 Si3 1.614104 1_555
O104 Y6 2.264884 1_555
O105 Si2 1.611439 1_655
O105 Y7 2.260682 1_555
O106 S0 1.480495 1_545
O106 Y6 2.300441 1_555
O107 S1 1.479364 1_545
O107 Y7 2.287067 1_555
O108 S11 1.523183 1_555
O108 Ti4 2.215784 1_555
O109 S12 1.517927 1_555
O109 Ti5 2.066428 1_555
O110 Si14 1.706363 1_555
O110 Ti4 1.932608 1_555
O111 Si13 1.676943 1_655
O111 Ti5 2.027378 1_555
O112 Si15 1.696493 1_545
O112 Ti4 1.827639 1_555
O113 Si16 1.711590 1_545
O113 Ti5 1.842707 1_555
O114 S13 1.509430 1_545
O114 Ti6 2.104985 1_555
O115 S14 1.486076 1_545
O115 Ti7 2.412571 1_555
O116 Si17 1.699602 1_555
O116 Ti6 1.852463 1_555
O117 Si18 1.683470 1_555
O117 Ti7 1.894035 1_555
O118 Si20 1.696484 1_555
O118 Ti6 1.985459 1_555
O119 Si19 1.688904 1_655
O119 Ti7 2.013961 1_555
O120 Si11 1.613348 1_555
O120 Y8 2.202981 1_555
O121 Si12 1.605573 1_555
O121 Y9 2.196846 1_555
O122 S8 1.483521 1_455
O122 Y8 2.258422 1_555
O123 S7 1.489785 1_555
O123 Y9 2.256535 1_555
O124 S9 1.469955 1_565
O124 Y8 2.421973 1_555
O125 S10 1.473048 1_565
O125 Y9 2.436686 1_555
O126 Si8 1.627452 1_565
O126 Y10 2.204498 1_555
O127 Si9 1.608478 1_565
O127 Y11 2.175847 1_555
O128 S6 1.475202 1_555
O128 Y10 2.384070 1_555
O129 Si10 1.614120 1_555
O129 Y11 2.318400 1_555
O130 S5 1.487217 1_455
O130 Y10 2.271449 1_555
O131 S4 1.500548 1_555
O131 Y11 2.287803 1_555
O132 S0 1.487174 1_555
O132 Ti8 2.433515 1_555
O133 S1 1.487465 1_555
O133 Ti9 2.428713 1_555
O134 Si0 1.676550 1_555
O134 Ti8 1.927681 1_555
O135 Si1 1.674461 1_555
O135 Ti9 1.943354 1_555
O136 Si2 1.702486 1_555
O136 Ti8 1.887373 1_555
O137 Si3 1.699445 1_555
O137 Ti9 1.907477 1_555
O138 S2 1.476631 1_555
O138 Ti10 2.404448 1_555
O139 S3 1.480156 1_555
O139 Ti11 2.496734 1_555
O140 Si4 1.692935 1_555
O140 Ti10 1.887349 1_555
O141 Si5 1.696131 1_555
O141 Ti11 1.901571 1_555
O142 Si6 1.655339 1_555
O142 Ti10 1.977310 1_555
O143 Si7 1.688803 1_555
O143 Ti11 1.919443 1_555
