# generated using pymatgen
data_MgZn2Ni3O8
_symmetry_space_group_name_H-M   'P 1'
_cell_length_a   5.30505826
_cell_length_b   5.76627879
_cell_length_c   5.74833219
_cell_angle_alpha   120.10332209
_cell_angle_beta   96.95629114
_cell_angle_gamma   90.00000203
_symmetry_Int_Tables_number   1
_chemical_formula_structural   MgZn2Ni3O8
_chemical_formula_sum   'Mg1 Zn2 Ni3 O8'
_cell_volume   150.62851216
_cell_formula_units_Z   1
loop_
 _symmetry_equiv_pos_site_id
 _symmetry_equiv_pos_as_xyz
  1  'x, y, z'
loop_
 _atom_site_type_symbol
 _atom_site_label
 _atom_site_symmetry_multiplicity
 _atom_site_fract_x
 _atom_site_fract_y
 _atom_site_fract_z
 _atom_site_occupancy
  Mg  Mg0  1  0.73291616  0.29356388  0.58712876  1
  Zn  Zn0  1  0.59921312  0.71540650  0.43081301  1
  Zn  Zn1  1  0.24547322  0.24681926  0.49363652  1
  Ni  Ni0  1  0.51389439  0.00440273  0.00880746  1
  Ni  Ni1  1  0.01182319  0.76539727  0.02885972  1
  Ni  Ni2  1  0.01182319  0.26346245  0.02885972  1
  O  O0  1  0.08431486  0.40044283  0.80088665  1
  O  O1  1  0.91090133  0.61840964  0.23682029  1
  O  O2  1  0.14794823  0.92025365  0.84050830  1
  O  O3  1  0.88463998  0.12033262  0.24066524  1
  O  O4  1  0.39727668  0.35169475  0.25487747  1
  O  O5  1  0.39727668  0.90318172  0.25487747  1
  O  O6  1  0.64930448  0.10744343  0.77758170  1
  O  O7  1  0.64930448  0.67013826  0.77758170  1
loop_
_geom_bond_atom_site_label_1
_geom_bond_atom_site_label_2
_geom_bond_distance
_geom_bond_site_symmetry_2
Mg0 O6 1.960448 1_555
Mg0 O7 1.960453 1_555
Mg0 O3 2.001194 1_555
Mg0 O0 2.012554 1_655
Mg0 O4 2.597881 1_555
Mg0 O5 2.597881 1_545
Ni0 O7 1.912902 1_544
Ni0 O6 1.912909 1_554
Ni0 O5 1.940191 1_545
Ni0 O4 1.940196 1_555
Ni0 O2 2.003611 1_544
Ni0 O3 2.136101 1_555
Ni1 O1 1.898809 1_455
Ni1 O0 1.910372 1_554
Ni1 O2 1.910579 1_554
Ni1 O3 1.955955 1_465
Ni1 O7 2.148945 1_454
Ni1 O5 2.195828 1_555
Ni2 O1 1.898804 1_455
Ni2 O0 1.910367 1_554
Ni2 O2 1.910584 1_544
Ni2 O3 1.955954 1_455
Ni2 O6 2.148945 1_454
Ni2 O4 2.195829 1_555
O0 Zn1 1.852394 1_555
O1 Zn0 2.027678 1_555
O3 Zn1 2.138386 1_655
O4 Zn1 1.999558 1_555
O4 Zn0 2.044229 1_555
O5 Zn1 1.999569 1_565
O5 Zn0 2.044224 1_555
O6 Zn0 2.122687 1_545
O7 Zn0 2.122687 1_555
