# generated using pymatgen
data_Na3La2Y2P3(SO8)3
_symmetry_space_group_name_H-M   'P 1'
_cell_length_a   9.37622768
_cell_length_b   9.37235738
_cell_length_c   24.76679739
_cell_angle_alpha   89.53975181
_cell_angle_beta   90.40646391
_cell_angle_gamma   120.20636051
_symmetry_Int_Tables_number   1
_chemical_formula_structural   Na3La2Y2P3(SO8)3
_chemical_formula_sum   'Na9 La6 Y6 P9 S9 O72'
_cell_volume   1880.84887998
_cell_formula_units_Z   3
loop_
 _symmetry_equiv_pos_site_id
 _symmetry_equiv_pos_as_xyz
  1  'x, y, z'
loop_
 _atom_site_type_symbol
 _atom_site_label
 _atom_site_symmetry_multiplicity
 _atom_site_fract_x
 _atom_site_fract_y
 _atom_site_fract_z
 _atom_site_occupancy
  Na  Na0  1  0.35492873  0.35494125  0.25228583  1
  Na  Na1  1  0.68713683  0.02108951  0.91778568  1
  Na  Na2  1  0.98013653  0.31078974  0.41577690  1
  Na  Na3  1  0.00839736  0.99771643  0.49907999  1
  Na  Na4  1  0.00070899  0.99074331  0.00147592  1
  Na  Na5  1  0.65826982  0.33513891  0.83447755  1
  Na  Na6  1  0.66610028  0.33359284  0.33383332  1
  Na  Na7  1  0.33265718  0.68669692  0.16786776  1
  Na  Na8  1  0.33311553  0.66661257  0.66732005  1
  La  La0  1  0.00263727  0.99425776  0.85065054  1
  La  La1  1  0.99110962  0.00747877  0.64743777  1
  La  La2  1  0.67433187  0.32575799  0.68355152  1
  La  La3  1  0.34170697  0.67700828  0.02016393  1
  La  La4  1  0.32291325  0.65839992  0.51467960  1
  La  La5  1  0.34474669  0.67553756  0.81857834  1
  Y  Y0  1  0.00967581  0.99759558  0.34822150  1
  Y  Y1  1  0.99781626  0.00392676  0.15063050  1
  Y  Y2  1  0.67389996  0.31873715  0.18557680  1
  Y  Y3  1  0.66182365  0.33367009  0.98588509  1
  Y  Y4  1  0.66441487  0.33877726  0.48072280  1
  Y  Y5  1  0.32208885  0.66875232  0.31607273  1
  P  P0  1  0.29395346  0.00174154  0.24847429  1
  P  P1  1  0.00337522  0.29343630  0.25184884  1
  P  P2  1  0.69877017  0.99884022  0.75215606  1
  P  P3  1  0.96072095  0.33301041  0.57901512  1
  P  P4  1  0.67573445  0.04396849  0.08333988  1
  P  P5  1  0.63343505  0.66224316  0.91878701  1
  P  P6  1  0.34149054  0.97404874  0.91870624  1
  P  P7  1  0.33207782  0.36757889  0.41255306  1
  P  P8  1  0.03079306  0.66446094  0.41504856  1
  S  S0  1  0.70212322  0.70252390  0.24976174  1
  S  S1  1  0.30209483  0.30254334  0.74945000  1
  S  S2  1  0.00118986  0.69971064  0.74885216  1
  S  S3  1  0.37055226  0.03834792  0.58112003  1
  S  S4  1  0.66689253  0.62710619  0.58175716  1
  S  S5  1  0.95372706  0.62761681  0.08567053  1
  S  S6  1  0.37241300  0.32697824  0.08692724  1
  S  S7  1  0.02574325  0.36582834  0.91845375  1
  S  S8  1  0.63570567  0.96828977  0.41488147  1
  O  O0  1  0.21335954  0.02907120  0.29904553  1
  O  O1  1  0.80285745  0.78065341  0.29836286  1
  O  O2  1  0.97887195  0.19153993  0.30399444  1
  O  O3  1  0.22098521  0.20513711  0.79872556  1
  O  O4  1  0.98894070  0.78090714  0.79842104  1
  O  O5  1  0.79384083  0.01189017  0.80515849  1
  O  O6  1  0.79220285  0.98784546  0.70237233  1
  O  O7  1  0.20483177  0.21690225  0.70062205  1
  O  O8  1  0.01579032  0.79873890  0.70026415  1
  O  O9  1  0.78149666  0.80347453  0.20090647  1
  O  O10  1  0.02785452  0.20628449  0.20254324  1
  O  O11  1  0.18576559  0.97781168  0.19828460  1
  O  O12  1  0.87561050  0.34539410  0.63050353  1
  O  O13  1  0.46152050  0.11670955  0.63144641  1
  O  O14  1  0.65143680  0.53423074  0.63181462  1
  O  O15  1  0.86811861  0.52689317  0.13374469  1
  O  O16  1  0.65832558  0.13573137  0.13232305  1
  O  O17  1  0.47188571  0.34593740  0.13595093  1
  O  O18  1  0.45447535  0.31245206  0.03769275  1
  O  O19  1  0.85817444  0.54864078  0.03572702  1
  O  O20  1  0.69003964  0.14007217  0.03015803  1
  O  O21  1  0.45947290  0.14099403  0.53325059  1
  O  O22  1  0.67639547  0.53803571  0.53355721  1
  O  O23  1  0.85949197  0.32225820  0.52763480  1
  O  O24  1  0.54534201  0.68747356  0.96741958  1
  O  O25  1  0.12817565  0.44651974  0.96652801  1
  O  O26  1  0.31651010  0.86388456  0.96844532  1
  O  O27  1  0.56366548  0.87242944  0.46465655  1
  O  O28  1  0.30243523  0.44788953  0.46258886  1
  O  O29  1  0.13433913  0.69361581  0.46666376  1
  O  O30  1  0.11949550  0.63746810  0.36648850  1
  O  O31  1  0.53045262  0.88543737  0.36725186  1
  O  O32  1  0.35603065  0.47472420  0.36138610  1
  O  O33  1  0.10157629  0.46069369  0.86874630  1
  O  O34  1  0.36652106  0.89378631  0.86771870  1
  O  O35  1  0.53224390  0.63815755  0.86667956  1
  O  O36  1  0.00418622  0.81223039  0.40656943  1
  O  O37  1  0.80529004  0.99330984  0.40810461  1
  O  O38  1  0.16884040  0.19659814  0.40719921  1
  O  O39  1  0.00099379  0.19513822  0.91484733  1
  O  O40  1  0.19183962  0.99925259  0.91392791  1
  O  O41  1  0.80215214  0.82779900  0.91470278  1
  O  O42  1  0.97588898  0.17509230  0.58126417  1
  O  O43  1  0.20403317  0.02093573  0.58268458  1
  O  O44  1  0.82044567  0.79162847  0.58267882  1
  O  O45  1  0.97225425  0.79474190  0.08979742  1
  O  O46  1  0.83137343  0.02667575  0.08961508  1
  O  O47  1  0.20634963  0.17520962  0.09029192  1
  O  O48  1  0.68225164  0.15514681  0.74906026  1
  O  O49  1  0.46890259  0.32181099  0.74685978  1
  O  O50  1  0.84889194  0.53515958  0.74707369  1
  O  O51  1  0.67831288  0.53248048  0.24388942  1
  O  O52  1  0.85332730  0.31867908  0.24415780  1
  O  O53  1  0.46429937  0.16681283  0.24265065  1
  O  O54  1  0.65772123  0.51247794  0.92625665  1
  O  O55  1  0.85709079  0.34500355  0.92387742  1
  O  O56  1  0.50626090  0.14235153  0.92478774  1
  O  O57  1  0.65624487  0.13799087  0.41977964  1
  O  O58  1  0.48386486  0.34562714  0.42095242  1
  O  O59  1  0.86230520  0.49811755  0.42082909  1
  O  O60  1  0.35228156  0.47409161  0.08236782  1
  O  O61  1  0.11947463  0.64275386  0.08273935  1
  O  O62  1  0.51800912  0.86952633  0.08246372  1
  O  O63  1  0.35656525  0.87385935  0.57813684  1
  O  O64  1  0.52115879  0.64888757  0.57800980  1
  O  O65  1  0.13570210  0.48800355  0.57861087  1
  O  O66  1  0.31933820  0.85162939  0.25615396  1
  O  O67  1  0.53318098  0.68145420  0.25536799  1
  O  O68  1  0.16769259  0.46477445  0.25661360  1
  O  O69  1  0.31393077  0.46636840  0.75162784  1
  O  O70  1  0.14844734  0.67995214  0.75179201  1
  O  O71  1  0.52512252  0.84188265  0.75163761  1
loop_
_geom_bond_atom_site_label_1
_geom_bond_atom_site_label_2
_geom_bond_distance
_geom_bond_site_symmetry_2
Na0 O68 2.444595 1_555
Na0 O53 2.459085 1_555
Na0 O51 2.632944 1_555
Na0 O67 2.649423 1_555
Na0 O0 2.883876 1_555
Na0 O10 2.922037 1_555
Na0 O32 2.932280 1_555
Na1 O56 2.478855 1_555
Na1 O41 2.533742 1_545
Na1 O39 2.548940 1_655
Na1 O55 2.629546 1_555
Na1 O34 2.891362 1_545
Na1 O24 2.972180 1_545
Na1 O5 2.986551 1_555
Na1 O20 3.001367 1_556
Na2 O38 2.497096 1_655
Na2 O59 2.505208 1_555
Na2 O37 2.583355 1_545
Na2 O57 2.628322 1_555
Na2 O28 2.862586 1_655
Na2 O30 2.916983 1_655
Na2 O2 2.991614 1_555
Na2 O23 3.022854 1_555
Na3 O43 2.692814 1_565
Na3 O42 2.751842 1_465
Na3 O44 2.772312 1_455
Na3 O38 2.841603 1_565
Na3 O36 2.875227 1_555
Na3 O37 2.926878 1_455
Na4 O41 2.748076 1_454
Na4 O45 2.771496 1_455
Na4 O40 2.797842 1_554
Na4 O46 2.828158 1_465
Na4 O47 2.862166 1_565
Na4 O39 2.863895 1_564
Na5 O49 2.757471 1_555
Na5 O56 2.772716 1_555
Na5 O48 2.795985 1_555
Na5 O54 2.828230 1_555
Na5 O50 2.830734 1_555
Na5 O55 2.856135 1_555
Na6 O59 2.747204 1_555
Na6 O57 2.769475 1_555
Na6 O58 2.799635 1_555
Na6 O53 2.853676 1_555
Na6 O51 2.858708 1_555
Na6 O52 2.888114 1_555
Na7 O62 2.725424 1_555
Na7 O66 2.727381 1_555
Na7 O61 2.781365 1_555
Na7 O67 2.875268 1_555
Na7 O68 2.878741 1_555
Na7 O60 2.988423 1_555
Na8 O71 2.706736 1_555
Na8 O69 2.741742 1_555
Na8 O70 2.768393 1_555
Na8 O65 2.817613 1_555
Na8 O63 2.864991 1_555
Na8 O64 2.895659 1_555
La0 O5 2.328236 1_465
La0 O4 2.338585 1_455
La0 O40 2.341687 1_555
La0 O41 2.352812 1_455
La0 O3 2.382536 1_565
La0 O39 2.480011 1_565
La1 O6 2.247184 1_545
La1 O42 2.314115 1_555
La1 O7 2.376877 1_655
La1 O44 2.446212 1_545
La1 O8 2.450078 1_645
La1 O43 2.522372 1_655
La2 O12 2.236846 1_555
La2 O48 2.295826 1_555
La2 O13 2.357082 1_555
La2 O50 2.405520 1_555
La2 O14 2.425601 1_555
La2 O49 2.477921 1_555
La3 O26 2.267204 1_554
La3 O24 2.281772 1_554
La3 O62 2.318677 1_555
La3 O25 2.469018 1_554
La3 O60 2.478028 1_555
La3 O61 2.492274 1_555
La4 O29 2.280446 1_555
La4 O28 2.291313 1_555
La4 O65 2.305812 1_555
La4 O64 2.458934 1_555
La4 O63 2.459721 1_555
La4 O27 2.469369 1_555
La5 O35 2.283836 1_555
La5 O34 2.307214 1_555
La5 O71 2.320493 1_555
La5 O69 2.480243 1_555
La5 O70 2.481462 1_555
La5 O33 2.485400 1_555
O0 P0 1.555222 1_555
O0 Y0 2.162866 1_545
O1 S0 1.476236 1_555
O1 Y0 2.336304 1_655
O2 P1 1.548019 1_655
O2 Y0 2.253691 1_645
O3 S1 1.482508 1_555
O4 S2 1.484731 1_655
O5 P2 1.552100 1_545
O6 P2 1.551298 1_555
O7 S1 1.483833 1_555
O8 S2 1.478109 1_555
O9 S0 1.482897 1_555
O9 Y1 2.314702 1_565
O10 P1 1.555541 1_555
O10 Y1 2.196794 1_455
O11 P0 1.543406 1_565
O11 Y1 2.226721 1_465
O12 P3 1.544816 1_555
O13 S3 1.479784 1_555
O14 S4 1.474448 1_555
O15 S5 1.478558 1_555
O15 Y2 2.277778 1_555
O16 P4 1.548832 1_555
O16 Y2 2.117632 1_555
O17 S6 1.481987 1_555
O17 Y2 2.368789 1_555
O18 S6 1.489578 1_555
O18 Y3 2.260063 1_554
O19 S5 1.487374 1_555
O19 Y3 2.290822 1_554
O20 P4 1.557573 1_555
O20 Y3 2.238648 1_554
O21 S3 1.488231 1_555
O21 Y4 2.287711 1_555
O22 S4 1.490723 1_555
O22 Y4 2.244685 1_555
O23 P3 1.555325 1_555
O23 Y4 2.229654 1_555
O24 P5 1.550530 1_555
O25 S7 1.476271 1_555
O26 P6 1.542321 1_555
O27 S8 1.471917 1_555
O28 P7 1.552374 1_555
O29 P8 1.540285 1_555
O30 P8 1.559791 1_555
O30 Y5 2.172725 1_555
O31 S8 1.481735 1_555
O31 Y5 2.358330 1_555
O32 P7 1.556092 1_555
O32 Y5 2.283023 1_555
O33 S7 1.473223 1_555
O34 P6 1.553296 1_555
O35 P5 1.545457 1_555
O36 P8 1.538395 1_555
O36 Y0 2.231574 1_555
O37 S8 1.496470 1_555
O37 Y0 2.415702 1_655
O38 P7 1.568663 1_555
O38 Y0 2.247554 1_545
O39 S7 1.499847 1_555
O40 P6 1.539279 1_555
O41 P5 1.565312 1_555
O42 P3 1.557013 1_555
O43 S3 1.486684 1_555
O44 S4 1.489050 1_555
O45 S5 1.490845 1_555
O45 Y1 2.395975 1_565
O46 P4 1.553822 1_555
O46 Y1 2.249605 1_555
O47 S6 1.491976 1_555
O47 Y1 2.340479 1_455
O48 P2 1.549940 1_545
O49 S1 1.483222 1_555
O50 S2 1.484501 1_655
O51 S0 1.502047 1_555
O51 Y2 2.462281 1_555
O52 P1 1.549829 1_655
O52 Y2 2.213954 1_555
O53 P0 1.574370 1_555
O53 Y2 2.253692 1_555
O54 P5 1.540510 1_555
O54 Y3 2.239466 1_555
O55 S7 1.499584 1_655
O55 Y3 2.358690 1_555
O56 P6 1.563977 1_545
O56 Y3 2.238977 1_555
O57 S8 1.508659 1_545
O57 Y4 2.392556 1_555
O58 P7 1.549457 1_555
O58 Y4 2.265741 1_555
O59 P8 1.571027 1_655
O59 Y4 2.255800 1_555
O60 S6 1.486117 1_555
O61 S5 1.490022 1_455
O62 P4 1.558117 1_565
O63 S3 1.482424 1_565
O64 S4 1.481894 1_555
O65 P3 1.550454 1_455
O66 P0 1.550553 1_565
O66 Y5 2.267982 1_555
O67 S0 1.501794 1_555
O67 Y5 2.448315 1_555
O68 P1 1.573945 1_555
O68 Y5 2.269200 1_555
O69 S1 1.484099 1_555
O70 S2 1.483785 1_555
O71 P2 1.550822 1_555
