# generated using pymatgen
data_Na7Hf3Nb(SiO4)6
_symmetry_space_group_name_H-M   'P 1'
_cell_length_a   9.17695548
_cell_length_b   9.17383765
_cell_length_c   22.74045199
_cell_angle_alpha   90.05073332
_cell_angle_beta   89.91374525
_cell_angle_gamma   120.03986757
_symmetry_Int_Tables_number   1
_chemical_formula_structural   Na7Hf3Nb(SiO4)6
_chemical_formula_sum   'Na21 Hf9 Nb3 Si18 O72'
_cell_volume   1657.31206457
_cell_formula_units_Z   3
loop_
 _symmetry_equiv_pos_site_id
 _symmetry_equiv_pos_as_xyz
  1  'x, y, z'
loop_
 _atom_site_type_symbol
 _atom_site_label
 _atom_site_symmetry_multiplicity
 _atom_site_fract_x
 _atom_site_fract_y
 _atom_site_fract_z
 _atom_site_occupancy
  Na  Na0  1  0.37018018  0.36612409  0.24932884  1
  Na  Na1  1  0.63728678  0.63478694  0.74973332  1
  Na  Na2  1  0.99762673  0.36349432  0.74960907  1
  Na  Na3  1  0.36519020  0.00227294  0.74965071  1
  Na  Na4  1  0.30066079  0.33341904  0.58288184  1
  Na  Na5  1  0.03266305  0.69917270  0.58284600  1
  Na  Na6  1  0.66651758  0.96722215  0.58283976  1
  Na  Na7  1  0.30523478  0.96971219  0.08334526  1
  Na  Na8  1  0.66445863  0.69595951  0.08335723  1
  Na  Na9  1  0.03091190  0.33545178  0.08294440  1
  Na  Na10  1  0.96383060  0.66553496  0.91802697  1
  Na  Na11  1  0.70340437  0.03465305  0.91813845  1
  Na  Na12  1  0.96696573  0.29889363  0.41536938  1
  Na  Na13  1  0.33216135  0.03414733  0.41571324  1
  Na  Na14  1  0.70095483  0.66728149  0.41524780  1
  Na  Na15  1  0.00022130  0.00020624  0.49911658  1
  Na  Na16  1  0.00775933  0.00748257  0.99852772  1
  Na  Na17  1  0.65971289  0.33289792  0.83594113  1
  Na  Na18  1  0.67380435  0.33322080  0.32911321  1
  Na  Na19  1  0.33283191  0.67275294  0.16779148  1
  Na  Na20  1  0.33323097  0.66674874  0.66537907  1
  Hf  Hf0  1  0.99863807  0.99922322  0.35094073  1
  Hf  Hf1  1  0.00457995  0.00413112  0.85328466  1
  Hf  Hf2  1  0.00018730  0.00014623  0.64835628  1
  Hf  Hf3  1  0.66698483  0.33349852  0.68509970  1
  Hf  Hf4  1  0.67119751  0.33296766  0.18723742  1
  Hf  Hf5  1  0.66174578  0.33274627  0.98039781  1
  Hf  Hf6  1  0.66654602  0.33338649  0.47993654  1
  Hf  Hf7  1  0.33298859  0.66522548  0.01904520  1
  Hf  Hf8  1  0.33318537  0.66649351  0.51826504  1
  Nb  Nb0  1  0.99886683  0.99857499  0.14931861  1
  Nb  Nb1  1  0.33323483  0.67060041  0.31091512  1
  Nb  Nb2  1  0.33400670  0.66602587  0.81574562  1
  Si  Si0  1  0.29264696  0.99897384  0.25068144  1
  Si  Si1  1  0.70668049  0.70637152  0.25114353  1
  Si  Si2  1  0.99788487  0.29296944  0.25130476  1
  Si  Si3  1  0.29321527  0.29386321  0.74967732  1
  Si  Si4  1  0.00074314  0.70719483  0.75072515  1
  Si  Si5  1  0.70635472  0.99936313  0.75058475  1
  Si  Si6  1  0.95993391  0.33288079  0.58307452  1
  Si  Si7  1  0.37306509  0.03987593  0.58321754  1
  Si  Si8  1  0.66684856  0.62696835  0.58319829  1
  Si  Si9  1  0.95809107  0.62583578  0.08299942  1
  Si  Si10  1  0.66766415  0.04261777  0.08303746  1
  Si  Si11  1  0.37431240  0.33225284  0.08500158  1
  Si  Si12  1  0.62564862  0.66451566  0.91708326  1
  Si  Si13  1  0.04050649  0.37250594  0.91771244  1
  Si  Si14  1  0.33338728  0.96032414  0.91746568  1
  Si  Si15  1  0.62442844  0.95725085  0.41650626  1
  Si  Si16  1  0.33294242  0.37563910  0.41583792  1
  Si  Si17  1  0.04289807  0.66705456  0.41637638  1
  O  O0  1  0.20527734  0.03008045  0.30834390  1
  O  O1  1  0.82047314  0.79495711  0.30915604  1
  O  O2  1  0.97627706  0.18001171  0.30945883  1
  O  O3  1  0.20235074  0.16801693  0.80473143  1
  O  O4  1  0.96618221  0.79297783  0.80773623  1
  O  O5  1  0.82599252  0.03230197  0.80754432  1
  O  O6  1  0.78917156  0.96228159  0.69250856  1
  O  O7  1  0.17473454  0.21366738  0.69117826  1
  O  O8  1  0.03789737  0.82720152  0.69265855  1
  O  O9  1  0.80278762  0.82957985  0.19296389  1
  O  O10  1  0.03082105  0.19806418  0.19345544  1
  O  O11  1  0.16936685  0.97225443  0.19252450  1
  O  O12  1  0.87384825  0.36592491  0.64116210  1
  O  O13  1  0.49220998  0.12633654  0.64119915  1
  O  O14  1  0.63416922  0.50775990  0.64116734  1
  O  O15  1  0.86809204  0.50139206  0.13796526  1
  O  O16  1  0.63117181  0.13136596  0.13801570  1
  O  O17  1  0.49134935  0.36771226  0.14250420  1
  O  O18  1  0.46095307  0.29347537  0.02832582  1
  O  O19  1  0.84010668  0.54589459  0.02403248  1
  O  O20  1  0.70691761  0.16079619  0.02391854  1
  O  O21  1  0.46040926  0.16032445  0.52558049  1
  O  O22  1  0.70015667  0.53970823  0.52554789  1
  O  O23  1  0.83943981  0.29996585  0.52554873  1
  O  O24  1  0.53939444  0.69919646  0.97394035  1
  O  O25  1  0.15534970  0.46214834  0.97516632  1
  O  O26  1  0.30195259  0.84039006  0.97445821  1
  O  O27  1  0.54124149  0.84087763  0.47514390  1
  O  O28  1  0.30009651  0.46019330  0.47431996  1
  O  O29  1  0.15938689  0.70049589  0.47499064  1
  O  O30  1  0.14161906  0.63678617  0.36090183  1
  O  O31  1  0.49596114  0.85789389  0.36107178  1
  O  O32  1  0.36337908  0.49942587  0.35891235  1
  O  O33  1  0.13842482  0.49741163  0.85952334  1
  O  O34  1  0.35967215  0.86178019  0.85909987  1
  O  O35  1  0.50426391  0.64280094  0.85877112  1
  O  O36  1  0.02416429  0.83477591  0.41079544  1
  O  O37  1  0.81109511  0.97649300  0.41114987  1
  O  O38  1  0.16521448  0.18814082  0.41124593  1
  O  O39  1  0.01405316  0.18429015  0.91104064  1
  O  O40  1  0.16037165  0.96654717  0.91020635  1
  O  O41  1  0.80965895  0.83539874  0.90990008  1
  O  O42  1  0.97696387  0.16363107  0.58871159  1
  O  O43  1  0.18656934  0.02240275  0.58879240  1
  O  O44  1  0.83619064  0.81345650  0.58881918  1
  O  O45  1  0.97731314  0.81559811  0.09072528  1
  O  O46  1  0.83794773  0.02334029  0.09123810  1
  O  O47  1  0.18382472  0.16198634  0.09105469  1
  O  O48  1  0.68449878  0.16550874  0.74475037  1
  O  O49  1  0.48133538  0.31616578  0.74455798  1
  O  O50  1  0.83447295  0.51912799  0.74470450  1
  O  O51  1  0.67732485  0.51792781  0.24420092  1
  O  O52  1  0.83474723  0.31312003  0.24442420  1
  O  O53  1  0.47226162  0.17007680  0.24341695  1
  O  O54  1  0.64880293  0.50016570  0.91973721  1
  O  O55  1  0.85722249  0.36295220  0.91983132  1
  O  O56  1  0.50941234  0.13914396  0.91998461  1
  O  O57  1  0.63897483  0.14253768  0.42050110  1
  O  O58  1  0.50359105  0.36053876  0.42075561  1
  O  O59  1  0.85756237  0.49620854  0.42053881  1
  O  O60  1  0.35120319  0.49798113  0.07793280  1
  O  O61  1  0.14776866  0.65040653  0.07802947  1
  O  O62  1  0.50236016  0.85296194  0.07760312  1
  O  O63  1  0.35513500  0.85316691  0.57848561  1
  O  O64  1  0.49799507  0.64470015  0.57846858  1
  O  O65  1  0.14668489  0.50187370  0.57843128  1
  O  O66  1  0.30643429  0.82747636  0.25659143  1
  O  O67  1  0.51794162  0.68854542  0.25639488  1
  O  O68  1  0.17736441  0.47503041  0.25625273  1
  O  O69  1  0.31121625  0.48227292  0.75718730  1
  O  O70  1  0.17110109  0.68876649  0.75733510  1
  O  O71  1  0.51726898  0.82885176  0.75693837  1
loop_
_geom_bond_atom_site_label_1
_geom_bond_atom_site_label_2
_geom_bond_distance
_geom_bond_site_symmetry_2
Na0 O53 2.411710 1_555
Na0 O68 2.433686 1_555
Na0 O51 2.442754 1_555
Na0 O67 2.568565 1_555
Na0 O17 2.667132 1_555
Na0 O32 2.789240 1_555
Na0 O10 2.981838 1_555
Na0 O0 2.987509 1_555
Na1 O50 2.516924 1_555
Na1 O71 2.524203 1_555
Na1 O49 2.533275 1_555
Na1 O69 2.597604 1_555
Na1 O14 2.723180 1_555
Na1 O35 2.779263 1_555
Na1 O6 2.910553 1_555
Na1 O4 2.928973 1_555
Na2 O48 2.518643 1_555
Na2 O69 2.521971 1_655
Na2 O50 2.536490 1_555
Na2 O70 2.590988 1_655
Na2 O12 2.721487 1_555
Na2 O33 2.800233 1_655
Na2 O7 2.919475 1_655
Na2 O5 2.942348 1_555
Na3 O70 2.519092 1_545
Na3 O49 2.523657 1_555
Na3 O48 2.539173 1_555
Na3 O71 2.594318 1_545
Na3 O13 2.721117 1_555
Na3 O34 2.792564 1_545
Na3 O3 2.894811 1_555
Na3 O8 2.908398 1_545
Na4 O43 2.502885 1_555
Na4 O64 2.503316 1_555
Na4 O65 2.565557 1_555
Na4 O42 2.575761 1_455
Na4 O7 2.707846 1_555
Na4 O28 2.731020 1_555
Na4 O21 2.947882 1_555
Na4 O14 2.964716 1_555
Na5 O44 2.502024 1_455
Na5 O65 2.505315 1_555
Na5 O63 2.564523 1_555
Na5 O43 2.571500 1_565
Na5 O29 2.710266 1_555
Na5 O8 2.748894 1_555
Na5 O22 2.947574 1_455
Na5 O12 2.961311 1_455
Na6 O42 2.498429 1_565
Na6 O63 2.505455 1_555
Na6 O64 2.564085 1_555
Na6 O44 2.575446 1_555
Na6 O27 2.707824 1_555
Na6 O6 2.747429 1_555
Na6 O23 2.946946 1_565
Na6 O13 2.962875 1_565
Na7 O47 2.519911 1_565
Na7 O62 2.525000 1_555
Na7 O61 2.538742 1_555
Na7 O45 2.611935 1_455
Na7 O26 2.738416 1_554
Na7 O11 2.781924 1_555
Na7 O18 2.860243 1_565
Na7 O16 2.873747 1_565
Na8 O45 2.514326 1_555
Na8 O60 2.520156 1_555
Na8 O62 2.539796 1_555
Na8 O46 2.607579 1_565
Na8 O24 2.748100 1_554
Na8 O9 2.787977 1_555
Na8 O19 2.919829 1_555
Na8 O17 2.934595 1_555
Na9 O46 2.508617 1_455
Na9 O61 2.531560 1_555
Na9 O60 2.546972 1_555
Na9 O47 2.602432 1_555
Na9 O25 2.707350 1_554
Na9 O10 2.812226 1_555
Na9 O15 2.895495 1_455
Na9 O20 2.906516 1_455
Na10 O40 2.433835 1_655
Na10 O55 2.438286 1_555
Na10 O54 2.503898 1_555
Na10 O41 2.583191 1_555
Na10 O19 2.655864 1_556
Na10 O4 2.763602 1_555
Na11 O56 2.407953 1_555
Na11 O41 2.471965 1_545
Na11 O39 2.473551 1_655
Na11 O55 2.609262 1_555
Na11 O20 2.661674 1_556
Na11 O5 2.758036 1_555
Na12 O59 2.473301 1_555
Na12 O38 2.490192 1_655
Na12 O37 2.562643 1_545
Na12 O57 2.609123 1_555
Na12 O2 2.661841 1_555
Na12 O23 2.765867 1_555
Na12 O30 2.956052 1_655
Na12 O28 2.968566 1_655
Na13 O57 2.475058 1_555
Na13 O36 2.484240 1_545
Na13 O38 2.553623 1_555
Na13 O58 2.595650 1_555
Na13 O0 2.698831 1_555
Na13 O21 2.758070 1_555
Na13 O29 2.973520 1_545
Na13 O31 2.973592 1_545
Na14 O58 2.472214 1_555
Na14 O37 2.491284 1_555
Na14 O36 2.570061 1_655
Na14 O59 2.608073 1_555
Na14 O1 2.665750 1_555
Na14 O22 2.767262 1_555
Na14 O32 2.973518 1_555
Na14 O27 2.977710 1_555
Na15 O38 2.577070 1_555
Na15 O37 2.587067 1_445
Na15 O36 2.590857 1_545
Na15 O42 2.599621 1_455
Na15 O44 2.603280 1_445
Na15 O43 2.604932 1_555
Na16 O39 2.550274 1_555
Na16 O40 2.579377 1_545
Na16 O47 2.599796 1_556
Na16 O41 2.644073 1_445
Na16 O45 2.661750 1_446
Na16 O46 2.666645 1_456
Na17 O54 2.478690 1_555
Na17 O56 2.501591 1_555
Na17 O55 2.551425 1_555
Na17 O49 2.603802 1_555
Na17 O50 2.654901 1_555
Na17 O48 2.655705 1_555
Na18 O52 2.487545 1_555
Na18 O51 2.559613 1_555
Na18 O53 2.587032 1_555
Na18 O59 2.623448 1_555
Na18 O57 2.631684 1_555
Na18 O58 2.688307 1_555
Na19 O66 2.547332 1_555
Na19 O67 2.594195 1_555
Na19 O61 2.598854 1_555
Na19 O68 2.603692 1_555
Na19 O62 2.604049 1_555
Na19 O60 2.653012 1_555
Na20 O64 2.555338 1_555
Na20 O63 2.555437 1_555
Na20 O65 2.557406 1_555
Na20 O71 2.624791 1_555
Na20 O70 2.630226 1_555
Na20 O69 2.631784 1_555
Hf0 O1 2.005403 1_555
Hf0 O2 2.006679 1_565
Hf0 O0 2.017916 1_665
Hf0 O37 2.124696 1_555
Hf0 O36 2.131165 1_655
Hf0 O38 2.137915 1_665
Hf1 O3 2.009578 1_555
Hf1 O4 2.064819 1_445
Hf1 O5 2.065027 1_455
Hf1 O39 2.077690 1_555
Hf1 O40 2.082868 1_545
Hf1 O41 2.116063 1_445
Hf2 O6 2.049394 1_445
Hf2 O8 2.050734 1_545
Hf2 O7 2.052047 1_555
Hf2 O43 2.108503 1_555
Hf2 O44 2.110127 1_445
Hf2 O42 2.111620 1_455
Hf3 O12 2.029794 1_555
Hf3 O14 2.032285 1_555
Hf3 O13 2.032375 1_555
Hf3 O49 2.116195 1_555
Hf3 O50 2.116893 1_555
Hf3 O48 2.119730 1_555
Hf4 O15 2.027171 1_555
Hf4 O16 2.031190 1_555
Hf4 O52 2.063226 1_555
Hf4 O17 2.095888 1_555
Hf4 O51 2.112125 1_555
Hf4 O53 2.112593 1_555
Hf5 O18 2.010746 1_556
Hf5 O19 2.069853 1_556
Hf5 O20 2.073243 1_556
Hf5 O54 2.112535 1_555
Hf5 O56 2.124079 1_555
Hf5 O55 2.165023 1_555
Hf6 O22 2.041198 1_555
Hf6 O21 2.041218 1_555
Hf6 O23 2.044469 1_555
Hf6 O58 2.118759 1_555
Hf6 O59 2.122111 1_555
Hf6 O57 2.123554 1_555
Hf7 O25 2.021097 1_554
Hf7 O24 2.034894 1_554
Hf7 O26 2.037986 1_554
Hf7 O60 2.106249 1_555
Hf7 O61 2.113981 1_555
Hf7 O62 2.115973 1_555
Hf8 O28 2.023575 1_555
Hf8 O27 2.026160 1_555
Hf8 O29 2.028037 1_555
Hf8 O65 2.119132 1_555
Hf8 O63 2.121309 1_555
Hf8 O64 2.123973 1_555
Nb0 O9 1.957242 1_555
Nb0 O11 1.963456 1_655
Nb0 O10 1.975580 1_665
Nb0 O45 2.072830 1_555
Nb0 O46 2.078260 1_565
Nb0 O47 2.081581 1_665
Nb1 O31 1.978866 1_555
Nb1 O30 1.982164 1_555
Nb1 O66 2.004041 1_555
Nb1 O67 2.037664 1_555
Nb1 O32 2.042707 1_555
Nb1 O68 2.059639 1_555
Nb2 O35 1.944787 1_555
Nb2 O33 1.955229 1_555
Nb2 O34 1.956147 1_555
Nb2 O69 2.074257 1_555
Nb2 O71 2.080778 1_555
Nb2 O70 2.088429 1_555
O0 Si0 1.633701 1_545
O1 Si1 1.626002 1_555
O2 Si2 1.630315 1_555
O3 Si3 1.622079 1_555
O4 Si4 1.627130 1_655
O5 Si5 1.626626 1_545
O6 Si5 1.640901 1_555
O7 Si3 1.641610 1_555
O8 Si4 1.642344 1_555
O9 Si1 1.675379 1_555
O10 Si2 1.685295 1_455
O11 Si0 1.677896 1_555
O12 Si6 1.642193 1_555
O13 Si7 1.642357 1_555
O14 Si8 1.642151 1_555
O15 Si9 1.613448 1_555
O16 Si10 1.614931 1_555
O17 Si11 1.619558 1_555
O18 Si11 1.642896 1_555
O19 Si9 1.647994 1_555
O20 Si10 1.650043 1_555
O21 Si7 1.641344 1_555
O22 Si8 1.641609 1_555
O23 Si6 1.641509 1_555
O24 Si12 1.627219 1_555
O25 Si13 1.621273 1_555
O26 Si14 1.630065 1_555
O27 Si15 1.638317 1_555
O28 Si16 1.640811 1_555
O29 Si17 1.639750 1_555
O30 Si17 1.654417 1_555
O31 Si15 1.654203 1_555
O32 Si16 1.651457 1_555
O33 Si13 1.685127 1_555
O34 Si14 1.688881 1_555
O35 Si12 1.679509 1_555
O36 Si17 1.636568 1_555
O37 Si15 1.636193 1_555
O38 Si16 1.639569 1_555
O39 Si13 1.625819 1_555
O40 Si14 1.625743 1_555
O41 Si12 1.638592 1_555
O42 Si6 1.641646 1_555
O43 Si7 1.641823 1_555
O44 Si8 1.642133 1_555
O45 Si9 1.668722 1_555
O46 Si10 1.669031 1_555
O47 Si11 1.667474 1_555
O48 Si5 1.639363 1_545
O49 Si3 1.637548 1_555
O50 Si4 1.639545 1_655
O51 Si1 1.618471 1_555
O52 Si2 1.605561 1_555
O53 Si0 1.617810 1_545
O54 Si12 1.625720 1_555
O55 Si13 1.640506 1_655
O56 Si14 1.628126 1_545
O57 Si15 1.639495 1_545
O58 Si16 1.643751 1_555
O59 Si17 1.639836 1_655
O60 Si11 1.644893 1_555
O61 Si9 1.643201 1_455
O62 Si10 1.643568 1_565
O63 Si7 1.640128 1_565
O64 Si8 1.640753 1_555
O65 Si6 1.640536 1_455
O66 Si0 1.645916 1_555
O67 Si1 1.660367 1_555
O68 Si2 1.661640 1_455
O69 Si3 1.660617 1_555
O70 Si4 1.661525 1_555
O71 Si5 1.661569 1_555
