# generated using pymatgen
data_K2H5F7
_symmetry_space_group_name_H-M   'P 1'
_cell_length_a   8.20451667
_cell_length_b   8.22067330
_cell_length_c   9.89765083
_cell_angle_alpha   78.17308969
_cell_angle_beta   90.00000000
_cell_angle_gamma   90.00000000
_symmetry_Int_Tables_number   1
_chemical_formula_structural   K2H5F7
_chemical_formula_sum   'K8 H20 F28'
_cell_volume   653.39185521
_cell_formula_units_Z   4
loop_
 _symmetry_equiv_pos_site_id
 _symmetry_equiv_pos_as_xyz
  1  'x, y, z'
loop_
 _atom_site_type_symbol
 _atom_site_label
 _atom_site_symmetry_multiplicity
 _atom_site_fract_x
 _atom_site_fract_y
 _atom_site_fract_z
 _atom_site_occupancy
  K  K0  1  0.23571210  0.86506785  0.03704793  1
  K  K1  1  0.73571210  0.63493215  0.96295207  1
  K  K2  1  0.76428790  0.13493215  0.96295207  1
  K  K3  1  0.26428790  0.36506785  0.03704793  1
  K  K4  1  0.24999069  0.50137816  0.49625092  1
  K  K5  1  0.74999069  0.99862184  0.50374908  1
  K  K6  1  0.75000931  0.49862184  0.50374908  1
  K  K7  1  0.25000931  0.00137816  0.49625092  1
  H  H0  1  0.02033273  0.11784301  0.21628080  1
  H  H1  1  0.52033273  0.38215699  0.78371920  1
  H  H2  1  0.97966727  0.88215699  0.78371920  1
  H  H3  1  0.47966727  0.61784301  0.21628080  1
  H  H4  1  0.01750395  0.52424161  0.21395446  1
  H  H5  1  0.51750395  0.97575839  0.78604554  1
  H  H6  1  0.98249605  0.47575839  0.78604554  1
  H  H7  1  0.48249605  0.02424161  0.21395446  1
  H  H8  1  0.00496014  0.71209116  0.65068980  1
  H  H9  1  0.50496014  0.78790884  0.34931020  1
  H  H10  1  0.46975492  0.28934026  0.34030377  1
  H  H11  1  0.96975492  0.21065974  0.65969623  1
  H  H12  1  0.53024508  0.71065974  0.65969623  1
  H  H13  1  0.03024508  0.78934026  0.34030377  1
  H  H14  1  0.70118669  0.31683271  0.23224374  1
  H  H15  1  0.20118669  0.18316729  0.76775626  1
  H  H16  1  0.29881331  0.68316729  0.76775626  1
  H  H17  1  0.79881331  0.81683271  0.23224374  1
  H  H18  1  0.99503986  0.28790884  0.34931020  1
  H  H19  1  0.49503986  0.21209116  0.65068980  1
  F  F0  1  0.34472644  0.29235931  0.33136394  1
  F  F1  1  0.00517111  0.85205086  0.64984456  1
  F  F2  1  0.49482889  0.35205086  0.64984456  1
  F  F3  1  0.50517111  0.64794914  0.35015544  1
  F  F4  1  0.50475656  0.92488960  0.35057160  1
  F  F5  1  0.00475656  0.57511040  0.64942840  1
  F  F6  1  0.49524344  0.07511040  0.64942840  1
  F  F7  1  0.99524344  0.42488960  0.35057160  1
  F  F8  1  0.45757142  0.08698445  0.12130004  1
  F  F9  1  0.95757142  0.41301555  0.87869996  1
  F  F10  1  0.54242858  0.91301555  0.87869996  1
  F  F11  1  0.04242858  0.58698445  0.12130004  1
  F  F12  1  0.45410202  0.60246764  0.12254935  1
  F  F13  1  0.95410202  0.89753236  0.87745065  1
  F  F14  1  0.54589798  0.39753236  0.87745065  1
  F  F15  1  0.04589798  0.10246764  0.12254935  1
  F  F16  1  0.65527356  0.70764069  0.66863606  1
  F  F17  1  0.15527356  0.79235931  0.33136394  1
  F  F18  1  0.75810204  0.34133706  0.14087661  1
  F  F19  1  0.25810204  0.15866294  0.85912339  1
  F  F20  1  0.24189796  0.65866294  0.85912339  1
  F  F21  1  0.74189796  0.84133706  0.14087661  1
  F  F22  1  0.62642302  0.28435742  0.35702099  1
  F  F23  1  0.12642302  0.21564258  0.64297901  1
  F  F24  1  0.37357698  0.71564258  0.64297901  1
  F  F25  1  0.87357698  0.78435742  0.35702099  1
  F  F26  1  0.99482889  0.14794914  0.35015544  1
  F  F27  1  0.84472644  0.20764069  0.66863606  1
loop_
_geom_bond_atom_site_label_1
_geom_bond_atom_site_label_2
_geom_bond_distance
_geom_bond_site_symmetry_2
F0 H10 1.029469 1_555
F0 K4 2.714680 1_555
F0 K7 2.718277 1_555
F0 K3 2.926580 1_555
F1 H8 1.148879 1_555
F1 H2 1.412517 1_455
F1 K7 2.662370 1_565
F1 K5 2.685487 1_455
F2 H19 1.148879 1_555
F2 H1 1.412517 1_555
F2 K4 2.662370 1_555
F2 K6 2.685487 1_555
F3 H9 1.148879 1_555
F3 H3 1.412517 1_555
F3 K6 2.662370 1_555
F3 K4 2.685487 1_555
F4 H9 1.128700 1_555
F4 H7 1.440880 1_565
F4 K5 2.662872 1_555
F4 K7 2.685976 1_565
F5 H8 1.128700 1_555
F5 H6 1.440880 1_455
F5 K4 2.662872 1_555
F5 K6 2.685976 1_455
F6 H19 1.128700 1_555
F6 H5 1.440880 1_545
F6 K7 2.662872 1_555
F6 K5 2.685976 1_545
F7 H18 1.128700 1_555
F7 H4 1.440880 1_655
F7 K6 2.662872 1_555
F7 K4 2.685976 1_655
F8 H7 0.977223 1_555
F8 K3 2.766706 1_555
F8 K0 2.821412 1_545
F8 K2 2.948059 1_554
F9 H6 0.977223 1_555
F9 K2 2.766706 1_555
F9 K1 2.821412 1_555
F9 K3 2.948059 1_656
F10 H5 0.977223 1_555
F10 K1 2.766706 1_555
F10 K2 2.821412 1_565
F10 K0 2.948059 1_556
F11 H4 0.977223 1_555
F11 K0 2.766706 1_555
F11 K3 2.821412 1_555
F11 K1 2.948059 1_454
F12 H3 0.984228 1_555
F12 K3 2.761726 1_555
F12 K1 2.780641 1_554
F12 K0 2.799643 1_555
F13 H2 0.984228 1_555
F13 K2 2.761726 1_565
F13 K0 2.780641 1_656
F13 K1 2.799643 1_555
F14 H1 0.984228 1_555
F14 K1 2.761726 1_555
F14 K3 2.780641 1_556
F14 K2 2.799643 1_555
F15 H0 0.984228 1_555
F15 K0 2.761726 1_545
F15 K2 2.780641 1_454
F15 K3 2.799643 1_555
F16 H12 1.029469 1_555
F16 K6 2.714680 1_555
F16 K5 2.718277 1_555
F16 K1 2.926580 1_555
F17 H13 1.029469 1_555
F17 K7 2.714680 1_565
F17 K4 2.718277 1_555
F17 K0 2.926580 1_555
F18 H14 1.000877 1_555
F18 K2 2.684728 1_554
F18 K1 2.686623 1_554
F19 H15 1.000877 1_555
F19 K3 2.684728 1_556
F19 K0 2.686623 1_546
F20 H16 1.000877 1_555
F20 K0 2.684728 1_556
F20 K3 2.686623 1_556
F21 H17 1.000877 1_555
F21 K1 2.684728 1_554
F21 K2 2.686623 1_564
F22 H10 1.295567 1_555
F22 H14 1.355585 1_555
F22 K5 2.693711 1_545
F22 K6 2.699681 1_555
F23 H11 1.295567 1_455
F23 H15 1.355585 1_555
F23 K4 2.693711 1_555
F23 K7 2.699681 1_555
F24 H12 1.295567 1_555
F24 H16 1.355585 1_555
F24 K7 2.693711 1_565
F24 K4 2.699681 1_555
F25 H13 1.295567 1_655
F25 H17 1.355585 1_555
F25 K6 2.693711 1_555
F25 K5 2.699681 1_555
F26 H18 1.148879 1_555
F26 H0 1.412517 1_655
F26 K5 2.662370 1_545
F26 K7 2.685487 1_655
F27 H11 1.029469 1_555
F27 K5 2.714680 1_545
F27 K6 2.718277 1_555
F27 K2 2.926580 1_555
