# generated using pymatgen
data_Na10Mg3Si6Ge5(SO8)6
_symmetry_space_group_name_H-M   'P 1'
_cell_length_a   17.44734010
_cell_length_b   8.75599563
_cell_length_c   22.05529688
_cell_angle_alpha   89.69043966
_cell_angle_beta   89.19486642
_cell_angle_gamma   119.76267196
_symmetry_Int_Tables_number   1
_chemical_formula_structural   Na10Mg3Si6Ge5(SO8)6
_chemical_formula_sum   'Na30 Mg9 Si18 Ge15 S18 O144'
_cell_volume   2924.32005134
_cell_formula_units_Z   3
loop_
 _symmetry_equiv_pos_site_id
 _symmetry_equiv_pos_as_xyz
  1  'x, y, z'
loop_
 _atom_site_type_symbol
 _atom_site_label
 _atom_site_symmetry_multiplicity
 _atom_site_fract_x
 _atom_site_fract_y
 _atom_site_fract_z
 _atom_site_occupancy
  Na  Na0  1  0.31703184  0.00011341  0.24789194  1
  Na  Na1  1  0.19148291  0.37065389  0.24704276  1
  Na  Na2  1  0.68777269  0.37030053  0.24643867  1
  Na  Na3  1  0.99866172  0.63595379  0.25025513  1
  Na  Na4  1  0.31623909  0.62364112  0.75257068  1
  Na  Na5  1  0.81642672  0.62536273  0.75021025  1
  Na  Na6  1  0.99532088  0.36540351  0.75061483  1
  Na  Na7  1  0.49775585  0.37441719  0.74551123  1
  Na  Na8  1  0.18342827  0.00603276  0.75026516  1
  Na  Na9  1  0.68650089  0.00882166  0.75092986  1
  Na  Na10  1  0.64801501  0.34094557  0.57941058  1
  Na  Na11  1  0.32663935  0.68881590  0.08095678  1
  Na  Na12  1  0.82808524  0.68960659  0.08530931  1
  Na  Na13  1  0.16531684  0.30922045  0.92049782  1
  Na  Na14  1  0.99052948  0.30524499  0.41877245  1
  Na  Na15  1  0.16493707  0.02929672  0.41833876  1
  Na  Na16  1  0.66470770  0.03082297  0.41570062  1
  Na  Na17  1  0.84617161  0.66801800  0.41803964  1
  Na  Na18  1  0.00109640  0.00226749  0.50163278  1
  Na  Na19  1  0.49449206  0.00260580  0.49831453  1
  Na  Na20  1  0.00268883  0.01022750  0.99971331  1
  Na  Na21  1  0.50151627  0.01246001  0.99715771  1
  Na  Na22  1  0.33885870  0.34515377  0.83487044  1
  Na  Na23  1  0.83416694  0.33344432  0.83222208  1
  Na  Na24  1  0.33828707  0.35345351  0.32996351  1
  Na  Na25  1  0.83224632  0.33212408  0.33136267  1
  Na  Na26  1  0.16706438  0.66238380  0.16186243  1
  Na  Na27  1  0.66336307  0.66472184  0.16344893  1
  Na  Na28  1  0.16458050  0.66344093  0.66334322  1
  Na  Na29  1  0.66131618  0.66438738  0.66309976  1
  Mg  Mg0  1  0.49831667  0.99882804  0.35295029  1
  Mg  Mg1  1  0.33581212  0.34444426  0.68556108  1
  Mg  Mg2  1  0.83524534  0.33622280  0.68958688  1
  Mg  Mg3  1  0.33137624  0.33883338  0.18647773  1
  Mg  Mg4  1  0.83125828  0.33407838  0.18450838  1
  Mg  Mg5  1  0.16509812  0.65044024  0.01645506  1
  Mg  Mg6  1  0.66055658  0.64920241  0.01786667  1
  Mg  Mg7  1  0.16342334  0.65910852  0.51733001  1
  Mg  Mg8  1  0.66441956  0.66120192  0.51847762  1
  Si  Si0  1  0.14538332  0.99538726  0.25279056  1
  Si  Si1  1  0.35919330  0.71123079  0.25235561  1
  Si  Si2  1  0.85730298  0.72058687  0.25021594  1
  Si  Si3  1  0.14465184  0.28992828  0.75082664  1
  Si  Si4  1  0.64215901  0.28577086  0.75265390  1
  Si  Si5  1  0.00367289  0.71824759  0.75428757  1
  Si  Si6  1  0.49941485  0.72059646  0.75104502  1
  Si  Si7  1  0.85355714  0.99436276  0.75162825  1
  Si  Si8  1  0.47750694  0.33232512  0.58568693  1
  Si  Si9  1  0.18538492  0.32864463  0.08493391  1
  Si  Si10  1  0.68559565  0.32988916  0.08570355  1
  Si  Si11  1  0.31536038  0.67722640  0.91675236  1
  Si  Si12  1  0.01263402  0.36253251  0.91923660  1
  Si  Si13  1  0.51964013  0.37057981  0.91789583  1
  Si  Si14  1  0.81312162  0.95700352  0.41805578  1
  Si  Si15  1  0.17069917  0.37900507  0.41763553  1
  Si  Si16  1  0.66051753  0.36815849  0.41946469  1
  Si  Si17  1  0.02579542  0.66892136  0.41745839  1
  Ge  Ge0  1  0.00214080  0.99176208  0.35542483  1
  Ge  Ge1  1  0.99725049  0.00820657  0.84890335  1
  Ge  Ge2  1  0.50198623  0.99947820  0.85671502  1
  Ge  Ge3  1  0.00247829  0.00247943  0.65784413  1
  Ge  Ge4  1  0.50403016  0.01619318  0.65056733  1
  Ge  Ge5  1  0.00870305  0.99666586  0.14958230  1
  Ge  Ge6  1  0.50007591  0.00391251  0.14704729  1
  Ge  Ge7  1  0.33654473  0.35122401  0.97828890  1
  Ge  Ge8  1  0.82952717  0.32231761  0.98255399  1
  Ge  Ge9  1  0.33620942  0.34152751  0.48516584  1
  Ge  Ge10  1  0.83375141  0.33490215  0.47457615  1
  Ge  Ge11  1  0.17358434  0.67090262  0.31680165  1
  Ge  Ge12  1  0.68128665  0.68004936  0.31930243  1
  Ge  Ge13  1  0.15469549  0.63730412  0.81940242  1
  Ge  Ge14  1  0.65660299  0.65462952  0.81029775  1
  S  S0  1  0.64451339  0.99167806  0.25074734  1
  S  S1  1  0.99828796  0.28488049  0.24980285  1
  S  S2  1  0.50185540  0.29583823  0.25047697  1
  S  S3  1  0.35460719  0.99793401  0.75077428  1
  S  S4  1  0.97866998  0.32966507  0.58402115  1
  S  S5  1  0.18528577  0.03996903  0.58516429  1
  S  S6  1  0.68924968  0.04167162  0.58398326  1
  S  S7  1  0.33323469  0.62831177  0.58405604  1
  S  S8  1  0.83772555  0.63039329  0.58407869  1
  S  S9  1  0.48041754  0.62530246  0.08408253  1
  S  S10  1  0.97953798  0.62345758  0.08335117  1
  S  S11  1  0.33395528  0.04744394  0.08386073  1
  S  S12  1  0.83370756  0.04323918  0.08364782  1
  S  S13  1  0.81341634  0.66775284  0.91671541  1
  S  S14  1  0.16562740  0.95433782  0.91587518  1
  S  S15  1  0.66767294  0.95677976  0.91698159  1
  S  S16  1  0.31348117  0.95911126  0.41863558  1
  S  S17  1  0.52114630  0.66175546  0.41659653  1
  O  O0  1  0.09956410  0.03910405  0.31052989  1
  O  O1  1  0.60718196  0.02820492  0.30544656  1
  O  O2  1  0.41504284  0.81036079  0.30862201  1
  O  O3  1  0.91857224  0.80904432  0.30965452  1
  O  O4  1  0.48701669  0.18553388  0.30453344  1
  O  O5  1  0.98382497  0.18180592  0.30654048  1
  O  O6  1  0.10178213  0.16420429  0.81102050  1
  O  O7  1  0.59510772  0.15153196  0.80893980  1
  O  O8  1  0.48163895  0.81272062  0.80871219  1
  O  O9  1  0.98255494  0.81042150  0.81126134  1
  O  O10  1  0.41085018  0.03396768  0.80367170  1
  O  O11  1  0.91876158  0.04103879  0.80861013  1
  O  O12  1  0.39303617  0.95882084  0.69480435  1
  O  O13  1  0.89573835  0.94464359  0.69105743  1
  O  O14  1  0.07782039  0.20889523  0.69197676  1
  O  O15  1  0.58108795  0.21185869  0.69067701  1
  O  O16  1  0.02772440  0.84581823  0.69214672  1
  O  O17  1  0.51942722  0.84966803  0.68899715  1
  O  O18  1  0.40104236  0.84656099  0.18803789  1
  O  O19  1  0.90192708  0.84252520  0.18727668  1
  O  O20  1  0.01655308  0.20537966  0.19565540  1
  O  O21  1  0.52318150  0.21868817  0.19497745  1
  O  O22  1  0.07865244  0.94654440  0.19452875  1
  O  O23  1  0.58971170  0.96567345  0.19575589  1
  O  O24  1  0.43389254  0.35120454  0.64629653  1
  O  O25  1  0.93519712  0.35152670  0.63771329  1
  O  O26  1  0.23773457  0.12372122  0.63864405  1
  O  O27  1  0.74092857  0.12498703  0.63741812  1
  O  O28  1  0.31747766  0.52013960  0.63860476  1
  O  O29  1  0.82265749  0.51603982  0.63727179  1
  O  O30  1  0.43950048  0.51449714  0.13824100  1
  O  O31  1  0.94143617  0.51990713  0.13957262  1
  O  O32  1  0.32484196  0.12602855  0.14036517  1
  O  O33  1  0.82238655  0.12729674  0.13799484  1
  O  O34  1  0.24414961  0.36036959  0.14305807  1
  O  O35  1  0.74435459  0.36354847  0.14462172  1
  O  O36  1  0.23354801  0.29398703  0.02133714  1
  O  O37  1  0.73509808  0.29419239  0.02386045  1
  O  O38  1  0.42239885  0.55049102  0.02889934  1
  O  O39  1  0.92053779  0.54296977  0.02992084  1
  O  O40  1  0.35092609  0.15908367  0.02897745  1
  O  O41  1  0.85226080  0.15766814  0.02711131  1
  O  O42  1  0.22500313  0.15175252  0.52736453  1
  O  O43  1  0.72928485  0.16030635  0.52683822  1
  O  O44  1  0.34975327  0.54556244  0.52776358  1
  O  O45  1  0.85112207  0.54722644  0.52652542  1
  O  O46  1  0.41245821  0.29606775  0.52363797  1
  O  O47  1  0.92371396  0.30067825  0.52681179  1
  O  O48  1  0.27686795  0.71092378  0.97736590  1
  O  O49  1  0.77511461  0.69864012  0.97128047  1
  O  O50  1  0.07936863  0.44684287  0.97270450  1
  O  O51  1  0.57860065  0.45420797  0.97421013  1
  O  O52  1  0.15177196  0.84470992  0.97072042  1
  O  O53  1  0.65580621  0.85078522  0.97065937  1
  O  O54  1  0.27135657  0.84993652  0.47145948  1
  O  O55  1  0.77263015  0.83247913  0.47507114  1
  O  O56  1  0.14432232  0.45276789  0.47422830  1
  O  O57  1  0.65135499  0.45474627  0.47901766  1
  O  O58  1  0.08661693  0.71945416  0.47417522  1
  O  O59  1  0.57592201  0.69475162  0.46988566  1
  O  O60  1  0.06533072  0.62194525  0.35503624  1
  O  O61  1  0.56145612  0.62914612  0.35995353  1
  O  O62  1  0.25621495  0.88588443  0.36138470  1
  O  O63  1  0.74780415  0.88337032  0.35762881  1
  O  O64  1  0.18613155  0.49539504  0.35361691  1
  O  O65  1  0.68756575  0.50027831  0.35618795  1
  O  O66  1  0.05152059  0.48092430  0.85454926  1
  O  O67  1  0.56139105  0.49803186  0.85404363  1
  O  O68  1  0.18099158  0.87513267  0.85889880  1
  O  O69  1  0.68409877  0.88324836  0.85929951  1
  O  O70  1  0.24829711  0.62987875  0.85474570  1
  O  O71  1  0.75974788  0.63860671  0.86071504  1
  O  O72  1  0.00755463  0.83550925  0.40908884  1
  O  O73  1  0.51146342  0.81885665  0.40936836  1
  O  O74  1  0.40159148  0.98144772  0.41021430  1
  O  O75  1  0.91300941  0.98812067  0.40526339  1
  O  O76  1  0.08210658  0.18014826  0.40679503  1
  O  O77  1  0.58376427  0.16987845  0.40929741  1
  O  O78  1  0.00908418  0.16845990  0.90837182  1
  O  O79  1  0.50897087  0.17581440  0.90450441  1
  O  O80  1  0.08561488  0.97513497  0.91093047  1
  O  O81  1  0.58735690  0.97493325  0.91176385  1
  O  O82  1  0.41404496  0.84450756  0.90650025  1
  O  O83  1  0.90364887  0.82716292  0.91006910  1
  O  O84  1  0.48894586  0.14422320  0.58976481  1
  O  O85  1  0.98561904  0.16417913  0.58765833  1
  O  O86  1  0.09480567  0.02740315  0.58844270  1
  O  O87  1  0.60000280  0.03096033  0.58664907  1
  O  O88  1  0.41571989  0.80249510  0.58756076  1
  O  O89  1  0.91963758  0.80613345  0.58747523  1
  O  O90  1  0.48325235  0.80237199  0.08902715  1
  O  O91  1  0.98168015  0.80003925  0.08731977  1
  O  O92  1  0.41575463  0.02345064  0.08691803  1
  O  O93  1  0.91383502  0.02207251  0.08680795  1
  O  O94  1  0.08319029  0.14340368  0.09132953  1
  O  O95  1  0.58498693  0.14355820  0.09284417  1
  O  O96  1  0.34244538  0.15189722  0.74373870  1
  O  O97  1  0.84289283  0.16382113  0.74358384  1
  O  O98  1  0.23981334  0.30651689  0.74396995  1
  O  O99  1  0.73874070  0.31036750  0.74456168  1
  O  O100  1  0.41607102  0.52528755  0.74739663  1
  O  O101  1  0.91965546  0.52713313  0.74578157  1
  O  O102  1  0.34270828  0.51687419  0.24524934  1
  O  O103  1  0.84701035  0.52506493  0.24772504  1
  O  O104  1  0.42227472  0.30835601  0.24160139  1
  O  O105  1  0.92065686  0.30879212  0.24324865  1
  O  O106  1  0.24292726  0.16019264  0.24803124  1
  O  O107  1  0.73401027  0.14821471  0.24338726  1
  O  O108  1  0.31877932  0.48819645  0.92087320  1
  O  O109  1  0.82236289  0.50523862  0.92201011  1
  O  O110  1  0.41734586  0.34638469  0.92585759  1
  O  O111  1  0.91358153  0.34824232  0.92712956  1
  O  O112  1  0.24472057  0.13278715  0.91849141  1
  O  O113  1  0.74833851  0.13796891  0.92027047  1
  O  O114  1  0.31819438  0.13627838  0.42158393  1
  O  O115  1  0.82439490  0.15664417  0.42448743  1
  O  O116  1  0.25853391  0.34601236  0.42742948  1
  O  O117  1  0.75637175  0.35734721  0.42385264  1
  O  O118  1  0.43078518  0.49981497  0.42226451  1
  O  O119  1  0.92518826  0.49092918  0.42401041  1
  O  O120  1  0.17605686  0.50238436  0.07944464  1
  O  O121  1  0.68044509  0.50720479  0.07799956  1
  O  O122  1  0.06911298  0.65291695  0.07519852  1
  O  O123  1  0.56899406  0.65478948  0.07624870  1
  O  O124  1  0.25534482  0.87032959  0.07885275  1
  O  O125  1  0.75542664  0.86935530  0.07632606  1
  O  O126  1  0.17765773  0.86626197  0.57845487  1
  O  O127  1  0.67892278  0.86700232  0.57630768  1
  O  O128  1  0.25546417  0.64927115  0.57610537  1
  O  O129  1  0.75823857  0.64734437  0.57934869  1
  O  O130  1  0.06619152  0.48722626  0.57852610  1
  O  O131  1  0.57638893  0.49681036  0.57923480  1
  O  O132  1  0.15037221  0.81143583  0.26067535  1
  O  O133  1  0.64986569  0.82605459  0.25597597  1
  O  O134  1  0.25620932  0.69613007  0.25572330  1
  O  O135  1  0.75502282  0.69387670  0.25570609  1
  O  O136  1  0.07939499  0.46328486  0.25300373  1
  O  O137  1  0.58281829  0.47364172  0.25524768  1
  O  O138  1  0.15379771  0.48834993  0.75591683  1
  O  O139  1  0.65263894  0.48414916  0.75774479  1
  O  O140  1  0.09628415  0.70562627  0.76016528  1
  O  O141  1  0.59144904  0.70794600  0.75524919  1
  O  O142  1  0.26589752  0.83717259  0.75584589  1
  O  O143  1  0.75609195  0.81451153  0.76149560  1
loop_
_geom_bond_atom_site_label_1
_geom_bond_atom_site_label_2
_geom_bond_distance
_geom_bond_site_symmetry_2
Na0 O134 2.329400 1_545
Na0 O106 2.331407 1_555
Na0 O104 2.396638 1_555
Na0 O132 2.542937 1_545
Na0 O32 2.582981 1_555
Na0 O62 2.690078 1_545
Na0 O18 2.760466 1_545
Na0 O4 2.887547 1_555
Na1 O102 2.290207 1_555
Na1 O106 2.417494 1_555
Na1 O136 2.463401 1_555
Na1 O34 2.477373 1_555
Na1 O134 2.500090 1_555
Na1 O64 2.617150 1_555
Na1 O0 2.868969 1_555
Na1 O20 2.902361 1_555
Na2 O103 2.412621 1_555
Na2 O137 2.417987 1_555
Na2 O107 2.448283 1_555
Na2 O35 2.453136 1_555
Na2 O135 2.481580 1_555
Na2 O65 2.681031 1_555
Na2 O21 2.760454 1_555
Na2 O1 2.892765 1_555
Na3 O103 2.323975 1_555
Na3 O132 2.324450 1_655
Na3 O105 2.494440 1_555
Na3 O136 2.527709 1_655
Na3 O60 2.631127 1_655
Na3 O22 2.646073 1_655
Na3 O31 2.660179 1_555
Na3 O3 2.835214 1_555
Na4 O100 2.296355 1_555
Na4 O98 2.420972 1_555
Na4 O142 2.429496 1_555
Na4 O138 2.470056 1_555
Na4 O70 2.544989 1_555
Na4 O28 2.679972 1_555
Na4 O8 2.825090 1_555
Na4 O12 2.835360 1_555
Na5 O101 2.350975 1_555
Na5 O143 2.375089 1_555
Na5 O99 2.399315 1_555
Na5 O139 2.489800 1_555
Na5 O71 2.642074 1_555
Na5 O29 2.693347 1_555
Na5 O13 2.738892 1_555
Na5 O9 2.882759 1_555
Na6 O97 2.359318 1_555
Na6 O101 2.370214 1_555
Na6 O138 2.423436 1_655
Na6 O66 2.518487 1_655
Na6 O140 2.613247 1_655
Na6 O25 2.695511 1_555
Na6 O14 2.747288 1_655
Na6 O11 2.762783 1_555
Na7 O100 2.376146 1_555
Na7 O139 2.396647 1_555
Na7 O96 2.429523 1_555
Na7 O24 2.433022 1_555
Na7 O141 2.554206 1_555
Na7 O67 2.653993 1_555
Na7 O15 2.761565 1_555
Na7 O10 2.871802 1_555
Na8 O140 2.300453 1_545
Na8 O98 2.309093 1_555
Na8 O96 2.412083 1_555
Na8 O142 2.527197 1_545
Na8 O26 2.637793 1_555
Na8 O68 2.641049 1_545
Na8 O16 2.706422 1_545
Na8 O6 2.769107 1_555
Na9 O141 2.314090 1_545
Na9 O99 2.329160 1_555
Na9 O97 2.371105 1_555
Na9 O143 2.545158 1_545
Na9 O69 2.616569 1_545
Na9 O27 2.674089 1_555
Na9 O7 2.771129 1_555
Na9 O17 2.899038 1_545
Na10 O131 2.262214 1_555
Na10 O129 2.402808 1_555
Na10 O57 2.411189 1_555
Na10 O87 2.414222 1_555
Na10 O84 2.439959 1_555
Na10 O15 2.691170 1_555
Na10 O43 2.838473 1_555
Na10 O29 2.959052 1_555
Na11 O120 2.305095 1_555
Na11 O90 2.409348 1_555
Na11 O124 2.457441 1_555
Na11 O48 2.495877 1_554
Na11 O92 2.550867 1_565
Na11 O18 2.740775 1_555
Na11 O38 2.747128 1_555
Na11 O34 2.830324 1_555
Na12 O121 2.267624 1_555
Na12 O91 2.355753 1_555
Na12 O125 2.471432 1_555
Na12 O93 2.528280 1_565
Na12 O19 2.628991 1_555
Na12 O49 2.705747 1_554
Na12 O39 2.785779 1_555
Na12 O35 2.785926 1_555
Na13 O108 2.336647 1_555
Na13 O78 2.389433 1_555
Na13 O112 2.536071 1_555
Na13 O80 2.551797 1_545
Na13 O36 2.571026 1_556
Na13 O50 2.605202 1_555
Na13 O6 2.716999 1_555
Na13 O70 2.818416 1_555
Na14 O76 2.356113 1_655
Na14 O119 2.407267 1_555
Na14 O75 2.433107 1_545
Na14 O115 2.520779 1_555
Na14 O47 2.629283 1_555
Na14 O56 2.651911 1_655
Na14 O5 2.687110 1_555
Na14 O60 2.771688 1_655
Na15 O114 2.356235 1_555
Na15 O76 2.408290 1_555
Na15 O72 2.419596 1_545
Na15 O116 2.432382 1_555
Na15 O58 2.641987 1_545
Na15 O42 2.648226 1_555
Na15 O0 2.670821 1_555
Na15 O62 2.763550 1_545
Na16 O77 2.282053 1_555
Na16 O73 2.387354 1_545
Na16 O115 2.446184 1_555
Na16 O117 2.497645 1_555
Na16 O1 2.639570 1_555
Na16 O63 2.689496 1_545
Na16 O43 2.720757 1_555
Na16 O59 2.805582 1_545
Na17 O117 2.372781 1_555
Na17 O72 2.449382 1_655
Na17 O75 2.456074 1_555
Na17 O119 2.539197 1_555
Na17 O45 2.630625 1_555
Na17 O55 2.666614 1_555
Na17 O3 2.677575 1_555
Na17 O65 2.787177 1_555
Na18 O89 2.453515 1_445
Na18 O85 2.465230 1_455
Na18 O86 2.474394 1_555
Na18 O76 2.548493 1_555
Na18 O72 2.549470 1_545
Na18 O75 2.607788 1_445
Na19 O84 2.399120 1_555
Na19 O77 2.458418 1_555
Na19 O74 2.496269 1_545
Na19 O88 2.515804 1_545
Na19 O87 2.626481 1_555
Na19 O73 2.648665 1_545
Na20 O78 2.408426 1_555
Na20 O94 2.427874 1_556
Na20 O93 2.486366 1_456
Na20 O80 2.527904 1_545
Na20 O91 2.554745 1_446
Na20 O83 2.616228 1_445
Na21 O79 2.452527 1_555
Na21 O92 2.495828 1_556
Na21 O81 2.512805 1_545
Na21 O95 2.518965 1_556
Na21 O82 2.525664 1_545
Na21 O90 2.636388 1_546
Na22 O108 2.394156 1_555
Na22 O100 2.410213 1_555
Na22 O110 2.442376 1_555
Na22 O112 2.530289 1_555
Na22 O98 2.577664 1_555
Na22 O96 2.654335 1_555
Na23 O101 2.471699 1_555
Na23 O111 2.494863 1_555
Na23 O113 2.506147 1_555
Na23 O97 2.509653 1_555
Na23 O99 2.512262 1_555
Na23 O109 2.560276 1_555
Na24 O102 2.324185 1_555
Na24 O106 2.493870 1_555
Na24 O116 2.527021 1_555
Na24 O118 2.541297 1_555
Na24 O104 2.569780 1_555
Na24 O114 2.664384 1_555
Na25 O103 2.417448 1_555
Na25 O117 2.486294 1_555
Na25 O115 2.519347 1_555
Na25 O105 2.535896 1_555
Na25 O119 2.573638 1_555
Na25 O107 2.585083 1_555
Na26 O120 2.351431 1_555
Na26 O124 2.477875 1_555
Na26 O134 2.536268 1_555
Na26 O122 2.556137 1_555
Na26 O136 2.578334 1_555
Na26 O132 2.632093 1_555
Na27 O121 2.441973 1_555
Na27 O123 2.523079 1_555
Na27 O137 2.534252 1_555
Na27 O135 2.540602 1_555
Na27 O125 2.549792 1_555
Na27 O133 2.561913 1_555
Na28 O138 2.494695 1_555
Na28 O126 2.502186 1_555
Na28 O130 2.513696 1_555
Na28 O128 2.518715 1_555
Na28 O140 2.547630 1_555
Na28 O142 2.658255 1_555
Na29 O131 2.391156 1_555
Na29 O141 2.482404 1_555
Na29 O127 2.512319 1_555
Na29 O129 2.541573 1_555
Na29 O139 2.566939 1_555
Na29 O143 2.673096 1_555
Mg0 O2 1.861979 1_555
Mg0 O77 1.966099 1_565
Mg0 O74 2.036982 1_555
Mg0 O4 2.039307 1_565
Mg0 O1 2.056140 1_565
Mg0 O73 2.104725 1_555
Mg1 O24 1.881231 1_555
Mg1 O98 1.989393 1_555
Mg1 O28 2.005536 1_555
Mg1 O100 2.050308 1_555
Mg1 O26 2.126512 1_555
Mg1 O96 2.162571 1_555
Mg2 O97 1.974800 1_555
Mg2 O99 1.979293 1_555
Mg2 O25 2.019485 1_555
Mg2 O101 2.031955 1_555
Mg2 O29 2.046784 1_555
Mg2 O27 2.123013 1_555
Mg3 O34 1.895427 1_555
Mg3 O102 1.967884 1_555
Mg3 O30 2.025232 1_555
Mg3 O106 2.047638 1_555
Mg3 O32 2.081376 1_555
Mg3 O104 2.129640 1_555
Mg4 O35 1.887572 1_555
Mg4 O33 2.025057 1_555
Mg4 O31 2.036832 1_555
Mg4 O107 2.094635 1_555
Mg4 O103 2.096588 1_555
Mg4 O105 2.134679 1_555
Mg5 O48 1.936245 1_554
Mg5 O50 1.938609 1_554
Mg5 O120 1.970094 1_555
Mg5 O52 2.084636 1_554
Mg5 O122 2.111638 1_555
Mg5 O124 2.271535 1_555
Mg6 O51 1.876023 1_554
Mg6 O121 1.961803 1_555
Mg6 O123 2.057409 1_555
Mg6 O49 2.077620 1_554
Mg6 O53 2.081861 1_554
Mg6 O125 2.244344 1_555
Mg7 O56 1.925785 1_555
Mg7 O58 1.927246 1_555
Mg7 O54 2.041052 1_555
Mg7 O130 2.084109 1_555
Mg7 O128 2.112172 1_555
Mg7 O126 2.181220 1_555
Mg8 O57 1.921127 1_555
Mg8 O55 1.962834 1_555
Mg8 O131 1.988202 1_555
Mg8 O59 2.027897 1_555
Mg8 O127 2.125838 1_555
Mg8 O129 2.180301 1_555
Ge0 O0 1.813901 1_565
Ge0 O72 1.842703 1_555
Ge0 O3 1.856726 1_455
Ge0 O75 1.878823 1_455
Ge0 O76 1.931543 1_565
Ge0 O5 2.133484 1_465
Ge1 O11 1.780451 1_555
Ge1 O9 1.826145 1_545
Ge1 O6 1.833477 1_655
Ge1 O78 1.863246 1_655
Ge1 O83 2.084361 1_545
Ge1 O80 2.197838 1_645
Ge2 O82 1.808489 1_555
Ge2 O7 1.819813 1_565
Ge2 O79 1.828690 1_565
Ge2 O8 1.836808 1_555
Ge2 O81 2.026000 1_555
Ge2 O10 2.124474 1_565
Ge3 O14 1.801397 1_555
Ge3 O16 1.801679 1_545
Ge3 O13 1.811806 1_445
Ge3 O86 2.136245 1_555
Ge3 O85 2.211319 1_455
Ge3 O89 2.253508 1_445
Ge4 O15 1.813369 1_555
Ge4 O17 1.816185 1_545
Ge4 O84 1.846860 1_555
Ge4 O12 1.982488 1_545
Ge4 O87 2.127123 1_555
Ge4 O88 2.243256 1_545
Ge5 O22 1.796050 1_555
Ge5 O94 1.807732 1_565
Ge5 O19 1.852403 1_455
Ge5 O20 2.041214 1_565
Ge5 O91 2.076051 1_455
Ge5 O93 2.265538 1_465
Ge6 O95 1.804155 1_555
Ge6 O18 1.811145 1_545
Ge6 O21 2.024191 1_555
Ge6 O92 2.062674 1_555
Ge6 O23 2.067653 1_545
Ge6 O90 2.087698 1_545
Ge7 O110 1.827700 1_555
Ge7 O36 1.853283 1_556
Ge7 O108 1.871290 1_555
Ge7 O38 2.001815 1_556
Ge7 O40 2.133036 1_556
Ge7 O112 2.238003 1_555
Ge8 O37 1.776955 1_556
Ge8 O111 1.820057 1_555
Ge8 O41 1.940322 1_556
Ge8 O113 2.075481 1_555
Ge8 O39 2.090007 1_556
Ge8 O109 2.131744 1_555
Ge9 O46 1.789420 1_555
Ge9 O116 1.886933 1_555
Ge9 O44 1.932729 1_555
Ge9 O42 2.030660 1_555
Ge9 O118 2.052481 1_555
Ge9 O114 2.184921 1_555
Ge10 O117 1.848335 1_555
Ge10 O119 1.850666 1_555
Ge10 O115 1.858486 1_555
Ge10 O43 2.035520 1_555
Ge10 O45 2.081894 1_555
Ge10 O47 2.096378 1_555
Ge11 O64 1.842367 1_555
Ge11 O134 1.888837 1_555
Ge11 O60 1.899922 1_555
Ge11 O132 1.924295 1_555
Ge11 O62 1.988519 1_555
Ge11 O136 2.260947 1_555
Ge12 O63 1.795374 1_555
Ge12 O65 1.819726 1_555
Ge12 O135 1.852010 1_555
Ge12 O61 2.095583 1_555
Ge12 O133 2.140948 1_555
Ge12 O137 2.286241 1_555
Ge13 O66 1.793991 1_555
Ge13 O70 1.849193 1_555
Ge13 O138 1.913610 1_555
Ge13 O140 1.933306 1_555
Ge13 O68 2.094779 1_555
Ge13 O142 2.306064 1_555
Ge14 O67 1.802723 1_555
Ge14 O139 1.869467 1_555
Ge14 O141 1.882491 1_555
Ge14 O143 1.910504 1_555
Ge14 O69 2.118923 1_555
Ge14 O71 2.190878 1_555
O0 Si0 1.639440 1_545
O1 S0 1.473381 1_545
O2 Si1 1.564872 1_555
O3 Si2 1.639976 1_555
O4 S2 1.466932 1_555
O5 S1 1.482211 1_555
O6 Si3 1.634817 1_555
O7 Si4 1.610640 1_555
O8 Si6 1.616439 1_555
O9 Si5 1.630730 1_655
O10 S3 1.467093 1_545
O11 Si7 1.620127 1_545
O12 S3 1.516557 1_555
O13 Si7 1.677061 1_555
O14 Si3 1.666983 1_555
O15 Si4 1.669884 1_555
O16 Si5 1.674542 1_555
O17 Si6 1.688192 1_555
O18 Si1 1.744492 1_555
O19 Si2 1.673736 1_555
O20 S1 1.493605 1_455
O21 S2 1.529308 1_555
O22 Si0 1.656277 1_555
O23 S0 1.502164 1_555
O24 Si8 1.578608 1_555
O25 S4 1.461375 1_555
O26 S5 1.462824 1_555
O27 S6 1.456089 1_555
O28 S7 1.462866 1_555
O29 S8 1.471511 1_555
O30 S9 1.467515 1_555
O31 S10 1.472356 1_555
O32 S11 1.471100 1_555
O33 S12 1.471282 1_555
O34 Si9 1.590530 1_555
O35 Si10 1.602518 1_555
O36 Si9 1.729244 1_555
O37 Si10 1.715684 1_555
O38 S9 1.523150 1_555
O39 S10 1.505927 1_555
O40 S11 1.482641 1_555
O41 S12 1.522056 1_555
O42 S5 1.533492 1_555
O43 S6 1.547956 1_555
O44 S7 1.535077 1_555
O45 S8 1.538445 1_555
O46 Si8 1.718223 1_555
O47 S4 1.540031 1_555
O48 Si11 1.581461 1_555
O49 S13 1.458888 1_555
O50 Si12 1.576680 1_555
O51 Si13 1.560427 1_555
O52 S14 1.480508 1_555
O53 S15 1.447843 1_555
O54 S16 1.441418 1_555
O55 Si14 1.569928 1_555
O56 Si15 1.573063 1_555
O57 Si16 1.565480 1_555
O58 Si17 1.569636 1_555
O59 S17 1.462624 1_555
O60 Si17 1.673774 1_555
O61 S17 1.521638 1_555
O62 S16 1.553044 1_555
O63 Si14 1.677226 1_555
O64 Si15 1.675119 1_555
O65 Si16 1.711924 1_555
O66 Si12 1.681947 1_555
O67 Si13 1.704809 1_555
O68 S14 1.521996 1_555
O69 S15 1.515566 1_555
O70 Si11 1.726473 1_555
O71 S13 1.505345 1_555
O72 Si17 1.650037 1_555
O73 S17 1.474882 1_555
O74 S16 1.459141 1_555
O75 Si14 1.644697 1_555
O76 Si15 1.679571 1_555
O77 Si16 1.600679 1_555
O78 Si12 1.687957 1_555
O79 Si13 1.649839 1_555
O80 S14 1.500112 1_555
O81 S15 1.492524 1_555
O82 Si11 1.625646 1_555
O83 S13 1.502621 1_555
O84 Si8 1.756658 1_555
O85 S4 1.514647 1_555
O86 S5 1.527642 1_555
O87 S6 1.513028 1_555
O88 S7 1.492800 1_555
O89 S8 1.495602 1_555
O90 S9 1.531009 1_555
O91 S10 1.530952 1_555
O92 S11 1.544589 1_555
O93 S12 1.501160 1_555
O94 Si9 1.717288 1_555
O95 Si10 1.707059 1_555
O96 S3 1.472802 1_545
O97 Si7 1.593697 1_545
O98 Si3 1.598090 1_555
O99 Si4 1.596434 1_555
O100 Si6 1.606669 1_555
O101 Si5 1.600000 1_655
O102 Si1 1.587943 1_555
O103 Si2 1.631637 1_555
O104 S2 1.461740 1_555
O105 S1 1.478514 1_555
O106 Si0 1.595268 1_545
O107 S0 1.486217 1_545
O108 Si11 1.687565 1_555
O109 S13 1.510660 1_555
O110 Si13 1.696023 1_555
O111 Si12 1.676087 1_655
O112 S14 1.487127 1_545
O113 S15 1.513378 1_545
O114 S16 1.513947 1_545
O115 Si14 1.666316 1_545
O116 Si15 1.710782 1_555
O117 Si16 1.725364 1_555
O118 S17 1.511580 1_555
O119 Si17 1.674929 1_655
O120 Si9 1.612377 1_555
O121 Si10 1.607337 1_555
O122 S10 1.460384 1_455
O123 S9 1.442470 1_555
O124 S11 1.480787 1_565
O125 S12 1.467614 1_565
O126 S5 1.467992 1_565
O127 S6 1.459544 1_565
O128 S7 1.469402 1_555
O129 S8 1.471220 1_555
O130 S4 1.466706 1_455
O131 Si8 1.610880 1_555
O132 Si0 1.663938 1_555
O133 S0 1.502678 1_555
O134 Si1 1.735440 1_555
O135 Si2 1.683189 1_555
O136 S1 1.502336 1_455
O137 S2 1.500935 1_555
O138 Si3 1.668508 1_555
O139 Si4 1.658484 1_555
O140 Si5 1.680152 1_555
O141 Si6 1.667323 1_555
O142 S3 1.489926 1_555
O143 Si7 1.657173 1_555
