# generated using pymatgen
data_La2MgFe2(MoO6)2
_symmetry_space_group_name_H-M   'P 1'
_cell_length_a   5.57168828
_cell_length_b   5.47759360
_cell_length_c   7.91094932
_cell_angle_alpha   90.31075336
_cell_angle_beta   90.26554878
_cell_angle_gamma   91.93148103
_symmetry_Int_Tables_number   1
_chemical_formula_structural   La2MgFe2(MoO6)2
_chemical_formula_sum   'La2 Mg1 Fe2 Mo2 O12'
_cell_volume   241.29424975
_cell_formula_units_Z   1
loop_
 _symmetry_equiv_pos_site_id
 _symmetry_equiv_pos_as_xyz
  1  'x, y, z'
loop_
 _atom_site_type_symbol
 _atom_site_label
 _atom_site_symmetry_multiplicity
 _atom_site_fract_x
 _atom_site_fract_y
 _atom_site_fract_z
 _atom_site_occupancy
  La  La0  1  0.04008400  0.00450600  0.24817400  1
  La  La1  1  0.44751300  0.48601600  0.75050900  1
  Mg  Mg0  1  0.96038900  0.98649600  0.74491300  1
  Fe  Fe0  1  0.50413100  0.99363000  0.00182500  1
  Fe  Fe1  1  0.98704900  0.50047700  0.49915600  1
  Mo  Mo0  1  0.50816400  0.99214000  0.49561200  1
  Mo  Mo1  1  0.99074700  0.50386600  0.00283400  1
  O  O0  1  0.01516000  0.60938600  0.74954700  1
  O  O1  1  0.19148300  0.18705900  0.93988400  1
  O  O2  1  0.19294400  0.19386900  0.55840000  1
  O  O3  1  0.28624500  0.69151300  0.02607300  1
  O  O4  1  0.30278700  0.71274500  0.47822900  1
  O  O5  1  0.47533500  0.06247500  0.24860600  1
  O  O6  1  0.56019800  0.91967700  0.75124000  1
  O  O7  1  0.69939600  0.28950100  0.54568800  1
  O  O8  1  0.71676200  0.29585300  0.95290100  1
  O  O9  1  0.81546100  0.81619200  0.47005500  1
  O  O10  1  0.80469000  0.80398800  0.03483300  1
  O  O11  1  0.98955500  0.42981500  0.25189700  1
loop_
_geom_bond_atom_site_label_1
_geom_bond_atom_site_label_2
_geom_bond_distance
_geom_bond_site_symmetry_2
La0 O11 2.356063 1_455
La0 O10 2.374285 1_445
La0 O9 2.379991 1_445
La0 O5 2.435132 1_555
La0 O1 2.765540 1_554
La0 O2 2.778082 1_555
La0 O3 2.838266 1_545
La0 O4 2.858892 1_545
La1 O7 2.420274 1_555
La1 O6 2.436416 1_555
La1 O8 2.449539 1_555
La1 O0 2.523751 1_555
La1 O2 2.585142 1_555
La1 O1 2.617239 1_555
La1 O3 2.624196 1_556
La1 O4 2.629207 1_555
Mg0 O0 2.098717 1_655
Mg0 O6 2.248205 1_555
Mg0 O2 2.254541 1_665
Mg0 O1 2.260901 1_665
Mg0 O9 2.482171 1_555
Mg0 O10 2.645216 1_556
Mg0 O7 2.742833 1_565
Mg0 O8 2.750783 1_565
Fe0 O5 1.994571 1_565
Fe0 O10 2.016869 1_555
Fe0 O3 2.029621 1_555
Fe0 O8 2.042760 1_564
Fe0 O6 2.048661 1_554
Fe0 O1 2.125870 1_564
Fe1 O7 1.981144 1_555
Fe1 O11 1.992124 1_555
Fe1 O9 2.017774 1_555
Fe1 O0 2.069326 1_655
Fe1 O4 2.083504 1_655
Fe1 O2 2.118902 1_655
Mo0 O4 1.883798 1_555
Mo0 O7 1.953806 1_565
Mo0 O5 2.002451 1_565
Mo0 O9 2.003388 1_555
Mo0 O6 2.083786 1_555
Mo0 O2 2.164554 1_565
Mo1 O8 1.912317 1_554
Mo1 O3 1.918869 1_655
Mo1 O10 1.988488 1_555
Mo1 O11 2.013793 1_555
Mo1 O0 2.092211 1_654
Mo1 O1 2.153353 1_654
