# generated using pymatgen
data_Na2CaSnP2SO12
_symmetry_space_group_name_H-M   'P 1'
_cell_length_a   9.12558077
_cell_length_b   9.17161098
_cell_length_c   22.69018129
_cell_angle_alpha   90.87684469
_cell_angle_beta   90.00000000
_cell_angle_gamma   119.83411879
_symmetry_Int_Tables_number   1
_chemical_formula_structural   Na2CaSnP2SO12
_chemical_formula_sum   'Na12 Ca6 Sn6 P12 S6 O72'
_cell_volume   1647.14054774
_cell_formula_units_Z   6
loop_
 _symmetry_equiv_pos_site_id
 _symmetry_equiv_pos_as_xyz
  1  'x, y, z'
loop_
 _atom_site_type_symbol
 _atom_site_label
 _atom_site_symmetry_multiplicity
 _atom_site_fract_x
 _atom_site_fract_y
 _atom_site_fract_z
 _atom_site_occupancy
  Na  Na0  1  0.99624239  0.63965087  0.24207474  1
  Na  Na1  1  0.64340848  0.63965087  0.74207474  1
  Na  Na2  1  0.66290939  0.97298387  0.57540774  1
  Na  Na3  1  0.31007548  0.97298387  0.07540774  1
  Na  Na4  1  0.32957539  0.30631787  0.90874174  1
  Na  Na5  1  0.97674148  0.30631787  0.40874174  1
  Na  Na6  1  0.99242108  0.95854874  0.49835252  1
  Na  Na7  1  0.96612766  0.95854874  0.99835252  1
  Na  Na8  1  0.65908808  0.29188174  0.83168552  1
  Na  Na9  1  0.63279466  0.29188174  0.33168552  1
  Na  Na10  1  0.32575408  0.62521574  0.16501952  1
  Na  Na11  1  0.29946066  0.62521574  0.66501952  1
  Ca  Ca0  1  0.99953094  0.99693027  0.35509327  1
  Ca  Ca1  1  0.99739933  0.99693027  0.85509327  1
  Ca  Ca2  1  0.66619794  0.33026327  0.68842627  1
  Ca  Ca3  1  0.66406633  0.33026327  0.18842627  1
  Ca  Ca4  1  0.33286394  0.66359727  0.02176027  1
  Ca  Ca5  1  0.33073233  0.66359727  0.52176027  1
  Sn  Sn0  1  0.99909806  0.00855651  0.65039304  1
  Sn  Sn1  1  0.00945844  0.00855651  0.15039304  1
  Sn  Sn2  1  0.66576506  0.34188951  0.98372604  1
  Sn  Sn3  1  0.67612544  0.34188951  0.48372604  1
  Sn  Sn4  1  0.33243106  0.67522351  0.31706004  1
  Sn  Sn5  1  0.34279144  0.67522351  0.81706004  1
  P  P0  1  0.29353110  0.98641709  0.25040533  1
  P  P1  1  0.01664017  0.30661926  0.25539566  1
  P  P2  1  0.28997909  0.30661926  0.75539566  1
  P  P3  1  0.69288599  0.98641709  0.75040533  1
  P  P4  1  0.96019810  0.31975009  0.58373833  1
  P  P5  1  0.68330717  0.63995226  0.58872866  1
  P  P6  1  0.95664609  0.63995226  0.08872866  1
  P  P7  1  0.35955299  0.31975009  0.08373833  1
  P  P8  1  0.62686410  0.65308409  0.91707233  1
  P  P9  1  0.34997317  0.97328626  0.92206266  1
  P  P10  1  0.62331209  0.97328626  0.42206266  1
  P  P11  1  0.02621899  0.65308409  0.41707233  1
  S  S0  1  0.69463286  0.71672248  0.24902064  1
  S  S1  1  0.02208962  0.71672248  0.74902064  1
  S  S2  1  0.36129986  0.05005548  0.58235364  1
  S  S3  1  0.68875662  0.05005548  0.08235364  1
  S  S4  1  0.02796586  0.38338948  0.91568764  1
  S  S5  1  0.35542262  0.38338948  0.41568764  1
  O  O0  1  0.19596595  0.99349394  0.30255236  1
  O  O1  1  0.79041613  0.79938461  0.30215791  1
  O  O2  1  0.00063102  0.21665654  0.31217906  1
  O  O3  1  0.21602551  0.21665654  0.81217906  1
  O  O4  1  0.00896848  0.79938461  0.80215791  1
  O  O5  1  0.79752798  0.99349394  0.80255236  1
  O  O6  1  0.77304773  0.95818056  0.69084505  1
  O  O7  1  0.17814452  0.20971308  0.69883448  1
  O  O8  1  0.04176846  0.81840343  0.69459096  1
  O  O9  1  0.77663497  0.81840343  0.19459096  1
  O  O10  1  0.03156856  0.20971308  0.19883448  1
  O  O11  1  0.18513283  0.95818056  0.19084505  1
  O  O12  1  0.86263295  0.32682694  0.63588536  1
  O  O13  1  0.45708313  0.13271761  0.63549091  1
  O  O14  1  0.66729802  0.54998954  0.64551206  1
  O  O15  1  0.88269251  0.54998954  0.14551206  1
  O  O16  1  0.67563548  0.13271761  0.13549091  1
  O  O17  1  0.46419498  0.32682694  0.13588536  1
  O  O18  1  0.43971473  0.29151356  0.02417805  1
  O  O19  1  0.84481152  0.54304608  0.03216748  1
  O  O20  1  0.70843546  0.15173643  0.02792396  1
  O  O21  1  0.44330197  0.15173643  0.52792396  1
  O  O22  1  0.69823556  0.54304608  0.53216748  1
  O  O23  1  0.85179983  0.29151356  0.52417805  1
  O  O24  1  0.52929895  0.66016094  0.96921936  1
  O  O25  1  0.12374913  0.46605161  0.96882491  1
  O  O26  1  0.33396402  0.88332354  0.97884606  1
  O  O27  1  0.54935851  0.88332354  0.47884606  1
  O  O28  1  0.34230148  0.46605161  0.46882491  1
  O  O29  1  0.13086098  0.66016094  0.46921936  1
  O  O30  1  0.10638073  0.62484756  0.35751205  1
  O  O31  1  0.51147752  0.87638008  0.36550148  1
  O  O32  1  0.37510146  0.48507043  0.36125796  1
  O  O33  1  0.10996797  0.48507043  0.86125796  1
  O  O34  1  0.36490156  0.87638008  0.86550148  1
  O  O35  1  0.51846583  0.62484756  0.85751205  1
  O  O36  1  0.99536824  0.79992440  0.41456361  1
  O  O37  1  0.80604312  0.01216944  0.41558729  1
  O  O38  1  0.20454098  0.21667934  0.41082511  1
  O  O39  1  0.01213836  0.21667934  0.91082511  1
  O  O40  1  0.20612632  0.01216944  0.91558729  1
  O  O41  1  0.80455616  0.79992440  0.91456361  1
  O  O42  1  0.96357772  0.14666343  0.58473986  1
  O  O43  1  0.18877278  0.03380878  0.58438779  1
  O  O44  1  0.85591311  0.81617724  0.58800132  1
  O  O45  1  0.96026414  0.81617724  0.08800132  1
  O  O46  1  0.84503600  0.03380878  0.08438779  1
  O  O47  1  0.18308571  0.14666343  0.08473986  1
  O  O48  1  0.66203524  0.13325740  0.74789661  1
  O  O49  1  0.47271012  0.34550244  0.74892029  1
  O  O50  1  0.87120798  0.55001234  0.74415811  1
  O  O51  1  0.67880536  0.55001234  0.24415811  1
  O  O52  1  0.87279332  0.34550244  0.24892029  1
  O  O53  1  0.47122316  0.13325740  0.24789661  1
  O  O54  1  0.63024472  0.47999643  0.91807286  1
  O  O55  1  0.85543978  0.36714178  0.91772079  1
  O  O56  1  0.52258011  0.14951024  0.92133432  1
  O  O57  1  0.62693114  0.14951024  0.42133432  1
  O  O58  1  0.51170300  0.36714178  0.41772079  1
  O  O59  1  0.84975271  0.47999643  0.41807286  1
  O  O60  1  0.32870124  0.46659140  0.08123061  1
  O  O61  1  0.13937612  0.67883644  0.08225429  1
  O  O62  1  0.53787398  0.88334634  0.07749211  1
  O  O63  1  0.34547136  0.88334634  0.57749211  1
  O  O64  1  0.53945932  0.67883644  0.58225429  1
  O  O65  1  0.13788916  0.46659140  0.58123061  1
  O  O66  1  0.29691072  0.81333043  0.25140686  1
  O  O67  1  0.52210578  0.70047578  0.25105479  1
  O  O68  1  0.18924611  0.48284424  0.25466832  1
  O  O69  1  0.29359714  0.48284424  0.75466832  1
  O  O70  1  0.17836900  0.70047578  0.75105479  1
  O  O71  1  0.51641871  0.81333043  0.75140686  1
loop_
_geom_bond_atom_site_label_1
_geom_bond_atom_site_label_2
_geom_bond_distance
_geom_bond_site_symmetry_2
Na0 O52 2.358030 1_555
Na0 O15 2.376463 1_555
Na0 O66 2.398233 1_655
Na0 O51 2.588661 1_555
Na0 O68 2.790149 1_655
Na0 O11 2.819691 1_655
Na0 O30 2.834779 1_655
Na1 O49 2.358029 1_555
Na1 O14 2.376465 1_555
Na1 O71 2.398241 1_555
Na1 O50 2.588670 1_555
Na1 O69 2.790157 1_555
Na1 O6 2.819691 1_555
Na1 O35 2.834782 1_555
Na2 O64 2.358023 1_555
Na2 O27 2.376443 1_555
Na2 O42 2.398233 1_565
Na2 O63 2.588672 1_555
Na2 O44 2.790149 1_555
Na2 O23 2.819691 1_565
Na2 O6 2.834779 1_555
Na3 O61 2.358024 1_555
Na3 O26 2.376438 1_554
Na3 O47 2.398241 1_565
Na3 O62 2.588655 1_555
Na3 O45 2.790157 1_455
Na3 O18 2.819691 1_565
Na3 O11 2.834782 1_555
Na4 O40 2.358030 1_555
Na4 O3 2.376463 1_555
Na4 O54 2.398238 1_555
Na4 O39 2.588661 1_555
Na4 O56 2.790162 1_555
Na4 O35 2.819691 1_555
Na4 O18 2.834763 1_556
Na5 O37 2.358029 1_555
Na5 O2 2.376465 1_655
Na5 O59 2.398223 1_555
Na5 O38 2.588670 1_655
Na5 O57 2.790146 1_555
Na5 O30 2.819691 1_655
Na5 O23 2.834756 1_555
Na6 O36 2.384548 1_555
Na6 O44 2.420216 1_555
Na6 O43 2.495225 1_665
Na6 O42 2.690074 1_565
Na6 O37 2.742596 1_565
Na6 O38 2.979988 1_665
Na7 O41 2.384548 1_555
Na7 O45 2.420216 1_556
Na7 O46 2.495225 1_566
Na7 O47 2.690074 1_666
Na7 O40 2.742596 1_665
Na7 O39 2.979988 1_665
Na8 O48 2.384548 1_555
Na8 O56 2.420216 1_555
Na8 O55 2.495225 1_555
Na8 O54 2.690074 1_555
Na8 O49 2.742596 1_555
Na8 O50 2.979988 1_555
Na9 O53 2.384548 1_555
Na9 O57 2.420216 1_555
Na9 O58 2.495225 1_555
Na9 O59 2.690074 1_555
Na9 O52 2.742596 1_555
Na9 O51 2.979988 1_555
Na10 O60 2.384548 1_555
Na10 O68 2.420216 1_555
Na10 O67 2.495225 1_555
Na10 O66 2.690074 1_555
Na10 O61 2.742596 1_555
Na10 O62 2.979988 1_555
Na11 O65 2.384548 1_555
Na11 O69 2.420216 1_555
Na11 O70 2.495225 1_555
Na11 O71 2.690074 1_555
Na11 O64 2.742596 1_555
Na11 O63 2.979988 1_555
Ca0 O0 2.165794 1_655
Ca0 O1 2.204586 1_555
Ca0 O2 2.247085 1_665
Ca0 O36 2.256852 1_555
Ca0 O37 2.293677 1_565
Ca0 O38 2.309013 1_665
Ca1 O5 2.165794 1_555
Ca1 O4 2.204586 1_655
Ca1 O3 2.247085 1_665
Ca1 O41 2.256852 1_555
Ca1 O40 2.293677 1_665
Ca1 O39 2.309013 1_665
Ca2 O12 2.165794 1_555
Ca2 O13 2.204586 1_555
Ca2 O14 2.247085 1_555
Ca2 O48 2.256852 1_555
Ca2 O49 2.293677 1_555
Ca2 O50 2.309013 1_555
Ca3 O17 2.165794 1_555
Ca3 O16 2.204586 1_555
Ca3 O15 2.247085 1_555
Ca3 O53 2.256852 1_555
Ca3 O52 2.293677 1_555
Ca3 O51 2.309013 1_555
Ca4 O24 2.165794 1_554
Ca4 O25 2.204586 1_554
Ca4 O26 2.247085 1_554
Ca4 O60 2.256852 1_555
Ca4 O61 2.293677 1_555
Ca4 O62 2.309013 1_555
Ca5 O29 2.165794 1_555
Ca5 O28 2.204586 1_555
Ca5 O27 2.247085 1_555
Ca5 O65 2.256852 1_555
Ca5 O64 2.293677 1_555
Ca5 O63 2.309013 1_555
O0 P0 1.500695 1_555
O1 S0 1.450919 1_555
O2 P1 1.508237 1_555
O3 P2 1.508237 1_555
O4 S1 1.450919 1_555
O5 P3 1.500695 1_555
O6 P3 1.614419 1_555
O6 Sn0 2.091872 1_565
O7 P2 1.594093 1_555
O7 Sn0 2.054301 1_455
O8 S1 1.515204 1_555
O8 Sn0 2.219944 1_465
O9 S0 1.515204 1_555
O9 Sn1 2.219944 1_665
O10 P1 1.594093 1_555
O10 Sn1 2.054301 1_555
O11 P0 1.614419 1_555
O11 Sn1 2.091872 1_565
O12 P4 1.500695 1_555
O13 S2 1.450919 1_555
O14 P5 1.508237 1_555
O15 P6 1.508237 1_555
O16 S3 1.450919 1_555
O17 P7 1.500695 1_555
O18 P7 1.614419 1_555
O18 Sn2 2.091872 1_554
O19 P6 1.594093 1_555
O19 Sn2 2.054301 1_554
O20 S3 1.515204 1_555
O20 Sn2 2.219944 1_554
O21 S2 1.515204 1_555
O21 Sn3 2.219944 1_555
O22 P5 1.594093 1_555
O22 Sn3 2.054301 1_555
O23 P4 1.614419 1_555
O23 Sn3 2.091872 1_555
O24 P8 1.500695 1_555
O25 S4 1.450919 1_555
O26 P9 1.508237 1_555
O27 P10 1.508237 1_555
O28 S5 1.450919 1_555
O29 P11 1.500695 1_555
O30 P11 1.614419 1_555
O30 Sn4 2.091872 1_555
O31 P10 1.594093 1_555
O31 Sn4 2.054301 1_555
O32 S5 1.515204 1_555
O32 Sn4 2.219944 1_555
O33 S4 1.515204 1_555
O33 Sn5 2.219944 1_555
O34 P9 1.594093 1_555
O34 Sn5 2.054301 1_555
O35 P8 1.614419 1_555
O35 Sn5 2.091872 1_555
O36 P11 1.508598 1_655
O37 P10 1.529485 1_545
O38 S5 1.464913 1_555
O39 S4 1.464917 1_555
O40 P9 1.529476 1_545
O41 P8 1.508604 1_555
O42 P4 1.603555 1_555
O42 Sn0 2.096409 1_555
O43 S2 1.506615 1_555
O43 Sn0 2.214586 1_455
O44 P5 1.600434 1_555
O44 Sn0 2.110525 1_565
O45 P6 1.600438 1_555
O45 Sn1 2.110525 1_665
O46 S3 1.506606 1_555
O46 Sn1 2.214586 1_655
O47 P7 1.603560 1_555
O47 Sn1 2.096409 1_555
O48 P3 1.508598 1_545
O49 P2 1.529485 1_555
O50 S1 1.464913 1_655
O51 S0 1.464917 1_555
O52 P1 1.529476 1_655
O53 P0 1.508604 1_545
O54 P8 1.603568 1_555
O54 Sn2 2.096409 1_555
O55 S4 1.506601 1_655
O55 Sn2 2.214586 1_555
O56 P9 1.600434 1_545
O56 Sn2 2.110525 1_555
O57 P10 1.600425 1_545
O57 Sn3 2.110525 1_555
O58 S5 1.506619 1_555
O58 Sn3 2.214586 1_555
O59 P11 1.603559 1_655
O59 Sn3 2.096409 1_555
O60 P7 1.508611 1_555
O61 P6 1.529471 1_455
O62 S3 1.464910 1_565
O63 S2 1.464902 1_565
O64 P5 1.529489 1_555
O65 P4 1.508600 1_455
O66 P0 1.603555 1_555
O66 Sn4 2.096409 1_555
O67 S0 1.506615 1_555
O67 Sn4 2.214586 1_555
O68 P1 1.600434 1_555
O68 Sn4 2.110525 1_555
O69 P2 1.600438 1_555
O69 Sn5 2.110525 1_555
O70 S1 1.506606 1_555
O70 Sn5 2.214586 1_555
O71 P3 1.603560 1_555
O71 Sn5 2.096409 1_555
