# generated using pymatgen
data_Na3LaY(PO4)3
_symmetry_space_group_name_H-M   'P 1'
_cell_length_a   16.49856908
_cell_length_b   9.44115390
_cell_length_c   9.61057867
_cell_angle_alpha   90.10362327
_cell_angle_beta   124.91326366
_cell_angle_gamma   89.82046616
_symmetry_Int_Tables_number   1
_chemical_formula_structural   Na3LaY(PO4)3
_chemical_formula_sum   'Na12 La4 Y4 P12 O48'
_cell_volume   1227.56046243
_cell_formula_units_Z   4
loop_
 _symmetry_equiv_pos_site_id
 _symmetry_equiv_pos_as_xyz
  1  'x, y, z'
loop_
 _atom_site_type_symbol
 _atom_site_label
 _atom_site_symmetry_multiplicity
 _atom_site_fract_x
 _atom_site_fract_y
 _atom_site_fract_z
 _atom_site_occupancy
  Na  Na0  1  0.24356035  0.76724322  0.99728082  1
  Na  Na1  1  0.74681834  0.73196452  0.50500254  1
  Na  Na2  1  0.74745013  0.26538018  0.00465103  1
  Na  Na3  1  0.24344092  0.23078464  0.49968032  1
  Na  Na4  1  0.50457708  0.08728097  0.75061364  1
  Na  Na5  1  0.50168117  0.92247025  0.23877951  1
  Na  Na6  1  0.00490414  0.58091785  0.75008505  1
  Na  Na7  1  0.00134152  0.41054748  0.24032418  1
  Na  Na8  1  0.81643860  0.92239456  0.19283715  1
  Na  Na9  1  0.81696096  0.08015371  0.69722547  1
  Na  Na10  1  0.30961757  0.42255580  0.18379977  1
  Na  Na11  1  0.31572249  0.57545436  0.69952361  1
  La  La0  1  0.10382745  0.76499329  0.55151597  1
  La  La1  1  0.60223765  0.26535606  0.55080023  1
  La  La2  1  0.39800777  0.74841396  0.44270983  1
  La  La3  1  0.60449456  0.73483274  0.05217104  1
  Y  Y0  1  0.89905408  0.75090785  0.94512458  1
  Y  Y1  1  0.89997204  0.24812959  0.44531718  1
  Y  Y2  1  0.10290622  0.23874147  0.05185827  1
  Y  Y3  1  0.39918978  0.25135494  0.94550095  1
  P  P0  1  0.99388990  0.94734568  0.74620718  1
  P  P1  1  0.99272508  0.06035523  0.23806591  1
  P  P2  1  0.49063096  0.43294656  0.74282882  1
  P  P3  1  0.49053495  0.55958698  0.23565586  1
  P  P4  1  0.35539108  0.90524487  0.76646567  1
  P  P5  1  0.65918633  0.90508564  0.75264657  1
  P  P6  1  0.65603238  0.09935940  0.25033121  1
  P  P7  1  0.35234171  0.10220470  0.25378816  1
  P  P8  1  0.85976138  0.40169298  0.75980919  1
  P  P9  1  0.15265659  0.39856251  0.75230412  1
  P  P10  1  0.15184299  0.59128732  0.24505227  1
  P  P11  1  0.85793445  0.59563949  0.26039763  1
  O  O0  1  0.15707970  0.56439032  0.75231986  1
  O  O1  1  0.85081982  0.56657503  0.75051075  1
  O  O2  1  0.84868006  0.43141481  0.24679762  1
  O  O3  1  0.15435339  0.42584383  0.24075077  1
  O  O4  1  0.66593308  0.07019235  0.75523959  1
  O  O5  1  0.34368175  0.06911849  0.74970371  1
  O  O6  1  0.34217375  0.93860006  0.23118931  1
  O  O7  1  0.66191987  0.93393094  0.25023360  1
  O  O8  1  0.43508341  0.52576289  0.58064846  1
  O  O9  1  0.54326874  0.53126623  0.89902898  1
  O  O10  1  0.54051721  0.46948823  0.39889100  1
  O  O11  1  0.44201593  0.46093719  0.07908442  1
  O  O12  1  0.93538196  0.03895586  0.58214827  1
  O  O13  1  0.04753744  0.04671803  0.90144965  1
  O  O14  1  0.05327393  0.97071640  0.40104652  1
  O  O15  1  0.93298845  0.95939543  0.08313660  1
  O  O16  1  0.27169475  0.83043725  0.76598745  1
  O  O17  1  0.74380055  0.84148283  0.74626576  1
  O  O18  1  0.74164295  0.16114990  0.24613531  1
  O  O19  1  0.26381412  0.17245757  0.24328902  1
  O  O20  1  0.77436091  0.32969334  0.75694576  1
  O  O21  1  0.24084628  0.33969786  0.75304541  1
  O  O22  1  0.23462716  0.64946422  0.23080973  1
  O  O23  1  0.77269713  0.66826462  0.25828891  1
  O  O24  1  0.35639642  0.85041859  0.61464571  1
  O  O25  1  0.66815703  0.86353895  0.91806442  1
  O  O26  1  0.66572479  0.13847074  0.41729248  1
  O  O27  1  0.36115776  0.16310226  0.11256258  1
  O  O28  1  0.86016278  0.35078390  0.60618043  1
  O  O29  1  0.15894939  0.35787954  0.91591467  1
  O  O30  1  0.16837601  0.63036726  0.41774817  1
  O  O31  1  0.86012303  0.65058274  0.10995829  1
  O  O32  1  0.45508380  0.86631653  0.93340067  1
  O  O33  1  0.55774631  0.85517544  0.59576278  1
  O  O34  1  0.55410067  0.15172423  0.09518876  1
  O  O35  1  0.44863315  0.13914326  0.42820526  1
  O  O36  1  0.95894315  0.35756899  0.92488318  1
  O  O37  1  0.05301276  0.34507146  0.59372945  1
  O  O38  1  0.04974188  0.64865313  0.09651838  1
  O  O39  1  0.95593940  0.63705489  0.42904828  1
  O  O40  1  0.06912281  0.84409926  0.75182425  1
  O  O41  1  0.91549959  0.85756619  0.74929852  1
  O  O42  1  0.91452553  0.15054888  0.24224371  1
  O  O43  1  0.06378243  0.16261234  0.23143930  1
  O  O44  1  0.56783711  0.32920774  0.75535364  1
  O  O45  1  0.40977641  0.34427325  0.73879002  1
  O  O46  1  0.40518973  0.64768557  0.21886997  1
  O  O47  1  0.56869508  0.66301234  0.25177693  1
loop_
_geom_bond_atom_site_label_1
_geom_bond_atom_site_label_2
_geom_bond_distance
_geom_bond_site_symmetry_2
Na0 O6 2.476816 1_556
Na0 O46 2.531737 1_556
Na0 O40 2.568239 1_555
Na0 O22 2.585341 1_556
Na0 O16 2.588465 1_555
Na0 O0 2.720629 1_555
Na1 O1 2.512328 1_555
Na1 O17 2.563400 1_555
Na1 O47 2.608154 1_555
Na1 O41 2.682328 1_555
Na1 O23 2.705172 1_555
Na1 O7 2.768985 1_555
Na2 O2 2.493301 1_555
Na2 O18 2.574305 1_555
Na2 O44 2.598445 1_554
Na2 O42 2.602505 1_555
Na2 O4 2.694379 1_554
Na2 O20 2.729433 1_554
Na3 O5 2.507422 1_555
Na3 O45 2.598221 1_555
Na3 O21 2.664264 1_555
Na3 O43 2.665552 1_555
Na3 O19 2.725777 1_555
Na3 O3 2.749022 1_555
Na4 O44 2.503695 1_555
Na4 O4 2.641377 1_555
Na4 O5 2.655626 1_555
Na4 O35 2.724250 1_555
Na4 O45 2.849556 1_555
Na5 O7 2.584889 1_555
Na5 O6 2.594581 1_555
Na5 O32 2.626739 1_554
Na5 O47 2.657918 1_555
Na6 O0 2.502828 1_555
Na6 O1 2.548539 1_455
Na6 O40 2.700527 1_555
Na6 O39 2.757361 1_455
Na7 O3 2.526716 1_555
Na7 O2 2.561781 1_455
Na7 O43 2.575412 1_555
Na7 O36 2.738468 1_454
Na7 O42 2.851292 1_455
Na8 O25 2.423933 1_554
Na8 O42 2.573479 1_565
Na8 O23 2.684952 1_555
Na8 O15 2.693927 1_555
Na8 O18 2.751037 1_565
Na8 O31 2.894391 1_555
Na8 O7 2.902240 1_555
Na9 O26 2.465693 1_555
Na9 O41 2.522065 1_545
Na9 O20 2.611579 1_555
Na9 O17 2.725554 1_545
Na9 O12 2.767446 1_555
Na9 O4 2.849633 1_555
Na9 O28 2.921539 1_555
Na10 O29 2.420429 1_554
Na10 O46 2.554930 1_555
Na10 O22 2.635137 1_555
Na10 O19 2.642707 1_555
Na10 O27 2.799878 1_555
Na10 O11 2.904867 1_555
Na10 O3 2.909788 1_555
Na11 O30 2.444079 1_555
Na11 O45 2.574027 1_555
Na11 O16 2.691747 1_555
Na11 O21 2.737454 1_555
Na11 O8 2.823291 1_555
Na11 O24 2.915479 1_555
Na11 O0 2.939582 1_555
La0 O14 2.275659 1_555
La0 O39 2.350252 1_455
La0 O16 2.402586 1_555
La0 O40 2.417726 1_555
La0 O30 2.440317 1_555
La0 O0 2.478934 1_555
La1 O10 2.275690 1_555
La1 O26 2.388200 1_555
La1 O44 2.412663 1_555
La1 O35 2.413817 1_555
La1 O20 2.434093 1_555
La1 O4 2.448934 1_555
La2 O24 2.327627 1_555
La2 O8 2.371524 1_555
La2 O33 2.387283 1_555
La2 O46 2.414517 1_555
La2 O22 2.451788 1_555
La2 O6 2.462600 1_555
La3 O9 2.276046 1_554
La3 O32 2.384439 1_554
La3 O23 2.391911 1_555
La3 O47 2.406821 1_555
La3 O25 2.409172 1_554
La3 O7 2.447067 1_555
O0 P9 1.567530 1_555
O1 P8 1.561078 1_555
O1 Y0 2.335242 1_555
O2 P11 1.556362 1_555
O2 Y1 2.346312 1_555
O3 P10 1.563496 1_555
O3 Y2 2.317411 1_555
O4 P5 1.562253 1_545
O5 P4 1.555754 1_545
O5 Y3 2.316321 1_555
O6 P7 1.555589 1_565
O7 P6 1.564581 1_565
O8 P2 1.549834 1_555
O9 P2 1.541781 1_555
O10 P3 1.544114 1_555
O11 P3 1.547026 1_555
O11 Y3 2.241407 1_554
O12 P0 1.556719 1_545
O12 Y1 2.256847 1_555
O13 P0 1.542119 1_445
O13 Y2 2.167965 1_556
O14 P1 1.541418 1_465
O15 P1 1.554952 1_565
O15 Y0 2.257125 1_554
O16 P4 1.550637 1_555
O17 P5 1.551065 1_555
O17 Y0 2.309428 1_555
O18 P6 1.551585 1_555
O18 Y1 2.333719 1_555
O19 P7 1.552053 1_555
O19 Y2 2.286284 1_555
O20 P8 1.552296 1_555
O21 P9 1.552104 1_555
O21 Y3 2.324314 1_555
O22 P10 1.550760 1_555
O23 P11 1.552287 1_555
O24 P4 1.556288 1_555
O25 P5 1.560662 1_555
O26 P6 1.562421 1_555
O27 P7 1.556661 1_555
O27 Y3 2.197063 1_554
O28 P8 1.555507 1_555
O28 Y1 2.216676 1_555
O29 P9 1.563903 1_555
O29 Y2 2.285101 1_556
O30 P10 1.563766 1_555
O31 P11 1.556706 1_555
O31 Y0 2.234545 1_554
O32 P4 1.546641 1_555
O33 P5 1.552497 1_555
O34 P6 1.556585 1_555
O34 Y3 2.295131 1_554
O35 P7 1.551901 1_555
O36 P8 1.547446 1_555
O36 Y2 2.249381 1_656
O37 P9 1.553967 1_555
O37 Y1 2.266009 1_455
O38 P10 1.553460 1_555
O38 Y0 2.253725 1_454
O39 P11 1.547969 1_555
O40 P0 1.552306 1_455
O41 P0 1.563006 1_555
O41 Y0 2.285308 1_555
O42 P1 1.563193 1_555
O42 Y1 2.289950 1_555
O43 P1 1.550249 1_455
O43 Y2 2.279144 1_555
O44 P2 1.553507 1_555
O45 P2 1.558685 1_555
O45 Y3 2.269618 1_555
O46 P3 1.560012 1_555
O47 P3 1.555315 1_555
