# generated using pymatgen
data_Li2CuP2O7
_symmetry_space_group_name_H-M   'P 1'
_cell_length_a   13.31921100
_cell_length_b   5.01269900
_cell_length_c   9.20769968
_cell_angle_alpha   61.19020131
_cell_angle_beta   90.00000000
_cell_angle_gamma   90.00000000
_symmetry_Int_Tables_number   1
_chemical_formula_structural   Li2CuP2O7
_chemical_formula_sum   'Li8 Cu4 P8 O28'
_cell_volume   538.66226624
_cell_formula_units_Z   4
loop_
 _symmetry_equiv_pos_site_id
 _symmetry_equiv_pos_as_xyz
  1  'x, y, z'
loop_
 _atom_site_type_symbol
 _atom_site_label
 _atom_site_symmetry_multiplicity
 _atom_site_fract_x
 _atom_site_fract_y
 _atom_site_fract_z
 _atom_site_occupancy
  Li  Li0  1  0.11200800  0.95242500  0.86471400  1
  Li  Li1  1  0.88799200  0.04757500  0.13528600  1
  Li  Li2  1  0.29593300  0.56886800  0.17325200  1
  Li  Li3  1  0.79593300  0.43113200  0.32674800  1
  Li  Li4  1  0.38799200  0.95242500  0.36471400  1
  Li  Li5  1  0.70406700  0.43113200  0.82674800  1
  Li  Li6  1  0.20406700  0.56886800  0.67325200  1
  Li  Li7  1  0.61200800  0.04757500  0.63528600  1
  Cu  Cu0  1  0.14936900  0.94957200  0.25512700  1
  Cu  Cu1  1  0.64936900  0.05042800  0.24487300  1
  Cu  Cu2  1  0.35063100  0.94957200  0.75512700  1
  Cu  Cu3  1  0.85063100  0.05042800  0.74487300  1
  P  P0  1  0.82973500  0.74598500  0.52758400  1
  P  P1  1  0.17026500  0.25401500  0.47241600  1
  P  P2  1  0.52459600  0.51644200  0.27824100  1
  P  P3  1  0.02459600  0.48355800  0.22175900  1
  P  P4  1  0.32973500  0.25401500  0.97241600  1
  P  P5  1  0.97540400  0.51644200  0.77824100  1
  P  P6  1  0.67026500  0.74598500  0.02758400  1
  P  P7  1  0.47540400  0.48355800  0.72175900  1
  O  O0  1  0.94715600  0.68951200  0.57955400  1
  O  O1  1  0.10759800  0.73101100  0.13501300  1
  O  O2  1  0.55284400  0.68951200  0.07955400  1
  O  O3  1  0.70942300  0.44118200  0.04612600  1
  O  O4  1  0.29057700  0.55881800  0.95387400  1
  O  O5  1  0.44715600  0.31048800  0.92044600  1
  O  O6  1  0.89240200  0.26898900  0.86498700  1
  O  O7  1  0.27883700  0.18279400  0.84314400  1
  O  O8  1  0.67824400  0.01044300  0.85275000  1
  O  O9  1  0.96816300  0.76596900  0.83079700  1
  O  O10  1  0.07854000  0.38531500  0.79068500  1
  O  O11  1  0.57854000  0.61468500  0.70931500  1
  O  O12  1  0.46816300  0.23403100  0.66920300  1
  O  O13  1  0.32175600  0.98955700  0.14725000  1
  O  O14  1  0.17824400  0.98955700  0.64725000  1
  O  O15  1  0.39240200  0.73101100  0.63501300  1
  O  O16  1  0.77883700  0.81720600  0.65685600  1
  O  O17  1  0.79057700  0.44118200  0.54612600  1
  O  O18  1  0.20942300  0.55881800  0.45387400  1
  O  O19  1  0.05284400  0.31048800  0.42044600  1
  O  O20  1  0.60759800  0.26898900  0.36498700  1
  O  O21  1  0.82175600  0.01044300  0.35275000  1
  O  O22  1  0.22116300  0.18279400  0.34314400  1
  O  O23  1  0.53183700  0.76596900  0.33079700  1
  O  O24  1  0.42146000  0.38531500  0.29068500  1
  O  O25  1  0.92146000  0.61468500  0.20931500  1
  O  O26  1  0.03183700  0.23403100  0.16920300  1
  O  O27  1  0.72116300  0.81720600  0.15685600  1
loop_
_geom_bond_atom_site_label_1
_geom_bond_atom_site_label_2
_geom_bond_distance
_geom_bond_site_symmetry_2
Li0 O10 1.986561 1_565
Li0 O14 2.112607 1_555
Li0 O1 2.183401 1_556
Li0 O9 2.218806 1_455
Li0 O7 2.467653 1_565
Li1 O25 1.986561 1_545
Li1 O21 2.112607 1_555
Li1 O6 2.183401 1_554
Li1 O26 2.218806 1_655
Li1 O27 2.467653 1_545
Li2 O24 1.962702 1_555
Li2 O13 2.033714 1_555
Li2 O4 2.045964 1_554
Li2 O22 2.065509 1_555
Li3 O25 1.962702 1_555
Li3 O21 2.033714 1_555
Li3 O17 2.045964 1_555
Li3 O27 2.065509 1_555
Li4 O24 1.986561 1_565
Li4 O13 2.112607 1_555
Li4 O15 2.183401 1_555
Li4 O23 2.218806 1_555
Li4 O22 2.467653 1_565
Li5 O11 1.962702 1_555
Li5 O8 2.033714 1_555
Li5 O3 2.045964 1_556
Li5 O16 2.065509 1_555
Li6 O10 1.962702 1_555
Li6 O14 2.033714 1_555
Li6 O18 2.045964 1_555
Li6 O7 2.065509 1_555
Li7 O11 1.986561 1_545
Li7 O8 2.112607 1_555
Li7 O20 2.183401 1_555
Li7 O12 2.218806 1_555
Li7 O16 2.467653 1_545
Cu0 O22 1.962419 1_565
Cu0 O1 1.975053 1_555
Cu0 O26 2.005602 1_565
Cu0 O18 2.090594 1_555
Cu0 O13 2.471198 1_555
Cu1 O27 1.962419 1_545
Cu1 O20 1.975053 1_555
Cu1 O23 2.005602 1_545
Cu1 O3 2.090594 1_555
Cu1 O21 2.471198 1_555
Cu2 O7 1.962419 1_565
Cu2 O15 1.975053 1_555
Cu2 O12 2.005602 1_565
Cu2 O4 2.090594 1_555
Cu2 O14 2.471198 1_555
Cu3 O16 1.962419 1_545
Cu3 O6 1.975053 1_555
Cu3 O9 2.005602 1_545
Cu3 O17 2.090594 1_555
Cu3 O8 2.471198 1_555
O0 P0 1.620036 1_555
O0 P5 1.646631 1_555
O1 P3 1.563287 1_555
O2 P6 1.620036 1_555
O2 P2 1.646631 1_555
O3 P6 1.544082 1_555
O4 P4 1.544082 1_555
O5 P4 1.620036 1_555
O5 P7 1.646631 1_555
O6 P5 1.563287 1_555
O7 P4 1.553515 1_555
O8 P6 1.517675 1_546
O9 P5 1.546406 1_555
O10 P5 1.503200 1_455
O11 P7 1.503200 1_555
O12 P7 1.546406 1_555
O13 P4 1.517675 1_564
O14 P1 1.517675 1_565
O15 P7 1.563287 1_555
O16 P0 1.553515 1_555
O17 P0 1.544082 1_555
O18 P1 1.544082 1_555
O19 P1 1.620036 1_555
O19 P3 1.646631 1_555
O20 P2 1.563287 1_555
O21 P0 1.517675 1_545
O22 P1 1.553515 1_555
O23 P2 1.546406 1_555
O24 P2 1.503200 1_555
O25 P3 1.503200 1_655
O26 P3 1.546406 1_555
O27 P6 1.553515 1_555
