# generated using pymatgen
data_Lu(BH4)3
_symmetry_space_group_name_H-M   'P 1'
_cell_length_a   10.61973600
_cell_length_b   10.61973600
_cell_length_c   10.61973600
_cell_angle_alpha   90.00000000
_cell_angle_beta   90.00000000
_cell_angle_gamma   90.00000000
_symmetry_Int_Tables_number   1
_chemical_formula_structural   Lu(BH4)3
_chemical_formula_sum   'Lu8 B24 H96'
_cell_volume   1197.68100498
_cell_formula_units_Z   8
loop_
 _symmetry_equiv_pos_site_id
 _symmetry_equiv_pos_as_xyz
  1  'x, y, z'
loop_
 _atom_site_type_symbol
 _atom_site_label
 _atom_site_symmetry_multiplicity
 _atom_site_fract_x
 _atom_site_fract_y
 _atom_site_fract_z
 _atom_site_occupancy
  Lu  Lu0  1  0.21725200  0.21725200  0.21725200  1
  Lu  Lu1  1  0.71725200  0.28274800  0.78274800  1
  Lu  Lu2  1  0.78274800  0.71725200  0.28274800  1
  Lu  Lu3  1  0.28274800  0.78274800  0.71725200  1
  Lu  Lu4  1  0.78274800  0.78274800  0.78274800  1
  Lu  Lu5  1  0.28274800  0.71725200  0.21725200  1
  Lu  Lu6  1  0.21725200  0.28274800  0.71725200  1
  Lu  Lu7  1  0.71725200  0.21725200  0.28274800  1
  B  B0  1  0.19212800  0.24771500  0.96787100  1
  B  B1  1  0.69212800  0.25228500  0.03212900  1
  B  B2  1  0.80787200  0.74771500  0.53212900  1
  B  B3  1  0.30787200  0.75228500  0.46787100  1
  B  B4  1  0.24771500  0.96787100  0.19212800  1
  B  B5  1  0.25228500  0.03212900  0.69212800  1
  B  B6  1  0.74771500  0.53212900  0.80787200  1
  B  B7  1  0.75228500  0.46787100  0.30787200  1
  B  B8  1  0.96787100  0.19212800  0.24771500  1
  B  B9  1  0.03212900  0.69212800  0.25228500  1
  B  B10  1  0.53212900  0.80787200  0.74771500  1
  B  B11  1  0.46787100  0.30787200  0.75228500  1
  B  B12  1  0.80787200  0.75228500  0.03212900  1
  B  B13  1  0.30787200  0.74771500  0.96787100  1
  B  B14  1  0.19212800  0.25228500  0.46787100  1
  B  B15  1  0.69212800  0.24771500  0.53212900  1
  B  B16  1  0.75228500  0.03212900  0.80787200  1
  B  B17  1  0.74771500  0.96787100  0.30787200  1
  B  B18  1  0.25228500  0.46787100  0.19212800  1
  B  B19  1  0.24771500  0.53212900  0.69212800  1
  B  B20  1  0.03212900  0.80787200  0.75228500  1
  B  B21  1  0.96787100  0.30787200  0.74771500  1
  B  B22  1  0.46787100  0.19212800  0.25228500  1
  B  B23  1  0.53212900  0.69212800  0.24771500  1
  H  H0  1  0.29197000  0.25483300  0.02579200  1
  H  H1  1  0.79197000  0.24516700  0.97420800  1
  H  H2  1  0.70803000  0.75483300  0.47420800  1
  H  H3  1  0.20803000  0.74516700  0.52579200  1
  H  H4  1  0.25483300  0.02579200  0.29197000  1
  H  H5  1  0.24516700  0.97420800  0.79197000  1
  H  H6  1  0.75483300  0.47420800  0.70803000  1
  H  H7  1  0.74516700  0.52579200  0.20803000  1
  H  H8  1  0.02579200  0.29197000  0.25483300  1
  H  H9  1  0.97420800  0.79197000  0.24516700  1
  H  H10  1  0.47420800  0.70803000  0.75483300  1
  H  H11  1  0.52579200  0.20803000  0.74516700  1
  H  H12  1  0.70803000  0.74516700  0.97420800  1
  H  H13  1  0.20803000  0.75483300  0.02579200  1
  H  H14  1  0.29197000  0.24516700  0.52579200  1
  H  H15  1  0.79197000  0.25483300  0.47420800  1
  H  H16  1  0.74516700  0.97420800  0.70803000  1
  H  H17  1  0.75483300  0.02579200  0.20803000  1
  H  H18  1  0.24516700  0.52579200  0.29197000  1
  H  H19  1  0.25483300  0.47420800  0.79197000  1
  H  H20  1  0.97420800  0.70803000  0.74516700  1
  H  H21  1  0.02579200  0.20803000  0.75483300  1
  H  H22  1  0.52579200  0.29197000  0.24516700  1
  H  H23  1  0.47420800  0.79197000  0.25483300  1
  H  H24  1  0.10117200  0.22431000  0.03567900  1
  H  H25  1  0.60117200  0.27569000  0.96432100  1
  H  H26  1  0.89882800  0.72431000  0.46432100  1
  H  H27  1  0.39882800  0.77569000  0.53567900  1
  H  H28  1  0.22431000  0.03567900  0.10117200  1
  H  H29  1  0.27569000  0.96432100  0.60117200  1
  H  H30  1  0.72431000  0.46432100  0.89882800  1
  H  H31  1  0.77569000  0.53567900  0.39882800  1
  H  H32  1  0.03567900  0.10117200  0.22431000  1
  H  H33  1  0.96432100  0.60117200  0.27569000  1
  H  H34  1  0.46432100  0.89882800  0.72431000  1
  H  H35  1  0.53567900  0.39882800  0.77569000  1
  H  H36  1  0.89882800  0.77569000  0.96432100  1
  H  H37  1  0.39882800  0.72431000  0.03567900  1
  H  H38  1  0.10117200  0.27569000  0.53567900  1
  H  H39  1  0.60117200  0.22431000  0.46432100  1
  H  H40  1  0.77569000  0.96432100  0.89882800  1
  H  H41  1  0.72431000  0.03567900  0.39882800  1
  H  H42  1  0.27569000  0.53567900  0.10117200  1
  H  H43  1  0.22431000  0.46432100  0.60117200  1
  H  H44  1  0.96432100  0.89882800  0.77569000  1
  H  H45  1  0.03567900  0.39882800  0.72431000  1
  H  H46  1  0.53567900  0.10117200  0.27569000  1
  H  H47  1  0.46432100  0.60117200  0.22431000  1
  H  H48  1  0.17322000  0.35019700  0.91808100  1
  H  H49  1  0.67322000  0.14980300  0.08191900  1
  H  H50  1  0.82678000  0.85019700  0.58191900  1
  H  H51  1  0.32678000  0.64980300  0.41808100  1
  H  H52  1  0.35019700  0.91808100  0.17322000  1
  H  H53  1  0.14980300  0.08191900  0.67322000  1
  H  H54  1  0.85019700  0.58191900  0.82678000  1
  H  H55  1  0.64980300  0.41808100  0.32678000  1
  H  H56  1  0.91808100  0.17322000  0.35019700  1
  H  H57  1  0.08191900  0.67322000  0.14980300  1
  H  H58  1  0.58191900  0.82678000  0.85019700  1
  H  H59  1  0.41808100  0.32678000  0.64980300  1
  H  H60  1  0.82678000  0.64980300  0.08191900  1
  H  H61  1  0.32678000  0.85019700  0.91808100  1
  H  H62  1  0.17322000  0.14980300  0.41808100  1
  H  H63  1  0.67322000  0.35019700  0.58191900  1
  H  H64  1  0.64980300  0.08191900  0.82678000  1
  H  H65  1  0.85019700  0.91808100  0.32678000  1
  H  H66  1  0.14980300  0.41808100  0.17322000  1
  H  H67  1  0.35019700  0.58191900  0.67322000  1
  H  H68  1  0.08191900  0.82678000  0.64980300  1
  H  H69  1  0.91808100  0.32678000  0.85019700  1
  H  H70  1  0.41808100  0.17322000  0.14980300  1
  H  H71  1  0.58191900  0.67322000  0.35019700  1
  H  H72  1  0.20248300  0.16099000  0.89204400  1
  H  H73  1  0.70248300  0.33901000  0.10795600  1
  H  H74  1  0.79751700  0.66099000  0.60795600  1
  H  H75  1  0.29751700  0.83901000  0.39204400  1
  H  H76  1  0.16099000  0.89204400  0.20248300  1
  H  H77  1  0.33901000  0.10795600  0.70248300  1
  H  H78  1  0.66099000  0.60795600  0.79751700  1
  H  H79  1  0.83901000  0.39204400  0.29751700  1
  H  H80  1  0.89204400  0.20248300  0.16099000  1
  H  H81  1  0.10795600  0.70248300  0.33901000  1
  H  H82  1  0.60795600  0.79751700  0.66099000  1
  H  H83  1  0.39204400  0.29751700  0.83901000  1
  H  H84  1  0.79751700  0.83901000  0.10795600  1
  H  H85  1  0.29751700  0.66099000  0.89204400  1
  H  H86  1  0.20248300  0.33901000  0.39204400  1
  H  H87  1  0.70248300  0.16099000  0.60795600  1
  H  H88  1  0.83901000  0.10795600  0.79751700  1
  H  H89  1  0.66099000  0.89204400  0.29751700  1
  H  H90  1  0.33901000  0.39204400  0.20248300  1
  H  H91  1  0.16099000  0.60795600  0.70248300  1
  H  H92  1  0.10795600  0.79751700  0.83901000  1
  H  H93  1  0.89204400  0.29751700  0.66099000  1
  H  H94  1  0.39204400  0.20248300  0.33901000  1
  H  H95  1  0.60795600  0.70248300  0.16099000  1
loop_
_geom_bond_atom_site_label_1
_geom_bond_atom_site_label_2
_geom_bond_distance
_geom_bond_site_symmetry_2
B0 H48 1.226527 1_555
B0 H0 1.228127 1_556
B0 H72 1.228322 1_555
B0 H24 1.230181 1_556
B1 H49 1.226527 1_555
B1 H1 1.228127 1_554
B1 H73 1.228322 1_555
B1 H25 1.230181 1_554
B2 H50 1.226527 1_555
B2 H2 1.228127 1_555
B2 H74 1.228322 1_555
B2 H26 1.230181 1_555
B3 H51 1.226527 1_555
B3 H3 1.228127 1_555
B3 H75 1.228322 1_555
B3 H27 1.230181 1_555
B4 H52 1.226527 1_555
B4 H4 1.228127 1_565
B4 H76 1.228322 1_555
B4 H28 1.230181 1_565
B5 H53 1.226527 1_555
B5 H5 1.228127 1_545
B5 H77 1.228322 1_555
B5 H29 1.230181 1_545
B6 H54 1.226527 1_555
B6 H6 1.228127 1_555
B6 H78 1.228322 1_555
B6 H30 1.230181 1_555
B7 H55 1.226527 1_555
B7 H7 1.228127 1_555
B7 H79 1.228322 1_555
B7 H31 1.230181 1_555
B8 H56 1.226527 1_555
B8 H8 1.228127 1_655
B8 H80 1.228322 1_555
B8 H32 1.230181 1_655
B9 H57 1.226527 1_555
B9 H9 1.228127 1_455
B9 H81 1.228322 1_555
B9 H33 1.230181 1_455
B10 H58 1.226527 1_555
B10 H10 1.228127 1_555
B10 H82 1.228322 1_555
B10 H34 1.230181 1_555
B11 H59 1.226527 1_555
B11 H11 1.228127 1_555
B11 H83 1.228322 1_555
B11 H35 1.230181 1_555
B12 H60 1.226527 1_555
B12 H12 1.228127 1_554
B12 H84 1.228322 1_555
B12 H36 1.230181 1_554
B13 H61 1.226527 1_555
B13 H13 1.228127 1_556
B13 H85 1.228322 1_555
B13 H37 1.230181 1_556
B14 H62 1.226527 1_555
B14 H14 1.228127 1_555
B14 H86 1.228322 1_555
B14 H38 1.230181 1_555
B15 H63 1.226527 1_555
B15 H15 1.228127 1_555
B15 H87 1.228322 1_555
B15 H39 1.230181 1_555
B16 H64 1.226527 1_555
B16 H16 1.228127 1_545
B16 H88 1.228322 1_555
B16 H40 1.230181 1_545
B17 H65 1.226527 1_555
B17 H17 1.228127 1_565
B17 H89 1.228322 1_555
B17 H41 1.230181 1_565
B18 H66 1.226527 1_555
B18 H18 1.228127 1_555
B18 H90 1.228322 1_555
B18 H42 1.230181 1_555
B19 H67 1.226527 1_555
B19 H19 1.228127 1_555
B19 H91 1.228322 1_555
B19 H43 1.230181 1_555
B20 H68 1.226527 1_555
B20 H20 1.228127 1_455
B20 H92 1.228322 1_555
B20 H44 1.230181 1_455
B21 H69 1.226527 1_555
B21 H21 1.228127 1_655
B21 H93 1.228322 1_555
B21 H45 1.230181 1_655
B22 H70 1.226527 1_555
B22 H22 1.228127 1_555
B22 H94 1.228322 1_555
B22 H46 1.230181 1_555
B23 H71 1.226527 1_555
B23 H23 1.228127 1_555
B23 H95 1.228322 1_555
B23 H47 1.230181 1_555
H0 Lu0 2.218789 1_555
H1 Lu1 2.218789 1_555
H2 Lu2 2.218789 1_555
H3 Lu3 2.218789 1_555
H4 Lu0 2.218789 1_555
H5 Lu3 2.218789 1_555
H6 Lu1 2.218789 1_555
H7 Lu2 2.218789 1_555
H8 Lu0 2.218789 1_555
H9 Lu2 2.218789 1_555
H10 Lu3 2.218789 1_555
H11 Lu1 2.218789 1_555
H12 Lu4 2.218789 1_555
H13 Lu5 2.218789 1_555
H14 Lu6 2.218789 1_555
H15 Lu7 2.218789 1_555
H16 Lu4 2.218789 1_555
H17 Lu7 2.218789 1_555
H18 Lu5 2.218789 1_555
H19 Lu6 2.218789 1_555
H20 Lu4 2.218789 1_555
H21 Lu6 2.218789 1_555
H22 Lu7 2.218789 1_555
H23 Lu5 2.218789 1_555
H24 Lu0 2.289856 1_555
H25 Lu1 2.289856 1_555
H26 Lu2 2.289856 1_555
H27 Lu3 2.289856 1_555
H28 Lu0 2.289856 1_555
H29 Lu3 2.289856 1_555
H30 Lu1 2.289856 1_555
H31 Lu2 2.289856 1_555
H32 Lu0 2.289856 1_555
H33 Lu2 2.289856 1_555
H34 Lu3 2.289856 1_555
H35 Lu1 2.289856 1_555
H36 Lu4 2.289856 1_555
H37 Lu5 2.289856 1_555
H38 Lu6 2.289856 1_555
H39 Lu7 2.289856 1_555
H40 Lu4 2.289856 1_555
H41 Lu7 2.289856 1_555
H42 Lu5 2.289856 1_555
H43 Lu6 2.289856 1_555
H44 Lu4 2.289856 1_555
H45 Lu6 2.289856 1_555
H46 Lu7 2.289856 1_555
H47 Lu5 2.289856 1_555
H48 Lu6 2.297903 1_555
H49 Lu7 2.297903 1_555
H50 Lu4 2.297903 1_555
H51 Lu5 2.297903 1_555
H52 Lu5 2.297903 1_555
H53 Lu6 2.297903 1_555
H54 Lu4 2.297903 1_555
H55 Lu7 2.297903 1_555
H56 Lu7 2.297903 1_555
H57 Lu5 2.297903 1_555
H58 Lu4 2.297903 1_555
H59 Lu6 2.297903 1_555
H60 Lu2 2.297903 1_555
H61 Lu3 2.297903 1_555
H62 Lu0 2.297903 1_555
H63 Lu1 2.297903 1_555
H64 Lu1 2.297903 1_555
H65 Lu2 2.297903 1_555
H66 Lu0 2.297903 1_555
H67 Lu3 2.297903 1_555
H68 Lu3 2.297903 1_555
H69 Lu1 2.297903 1_555
H70 Lu0 2.297903 1_555
H71 Lu2 2.297903 1_555
H72 Lu6 2.267640 1_555
H73 Lu7 2.267640 1_555
H74 Lu4 2.267640 1_555
H75 Lu5 2.267640 1_555
H76 Lu5 2.267640 1_555
H77 Lu6 2.267640 1_555
H78 Lu4 2.267640 1_555
H79 Lu7 2.267640 1_555
H80 Lu7 2.267640 1_555
H81 Lu5 2.267640 1_555
H82 Lu4 2.267640 1_555
H83 Lu6 2.267640 1_555
H84 Lu2 2.267640 1_555
H85 Lu3 2.267640 1_555
H86 Lu0 2.267640 1_555
H87 Lu1 2.267640 1_555
H88 Lu1 2.267640 1_555
H89 Lu2 2.267640 1_555
H90 Lu0 2.267640 1_555
H91 Lu3 2.267640 1_555
H92 Lu3 2.267640 1_555
H93 Lu1 2.267640 1_555
H94 Lu0 2.267640 1_555
H95 Lu2 2.267640 1_555
