# generated using pymatgen
data_Na14Nb2Ga6Si9(SO16)3
_symmetry_space_group_name_H-M   'P 1'
_cell_length_a   17.93947715
_cell_length_b   8.98231370
_cell_length_c   22.01424280
_cell_angle_alpha   89.80910987
_cell_angle_beta   90.21996897
_cell_angle_gamma   119.95273764
_symmetry_Int_Tables_number   1
_chemical_formula_structural   Na14Nb2Ga6Si9(SO16)3
_chemical_formula_sum   'Na42 Nb6 Ga18 Si27 S9 O144'
_cell_volume   3073.51430188
_cell_formula_units_Z   3
loop_
 _symmetry_equiv_pos_site_id
 _symmetry_equiv_pos_as_xyz
  1  'x, y, z'
loop_
 _atom_site_type_symbol
 _atom_site_label
 _atom_site_symmetry_multiplicity
 _atom_site_fract_x
 _atom_site_fract_y
 _atom_site_fract_z
 _atom_site_occupancy
  Na  Na0  1  0.81444753  0.00197786  0.24712019  1
  Na  Na1  1  0.68790885  0.37106852  0.24652579  1
  Na  Na2  1  0.50090487  0.62474819  0.24799120  1
  Na  Na3  1  0.31350989  0.62570580  0.74693310  1
  Na  Na4  1  0.99695608  0.36972464  0.74906671  1
  Na  Na5  1  0.18633268  0.00426302  0.74601838  1
  Na  Na6  1  0.15214401  0.33791493  0.58336454  1
  Na  Na7  1  0.65449019  0.34181343  0.58497218  1
  Na  Na8  1  0.01801111  0.69653289  0.58393457  1
  Na  Na9  1  0.51539001  0.69011538  0.58293468  1
  Na  Na10  1  0.32758556  0.96889561  0.58479300  1
  Na  Na11  1  0.83133205  0.96794714  0.58565715  1
  Na  Na12  1  0.15272175  0.96471882  0.08212815  1
  Na  Na13  1  0.65501514  0.96494278  0.08004677  1
  Na  Na14  1  0.33040643  0.69253560  0.08186802  1
  Na  Na15  1  0.82880125  0.69047764  0.08249964  1
  Na  Na16  1  0.01532600  0.34069896  0.08056409  1
  Na  Na17  1  0.51844941  0.34392246  0.07942882  1
  Na  Na18  1  0.48547690  0.66775263  0.91667429  1
  Na  Na19  1  0.98201812  0.65850864  0.91322564  1
  Na  Na20  1  0.35421085  0.04258900  0.91403805  1
  Na  Na21  1  0.85410573  0.04789262  0.91515105  1
  Na  Na22  1  0.16336480  0.29795133  0.91670548  1
  Na  Na23  1  0.66539974  0.29547263  0.92071537  1
  Na  Na24  1  0.48193953  0.30807997  0.41681963  1
  Na  Na25  1  0.98374317  0.29978902  0.42012864  1
  Na  Na26  1  0.16486864  0.03596708  0.42382320  1
  Na  Na27  1  0.66513627  0.02822698  0.41991464  1
  Na  Na28  1  0.35212349  0.65660349  0.42135387  1
  Na  Na29  1  0.85359282  0.66558081  0.41656131  1
  Na  Na30  1  0.00280518  0.00118224  0.50026394  1
  Na  Na31  1  0.50141676  0.99562025  0.50007236  1
  Na  Na32  1  0.00106680  0.00740815  0.99638714  1
  Na  Na33  1  0.50253240  0.00389434  0.99488664  1
  Na  Na34  1  0.34017101  0.33427593  0.82582711  1
  Na  Na35  1  0.83423115  0.32922150  0.82892638  1
  Na  Na36  1  0.33301253  0.33134754  0.33286232  1
  Na  Na37  1  0.84041876  0.34582054  0.32691483  1
  Na  Na38  1  0.16473474  0.66412649  0.16219971  1
  Na  Na39  1  0.66792502  0.66633498  0.16540960  1
  Na  Na40  1  0.16605092  0.66810694  0.66644189  1
  Na  Na41  1  0.66817274  0.66948430  0.66491279  1
  Nb  Nb0  1  0.99955089  0.99790802  0.64773620  1
  Nb  Nb1  1  0.49547988  0.99109879  0.64541939  1
  Nb  Nb2  1  0.99543175  0.00024973  0.14472564  1
  Nb  Nb3  1  0.50735313  0.01370124  0.14379712  1
  Nb  Nb4  1  0.15758977  0.64705094  0.31405440  1
  Nb  Nb5  1  0.66217398  0.67877824  0.81120533  1
  Ga  Ga0  1  0.00122294  0.99925056  0.34992213  1
  Ga  Ga1  1  0.50496618  0.00015152  0.34599284  1
  Ga  Ga2  1  0.00016363  0.01554115  0.84053185  1
  Ga  Ga3  1  0.50225464  0.00540002  0.84906941  1
  Ga  Ga4  1  0.33581242  0.33156343  0.68621745  1
  Ga  Ga5  1  0.83787712  0.33737458  0.68282433  1
  Ga  Ga6  1  0.33744614  0.32042930  0.17698087  1
  Ga  Ga7  1  0.83713755  0.34069296  0.18636567  1
  Ga  Ga8  1  0.34102602  0.33581975  0.98976197  1
  Ga  Ga9  1  0.83698353  0.32509263  0.98404309  1
  Ga  Ga10  1  0.33585005  0.34790351  0.48676981  1
  Ga  Ga11  1  0.84022362  0.34531985  0.49345951  1
  Ga  Ga12  1  0.16023544  0.64749776  0.02354716  1
  Ga  Ga13  1  0.65848599  0.66210450  0.02125209  1
  Ga  Ga14  1  0.15817475  0.65453013  0.52316327  1
  Ga  Ga15  1  0.66069165  0.67446862  0.52504472  1
  Ga  Ga16  1  0.65894648  0.65964631  0.30698890  1
  Ga  Ga17  1  0.15756452  0.65582134  0.80640079  1
  Si  Si0  1  0.64974774  0.00339162  0.25224497  1
  Si  Si1  1  0.85372320  0.70415738  0.25525664  1
  Si  Si2  1  0.99733599  0.28663332  0.25174871  1
  Si  Si3  1  0.49254107  0.28555381  0.25435211  1
  Si  Si4  1  0.14980313  0.29508097  0.75192288  1
  Si  Si5  1  0.99433006  0.70346039  0.75474128  1
  Si  Si6  1  0.49579879  0.70610325  0.75239810  1
  Si  Si7  1  0.35331915  0.00263338  0.75536897  1
  Si  Si8  1  0.85119076  0.00323209  0.75035317  1
  Si  Si9  1  0.47594127  0.33587963  0.58173077  1
  Si  Si10  1  0.97899481  0.33362286  0.58332361  1
  Si  Si11  1  0.19156148  0.04533370  0.58157816  1
  Si  Si12  1  0.69302813  0.05210020  0.58248465  1
  Si  Si13  1  0.32911036  0.61758955  0.58306992  1
  Si  Si14  1  0.83005847  0.62040147  0.58231359  1
  Si  Si15  1  0.47824755  0.62262920  0.08411697  1
  Si  Si16  1  0.97596809  0.61594295  0.08184190  1
  Si  Si17  1  0.32909043  0.03439010  0.08119272  1
  Si  Si18  1  0.82862877  0.04124546  0.08332047  1
  Si  Si19  1  0.19458988  0.33503892  0.08354170  1
  Si  Si20  1  0.69555099  0.34398168  0.08121843  1
  Si  Si21  1  0.02182022  0.37420742  0.91600909  1
  Si  Si22  1  0.51789455  0.36989541  0.91894096  1
  Si  Si23  1  0.66641785  0.96585363  0.91989118  1
  Si  Si24  1  0.16632300  0.36694127  0.41994345  1
  Si  Si25  1  0.01598437  0.66579411  0.42048220  1
  Si  Si26  1  0.52140333  0.66856976  0.41486017  1
  S  S0  1  0.14921098  0.00464199  0.25108285  1
  S  S1  1  0.35268919  0.70816329  0.25070243  1
  S  S2  1  0.64740028  0.29261886  0.75104682  1
  S  S3  1  0.31066869  0.66434838  0.91730400  1
  S  S4  1  0.81228490  0.66775501  0.91750212  1
  S  S5  1  0.16741643  0.95772377  0.91722115  1
  S  S6  1  0.31309692  0.95554986  0.41582115  1
  S  S7  1  0.81052976  0.95612020  0.41631383  1
  S  S8  1  0.66664314  0.37608590  0.41611567  1
  O  O0  1  0.10831707  0.02389303  0.30654668  1
  O  O1  1  0.60594334  0.03961560  0.31086861  1
  O  O2  1  0.40619321  0.78825178  0.30626237  1
  O  O3  1  0.91379022  0.79900356  0.31375080  1
  O  O4  1  0.48051827  0.16634994  0.31390151  1
  O  O5  1  0.98620006  0.17273025  0.31165932  1
  O  O6  1  0.10835155  0.17357297  0.81180554  1
  O  O7  1  0.60732337  0.18931083  0.80666825  1
  O  O8  1  0.48474026  0.79893247  0.81190079  1
  O  O9  1  0.98480134  0.79968036  0.81481607  1
  O  O10  1  0.41351260  0.02855873  0.81404750  1
  O  O11  1  0.90981786  0.03846546  0.81125179  1
  O  O12  1  0.40164481  0.96914730  0.69481662  1
  O  O13  1  0.89842558  0.97120375  0.69101628  1
  O  O14  1  0.08355594  0.20016063  0.69313053  1
  O  O15  1  0.59234261  0.21223654  0.69613564  1
  O  O16  1  0.01344440  0.83129495  0.69408458  1
  O  O17  1  0.51578549  0.83215356  0.69184923  1
  O  O18  1  0.39337864  0.81349539  0.19564432  1
  O  O19  1  0.90190868  0.83500223  0.19477454  1
  O  O20  1  0.01709025  0.20112562  0.19157402  1
  O  O21  1  0.50927640  0.18953959  0.19447561  1
  O  O22  1  0.09434536  0.97197840  0.19616549  1
  O  O23  1  0.58241758  0.96664812  0.19349918  1
  O  O24  1  0.43511599  0.37930600  0.63886986  1
  O  O25  1  0.93909048  0.37464838  0.64202590  1
  O  O26  1  0.24976825  0.12589099  0.64192426  1
  O  O27  1  0.75457658  0.13771414  0.63987589  1
  O  O28  1  0.31235209  0.50265331  0.64295430  1
  O  O29  1  0.80896047  0.49158934  0.63897549  1
  O  O30  1  0.43840959  0.50596922  0.14468303  1
  O  O31  1  0.93605327  0.49226370  0.13977940  1
  O  O32  1  0.30700500  0.11280391  0.13980037  1
  O  O33  1  0.81172226  0.12067382  0.14380904  1
  O  O34  1  0.25645878  0.37243417  0.14230483  1
  O  O35  1  0.74888727  0.37132913  0.14327965  1
  O  O36  1  0.23196179  0.29249395  0.02157750  1
  O  O37  1  0.73043251  0.29260433  0.02125225  1
  O  O38  1  0.41789110  0.55088852  0.02350524  1
  O  O39  1  0.91604023  0.54874049  0.02072042  1
  O  O40  1  0.35737269  0.15967294  0.02155909  1
  O  O41  1  0.85741659  0.16201855  0.02313293  1
  O  O42  1  0.23012056  0.16667544  0.52043939  1
  O  O43  1  0.72956078  0.16682252  0.51926465  1
  O  O44  1  0.35800841  0.55575557  0.52224689  1
  O  O45  1  0.85484272  0.55339334  0.51982074  1
  O  O46  1  0.41690221  0.28491352  0.51955708  1
  O  O47  1  0.91934376  0.28612885  0.52157381  1
  O  O48  1  0.27215176  0.69439518  0.97258807  1
  O  O49  1  0.77357367  0.69540228  0.97263387  1
  O  O50  1  0.08379340  0.45667100  0.97649927  1
  O  O51  1  0.57989191  0.45479660  0.97812066  1
  O  O52  1  0.15644231  0.85287185  0.97262484  1
  O  O53  1  0.64718242  0.83775974  0.97742575  1
  O  O54  1  0.27500118  0.85162596  0.47076862  1
  O  O55  1  0.77180305  0.84849047  0.47147056  1
  O  O56  1  0.14817511  0.46090186  0.47577853  1
  O  O57  1  0.65439283  0.45646012  0.47105912  1
  O  O58  1  0.08242640  0.70641313  0.47611080  1
  O  O59  1  0.58449519  0.71326755  0.47458577  1
  O  O60  1  0.06847998  0.63659103  0.36076325  1
  O  O61  1  0.56578419  0.63213186  0.35584367  1
  O  O62  1  0.25743821  0.86886617  0.36122524  1
  O  O63  1  0.75794270  0.87413558  0.36144482  1
  O  O64  1  0.18247759  0.50285181  0.36041663  1
  O  O65  1  0.68013401  0.48243511  0.36109365  1
  O  O66  1  0.06683618  0.50158895  0.85759686  1
  O  O67  1  0.57024737  0.50272265  0.86111037  1
  O  O68  1  0.18194979  0.87949298  0.86257088  1
  O  O69  1  0.68279596  0.86549351  0.86104191  1
  O  O70  1  0.25816930  0.64172419  0.86254505  1
  O  O71  1  0.75697534  0.64313725  0.86343168  1
  O  O72  1  0.01018216  0.84025299  0.41102296  1
  O  O73  1  0.50808184  0.84192075  0.40842682  1
  O  O74  1  0.40012352  0.97258474  0.41050680  1
  O  O75  1  0.89882002  0.97744123  0.41356240  1
  O  O76  1  0.07941672  0.18036701  0.40943606  1
  O  O77  1  0.58605002  0.20123078  0.41305935  1
  O  O78  1  0.01126552  0.17827511  0.91138929  1
  O  O79  1  0.50951605  0.18020760  0.91168481  1
  O  O80  1  0.08798602  0.97182914  0.91438731  1
  O  O81  1  0.57902941  0.97855993  0.91002942  1
  O  O82  1  0.39875228  0.81848235  0.91460044  1
  O  O83  1  0.89950504  0.82229978  0.91308701  1
  O  O84  1  0.48944636  0.16529707  0.59070515  1
  O  O85  1  0.98890165  0.16037721  0.58740528  1
  O  O86  1  0.09339338  0.02304957  0.58796426  1
  O  O87  1  0.59492476  0.03078479  0.58916002  1
  O  O88  1  0.41807084  0.81574237  0.58899192  1
  O  O89  1  0.91737663  0.81316347  0.58874389  1
  O  O90  1  0.48633464  0.81487091  0.09088910  1
  O  O91  1  0.98981141  0.81406899  0.09158789  1
  O  O92  1  0.41604070  0.01522745  0.09154338  1
  O  O93  1  0.91806944  0.02129883  0.08928219  1
  O  O94  1  0.09656215  0.16034252  0.09071670  1
  O  O95  1  0.59502110  0.16657239  0.08812924  1
  O  O96  1  0.34121172  0.16667526  0.74638593  1
  O  O97  1  0.84354866  0.17380098  0.74372136  1
  O  O98  1  0.24271624  0.31087547  0.74531915  1
  O  O99  1  0.73204713  0.30858184  0.74556675  1
  O  O100  1  0.41109135  0.52294115  0.74539376  1
  O  O101  1  0.91202501  0.51299544  0.74660735  1
  O  O102  1  0.34378033  0.53721765  0.24688817  1
  O  O103  1  0.84107383  0.51534239  0.24644069  1
  O  O104  1  0.41040830  0.31631702  0.24597995  1
  O  O105  1  0.91269758  0.30220513  0.24557845  1
  O  O106  1  0.23381480  0.15913281  0.24561358  1
  O  O107  1  0.74217070  0.17361989  0.24577393  1
  O  O108  1  0.31825505  0.50629304  0.92124966  1
  O  O109  1  0.81927839  0.51000365  0.91960005  1
  O  O110  1  0.42280479  0.35951025  0.92126934  1
  O  O111  1  0.92665113  0.36038490  0.92104752  1
  O  O112  1  0.24464066  0.13403632  0.92081569  1
  O  O113  1  0.75334592  0.15401835  0.92024565  1
  O  O114  1  0.32042622  0.12704077  0.41713590  1
  O  O115  1  0.81844336  0.12900845  0.41984182  1
  O  O116  1  0.25367995  0.35367759  0.41920157  1
  O  O117  1  0.74296366  0.35269476  0.41930346  1
  O  O118  1  0.42608654  0.49392044  0.42015580  1
  O  O119  1  0.92257330  0.48689833  0.42082888  1
  O  O120  1  0.18036006  0.50182991  0.07968943  1
  O  O121  1  0.67822371  0.50549632  0.07654413  1
  O  O122  1  0.07497527  0.64996821  0.07639928  1
  O  O123  1  0.57420800  0.64754982  0.08054387  1
  O  O124  1  0.24645661  0.84206834  0.07270573  1
  O  O125  1  0.74884354  0.84518608  0.07591778  1
  O  O126  1  0.17889200  0.85178113  0.57569457  1
  O  O127  1  0.67908039  0.85686430  0.57879831  1
  O  O128  1  0.24891863  0.65241853  0.57507488  1
  O  O129  1  0.74641486  0.64776544  0.57297002  1
  O  O130  1  0.07478846  0.50223930  0.57996548  1
  O  O131  1  0.57453672  0.49993295  0.57585564  1
  O  O132  1  0.15857440  0.84697912  0.25677856  1
  O  O133  1  0.65411694  0.82636454  0.25355498  1
  O  O134  1  0.26731962  0.69865526  0.25563758  1
  O  O135  1  0.75875534  0.69321168  0.25894956  1
  O  O136  1  0.08725259  0.48242946  0.25490902  1
  O  O137  1  0.58374915  0.46991487  0.25396543  1
  O  O138  1  0.15488986  0.48189443  0.75390857  1
  O  O139  1  0.65397993  0.46436077  0.75625857  1
  O  O140  1  0.08541008  0.69861254  0.75397401  1
  O  O141  1  0.58468090  0.69069549  0.75480127  1
  O  O142  1  0.25909259  0.82374700  0.75923589  1
  O  O143  1  0.75884923  0.81932685  0.75657061  1
loop_
_geom_bond_atom_site_label_1
_geom_bond_atom_site_label_2
_geom_bond_distance
_geom_bond_site_symmetry_2
Na0 O105 2.373527 1_555
Na0 O135 2.447074 1_545
Na0 O107 2.460614 1_555
Na0 O133 2.500438 1_545
Na0 O33 2.519256 1_555
Na0 O63 2.741947 1_545
Na0 O19 2.900768 1_545
Na1 O103 2.381928 1_555
Na1 O107 2.411965 1_555
Na1 O137 2.442680 1_555
Na1 O35 2.525703 1_555
Na1 O135 2.528485 1_555
Na1 O65 2.745917 1_555
Na1 O1 2.940865 1_555
Na1 O21 3.001241 1_555
Na2 O104 2.412853 1_555
Na2 O133 2.424375 1_555
Na2 O137 2.494295 1_555
Na2 O102 2.520039 1_555
Na2 O30 2.523808 1_555
Na2 O61 2.626608 1_555
Na3 O100 2.351998 1_555
Na3 O142 2.435169 1_555
Na3 O98 2.454633 1_555
Na3 O138 2.474054 1_555
Na3 O28 2.540722 1_555
Na3 O70 2.765570 1_555
Na3 O12 2.907330 1_555
Na4 O97 2.418122 1_555
Na4 O101 2.436661 1_555
Na4 O138 2.490313 1_655
Na4 O140 2.564484 1_655
Na4 O25 2.580438 1_555
Na4 O66 2.682521 1_655
Na4 O11 2.918178 1_555
Na4 O14 2.939323 1_655
Na5 O96 2.408411 1_555
Na5 O98 2.413802 1_555
Na5 O140 2.425236 1_545
Na5 O26 2.549838 1_555
Na5 O142 2.554382 1_545
Na5 O68 2.782087 1_545
Na5 O16 2.917738 1_545
Na5 O6 2.919244 1_555
Na6 O128 2.475756 1_555
Na6 O86 2.478357 1_555
Na6 O130 2.480686 1_555
Na6 O85 2.542571 1_455
Na6 O56 2.625775 1_555
Na6 O14 2.714162 1_555
Na6 O28 2.812096 1_555
Na6 O42 2.901582 1_555
Na7 O129 2.411368 1_555
Na7 O87 2.444054 1_555
Na7 O131 2.478886 1_555
Na7 O84 2.570987 1_555
Na7 O29 2.676745 1_555
Na7 O15 2.700470 1_555
Na7 O57 2.708069 1_555
Na7 O43 2.919001 1_555
Na8 O130 2.422310 1_555
Na8 O89 2.501741 1_455
Na8 O126 2.508109 1_555
Na8 O86 2.545327 1_565
Na8 O58 2.625783 1_555
Na8 O16 2.733507 1_555
Na8 O25 2.810872 1_455
Na8 O45 2.904421 1_455
Na9 O131 2.425158 1_555
Na9 O88 2.511804 1_555
Na9 O127 2.546361 1_555
Na9 O59 2.651671 1_555
Na9 O87 2.657002 1_565
Na9 O24 2.712976 1_555
Na9 O17 2.718058 1_555
Na9 O44 2.791404 1_555
Na10 O126 2.336116 1_555
Na10 O128 2.472657 1_555
Na10 O84 2.538506 1_565
Na10 O88 2.600742 1_555
Na10 O54 2.703245 1_555
Na10 O26 2.740502 1_565
Na10 O12 2.757530 1_555
Na10 O46 2.852377 1_565
Na11 O127 2.398943 1_555
Na11 O85 2.469840 1_565
Na11 O129 2.509394 1_555
Na11 O89 2.542019 1_555
Na11 O13 2.602508 1_555
Na11 O55 2.731985 1_555
Na11 O27 2.787011 1_565
Na11 O47 2.852282 1_565
Na12 O94 2.431002 1_565
Na12 O124 2.436895 1_555
Na12 O122 2.453094 1_555
Na12 O91 2.543495 1_455
Na12 O52 2.628545 1_554
Na12 O32 2.711034 1_565
Na12 O22 2.737293 1_555
Na12 O36 2.876614 1_565
Na13 O125 2.410088 1_555
Na13 O123 2.470293 1_555
Na13 O53 2.506576 1_554
Na13 O95 2.533798 1_565
Na13 O90 2.638394 1_555
Na13 O33 2.808217 1_565
Na13 O23 2.824780 1_555
Na13 O37 2.860021 1_565
Na14 O120 2.361644 1_555
Na14 O90 2.449374 1_555
Na14 O124 2.475600 1_555
Na14 O92 2.522292 1_565
Na14 O48 2.622547 1_554
Na14 O18 2.738786 1_555
Na14 O38 2.784418 1_555
Na14 O34 2.824234 1_555
Na15 O121 2.364678 1_555
Na15 O125 2.448899 1_555
Na15 O91 2.531910 1_555
Na15 O93 2.581884 1_565
Na15 O49 2.618756 1_554
Na15 O19 2.794762 1_555
Na15 O39 2.817324 1_555
Na15 O35 2.819361 1_555
Na16 O122 2.429234 1_555
Na16 O93 2.512432 1_455
Na16 O50 2.563218 1_554
Na16 O120 2.565504 1_555
Na16 O94 2.674108 1_555
Na16 O31 2.744904 1_455
Na16 O20 2.750184 1_555
Na16 O41 2.764987 1_455
Na17 O123 2.390672 1_555
Na17 O51 2.467505 1_554
Na17 O121 2.484493 1_555
Na17 O95 2.577282 1_555
Na17 O92 2.597182 1_555
Na17 O40 2.814647 1_555
Na17 O21 2.848929 1_555
Na17 O30 2.891494 1_555
Na18 O110 2.414688 1_555
Na18 O81 2.439772 1_555
Na18 O82 2.521518 1_555
Na18 O8 2.589547 1_555
Na18 O108 2.601846 1_555
Na18 O38 2.614852 1_556
Na18 O53 2.845368 1_555
Na18 O67 2.878130 1_555
Na19 O111 2.351447 1_555
Na19 O80 2.488509 1_655
Na19 O9 2.494611 1_555
Na19 O109 2.536818 1_555
Na19 O83 2.555428 1_555
Na19 O39 2.610291 1_556
Na19 O66 2.822955 1_655
Na20 O79 2.419638 1_555
Na20 O10 2.479255 1_555
Na20 O110 2.479265 1_555
Na20 O112 2.485162 1_555
Na20 O82 2.509329 1_545
Na20 O40 2.582229 1_556
Na20 O68 2.905706 1_545
Na21 O113 2.431358 1_555
Na21 O111 2.437753 1_555
Na21 O78 2.455858 1_655
Na21 O11 2.518132 1_555
Na21 O83 2.533837 1_545
Na21 O41 2.580607 1_556
Na22 O78 2.384083 1_555
Na22 O108 2.457562 1_555
Na22 O112 2.538430 1_555
Na22 O6 2.540405 1_555
Na22 O80 2.541084 1_545
Na22 O36 2.623819 1_556
Na22 O50 2.803928 1_555
Na22 O70 2.931884 1_555
Na23 O109 2.454100 1_555
Na23 O79 2.457161 1_555
Na23 O113 2.470956 1_555
Na23 O81 2.481250 1_545
Na23 O37 2.503997 1_556
Na23 O7 2.702220 1_555
Na23 O51 2.866560 1_555
Na23 O71 2.984619 1_555
Na24 O118 2.338246 1_555
Na24 O77 2.491568 1_555
Na24 O46 2.508882 1_555
Na24 O114 2.516906 1_555
Na24 O4 2.596332 1_555
Na24 O74 2.615220 1_545
Na24 O61 2.855567 1_555
Na24 O57 2.939052 1_555
Na25 O119 2.423027 1_555
Na25 O76 2.448490 1_655
Na25 O47 2.492698 1_555
Na25 O75 2.514293 1_545
Na25 O115 2.569875 1_555
Na25 O5 2.659998 1_555
Na25 O56 2.831585 1_655
Na25 O60 2.927053 1_655
Na26 O42 2.428514 1_555
Na26 O72 2.448748 1_545
Na26 O76 2.472171 1_555
Na26 O116 2.480293 1_555
Na26 O114 2.490219 1_555
Na26 O0 2.752875 1_555
Na26 O58 2.809535 1_545
Na27 O115 2.428429 1_555
Na27 O73 2.468146 1_545
Na27 O43 2.496198 1_555
Na27 O117 2.525909 1_555
Na27 O77 2.578542 1_555
Na27 O1 2.643493 1_555
Na27 O59 2.729246 1_545
Na27 O63 2.945137 1_545
Na28 O116 2.393025 1_555
Na28 O118 2.415205 1_555
Na28 O44 2.417686 1_555
Na28 O73 2.456011 1_555
Na28 O74 2.531933 1_555
Na28 O2 2.759006 1_555
Na28 O54 2.934378 1_555
Na28 O64 2.958529 1_555
Na29 O72 2.442940 1_655
Na29 O119 2.469316 1_555
Na29 O45 2.488014 1_555
Na29 O75 2.497834 1_555
Na29 O117 2.504207 1_555
Na29 O3 2.536398 1_555
Na30 O86 2.463061 1_555
Na30 O85 2.482963 1_455
Na30 O72 2.485663 1_545
Na30 O76 2.503631 1_555
Na30 O89 2.532065 1_445
Na30 O75 2.597401 1_445
Na31 O73 2.485131 1_555
Na31 O87 2.491945 1_565
Na31 O88 2.503392 1_555
Na31 O77 2.565933 1_565
Na31 O84 2.588476 1_565
Na31 O74 2.613860 1_555
Na32 O78 2.365030 1_555
Na32 O80 2.513003 1_545
Na32 O83 2.533086 1_445
Na32 O93 2.573937 1_456
Na32 O94 2.603047 1_556
Na32 O91 2.660408 1_446
Na33 O79 2.379698 1_555
Na33 O81 2.399806 1_545
Na33 O82 2.502359 1_545
Na33 O95 2.583484 1_556
Na33 O90 2.630948 1_546
Na33 O92 2.670212 1_556
Na34 O96 2.317541 1_555
Na34 O100 2.338835 1_555
Na34 O98 2.419412 1_555
Na34 O110 2.511416 1_555
Na34 O112 2.732978 1_555
Na34 O108 2.754864 1_555
Na35 O101 2.378154 1_555
Na35 O97 2.397513 1_555
Na35 O113 2.518845 1_555
Na35 O99 2.529702 1_555
Na35 O111 2.540557 1_555
Na35 O109 2.674688 1_555
Na36 O104 2.411123 1_555
Na36 O116 2.446769 1_555
Na36 O118 2.484464 1_555
Na36 O114 2.535221 1_555
Na36 O106 2.548242 1_555
Na36 O102 2.581038 1_555
Na37 O103 2.328422 1_555
Na37 O105 2.360218 1_555
Na37 O107 2.441636 1_555
Na37 O119 2.486236 1_555
Na37 O117 2.707931 1_555
Na37 O115 2.710355 1_555
Na38 O120 2.435707 1_555
Na38 O122 2.439361 1_555
Na38 O124 2.499346 1_555
Na38 O136 2.548597 1_555
Na38 O134 2.668201 1_555
Na38 O132 2.692711 1_555
Na39 O123 2.457662 1_555
Na39 O121 2.497313 1_555
Na39 O125 2.498301 1_555
Na39 O133 2.504152 1_555
Na39 O137 2.555947 1_555
Na39 O135 2.557044 1_555
Na40 O130 2.466476 1_555
Na40 O138 2.488458 1_555
Na40 O140 2.510338 1_555
Na40 O126 2.523483 1_555
Na40 O128 2.551376 1_555
Na40 O142 2.564394 1_555
Na41 O127 2.473398 1_555
Na41 O143 2.517079 1_555
Na41 O129 2.530390 1_555
Na41 O131 2.534712 1_555
Na41 O141 2.550626 1_555
Na41 O139 2.648419 1_555
Nb0 O16 1.924385 1_655
Nb0 O13 1.957966 1_555
Nb0 O14 1.958768 1_665
Nb0 O89 2.042132 1_555
Nb0 O85 2.047849 1_565
Nb0 O86 2.062021 1_665
Nb1 O17 1.929373 1_555
Nb1 O12 1.932943 1_555
Nb1 O88 1.941152 1_555
Nb1 O84 2.016525 1_565
Nb1 O87 2.054892 1_565
Nb1 O15 2.182831 1_565
Nb2 O93 1.923293 1_555
Nb2 O19 1.936109 1_545
Nb2 O20 1.944089 1_655
Nb2 O91 2.004751 1_545
Nb2 O94 2.042779 1_655
Nb2 O22 2.219946 1_645
Nb3 O21 1.922890 1_555
Nb3 O95 1.925585 1_555
Nb3 O23 1.934712 1_545
Nb3 O92 2.003660 1_555
Nb3 O90 2.006601 1_545
Nb3 O18 2.247181 1_545
Nb4 O60 1.866444 1_555
Nb4 O64 1.866503 1_555
Nb4 O136 1.900274 1_555
Nb4 O62 2.166169 1_555
Nb4 O132 2.183692 1_555
Nb4 O134 2.201807 1_555
Nb5 O69 1.882255 1_555
Nb5 O141 1.902717 1_555
Nb5 O67 1.955890 1_555
Nb5 O143 1.966656 1_555
Nb5 O71 2.200659 1_555
Nb5 O139 2.219360 1_555
Ga0 O3 1.874104 1_455
Ga0 O5 1.902406 1_465
Ga0 O76 2.012992 1_565
Ga0 O72 2.022253 1_555
Ga0 O0 2.059096 1_565
Ga0 O75 2.243769 1_455
Ga1 O1 1.836494 1_555
Ga1 O4 1.887971 1_555
Ga1 O73 1.994481 1_545
Ga1 O2 2.039334 1_545
Ga1 O77 2.221638 1_555
Ga1 O74 2.273535 1_545
Ga2 O11 1.846370 1_455
Ga2 O6 1.853130 1_555
Ga2 O9 1.904838 1_445
Ga2 O78 2.081254 1_555
Ga2 O83 2.387176 1_445
Ga2 O80 2.423545 1_545
Ga3 O10 1.868769 1_555
Ga3 O8 1.906275 1_545
Ga3 O7 2.011703 1_555
Ga3 O81 2.017730 1_545
Ga3 O79 2.047264 1_555
Ga3 O82 2.288906 1_545
Ga4 O24 1.921544 1_555
Ga4 O26 1.974655 1_555
Ga4 O28 2.019636 1_555
Ga4 O96 2.021543 1_555
Ga4 O100 2.039390 1_555
Ga4 O98 2.054685 1_555
Ga5 O25 1.902382 1_555
Ga5 O27 1.915112 1_555
Ga5 O29 1.955630 1_555
Ga5 O97 2.025197 1_555
Ga5 O101 2.033347 1_555
Ga5 O99 2.259769 1_555
Ga6 O32 1.853638 1_555
Ga6 O30 1.884497 1_555
Ga6 O34 1.891713 1_555
Ga6 O104 2.013573 1_555
Ga6 O106 2.270561 1_555
Ga6 O102 2.443521 1_555
Ga7 O31 1.909555 1_555
Ga7 O35 1.975745 1_555
Ga7 O33 2.024979 1_555
Ga7 O105 2.026688 1_555
Ga7 O103 2.029160 1_555
Ga7 O107 2.077491 1_555
Ga8 O38 1.877982 1_556
Ga8 O40 1.879819 1_556
Ga8 O36 1.928336 1_556
Ga8 O110 2.043081 1_555
Ga8 O108 2.321829 1_555
Ga8 O112 2.333944 1_555
Ga9 O41 1.883032 1_556
Ga9 O39 1.963653 1_556
Ga9 O37 1.965521 1_556
Ga9 O111 2.028858 1_555
Ga9 O113 2.069033 1_555
Ga9 O109 2.319441 1_555
Ga10 O44 1.876135 1_555
Ga10 O42 1.927809 1_555
Ga10 O46 1.940630 1_555
Ga10 O118 2.092007 1_555
Ga10 O116 2.108831 1_555
Ga10 O114 2.414750 1_555
Ga11 O45 1.848039 1_555
Ga11 O47 1.850670 1_555
Ga11 O43 1.912767 1_555
Ga11 O119 2.117724 1_555
Ga11 O117 2.409676 1_555
Ga11 O115 2.410876 1_555
Ga12 O50 1.882823 1_554
Ga12 O122 1.934268 1_555
Ga12 O120 1.956365 1_555
Ga12 O124 1.979492 1_555
Ga12 O48 2.153251 1_554
Ga12 O52 2.185254 1_554
Ga13 O51 1.933060 1_554
Ga13 O53 1.941451 1_554
Ga13 O123 1.955325 1_555
Ga13 O121 2.017042 1_555
Ga13 O125 2.028910 1_555
Ga13 O49 2.212650 1_554
Ga14 O130 1.905833 1_555
Ga14 O58 1.937792 1_555
Ga14 O56 1.960699 1_555
Ga14 O126 1.991845 1_555
Ga14 O128 1.993187 1_555
Ga14 O54 2.270886 1_555
Ga15 O127 1.914028 1_555
Ga15 O131 1.918275 1_555
Ga15 O59 1.919716 1_555
Ga15 O129 1.972244 1_555
Ga15 O55 2.168401 1_555
Ga15 O57 2.247962 1_555
Ga16 O61 1.900143 1_555
Ga16 O133 1.936697 1_555
Ga16 O137 1.947348 1_555
Ga16 O135 1.971959 1_555
Ga16 O65 2.164462 1_555
Ga16 O63 2.210274 1_555
Ga17 O66 1.894904 1_555
Ga17 O140 1.907265 1_555
Ga17 O138 1.927455 1_555
Ga17 O142 1.982754 1_555
Ga17 O68 2.211698 1_555
Ga17 O70 2.238524 1_555
O0 S0 1.481175 1_555
O1 Si0 1.629367 1_555
O2 S1 1.497377 1_555
O3 Si1 1.620211 1_555
O4 Si3 1.635156 1_555
O5 Si2 1.617116 1_555
O6 Si4 1.633864 1_555
O7 S2 1.486702 1_555
O8 Si6 1.620162 1_555
O9 Si5 1.637708 1_555
O10 Si7 1.621458 1_555
O11 Si8 1.631946 1_555
O12 Si7 1.700267 1_565
O13 Si8 1.661787 1_565
O14 Si4 1.672775 1_555
O15 S2 1.497553 1_555
O16 Si5 1.679060 1_455
O17 Si6 1.665967 1_555
O18 S1 1.485460 1_555
O19 Si1 1.698603 1_555
O20 Si2 1.659068 1_455
O21 Si3 1.685398 1_555
O22 S0 1.490405 1_565
O23 Si0 1.683189 1_565
O24 Si9 1.602000 1_555
O25 Si10 1.609956 1_555
O26 Si11 1.618653 1_555
O27 Si12 1.598323 1_555
O28 Si13 1.605678 1_555
O29 Si14 1.610781 1_555
O30 Si15 1.623799 1_555
O31 Si16 1.605268 1_555
O32 Si17 1.614414 1_555
O33 Si18 1.612356 1_555
O34 Si19 1.624117 1_555
O35 Si20 1.612432 1_555
O36 Si19 1.650034 1_555
O37 Si20 1.626653 1_555
O38 Si15 1.632771 1_555
O39 Si16 1.636131 1_555
O40 Si17 1.634728 1_555
O41 Si18 1.623379 1_555
O42 Si11 1.649988 1_555
O43 Si12 1.658734 1_555
O44 Si13 1.633369 1_555
O45 Si14 1.652282 1_555
O46 Si9 1.647290 1_555
O47 Si10 1.646772 1_555
O48 S3 1.492089 1_555
O49 S4 1.482453 1_555
O50 Si21 1.652526 1_555
O51 Si22 1.632291 1_555
O52 S5 1.490773 1_555
O53 Si23 1.626134 1_555
O54 S6 1.470856 1_555
O55 S7 1.489840 1_555
O56 Si24 1.616637 1_555
O57 S8 1.482827 1_555
O58 Si25 1.615870 1_555
O59 Si26 1.645995 1_555
O60 Si25 1.715378 1_555
O61 Si26 1.643145 1_555
O62 S6 1.506138 1_555
O63 S7 1.481469 1_555
O64 Si24 1.711881 1_555
O65 S8 1.483896 1_555
O66 Si21 1.640226 1_555
O67 Si22 1.675244 1_555
O68 S5 1.483291 1_555
O69 Si23 1.688945 1_555
O70 S3 1.477591 1_555
O71 S4 1.491261 1_555
O72 Si25 1.634125 1_555
O73 Si26 1.694568 1_555
O74 S6 1.495734 1_555
O75 S7 1.498928 1_555
O76 Si24 1.638129 1_555
O77 S8 1.514623 1_555
O78 Si21 1.676848 1_555
O79 Si22 1.642273 1_555
O80 S5 1.493300 1_555
O81 Si23 1.641262 1_555
O82 S3 1.494274 1_555
O83 S4 1.488631 1_555
O84 Si9 1.677423 1_555
O85 Si10 1.654197 1_555
O86 Si11 1.676592 1_555
O87 Si12 1.679555 1_555
O88 Si13 1.701573 1_555
O89 Si14 1.662314 1_555
O90 Si15 1.666258 1_555
O91 Si16 1.683924 1_555
O92 Si17 1.667264 1_555
O93 Si18 1.705608 1_555
O94 Si19 1.680698 1_555
O95 Si20 1.716302 1_555
O96 Si7 1.604595 1_555
O97 Si8 1.611071 1_555
O98 Si4 1.607829 1_555
O99 S2 1.457699 1_555
O100 Si6 1.594712 1_555
O101 Si5 1.617597 1_555
O102 S1 1.464930 1_555
O103 Si1 1.607204 1_555
O104 Si3 1.638726 1_555
O105 Si2 1.598068 1_555
O106 S0 1.463171 1_555
O107 Si0 1.605023 1_555
O108 S3 1.494540 1_555
O109 S4 1.484157 1_555
O110 Si22 1.662236 1_555
O111 Si21 1.652945 1_655
O112 S5 1.497570 1_545
O113 Si23 1.629911 1_545
O114 S6 1.479505 1_545
O115 S7 1.489419 1_545
O116 Si24 1.630040 1_555
O117 S8 1.486628 1_555
O118 Si26 1.649283 1_555
O119 Si25 1.643598 1_655
O120 Si19 1.642484 1_555
O121 Si20 1.631269 1_555
O122 Si16 1.649775 1_455
O123 Si15 1.623551 1_555
O124 Si17 1.630800 1_565
O125 Si18 1.630843 1_565
O126 Si11 1.642463 1_565
O127 Si12 1.645350 1_565
O128 Si13 1.626504 1_555
O129 Si14 1.649204 1_555
O130 Si10 1.629037 1_455
O131 Si9 1.647562 1_555
O132 S0 1.511851 1_565
O133 Si0 1.630818 1_565
O134 S1 1.495043 1_555
O135 Si1 1.659074 1_555
O136 Si2 1.693206 1_455
O137 Si3 1.647398 1_555
O138 Si4 1.635094 1_555
O139 S2 1.492006 1_555
O140 Si5 1.656251 1_455
O141 Si6 1.668545 1_555
O142 Si7 1.653609 1_565
O143 Si8 1.661133 1_565
