# generated using pymatgen
data_Ba2YMgNi3O8
_symmetry_space_group_name_H-M   'P 1'
_cell_length_a   3.91560463
_cell_length_b   3.91340465
_cell_length_c   14.82332461
_cell_angle_alpha   90.00001256
_cell_angle_beta   90.00003099
_cell_angle_gamma   90.00001419
_symmetry_Int_Tables_number   1
_chemical_formula_structural   Ba2YMgNi3O8
_chemical_formula_sum   'Ba2 Y1 Mg1 Ni3 O8'
_cell_volume   227.14292248
_cell_formula_units_Z   1
loop_
 _symmetry_equiv_pos_site_id
 _symmetry_equiv_pos_as_xyz
  1  'x, y, z'
loop_
 _atom_site_type_symbol
 _atom_site_label
 _atom_site_symmetry_multiplicity
 _atom_site_fract_x
 _atom_site_fract_y
 _atom_site_fract_z
 _atom_site_occupancy
  Ba  Ba0  1  0.50000000  0.50000000  0.25233232  1
  Ba  Ba1  1  0.50000000  0.50000000  0.74782374  1
  Y  Y0  1  0.50000000  0.50000000  0.49999134  1
  Mg  Mg0  1  0.50000000  0.50000000  0.00028675  1
  Ni  Ni0  1  0.00000100  0.00000100  0.37392467  1
  Ni  Ni1  1  0.99999900  1.00000000  0.99958818  1
  Ni  Ni2  1  1.00000000  0.99999800  0.62606194  1
  O  O0  1  1.00000000  0.50000000  0.40322279  1
  O  O1  1  0.50000000  1.00000000  0.40325842  1
  O  O2  1  0.49999900  0.00000000  0.99985914  1
  O  O3  1  1.00000000  1.00000000  0.23905641  1
  O  O4  1  0.00000000  0.49999900  0.59683285  1
  O  O5  1  0.50000000  0.00000000  0.59683346  1
  O  O6  1  0.99999900  0.00000000  0.76100168  1
  O  O7  1  0.00000000  0.50000000  0.99992631  1
loop_
_geom_bond_atom_site_label_1
_geom_bond_atom_site_label_2
_geom_bond_distance
_geom_bond_site_symmetry_2
Ba0 O3 2.774959 1_445
Ba0 O3 2.774959 1_555
Ba0 O3 2.774960 1_455
Ba0 O3 2.774960 1_545
Ba0 O1 2.972182 1_555
Ba0 O1 2.972182 1_545
Ba0 O0 2.972508 1_555
Ba0 O0 2.972510 1_455
Ba1 O6 2.774854 1_565
Ba1 O6 2.774855 1_555
Ba1 O6 2.774860 1_455
Ba1 O6 2.774860 1_465
Ba1 O5 2.972898 1_555
Ba1 O5 2.972899 1_565
Ba1 O4 2.973628 1_555
Ba1 O4 2.973630 1_655
Mg0 O2 1.956713 1_554
Mg0 O2 1.956713 1_564
Mg0 O7 1.957810 1_554
Mg0 O7 1.957810 1_654
Ni0 O3 1.999196 1_445
Ni0 O0 2.004316 1_455
Ni0 O0 2.004323 1_445
Ni0 O1 2.005504 1_545
Ni0 O1 2.005512 1_445
Ni1 O7 1.956709 1_665
Ni1 O7 1.956709 1_655
Ni1 O2 1.957806 1_665
Ni1 O2 1.957806 1_565
Ni2 O6 2.000256 1_565
Ni2 O4 2.004094 1_655
Ni2 O4 2.004102 1_665
Ni2 O5 2.005170 1_565
Ni2 O5 2.005170 1_665
O0 Y0 2.427052 1_655
O0 Y0 2.427053 1_555
O1 Y0 2.425853 1_565
O1 Y0 2.425853 1_555
O4 Y0 2.427691 1_455
O4 Y0 2.427693 1_555
O5 Y0 2.426810 1_545
O5 Y0 2.426810 1_555
