# generated using pymatgen
data_Li3Cr2P5O16
_symmetry_space_group_name_H-M   'P 1'
_cell_length_a   7.09523600
_cell_length_b   5.13736500
_cell_length_c   17.78505208
_cell_angle_alpha   88.24389564
_cell_angle_beta   90.00000000
_cell_angle_gamma   90.00000000
_symmetry_Int_Tables_number   1
_chemical_formula_structural   Li3Cr2P5O16
_chemical_formula_sum   'Li6 Cr4 P10 O32'
_cell_volume   647.97520377
_cell_formula_units_Z   2
loop_
 _symmetry_equiv_pos_site_id
 _symmetry_equiv_pos_as_xyz
  1  'x, y, z'
loop_
 _atom_site_type_symbol
 _atom_site_label
 _atom_site_symmetry_multiplicity
 _atom_site_fract_x
 _atom_site_fract_y
 _atom_site_fract_z
 _atom_site_occupancy
  Li  Li0  1  0.32854000  0.73552300  0.03709600  1
  Li  Li1  1  0.67146000  0.26447700  0.96290400  1
  Li  Li2  1  0.02394100  0.50000000  0.75000000  1
  Li  Li3  1  0.67146000  0.73552300  0.53709600  1
  Li  Li4  1  0.32854000  0.26447700  0.46290400  1
  Li  Li5  1  0.97605900  0.50000000  0.25000000  1
  Cr  Cr0  1  0.16738000  0.26123800  0.91254900  1
  Cr  Cr1  1  0.16738000  0.73876200  0.58745100  1
  Cr  Cr2  1  0.83262000  0.26123800  0.41254900  1
  Cr  Cr3  1  0.83262000  0.73876200  0.08745100  1
  P  P0  1  0.86954900  0.22015600  0.59190000  1
  P  P1  1  0.46675000  0.27225500  0.62379200  1
  P  P2  1  0.24612300  0.00000000  0.75000000  1
  P  P3  1  0.46675000  0.72774500  0.87620800  1
  P  P4  1  0.13045100  0.22015600  0.09190000  1
  P  P5  1  0.53325000  0.27225500  0.12379200  1
  P  P6  1  0.75387700  0.00000000  0.25000000  1
  P  P7  1  0.86954900  0.77984400  0.90810000  1
  P  P8  1  0.13045100  0.77984400  0.40810000  1
  P  P9  1  0.53325000  0.72774500  0.37620800  1
  O  O0  1  0.80591800  0.37851600  0.52094200  1
  O  O1  1  0.90801900  0.06606700  0.92606300  1
  O  O2  1  0.39299200  0.90010900  0.93637300  1
  O  O3  1  0.80591800  0.62148400  0.97905800  1
  O  O4  1  0.19408200  0.37851600  0.02094200  1
  O  O5  1  0.60700800  0.09989100  0.06362700  1
  O  O6  1  0.09198100  0.93393300  0.07393700  1
  O  O7  1  0.55945200  0.56351800  0.10941400  1
  O  O8  1  0.98632800  0.35624300  0.13964000  1
  O  O9  1  0.31940900  0.21124300  0.14571100  1
  O  O10  1  0.86329000  0.82648900  0.19888100  1
  O  O11  1  0.61728300  0.19433600  0.20534400  1
  O  O12  1  0.61728300  0.80566400  0.29465600  1
  O  O13  1  0.86329000  0.17351100  0.30111900  1
  O  O14  1  0.31940900  0.78875700  0.35428900  1
  O  O15  1  0.98632800  0.64375700  0.36036000  1
  O  O16  1  0.55945200  0.43648200  0.39058600  1
  O  O17  1  0.01367200  0.64375700  0.86036000  1
  O  O18  1  0.60700800  0.90010900  0.43637300  1
  O  O19  1  0.19408200  0.62148400  0.47905800  1
  O  O20  1  0.09198100  0.06606700  0.42606300  1
  O  O21  1  0.39299200  0.09989100  0.56362700  1
  O  O22  1  0.90801900  0.93393300  0.57393700  1
  O  O23  1  0.44054800  0.56351800  0.60941400  1
  O  O24  1  0.01367200  0.35624300  0.63964000  1
  O  O25  1  0.68059100  0.21124300  0.64571100  1
  O  O26  1  0.13671000  0.82648900  0.69888100  1
  O  O27  1  0.38271700  0.19433600  0.70534400  1
  O  O28  1  0.38271700  0.80566400  0.79465600  1
  O  O29  1  0.13671000  0.17351100  0.80111900  1
  O  O30  1  0.68059100  0.78875700  0.85428900  1
  O  O31  1  0.44054800  0.43648200  0.89058600  1
loop_
_geom_bond_atom_site_label_1
_geom_bond_atom_site_label_2
_geom_bond_distance
_geom_bond_site_symmetry_2
Li0 O2 2.010028 1_554
Li0 O6 2.079999 1_555
Li0 O4 2.094948 1_555
Li0 O7 2.247157 1_555
Li1 O5 2.010028 1_556
Li1 O1 2.079999 1_555
Li1 O3 2.094948 1_555
Li1 O31 2.247157 1_555
Li2 O29 2.046120 1_555
Li2 O26 2.046120 1_555
Li2 O24 2.119434 1_555
Li2 O17 2.119434 1_555
Li3 O18 2.010028 1_555
Li3 O22 2.079999 1_555
Li3 O0 2.094948 1_555
Li3 O23 2.247157 1_555
Li4 O21 2.010028 1_555
Li4 O20 2.079999 1_555
Li4 O19 2.094948 1_555
Li4 O16 2.247157 1_555
Li5 O13 2.046120 1_555
Li5 O10 2.046120 1_555
Li5 O8 2.119434 1_555
Li5 O15 2.119434 1_555
Cr0 O4 2.046070 1_556
Cr0 O29 2.057352 1_555
Cr0 O1 2.105889 1_455
Cr0 O31 2.167519 1_555
Cr0 O17 2.408506 1_555
Cr0 O2 2.477050 1_545
Cr1 O19 2.046070 1_555
Cr1 O26 2.057352 1_555
Cr1 O22 2.105889 1_455
Cr1 O23 2.167519 1_555
Cr1 O24 2.408506 1_555
Cr1 O21 2.477050 1_565
Cr2 O0 2.046070 1_555
Cr2 O13 2.057352 1_555
Cr2 O20 2.105889 1_655
Cr2 O16 2.167519 1_555
Cr2 O15 2.408506 1_555
Cr2 O18 2.477050 1_545
Cr3 O3 2.046070 1_554
Cr3 O10 2.057352 1_555
Cr3 O6 2.105889 1_655
Cr3 O7 2.167519 1_555
Cr3 O8 2.408506 1_555
Cr3 O5 2.477050 1_565
O0 P0 1.547707 1_555
O1 P7 1.538678 1_545
O2 P3 1.503673 1_555
O3 P7 1.547707 1_555
O4 P4 1.547707 1_555
O5 P5 1.503673 1_555
O6 P4 1.538678 1_565
O7 P5 1.521672 1_555
O8 P4 1.513851 1_655
O9 P5 1.595236 1_555
O9 P4 1.647058 1_555
O10 P6 1.507801 1_565
O11 P6 1.586886 1_555
O11 P5 1.607429 1_555
O12 P6 1.586886 1_565
O12 P9 1.607429 1_555
O13 P6 1.507801 1_555
O14 P9 1.595236 1_555
O14 P8 1.647058 1_555
O15 P8 1.513851 1_655
O16 P9 1.521672 1_555
O17 P7 1.513851 1_455
O18 P9 1.503673 1_555
O19 P8 1.547707 1_555
O20 P8 1.538678 1_545
O21 P1 1.503673 1_555
O22 P0 1.538678 1_565
O23 P1 1.521672 1_555
O24 P0 1.513851 1_455
O25 P1 1.595236 1_555
O25 P0 1.647058 1_555
O26 P2 1.507801 1_565
O27 P2 1.586886 1_555
O27 P1 1.607429 1_555
O28 P2 1.586886 1_565
O28 P3 1.607429 1_555
O29 P2 1.507801 1_555
O30 P3 1.595236 1_555
O30 P7 1.647058 1_555
O31 P3 1.521672 1_555
