# generated using pymatgen
data_CrPO5
_symmetry_space_group_name_H-M   'P 1'
_cell_length_a   6.09121200
_cell_length_b   7.15650100
_cell_length_c   8.12881400
_cell_angle_alpha   89.99969282
_cell_angle_beta   90.00001645
_cell_angle_gamma   90.00004283
_symmetry_Int_Tables_number   1
_chemical_formula_structural   CrPO5
_chemical_formula_sum   'Cr4 P4 O20'
_cell_volume   354.34934774
_cell_formula_units_Z   4
loop_
 _symmetry_equiv_pos_site_id
 _symmetry_equiv_pos_as_xyz
  1  'x, y, z'
loop_
 _atom_site_type_symbol
 _atom_site_label
 _atom_site_symmetry_multiplicity
 _atom_site_fract_x
 _atom_site_fract_y
 _atom_site_fract_z
 _atom_site_occupancy
  Cr  Cr0  1  0.75000100  0.29240300  0.81436400  1
  Cr  Cr1  1  0.25000000  0.79241300  0.68565600  1
  Cr  Cr2  1  0.75000200  0.20761700  0.31441000  1
  Cr  Cr3  1  0.25000000  0.70762200  0.18559600  1
  P  P0  1  0.75000000  0.60442200  0.12229500  1
  P  P1  1  0.24999900  0.10442500  0.37770300  1
  P  P2  1  0.75000000  0.89557000  0.62231000  1
  P  P3  1  0.25000000  0.39556400  0.87769200  1
  O  O0  1  0.44954800  0.26119600  0.86549000  1
  O  O1  1  0.05045100  0.26119600  0.86549000  1
  O  O2  1  0.55043800  0.73878200  0.13444200  1
  O  O3  1  0.94956200  0.73878100  0.13444200  1
  O  O4  1  0.44956100  0.23878100  0.36555700  1
  O  O5  1  0.55045200  0.76119300  0.63450900  1
  O  O6  1  0.94954800  0.76119300  0.63450900  1
  O  O7  1  0.05043800  0.23878100  0.36555700  1
  O  O8  1  0.25000000  0.87707300  0.86444900  1
  O  O9  1  0.75000000  0.12294300  0.13558200  1
  O  O10  1  0.25000000  0.62294400  0.36441400  1
  O  O11  1  0.75000000  0.37707800  0.63553500  1
  O  O12  1  0.25000000  0.96643200  0.23202100  1
  O  O13  1  0.75000000  0.46643300  0.26797600  1
  O  O14  1  0.75000000  0.03355900  0.76800000  1
  O  O15  1  0.25000000  0.53355900  0.73199700  1
  O  O16  1  0.25000000  0.00328500  0.54473900  1
  O  O17  1  0.25000000  0.49673500  0.04467800  1
  O  O18  1  0.75000000  0.99673400  0.45532100  1
  O  O19  1  0.75000000  0.50328400  0.95526300  1
loop_
_geom_bond_atom_site_label_1
_geom_bond_atom_site_label_2
_geom_bond_distance
_geom_bond_site_symmetry_2
Cr0 O11 1.574912 1_555
Cr0 O1 1.889941 1_655
Cr0 O0 1.889959 1_555
Cr0 O14 1.890370 1_555
Cr0 O19 1.894577 1_555
Cr1 O8 1.574607 1_555
Cr1 O6 1.890002 1_455
Cr1 O5 1.890002 1_555
Cr1 O15 1.890399 1_555
Cr1 O16 1.894604 1_565
Cr2 O9 1.574908 1_555
Cr2 O7 1.889860 1_655
Cr2 O4 1.889890 1_555
Cr2 O13 1.890283 1_555
Cr2 O18 1.894637 1_545
Cr3 O10 1.574838 1_555
Cr3 O3 1.889880 1_455
Cr3 O2 1.889881 1_555
Cr3 O12 1.890231 1_555
Cr3 O17 1.894704 1_555
O0 P3 1.553042 1_555
O1 P3 1.553045 1_555
O2 P0 1.553045 1_555
O3 P0 1.553039 1_555
O4 P1 1.553025 1_555
O5 P2 1.553078 1_555
O6 P2 1.553079 1_555
O7 P1 1.553021 1_555
O12 P1 1.541961 1_565
O13 P0 1.541928 1_555
O14 P2 1.541992 1_545
O15 P3 1.542043 1_555
O16 P1 1.538675 1_555
O17 P3 1.538428 1_554
O18 P2 1.538419 1_555
O19 P0 1.538647 1_556
