# generated using pymatgen
data_MgMn2(NiO3)2
_symmetry_space_group_name_H-M   'P 1'
_cell_length_a   5.78408409
_cell_length_b   5.78408412
_cell_length_c   5.78408406
_cell_angle_alpha   53.04359089
_cell_angle_beta   53.04359106
_cell_angle_gamma   53.04360338
_symmetry_Int_Tables_number   1
_chemical_formula_structural   MgMn2(NiO3)2
_chemical_formula_sum   'Mg1 Mn2 Ni2 O6'
_cell_volume   114.52508856
_cell_formula_units_Z   1
loop_
 _symmetry_equiv_pos_site_id
 _symmetry_equiv_pos_as_xyz
  1  'x, y, z'
loop_
 _atom_site_type_symbol
 _atom_site_label
 _atom_site_symmetry_multiplicity
 _atom_site_fract_x
 _atom_site_fract_y
 _atom_site_fract_z
 _atom_site_occupancy
  Mg  Mg0  1  0.50000000  0.50000000  0.50000000  1
  Mn  Mn0  1  0.85332100  0.85332000  0.85332200  1
  Mn  Mn1  1  0.14667900  0.14667800  0.14667900  1
  Ni  Ni0  1  0.67065500  0.67065500  0.67065400  1
  Ni  Ni1  1  0.32934600  0.32934600  0.32934500  1
  O  O0  1  0.73671500  0.44921600  0.07950500  1
  O  O1  1  0.44921600  0.07950500  0.73671700  1
  O  O2  1  0.07950500  0.73671700  0.44921500  1
  O  O3  1  0.26328400  0.55078500  0.92049500  1
  O  O4  1  0.92049400  0.26328400  0.55078500  1
  O  O5  1  0.55078500  0.92049600  0.26328200  1
loop_
_geom_bond_atom_site_label_1
_geom_bond_atom_site_label_2
_geom_bond_distance
_geom_bond_site_symmetry_2
Mg0 O4 2.060999 1_555
Mg0 O1 2.061000 1_555
Mg0 O0 2.061001 1_555
Mg0 O2 2.061003 1_555
Mg0 O3 2.061003 1_555
Mg0 O5 2.061007 1_555
Mn0 O5 2.033928 1_556
Mn0 O3 2.033935 1_655
Mn0 O4 2.033939 1_565
Mn0 O1 2.188030 1_565
Mn0 O0 2.188031 1_556
Mn0 O2 2.188035 1_655
Mn1 O2 2.033928 1_545
Mn1 O1 2.033930 1_554
Mn1 O0 2.033942 1_455
Mn1 O5 2.188033 1_545
Mn1 O4 2.188039 1_455
Mn1 O3 2.188042 1_554
Ni0 O0 2.057894 1_556
Ni0 O2 2.057895 1_655
Ni0 O1 2.057898 1_565
Ni0 O4 2.187779 1_555
Ni0 O3 2.187779 1_555
Ni0 O5 2.187785 1_555
Ni1 O3 2.057895 1_554
Ni1 O5 2.057898 1_545
Ni1 O4 2.057904 1_455
Ni1 O0 2.187770 1_555
Ni1 O2 2.187780 1_555
Ni1 O1 2.187785 1_555
