# generated using pymatgen
data_NaSnGe(PO4)3
_symmetry_space_group_name_H-M   'P 1'
_cell_length_a   8.55140144
_cell_length_b   8.55140118
_cell_length_c   22.24222021
_cell_angle_alpha   90.00000000
_cell_angle_beta   90.00000000
_cell_angle_gamma   120.00000102
_symmetry_Int_Tables_number   1
_chemical_formula_structural   NaSnGe(PO4)3
_chemical_formula_sum   'Na6 Sn6 Ge6 P18 O72'
_cell_volume   1408.58590776
_cell_formula_units_Z   6
loop_
 _symmetry_equiv_pos_site_id
 _symmetry_equiv_pos_as_xyz
  1  'x, y, z'
loop_
 _atom_site_type_symbol
 _atom_site_label
 _atom_site_symmetry_multiplicity
 _atom_site_fract_x
 _atom_site_fract_y
 _atom_site_fract_z
 _atom_site_occupancy
  Na  Na0  1  -0.00000000  0.00000000  0.49882800  1
  Na  Na1  1  -0.00000000  0.00000000  0.99807468  1
  Na  Na2  1  0.66666700  0.33333300  0.83618664  1
  Na  Na3  1  0.66666700  0.33333300  0.33164423  1
  Na  Na4  1  0.33333300  0.66666700  0.16483834  1
  Na  Na5  1  0.33333300  0.66666700  0.66860584  1
  Sn  Sn0  1  -0.00000000  0.00000000  0.65027810  1
  Sn  Sn1  1  -0.00000000  0.00000000  0.14322242  1
  Sn  Sn2  1  0.66666700  0.33333300  0.69038916  1
  Sn  Sn3  1  0.66666700  0.33333300  0.47977224  1
  Sn  Sn4  1  0.33333300  0.66666700  0.51729409  1
  Sn  Sn5  1  0.33333300  0.66666700  0.31240617  1
  Ge  Ge0  1  -0.00000000  0.00000000  0.35032959  1
  Ge  Ge1  1  -0.00000000  0.00000000  0.85553814  1
  Ge  Ge2  1  0.66666700  0.33333300  0.18565203  1
  Ge  Ge3  1  0.66666700  0.33333300  0.97887677  1
  Ge  Ge4  1  0.33333300  0.66666700  0.01899811  1
  Ge  Ge5  1  0.33333300  0.66666700  0.81711397  1
  P  P0  1  0.29305271  0.00794050  0.24900944  1
  P  P1  1  0.71488779  0.70694729  0.24900944  1
  P  P2  1  0.99205950  0.28511221  0.24900944  1
  P  P3  1  0.28545195  0.29372460  0.75559517  1
  P  P4  1  0.00827266  0.71454805  0.75559517  1
  P  P5  1  0.70627540  0.99172734  0.75559517  1
  P  P6  1  0.95950901  0.33346721  0.58409947  1
  P  P7  1  0.37395920  0.04049099  0.58409947  1
  P  P8  1  0.66653279  0.62604080  0.58409947  1
  P  P9  1  0.95242597  0.61087284  0.08090542  1
  P  P10  1  0.65844786  0.04757403  0.08090542  1
  P  P11  1  0.38912716  0.34155214  0.08090542  1
  P  P12  1  0.62024571  0.66667537  0.91747001  1
  P  P13  1  0.04642866  0.37975429  0.91747001  1
  P  P14  1  0.33332463  0.95357134  0.91747001  1
  P  P15  1  0.63517755  0.96062347  0.41419043  1
  P  P16  1  0.32544492  0.36482245  0.41419043  1
  P  P17  1  0.03937653  0.67455508  0.41419043  1
  O  O0  1  0.20732962  0.03977605  0.30592583  1
  O  O1  1  0.83244644  0.79267038  0.30592583  1
  O  O2  1  0.96022395  0.16755356  0.30592583  1
  O  O3  1  0.19719909  0.16808034  0.81000537  1
  O  O4  1  0.97088125  0.80280091  0.81000537  1
  O  O5  1  0.83191966  0.02911875  0.81000537  1
  O  O6  1  0.77617242  0.95534234  0.69639580  1
  O  O7  1  0.17916993  0.22382758  0.69639580  1
  O  O8  1  0.04465766  0.82083007  0.69639580  1
  O  O9  1  0.78798792  0.82071674  0.19198944  1
  O  O10  1  0.03272882  0.21201208  0.19198944  1
  O  O11  1  0.17928326  0.96727118  0.19198944  1
  O  O12  1  0.87977822  0.36666111  0.64148806  1
  O  O13  1  0.48688389  0.12022178  0.64148806  1
  O  O14  1  0.63333889  0.51311611  0.64148806  1
  O  O15  1  0.87242992  0.49889387  0.13937091  1
  O  O16  1  0.62646494  0.12757008  0.13937091  1
  O  O17  1  0.50110613  0.37353506  0.13937091  1
  O  O18  1  0.47023154  0.30452711  0.02441536  1
  O  O19  1  0.83429657  0.52976846  0.02441536  1
  O  O20  1  0.69547289  0.16570343  0.02441536  1
  O  O21  1  0.45164336  0.15157074  0.52660871  1
  O  O22  1  0.69992838  0.54835664  0.52660871  1
  O  O23  1  0.84842926  0.30007162  0.52660871  1
  O  O24  1  0.53907150  0.70578146  0.97393187  1
  O  O25  1  0.16670896  0.46092850  0.97393187  1
  O  O26  1  0.29421854  0.83329104  0.97393187  1
  O  O27  1  0.55872032  0.84737125  0.47188975  1
  O  O28  1  0.28864992  0.44127968  0.47188975  1
  O  O29  1  0.15262875  0.71135008  0.47188975  1
  O  O30  1  0.11839164  0.63352818  0.35885427  1
  O  O31  1  0.51513554  0.88160836  0.35885427  1
  O  O32  1  0.36647182  0.48486446  0.35885427  1
  O  O33  1  0.12715826  0.49896462  0.86090833  1
  O  O34  1  0.37180537  0.87284174  0.86090833  1
  O  O35  1  0.50103538  0.62819463  0.86090833  1
  O  O36  1  0.02535857  0.84643113  0.40611855  1
  O  O37  1  0.82107256  0.97464143  0.40611855  1
  O  O38  1  0.15356887  0.17892744  0.40611855  1
  O  O39  1  0.02654291  0.18913338  0.90995470  1
  O  O40  1  0.16259047  0.97345709  0.90995470  1
  O  O41  1  0.81086662  0.83740953  0.90995470  1
  O  O42  1  0.97643021  0.16357960  0.58871857  1
  O  O43  1  0.18714939  0.02356979  0.58871857  1
  O  O44  1  0.83642040  0.81285061  0.58871857  1
  O  O45  1  0.97294180  0.80104355  0.08502228  1
  O  O46  1  0.82810176  0.02705820  0.08502228  1
  O  O47  1  0.19895645  0.17189824  0.08502228  1
  O  O48  1  0.68892951  0.16291728  0.75093663  1
  O  O49  1  0.47398877  0.31107049  0.75093663  1
  O  O50  1  0.83708272  0.52601123  0.75093663  1
  O  O51  1  0.70063699  0.51932968  0.24218089  1
  O  O52  1  0.81869368  0.29936301  0.24218089  1
  O  O53  1  0.48067032  0.18130632  0.24218089  1
  O  O54  1  0.64019686  0.49597144  0.92441328  1
  O  O55  1  0.85577558  0.35980314  0.92441328  1
  O  O56  1  0.50402856  0.14422442  0.92441328  1
  O  O57  1  0.65552020  0.14875619  0.41951489  1
  O  O58  1  0.49323700  0.34447980  0.41951489  1
  O  O59  1  0.85124381  0.50676300  0.41951489  1
  O  O60  1  0.37075559  0.51304103  0.07425292  1
  O  O61  1  0.14228444  0.62924441  0.07425292  1
  O  O62  1  0.48695897  0.85771556  0.07425292  1
  O  O63  1  0.35749089  0.85376687  0.57917938  1
  O  O64  1  0.49627498  0.64250911  0.57917938  1
  O  O65  1  0.14623313  0.50372502  0.57917938  1
  O  O66  1  0.31636926  0.84129309  0.25438519  1
  O  O67  1  0.52492283  0.68363074  0.25438519  1
  O  O68  1  0.15870691  0.47507717  0.25438519  1
  O  O69  1  0.30425064  0.48209653  0.76291956  1
  O  O70  1  0.17784490  0.69574936  0.76291956  1
  O  O71  1  0.51790347  0.82215510  0.76291956  1
loop_
_geom_bond_atom_site_label_1
_geom_bond_atom_site_label_2
_geom_bond_distance
_geom_bond_site_symmetry_2
Na0 O44 2.505348 1_445
Na0 O42 2.505348 1_455
Na0 O43 2.505348 1_555
Na0 O38 2.511668 1_555
Na0 O36 2.511668 1_545
Na0 O37 2.511668 1_445
Na1 O39 2.478263 1_555
Na1 O41 2.478263 1_445
Na1 O40 2.478263 1_545
Na1 O46 2.508881 1_456
Na1 O47 2.508881 1_556
Na1 O45 2.508881 1_446
Na2 O50 2.456168 1_555
Na2 O48 2.456168 1_555
Na2 O49 2.456168 1_555
Na2 O56 2.480157 1_555
Na2 O54 2.480157 1_555
Na2 O55 2.480157 1_555
Na3 O52 2.472185 1_555
Na3 O53 2.472185 1_555
Na3 O51 2.472185 1_555
Na3 O58 2.483904 1_555
Na3 O59 2.483904 1_555
Na3 O57 2.483904 1_555
Na4 O62 2.511608 1_555
Na4 O60 2.511608 1_555
Na4 O61 2.511608 1_555
Na4 O68 2.536643 1_555
Na4 O66 2.536643 1_555
Na4 O67 2.536643 1_555
Na5 O63 2.495663 1_555
Na5 O65 2.495663 1_555
Na5 O64 2.495663 1_555
Na5 O70 2.561447 1_555
Na5 O71 2.561447 1_555
Na5 O69 2.561447 1_555
Ge0 O38 1.896346 1_555
Ge0 O36 1.896346 1_545
Ge0 O37 1.896346 1_445
Ge0 O2 1.905637 1_455
Ge0 O1 1.905637 1_445
Ge0 O0 1.905637 1_555
Ge1 O4 1.873890 1_445
Ge1 O3 1.873890 1_555
Ge1 O5 1.873890 1_455
Ge1 O39 1.940409 1_555
Ge1 O41 1.940409 1_445
Ge1 O40 1.940409 1_545
Ge2 O16 1.915460 1_555
Ge2 O15 1.915460 1_555
Ge2 O17 1.915460 1_555
Ge2 O52 1.932101 1_555
Ge2 O53 1.932101 1_555
Ge2 O51 1.932101 1_555
Ge3 O19 1.869369 1_556
Ge3 O20 1.869369 1_556
Ge3 O18 1.869369 1_556
Ge3 O56 1.941083 1_555
Ge3 O54 1.941083 1_555
Ge3 O55 1.941083 1_555
Ge4 O25 1.903544 1_554
Ge4 O26 1.903544 1_554
Ge4 O24 1.903544 1_554
Ge4 O62 1.938837 1_555
Ge4 O60 1.938837 1_555
Ge4 O61 1.938837 1_555
Ge5 O34 1.893540 1_555
Ge5 O33 1.893540 1_555
Ge5 O35 1.893541 1_555
Ge5 O70 1.900913 1_555
Ge5 O71 1.900913 1_555
Ge5 O69 1.900913 1_555
O0 P0 1.553598 1_555
O1 P1 1.553598 1_555
O2 P2 1.553598 1_555
O3 P3 1.541977 1_555
O4 P4 1.541977 1_655
O5 P5 1.541977 1_545
O6 P5 1.540720 1_555
O6 Sn0 2.032393 1_665
O7 P3 1.540720 1_555
O7 Sn0 2.032393 1_555
O8 P4 1.540720 1_555
O8 Sn0 2.032394 1_565
O9 P1 1.528912 1_555
O9 Sn1 2.008589 1_665
O10 P2 1.528912 1_455
O10 Sn1 2.008589 1_555
O11 P0 1.528912 1_565
O11 Sn1 2.008589 1_565
O12 P6 1.538927 1_555
O12 Sn2 2.016433 1_555
O13 P7 1.538927 1_555
O13 Sn2 2.016433 1_555
O14 P8 1.538927 1_555
O14 Sn2 2.016433 1_555
O15 P9 1.555926 1_555
O16 P10 1.555926 1_555
O17 P11 1.555926 1_555
O18 P11 1.542582 1_555
O19 P9 1.542582 1_555
O20 P10 1.542582 1_555
O21 P7 1.532222 1_555
O21 Sn3 2.006029 1_555
O22 P8 1.532222 1_555
O22 Sn3 2.006029 1_555
O23 P6 1.532222 1_555
O23 Sn3 2.006029 1_555
O24 P12 1.550142 1_555
O25 P13 1.550142 1_555
O26 P14 1.550142 1_555
O27 P15 1.542471 1_555
O27 Sn4 2.035734 1_555
O28 P16 1.542471 1_555
O28 Sn4 2.035734 1_555
O29 P17 1.542471 1_555
O29 Sn4 2.035734 1_555
O30 P17 1.526947 1_555
O30 Sn5 2.001293 1_555
O31 P15 1.526947 1_555
O31 Sn5 2.001293 1_555
O32 P16 1.526947 1_555
O32 Sn5 2.001293 1_555
O33 P13 1.547497 1_555
O34 P14 1.547497 1_555
O35 P12 1.547497 1_555
O36 P17 1.543712 1_555
O37 P15 1.543720 1_555
O38 P16 1.543717 1_555
O39 P13 1.561029 1_555
O40 P14 1.561020 1_555
O41 P12 1.561025 1_555
O42 P6 1.533712 1_555
O42 Sn0 2.038154 1_655
O43 P7 1.533720 1_555
O43 Sn0 2.038154 1_555
O44 P8 1.533717 1_555
O44 Sn0 2.038154 1_665
O45 P9 1.548700 1_555
O45 Sn1 2.056749 1_665
O46 P10 1.548692 1_555
O46 Sn1 2.056749 1_655
O47 P11 1.548696 1_555
O47 Sn1 2.056749 1_555
O48 P5 1.546909 1_545
O48 Sn2 2.061797 1_555
O49 P3 1.546917 1_555
O49 Sn2 2.061797 1_555
O50 P4 1.546914 1_655
O50 Sn2 2.061797 1_555
O51 P1 1.554503 1_555
O52 P2 1.554494 1_555
O53 P0 1.554499 1_555
O54 P12 1.559776 1_555
O55 P13 1.559759 1_655
O56 P14 1.559766 1_545
O57 P15 1.533837 1_545
O57 Sn3 2.036231 1_555
O58 P16 1.533854 1_555
O58 Sn3 2.036231 1_555
O59 P17 1.533844 1_655
O59 Sn3 2.036231 1_555
O60 P11 1.558043 1_555
O61 P9 1.558026 1_455
O62 P10 1.558033 1_565
O63 P7 1.535110 1_565
O63 Sn4 2.041250 1_555
O64 P8 1.535127 1_555
O64 Sn4 2.041250 1_555
O65 P6 1.535117 1_455
O65 Sn4 2.041250 1_555
O66 P0 1.539161 1_565
O66 Sn5 2.032987 1_555
O67 P1 1.539170 1_555
O67 Sn5 2.032987 1_555
O68 P2 1.539166 1_455
O68 Sn5 2.032987 1_555
O69 P3 1.545396 1_555
O70 P4 1.545388 1_555
O71 P5 1.545392 1_555
