# generated using pymatgen
data_MgRe2NiO8
_symmetry_space_group_name_H-M   'P 1'
_cell_length_a   5.82069300
_cell_length_b   5.82069238
_cell_length_c   5.53517300
_cell_angle_alpha   90.00000000
_cell_angle_beta   90.00000000
_cell_angle_gamma   119.99998952
_symmetry_Int_Tables_number   1
_chemical_formula_structural   MgRe2NiO8
_chemical_formula_sum   'Mg1 Re2 Ni1 O8'
_cell_volume   162.40942108
_cell_formula_units_Z   1
loop_
 _symmetry_equiv_pos_site_id
 _symmetry_equiv_pos_as_xyz
  1  'x, y, z'
loop_
 _atom_site_type_symbol
 _atom_site_label
 _atom_site_symmetry_multiplicity
 _atom_site_fract_x
 _atom_site_fract_y
 _atom_site_fract_z
 _atom_site_occupancy
  Mg  Mg0  1  0.00000000  0.00000000  0.50000000  1
  Re  Re0  1  0.33333300  0.66666700  0.32778300  1
  Re  Re1  1  0.66666700  0.33333300  0.67221700  1
  Ni  Ni0  1  0.00000000  0.00000000  0.00000000  1
  O  O0  1  0.66666700  0.33333300  0.35923600  1
  O  O1  1  0.33333300  0.66666700  0.64076400  1
  O  O2  1  0.83844300  0.15664600  0.75117600  1
  O  O3  1  0.15664600  0.31820300  0.24882400  1
  O  O4  1  0.68179700  0.83844300  0.24882400  1
  O  O5  1  0.16155700  0.84335400  0.24882400  1
  O  O6  1  0.84335400  0.68179700  0.75117600  1
  O  O7  1  0.31820300  0.16155700  0.75117600  1
loop_
_geom_bond_atom_site_label_1
_geom_bond_atom_site_label_2
_geom_bond_distance
_geom_bond_site_symmetry_2
Mg0 O2 2.122740 1_455
Mg0 O5 2.122740 1_545
Mg0 O6 2.122740 1_445
Mg0 O3 2.122740 1_555
Mg0 O7 2.122740 1_555
Mg0 O4 2.122740 1_445
Ni0 O2 2.114236 1_454
Ni0 O5 2.114236 1_545
Ni0 O3 2.114236 1_555
Ni0 O6 2.114236 1_444
Ni0 O7 2.114236 1_554
Ni0 O4 2.114236 1_445
O0 Re1 1.732404 1_555
O1 Re0 1.732404 1_555
O2 Re1 1.810168 1_555
O3 Re0 1.810173 1_555
O4 Re0 1.810173 1_555
O5 Re0 1.810168 1_555
O6 Re1 1.810173 1_555
O7 Re1 1.810173 1_555
