# generated using pymatgen
data_Na7Y4SiP5O24
_symmetry_space_group_name_H-M   'P 1'
_cell_length_a   9.39051409
_cell_length_b   9.38862392
_cell_length_c   23.42042665
_cell_angle_alpha   89.83087034
_cell_angle_beta   90.10600816
_cell_angle_gamma   120.00322777
_symmetry_Int_Tables_number   1
_chemical_formula_structural   Na7Y4SiP5O24
_chemical_formula_sum   'Na21 Y12 Si3 P15 O72'
_cell_volume   1788.13657521
_cell_formula_units_Z   3
loop_
 _symmetry_equiv_pos_site_id
 _symmetry_equiv_pos_as_xyz
  1  'x, y, z'
loop_
 _atom_site_type_symbol
 _atom_site_label
 _atom_site_symmetry_multiplicity
 _atom_site_fract_x
 _atom_site_fract_y
 _atom_site_fract_z
 _atom_site_occupancy
  Na  Na0  1  0.36407284  0.36330187  0.25044370  1
  Na  Na1  1  0.99895522  0.63393359  0.24757053  1
  Na  Na2  1  0.63858843  0.64362483  0.74841332  1
  Na  Na3  1  0.99158674  0.35655572  0.75262159  1
  Na  Na4  1  0.37191423  0.00014343  0.74768496  1
  Na  Na5  1  0.30191566  0.32408165  0.58147196  1
  Na  Na6  1  0.03807290  0.70465879  0.58254854  1
  Na  Na7  1  0.66108175  0.96998992  0.58703998  1
  Na  Na8  1  0.29632539  0.96318193  0.08326023  1
  Na  Na9  1  0.67434234  0.69617763  0.08241686  1
  Na  Na10  1  0.02898012  0.34043423  0.08478089  1
  Na  Na11  1  0.96706749  0.66583554  0.91978344  1
  Na  Na12  1  0.69943020  0.03261557  0.91406097  1
  Na  Na13  1  0.96963110  0.30325310  0.41570187  1
  Na  Na14  1  0.33424250  0.03267669  0.41918053  1
  Na  Na15  1  0.99663307  0.98967562  0.50036834  1
  Na  Na16  1  0.01053738  0.00406997  0.99941198  1
  Na  Na17  1  0.65655878  0.32676880  0.83358968  1
  Na  Na18  1  0.66661972  0.33327995  0.33326501  1
  Na  Na19  1  0.33706495  0.67689063  0.16685997  1
  Na  Na20  1  0.34219929  0.68112039  0.66656985  1
  Y  Y0  1  0.98861296  0.99139070  0.34972063  1
  Y  Y1  1  0.00516333  0.00754378  0.85002437  1
  Y  Y2  1  0.99922642  0.00037828  0.65148621  1
  Y  Y3  1  0.99426410  0.99718519  0.15166405  1
  Y  Y4  1  0.66482246  0.32756187  0.68174002  1
  Y  Y5  1  0.67053771  0.32756483  0.18346647  1
  Y  Y6  1  0.66208318  0.33672058  0.98363101  1
  Y  Y7  1  0.66260209  0.33805400  0.48299878  1
  Y  Y8  1  0.33153571  0.66189249  0.01534058  1
  Y  Y9  1  0.33923277  0.66936718  0.51479476  1
  Y  Y10  1  0.34485952  0.67529191  0.31690834  1
  Y  Y11  1  0.33491926  0.66475915  0.81826614  1
  Si  Si0  1  0.69685065  -0.00002024  0.75045548  1
  Si  Si1  1  0.36181208  0.02865616  0.58249497  1
  Si  Si2  1  0.96962456  0.63636826  0.08340926  1
  P  P0  1  0.29710228  0.00039847  0.25088584  1
  P  P1  1  0.69689345  0.69374626  0.24763274  1
  P  P2  1  0.00330867  0.30425941  0.25114006  1
  P  P3  1  0.30100411  0.30139774  0.74814576  1
  P  P4  1  0.99969774  0.69962911  0.75103349  1
  P  P5  1  0.96765821  0.33449960  0.58222579  1
  P  P6  1  0.66721418  0.63361581  0.58535756  1
  P  P7  1  0.66643012  0.03408988  0.08069138  1
  P  P8  1  0.36746246  0.33246953  0.08614164  1
  P  P9  1  0.63878693  0.66866056  0.91625687  1
  P  P10  1  0.02739166  0.36316599  0.91711704  1
  P  P11  1  0.33376488  0.96585057  0.91674202  1
  P  P12  1  0.63643916  0.97250363  0.41893853  1
  P  P13  1  0.32985393  0.36239257  0.41546831  1
  P  P14  1  0.03646154  0.66630973  0.41573059  1
  O  O0  1  0.21075811  0.02099959  0.30402027  1
  O  O1  1  0.80934023  0.78450477  0.29858748  1
  O  O2  1  0.98691998  0.20096371  0.30472788  1
  O  O3  1  0.21604535  0.18639548  0.79898902  1
  O  O4  1  0.97871867  0.78452524  0.80408766  1
  O  O5  1  0.81151420  0.02449582  0.80645721  1
  O  O6  1  0.78099457  0.97412833  0.69307702  1
  O  O7  1  0.20099062  0.22591216  0.69278528  1
  O  O8  1  0.02790344  0.80643455  0.69701828  1
  O  O9  1  0.77208362  0.78997628  0.19173302  1
  O  O10  1  0.02276489  0.22154458  0.19690469  1
  O  O11  1  0.19136805  0.97770308  0.19685030  1
  O  O12  1  0.88965842  0.36276669  0.63614685  1
  O  O13  1  0.47339573  0.11422134  0.63969817  1
  O  O14  1  0.64420295  0.53514271  0.64090423  1
  O  O15  1  0.88242218  0.52166620  0.13985599  1
  O  O16  1  0.63487408  0.11609661  0.13211238  1
  O  O17  1  0.46894872  0.35657399  0.14102280  1
  O  O18  1  0.44969633  0.30155750  0.03483040  1
  O  O19  1  0.85565810  0.54970669  0.02693209  1
  O  O20  1  0.69038397  0.13526947  0.02593980  1
  O  O21  1  0.45081658  0.14417510  0.52641788  1
  O  O22  1  0.69443487  0.54674563  0.53441446  1
  O  O23  1  0.86069293  0.31293904  0.52905444  1
  O  O24  1  0.55427940  0.68775109  0.97016374  1
  O  O25  1  0.12904667  0.44886256  0.97124280  1
  O  O26  1  0.31331819  0.85971464  0.97059477  1
  O  O27  1  0.56111824  0.87650154  0.47461961  1
  O  O28  1  0.31018126  0.44456479  0.46969258  1
  O  O29  1  0.14183240  0.68899579  0.46972799  1
  O  O30  1  0.12271136  0.64557908  0.36257422  1
  O  O31  1  0.52404877  0.88248639  0.36786360  1
  O  O32  1  0.34622619  0.46582798  0.36191694  1
  O  O33  1  0.11169272  0.46665023  0.86325814  1
  O  O34  1  0.35358041  0.88015333  0.86330444  1
  O  O35  1  0.53766740  0.65332366  0.86225566  1
  O  O36  1  0.02520484  0.82572641  0.41184897  1
  O  O37  1  0.81310080  -0.00029206  0.41345916  1
  O  O38  1  0.16990594  0.18907484  0.41255407  1
  O  O39  1  0.00253871  0.18721879  0.91501212  1
  O  O40  1  0.17379382  0.97526843  0.91361446  1
  O  O41  1  0.81217131  0.82773396  0.91408332  1
  O  O42  1  0.98109221  0.17628663  0.58676764  1
  O  O43  1  0.17717988  0.00879080  0.58544606  1
  O  O44  1  0.82039047  0.80888007  0.58759038  1
  O  O45  1  0.98987600  0.82167893  0.08699581  1
  O  O46  1  0.82544191  0.02260853  0.08750819  1
  O  O47  1  0.19015026  0.18188669  0.08988318  1
  O  O48  1  0.68034719  0.16713019  0.74810663  1
  O  O49  1  0.47760542  0.32702446  0.74502776  1
  O  O50  1  0.84179424  0.52817502  0.74650592  1
  O  O51  1  0.68307166  0.52060459  0.24656776  1
  O  O52  1  0.85302639  0.33063905  0.24879729  1
  O  O53  1  0.46681383  0.15913597  0.24719668  1
  O  O54  1  0.66376909  0.51785693  0.91858868  1
  O  O55  1  0.85473103  0.34989082  0.91944373  1
  O  O56  1  0.49255764  0.13530992  0.91992568  1
  O  O57  1  0.65125010  0.14635051  0.41999359  1
  O  O58  1  0.48031799  0.33596215  0.41771275  1
  O  O59  1  0.86669353  0.50705201  0.41945090  1
  O  O60  1  0.35532958  0.49152157  0.07939592  1
  O  O61  1  0.15462020  0.65561756  0.07987362  1
  O  O62  1  0.51546281  0.85663208  0.07715696  1
  O  O63  1  0.34354405  0.84446115  0.57935368  1
  O  O64  1  0.50911618  0.64630368  0.57899001  1
  O  O65  1  0.14298900  0.48645287  0.57725797  1
  O  O66  1  0.30793180  0.84065948  0.25466780  1
  O  O67  1  0.52041561  0.66686933  0.25306921  1
  O  O68  1  0.16330836  0.47755764  0.25395945  1
  O  O69  1  0.31216666  0.47148173  0.75472103  1
  O  O70  1  0.15218692  0.67634163  0.75555198  1
  O  O71  1  0.51171271  0.83524515  0.75385266  1
loop_
_geom_bond_atom_site_label_1
_geom_bond_atom_site_label_2
_geom_bond_distance
_geom_bond_site_symmetry_2
Na0 O67 2.469443 1_555
Na0 O53 2.541953 1_555
Na0 O68 2.595266 1_555
Na0 O51 2.595864 1_555
Na0 O17 2.759303 1_555
Na0 O32 2.819300 1_555
Na1 O52 2.466623 1_555
Na1 O66 2.565394 1_655
Na1 O51 2.602895 1_555
Na1 O68 2.612239 1_655
Na1 O15 2.743091 1_555
Na1 O30 2.912076 1_655
Na2 O49 2.575656 1_555
Na2 O71 2.611107 1_555
Na2 O50 2.624359 1_555
Na2 O69 2.659979 1_555
Na2 O14 2.729344 1_555
Na2 O35 2.848215 1_555
Na3 O48 2.553002 1_555
Na3 O70 2.601101 1_655
Na3 O50 2.619137 1_555
Na3 O69 2.642054 1_655
Na3 O33 2.809562 1_655
Na3 O12 2.899336 1_555
Na3 O5 2.980083 1_555
Na4 O71 2.484283 1_545
Na4 O48 2.511086 1_555
Na4 O70 2.694083 1_545
Na4 O49 2.712992 1_555
Na4 O13 2.724657 1_555
Na4 O34 2.901892 1_545
Na5 O43 2.583462 1_555
Na5 O65 2.614346 1_555
Na5 O42 2.614709 1_455
Na5 O64 2.655888 1_555
Na5 O7 2.768670 1_555
Na5 O28 2.834527 1_555
Na5 O21 2.975255 1_555
Na6 O43 2.476832 1_565
Na6 O63 2.488295 1_555
Na6 O44 2.674304 1_455
Na6 O65 2.683933 1_555
Na6 O29 2.847435 1_555
Na6 O8 2.866510 1_555
Na7 O44 2.605568 1_555
Na7 O63 2.607191 1_555
Na7 O42 2.638351 1_565
Na7 O64 2.640559 1_555
Na7 O6 2.717239 1_555
Na7 O27 2.786468 1_555
Na8 O45 2.496126 1_455
Na8 O61 2.504671 1_555
Na8 O47 2.698935 1_565
Na8 O62 2.704888 1_555
Na8 O26 2.846651 1_554
Na8 O11 2.865933 1_555
Na8 O18 2.976951 1_565
Na8 O16 2.984755 1_565
Na9 O45 2.585983 1_555
Na9 O62 2.599328 1_555
Na9 O60 2.629549 1_555
Na9 O46 2.659447 1_565
Na9 O9 2.714589 1_555
Na9 O24 2.844326 1_554
Na9 O19 2.973062 1_555
Na10 O61 2.582360 1_555
Na10 O47 2.602307 1_555
Na10 O46 2.618522 1_455
Na10 O60 2.659433 1_555
Na10 O25 2.833153 1_554
Na10 O10 2.839586 1_555
Na10 O15 2.968925 1_455
Na11 O54 2.466863 1_555
Na11 O40 2.566636 1_655
Na11 O41 2.579378 1_555
Na11 O55 2.604304 1_555
Na11 O19 2.726440 1_556
Na11 O4 2.908130 1_555
Na12 O39 2.465180 1_655
Na12 O56 2.568517 1_555
Na12 O55 2.583178 1_555
Na12 O41 2.618695 1_545
Na12 O5 2.748791 1_555
Na12 O20 2.810589 1_556
Na13 O37 2.469068 1_555
Na13 O59 2.540512 1_555
Na13 O38 2.590129 1_655
Na13 O57 2.591214 1_555
Na13 O2 2.806417 1_555
Na13 O23 2.864797 1_555
Na14 O58 2.466578 1_555
Na14 O36 2.566591 1_545
Na14 O57 2.612213 1_555
Na14 O38 2.612591 1_555
Na14 O21 2.731542 1_555
Na14 O0 2.914454 1_555
Na15 O43 2.561693 1_665
Na15 O44 2.641165 1_555
Na15 O36 2.678288 1_655
Na15 O37 2.696384 1_565
Na15 O38 2.706524 1_665
Na15 O42 2.731884 1_565
Na16 O45 2.612671 1_446
Na16 O40 2.624946 1_545
Na16 O39 2.641627 1_555
Na16 O41 2.669461 1_445
Na16 O47 2.704275 1_556
Na16 O46 2.761590 1_456
Na17 O48 2.580441 1_555
Na17 O56 2.629255 1_555
Na17 O54 2.661814 1_555
Na17 O49 2.667809 1_555
Na17 O55 2.671704 1_555
Na17 O50 2.731645 1_555
Na18 O51 2.635941 1_555
Na18 O57 2.636942 1_555
Na18 O58 2.651440 1_555
Na18 O52 2.652314 1_555
Na18 O53 2.682226 1_555
Na18 O59 2.684377 1_555
Na19 O61 2.602462 1_555
Na19 O66 2.666375 1_555
Na19 O67 2.682893 1_555
Na19 O62 2.689368 1_555
Na19 O68 2.694773 1_555
Na19 O60 2.752321 1_555
Na20 O63 2.546867 1_555
Na20 O71 2.551139 1_555
Na20 O64 2.701707 1_555
Na20 O70 2.731664 1_555
Na20 O69 2.763832 1_555
Na20 O65 2.793544 1_555
O0 P0 1.550947 1_555
O0 Y0 2.236303 1_445
O1 P1 1.538415 1_555
O1 Y0 2.185647 1_555
O2 P2 1.543897 1_655
O2 Y0 2.236310 1_545
O3 P3 1.534487 1_555
O3 Y1 2.200267 1_555
O4 P4 1.543320 1_555
O4 Y1 2.257341 1_665
O5 Si0 1.637473 1_555
O5 Y1 2.157523 1_655
O6 Si0 1.639139 1_565
O6 Y2 2.170275 1_565
O7 P3 1.549405 1_555
O7 Y2 2.236511 1_455
O8 P4 1.550541 1_455
O8 Y2 2.236761 1_465
O9 P1 1.545072 1_555
O9 Y3 2.226090 1_555
O10 P2 1.548703 1_555
O10 Y3 2.253804 1_445
O11 P0 1.555052 1_565
O11 Y3 2.215731 1_455
O12 P5 1.549688 1_555
O12 Y4 2.239533 1_555
O13 Si1 1.642398 1_555
O13 Y4 2.148714 1_555
O14 P6 1.545314 1_555
O14 Y4 2.261878 1_555
O15 Si2 1.640619 1_555
O15 Y5 2.166408 1_555
O16 P7 1.538153 1_555
O16 Y5 2.201853 1_555
O17 P8 1.546942 1_555
O17 Y5 2.270004 1_555
O18 P8 1.534385 1_555
O18 Y6 2.207396 1_554
O19 Si2 1.639268 1_555
O19 Y6 2.168232 1_554
O20 P7 1.541902 1_555
O20 Y6 2.262818 1_554
O21 Si1 1.639760 1_555
O21 Y7 2.163043 1_555
O22 P6 1.539289 1_555
O22 Y7 2.192079 1_555
O23 P5 1.547316 1_555
O23 Y7 2.260322 1_555
O24 P9 1.550203 1_555
O24 Y8 2.247746 1_556
O25 P10 1.548853 1_555
O25 Y8 2.209975 1_556
O26 P11 1.556506 1_555
O26 Y8 2.209657 1_556
O27 P12 1.540188 1_555
O27 Y9 2.225468 1_555
O28 P13 1.546380 1_555
O28 Y9 2.254117 1_555
O29 P14 1.552403 1_555
O29 Y9 2.217528 1_555
O30 P14 1.551313 1_555
O30 Y10 2.235605 1_555
O31 P12 1.538918 1_555
O31 Y10 2.184575 1_555
O32 P13 1.543994 1_555
O32 Y10 2.234215 1_555
O33 P10 1.545645 1_555
O33 Y11 2.249728 1_555
O34 P11 1.550754 1_555
O34 Y11 2.211416 1_555
O35 P9 1.543321 1_555
O35 Y11 2.212315 1_555
O36 P14 1.554653 1_555
O36 Y0 2.274586 1_455
O37 P12 1.552623 1_545
O37 Y0 2.255970 1_545
O38 P13 1.569855 1_555
O38 Y0 2.314168 1_445
O39 P10 1.549372 1_555
O39 Y1 2.284672 1_555
O40 P11 1.549908 1_555
O40 Y1 2.299111 1_565
O41 P9 1.565883 1_555
O41 Y1 2.306629 1_665
O42 P5 1.555658 1_555
O42 Y2 2.306418 1_555
O43 Si1 1.650019 1_555
O43 Y2 2.251182 1_455
O44 P6 1.553222 1_555
O44 Y2 2.297627 1_565
O45 Si2 1.655318 1_555
O45 Y3 2.226500 1_555
O46 P7 1.557804 1_555
O46 Y3 2.279347 1_545
O47 P8 1.557048 1_555
O47 Y3 2.299840 1_445
O48 Si0 1.653020 1_555
O48 Y4 2.216053 1_555
O49 P3 1.553942 1_555
O49 Y4 2.299682 1_555
O50 P4 1.553843 1_555
O50 Y4 2.342487 1_555
O51 P1 1.564973 1_555
O51 Y5 2.298796 1_555
O52 P2 1.550838 1_655
O52 Y5 2.284665 1_555
O53 P0 1.546857 1_555
O53 Y5 2.315036 1_555
O54 P9 1.547351 1_555
O54 Y6 2.273925 1_555
O55 P10 1.563821 1_655
O55 Y6 2.309359 1_555
O56 P11 1.545310 1_545
O56 Y6 2.309410 1_555
O57 P12 1.567537 1_545
O57 Y7 2.291592 1_555
O58 P13 1.552746 1_555
O58 Y7 2.285878 1_555
O59 P14 1.549382 1_655
O59 Y7 2.315402 1_555
O60 P8 1.560935 1_555
O60 Y8 2.280595 1_555
O61 Si2 1.656458 1_455
O61 Y8 2.226806 1_555
O62 P7 1.559057 1_565
O62 Y8 2.295686 1_555
O63 Si1 1.652109 1_565
O63 Y9 2.222171 1_555
O64 P6 1.554501 1_555
O64 Y9 2.277492 1_555
O65 P5 1.552491 1_455
O65 Y9 2.305521 1_555
O66 P0 1.555342 1_565
O66 Y10 2.275705 1_555
O67 P1 1.551976 1_555
O67 Y10 2.258240 1_555
O68 P2 1.569867 1_555
O68 Y10 2.316905 1_555
O69 P3 1.555197 1_555
O69 Y11 2.276044 1_555
O70 P4 1.556245 1_455
O70 Y11 2.300002 1_555
O71 Si0 1.652744 1_565
O71 Y11 2.220694 1_555
