# generated using pymatgen
data_Na3Hf3InSi3(SO8)3
_symmetry_space_group_name_H-M   'P 1'
_cell_length_a   9.01242590
_cell_length_b   9.06700054
_cell_length_c   22.92709456
_cell_angle_alpha   89.84340859
_cell_angle_beta   90.17535347
_cell_angle_gamma   120.13320722
_symmetry_Int_Tables_number   1
_chemical_formula_structural   Na3Hf3InSi3(SO8)3
_chemical_formula_sum   'Na9 Hf9 In3 Si9 S9 O72'
_cell_volume   1620.30973058
_cell_formula_units_Z   3
loop_
 _symmetry_equiv_pos_site_id
 _symmetry_equiv_pos_as_xyz
  1  'x, y, z'
loop_
 _atom_site_type_symbol
 _atom_site_label
 _atom_site_symmetry_multiplicity
 _atom_site_fract_x
 _atom_site_fract_y
 _atom_site_fract_z
 _atom_site_occupancy
  Na  Na0  1  0.34763003  0.35415182  0.23592357  1
  Na  Na1  1  0.63817327  0.62398921  0.75766902  1
  Na  Na2  1  0.97179291  0.28912758  0.41574885  1
  Na  Na3  1  0.99085212  0.01255886  0.49717835  1
  Na  Na4  1  0.99080371  0.96917261  0.00386108  1
  Na  Na5  1  0.66260849  0.34403981  0.82956014  1
  Na  Na6  1  0.66696617  0.30482246  0.32790355  1
  Na  Na7  1  0.26408464  0.63689256  0.16114132  1
  Na  Na8  1  0.25391610  0.62014917  0.66706506  1
  Hf  Hf0  1  0.01074549  0.99492386  0.85374578  1
  Hf  Hf1  1  0.01323164  0.01397759  0.64600374  1
  Hf  Hf2  1  0.00558539  0.01067144  0.14498395  1
  Hf  Hf3  1  0.66686017  0.35615560  0.98169319  1
  Hf  Hf4  1  0.66251361  0.31994869  0.47807338  1
  Hf  Hf5  1  0.34232723  0.65977123  0.02205320  1
  Hf  Hf6  1  0.33336547  0.65533745  0.51828125  1
  Hf  Hf7  1  0.33898238  0.66267997  0.31378407  1
  Hf  Hf8  1  0.32831021  0.65541695  0.81053321  1
  In  In0  1  0.99275252  0.01232852  0.35378226  1
  In  In1  1  0.67887849  0.33973173  0.68735888  1
  In  In2  1  0.69400715  0.35507581  0.17944675  1
  Si  Si0  1  0.99141747  0.29957425  0.25328717  1
  Si  Si1  1  0.29662643  0.29086356  0.75057099  1
  Si  Si2  1  0.00637792  0.71292650  0.74782358  1
  Si  Si3  1  0.96178402  0.33189088  0.58275154  1
  Si  Si4  1  0.97201763  0.64105270  0.08254037  1
  Si  Si5  1  0.37784279  0.33549783  0.08847761  1
  Si  Si6  1  0.63330306  0.67399965  0.91360730  1
  Si  Si7  1  0.62183893  0.95396297  0.41769520  1
  Si  Si8  1  0.34009684  0.37142193  0.41404099  1
  S  S0  1  0.28545306  0.99326093  0.25066785  1
  S  S1  1  0.70566691  0.70840167  0.25192649  1
  S  S2  1  0.71315071  0.99858355  0.75202082  1
  S  S3  1  0.37132809  0.03679313  0.58367287  1
  S  S4  1  0.66844990  0.62898326  0.58396523  1
  S  S5  1  0.66799176  0.04501691  0.08120135  1
  S  S6  1  0.04031603  0.37342584  0.91729101  1
  S  S7  1  0.34265650  0.95861932  0.91647092  1
  S  S8  1  0.04363558  0.66588349  0.41701176  1
  O  O0  1  0.19687263  0.00326877  0.30334348  1
  O  O1  1  0.80542307  0.78555366  0.30554843  1
  O  O2  1  0.97990032  0.21521619  0.31741229  1
  O  O3  1  0.19641565  0.18482265  0.80874085  1
  O  O4  1  0.98356455  0.81080994  0.80496417  1
  O  O5  1  0.81597712  0.01420642  0.80467717  1
  O  O6  1  0.79635442  0.98015748  0.69880676  1
  O  O7  1  0.18038513  0.20269767  0.69219645  1
  O  O8  1  0.01332851  0.82280729  0.69019567  1
  O  O9  1  0.79741159  0.80282623  0.19896424  1
  O  O10  1  0.01584412  0.18394451  0.20205599  1
  O  O11  1  0.18308403  0.97638940  0.19709913  1
  O  O12  1  0.87614818  0.35416645  0.64167037  1
  O  O13  1  0.46655562  0.11455752  0.63753905  1
  O  O14  1  0.63935263  0.54027554  0.64069684  1
  O  O15  1  0.91882914  0.52770592  0.14168328  1
  O  O16  1  0.63343523  0.11061928  0.13481498  1
  O  O17  1  0.47540918  0.35330846  0.15023165  1
  O  O18  1  0.47772772  0.31197681  0.03264548  1
  O  O19  1  0.84709168  0.53565193  0.02674217  1
  O  O20  1  0.69338309  0.15193403  0.02918724  1
  O  O21  1  0.46112501  0.14442548  0.53163795  1
  O  O22  1  0.67850828  0.52752980  0.53539800  1
  O  O23  1  0.85234862  0.32114924  0.52350052  1
  O  O24  1  0.52272230  0.68348000  0.96796969  1
  O  O25  1  0.14117599  0.46306854  0.96944844  1
  O  O26  1  0.31958336  0.85596370  0.96861353  1
  O  O27  1  0.51501676  0.85200273  0.47530654  1
  O  O28  1  0.30418279  0.47315282  0.46702681  1
  O  O29  1  0.14239641  0.68470080  0.47078201  1
  O  O30  1  0.12834428  0.63900581  0.36536570  1
  O  O31  1  0.50805261  0.86207058  0.35915577  1
  O  O32  1  0.35253814  0.47793029  0.35361084  1
  O  O33  1  0.12407462  0.48014101  0.86427097  1
  O  O34  1  0.34841118  0.86908828  0.86312780  1
  O  O35  1  0.52558971  0.65780309  0.85332543  1
  O  O36  1  0.02162599  0.81343486  0.41051103  1
  O  O37  1  0.81130482  0.97227630  0.41879573  1
  O  O38  1  0.17312779  0.18010424  0.41543353  1
  O  O39  1  0.03161214  0.20689081  0.91273150  1
  O  O40  1  0.19120497  0.98530474  0.91306764  1
  O  O41  1  0.82537782  0.84474872  0.91322970  1
  O  O42  1  0.97469663  0.15638051  0.58559573  1
  O  O43  1  0.19914685  0.02392558  0.58453668  1
  O  O44  1  0.82617167  0.79924541  0.58472015  1
  O  O45  1  0.96576745  0.81753050  0.09028832  1
  O  O46  1  0.82393048  0.02861251  0.08799496  1
  O  O47  1  0.18242488  0.16874991  0.09046350  1
  O  O48  1  0.68703193  0.14526025  0.75026678  1
  O  O49  1  0.48789950  0.31488452  0.74654024  1
  O  O50  1  0.83296798  0.52584520  0.75041663  1
  O  O51  1  0.66326759  0.52744677  0.25044039  1
  O  O52  1  0.81937119  0.31376956  0.24741950  1
  O  O53  1  0.45401749  0.15161658  0.24776723  1
  O  O54  1  0.64724982  0.49857030  0.91873977  1
  O  O55  1  0.86468430  0.34725925  0.92082725  1
  O  O56  1  0.50152329  0.12798474  0.91992513  1
  O  O57  1  0.65537466  0.15299368  0.42024468  1
  O  O58  1  0.51917765  0.37258014  0.42412252  1
  O  O59  1  0.87348002  0.50460319  0.42119705  1
  O  O60  1  0.35489614  0.50394222  0.07930327  1
  O  O61  1  0.16705593  0.68173226  0.06851699  1
  O  O62  1  0.52043366  0.86990861  0.07234939  1
  O  O63  1  0.34580665  0.86343499  0.57748786  1
  O  O64  1  0.51834851  0.65451473  0.57541331  1
  O  O65  1  0.15499200  0.50179359  0.57797342  1
  O  O66  1  0.30474341  0.83981179  0.25281109  1
  O  O67  1  0.53773302  0.70658194  0.25282704  1
  O  O68  1  0.17436200  0.48816445  0.25132349  1
  O  O69  1  0.32055851  0.48563006  0.75437429  1
  O  O70  1  0.18237379  0.70318949  0.75519552  1
  O  O71  1  0.54338800  0.83715503  0.75524639  1
loop_
_geom_bond_atom_site_label_1
_geom_bond_atom_site_label_2
_geom_bond_distance
_geom_bond_site_symmetry_2
Na0 O17 2.282308 1_555
Na0 O68 2.439344 1_555
Na0 O53 2.475657 1_555
Na0 O51 2.486182 1_555
Na0 O10 2.699069 1_555
Na0 O67 2.793306 1_555
Na0 O32 2.916834 1_555
Na1 O50 2.339374 1_555
Na1 O49 2.438232 1_555
Na1 O71 2.474928 1_555
Na1 O69 2.483350 1_555
Na1 O35 2.502586 1_555
Na1 O14 2.790675 1_555
Na1 O4 2.903457 1_555
Na2 O2 2.365580 1_555
Na2 O38 2.463878 1_655
Na2 O57 2.476565 1_555
Na2 O37 2.485539 1_545
Na2 O59 2.521452 1_555
Na2 O23 2.771309 1_555
Na2 O28 2.847939 1_655
Na2 O30 2.980744 1_655
Na3 O37 2.318133 1_545
Na3 O38 2.452874 1_655
Na3 O42 2.457221 1_555
Na3 O44 2.662110 1_545
Na3 O43 2.707400 1_655
Na3 O36 2.794749 1_645
Na4 O45 2.354606 1_555
Na4 O41 2.473527 1_554
Na4 O47 2.657131 1_665
Na4 O46 2.666521 1_565
Na4 O40 2.715269 1_654
Na4 O39 2.886258 1_664
Na5 O49 2.395525 1_555
Na5 O50 2.413865 1_555
Na5 O54 2.524865 1_555
Na5 O48 2.649630 1_555
Na5 O56 2.716320 1_555
Na5 O55 2.760388 1_555
Na6 O52 2.280574 1_555
Na6 O57 2.495843 1_555
Na6 O53 2.510822 1_555
Na6 O51 2.697663 1_555
Na6 O58 2.804458 1_555
Na6 O59 2.816417 1_555
Na7 O68 2.376461 1_555
Na7 O61 2.404278 1_555
Na7 O60 2.579888 1_555
Na7 O66 2.697433 1_555
Na7 O15 2.786066 1_455
Na8 O65 2.271336 1_555
Na8 O70 2.359886 1_555
Na8 O69 2.563231 1_555
Na8 O63 2.814440 1_555
Hf0 O4 1.922390 1_455
Hf0 O3 1.984305 1_565
Hf0 O41 2.055434 1_455
Hf0 O40 2.151918 1_555
Hf0 O5 2.161565 1_465
Hf0 O39 2.282051 1_565
Hf1 O7 1.931583 1_555
Hf1 O8 2.005728 1_545
Hf1 O42 2.035533 1_455
Hf1 O43 2.159544 1_555
Hf1 O6 2.188773 1_445
Hf1 O44 2.304765 1_445
Hf2 O47 1.966155 1_555
Hf2 O10 2.013360 1_555
Hf2 O45 2.036257 1_445
Hf2 O11 2.137479 1_545
Hf2 O46 2.160334 1_455
Hf2 O9 2.248256 1_445
Hf3 O19 1.923182 1_556
Hf3 O18 1.937699 1_556
Hf3 O54 1.999809 1_555
Hf3 O20 2.259056 1_556
Hf3 O55 2.300597 1_555
Hf3 O56 2.326774 1_555
Hf4 O57 1.991531 1_555
Hf4 O23 1.995598 1_555
Hf4 O58 2.008092 1_555
Hf4 O21 2.106656 1_555
Hf4 O59 2.219399 1_555
Hf4 O22 2.242885 1_555
Hf5 O60 1.970185 1_555
Hf5 O24 1.971536 1_554
Hf5 O61 1.999232 1_555
Hf5 O62 2.113424 1_555
Hf5 O25 2.161963 1_554
Hf5 O26 2.249494 1_554
Hf6 O28 1.936816 1_555
Hf6 O27 1.974814 1_555
Hf6 O65 2.037513 1_555
Hf6 O64 2.119968 1_555
Hf6 O29 2.160097 1_555
Hf6 O63 2.283846 1_555
Hf7 O32 1.962441 1_555
Hf7 O31 1.976626 1_555
Hf7 O68 2.097143 1_555
Hf7 O67 2.148612 1_555
Hf7 O30 2.156770 1_555
Hf7 O66 2.260867 1_555
Hf8 O69 1.983665 1_555
Hf8 O35 2.018666 1_555
Hf8 O70 2.021371 1_555
Hf8 O33 2.120801 1_555
Hf8 O71 2.208167 1_555
Hf8 O34 2.213431 1_555
In0 O2 2.073104 1_555
In0 O37 2.107972 1_545
In0 O38 2.114120 1_655
In0 O1 2.194700 1_545
In0 O0 2.212125 1_655
In0 O36 2.338322 1_645
In1 O12 2.013026 1_555
In1 O49 2.116031 1_555
In1 O50 2.124728 1_555
In1 O13 2.282878 1_555
In1 O14 2.283664 1_555
In1 O48 2.304406 1_555
In2 O15 2.030797 1_555
In2 O52 2.063091 1_555
In2 O17 2.071348 1_555
In2 O16 2.247676 1_555
In2 O51 2.370673 1_555
In2 O53 2.556108 1_555
O0 S0 1.477608 1_545
O1 S1 1.474970 1_555
O2 Si0 1.634741 1_555
O3 Si1 1.627047 1_555
O4 Si2 1.654520 1_655
O5 S2 1.482776 1_545
O6 S2 1.487016 1_555
O7 Si1 1.638345 1_555
O8 Si2 1.634883 1_555
O9 S1 1.476762 1_555
O10 Si0 1.663528 1_455
O11 S0 1.495120 1_555
O12 Si3 1.620367 1_555
O13 S3 1.466162 1_555
O14 S4 1.480569 1_555
O15 Si4 1.620613 1_555
O16 S5 1.467678 1_555
O17 Si5 1.629395 1_555
O18 Si5 1.641867 1_555
O19 Si4 1.653804 1_555
O20 S5 1.478814 1_555
O21 S3 1.495723 1_555
O22 S4 1.477913 1_555
O23 Si3 1.650365 1_555
O24 Si6 1.627343 1_555
O25 S6 1.474362 1_555
O26 S7 1.462829 1_555
O27 Si7 1.622861 1_555
O28 Si8 1.655182 1_555
O29 S8 1.477528 1_555
O30 S8 1.496062 1_555
O31 Si7 1.639205 1_555
O32 Si8 1.658212 1_555
O33 S6 1.499857 1_555
O34 S7 1.485091 1_555
O35 Si6 1.650415 1_555
O36 S8 1.454844 1_555
O37 Si7 1.630647 1_555
O38 Si8 1.629014 1_555
O39 S6 1.476140 1_555
O40 S7 1.502844 1_555
O41 Si6 1.644004 1_555
O42 Si3 1.653941 1_555
O43 S3 1.496796 1_555
O44 S4 1.483516 1_555
O45 Si4 1.639280 1_555
O46 S5 1.493286 1_555
O47 Si5 1.648140 1_555
O48 S2 1.462762 1_545
O49 Si1 1.628339 1_555
O50 Si2 1.631467 1_655
O51 S1 1.486568 1_555
O52 Si0 1.624157 1_555
O53 S0 1.477815 1_545
O54 Si6 1.661124 1_555
O55 S6 1.480528 1_655
O56 S7 1.485553 1_545
O57 Si7 1.674586 1_545
O58 Si8 1.624528 1_555
O59 S8 1.499295 1_655
O60 Si5 1.653696 1_555
O61 Si4 1.637385 1_455
O62 S5 1.486846 1_565
O63 S3 1.477063 1_565
O64 S4 1.494854 1_555
O65 Si3 1.650516 1_455
O66 S0 1.486894 1_555
O67 S1 1.505481 1_555
O68 Si0 1.677431 1_455
O69 Si1 1.670629 1_555
O70 Si2 1.640459 1_555
O71 S2 1.496775 1_555
