# generated using pymatgen
data_Np2InNi2
_symmetry_space_group_name_H-M   'P 1'
_cell_length_a   7.35017200
_cell_length_b   7.35017200
_cell_length_c   3.61201100
_cell_angle_alpha   90.00000000
_cell_angle_beta   90.00000000
_cell_angle_gamma   90.00000000
_symmetry_Int_Tables_number   1
_chemical_formula_structural   Np2InNi2
_chemical_formula_sum   'Np4 In2 Ni4'
_cell_volume   195.13899696
_cell_formula_units_Z   2
loop_
 _symmetry_equiv_pos_site_id
 _symmetry_equiv_pos_as_xyz
  1  'x, y, z'
loop_
 _atom_site_type_symbol
 _atom_site_label
 _atom_site_symmetry_multiplicity
 _atom_site_fract_x
 _atom_site_fract_y
 _atom_site_fract_z
 _atom_site_occupancy
  Np  Np0  1  0.67109200  0.17109200  0.50000000  1
  Np  Np1  1  0.17109200  0.32890800  0.50000000  1
  Np  Np2  1  0.32890800  0.82890800  0.50000000  1
  Np  Np3  1  0.82890800  0.67109200  0.50000000  1
  In  In0  1  0.00000000  0.00000000  0.00000000  1
  In  In1  1  0.50000000  0.50000000  0.00000000  1
  Ni  Ni0  1  0.62653700  0.87346300  0.00000000  1
  Ni  Ni1  1  0.87346300  0.37346300  0.00000000  1
  Ni  Ni2  1  0.12653700  0.62653700  0.00000000  1
  Ni  Ni3  1  0.37346300  0.12653700  0.00000000  1
loop_
_geom_bond_atom_site_label_1
_geom_bond_atom_site_label_2
_geom_bond_distance
_geom_bond_site_symmetry_2
In0 Ni2 2.898301 1_545
In0 Ni3 2.898301 1_555
In0 Ni1 2.898301 1_455
In0 Ni0 2.898301 1_445
In0 Np2 3.269183 1_544
In0 Np2 3.269183 1_545
In0 Np0 3.269183 1_454
In0 Np1 3.269183 1_554
In0 Np3 3.269183 1_445
In0 Np3 3.269183 1_444
In0 Np1 3.269183 1_555
In0 Np0 3.269183 1_455
In1 Ni0 2.898301 1_555
In1 Ni1 2.898301 1_555
In1 Ni2 2.898301 1_555
In1 Ni3 2.898301 1_555
In1 Np2 3.269183 1_555
In1 Np1 3.269183 1_554
In1 Np3 3.269183 1_555
In1 Np0 3.269183 1_555
In1 Np1 3.269183 1_555
In1 Np2 3.269183 1_554
In1 Np0 3.269183 1_554
In1 Np3 3.269183 1_554
Ni0 Ni3 2.630632 1_565
Ni0 Np3 2.772497 1_554
Ni0 Np3 2.772497 1_555
Ni0 Np0 2.855627 1_564
Ni0 Np2 2.855627 1_554
Ni0 Np2 2.855627 1_555
Ni0 Np0 2.855627 1_565
Ni1 Ni2 2.630632 1_655
Ni1 Np0 2.772497 1_554
Ni1 Np0 2.772497 1_555
Ni1 Np3 2.855627 1_554
Ni1 Np1 2.855627 1_654
Ni1 Np3 2.855627 1_555
Ni1 Np1 2.855627 1_655
Ni2 Np2 2.772497 1_554
Ni2 Np2 2.772497 1_555
Ni2 Np3 2.855627 1_454
Ni2 Np3 2.855627 1_455
Ni2 Np1 2.855627 1_554
Ni2 Np1 2.855627 1_555
Ni3 Np1 2.772497 1_555
Ni3 Np1 2.772497 1_554
Ni3 Np2 2.855627 1_544
Ni3 Np2 2.855627 1_545
Ni3 Np0 2.855627 1_554
Ni3 Np0 2.855627 1_555
