# generated using pymatgen
data_MgCo5CuO8
_symmetry_space_group_name_H-M   'P 1'
_cell_length_a   5.85460595
_cell_length_b   6.32909132
_cell_length_c   6.12771728
_cell_angle_alpha   56.15544027
_cell_angle_beta   91.48985471
_cell_angle_gamma   118.64308318
_symmetry_Int_Tables_number   1
_chemical_formula_structural   MgCo5CuO8
_chemical_formula_sum   'Mg1 Co5 Cu1 O8'
_cell_volume   156.19976309
_cell_formula_units_Z   1
loop_
 _symmetry_equiv_pos_site_id
 _symmetry_equiv_pos_as_xyz
  1  'x, y, z'
loop_
 _atom_site_type_symbol
 _atom_site_label
 _atom_site_symmetry_multiplicity
 _atom_site_fract_x
 _atom_site_fract_y
 _atom_site_fract_z
 _atom_site_occupancy
  Mg  Mg0  1  0.12500000  0.25000000  0.12500000  1
  Co  Co0  1  0.62500000  0.25000000  0.12500000  1
  Co  Co1  1  0.98758200  0.95543200  0.95305500  1
  Co  Co2  1  0.62500000  0.25000000  0.62500000  1
  Co  Co3  1  0.26241800  0.54456800  0.29694500  1
  Co  Co4  1  0.12500000  0.75000000  0.62500000  1
  Cu  Cu0  1  0.62500000  0.75000000  0.62500000  1
  O  O0  1  0.86856100  0.22990200  0.38500000  1
  O  O1  1  0.38044500  0.26191200  0.36705700  1
  O  O2  1  0.86955500  0.23808800  0.88294300  1
  O  O3  1  0.90338400  0.76695200  0.37465800  1
  O  O4  1  0.38143900  0.27009800  0.86500000  1
  O  O5  1  0.85822300  0.70095600  0.84806900  1
  O  O6  1  0.39177700  0.79904400  0.40193100  1
  O  O7  1  0.34661600  0.73304800  0.87534200  1
loop_
_geom_bond_atom_site_label_1
_geom_bond_atom_site_label_2
_geom_bond_distance
_geom_bond_site_symmetry_2
Mg0 O1 2.084097 1_555
Mg0 O2 2.084097 1_454
Mg0 O7 2.112160 1_554
Mg0 O3 2.112160 1_445
Mg0 O4 2.126991 1_554
Mg0 O0 2.126991 1_455
Co0 O6 1.969656 1_545
Co0 O5 1.969656 1_554
Co0 O0 2.101868 1_555
Co0 O4 2.101868 1_554
Co0 O1 2.143406 1_555
Co0 O2 2.143406 1_554
Co1 O5 1.881720 1_555
Co1 O4 2.009872 1_665
Co1 O2 2.043526 1_565
Co1 O3 2.099994 1_556
Co2 O2 2.099293 1_555
Co2 O1 2.099293 1_555
Co2 O0 2.168792 1_555
Co2 O4 2.168792 1_555
Co2 O3 2.267490 1_555
Co2 O7 2.267490 1_545
Co3 O6 1.881720 1_555
Co3 O0 2.009872 1_455
Co3 O1 2.043526 1_555
Co3 O7 2.099994 1_554
Co4 O6 1.891518 1_555
Co4 O5 1.891518 1_455
Co4 O7 1.973528 1_555
Co4 O3 1.973528 1_455
Co4 O1 2.237286 1_565
Co4 O2 2.237286 1_455
Cu0 O5 1.914638 1_555
Cu0 O6 1.914638 1_555
Cu0 O4 2.098293 1_555
Cu0 O0 2.098293 1_565
Cu0 O7 2.190918 1_555
Cu0 O3 2.190918 1_555
