# generated using pymatgen
data_CeReB4
_symmetry_space_group_name_H-M   'P 1'
_cell_length_a   3.67895495
_cell_length_b   6.00451733
_cell_length_c   11.63199451
_cell_angle_alpha   89.99972305
_cell_angle_beta   90.00001628
_cell_angle_gamma   89.99998817
_symmetry_Int_Tables_number   1
_chemical_formula_structural   CeReB4
_chemical_formula_sum   'Ce4 Re4 B16'
_cell_volume   256.95481542
_cell_formula_units_Z   4
loop_
 _symmetry_equiv_pos_site_id
 _symmetry_equiv_pos_as_xyz
  1  'x, y, z'
loop_
 _atom_site_type_symbol
 _atom_site_label
 _atom_site_symmetry_multiplicity
 _atom_site_fract_x
 _atom_site_fract_y
 _atom_site_fract_z
 _atom_site_occupancy
  Ce  Ce0  1  -0.00000030  0.12663625  0.15033931  1
  Ce  Ce1  1  -0.00000036  0.87338817  0.84963952  1
  Ce  Ce2  1  0.00000161  0.62662575  0.34965740  1
  Ce  Ce3  1  -0.00000006  0.37337959  0.65036313  1
  Re  Re0  1  0.00000021  0.13600935  0.40863445  1
  Re  Re1  1  -0.00000036  0.86397589  0.59136802  1
  Re  Re2  1  -0.00000042  0.63602561  0.09135915  1
  Re  Re3  1  0.00000072  0.36396100  0.90863825  1
  B  B0  1  0.49999970  0.52452521  0.80984069  1
  B  B1  1  0.50000004  0.47546839  0.19015833  1
  B  B2  1  0.49999972  0.02453429  0.69016557  1
  B  B3  1  0.50000035  0.97546460  0.30983121  1
  B  B4  1  0.50000007  0.38823030  0.04600593  1
  B  B5  1  0.50000005  0.61176120  0.95398904  1
  B  B6  1  0.50000028  0.88822941  0.45399347  1
  B  B7  1  0.49999956  0.11176393  0.54601246  1
  B  B8  1  0.49999991  0.21486466  0.81525121  1
  B  B9  1  0.49999983  0.78514449  0.18475086  1
  B  B10  1  0.49999969  0.71485611  0.68475770  1
  B  B11  1  0.50000031  0.28514311  0.31523861  1
  B  B12  1  0.49999957  0.13875449  0.96872662  1
  B  B13  1  0.49999983  0.86125704  0.03127335  1
  B  B14  1  0.50000002  0.63874957  0.53127907  1
  B  B15  1  0.50000001  0.36125159  0.46872564  1
loop_
_geom_bond_atom_site_label_1
_geom_bond_atom_site_label_2
_geom_bond_distance
_geom_bond_site_symmetry_2
Ce0 Re0 3.005015 1_555
Ce0 Re2 3.024715 1_545
Ce0 Re2 3.134632 1_555
Ce0 Re3 3.151981 1_554
Ce1 Re1 3.004744 1_555
Ce1 Re3 3.024543 1_565
Ce1 Re3 3.134900 1_555
Ce1 Re2 3.152276 1_556
Ce2 Re2 3.005054 1_555
Ce2 Re0 3.024734 1_555
Ce2 Re0 3.134596 1_565
Ce2 Re1 3.152161 1_555
Ce3 Re3 3.004787 1_555
Ce3 Re1 3.024665 1_555
Ce3 Re1 3.134760 1_545
Ce3 Re0 3.152403 1_555
Re0 Re1 2.680680 1_545
Re2 Re3 2.680690 1_554
B0 B5 1.756650 1_555
B0 B10 1.850135 1_555
B0 B8 1.860427 1_555
B0 Re3 2.373574 1_555
B0 Re3 2.373579 1_655
B0 Ce3 2.765597 1_555
B0 Ce3 2.765599 1_655
B0 Ce1 2.825950 1_555
B0 Ce1 2.825950 1_655
B1 B4 1.756698 1_555
B1 B11 1.850090 1_555
B1 B9 1.860519 1_555
B1 Re2 2.373568 1_655
B1 Re2 2.373570 1_555
B1 Ce2 2.765786 1_555
B1 Ce2 2.765793 1_655
B1 Ce0 2.825850 1_655
B1 Ce0 2.825852 1_555
B2 B7 1.756686 1_555
B2 B8 1.850166 1_555
B2 Re1 2.373567 1_645
B2 Re1 2.373567 1_545
B2 Ce1 2.765565 1_645
B2 Ce1 2.765566 1_545
B2 Ce3 2.825874 1_555
B2 Ce3 2.825876 1_655
B3 B6 1.756798 1_555
B3 B9 1.850080 1_555
B3 Re0 2.373565 1_665
B3 Re0 2.373566 1_565
B3 Ce0 2.765754 1_665
B3 Ce0 2.765757 1_565
B3 Ce2 2.825889 1_555
B3 Ce2 2.825894 1_655
B4 B5 1.716712 1_554
B4 Re2 2.424006 1_655
B4 Re2 2.424009 1_555
B4 Re3 2.440914 1_554
B4 Re3 2.440918 1_654
B4 Ce0 2.706240 1_655
B4 Ce0 2.706242 1_555
B5 Re3 2.424018 1_555
B5 Re3 2.424021 1_655
B5 Re2 2.440931 1_656
B5 Re2 2.440935 1_556
B5 Ce1 2.706439 1_655
B5 Ce1 2.706440 1_555
B6 B7 1.716753 1_565
B6 Re0 2.423962 1_565
B6 Re0 2.423963 1_665
B6 Re1 2.440960 1_655
B6 Re1 2.440964 1_555
B6 Ce2 2.706292 1_555
B6 Ce2 2.706299 1_655
B7 Re1 2.423983 1_645
B7 Re1 2.423984 1_545
B7 Re0 2.440983 1_555
B7 Re0 2.440988 1_655
B7 Ce3 2.706412 1_555
B7 Ce3 2.706414 1_655
B8 Re3 2.316279 1_555
B8 Re3 2.316284 1_655
B8 Ce1 2.783490 1_645
B8 Ce1 2.783492 1_545
B8 Ce3 2.822805 1_555
B8 Ce3 2.822806 1_655
B9 Re2 2.316359 1_655
B9 Re2 2.316360 1_555
B9 Ce0 2.783597 1_565
B9 Ce0 2.783597 1_665
B9 Ce2 2.822955 1_555
B9 Ce2 2.822963 1_655
B10 B14 1.842825 1_555
B10 B2 1.860532 1_565
B10 Re1 2.316346 1_555
B10 Re1 2.316347 1_655
B10 Ce3 2.783504 1_555
B10 Ce3 2.783504 1_655
B10 Ce1 2.822797 1_655
B10 Ce1 2.822797 1_555
B11 B15 1.842923 1_555
B11 B3 1.860534 1_545
B11 Re0 2.316412 1_655
B11 Re0 2.316413 1_555
B11 Ce2 2.783568 1_555
B11 Ce2 2.783575 1_655
B11 Ce0 2.822883 1_655
B11 Ce0 2.822885 1_555
B12 B4 1.746999 1_556
B12 B13 1.818147 1_546
B12 B8 1.842790 1_555
B12 Re3 2.387630 1_555
B12 Re3 2.387637 1_655
B12 Ce1 2.800258 1_545
B12 Ce1 2.800259 1_645
B12 Ce0 2.802089 1_656
B12 Ce0 2.802089 1_556
B13 B5 1.747132 1_554
B13 B9 1.842817 1_555
B13 Re2 2.387708 1_655
B13 Re2 2.387710 1_555
B13 Ce0 2.800181 1_665
B13 Ce0 2.800181 1_565
B13 Ce1 2.802276 1_654
B13 Ce1 2.802276 1_554
B14 B6 1.747050 1_555
B14 B15 1.818187 1_555
B14 Re1 2.387706 1_655
B14 Re1 2.387708 1_555
B14 Ce3 2.800245 1_655
B14 Ce3 2.800247 1_555
B14 Ce2 2.802165 1_555
B14 Ce2 2.802173 1_655
B15 B7 1.747098 1_555
B15 Re0 2.387768 1_555
B15 Re0 2.387769 1_655
B15 Ce2 2.800165 1_555
B15 Ce2 2.800173 1_655
B15 Ce3 2.802308 1_655
B15 Ce3 2.802309 1_555
