# generated using pymatgen
data_Li2Fe(PO3)4
_symmetry_space_group_name_H-M   'P 1'
_cell_length_a   9.39189800
_cell_length_b   9.49204600
_cell_length_c   10.13967100
_cell_angle_alpha   90.00000000
_cell_angle_beta   90.00000000
_cell_angle_gamma   90.00000000
_symmetry_Int_Tables_number   1
_chemical_formula_structural   Li2Fe(PO3)4
_chemical_formula_sum   'Li8 Fe4 P16 O48'
_cell_volume   903.93471453
_cell_formula_units_Z   4
loop_
 _symmetry_equiv_pos_site_id
 _symmetry_equiv_pos_as_xyz
  1  'x, y, z'
loop_
 _atom_site_type_symbol
 _atom_site_label
 _atom_site_symmetry_multiplicity
 _atom_site_fract_x
 _atom_site_fract_y
 _atom_site_fract_z
 _atom_site_occupancy
  Li  Li0  1  0.39712100  0.00333600  0.17027700  1
  Li  Li1  1  0.60287900  0.49666400  0.67027700  1
  Li  Li2  1  0.60287900  0.99666400  0.82972300  1
  Li  Li3  1  0.39712100  0.50333600  0.32972300  1
  Li  Li4  1  0.89712100  0.99666400  0.82972300  1
  Li  Li5  1  0.89712100  0.49666400  0.67027700  1
  Li  Li6  1  0.10287900  0.00333600  0.17027700  1
  Li  Li7  1  0.10287900  0.50333600  0.32972300  1
  Fe  Fe0  1  0.75000000  0.98742300  0.19719600  1
  Fe  Fe1  1  0.25000000  0.51257700  0.69719600  1
  Fe  Fe2  1  0.75000000  0.48742300  0.30280400  1
  Fe  Fe3  1  0.25000000  0.01257700  0.80280400  1
  P  P0  1  0.75000000  0.19462900  0.60325000  1
  P  P1  1  0.53570400  0.70660300  0.11375500  1
  P  P2  1  0.46429600  0.79339700  0.61375500  1
  P  P3  1  0.25000000  0.30537100  0.10325000  1
  P  P4  1  0.46429600  0.29339700  0.88624500  1
  P  P5  1  0.03570400  0.79339700  0.61375500  1
  P  P6  1  0.96429600  0.70660300  0.11375500  1
  P  P7  1  0.53570400  0.20660300  0.38624500  1
  P  P8  1  0.75000000  0.69462900  0.89675000  1
  P  P9  1  0.25000000  0.72651300  0.98010100  1
  P  P10  1  0.25000000  0.22651300  0.51989900  1
  P  P11  1  0.75000000  0.77348700  0.48010100  1
  P  P12  1  0.25000000  0.80537100  0.39675000  1
  P  P13  1  0.75000000  0.27348700  0.01989900  1
  P  P14  1  0.03570400  0.29339700  0.88624500  1
  P  P15  1  0.96429600  0.20660300  0.38624500  1
  O  O0  1  0.75000000  0.85164600  0.88044100  1
  O  O1  1  0.25000000  0.14835400  0.11955900  1
  O  O2  1  0.25000000  0.14378400  0.64416500  1
  O  O3  1  0.88305200  0.64556900  0.98631200  1
  O  O4  1  0.56629900  0.11250600  0.27018400  1
  O  O5  1  0.43370100  0.88749400  0.72981600  1
  O  O6  1  0.05722600  0.63629400  0.62478800  1
  O  O7  1  0.44277400  0.13629400  0.87521200  1
  O  O8  1  0.75000000  0.61424500  0.47355500  1
  O  O9  1  0.93370100  0.61250600  0.22981600  1
  O  O10  1  0.75000000  0.11424500  0.02644500  1
  O  O11  1  0.62463500  0.82794500  0.57433300  1
  O  O12  1  0.05722600  0.13629400  0.87521200  1
  O  O13  1  0.75000000  0.35621600  0.14416500  1
  O  O14  1  0.37536500  0.17205500  0.42566700  1
  O  O15  1  0.37536500  0.67205500  0.07433300  1
  O  O16  1  0.62463500  0.32794500  0.92566700  1
  O  O17  1  0.38305200  0.85443100  0.48631200  1
  O  O18  1  0.25000000  0.64378400  0.85583500  1
  O  O19  1  0.88305200  0.14556900  0.51368800  1
  O  O20  1  0.44277400  0.63629400  0.62478800  1
  O  O21  1  0.56629900  0.61250600  0.22981600  1
  O  O22  1  0.93370100  0.11250600  0.27018400  1
  O  O23  1  0.43370100  0.38749400  0.77018400  1
  O  O24  1  0.38305200  0.35443100  0.01368800  1
  O  O25  1  0.11694800  0.85443100  0.48631200  1
  O  O26  1  0.25000000  0.38575500  0.52644500  1
  O  O27  1  0.11694800  0.35443100  0.01368800  1
  O  O28  1  0.25000000  0.39930200  0.22145800  1
  O  O29  1  0.61694800  0.14556900  0.51368800  1
  O  O30  1  0.75000000  0.85621600  0.35583500  1
  O  O31  1  0.25000000  0.64835400  0.38044100  1
  O  O32  1  0.87536500  0.32794500  0.92566700  1
  O  O33  1  0.75000000  0.10069800  0.72145800  1
  O  O34  1  0.25000000  0.88575500  0.97355500  1
  O  O35  1  0.75000000  0.60069800  0.77854200  1
  O  O36  1  0.75000000  0.35164600  0.61955900  1
  O  O37  1  0.87536500  0.82794500  0.57433300  1
  O  O38  1  0.06629900  0.38749400  0.77018400  1
  O  O39  1  0.12463500  0.67205500  0.07433300  1
  O  O40  1  0.12463500  0.17205500  0.42566700  1
  O  O41  1  0.25000000  0.89930200  0.27854200  1
  O  O42  1  0.06629900  0.88749400  0.72981600  1
  O  O43  1  0.55722600  0.36370600  0.37521200  1
  O  O44  1  0.61694800  0.64556900  0.98631200  1
  O  O45  1  0.94277400  0.36370600  0.37521200  1
  O  O46  1  0.55722600  0.86370600  0.12478800  1
  O  O47  1  0.94277400  0.86370600  0.12478800  1
loop_
_geom_bond_atom_site_label_1
_geom_bond_atom_site_label_2
_geom_bond_distance
_geom_bond_site_symmetry_2
Li0 O1 2.017049 1_555
Li0 O41 2.022244 1_545
Li0 O46 2.056805 1_545
Li0 O4 2.150497 1_555
Li1 O36 2.017049 1_555
Li1 O35 2.022244 1_555
Li1 O20 2.056805 1_555
Li1 O23 2.150497 1_555
Li2 O0 2.017049 1_555
Li2 O33 2.022244 1_565
Li2 O7 2.056805 1_565
Li2 O5 2.150497 1_555
Li3 O31 2.017049 1_555
Li3 O28 2.022244 1_555
Li3 O43 2.056805 1_555
Li3 O21 2.150497 1_555
Li4 O0 2.017049 1_555
Li4 O33 2.022244 1_565
Li4 O12 2.056805 1_665
Li4 O42 2.150497 1_655
Li5 O36 2.017049 1_555
Li5 O35 2.022244 1_555
Li5 O6 2.056805 1_655
Li5 O38 2.150497 1_655
Li6 O1 2.017049 1_555
Li6 O41 2.022244 1_545
Li6 O47 2.056805 1_445
Li6 O22 2.150497 1_455
Li7 O31 2.017049 1_555
Li7 O28 2.022244 1_555
Li7 O45 2.056805 1_455
Li7 O9 2.150497 1_455
Fe0 O30 2.034331 1_555
Fe0 O10 2.108729 1_565
Fe0 O4 2.221270 1_565
Fe0 O22 2.221270 1_565
Fe0 O47 2.279483 1_555
Fe0 O46 2.279483 1_555
Fe1 O18 2.034331 1_555
Fe1 O26 2.108729 1_555
Fe1 O38 2.221270 1_555
Fe1 O23 2.221270 1_555
Fe1 O20 2.279483 1_555
Fe1 O6 2.279483 1_555
Fe2 O13 2.034331 1_555
Fe2 O8 2.108729 1_555
Fe2 O21 2.221270 1_555
Fe2 O9 2.221270 1_555
Fe2 O45 2.279483 1_555
Fe2 O43 2.279483 1_555
Fe3 O2 2.034331 1_555
Fe3 O34 2.108729 1_545
Fe3 O42 2.221270 1_545
Fe3 O5 2.221270 1_545
Fe3 O12 2.279483 1_555
Fe3 O7 2.279483 1_555
O0 P8 1.499559 1_555
O1 P3 1.499559 1_555
O2 P10 1.484684 1_555
O3 P6 1.608637 1_556
O3 P8 1.613407 1_555
O4 P7 1.505069 1_555
O5 P2 1.505069 1_555
O6 P5 1.509018 1_555
O7 P4 1.509018 1_555
O8 P11 1.512989 1_555
O9 P6 1.505069 1_555
O10 P13 1.512989 1_555
O11 P2 1.592174 1_555
O11 P11 1.602016 1_555
O12 P14 1.509018 1_555
O13 P13 1.484684 1_555
O14 P7 1.592174 1_555
O14 P10 1.602016 1_555
O15 P1 1.592174 1_555
O15 P9 1.602016 1_554
O16 P4 1.592174 1_555
O16 P13 1.602016 1_556
O17 P2 1.608637 1_555
O17 P12 1.613407 1_555
O18 P9 1.484684 1_555
O19 P15 1.608637 1_555
O19 P0 1.613407 1_555
O20 P2 1.509018 1_555
O21 P1 1.505069 1_555
O22 P15 1.505069 1_555
O23 P4 1.505069 1_555
O24 P4 1.608637 1_554
O24 P3 1.613407 1_555
O25 P5 1.608637 1_555
O25 P12 1.613407 1_555
O26 P10 1.512989 1_555
O27 P14 1.608637 1_554
O27 P3 1.613407 1_555
O28 P3 1.493842 1_555
O29 P7 1.608637 1_555
O29 P0 1.613407 1_555
O30 P11 1.484684 1_555
O31 P12 1.499559 1_555
O32 P14 1.592174 1_655
O32 P13 1.602016 1_556
O33 P0 1.493842 1_555
O34 P9 1.512989 1_555
O35 P8 1.493842 1_555
O36 P0 1.499559 1_555
O37 P5 1.592174 1_655
O37 P11 1.602016 1_555
O38 P14 1.505069 1_555
O39 P6 1.592174 1_455
O39 P9 1.602016 1_554
O40 P15 1.592174 1_455
O40 P10 1.602016 1_555
O41 P12 1.493842 1_555
O42 P5 1.505069 1_555
O43 P7 1.509018 1_555
O44 P1 1.608637 1_556
O44 P8 1.613407 1_555
O45 P15 1.509018 1_555
O46 P1 1.509018 1_555
O47 P6 1.509018 1_555
