# generated using pymatgen
data_NaLa2Ti2P3(SO8)3
_symmetry_space_group_name_H-M   'P 1'
_cell_length_a   9.04441700
_cell_length_b   9.03956519
_cell_length_c   23.52278213
_cell_angle_alpha   90.38954900
_cell_angle_beta   90.08542287
_cell_angle_gamma   120.19946428
_symmetry_Int_Tables_number   1
_chemical_formula_structural   NaLa2Ti2P3(SO8)3
_chemical_formula_sum   'Na3 La6 Ti6 P9 S9 O72'
_cell_volume   1662.08783423
_cell_formula_units_Z   3
loop_
 _symmetry_equiv_pos_site_id
 _symmetry_equiv_pos_as_xyz
  1  'x, y, z'
loop_
 _atom_site_type_symbol
 _atom_site_label
 _atom_site_symmetry_multiplicity
 _atom_site_fract_x
 _atom_site_fract_y
 _atom_site_fract_z
 _atom_site_occupancy
  Na  Na0  1  0.68215263  0.33570059  0.83585606  1
  Na  Na1  1  0.66250509  0.34332595  0.33218953  1
  Na  Na2  1  0.34981821  0.68219436  0.16313897  1
  La  La0  1  0.67451671  0.33530104  0.68590164  1
  La  La1  1  0.65251888  0.32738914  0.18413026  1
  La  La2  1  0.66395679  0.32075174  0.99004960  1
  La  La3  1  0.66238732  0.33528292  0.48776137  1
  La  La4  1  0.33830509  0.67038117  0.30535799  1
  La  La5  1  0.33021590  0.67020105  0.80025615  1
  Ti  Ti0  1  0.01149393  0.99044387  0.35634386  1
  Ti  Ti1  1  0.99148917  0.00058487  0.85878516  1
  Ti  Ti2  1  0.99255841  0.99034740  0.65059960  1
  Ti  Ti3  1  0.99622106  0.99800643  0.14677471  1
  Ti  Ti4  1  0.33029242  0.64877412  0.01750105  1
  Ti  Ti5  1  0.31883738  0.65475879  0.50939664  1
  P  P0  1  0.27081654  0.00527604  0.24934465  1
  P  P1  1  0.74002493  0.73133497  0.25070560  1
  P  P2  1  0.98550730  0.73084812  0.75314392  1
  P  P3  1  0.74205461  0.01232222  0.75195459  1
  P  P4  1  0.65986673  0.00430141  0.08395248  1
  P  P5  1  0.34284715  0.32953309  0.08396500  1
  P  P6  1  0.05036909  0.37030437  0.91474656  1
  P  P7  1  0.31417703  0.36326448  0.41425380  1
  P  P8  1  0.04470522  0.67580326  0.41487727  1
  S  S0  1  0.99292955  0.26454647  0.24985418  1
  S  S1  1  0.27074020  0.25717268  0.75107386  1
  S  S2  1  0.99325958  0.33487953  0.58273865  1
  S  S3  1  0.34121048  0.00517714  0.58402904  1
  S  S4  1  0.66124445  0.65603070  0.58382294  1
  S  S5  1  0.99289611  0.65444742  0.08357706  1
  S  S6  1  0.63280076  0.67947122  0.91629167  1
  S  S7  1  0.31482647  0.95243652  0.91597644  1
  S  S8  1  0.63527583  0.95154527  0.41840462  1
  O  O0  1  0.17674696  0.00242393  0.30651176  1
  O  O1  1  0.83256411  0.83082760  0.30678778  1
  O  O2  1  0.99835399  0.17806630  0.30219175  1
  O  O3  1  0.18451117  0.16843993  0.80368554  1
  O  O4  1  0.98456808  0.82805931  0.80727536  1
  O  O5  1  0.84069245  0.02149093  0.80773659  1
  O  O6  1  0.84252818  0.01956378  0.69689320  1
  O  O7  1  0.18217898  0.16499681  0.69766177  1
  O  O8  1  0.98081576  0.82199023  0.69659392  1
  O  O9  1  0.84164999  0.82601660  0.19666205  1
  O  O10  1  0.98475455  0.17078672  0.19646998  1
  O  O11  1  0.17707375  0.01843776  0.19633909  1
  O  O12  1  0.92218070  0.38355437  0.63185019  1
  O  O13  1  0.46197106  0.08343212  0.63303356  1
  O  O14  1  0.62063910  0.53853959  0.63271630  1
  O  O15  1  0.91995593  0.53831987  0.13271013  1
  O  O16  1  0.60657942  0.07606258  0.13459812  1
  O  O17  1  0.46772082  0.39047650  0.13477772  1
  O  O18  1  0.41454321  0.28471388  0.03279841  1
  O  O19  1  0.88197484  0.58557027  0.03350434  1
  O  O20  1  0.71297544  0.12486796  0.03328268  1
  O  O21  1  0.40815075  0.12359805  0.53524793  1
  O  O22  1  0.71550237  0.59144271  0.53508514  1
  O  O23  1  0.87450080  0.28377255  0.53426321  1
  O  O24  1  0.54418990  0.69672713  0.96743302  1
  O  O25  1  0.16894183  0.47196020  0.96774222  1
  O  O26  1  0.30035422  0.85055129  0.96675439  1
  O  O27  1  0.53438584  0.83968615  0.46804671  1
  O  O28  1  0.29807420  0.47028687  0.46681123  1
  O  O29  1  0.16417032  0.69150994  0.46795334  1
  O  O30  1  0.12026795  0.64425024  0.36204772  1
  O  O31  1  0.53417267  0.88635816  0.36604913  1
  O  O32  1  0.35424340  0.47365358  0.36178933  1
  O  O33  1  0.12951405  0.47756124  0.86194972  1
  O  O34  1  0.34642860  0.87991747  0.86414966  1
  O  O35  1  0.52997050  0.65051873  0.86452458  1
  O  O36  1  0.04201966  0.84664455  0.40898523  1
  O  O37  1  0.80051685  0.95564228  0.41371141  1
  O  O38  1  0.14563145  0.19028350  0.40630207  1
  O  O39  1  0.04239222  0.19349840  0.90644630  1
  O  O40  1  0.15499423  0.96151398  0.90859031  1
  O  O41  1  0.80138474  0.84279403  0.91041308  1
  O  O42  1  0.02341629  0.19304088  0.59804836  1
  O  O43  1  0.17018815  0.98103321  0.59942765  1
  O  O44  1  0.80998329  0.82944062  0.59889948  1
  O  O45  1  0.02038609  0.82760735  0.09709850  1
  O  O46  1  0.80971366  0.97521238  0.10131748  1
  O  O47  1  0.16356298  0.18270610  0.10028201  1
  O  O48  1  0.72416018  0.17297822  0.75182981  1
  O  O49  1  0.44304239  0.27481910  0.75118920  1
  O  O50  1  0.82305710  0.55325664  0.75338230  1
  O  O51  1  0.72611216  0.55490849  0.25265485  1
  O  O52  1  0.83840697  0.28212341  0.25159405  1
  O  O53  1  0.44865855  0.16711915  0.25402858  1
  O  O54  1  0.66632718  0.53581685  0.92299284  1
  O  O55  1  0.86881121  0.33766418  0.92399823  1
  O  O56  1  0.46207258  0.13185743  0.92081714  1
  O  O57  1  0.66455971  0.12654558  0.42728012  1
  O  O58  1  0.46294335  0.33293976  0.42713017  1
  O  O59  1  0.86394286  0.52827420  0.42542108  1
  O  O60  1  0.31994220  0.48836985  0.06809654  1
  O  O61  1  0.16674448  0.67689945  0.07145569  1
  O  O62  1  0.50372331  0.82526012  0.06648969  1
  O  O63  1  0.32302472  0.83766106  0.56888651  1
  O  O64  1  0.51338890  0.67603237  0.56881470  1
  O  O65  1  0.16163463  0.48870390  0.56749384  1
  O  O66  1  0.27811160  0.84030450  0.24354571  1
  O  O67  1  0.56590091  0.72187889  0.24522912  1
  O  O68  1  0.15029219  0.43451784  0.24470402  1
  O  O69  1  0.28203346  0.42519751  0.74794508  1
  O  O70  1  0.15054779  0.72588648  0.74894121  1
  O  O71  1  0.57437208  0.84433105  0.74920816  1
loop_
_geom_bond_atom_site_label_1
_geom_bond_atom_site_label_2
_geom_bond_distance
_geom_bond_site_symmetry_2
Na0 O48 2.596078 1_555
Na0 O50 2.606378 1_555
Na0 O55 2.666100 1_555
Na0 O54 2.775796 1_555
Na0 O49 2.778695 1_555
Na0 O56 2.779133 1_555
Na1 O51 2.536565 1_555
Na1 O53 2.551183 1_555
Na1 O52 2.703981 1_555
Na1 O59 2.792464 1_555
Na1 O58 2.845774 1_555
Na1 O57 2.989940 1_555
Na2 O66 2.634412 1_555
Na2 O67 2.636452 1_555
Na2 O62 2.648985 1_555
Na2 O61 2.702460 1_555
Na2 O60 2.758562 1_555
Na2 O68 2.820366 1_555
La0 O48 2.334809 1_555
La0 O50 2.344045 1_555
La0 O12 2.420209 1_555
La0 O49 2.431025 1_555
La0 O13 2.444783 1_555
La0 O14 2.471428 1_555
La1 O17 2.329936 1_555
La1 O53 2.357123 1_555
La1 O16 2.388419 1_555
La1 O51 2.417783 1_555
La1 O52 2.491054 1_555
La1 O15 2.519829 1_555
La2 O20 2.275756 1_556
La2 O18 2.340483 1_556
La2 O55 2.365813 1_555
La2 O56 2.391341 1_555
La2 O19 2.423944 1_556
La2 O54 2.503578 1_555
La3 O58 2.289521 1_555
La3 O59 2.315247 1_555
La3 O57 2.363403 1_555
La3 O22 2.382458 1_555
La3 O21 2.409747 1_555
La3 O23 2.448078 1_555
La4 O32 2.287950 1_555
La4 O30 2.294860 1_555
La4 O31 2.337332 1_555
La4 O67 2.346943 1_555
La4 O66 2.374695 1_555
La4 O68 2.403551 1_555
La5 O70 2.275153 1_555
La5 O33 2.301224 1_555
La5 O71 2.309260 1_555
La5 O34 2.356939 1_555
La5 O69 2.366314 1_555
La5 O35 2.428999 1_555
O0 P0 1.585763 1_555
O0 Ti0 1.861116 1_545
O1 P1 1.572573 1_555
O1 Ti0 1.918874 1_655
O2 S0 1.476716 1_555
O2 Ti0 2.178282 1_645
O3 S1 1.473175 1_555
O3 Ti1 2.097261 1_455
O4 P2 1.544650 1_555
O4 Ti1 1.944249 1_565
O5 P3 1.563690 1_555
O5 Ti1 1.896123 1_555
O6 P3 1.566020 1_555
O6 Ti2 1.859536 1_545
O7 S1 1.491888 1_555
O7 Ti2 1.976342 1_445
O8 P2 1.581126 1_555
O8 Ti2 1.832498 1_555
O9 P1 1.555733 1_555
O9 Ti3 1.895188 1_555
O10 S0 1.490941 1_555
O10 Ti3 1.988753 1_545
O11 P0 1.545301 1_555
O11 Ti3 1.938148 1_445
O12 S2 1.490411 1_555
O13 S3 1.493311 1_555
O14 S4 1.486972 1_555
O15 S5 1.481553 1_555
O16 P4 1.542096 1_555
O17 P5 1.539083 1_555
O18 P5 1.514342 1_555
O19 S5 1.462720 1_555
O20 P4 1.527044 1_555
O21 S3 1.481862 1_555
O22 S4 1.475416 1_555
O23 S2 1.468788 1_555
O24 S6 1.496627 1_555
O24 Ti4 2.118409 1_556
O25 P6 1.592972 1_555
O25 Ti4 1.917601 1_556
O26 S7 1.478581 1_555
O26 Ti4 2.313145 1_556
O27 S8 1.519754 1_555
O27 Ti5 2.071312 1_555
O28 P7 1.616043 1_555
O28 Ti5 1.865776 1_555
O29 P8 1.607980 1_555
O29 Ti5 1.866931 1_555
O30 P8 1.512128 1_555
O31 S8 1.464512 1_555
O32 P7 1.518020 1_555
O33 P6 1.521722 1_555
O34 S7 1.475238 1_555
O35 S6 1.470950 1_555
O36 P8 1.563776 1_555
O36 Ti0 1.918632 1_555
O37 S8 1.480534 1_555
O37 Ti0 2.229485 1_655
O38 P7 1.549516 1_555
O38 Ti0 1.969323 1_545
O39 P6 1.573988 1_555
O39 Ti1 1.916792 1_455
O40 S7 1.498475 1_555
O40 Ti1 2.051841 1_465
O41 S6 1.504124 1_555
O41 Ti1 2.007032 1_565
O42 S2 1.485200 1_455
O42 Ti2 2.116724 1_445
O43 S3 1.494838 1_565
O43 Ti2 2.043892 1_455
O44 S4 1.504080 1_555
O44 Ti2 1.968507 1_555
O45 S5 1.488148 1_455
O45 Ti3 2.025045 1_455
O46 P4 1.559199 1_565
O46 Ti3 1.916570 1_555
O47 P5 1.543340 1_555
O47 Ti3 1.939566 1_445
O48 P3 1.540057 1_555
O49 S1 1.484546 1_555
O50 P2 1.537263 1_555
O51 P1 1.536393 1_555
O52 S0 1.484449 1_555
O53 P0 1.539350 1_555
O54 S6 1.483867 1_555
O55 P6 1.531463 1_655
O56 S7 1.497038 1_545
O57 S8 1.479887 1_545
O58 P7 1.532395 1_555
O59 P8 1.524845 1_655
O60 P5 1.596906 1_555
O60 Ti4 1.847948 1_555
O61 S5 1.508601 1_455
O61 Ti4 2.059850 1_555
O62 P4 1.572372 1_565
O62 Ti4 1.945664 1_555
O63 S3 1.479484 1_565
O63 Ti5 2.144444 1_555
O64 S4 1.479294 1_555
O64 Ti5 2.176072 1_555
O65 S2 1.503097 1_455
O65 Ti5 2.007225 1_555
O66 P0 1.530718 1_565
O67 P1 1.538789 1_555
O68 S0 1.484638 1_455
O69 S1 1.472511 1_555
O70 P2 1.519097 1_455
O71 P3 1.513844 1_565
