# generated using pymatgen
data_KSn2I5
_symmetry_space_group_name_H-M   'P 1'
_cell_length_a   10.24725044
_cell_length_b   10.24725044
_cell_length_c   10.24725044
_cell_angle_alpha   127.83663048
_cell_angle_beta   127.83663048
_cell_angle_gamma   76.88983000
_symmetry_Int_Tables_number   1
_chemical_formula_structural   KSn2I5
_chemical_formula_sum   'K2 Sn4 I10'
_cell_volume   651.59310367
_cell_formula_units_Z   2
loop_
 _symmetry_equiv_pos_site_id
 _symmetry_equiv_pos_as_xyz
  1  'x, y, z'
loop_
 _atom_site_type_symbol
 _atom_site_label
 _atom_site_symmetry_multiplicity
 _atom_site_fract_x
 _atom_site_fract_y
 _atom_site_fract_z
 _atom_site_occupancy
  K  K0  1  0.25000000  0.25000000  0.00000000  1
  K  K1  1  0.75000000  0.75000000  0.00000000  1
  Sn  Sn0  1  0.67776400  0.17776400  0.85552900  1
  Sn  Sn1  1  0.17776400  0.32223600  0.50000000  1
  Sn  Sn2  1  0.82223600  0.67776400  0.50000000  1
  Sn  Sn3  1  0.32223600  0.82223600  0.14447100  1
  I  I0  1  0.00000000  0.00000000  0.00000000  1
  I  I1  1  0.50000000  0.50000000  0.00000000  1
  I  I2  1  0.02330500  0.52330500  0.81748400  1
  I  I3  1  0.52330500  0.70582100  0.50000000  1
  I  I4  1  0.20582100  0.02330500  0.50000000  1
  I  I5  1  0.47669500  0.29417900  0.50000000  1
  I  I6  1  0.79417900  0.97669500  0.50000000  1
  I  I7  1  0.29417900  0.79417900  0.81748400  1
  I  I8  1  0.97669500  0.47669500  0.18251600  1
  I  I9  1  0.70582100  0.20582100  0.18251600  1
loop_
_geom_bond_atom_site_label_1
_geom_bond_atom_site_label_2
_geom_bond_distance
_geom_bond_site_symmetry_2
I0 Sn0 3.315992 1_454
I0 Sn3 3.315992 1_545
I0 Sn2 3.315993 1_444
I0 Sn1 3.315993 1_555
I0 K0 4.012855 1_555
I0 K1 4.012855 1_445
I1 Sn3 3.315992 1_555
I1 Sn0 3.315992 1_554
I1 Sn2 3.315993 1_555
I1 Sn1 3.315993 1_554
I1 K0 4.012855 1_555
I1 K1 4.012855 1_555
I2 Sn3 3.011057 1_556
I2 K1 3.857765 1_456
I2 K0 3.857765 1_556
I3 Sn2 3.011055 1_555
I3 K1 3.857765 1_556
I3 K0 3.857765 1_555
I4 Sn1 3.011055 1_555
I4 K0 3.857765 1_556
I4 K1 3.857765 1_445
I5 Sn1 3.011055 1_555
I5 K1 3.857765 1_556
I5 K0 3.857765 1_555
I6 Sn2 3.011055 1_555
I6 K1 3.857765 1_555
I6 K0 3.857765 1_666
I7 Sn3 3.011045 1_556
I7 K1 3.857765 1_556
I7 K0 3.857765 1_566
I8 Sn0 3.011057 1_554
I8 K1 3.857765 1_555
I8 K0 3.857765 1_655
I9 Sn0 3.011045 1_554
I9 K1 3.857765 1_545
I9 K0 3.857765 1_555
