# generated using pymatgen
data_K2CoO2
_symmetry_space_group_name_H-M   'P 1'
_cell_length_a   6.63560328
_cell_length_b   7.05270490
_cell_length_c   9.58720701
_cell_angle_alpha   90.00006995
_cell_angle_beta   89.99994589
_cell_angle_gamma   117.64764916
_symmetry_Int_Tables_number   1
_chemical_formula_structural   K2CoO2
_chemical_formula_sum   'K8 Co4 O8'
_cell_volume   397.44105064
_cell_formula_units_Z   4
loop_
 _symmetry_equiv_pos_site_id
 _symmetry_equiv_pos_as_xyz
  1  'x, y, z'
loop_
 _atom_site_type_symbol
 _atom_site_label
 _atom_site_symmetry_multiplicity
 _atom_site_fract_x
 _atom_site_fract_y
 _atom_site_fract_z
 _atom_site_occupancy
  K  K0  1  0.75392700  0.36521500  0.23593700  1
  K  K1  1  0.24606300  0.13479200  0.73593900  1
  K  K2  1  0.75421400  0.86537000  0.26403600  1
  K  K3  1  0.24579800  0.63464100  0.76403700  1
  K  K4  1  0.21832400  0.39916000  0.41415600  1
  K  K5  1  0.78168000  0.10083200  0.91415400  1
  K  K6  1  0.78156500  0.60217200  0.58583600  1
  K  K7  1  0.21843200  0.89781200  0.08583400  1
  Co  Co0  1  0.30571100  0.40532500  0.06675700  1
  Co  Co1  1  0.69428900  0.09467400  0.56675900  1
  Co  Co2  1  0.30608900  0.90630500  0.43324400  1
  Co  Co3  1  0.69391100  0.59369000  0.93324100  1
  O  O0  1  0.48905500  0.19596300  0.48248200  1
  O  O1  1  0.48865700  0.69512500  0.01740700  1
  O  O2  1  0.51094200  0.30403100  0.98247900  1
  O  O3  1  0.51134500  0.80487400  0.51740800  1
  O  O4  1  0.95207400  0.76956700  0.84967600  1
  O  O5  1  0.04792500  0.73043900  0.34967900  1
  O  O6  1  0.04764600  0.23025400  0.15046900  1
  O  O7  1  0.95235600  0.26976400  0.65047100  1
loop_
_geom_bond_atom_site_label_1
_geom_bond_atom_site_label_2
_geom_bond_distance
_geom_bond_site_symmetry_2
K0 O5 2.639358 1_655
K0 O6 2.664153 1_655
K0 O2 2.836347 1_554
K0 O0 2.855500 1_555
K1 O4 2.639327 1_445
K1 O7 2.664138 1_455
K1 O0 2.836370 1_555
K1 O2 2.855468 1_555
K2 O6 2.636074 1_665
K2 O5 2.664477 1_655
K2 O3 2.835801 1_555
K2 O1 2.859015 1_555
K3 O7 2.636057 1_455
K3 O4 2.664516 1_455
K3 O1 2.835763 1_556
K3 O3 2.858975 1_555
K4 O7 2.754225 1_455
K4 O3 2.790090 1_555
K4 O6 2.800095 1_555
K4 O0 2.845949 1_555
K4 O5 3.093732 1_555
K5 O6 2.754226 1_656
K5 O1 2.790063 1_546
K5 O7 2.800102 1_555
K5 O2 2.845996 1_555
K5 O4 3.093617 1_545
K6 O5 2.753992 1_655
K6 O0 2.792145 1_555
K6 O4 2.798672 1_555
K6 O3 2.840461 1_555
K6 O7 3.103261 1_555
K7 O4 2.753989 1_454
K7 O2 2.792199 1_564
K7 O5 2.798677 1_555
K7 O1 2.840402 1_555
K7 O6 3.103457 1_565
Co0 O6 1.771654 1_555
Co0 O1 1.890045 1_555
Co0 O2 1.980075 1_554
Co1 O7 1.771696 1_555
Co1 O3 1.890045 1_545
Co1 O0 1.980066 1_555
Co2 O5 1.772839 1_555
Co2 O0 1.889010 1_565
Co2 O3 1.980430 1_555
Co3 O4 1.772854 1_555
Co3 O2 1.889019 1_555
Co3 O1 1.980444 1_556
