# generated using pymatgen
data_KPd2F5
_symmetry_space_group_name_H-M   'P 1'
_cell_length_a   6.08579111
_cell_length_b   7.45313236
_cell_length_c   10.65044585
_cell_angle_alpha   90.00000000
_cell_angle_beta   90.00000000
_cell_angle_gamma   90.00000000
_symmetry_Int_Tables_number   1
_chemical_formula_structural   KPd2F5
_chemical_formula_sum   'K4 Pd8 F20'
_cell_volume   483.08512387
_cell_formula_units_Z   4
loop_
 _symmetry_equiv_pos_site_id
 _symmetry_equiv_pos_as_xyz
  1  'x, y, z'
loop_
 _atom_site_type_symbol
 _atom_site_label
 _atom_site_symmetry_multiplicity
 _atom_site_fract_x
 _atom_site_fract_y
 _atom_site_fract_z
 _atom_site_occupancy
  K  K0  1  0.01671519  0.25000000  0.36751271  1
  K  K1  1  0.51671519  0.25000000  0.13248729  1
  K  K2  1  0.98328481  0.75000000  0.63248729  1
  K  K3  1  0.48328481  0.75000000  0.86751271  1
  Pd  Pd0  1  0.50000000  -0.00000000  0.50000000  1
  Pd  Pd1  1  0.00000000  0.50000000  -0.00000000  1
  Pd  Pd2  1  0.50000000  0.50000000  0.50000000  1
  Pd  Pd3  1  0.00000000  -0.00000000  -0.00000000  1
  Pd  Pd4  1  0.19177137  0.25000000  0.71392516  1
  Pd  Pd5  1  0.69177137  0.25000000  0.78607484  1
  Pd  Pd6  1  0.80822863  0.75000000  0.28607484  1
  Pd  Pd7  1  0.30822863  0.75000000  0.21392516  1
  F  F0  1  0.70878975  0.05527465  0.66037793  1
  F  F1  1  0.20878975  0.44472535  0.83962207  1
  F  F2  1  0.29121025  0.55527465  0.33962207  1
  F  F3  1  0.79121025  0.94472535  0.16037793  1
  F  F4  1  0.29121025  0.94472535  0.33962207  1
  F  F5  1  0.79121025  0.55527465  0.16037793  1
  F  F6  1  0.70878975  0.44472535  0.66037793  1
  F  F7  1  0.20878975  0.05527465  0.83962207  1
  F  F8  1  0.81846440  0.93284382  0.41984567  1
  F  F9  1  0.31846440  0.56715618  0.08015433  1
  F  F10  1  0.18153560  0.43284382  0.58015433  1
  F  F11  1  0.68153560  0.06715618  0.91984567  1
  F  F12  1  0.04857850  0.25000000  0.09907500  1
  F  F13  1  0.54857850  0.25000000  0.40092500  1
  F  F14  1  0.95142150  0.75000000  0.90092500  1
  F  F15  1  0.45142150  0.75000000  0.59907500  1
  F  F16  1  0.31846440  0.93284382  0.08015433  1
  F  F17  1  0.81846440  0.56715618  0.41984567  1
  F  F18  1  0.68153560  0.43284382  0.91984567  1
  F  F19  1  0.18153560  0.06715618  0.58015433  1
loop_
_geom_bond_atom_site_label_1
_geom_bond_atom_site_label_2
_geom_bond_distance
_geom_bond_site_symmetry_2
F0 Pd5 1.977178 1_555
F0 Pd0 2.168379 1_555
F0 K2 2.838247 1_545
F1 Pd4 1.977178 1_555
F1 Pd1 2.168379 1_556
F1 K3 2.838247 1_555
F2 Pd7 1.977178 1_555
F2 Pd2 2.168379 1_555
F2 K0 2.838247 1_555
F3 Pd6 1.977178 1_555
F3 Pd3 2.168379 1_665
F3 K1 2.838247 1_565
F4 Pd7 1.977178 1_555
F4 Pd0 2.168379 1_565
F4 K0 2.838247 1_565
F5 Pd6 1.977178 1_555
F5 Pd1 2.168379 1_655
F5 K1 2.838247 1_555
F6 Pd5 1.977178 1_555
F6 Pd2 2.168379 1_555
F6 K2 2.838247 1_555
F7 Pd4 1.977178 1_555
F7 Pd3 2.168379 1_556
F7 K3 2.838247 1_545
F8 Pd6 1.972515 1_555
F8 Pd0 2.176133 1_565
F8 K0 2.711811 1_665
F8 K2 2.827055 1_555
F9 Pd7 1.972515 1_555
F9 Pd1 2.176133 1_555
F9 K1 2.711811 1_555
F9 K3 2.827055 1_554
F10 Pd4 1.972515 1_555
F10 Pd2 2.176133 1_555
F10 K2 2.711811 1_455
F10 K0 2.827055 1_555
F11 Pd5 1.972515 1_555
F11 Pd3 2.176133 1_656
F11 K3 2.711811 1_545
F11 K1 2.827055 1_556
F12 Pd1 2.161633 1_555
F12 Pd3 2.161633 1_555
F12 K0 2.865550 1_555
F12 K1 2.871120 1_555
F13 Pd2 2.161633 1_555
F13 Pd0 2.161633 1_555
F13 K1 2.865550 1_555
F13 K0 2.871120 1_655
F14 Pd3 2.161633 1_666
F14 Pd1 2.161633 1_656
F14 K2 2.865550 1_555
F14 K3 2.871120 1_555
F15 Pd2 2.161633 1_555
F15 Pd0 2.161633 1_565
F15 K3 2.865550 1_555
F15 K2 2.871120 1_455
F16 Pd7 1.972515 1_555
F16 Pd3 2.176133 1_565
F16 K1 2.711811 1_565
F16 K3 2.827055 1_554
F17 Pd6 1.972515 1_555
F17 Pd2 2.176133 1_555
F17 K0 2.711811 1_655
F17 K2 2.827055 1_555
F18 Pd5 1.972515 1_555
F18 Pd1 2.176133 1_656
F18 K3 2.711811 1_555
F18 K1 2.827055 1_556
F19 Pd4 1.972515 1_555
F19 Pd0 2.176133 1_555
F19 K2 2.711811 1_445
F19 K0 2.827055 1_555
