# generated using pymatgen
data_Sr(InS2)2
_symmetry_space_group_name_H-M   'P 1'
_cell_length_a   14.99171758
_cell_length_b   12.49615961
_cell_length_c   12.43285983
_cell_angle_alpha   73.92558596
_cell_angle_beta   53.22670129
_cell_angle_gamma   52.83896066
_symmetry_Int_Tables_number   1
_chemical_formula_structural   Sr(InS2)2
_chemical_formula_sum   'Sr8 In16 S32'
_cell_volume   1473.68013751
_cell_formula_units_Z   8
loop_
 _symmetry_equiv_pos_site_id
 _symmetry_equiv_pos_as_xyz
  1  'x, y, z'
loop_
 _atom_site_type_symbol
 _atom_site_label
 _atom_site_symmetry_multiplicity
 _atom_site_fract_x
 _atom_site_fract_y
 _atom_site_fract_z
 _atom_site_occupancy
  Sr  Sr0  1  0.74996183  0.75002138  0.75002788  1
  Sr  Sr1  1  0.49999749  0.49999423  0.50000511  1
  Sr  Sr2  1  0.24997765  0.25001305  0.25002255  1
  Sr  Sr3  1  -0.00000270  -0.00001350  0.99999361  1
  Sr  Sr4  1  0.00325291  0.49674058  0.00326121  1
  Sr  Sr5  1  0.49673433  0.00326058  0.49674384  1
  Sr  Sr6  1  0.24674092  0.75325936  0.24677283  1
  Sr  Sr7  1  0.75323301  0.24674142  0.75325533  1
  In  In0  1  0.26966190  0.08782664  0.98073895  1
  In  In1  1  0.66182550  0.98072057  0.08782443  1
  In  In2  1  0.98066817  0.66186403  0.26969868  1
  In  In3  1  0.08776932  0.26967627  0.66182033  1
  In  In4  1  0.98030026  0.16222217  0.26929243  1
  In  In5  1  0.58818794  0.26930940  0.16216081  1
  In  In6  1  0.26927287  0.58817430  0.98031997  1
  In  In7  1  0.16225395  0.98031312  0.58814647  1
  In  In8  1  0.51050469  0.76387742  0.23766010  1
  In  In9  1  0.48791363  0.23765089  0.76392461  1
  In  In10  1  0.23764141  0.48793235  0.51048169  1
  In  In11  1  0.76394854  0.51045674  0.48792711  1
  In  In12  1  0.73953769  0.48604982  0.01232302  1
  In  In13  1  0.76209732  0.01233820  0.48607695  1
  In  In14  1  0.01231411  0.76207401  0.73955653  1
  In  In15  1  0.48604886  0.73953936  0.76207614  1
  S  S0  1  0.76939967  0.80834079  0.47810739  1
  S  S1  1  0.94414738  0.47809690  0.80829111  1
  S  S2  1  0.47799499  0.94420815  0.76944930  1
  S  S3  1  0.80834361  0.76941529  0.94421524  1
  S  S4  1  0.48054428  0.44166688  0.77194050  1
  S  S5  1  0.30582583  0.77191404  0.44167447  1
  S  S6  1  0.77187465  0.30584101  0.48057365  1
  S  S7  1  0.44166688  0.48055661  0.30585012  1
  S  S8  1  0.97551972  0.46223352  0.27811014  1
  S  S9  1  0.28418510  0.27808483  0.46221221  1
  S  S10  1  0.27809969  0.28419899  0.97553038  1
  S  S11  1  0.46221757  0.97548104  0.28417994  1
  S  S12  1  0.27448180  0.78776587  0.97187517  1
  S  S13  1  0.96586219  0.97188989  0.78774272  1
  S  S14  1  0.97191798  0.96581952  0.27447757  1
  S  S15  1  0.78780034  0.27448542  0.96581698  1
  S  S16  1  0.71190733  0.03705305  0.21485010  1
  S  S17  1  0.03625093  0.21489011  0.03700483  1
  S  S18  1  0.21488517  0.03623217  0.71187029  1
  S  S19  1  0.03702320  0.71186448  0.03622523  1
  S  S20  1  0.53821163  0.21295356  0.03503341  1
  S  S21  1  0.21378886  0.03510287  0.21296104  1
  S  S22  1  0.03506641  0.21377823  0.53816434  1
  S  S23  1  0.21294161  0.53814743  0.21378488  1
  S  S24  1  0.71464763  0.03591432  0.71076046  1
  S  S25  1  0.53872817  0.71067164  0.03590447  1
  S  S26  1  0.71075030  0.53871307  0.71466726  1
  S  S27  1  0.03593532  0.71469958  0.53868106  1
  S  S28  1  0.53534999  0.21408055  0.53925805  1
  S  S29  1  0.71136908  0.53923016  0.21406536  1
  S  S30  1  0.53931977  0.71129903  0.53531335  1
  S  S31  1  0.21410028  0.53532862  0.71129941  1
loop_
_geom_bond_atom_site_label_1
_geom_bond_atom_site_label_2
_geom_bond_distance
_geom_bond_site_symmetry_2
In0 S2 2.427349 1_545
In0 S21 2.487835 1_556
In0 S17 2.495388 1_556
In0 S10 2.513767 1_555
In1 S3 2.427560 1_554
In1 S20 2.488195 1_565
In1 S16 2.495452 1_565
In1 S11 2.514027 1_555
In2 S0 2.427429 1_555
In2 S23 2.488368 1_655
In2 S19 2.495436 1_655
In2 S8 2.513658 1_555
In3 S1 2.427443 1_455
In3 S22 2.488292 1_555
In3 S18 2.495414 1_555
In3 S9 2.514071 1_555
In4 S6 2.427563 1_555
In4 S17 2.488223 1_655
In4 S21 2.495973 1_655
In4 S14 2.513706 1_545
In5 S7 2.427504 1_555
In5 S16 2.488207 1_555
In5 S20 2.495421 1_555
In5 S15 2.513655 1_554
In6 S4 2.427358 1_555
In6 S19 2.488153 1_556
In6 S23 2.495459 1_556
In6 S12 2.513617 1_555
In7 S5 2.427409 1_555
In7 S18 2.488287 1_565
In7 S22 2.495482 1_565
In7 S13 2.513900 1_455
In8 S11 2.425612 1_555
In8 S29 2.494035 1_555
In8 S25 2.495212 1_555
In8 S5 2.511857 1_555
In9 S10 2.425444 1_555
In9 S28 2.493776 1_555
In9 S24 2.495290 1_555
In9 S4 2.511753 1_555
In10 S9 2.425486 1_555
In10 S31 2.494072 1_555
In10 S27 2.495101 1_555
In10 S7 2.511762 1_555
In11 S8 2.425550 1_555
In11 S30 2.493825 1_555
In11 S26 2.495357 1_555
In11 S6 2.511903 1_555
In12 S15 2.425256 1_554
In12 S25 2.493571 1_555
In12 S29 2.495398 1_555
In12 S1 2.511743 1_554
In13 S14 2.425554 1_545
In13 S24 2.493911 1_555
In13 S28 2.495370 1_555
In13 S0 2.511947 1_545
In14 S13 2.425419 1_455
In14 S27 2.493939 1_555
In14 S31 2.495317 1_555
In14 S3 2.511556 1_455
In15 S12 2.425427 1_555
In15 S26 2.494346 1_555
In15 S30 2.495099 1_555
In15 S2 2.511508 1_555
S0 Sr0 3.123801 1_555
S0 Sr5 3.137795 1_565
S1 Sr0 3.123621 1_555
S1 Sr4 3.138349 1_656
S2 Sr0 3.124655 1_555
S2 Sr5 3.137437 1_565
S3 Sr0 3.124731 1_555
S3 Sr4 3.137195 1_656
S4 Sr1 3.123883 1_555
S4 Sr7 3.137775 1_555
S5 Sr1 3.123918 1_555
S5 Sr6 3.137349 1_555
S6 Sr1 3.123529 1_555
S6 Sr7 3.137756 1_555
S7 Sr1 3.123990 1_555
S7 Sr6 3.137650 1_555
S8 Sr2 3.113613 1_655
S8 Sr4 3.120148 1_655
S9 Sr2 3.113742 1_555
S9 Sr5 3.119760 1_555
S10 Sr2 3.113598 1_556
S10 Sr4 3.120233 1_556
S11 Sr2 3.114033 1_565
S11 Sr5 3.120090 1_565
S12 Sr3 3.113738 1_565
S12 Sr6 3.120690 1_556
S13 Sr3 3.113822 1_665
S13 Sr7 3.120194 1_565
S14 Sr3 3.113799 1_664
S14 Sr6 3.120133 1_655
S15 Sr3 3.113673 1_655
S15 Sr7 3.120425 1_555
S16 Sr5 3.187047 1_555
S16 Sr3 3.233981 1_654
S17 Sr4 3.186037 1_555
S17 Sr3 3.235114 1_554
S18 Sr5 3.186420 1_555
S18 Sr3 3.234631 1_555
S19 Sr4 3.186468 1_555
S19 Sr3 3.234322 1_564
S20 Sr7 3.185378 1_554
S20 Sr2 3.235757 1_555
S21 Sr6 3.186182 1_545
S21 Sr2 3.234756 1_555
S22 Sr7 3.186254 1_455
S22 Sr2 3.234826 1_555
S23 Sr6 3.186782 1_555
S23 Sr2 3.234404 1_555
S24 Sr0 3.215654 1_545
S24 Sr7 3.245358 1_555
S25 Sr0 3.215605 1_554
S25 Sr6 3.245898 1_555
S26 Sr0 3.215412 1_555
S26 Sr7 3.246034 1_555
S27 Sr0 3.216807 1_455
S27 Sr6 3.245007 1_555
S28 Sr1 3.215677 1_555
S28 Sr5 3.245739 1_555
S29 Sr1 3.216208 1_555
S29 Sr4 3.245197 1_655
S30 Sr1 3.216324 1_555
S30 Sr5 3.245316 1_565
S31 Sr1 3.215830 1_555
S31 Sr4 3.245734 1_556
