# generated using pymatgen
data_Na3LaSn3(PO4)6
_symmetry_space_group_name_H-M   'P 1'
_cell_length_a   9.00900557
_cell_length_b   9.03115443
_cell_length_c   23.02681513
_cell_angle_alpha   89.78149186
_cell_angle_beta   90.18914410
_cell_angle_gamma   120.19395527
_symmetry_Int_Tables_number   1
_chemical_formula_structural   Na3LaSn3(PO4)6
_chemical_formula_sum   'Na9 La3 Sn9 P18 O72'
_cell_volume   1619.30552882
_cell_formula_units_Z   3
loop_
 _symmetry_equiv_pos_site_id
 _symmetry_equiv_pos_as_xyz
  1  'x, y, z'
loop_
 _atom_site_type_symbol
 _atom_site_label
 _atom_site_symmetry_multiplicity
 _atom_site_fract_x
 _atom_site_fract_y
 _atom_site_fract_z
 _atom_site_occupancy
  Na  Na0  1  0.35821144  0.35162115  0.24628519  1
  Na  Na1  1  0.63386913  0.62776611  0.75008281  1
  Na  Na2  1  0.97030059  0.29602523  0.41608517  1
  Na  Na3  1  0.00022107  0.98832676  0.50386495  1
  Na  Na4  1  0.00006152  0.00031557  0.00286161  1
  Na  Na5  1  0.66735628  0.32037850  0.83699349  1
  Na  Na6  1  0.66716440  0.33336025  0.32931896  1
  Na  Na7  1  0.33243378  0.67971807  0.16322022  1
  Na  Na8  1  0.31853833  0.66719730  0.66491185  1
  La  La0  1  0.99495536  0.98221636  0.35588143  1
  La  La1  1  0.66761974  0.32260064  0.68488321  1
  La  La2  1  0.67861183  0.33372223  0.17439089  1
  Sn  Sn0  1  0.00411161  0.00336410  0.85727736  1
  Sn  Sn1  1  0.00282297  0.00332307  0.64794829  1
  Sn  Sn2  1  0.99693854  0.99696337  0.14667015  1
  Sn  Sn3  1  0.66634251  0.33371122  0.98295566  1
  Sn  Sn4  1  0.66088627  0.33403821  0.48473244  1
  Sn  Sn5  1  0.33356722  0.66490405  0.01269423  1
  Sn  Sn6  1  0.33936364  0.66956874  0.52021477  1
  Sn  Sn7  1  0.33606192  0.67495187  0.31495598  1
  Sn  Sn8  1  0.32787221  0.66729578  0.81723068  1
  P  P0  1  0.29167766  0.98865640  0.24768231  1
  P  P1  1  0.69045653  0.70430543  0.24746345  1
  P  P2  1  0.01122307  0.30383738  0.25341137  1
  P  P3  1  0.27884406  0.29486800  0.75393118  1
  P  P4  1  0.01431469  0.72618820  0.75362293  1
  P  P5  1  0.71001276  0.98749168  0.75524921  1
  P  P6  1  0.97285482  0.33036133  0.57961610  1
  P  P7  1  0.35749800  0.02715333  0.58095663  1
  P  P8  1  0.67051676  0.63959051  0.58421349  1
  P  P9  1  0.97815082  0.64556338  0.07785541  1
  P  P10  1  0.66679928  0.02343882  0.07843726  1
  P  P11  1  0.35787993  0.33265837  0.08100438  1
  P  P12  1  0.62687339  0.66284702  0.91506130  1
  P  P13  1  0.03564788  0.37283667  0.91631391  1
  P  P14  1  0.33759046  0.96299562  0.91620150  1
  P  P15  1  0.61278744  0.96703547  0.42042833  1
  P  P16  1  0.35113057  0.39129942  0.41847652  1
  P  P17  1  0.03886222  0.64986376  0.42202506  1
  O  O0  1  0.21658480  0.01788038  0.30265189  1
  O  O1  1  0.78817650  0.77671451  0.30362537  1
  O  O2  1  0.99649948  0.21349528  0.31107437  1
  O  O3  1  0.19484581  0.18773177  0.80853648  1
  O  O4  1  0.99037840  0.81239985  0.80754765  1
  O  O5  1  0.81613712  0.00375191  0.80943260  1
  O  O6  1  0.79093710  0.96220169  0.69862385  1
  O  O7  1  0.17768375  0.21179564  0.69686824  1
  O  O8  1  0.03515634  0.82816607  0.69647608  1
  O  O9  1  0.78526020  0.81407050  0.19285715  1
  O  O10  1  0.03408852  0.20676786  0.20041065  1
  O  O11  1  0.17968188  0.96870119  0.19294806  1
  O  O12  1  0.89883569  0.36401398  0.63339816  1
  O  O13  1  0.46026615  0.09588992  0.63623088  1
  O  O14  1  0.63945143  0.54294335  0.64130423  1
  O  O15  1  0.92164943  0.54995285  0.13497992  1
  O  O16  1  0.62697457  0.08050282  0.13502399  1
  O  O17  1  0.44999901  0.36615427  0.13920421  1
  O  O18  1  0.45806212  0.30347840  0.03093855  1
  O  O19  1  0.84984097  0.54736146  0.02703201  1
  O  O20  1  0.69841545  0.15126667  0.02735522  1
  O  O21  1  0.44860156  0.14720743  0.52788646  1
  O  O22  1  0.69731024  0.54441916  0.53218961  1
  O  O23  1  0.85722254  0.30284903  0.52468055  1
  O  O24  1  0.53902342  0.69284571  0.96668571  1
  O  O25  1  0.15064307  0.45599041  0.96939088  1
  O  O26  1  0.30630961  0.84771762  0.96898936  1
  O  O27  1  0.52715100  0.85997257  0.47443858  1
  O  O28  1  0.33188095  0.48481000  0.47055141  1
  O  O29  1  0.14516416  0.66060586  0.47503028  1
  O  O30  1  0.12039201  0.62871990  0.36482156  1
  O  O31  1  0.51398168  0.88278608  0.36325669  1
  O  O32  1  0.36840079  0.48831408  0.35995079  1
  O  O33  1  0.11548953  0.48409235  0.86094173  1
  O  O34  1  0.36876480  0.88414954  0.86079136  1
  O  O35  1  0.52000188  0.63405894  0.85801224  1
  O  O36  1  0.01197335  0.80184367  0.42417190  1
  O  O37  1  0.79762422  0.00118171  0.42046353  1
  O  O38  1  0.18839844  0.21470373  0.41885625  1
  O  O39  1  0.01579872  0.19155606  0.91169975  1
  O  O40  1  0.17583317  0.98326594  0.91163004  1
  O  O41  1  0.80976716  0.82399610  0.91139794  1
  O  O42  1  0.98345741  0.16370299  0.58615936  1
  O  O43  1  0.17883840  0.01413498  0.58615174  1
  O  O44  1  0.83552423  0.81991914  0.58764788  1
  O  O45  1  0.98980309  0.82329133  0.08298895  1
  O  O46  1  0.83402638  0.01252322  0.08436447  1
  O  O47  1  0.17690933  0.16770578  0.08513884  1
  O  O48  1  0.68506529  0.14124966  0.75385226  1
  O  O49  1  0.46303693  0.32712780  0.75167536  1
  O  O50  1  0.85070775  0.54987044  0.75102771  1
  O  O51  1  0.65229554  0.51907295  0.24289174  1
  O  O52  1  0.86124424  0.33508509  0.24772110  1
  O  O53  1  0.47063752  0.14678193  0.24247591  1
  O  O54  1  0.64262856  0.49968421  0.92267797  1
  O  O55  1  0.85490590  0.35373399  0.92303122  1
  O  O56  1  0.49903585  0.14429053  0.92320879  1
  O  O57  1  0.62542489  0.14668278  0.42337858  1
  O  O58  1  0.51631967  0.37802048  0.42369197  1
  O  O59  1  0.85988657  0.47890857  0.42457246  1
  O  O60  1  0.33482271  0.48843495  0.06844363  1
  O  O61  1  0.15869940  0.67104920  0.06654190  1
  O  O62  1  0.51389831  0.84208064  0.06655427  1
  O  O63  1  0.32843935  0.84392196  0.57344736  1
  O  O64  1  0.51466022  0.66612044  0.57522170  1
  O  O65  1  0.15799602  0.48372085  0.57325462  1
  O  O66  1  0.29872665  0.82006228  0.25302933  1
  O  O67  1  0.51331048  0.69870995  0.25139451  1
  O  O68  1  0.18642975  0.48049762  0.25449966  1
  O  O69  1  0.29360057  0.47613302  0.75736264  1
  O  O70  1  0.17798367  0.70970683  0.75797711  1
  O  O71  1  0.53063062  0.81645771  0.75851815  1
loop_
_geom_bond_atom_site_label_1
_geom_bond_atom_site_label_2
_geom_bond_distance
_geom_bond_site_symmetry_2
Na0 O51 2.298434 1_555
Na0 O68 2.366613 1_555
Na0 O53 2.518395 1_555
Na0 O17 2.585089 1_555
Na0 O67 2.718118 1_555
Na0 O10 2.738909 1_555
Na0 O32 2.879589 1_555
Na0 O0 2.917205 1_555
Na1 O71 2.324798 1_555
Na1 O49 2.353356 1_555
Na1 O50 2.386095 1_555
Na1 O14 2.630156 1_555
Na1 O69 2.660772 1_555
Na1 O35 2.703457 1_555
Na1 O6 2.865956 1_555
Na2 O37 2.313648 1_555
Na2 O59 2.326349 1_555
Na2 O38 2.419581 1_655
Na2 O2 2.579291 1_555
Na2 O57 2.699505 1_555
Na2 O23 2.715835 1_555
Na2 O30 2.854199 1_655
Na3 O43 2.416608 1_565
Na3 O44 2.442001 1_455
Na3 O42 2.527393 1_465
Na3 O36 2.533637 1_555
Na3 O37 2.687250 1_465
Na3 O38 2.718575 1_565
Na4 O45 2.408072 1_445
Na4 O46 2.440859 1_455
Na4 O47 2.447940 1_555
Na4 O39 2.671623 1_554
Na4 O41 2.676987 1_444
Na4 O40 2.685927 1_544
Na5 O56 2.517915 1_555
Na5 O55 2.518165 1_555
Na5 O48 2.567685 1_555
Na5 O54 2.637214 1_555
Na5 O49 2.709185 1_555
Na5 O50 2.736656 1_555
Na6 O52 2.565514 1_555
Na6 O53 2.640905 1_555
Na6 O51 2.643933 1_555
Na6 O57 2.648519 1_555
Na6 O59 2.693423 1_555
Na6 O58 2.703584 1_555
Na7 O66 2.527187 1_555
Na7 O67 2.550852 1_555
Na7 O68 2.644635 1_555
Na7 O61 2.695720 1_555
Na7 O62 2.713911 1_555
Na7 O60 2.795370 1_555
Na8 O63 2.612178 1_555
Na8 O70 2.618472 1_555
Na8 O65 2.624492 1_555
Na8 O69 2.673037 1_555
Na8 O64 2.725583 1_555
Na8 O71 2.741937 1_555
La0 O1 2.210719 1_555
La0 O0 2.226889 1_665
La0 O36 2.319468 1_655
La0 O2 2.319891 1_565
La0 O37 2.393106 1_565
La0 O38 2.423713 1_665
La1 O13 2.256836 1_555
La1 O12 2.261341 1_555
La1 O48 2.338104 1_555
La1 O14 2.349960 1_555
La1 O50 2.419754 1_555
La1 O49 2.420560 1_555
La2 O15 2.264928 1_555
La2 O16 2.282725 1_555
La2 O52 2.349461 1_555
La2 O17 2.361794 1_555
La2 O53 2.374072 1_555
La2 O51 2.401687 1_555
O0 P0 1.522270 1_545
O1 P1 1.514917 1_555
O2 P2 1.526551 1_655
O3 P3 1.533093 1_555
O3 Sn0 2.026160 1_555
O4 P4 1.540319 1_655
O4 Sn0 2.024955 1_665
O5 P5 1.531218 1_545
O5 Sn0 2.018717 1_655
O6 P5 1.568398 1_555
O6 Sn1 2.107542 1_665
O7 P3 1.559435 1_555
O7 Sn1 2.077611 1_555
O8 P4 1.559975 1_555
O8 Sn1 2.069708 1_565
O9 P1 1.561791 1_555
O9 Sn2 2.080312 1_555
O10 P2 1.578569 1_555
O10 Sn2 2.147281 1_445
O11 P0 1.565066 1_555
O11 Sn2 2.078499 1_455
O12 P6 1.510936 1_555
O13 P7 1.510852 1_555
O14 P8 1.521958 1_555
O15 P9 1.512816 1_555
O16 P10 1.512066 1_555
O17 P11 1.522989 1_555
O18 P11 1.568928 1_555
O18 Sn3 2.076601 1_554
O19 P9 1.568490 1_555
O19 Sn3 2.069154 1_554
O20 P10 1.567972 1_555
O20 Sn3 2.075499 1_554
O21 P7 1.563323 1_555
O21 Sn4 2.060561 1_555
O22 P8 1.565419 1_555
O22 Sn4 2.073197 1_555
O23 P6 1.574956 1_555
O23 Sn4 2.131331 1_555
O24 P12 1.528803 1_555
O24 Sn5 2.037940 1_556
O25 P13 1.532018 1_555
O25 Sn5 2.036136 1_556
O26 P14 1.529157 1_555
O26 Sn5 2.047552 1_556
O27 P15 1.524365 1_555
O27 Sn6 2.000472 1_555
O28 P16 1.528910 1_555
O28 Sn6 1.999355 1_555
O29 P17 1.521844 1_555
O29 Sn6 1.999045 1_555
O30 P17 1.568564 1_555
O30 Sn7 2.112584 1_555
O31 P15 1.556615 1_555
O31 Sn7 2.075393 1_555
O32 P16 1.569492 1_555
O32 Sn7 2.116149 1_555
O33 P13 1.556280 1_555
O33 Sn8 2.056034 1_555
O34 P14 1.557030 1_555
O34 Sn8 2.064986 1_555
O35 P12 1.569317 1_555
O35 Sn8 2.116052 1_555
O36 P17 1.509988 1_555
O37 P15 1.533443 1_545
O38 P16 1.530068 1_555
O39 P13 1.558951 1_555
O39 Sn0 2.074974 1_555
O40 P14 1.560581 1_555
O40 Sn0 2.064131 1_565
O41 P12 1.558213 1_555
O41 Sn0 2.094951 1_665
O42 P6 1.562046 1_555
O42 Sn1 2.095121 1_655
O43 P7 1.558714 1_555
O43 Sn1 2.099289 1_555
O44 P8 1.559940 1_555
O44 Sn1 2.106133 1_665
O45 P9 1.559867 1_555
O45 Sn2 2.128369 1_555
O46 P10 1.563958 1_555
O46 Sn2 2.103378 1_545
O47 P11 1.563118 1_555
O47 Sn2 2.120805 1_445
O48 P5 1.514373 1_545
O49 P3 1.534711 1_555
O50 P4 1.533302 1_655
O51 P1 1.533090 1_555
O52 P2 1.518066 1_655
O53 P0 1.528780 1_545
O54 P12 1.559005 1_555
O54 Sn3 2.126795 1_555
O55 P13 1.556909 1_655
O55 Sn3 2.127708 1_555
O56 P14 1.558004 1_545
O56 Sn3 2.121737 1_555
O57 P15 1.569976 1_545
O57 Sn4 2.105359 1_555
O58 P16 1.556193 1_555
O58 Sn4 2.081744 1_555
O59 P17 1.575719 1_655
O59 Sn4 2.118527 1_555
O60 P11 1.548049 1_555
O60 Sn5 2.047063 1_555
O61 P9 1.546712 1_455
O61 Sn5 2.030698 1_555
O62 P10 1.544842 1_565
O62 Sn5 2.030987 1_555
O63 P7 1.550131 1_565
O63 Sn6 2.040345 1_555
O64 P8 1.551741 1_555
O64 Sn6 2.033548 1_555
O65 P6 1.548598 1_455
O65 Sn6 2.053671 1_555
O66 P0 1.559897 1_555
O66 Sn7 2.071217 1_555
O67 P1 1.574000 1_555
O67 Sn7 2.099166 1_555
O68 P2 1.582568 1_555
O68 Sn7 2.112885 1_555
O69 P3 1.576644 1_555
O69 Sn8 2.110804 1_555
O70 P4 1.557566 1_555
O70 Sn8 2.082277 1_555
O71 P5 1.578694 1_555
O71 Sn8 2.122842 1_555
