# generated using pymatgen
data_NaAl2Ge2P3(SO8)3
_symmetry_space_group_name_H-M   'P 1'
_cell_length_a   8.32016917
_cell_length_b   8.31886318
_cell_length_c   21.66169439
_cell_angle_alpha   90.03715499
_cell_angle_beta   90.09113894
_cell_angle_gamma   120.06933461
_symmetry_Int_Tables_number   1
_chemical_formula_structural   NaAl2Ge2P3(SO8)3
_chemical_formula_sum   'Na3 Al6 Ge6 P9 S9 O72'
_cell_volume   1297.52038595
_cell_formula_units_Z   3
loop_
 _symmetry_equiv_pos_site_id
 _symmetry_equiv_pos_as_xyz
  1  'x, y, z'
loop_
 _atom_site_type_symbol
 _atom_site_label
 _atom_site_symmetry_multiplicity
 _atom_site_fract_x
 _atom_site_fract_y
 _atom_site_fract_z
 _atom_site_occupancy
  Na  Na0  1  0.67365155  0.33432693  0.83362678  1
  Na  Na1  1  0.66435135  0.33740721  0.33202242  1
  Na  Na2  1  0.33966932  0.67073003  0.16795731  1
  Al  Al0  1  0.67336289  0.33402384  0.68858927  1
  Al  Al1  1  0.65188560  0.32779044  0.18677954  1
  Al  Al2  1  0.66807921  0.32610554  0.98292981  1
  Al  Al3  1  0.66620293  0.33890798  0.47720415  1
  Al  Al4  1  0.33395624  0.66577080  0.31170972  1
  Al  Al5  1  0.32628471  0.66809392  0.81036757  1
  Ge  Ge0  1  0.01111775  0.99376272  0.35411287  1
  Ge  Ge1  1  0.99208868  0.00128706  0.85429327  1
  Ge  Ge2  1  0.99384532  0.99174686  0.64883924  1
  Ge  Ge3  1  0.99831274  0.99913604  0.14469660  1
  Ge  Ge4  1  0.33422377  0.65818598  0.02150830  1
  Ge  Ge5  1  0.32538973  0.66057851  0.51549660  1
  P  P0  1  0.28961055  0.99818351  0.24910405  1
  P  P1  1  0.71189031  0.71109709  0.24981901  1
  P  P2  1  0.00049411  0.71190297  0.75076824  1
  P  P3  1  0.70557781  0.99663688  0.75009049  1
  P  P4  1  0.66796423  0.04646934  0.08375623  1
  P  P5  1  0.37851049  0.32896417  0.08274903  1
  P  P6  1  0.04419954  0.37986117  0.91539477  1
  P  P7  1  0.33193217  0.37671864  0.41469866  1
  P  P8  1  0.04431415  0.66404886  0.41520611  1
  S  S0  1  0.99858762  0.28883195  0.25041904  1
  S  S1  1  0.29028877  0.29139962  0.74980145  1
  S  S2  1  0.95533371  0.33233963  0.58320436  1
  S  S3  1  0.37836128  0.04454406  0.58336180  1
  S  S4  1  0.66435250  0.62102167  0.58344638  1
  S  S5  1  0.95188895  0.61967731  0.08349184  1
  S  S6  1  0.62063301  0.66401529  0.91540156  1
  S  S7  1  0.33280692  0.95535585  0.91600736  1
  S  S8  1  0.62357673  0.95641967  0.41615168  1
  O  O0  1  0.21140046  0.04443796  0.30749278  1
  O  O1  1  0.83341248  0.79725076  0.30889121  1
  O  O2  1  0.95981894  0.17211506  0.30671705  1
  O  O3  1  0.21435506  0.17047677  0.80544757  1
  O  O4  1  0.95916579  0.79796684  0.80837789  1
  O  O5  1  0.83616158  0.04565079  0.80713170  1
  O  O6  1  0.79207216  0.96072314  0.69138558  1
  O  O7  1  0.17269299  0.21241445  0.69300225  1
  O  O8  1  0.04267403  0.83511842  0.69171212  1
  O  O9  1  0.79533183  0.83564575  0.19192909  1
  O  O10  1  0.03922331  0.21281846  0.19423269  1
  O  O11  1  0.16446675  0.95956810  0.19159088  1
  O  O12  1  0.87448542  0.36694535  0.63844806  1
  O  O13  1  0.49300435  0.12789006  0.63892923  1
  O  O14  1  0.63205838  0.50629104  0.63879561  1
  O  O15  1  0.87566267  0.50594776  0.13916394  1
  O  O16  1  0.63225353  0.12937318  0.14128725  1
  O  O17  1  0.49857477  0.37305431  0.14031713  1
  O  O18  1  0.46424307  0.30173329  0.02433697  1
  O  O19  1  0.84183813  0.54179242  0.02705637  1
  O  O20  1  0.70179290  0.16083503  0.02546488  1
  O  O21  1  0.46101026  0.16008515  0.52815847  1
  O  O22  1  0.70040077  0.54035966  0.52850137  1
  O  O23  1  0.83886812  0.29806812  0.52814976  1
  O  O24  1  0.54756096  0.70698404  0.97216712  1
  O  O25  1  0.16655653  0.46188363  0.97447307  1
  O  O26  1  0.29569572  0.84066061  0.97262976  1
  O  O27  1  0.54765314  0.84122546  0.47415595  1
  O  O28  1  0.29335044  0.45547129  0.47567832  1
  O  O29  1  0.16500292  0.71007266  0.47581546  1
  O  O30  1  0.13298011  0.63052905  0.35951994  1
  O  O31  1  0.50574395  0.87662682  0.36188712  1
  O  O32  1  0.37060529  0.50265773  0.35956136  1
  O  O33  1  0.13496072  0.50031688  0.85898268  1
  O  O34  1  0.36939046  0.87502615  0.86130828  1
  O  O35  1  0.50589040  0.63259441  0.86064675  1
  O  O36  1  0.02256759  0.83667583  0.41021211  1
  O  O37  1  0.80840958  0.97667658  0.40968693  1
  O  O38  1  0.15558063  0.18496631  0.40790360  1
  O  O39  1  0.02764351  0.18559829  0.90793470  1
  O  O40  1  0.16484825  0.97334967  0.90861724  1
  O  O41  1  0.80807600  0.83260883  0.91005374  1
  O  O42  1  0.97634306  0.16527638  0.59094984  1
  O  O43  1  0.19122415  0.02725400  0.59058555  1
  O  O44  1  0.83437723  0.80874831  0.58970424  1
  O  O45  1  0.97337838  0.80618870  0.08910627  1
  O  O46  1  0.83846527  0.02179215  0.09173850  1
  O  O47  1  0.18348543  0.15913996  0.09174632  1
  O  O48  1  0.69073546  0.17128614  0.74060390  1
  O  O49  1  0.47302524  0.30584077  0.74101689  1
  O  O50  1  0.82452588  0.52331755  0.74102880  1
  O  O51  1  0.69891288  0.52237159  0.24178357  1
  O  O52  1  0.83376663  0.30786760  0.24242078  1
  O  O53  1  0.48065526  0.17137686  0.24286028  1
  O  O54  1  0.64068117  0.49915471  0.92376558  1
  O  O55  1  0.85187542  0.35951333  0.92465699  1
  O  O56  1  0.49839216  0.14169944  0.92305804  1
  O  O57  1  0.63931159  0.13945213  0.42586890  1
  O  O58  1  0.50234682  0.35569402  0.42597459  1
  O  O59  1  0.85432816  0.49154864  0.42617066  1
  O  O60  1  0.35618311  0.50520061  0.07661057  1
  O  O61  1  0.14168796  0.64189034  0.07697106  1
  O  O62  1  0.48986222  0.84920501  0.07467015  1
  O  O63  1  0.36014020  0.85760865  0.57625597  1
  O  O64  1  0.49874167  0.64341802  0.57588232  1
  O  O65  1  0.14273633  0.50112414  0.57695864  1
  O  O66  1  0.30444912  0.82447052  0.25839498  1
  O  O67  1  0.52151116  0.69383198  0.25830714  1
  O  O68  1  0.16626704  0.47206766  0.25716476  1
  O  O69  1  0.30804252  0.47181447  0.75804986  1
  O  O70  1  0.17007997  0.69409181  0.75919574  1
  O  O71  1  0.52090696  0.82525982  0.76107265  1
loop_
_geom_bond_atom_site_label_1
_geom_bond_atom_site_label_2
_geom_bond_distance
_geom_bond_site_symmetry_2
Na0 O55 2.410361 1_555
Na0 O50 2.470890 1_555
Na0 O48 2.471985 1_555
Na0 O56 2.473552 1_555
Na0 O54 2.478514 1_555
Na0 O49 2.541507 1_555
Na1 O51 2.415268 1_555
Na1 O53 2.417786 1_555
Na1 O52 2.483874 1_555
Na1 O58 2.489113 1_555
Na1 O59 2.501428 1_555
Na1 O57 2.559237 1_555
Na2 O67 2.419720 1_555
Na2 O66 2.435883 1_555
Na2 O62 2.449918 1_555
Na2 O60 2.453025 1_555
Na2 O68 2.484053 1_555
Na2 O61 2.499700 1_555
Al0 O48 1.822281 1_555
Al0 O50 1.833119 1_555
Al0 O12 1.897844 1_555
Al0 O49 1.933349 1_555
Al0 O13 1.939944 1_555
Al0 O14 1.956921 1_555
Al1 O17 1.805420 1_555
Al1 O53 1.829869 1_555
Al1 O16 1.857276 1_555
Al1 O51 1.885266 1_555
Al1 O15 1.992440 1_555
Al1 O52 2.003992 1_555
Al2 O20 1.790295 1_556
Al2 O18 1.839124 1_556
Al2 O55 1.894682 1_555
Al2 O19 1.901864 1_556
Al2 O56 1.962095 1_555
Al2 O54 2.024138 1_555
Al3 O58 1.815421 1_555
Al3 O59 1.816601 1_555
Al3 O22 1.908640 1_555
Al3 O57 1.914293 1_555
Al3 O21 1.951669 1_555
Al3 O23 1.970192 1_555
Al4 O32 1.850426 1_555
Al4 O66 1.860870 1_555
Al4 O67 1.862481 1_555
Al4 O30 1.862598 1_555
Al4 O68 1.917956 1_555
Al4 O31 1.944567 1_555
Al5 O70 1.800545 1_555
Al5 O71 1.832341 1_555
Al5 O33 1.836248 1_555
Al5 O34 1.920211 1_555
Al5 O69 1.929300 1_555
Al5 O35 1.985943 1_555
Ge0 O0 1.810068 1_565
Ge0 O36 1.822066 1_555
Ge0 O1 1.840999 1_455
Ge0 O38 1.846535 1_565
Ge0 O2 2.018101 1_465
Ge0 O37 2.019992 1_455
Ge1 O39 1.825002 1_655
Ge1 O5 1.827300 1_555
Ge1 O4 1.859503 1_545
Ge1 O41 1.904520 1_545
Ge1 O40 1.958206 1_645
Ge1 O3 1.979967 1_655
Ge2 O8 1.804464 1_655
Ge2 O6 1.818071 1_555
Ge2 O44 1.920099 1_555
Ge2 O7 1.937812 1_665
Ge2 O42 1.972306 1_565
Ge2 O43 1.974198 1_665
Ge3 O46 1.834913 1_565
Ge3 O47 1.847578 1_665
Ge3 O9 1.858575 1_555
Ge3 O11 1.871707 1_655
Ge3 O45 1.931956 1_555
Ge3 O10 1.953751 1_665
Ge4 O60 1.819902 1_555
Ge4 O25 1.833399 1_554
Ge4 O62 1.859823 1_555
Ge4 O24 1.934508 1_554
Ge4 O61 1.953633 1_555
Ge4 O26 2.004169 1_554
Ge5 O29 1.799031 1_555
Ge5 O28 1.807735 1_555
Ge5 O27 1.924116 1_555
Ge5 O65 1.957103 1_555
Ge5 O64 2.003058 1_555
Ge5 O63 2.005863 1_555
O0 P0 1.556956 1_545
O1 P1 1.562648 1_555
O2 S0 1.490952 1_555
O3 S1 1.493706 1_555
O4 P2 1.560464 1_655
O5 P3 1.557102 1_545
O6 P3 1.562726 1_555
O7 S1 1.501242 1_555
O8 P2 1.566193 1_555
O9 P1 1.552941 1_555
O10 S0 1.486618 1_455
O11 P0 1.549065 1_555
O12 S2 1.470903 1_555
O13 S3 1.473752 1_555
O14 S4 1.471786 1_555
O15 S5 1.467747 1_555
O16 P4 1.523938 1_555
O17 P5 1.521770 1_555
O18 P5 1.524974 1_555
O19 S5 1.467508 1_555
O20 P4 1.520888 1_555
O21 S3 1.472555 1_555
O22 S4 1.469210 1_555
O23 S2 1.470219 1_555
O24 S6 1.492982 1_555
O25 P6 1.561512 1_555
O26 S7 1.489161 1_555
O27 S8 1.514445 1_555
O28 P7 1.577355 1_555
O29 P8 1.577501 1_555
O30 P8 1.511810 1_555
O31 S8 1.458313 1_555
O32 P7 1.514164 1_555
O33 P6 1.521131 1_555
O34 S7 1.465294 1_555
O35 S6 1.460293 1_555
O36 P8 1.538579 1_555
O37 S8 1.467646 1_555
O38 P7 1.540346 1_555
O39 P6 1.559875 1_555
O40 S7 1.486547 1_555
O41 S6 1.490495 1_555
O42 S2 1.494603 1_555
O43 S3 1.498615 1_555
O44 S4 1.497891 1_555
O45 S5 1.475059 1_555
O46 P4 1.541283 1_555
O47 P5 1.539798 1_555
O48 P3 1.532465 1_545
O49 S1 1.476539 1_555
O50 P2 1.531710 1_655
O51 P1 1.528565 1_555
O52 S0 1.467159 1_555
O53 P0 1.525352 1_545
O54 S6 1.473432 1_555
O55 P6 1.535931 1_655
O56 S7 1.477593 1_545
O57 S8 1.476335 1_545
O58 P7 1.532349 1_555
O59 P8 1.530641 1_655
O60 P5 1.573117 1_555
O61 S5 1.502054 1_455
O62 P4 1.577768 1_565
O63 S3 1.492765 1_565
O64 S4 1.488884 1_555
O65 S2 1.492647 1_455
O66 P0 1.524181 1_555
O67 P1 1.528539 1_555
O68 S0 1.469439 1_455
O69 S1 1.443500 1_555
O70 P2 1.501622 1_555
O71 P3 1.502135 1_555
