# generated using pymatgen
data_Na6NbGa3Si2(PO6)4
_symmetry_space_group_name_H-M   'P 1'
_cell_length_a   8.83355346
_cell_length_b   8.84364034
_cell_length_c   22.00934148
_cell_angle_alpha   90.07478534
_cell_angle_beta   89.66942886
_cell_angle_gamma   119.89735307
_symmetry_Int_Tables_number   1
_chemical_formula_structural   Na6NbGa3Si2(PO6)4
_chemical_formula_sum   'Na18 Nb3 Ga9 Si6 P12 O72'
_cell_volume   1490.54307811
_cell_formula_units_Z   3
loop_
 _symmetry_equiv_pos_site_id
 _symmetry_equiv_pos_as_xyz
  1  'x, y, z'
loop_
 _atom_site_type_symbol
 _atom_site_label
 _atom_site_symmetry_multiplicity
 _atom_site_fract_x
 _atom_site_fract_y
 _atom_site_fract_z
 _atom_site_occupancy
  Na  Na0  1  0.99882340  0.99196681  0.50230963  1
  Na  Na1  1  0.98401025  0.99285860  0.99722566  1
  Na  Na2  1  0.66388613  0.33414119  0.82872150  1
  Na  Na3  1  0.66426494  0.33777725  0.32935181  1
  Na  Na4  1  0.33438306  0.66000545  0.16217820  1
  Na  Na5  1  0.33191566  0.66501934  0.66382636  1
  Na  Na6  1  0.63971897  0.00805341  0.24652534  1
  Na  Na7  1  0.99611001  0.35918832  0.74702048  1
  Na  Na8  1  0.36437919  0.00417293  0.74960873  1
  Na  Na9  1  0.29958202  0.33315637  0.58610447  1
  Na  Na10  1  0.66823294  0.96665972  0.58432521  1
  Na  Na11  1  0.29612316  0.96347371  0.08380210  1
  Na  Na12  1  0.03611567  0.33606154  0.08281234  1
  Na  Na13  1  0.97368830  0.67793322  0.91484404  1
  Na  Na14  1  0.32507613  0.29477798  0.91432383  1
  Na  Na15  1  0.96366112  0.29562480  0.41709916  1
  Na  Na16  1  0.33374060  0.03619517  0.41526243  1
  Na  Na17  1  0.70152676  0.67011867  0.41816223  1
  Nb  Nb0  1  0.66738648  0.33083389  0.97836744  1
  Nb  Nb1  1  0.33212218  0.67171192  0.30991626  1
  Nb  Nb2  1  0.33927786  0.66298246  0.81322637  1
  Ga  Ga0  1  0.99861871  0.00000847  0.34790583  1
  Ga  Ga1  1  0.00135592  0.00357186  0.85305685  1
  Ga  Ga2  1  0.00157736  0.99699369  0.65007602  1
  Ga  Ga3  1  0.99803133  0.99242864  0.14939391  1
  Ga  Ga4  1  0.66453211  0.34116253  0.68421371  1
  Ga  Ga5  1  0.66031085  0.33593625  0.18657592  1
  Ga  Ga6  1  0.66624717  0.33017117  0.48470089  1
  Ga  Ga7  1  0.33846456  0.66703929  0.01558576  1
  Ga  Ga8  1  0.33369829  0.67028941  0.51847307  1
  Si  Si0  1  0.28881962  0.01251102  0.24865074  1
  Si  Si1  1  0.29211259  0.28534835  0.74769817  1
  Si  Si2  1  0.63126799  0.67946902  0.91948299  1
  Si  Si3  1  0.04490263  0.37146157  0.91887319  1
  Si  Si4  1  0.33004964  0.95208075  0.91870046  1
  Si  Si5  1  0.63060880  0.96231058  0.41923094  1
  P  P0  1  0.71685591  0.70773890  0.24973419  1
  P  P1  1  0.99754992  0.28757711  0.24829154  1
  P  P2  1  0.99361030  0.70889038  0.74949969  1
  P  P3  1  0.71531780  0.00213006  0.74787102  1
  P  P4  1  0.95936531  0.33684286  0.58338918  1
  P  P5  1  0.37209343  0.03876763  0.58355611  1
  P  P6  1  0.67030696  0.62576655  0.58227102  1
  P  P7  1  0.95544203  0.62532250  0.08638490  1
  P  P8  1  0.66652542  0.03612240  0.08684169  1
  P  P9  1  0.37422317  0.33775459  0.08606649  1
  P  P10  1  0.33289559  0.37586250  0.41906761  1
  P  P11  1  0.04152888  0.66683083  0.41922166  1
  O  O0  1  0.20578593  0.03256910  0.31215300  1
  O  O1  1  0.81643029  0.78582164  0.30940420  1
  O  O2  1  0.96219400  0.17576152  0.30668812  1
  O  O3  1  0.20944075  0.16929748  0.80875927  1
  O  O4  1  0.96731783  0.78519050  0.80822347  1
  O  O5  1  0.82914124  0.03403323  0.80345683  1
  O  O6  1  0.78755502  0.96692247  0.68878615  1
  O  O7  1  0.16684455  0.20867620  0.68810393  1
  O  O8  1  0.03435530  0.82805355  0.69378327  1
  O  O9  1  0.78956877  0.83306472  0.19548572  1
  O  O10  1  0.03109652  0.20857966  0.19126502  1
  O  O11  1  0.17195374  0.96557642  0.18819344  1
  O  O12  1  0.87430711  0.36263055  0.64090587  1
  O  O13  1  0.49146340  0.12120427  0.63945778  1
  O  O14  1  0.63168381  0.50372800  0.63695222  1
  O  O15  1  0.86671044  0.50085730  0.13978779  1
  O  O16  1  0.63515664  0.12209197  0.14282415  1
  O  O17  1  0.48991185  0.36297984  0.14028817  1
  O  O18  1  0.46089844  0.30575771  0.02781902  1
  O  O19  1  0.84520079  0.53723531  0.02735846  1
  O  O20  1  0.69674245  0.16060823  0.03041861  1
  O  O21  1  0.45242222  0.15595413  0.52573528  1
  O  O22  1  0.69808521  0.54573468  0.52299595  1
  O  O23  1  0.84442420  0.30217615  0.52573061  1
  O  O24  1  0.54090416  0.70371703  0.97806810  1
  O  O25  1  0.16125773  0.45642014  0.97879071  1
  O  O26  1  0.29204076  0.83431051  0.97892798  1
  O  O27  1  0.54340030  0.83388752  0.47710440  1
  O  O28  1  0.29598433  0.45483499  0.47594938  1
  O  O29  1  0.16188355  0.70210528  0.47338231  1
  O  O30  1  0.12840786  0.63225241  0.36210308  1
  O  O31  1  0.50055135  0.86716951  0.35935552  1
  O  O32  1  0.36289793  0.49595967  0.36314201  1
  O  O33  1  0.12931435  0.50135131  0.85843289  1
  O  O34  1  0.36826730  0.86968642  0.85700396  1
  O  O35  1  0.49788007  0.62746408  0.85986997  1
  O  O36  1  0.02331903  0.83032759  0.41191832  1
  O  O37  1  0.82311111  0.98045926  0.40952988  1
  O  O38  1  0.16999537  0.19296261  0.41254702  1
  O  O39  1  0.02634898  0.18386718  0.91041994  1
  O  O40  1  0.16308031  0.97807539  0.91169258  1
  O  O41  1  0.82501737  0.83593903  0.90894259  1
  O  O42  1  0.97496885  0.16810859  0.58666580  1
  O  O43  1  0.19105512  0.02571000  0.58890126  1
  O  O44  1  0.83013659  0.81167788  0.58843322  1
  O  O45  1  0.97370712  0.80850996  0.08835808  1
  O  O46  1  0.83832128  0.03007103  0.08958591  1
  O  O47  1  0.19143819  0.16815071  0.08791517  1
  O  O48  1  0.69273170  0.16566369  0.74299634  1
  O  O49  1  0.48513528  0.30387799  0.74240783  1
  O  O50  1  0.83964385  0.51999128  0.74318905  1
  O  O51  1  0.69428355  0.52626262  0.24324079  1
  O  O52  1  0.83609034  0.30967072  0.24345592  1
  O  O53  1  0.49154326  0.16962694  0.24467002  1
  O  O54  1  0.64123185  0.49553534  0.92424196  1
  O  O55  1  0.85570076  0.36566188  0.92295082  1
  O  O56  1  0.50409065  0.14886591  0.92411028  1
  O  O57  1  0.64405066  0.15408111  0.42299597  1
  O  O58  1  0.50116117  0.36218696  0.42280470  1
  O  O59  1  0.85919267  0.50096559  0.42277914  1
  O  O60  1  0.34921231  0.49723840  0.08041284  1
  O  O61  1  0.13897724  0.64281321  0.08104517  1
  O  O62  1  0.49868104  0.85972343  0.07977249  1
  O  O63  1  0.36036235  0.85812107  0.57749470  1
  O  O64  1  0.50049408  0.64110285  0.57854711  1
  O  O65  1  0.14585010  0.49772828  0.57749824  1
  O  O66  1  0.31244181  0.83157065  0.25644162  1
  O  O67  1  0.52843711  0.69028453  0.25705581  1
  O  O68  1  0.16536868  0.47077108  0.25672964  1
  O  O69  1  0.30550054  0.48048300  0.75349471  1
  O  O70  1  0.16491854  0.69269143  0.75346257  1
  O  O71  1  0.52531685  0.84052464  0.75342569  1
loop_
_geom_bond_atom_site_label_1
_geom_bond_atom_site_label_2
_geom_bond_distance
_geom_bond_site_symmetry_2
Na0 O44 2.441803 1_555
Na0 O43 2.476979 1_665
Na0 O42 2.496629 1_565
Na0 O36 2.518754 1_655
Na0 O37 2.543222 1_555
Na0 O38 2.577656 1_665
Na1 O41 2.399016 1_555
Na1 O39 2.452312 1_665
Na1 O40 2.496863 1_655
Na1 O46 2.507400 1_566
Na1 O45 2.558868 1_556
Na1 O47 2.635738 1_666
Na2 O49 2.405363 1_555
Na2 O50 2.467022 1_555
Na2 O48 2.492052 1_555
Na2 O56 2.598844 1_555
Na2 O54 2.601762 1_555
Na2 O55 2.611141 1_555
Na3 O53 2.403479 1_555
Na3 O51 2.450026 1_555
Na3 O52 2.506271 1_555
Na3 O58 2.574441 1_555
Na3 O57 2.575703 1_555
Na3 O59 2.613770 1_555
Na4 O60 2.346539 1_555
Na4 O62 2.436800 1_555
Na4 O61 2.442239 1_555
Na4 O68 2.615869 1_555
Na4 O66 2.631393 1_555
Na4 O67 2.636844 1_555
Na5 O64 2.462905 1_555
Na5 O65 2.470822 1_555
Na5 O63 2.482946 1_555
Na5 O69 2.497223 1_555
Na5 O70 2.540307 1_555
Na5 O71 2.569839 1_555
Na6 O52 2.348417 1_555
Na6 O53 2.371067 1_555
Na6 O67 2.482457 1_545
Na6 O16 2.505124 1_555
Na6 O66 2.517346 1_545
Na6 O9 2.725694 1_545
Na6 O31 2.770636 1_545
Na6 O2 2.809667 1_555
Na7 O48 2.355606 1_555
Na7 O69 2.392044 1_655
Na7 O50 2.429170 1_555
Na7 O70 2.561155 1_655
Na7 O12 2.583613 1_555
Na7 O33 2.743819 1_655
Na7 O7 2.775263 1_655
Na7 O5 2.783383 1_555
Na8 O49 2.317041 1_555
Na8 O70 2.420760 1_545
Na8 O71 2.485047 1_545
Na8 O48 2.517928 1_555
Na8 O13 2.650619 1_555
Na8 O34 2.655523 1_545
Na8 O3 2.769021 1_555
Na8 O8 2.818551 1_545
Na9 O43 2.390977 1_555
Na9 O64 2.402839 1_555
Na9 O65 2.443824 1_555
Na9 O42 2.486025 1_455
Na9 O7 2.513123 1_555
Na9 O28 2.660577 1_555
Na9 O14 2.784972 1_555
Na9 O21 2.850819 1_555
Na10 O42 2.389028 1_565
Na10 O63 2.396271 1_555
Na10 O44 2.426541 1_555
Na10 O64 2.499872 1_555
Na10 O6 2.534254 1_555
Na10 O27 2.625958 1_555
Na10 O13 2.807138 1_565
Na10 O23 2.876240 1_565
Na11 O62 2.384522 1_555
Na11 O47 2.409779 1_565
Na11 O61 2.459402 1_555
Na11 O45 2.470987 1_455
Na11 O11 2.544303 1_555
Na11 O26 2.566503 1_554
Na11 O18 2.897670 1_565
Na11 O16 2.911455 1_565
Na12 O46 2.383789 1_455
Na12 O61 2.393532 1_555
Na12 O60 2.398416 1_555
Na12 O47 2.476589 1_555
Na12 O25 2.529963 1_554
Na12 O10 2.631846 1_555
Na12 O15 2.843164 1_455
Na12 O20 2.850022 1_455
Na13 O40 2.328415 1_655
Na13 O41 2.350756 1_555
Na13 O55 2.423721 1_555
Na13 O4 2.543661 1_555
Na13 O54 2.557490 1_555
Na13 O19 2.745287 1_556
Na13 O26 2.823814 1_655
Na13 O33 2.825856 1_655
Na14 O39 2.314081 1_555
Na14 O40 2.429124 1_545
Na14 O54 2.462203 1_555
Na14 O56 2.500199 1_555
Na14 O3 2.561973 1_555
Na14 O18 2.757992 1_556
Na14 O35 2.816683 1_555
Na14 O25 2.860770 1_555
Na15 O38 2.409101 1_655
Na15 O59 2.415293 1_555
Na15 O37 2.426767 1_545
Na15 O57 2.455163 1_555
Na15 O23 2.619278 1_555
Na15 O2 2.647458 1_555
Na15 O30 2.848811 1_655
Na15 O28 2.862952 1_655
Na16 O57 2.405360 1_555
Na16 O36 2.421660 1_545
Na16 O38 2.453208 1_555
Na16 O58 2.505463 1_555
Na16 O0 2.534149 1_555
Na16 O21 2.654896 1_555
Na16 O31 2.844270 1_545
Na16 O29 2.861201 1_545
Na17 O58 2.398497 1_555
Na17 O37 2.404700 1_555
Na17 O36 2.467298 1_655
Na17 O59 2.503378 1_555
Na17 O22 2.550912 1_555
Na17 O1 2.598077 1_555
Na17 O27 2.778953 1_555
Na17 O32 2.868890 1_555
Nb0 O56 1.948650 1_555
Nb0 O55 1.953579 1_555
Nb0 O54 1.984249 1_555
Nb0 O20 2.010732 1_556
Nb0 O19 2.029260 1_556
Nb0 O18 2.033549 1_556
Nb1 O66 1.914620 1_555
Nb1 O31 1.958448 1_555
Nb1 O30 2.007612 1_555
Nb1 O67 2.020175 1_555
Nb1 O68 2.025579 1_555
Nb1 O32 2.071646 1_555
Nb2 O35 1.889860 1_555
Nb2 O33 1.952603 1_555
Nb2 O34 1.966511 1_555
Nb2 O69 1.985227 1_555
Nb2 O71 2.075196 1_555
Nb2 O70 2.144563 1_555
Ga0 O0 1.873434 1_655
Ga0 O2 1.961617 1_555
Ga0 O1 1.966893 1_545
Ga0 O37 1.995545 1_545
Ga0 O36 2.149369 1_645
Ga0 O38 2.161250 1_655
Ga1 O3 1.942864 1_555
Ga1 O41 1.953883 1_445
Ga1 O39 1.957566 1_555
Ga1 O5 2.001756 1_455
Ga1 O40 2.024939 1_545
Ga1 O4 2.052684 1_445
Ga2 O7 1.903121 1_565
Ga2 O8 1.918231 1_555
Ga2 O6 1.962568 1_455
Ga2 O43 2.056685 1_565
Ga2 O44 2.088953 1_455
Ga2 O42 2.157984 1_465
Ga3 O11 1.877600 1_655
Ga3 O9 1.949703 1_555
Ga3 O10 2.007623 1_665
Ga3 O45 2.036060 1_555
Ga3 O46 2.079591 1_565
Ga3 O47 2.120568 1_665
Ga4 O14 1.912160 1_555
Ga4 O49 1.928028 1_555
Ga4 O12 2.001946 1_555
Ga4 O13 2.034509 1_555
Ga4 O50 2.039064 1_555
Ga4 O48 2.130521 1_555
Ga5 O17 1.933391 1_555
Ga5 O53 1.953878 1_555
Ga5 O15 1.960405 1_555
Ga5 O51 1.993448 1_555
Ga5 O16 2.032716 1_555
Ga5 O52 2.101188 1_555
Ga6 O23 1.938941 1_555
Ga6 O21 1.959588 1_555
Ga6 O22 1.971745 1_555
Ga6 O57 2.000277 1_555
Ga6 O59 2.110912 1_555
Ga6 O58 2.120892 1_555
Ga7 O24 1.841290 1_554
Ga7 O26 1.902392 1_554
Ga7 O25 1.918244 1_554
Ga7 O60 2.109274 1_555
Ga7 O62 2.124870 1_555
Ga7 O61 2.195905 1_555
Ga8 O27 1.914654 1_555
Ga8 O29 1.952282 1_555
Ga8 O28 1.995900 1_555
Ga8 O63 2.027341 1_555
Ga8 O65 2.055703 1_555
Ga8 O64 2.094806 1_555
O0 Si0 1.624838 1_555
O1 P0 1.542963 1_555
O2 P1 1.555026 1_555
O3 Si1 1.624143 1_555
O4 P2 1.526510 1_555
O5 P3 1.522426 1_555
O6 P3 1.543586 1_565
O7 Si1 1.634337 1_555
O8 P2 1.537544 1_455
O9 P0 1.533448 1_555
O10 P1 1.533301 1_455
O11 Si0 1.611155 1_565
O12 P4 1.542131 1_555
O13 P5 1.550304 1_555
O14 P6 1.536618 1_555
O15 P7 1.529738 1_555
O16 P8 1.541626 1_555
O17 P9 1.518026 1_555
O18 P9 1.585401 1_555
O19 P7 1.580705 1_555
O20 P8 1.591288 1_555
O21 P5 1.567474 1_555
O22 P6 1.558903 1_555
O23 P4 1.561688 1_555
O24 Si2 1.582343 1_555
O25 Si3 1.613455 1_555
O26 Si4 1.613840 1_555
O27 Si5 1.620506 1_555
O28 P10 1.543189 1_555
O29 P11 1.526961 1_555
O30 P11 1.576300 1_555
O31 Si5 1.677920 1_555
O32 P10 1.559617 1_555
O33 Si3 1.668457 1_555
O34 Si4 1.651114 1_555
O35 Si2 1.672537 1_555
O36 P11 1.541145 1_555
O37 Si5 1.639146 1_555
O38 P10 1.545649 1_555
O39 Si3 1.594459 1_555
O40 Si4 1.610216 1_555
O41 Si2 1.591585 1_555
O42 P4 1.567282 1_555
O43 P5 1.548683 1_555
O44 P6 1.549990 1_555
O45 P7 1.546539 1_555
O46 P8 1.546465 1_555
O47 P9 1.563190 1_555
O48 P3 1.559233 1_555
O49 Si1 1.633068 1_555
O50 P2 1.548029 1_555
O51 P0 1.522050 1_555
O52 P1 1.537316 1_555
O53 Si0 1.631925 1_555
O54 Si2 1.675698 1_555
O55 Si3 1.648283 1_655
O56 Si4 1.655523 1_545
O57 Si5 1.642013 1_545
O58 P10 1.552859 1_555
O59 P11 1.547779 1_655
O60 P9 1.537853 1_555
O61 P7 1.553736 1_455
O62 P8 1.533742 1_565
O63 P5 1.554137 1_565
O64 P6 1.574653 1_555
O65 P4 1.554459 1_455
O66 Si0 1.722641 1_565
O67 P0 1.600280 1_555
O68 P1 1.570028 1_455
O69 Si1 1.674650 1_555
O70 P2 1.592406 1_455
O71 P3 1.575213 1_565
