# generated using pymatgen
data_K2La2MgTi2O8
_symmetry_space_group_name_H-M   'P 1'
_cell_length_a   3.84429100
_cell_length_b   3.84429100
_cell_length_c   15.85502300
_cell_angle_alpha   90.00000000
_cell_angle_beta   90.00000000
_cell_angle_gamma   90.00000000
_symmetry_Int_Tables_number   1
_chemical_formula_structural   K2La2MgTi2O8
_chemical_formula_sum   'K2 La2 Mg1 Ti2 O8'
_cell_volume   234.31461946
_cell_formula_units_Z   1
loop_
 _symmetry_equiv_pos_site_id
 _symmetry_equiv_pos_as_xyz
  1  'x, y, z'
loop_
 _atom_site_type_symbol
 _atom_site_label
 _atom_site_symmetry_multiplicity
 _atom_site_fract_x
 _atom_site_fract_y
 _atom_site_fract_z
 _atom_site_occupancy
  K  K0  1  0.75000000  0.75000000  0.42142500  1
  K  K1  1  0.25000000  0.25000000  0.57857500  1
  La  La0  1  0.75000000  0.75000000  0.15275900  1
  La  La1  1  0.25000000  0.25000000  0.84724100  1
  Mg  Mg0  1  0.25000000  0.75000000  0.00000000  1
  Ti  Ti0  1  0.25000000  0.25000000  0.28543800  1
  Ti  Ti1  1  0.75000000  0.75000000  0.71456200  1
  O  O0  1  0.75000000  0.25000000  0.24237800  1
  O  O1  1  0.25000000  0.75000000  0.24166100  1
  O  O2  1  0.25000000  0.75000000  0.75833900  1
  O  O3  1  0.75000000  0.25000000  0.75762200  1
  O  O4  1  0.75000000  0.75000000  0.60204600  1
  O  O5  1  0.25000000  0.25000000  0.39795400  1
  O  O6  1  0.75000000  0.75000000  0.93319100  1
  O  O7  1  0.25000000  0.25000000  0.06680900  1
loop_
_geom_bond_atom_site_label_1
_geom_bond_atom_site_label_2
_geom_bond_distance
_geom_bond_site_symmetry_2
K0 O5 2.743678 1_665
K0 O5 2.743678 1_555
K0 O5 2.743678 1_565
K0 O5 2.743678 1_655
K0 O4 2.863750 1_555
K1 O4 2.743678 1_455
K1 O4 2.743678 1_555
K1 O4 2.743678 1_445
K1 O4 2.743678 1_545
K1 O5 2.863750 1_555
La0 O1 2.383580 1_655
La0 O1 2.383580 1_555
La0 O0 2.390321 1_565
La0 O0 2.390321 1_555
La1 O2 2.383580 1_555
La1 O2 2.383580 1_545
La1 O3 2.390321 1_455
La1 O3 2.390321 1_555
Mg0 O6 2.194692 1_454
Mg0 O7 2.194692 1_565
Mg0 O6 2.194692 1_554
Mg0 O7 2.194692 1_555
O0 Ti0 2.039791 1_655
O0 Ti0 2.039791 1_555
O1 Ti0 2.043624 1_565
O1 Ti0 2.043624 1_555
O2 Ti1 2.043624 1_455
O2 Ti1 2.043624 1_555
O3 Ti1 2.039791 1_555
O3 Ti1 2.039791 1_545
O4 Ti1 1.783944 1_555
O5 Ti0 1.783944 1_555
