# generated using pymatgen
data_CsTlI4
_symmetry_space_group_name_H-M   'P 1'
_cell_length_a   19.46863600
_cell_length_b   7.65476300
_cell_length_c   8.84454558
_cell_angle_alpha   74.29837140
_cell_angle_beta   90.00000000
_cell_angle_gamma   90.00000000
_symmetry_Int_Tables_number   1
_chemical_formula_structural   CsTlI4
_chemical_formula_sum   'Cs4 Tl4 I16'
_cell_volume   1268.89760347
_cell_formula_units_Z   4
loop_
 _symmetry_equiv_pos_site_id
 _symmetry_equiv_pos_as_xyz
  1  'x, y, z'
loop_
 _atom_site_type_symbol
 _atom_site_label
 _atom_site_symmetry_multiplicity
 _atom_site_fract_x
 _atom_site_fract_y
 _atom_site_fract_z
 _atom_site_occupancy
  Cs  Cs0  1  0.37206700  0.19048100  0.70940200  1
  Cs  Cs1  1  0.87206700  0.80951900  0.79059800  1
  Cs  Cs2  1  0.62793300  0.80951900  0.29059800  1
  Cs  Cs3  1  0.12793300  0.19048100  0.20940200  1
  Tl  Tl0  1  0.62933400  0.18893600  0.70402600  1
  Tl  Tl1  1  0.12933400  0.81106400  0.79597400  1
  Tl  Tl2  1  0.37066600  0.81106400  0.29597400  1
  Tl  Tl3  1  0.87066600  0.18893600  0.20402600  1
  I  I0  1  0.74383300  0.36923000  0.13182100  1
  I  I1  1  0.24383300  0.63077000  0.36817900  1
  I  I2  1  0.25616700  0.63077000  0.86817900  1
  I  I3  1  0.75616700  0.36923000  0.63182100  1
  I  I4  1  0.95124700  0.27633800  0.43970900  1
  I  I5  1  0.45124700  0.72366200  0.06029100  1
  I  I6  1  0.04875300  0.72366200  0.56029100  1
  I  I7  1  0.54875300  0.27633800  0.93970900  1
  I  I8  1  0.66091900  0.81064900  0.79620100  1
  I  I9  1  0.16091900  0.18935100  0.70379900  1
  I  I10  1  0.33908100  0.18935100  0.20379900  1
  I  I11  1  0.83908100  0.81064900  0.29620100  1
  I  I12  1  0.55001800  0.27099600  0.42210300  1
  I  I13  1  0.05001800  0.72900400  0.07789700  1
  I  I14  1  0.44998200  0.72900400  0.57789700  1
  I  I15  1  0.94998200  0.27099600  0.92210300  1
loop_
_geom_bond_atom_site_label_1
_geom_bond_atom_site_label_2
_geom_bond_distance
_geom_bond_site_symmetry_2
Cs0 I9 4.111100 1_555
Cs0 I7 4.139831 1_555
Cs0 I12 4.241642 1_555
Cs0 I14 4.248735 1_555
Cs0 I14 4.284408 1_545
Cs0 I5 4.332943 1_546
Cs0 I10 4.417314 1_556
Cs0 I10 4.520030 1_555
Cs1 I8 4.111100 1_555
Cs1 I6 4.139831 1_655
Cs1 I13 4.241642 1_656
Cs1 I15 4.248735 1_555
Cs1 I15 4.284408 1_565
Cs1 I4 4.332943 1_565
Cs1 I11 4.417314 1_555
Cs1 I11 4.520030 1_556
Cs2 I11 4.111100 1_555
Cs2 I5 4.139831 1_555
Cs2 I14 4.241642 1_555
Cs2 I12 4.248735 1_555
Cs2 I12 4.284408 1_565
Cs2 I7 4.332943 1_564
Cs2 I8 4.417314 1_554
Cs2 I8 4.520030 1_555
Cs3 I10 4.111100 1_555
Cs3 I4 4.139831 1_455
Cs3 I15 4.241642 1_454
Cs3 I13 4.248735 1_555
Cs3 I13 4.284408 1_545
Cs3 I6 4.332943 1_545
Cs3 I9 4.417314 1_555
Cs3 I9 4.520030 1_554
I0 Tl3 2.816516 1_555
I1 Tl2 2.816516 1_555
I2 Tl1 2.816516 1_555
I3 Tl0 2.816516 1_555
I4 Tl3 2.829979 1_555
I5 Tl2 2.829979 1_555
I6 Tl1 2.829979 1_555
I7 Tl0 2.829979 1_555
I8 Tl0 2.854832 1_565
I9 Tl1 2.854832 1_545
I10 Tl2 2.854832 1_545
I11 Tl3 2.854832 1_565
I12 Tl0 2.854599 1_555
I13 Tl1 2.854599 1_554
I14 Tl2 2.854599 1_555
I15 Tl3 2.854599 1_556
