# generated using pymatgen
data_LaP7
_symmetry_space_group_name_H-M   'P 1'
_cell_length_a   7.04071056
_cell_length_b   7.97799329
_cell_length_c   11.74716655
_cell_angle_alpha   90.00000000
_cell_angle_beta   90.00000000
_cell_angle_gamma   93.33454733
_symmetry_Int_Tables_number   1
_chemical_formula_structural   LaP7
_chemical_formula_sum   'La4 P28'
_cell_volume   658.72988750
_cell_formula_units_Z   4
loop_
 _symmetry_equiv_pos_site_id
 _symmetry_equiv_pos_as_xyz
  1  'x, y, z'
loop_
 _atom_site_type_symbol
 _atom_site_label
 _atom_site_symmetry_multiplicity
 _atom_site_fract_x
 _atom_site_fract_y
 _atom_site_fract_z
 _atom_site_occupancy
  La  La0  1  0.39737264  0.28335442  0.34897618  1
  La  La1  1  0.10262736  0.21664558  0.84897618  1
  La  La2  1  0.60262736  0.71664558  0.65102382  1
  La  La3  1  0.89737264  0.78335442  0.15102382  1
  P  P0  1  0.46151574  0.74904042  0.21965086  1
  P  P1  1  0.03848426  0.75095958  0.71965086  1
  P  P2  1  0.53848426  0.25095958  0.78034914  1
  P  P3  1  0.96151574  0.24904042  0.28034914  1
  P  P4  1  0.90570796  0.59035641  0.46452035  1
  P  P5  1  0.59429204  0.90964359  0.96452035  1
  P  P6  1  0.09429204  0.40964359  0.53547965  1
  P  P7  1  0.40570796  0.09035641  0.03547965  1
  P  P8  1  0.62484964  0.26235221  0.11319949  1
  P  P9  1  0.87515036  0.23764779  0.61319949  1
  P  P10  1  0.37515036  0.73764779  0.88680051  1
  P  P11  1  0.12484964  0.76235221  0.38680051  1
  P  P12  1  0.75318422  0.04925982  0.33863094  1
  P  P13  1  0.74681578  0.45074018  0.83863094  1
  P  P14  1  0.24681578  0.95074018  0.66136906  1
  P  P15  1  0.25318422  0.54925982  0.16136906  1
  P  P16  1  0.91163188  0.18025642  0.10038874  1
  P  P17  1  0.58836812  0.31974358  0.60038874  1
  P  P18  1  0.08836812  0.81974358  0.89961126  1
  P  P19  1  0.41163188  0.68025642  0.39961126  1
  P  P20  1  0.84632099  0.00945399  0.51099506  1
  P  P21  1  0.65367901  0.49054601  0.01099506  1
  P  P22  1  0.15367901  0.99054601  0.48900494  1
  P  P23  1  0.34632099  0.50945399  0.98900494  1
  P  P24  1  0.78793479  0.47078972  0.31135804  1
  P  P25  1  0.71206521  0.02921028  0.81135804  1
  P  P26  1  0.21206521  0.52921028  0.68864196  1
  P  P27  1  0.28793479  0.97078972  0.18864196  1
loop_
_geom_bond_atom_site_label_1
_geom_bond_atom_site_label_2
_geom_bond_distance
_geom_bond_site_symmetry_2
La0 P24 3.084577 1_555
La0 P3 3.169276 1_455
La0 P27 3.183691 1_545
La0 P8 3.208691 1_555
La0 P12 3.212920 1_555
La0 P19 3.217687 1_555
La0 P17 3.251105 1_555
La0 P6 3.258645 1_555
La0 P15 3.261657 1_555
La0 P22 3.261971 1_545
La1 P25 3.084577 1_455
La1 P2 3.169276 1_555
La1 P26 3.183691 1_555
La1 P9 3.208691 1_455
La1 P13 3.212920 1_455
La1 P18 3.217687 1_545
La1 P16 3.251105 1_456
La1 P7 3.258645 1_556
La1 P14 3.261657 1_545
La1 P23 3.261971 1_555
La2 P26 3.084577 1_555
La2 P1 3.169276 1_655
La2 P25 3.183691 1_565
La2 P10 3.208691 1_555
La2 P14 3.212920 1_555
La2 P17 3.217687 1_555
La2 P19 3.251105 1_555
La2 P4 3.258645 1_555
La2 P13 3.261657 1_555
La2 P20 3.261971 1_565
La3 P27 3.084577 1_655
La3 P0 3.169276 1_555
La3 P24 3.183691 1_555
La3 P11 3.208691 1_655
La3 P15 3.212920 1_655
La3 P16 3.217687 1_565
La3 P18 3.251105 1_654
La3 P5 3.258645 1_554
La3 P12 3.261657 1_565
La3 P21 3.261971 1_555
P0 P19 2.207073 1_555
P0 P15 2.211025 1_555
P0 P27 2.237764 1_555
P1 P18 2.207073 1_555
P1 P14 2.211025 1_555
P1 P26 2.237764 1_555
P2 P25 2.237764 1_555
P4 P6 2.181529 1_655
P5 P7 2.181529 1_566
P6 P9 2.202434 1_455
P7 P8 2.202434 1_555
P10 P18 2.163893 1_555
P10 P23 2.180369 1_555
P10 P5 2.202434 1_555
P11 P19 2.163893 1_555
P11 P22 2.180369 1_555
P11 P4 2.202434 1_455
P12 P20 2.157512 1_555
P12 P3 2.211025 1_555
P13 P21 2.157512 1_556
P13 P2 2.211025 1_555
P14 P22 2.157512 1_555
P15 P23 2.157512 1_554
P16 P8 2.163893 1_555
P16 P3 2.207073 1_555
P17 P9 2.163893 1_555
P17 P2 2.207073 1_555
P20 P9 2.180369 1_555
P20 P22 2.193271 1_645
P21 P8 2.180369 1_555
P21 P23 2.193271 1_554
P24 P4 2.177774 1_555
P24 P3 2.237764 1_555
P25 P5 2.177774 1_545
P26 P6 2.177774 1_555
P27 P7 2.177774 1_565
