# generated using pymatgen
data_Eu
_symmetry_space_group_name_H-M   'P 1'
_cell_length_a   7.77275487
_cell_length_b   7.77275511
_cell_length_c   7.77275482
_cell_angle_alpha   109.47122580
_cell_angle_beta   109.47122648
_cell_angle_gamma   109.47121420
_symmetry_Int_Tables_number   1
_chemical_formula_structural   Eu
_chemical_formula_sum   Eu8
_cell_volume   361.49559527
_cell_formula_units_Z   8
loop_
 _symmetry_equiv_pos_site_id
 _symmetry_equiv_pos_as_xyz
  1  'x, y, z'
loop_
 _atom_site_type_symbol
 _atom_site_label
 _atom_site_symmetry_multiplicity
 _atom_site_fract_x
 _atom_site_fract_y
 _atom_site_fract_z
 _atom_site_occupancy
  Eu  Eu0_0  1  0.00000000  0.00000000  0.00000000  1
  Eu  Eu0_1  1  0.00000000  0.00000000  0.50000000  1
  Eu  Eu0_2  1  0.00000000  0.50000000  0.00000000  1
  Eu  Eu0_3  1  0.00000000  0.50000000  0.50000000  1
  Eu  Eu0_4  1  0.50000000  0.00000000  0.00000000  1
  Eu  Eu0_5  1  0.50000000  0.00000000  0.50000000  1
  Eu  Eu0_6  1  0.50000000  0.50000000  0.00000000  1
  Eu  Eu0_7  1  0.50000000  0.50000000  0.50000000  1
loop_
_geom_bond_atom_site_label_1
_geom_bond_atom_site_label_2
_geom_bond_distance
_geom_bond_site_symmetry_2
Eu0_0 Eu0_7 3.886377 1_444
Eu0_0 Eu0_7 3.886377 1_555
Eu0_0 Eu0_1 3.886377 1_554
Eu0_0 Eu0_1 3.886377 1_555
Eu0_0 Eu0_4 3.886377 1_455
Eu0_0 Eu0_4 3.886377 1_555
Eu0_0 Eu0_2 3.886378 1_555
Eu0_0 Eu0_2 3.886378 1_545
Eu0_1 Eu0_6 3.886377 1_556
Eu0_1 Eu0_6 3.886377 1_445
Eu0_1 Eu0_5 3.886377 1_455
Eu0_1 Eu0_5 3.886377 1_555
Eu0_1 Eu0_3 3.886378 1_545
Eu0_1 Eu0_3 3.886378 1_555
Eu0_2 Eu0_5 3.886377 1_565
Eu0_2 Eu0_5 3.886377 1_454
Eu0_2 Eu0_3 3.886377 1_554
Eu0_2 Eu0_3 3.886377 1_555
Eu0_2 Eu0_6 3.886377 1_555
Eu0_2 Eu0_6 3.886377 1_455
Eu0_3 Eu0_4 3.886377 1_455
Eu0_3 Eu0_4 3.886377 1_566
Eu0_3 Eu0_7 3.886377 1_555
Eu0_3 Eu0_7 3.886377 1_455
Eu0_4 Eu0_5 3.886377 1_555
Eu0_4 Eu0_5 3.886377 1_554
Eu0_4 Eu0_6 3.886378 1_545
Eu0_4 Eu0_6 3.886378 1_555
Eu0_5 Eu0_7 3.886378 1_555
Eu0_5 Eu0_7 3.886378 1_545
Eu0_6 Eu0_7 3.886377 1_554
Eu0_6 Eu0_7 3.886377 1_555
