# generated using pymatgen
data_MgTiO2
_symmetry_space_group_name_H-M   'P 1'
_cell_length_a   5.55302855
_cell_length_b   5.55302835
_cell_length_c   5.55302886
_cell_angle_alpha   30.29814870
_cell_angle_beta   30.29815208
_cell_angle_gamma   30.29814774
_symmetry_Int_Tables_number   1
_chemical_formula_structural   MgTiO2
_chemical_formula_sum   'Mg1 Ti1 O2'
_cell_volume   38.62169199
_cell_formula_units_Z   1
loop_
 _symmetry_equiv_pos_site_id
 _symmetry_equiv_pos_as_xyz
  1  'x, y, z'
loop_
 _atom_site_type_symbol
 _atom_site_label
 _atom_site_symmetry_multiplicity
 _atom_site_fract_x
 _atom_site_fract_y
 _atom_site_fract_z
 _atom_site_occupancy
  Mg  Mg0  1  0.50000000  0.50000000  0.50000000  1
  Ti  Ti0  1  0.00000000  0.00000000  0.00000000  1
  O  O0  1  0.24288800  0.24288600  0.24288700  1
  O  O1  1  0.75711500  0.75711200  0.75711300  1
loop_
_geom_bond_atom_site_label_1
_geom_bond_atom_site_label_2
_geom_bond_distance
_geom_bond_site_symmetry_2
Mg0 O1 2.067209 1_455
Mg0 O0 2.067213 1_565
Mg0 O1 2.067213 1_554
Mg0 O1 2.067215 1_545
Mg0 O0 2.067216 1_556
Mg0 O0 2.067217 1_655
O0 Ti0 2.207140 1_655
O0 Ti0 2.207142 1_556
O0 Ti0 2.207143 1_565
O1 Ti0 2.207142 1_656
O1 Ti0 2.207145 1_665
O1 Ti0 2.207148 1_566
