# generated using pymatgen
data_Li2Sn(PO3)4
_symmetry_space_group_name_H-M   'P 1'
_cell_length_a   9.85163100
_cell_length_b   9.85163100
_cell_length_c   4.72747200
_cell_angle_alpha   90.00000000
_cell_angle_beta   90.00000000
_cell_angle_gamma   90.00000000
_symmetry_Int_Tables_number   1
_chemical_formula_structural   Li2Sn(PO3)4
_chemical_formula_sum   'Li4 Sn2 P8 O24'
_cell_volume   458.82306168
_cell_formula_units_Z   2
loop_
 _symmetry_equiv_pos_site_id
 _symmetry_equiv_pos_as_xyz
  1  'x, y, z'
loop_
 _atom_site_type_symbol
 _atom_site_label
 _atom_site_symmetry_multiplicity
 _atom_site_fract_x
 _atom_site_fract_y
 _atom_site_fract_z
 _atom_site_occupancy
  Li  Li0  1  0.75000000  0.25000000  0.50000000  1
  Li  Li1  1  0.25000000  0.25000000  0.50000000  1
  Li  Li2  1  0.25000000  0.75000000  0.50000000  1
  Li  Li3  1  0.75000000  0.75000000  0.50000000  1
  Sn  Sn0  1  0.00000000  0.00000000  0.50000000  1
  Sn  Sn1  1  0.50000000  0.50000000  0.50000000  1
  P  P0  1  0.78930500  0.50000000  0.00000000  1
  P  P1  1  0.00000000  0.28930500  0.00000000  1
  P  P2  1  0.00000000  0.71069500  0.00000000  1
  P  P3  1  0.21069500  0.50000000  0.00000000  1
  P  P4  1  0.28930500  0.00000000  0.00000000  1
  P  P5  1  0.50000000  0.78930500  0.00000000  1
  P  P6  1  0.50000000  0.21069500  0.00000000  1
  P  P7  1  0.71069500  0.00000000  0.00000000  1
  O  O0  1  0.78439300  0.07234800  0.23351000  1
  O  O1  1  0.78439300  0.92765200  0.76649000  1
  O  O2  1  0.89281500  0.60718500  0.84661100  1
  O  O3  1  0.89281500  0.39281500  0.15338900  1
  O  O4  1  0.92765200  0.21560700  0.76649000  1
  O  O5  1  0.92765200  0.78439300  0.23351000  1
  O  O6  1  0.07234800  0.78439300  0.76649000  1
  O  O7  1  0.07234800  0.21560700  0.23351000  1
  O  O8  1  0.10718500  0.39281500  0.84661100  1
  O  O9  1  0.10718500  0.60718500  0.15338900  1
  O  O10  1  0.21560700  0.92765200  0.23351000  1
  O  O11  1  0.21560700  0.07234800  0.76649000  1
  O  O12  1  0.28439300  0.42765200  0.23351000  1
  O  O13  1  0.28439300  0.57234800  0.76649000  1
  O  O14  1  0.39281500  0.89281500  0.84661100  1
  O  O15  1  0.39281500  0.10718500  0.15338900  1
  O  O16  1  0.42765200  0.28439300  0.76649000  1
  O  O17  1  0.42765200  0.71560700  0.23351000  1
  O  O18  1  0.57234800  0.28439300  0.23351000  1
  O  O19  1  0.57234800  0.71560700  0.76649000  1
  O  O20  1  0.60718500  0.10718500  0.84661100  1
  O  O21  1  0.60718500  0.89281500  0.15338900  1
  O  O22  1  0.71560700  0.57234800  0.23351000  1
  O  O23  1  0.71560700  0.42765200  0.76649000  1
loop_
_geom_bond_atom_site_label_1
_geom_bond_atom_site_label_2
_geom_bond_distance
_geom_bond_site_symmetry_2
Li0 O4 2.182894 1_555
Li0 O0 2.182894 1_555
Li0 O23 2.182894 1_555
Li0 O18 2.182894 1_555
Li0 O3 2.577609 1_555
Li0 O20 2.577609 1_555
Li1 O11 2.182894 1_555
Li1 O12 2.182894 1_555
Li1 O16 2.182894 1_555
Li1 O7 2.182894 1_555
Li1 O15 2.577609 1_555
Li1 O8 2.577609 1_555
Li2 O10 2.182894 1_555
Li2 O17 2.182894 1_555
Li2 O6 2.182894 1_555
Li2 O13 2.182894 1_555
Li2 O14 2.577609 1_555
Li2 O9 2.577609 1_555
Li3 O5 2.182894 1_555
Li3 O1 2.182894 1_555
Li3 O22 2.182894 1_555
Li3 O19 2.182894 1_555
Li3 O2 2.577609 1_555
Li3 O21 2.577609 1_555
O0 P7 1.501256 1_555
O0 Sn0 2.570385 1_655
O1 P7 1.501256 1_566
O1 Sn0 2.570385 1_665
O2 P0 1.637293 1_556
O2 P2 1.637293 1_656
O3 P1 1.637293 1_655
O3 P0 1.637293 1_555
O4 P1 1.501256 1_656
O4 Sn0 2.570385 1_655
O5 P2 1.501256 1_655
O5 Sn0 2.570385 1_665
O6 P2 1.501256 1_556
O6 Sn0 2.570385 1_565
O7 P1 1.501256 1_555
O7 Sn0 2.570385 1_555
O8 P1 1.637293 1_556
O8 P3 1.637293 1_556
O9 P2 1.637293 1_555
O9 P3 1.637293 1_555
O10 P4 1.501256 1_565
O10 Sn0 2.570385 1_565
O11 P4 1.501256 1_556
O11 Sn0 2.570385 1_555
O12 P3 1.501256 1_555
O12 Sn1 2.570385 1_555
O13 P3 1.501256 1_556
O13 Sn1 2.570385 1_555
O14 P4 1.637293 1_566
O14 P5 1.637293 1_556
O15 P4 1.637293 1_555
O15 P6 1.637293 1_555
O16 P6 1.501256 1_556
O16 Sn1 2.570385 1_555
O17 P5 1.501256 1_555
O17 Sn1 2.570385 1_555
O18 P6 1.501256 1_555
O18 Sn1 2.570385 1_555
O19 P5 1.501256 1_556
O19 Sn1 2.570385 1_555
O20 P7 1.637293 1_556
O20 P6 1.637293 1_556
O21 P5 1.637293 1_555
O21 P7 1.637293 1_565
O22 P0 1.501256 1_555
O22 Sn1 2.570385 1_555
O23 P0 1.501256 1_556
O23 Sn1 2.570385 1_555
