# generated using pymatgen
data_Ba2ErMgNbO6
_symmetry_space_group_name_H-M   'P 1'
_cell_length_a   6.33902852
_cell_length_b   6.33902837
_cell_length_c   6.27356600
_cell_angle_alpha   60.34101601
_cell_angle_beta   60.34101678
_cell_angle_gamma   55.90287552
_symmetry_Int_Tables_number   1
_chemical_formula_structural   Ba2ErMgNbO6
_chemical_formula_sum   'Ba2 Er1 Mg1 Nb1 O6'
_cell_volume   172.92575546
_cell_formula_units_Z   1
loop_
 _symmetry_equiv_pos_site_id
 _symmetry_equiv_pos_as_xyz
  1  'x, y, z'
loop_
 _atom_site_type_symbol
 _atom_site_label
 _atom_site_symmetry_multiplicity
 _atom_site_fract_x
 _atom_site_fract_y
 _atom_site_fract_z
 _atom_site_occupancy
  Ba  Ba0  1  0.81099400  0.81099400  0.68900600  1
  Ba  Ba1  1  0.18900600  0.18900600  0.31099400  1
  Er  Er0  1  0.00000000  0.00000000  0.00000000  1
  Mg  Mg0  1  0.50000000  0.50000000  0.00000000  1
  Nb  Nb0  1  0.50000000  0.50000000  0.50000000  1
  O  O0  1  0.26929300  0.73070700  0.76286000  1
  O  O1  1  0.26929300  0.73070700  0.23714000  1
  O  O2  1  0.73070700  0.26929300  0.76286000  1
  O  O3  1  0.26538600  0.26538600  0.73461400  1
  O  O4  1  0.73070700  0.26929300  0.23714000  1
  O  O5  1  0.73461400  0.73461400  0.26538600  1
loop_
_geom_bond_atom_site_label_1
_geom_bond_atom_site_label_2
_geom_bond_distance
_geom_bond_site_symmetry_2
Ba0 Mg0 2.885082 1_556
Ba0 O4 2.890454 1_565
Ba0 O1 2.890454 1_655
Ba0 O2 2.890455 1_565
Ba0 O0 2.890455 1_655
Ba0 O3 3.001222 1_655
Ba0 O3 3.001222 1_565
Ba0 O5 3.215818 1_556
Ba0 O5 3.215818 1_555
Ba1 Mg0 2.885082 1_555
Ba1 O0 2.890454 1_545
Ba1 O2 2.890454 1_455
Ba1 O1 2.890455 1_545
Ba1 O4 2.890455 1_455
Ba1 O5 3.001222 1_455
Ba1 O5 3.001222 1_545
Ba1 O3 3.215818 1_554
Ba1 O3 3.215818 1_555
Er0 O0 2.184986 1_544
Er0 O1 2.184986 1_545
Er0 O2 2.184986 1_454
Er0 O4 2.184986 1_455
Er0 O3 2.461978 1_554
Er0 O5 2.461978 1_445
Mg0 O0 2.023083 1_554
Mg0 O4 2.023083 1_555
Mg0 O1 2.023083 1_555
Mg0 O2 2.023083 1_554
Nb0 O0 2.144529 1_555
Nb0 O4 2.144529 1_555
Nb0 O2 2.144529 1_555
Nb0 O1 2.144529 1_555
Nb0 O5 2.176507 1_555
Nb0 O3 2.176507 1_555
