# generated using pymatgen
data_Na9Mg10Nb2P3(S5O24)3
_symmetry_space_group_name_H-M   'P 1'
_cell_length_a   8.73886920
_cell_length_b   8.73225937
_cell_length_c   22.62204309
_cell_angle_alpha   89.76282728
_cell_angle_beta   90.24712766
_cell_angle_gamma   119.96095383
_symmetry_Int_Tables_number   1
_chemical_formula_structural   Na9Mg10Nb2P3(S5O24)3
_chemical_formula_sum   'Na9 Mg10 Nb2 P3 S15 O72'
_cell_volume   1495.58080907
_cell_formula_units_Z   1
loop_
 _symmetry_equiv_pos_site_id
 _symmetry_equiv_pos_as_xyz
  1  'x, y, z'
loop_
 _atom_site_type_symbol
 _atom_site_label
 _atom_site_symmetry_multiplicity
 _atom_site_fract_x
 _atom_site_fract_y
 _atom_site_fract_z
 _atom_site_occupancy
  Na  Na0  1  0.66738185  0.97218073  0.58874148  1
  Na  Na1  1  0.30400475  0.97186297  0.08892573  1
  Na  Na2  1  0.33302477  0.04121623  0.41347370  1
  Na  Na3  1  0.00899854  0.01262744  0.50119645  1
  Na  Na4  1  0.98434484  0.00298393  0.00098184  1
  Na  Na5  1  0.67044213  0.32352611  0.83038392  1
  Na  Na6  1  0.66215842  0.33830936  0.32929272  1
  Na  Na7  1  0.33313642  0.65639860  0.15982091  1
  Na  Na8  1  0.32017193  0.65257849  0.65948137  1
  Mg  Mg0  1  0.00563359  0.00735832  0.34956823  1
  Mg  Mg1  1  0.99555773  0.00277450  0.85053128  1
  Mg  Mg2  1  0.99929001  0.99813846  0.65089925  1
  Mg  Mg3  1  -0.00000989  0.99760945  0.15062973  1
  Mg  Mg4  1  0.66666499  0.33061967  0.68414558  1
  Mg  Mg5  1  0.66154835  0.32863821  0.18413109  1
  Mg  Mg6  1  0.67177149  0.33629524  0.98279450  1
  Mg  Mg7  1  0.66762764  0.34644783  0.48252375  1
  Mg  Mg8  1  0.33235754  0.65890805  0.01839351  1
  Mg  Mg9  1  0.32492364  0.65061917  0.51891944  1
  Nb  Nb0  1  0.33357899  0.66125091  0.31236465  1
  Nb  Nb1  1  0.33909393  0.67168697  0.81234782  1
  P  P0  1  0.29891421  0.00771340  0.25098557  1
  P  P1  1  0.71474159  0.01196920  0.74907956  1
  P  P2  1  0.33122494  0.36868243  0.41942142  1
  S  S0  1  0.71339997  0.70821570  0.25098756  1
  S  S1  1  0.99324883  0.28929066  0.24985201  1
  S  S2  1  0.29416709  0.28944740  0.75122693  1
  S  S3  1  0.99551603  0.70694947  0.75158569  1
  S  S4  1  0.95906473  0.33411203  0.58360396  1
  S  S5  1  0.36835395  0.03693816  0.58136298  1
  S  S6  1  0.66931566  0.62993403  0.58425110  1
  S  S7  1  0.95959253  0.62741643  0.08319629  1
  S  S8  1  0.66903591  0.03904383  0.08244728  1
  S  S9  1  0.37319646  0.33411428  0.08300270  1
  S  S10  1  0.62772814  0.66645397  0.91835795  1
  S  S11  1  0.04132155  0.37341903  0.91765623  1
  S  S12  1  0.33120075  0.96076592  0.91855185  1
  S  S13  1  0.62996745  0.95809847  0.41865902  1
  S  S14  1  0.04029699  0.66445973  0.41737656  1
  O  O0  1  0.21165453  0.02166529  0.30745215  1
  O  O1  1  0.81163496  0.79214416  0.30487977  1
  O  O2  1  0.97250563  0.18874750  0.30379803  1
  O  O3  1  0.21429351  0.18711287  0.80470259  1
  O  O4  1  0.98069157  0.79097522  0.80512190  1
  O  O5  1  0.82175417  0.02604294  0.80320631  1
  O  O6  1  0.77271714  0.96614415  0.69126581  1
  O  O7  1  0.18640195  0.21742293  0.69793241  1
  O  O8  1  0.03494563  0.81517391  0.69822131  1
  O  O9  1  0.78395271  0.81567733  0.19772552  1
  O  O10  1  0.02730048  0.21535498  0.19707335  1
  O  O11  1  0.19019314  0.96687489  0.19402043  1
  O  O12  1  0.87545524  0.35290770  0.63712001  1
  O  O13  1  0.48454978  0.12517038  0.63251985  1
  O  O14  1  0.64913689  0.52531574  0.63738169  1
  O  O15  1  0.87672092  0.52381933  0.13649635  1
  O  O16  1  0.63971136  0.12134611  0.13495596  1
  O  O17  1  0.47733595  0.35603952  0.13669345  1
  O  O18  1  0.45579474  0.30607960  0.03011496  1
  O  O19  1  0.85808187  0.54459540  0.02917354  1
  O  O20  1  0.69084298  0.14302049  0.02838049  1
  O  O21  1  0.44619521  0.13572358  0.52539851  1
  O  O22  1  0.68715444  0.54791884  0.53022352  1
  O  O23  1  0.84891358  0.30725401  0.53034430  1
  O  O24  1  0.54162408  0.68868471  0.96990580  1
  O  O25  1  0.14627145  0.45957868  0.97011818  1
  O  O26  1  0.31149159  0.85759620  0.97215557  1
  O  O27  1  0.54751371  0.85783754  0.47276302  1
  O  O28  1  0.31196363  0.45974352  0.47224025  1
  O  O29  1  0.15516221  0.69808725  0.46881710  1
  O  O30  1  0.13381763  0.64781043  0.36282535  1
  O  O31  1  0.50844921  0.86357351  0.36562130  1
  O  O32  1  0.34540330  0.48758810  0.36226626  1
  O  O33  1  0.13694457  0.48512437  0.86350453  1
  O  O34  1  0.34833923  0.86005151  0.86525861  1
  O  O35  1  0.51423158  0.65033343  0.86363547  1
  O  O36  1  0.02138559  0.82220081  0.40920305  1
  O  O37  1  0.80075676  0.97159695  0.40900555  1
  O  O38  1  0.16833305  0.18335383  0.41177347  1
  O  O39  1  0.02648360  0.19871540  0.91108726  1
  O  O40  1  0.17274034  0.97465869  0.90912091  1
  O  O41  1  0.80230356  0.82381982  0.91052753  1
  O  O42  1  0.97665632  0.17168001  0.58814242  1
  O  O43  1  0.19118929  0.01651071  0.58869978  1
  O  O44  1  0.82860327  0.81180844  0.58792749  1
  O  O45  1  0.98343071  0.81015224  0.08683122  1
  O  O46  1  0.82507545  0.01657774  0.08930728  1
  O  O47  1  0.19420206  0.17121752  0.08799539  1
  O  O48  1  0.67400673  0.16186678  0.74468296  1
  O  O49  1  0.47529624  0.32449291  0.74483070  1
  O  O50  1  0.84466632  0.52838999  0.74546148  1
  O  O51  1  0.68542700  0.52930377  0.24533220  1
  O  O52  1  0.84687842  0.32405659  0.24367080  1
  O  O53  1  0.48732566  0.16189173  0.24585462  1
  O  O54  1  0.63448510  0.50161891  0.91896310  1
  O  O55  1  0.86737496  0.36266067  0.91832492  1
  O  O56  1  0.49479539  0.13300226  0.91853074  1
  O  O57  1  0.63898567  0.13235282  0.41926826  1
  O  O58  1  0.50024992  0.35379122  0.41751011  1
  O  O59  1  0.87030624  0.50085069  0.42022119  1
  O  O60  1  0.35204306  0.49171766  0.07706677  1
  O  O61  1  0.14376637  0.65375906  0.07893266  1
  O  O62  1  0.50372414  0.86077757  0.07723996  1
  O  O63  1  0.35564422  0.85886156  0.57748123  1
  O  O64  1  0.51198951  0.65690452  0.58041224  1
  O  O65  1  0.13669654  0.49290124  0.57873077  1
  O  O66  1  0.31729037  0.83230862  0.26193875  1
  O  O67  1  0.52672857  0.68830640  0.25777326  1
  O  O68  1  0.16210108  0.47444447  0.25670144  1
  O  O69  1  0.30975554  0.47433985  0.75888508  1
  O  O70  1  0.16076685  0.68474640  0.75937946  1
  O  O71  1  0.51876411  0.83480429  0.76205368  1
loop_
_geom_bond_atom_site_label_1
_geom_bond_atom_site_label_2
_geom_bond_distance
_geom_bond_site_symmetry_2
Na0 O42 2.374238 1_565
Na0 O64 2.393097 1_555
Na0 O63 2.401891 1_555
Na0 O44 2.432614 1_555
Na0 O6 2.501670 1_555
Na0 O13 2.734032 1_565
Na0 O27 2.816234 1_555
Na0 O23 2.858823 1_565
Na1 O47 2.370564 1_565
Na1 O62 2.398770 1_555
Na1 O61 2.417702 1_555
Na1 O45 2.427461 1_455
Na1 O11 2.572871 1_555
Na1 O16 2.748589 1_565
Na1 O26 2.840134 1_554
Na1 O18 2.857162 1_565
Na2 O38 2.323084 1_555
Na2 O58 2.368726 1_555
Na2 O57 2.381592 1_555
Na2 O36 2.425018 1_545
Na2 O0 2.589811 1_555
Na2 O21 2.692675 1_555
Na2 O29 2.880132 1_545
Na2 O31 2.886471 1_545
Na3 O38 2.485870 1_555
Na3 O42 2.509396 1_455
Na3 O43 2.524667 1_555
Na3 O44 2.578156 1_445
Na3 O37 2.666785 1_445
Na3 O36 2.705194 1_545
Na4 O46 2.476829 1_555
Na4 O39 2.557626 1_654
Na4 O45 2.562571 1_545
Na4 O41 2.584204 1_544
Na4 O47 2.588035 1_655
Na4 O40 2.744198 1_644
Na5 O48 2.412365 1_555
Na5 O55 2.534744 1_555
Na5 O50 2.546633 1_555
Na5 O56 2.559007 1_555
Na5 O49 2.576782 1_555
Na5 O54 2.655549 1_555
Na6 O53 2.432821 1_555
Na6 O51 2.463510 1_555
Na6 O58 2.494095 1_555
Na6 O52 2.569564 1_555
Na6 O59 2.639623 1_555
Na6 O57 2.651028 1_555
Na7 O60 2.421189 1_555
Na7 O61 2.454316 1_555
Na7 O62 2.497292 1_555
Na7 O68 2.681266 1_555
Na7 O67 2.711426 1_555
Na7 O66 2.821344 1_555
Na8 O65 2.369554 1_555
Na8 O64 2.443937 1_555
Na8 O63 2.490275 1_555
Na8 O69 2.705318 1_555
Na8 O70 2.747690 1_555
Na8 O71 2.857566 1_555
Mg0 O0 1.988441 1_555
Mg0 O2 2.026475 1_455
Mg0 O38 2.044942 1_555
Mg0 O1 2.060729 1_445
Mg0 O37 2.137710 1_445
Mg0 O36 2.157717 1_545
Mg1 O5 1.945958 1_555
Mg1 O3 2.061494 1_655
Mg1 O4 2.065748 1_545
Mg1 O39 2.105126 1_655
Mg1 O41 2.121892 1_545
Mg1 O40 2.138639 1_645
Mg2 O8 2.067832 1_655
Mg2 O6 2.072020 1_555
Mg2 O7 2.084926 1_665
Mg2 O44 2.116221 1_555
Mg2 O43 2.137205 1_665
Mg2 O42 2.151802 1_565
Mg3 O11 2.056119 1_555
Mg3 O9 2.056894 1_455
Mg3 O10 2.082619 1_565
Mg3 O46 2.126274 1_465
Mg3 O45 2.136492 1_455
Mg3 O47 2.149282 1_565
Mg4 O48 2.031757 1_555
Mg4 O12 2.039375 1_555
Mg4 O13 2.065146 1_555
Mg4 O14 2.068065 1_555
Mg4 O49 2.148040 1_555
Mg4 O50 2.155036 1_555
Mg5 O17 2.041583 1_555
Mg5 O53 2.043309 1_555
Mg5 O16 2.054344 1_555
Mg5 O15 2.098353 1_555
Mg5 O52 2.117604 1_555
Mg5 O51 2.164064 1_555
Mg6 O19 2.025644 1_556
Mg6 O20 2.050542 1_556
Mg6 O18 2.072558 1_556
Mg6 O54 2.173465 1_555
Mg6 O55 2.174297 1_555
Mg6 O56 2.217304 1_555
Mg7 O22 2.000725 1_555
Mg7 O23 2.078686 1_555
Mg7 O58 2.093085 1_555
Mg7 O21 2.125110 1_555
Mg7 O59 2.135875 1_555
Mg7 O57 2.270935 1_555
Mg8 O25 2.009982 1_554
Mg8 O24 2.038409 1_554
Mg8 O60 2.038539 1_555
Mg8 O26 2.106394 1_554
Mg8 O62 2.118420 1_555
Mg8 O61 2.130422 1_555
Mg9 O28 1.931592 1_555
Mg9 O65 2.043097 1_555
Mg9 O29 2.062303 1_555
Mg9 O64 2.121777 1_555
Mg9 O27 2.152786 1_555
Mg9 O63 2.159417 1_555
Nb0 O32 1.930298 1_555
Nb0 O66 1.936390 1_555
Nb0 O67 2.011780 1_555
Nb0 O68 2.012786 1_555
Nb0 O30 2.043458 1_555
Nb0 O31 2.052605 1_555
Nb1 O71 1.885949 1_555
Nb1 O35 1.997821 1_555
Nb1 O34 2.006856 1_555
Nb1 O70 2.009383 1_555
Nb1 O69 2.017787 1_555
Nb1 O33 2.059492 1_555
O0 P0 1.526609 1_555
O1 S0 1.459578 1_555
O2 S1 1.458446 1_555
O3 S2 1.457574 1_555
O4 S3 1.457931 1_555
O5 P1 1.505163 1_555
O6 P1 1.529662 1_565
O7 S2 1.463173 1_555
O8 S3 1.462221 1_455
O9 S0 1.460014 1_555
O10 S1 1.460228 1_455
O11 P0 1.531454 1_565
O12 S4 1.468162 1_555
O13 S5 1.476414 1_555
O14 S6 1.463601 1_555
O15 S7 1.463155 1_555
O16 S8 1.478791 1_555
O17 S9 1.469172 1_555
O18 S9 1.482822 1_555
O19 S7 1.469923 1_555
O20 S8 1.475352 1_555
O21 S5 1.490627 1_555
O22 S6 1.466773 1_555
O23 S4 1.483268 1_555
O24 S10 1.455692 1_555
O25 S11 1.457561 1_555
O26 S12 1.466127 1_555
O27 S13 1.467097 1_555
O28 P2 1.493863 1_555
O29 S14 1.465040 1_555
O30 S14 1.529976 1_555
O31 S13 1.539575 1_555
O32 P2 1.620797 1_555
O33 S11 1.528149 1_555
O34 S12 1.546371 1_555
O35 S10 1.545129 1_555
O36 S14 1.477779 1_555
O37 S13 1.454661 1_555
O38 P2 1.540941 1_555
O39 S11 1.473211 1_555
O40 S12 1.463844 1_555
O41 S10 1.467483 1_555
O42 S4 1.504154 1_555
O43 S5 1.477321 1_555
O44 S6 1.502943 1_555
O45 S7 1.505099 1_555
O46 S8 1.478891 1_555
O47 S9 1.503559 1_555
O48 P1 1.521173 1_555
O49 S2 1.462132 1_555
O50 S3 1.461288 1_555
O51 S0 1.461797 1_555
O52 S1 1.460757 1_555
O53 P0 1.524231 1_555
O54 S10 1.469768 1_555
O55 S11 1.475567 1_655
O56 S12 1.469100 1_545
O57 S13 1.483967 1_545
O58 P2 1.546935 1_555
O59 S14 1.460233 1_655
O60 S9 1.482762 1_555
O61 S7 1.511284 1_455
O62 S8 1.509289 1_565
O63 S5 1.505538 1_565
O64 S6 1.508457 1_555
O65 S4 1.481475 1_455
O66 P0 1.635671 1_565
O67 S0 1.559996 1_555
O68 S1 1.559681 1_455
O69 S2 1.561315 1_555
O70 S3 1.559261 1_455
O71 P1 1.663362 1_565
