# generated using pymatgen
data_SrCrO3
_symmetry_space_group_name_H-M   'P 1'
_cell_length_a   3.89320400
_cell_length_b   3.89320400
_cell_length_c   3.89320400
_cell_angle_alpha   90.00000000
_cell_angle_beta   90.00000000
_cell_angle_gamma   90.00000000
_symmetry_Int_Tables_number   1
_chemical_formula_structural   SrCrO3
_chemical_formula_sum   'Sr1 Cr1 O3'
_cell_volume   59.00943858
_cell_formula_units_Z   1
loop_
 _symmetry_equiv_pos_site_id
 _symmetry_equiv_pos_as_xyz
  1  'x, y, z'
loop_
 _atom_site_type_symbol
 _atom_site_label
 _atom_site_symmetry_multiplicity
 _atom_site_fract_x
 _atom_site_fract_y
 _atom_site_fract_z
 _atom_site_occupancy
  Sr  Sr0  1  0.50000100  0.50000100  0.50000100  1
  Cr  Cr0  1  0.00000000  0.00000000  0.00000000  1
  O  O0  1  0.50000100  0.00000000  0.00000000  1
  O  O1  1  0.00000000  0.50000100  0.00000000  1
  O  O2  1  0.00000000  0.00000000  0.50000100  1
loop_
_geom_bond_atom_site_label_1
_geom_bond_atom_site_label_2
_geom_bond_distance
_geom_bond_site_symmetry_2
Cr0 O2 1.946598 1_554
Cr0 O1 1.946598 1_545
Cr0 O0 1.946598 1_455
Cr0 O1 1.946606 1_555
Cr0 O0 1.946606 1_555
Cr0 O2 1.946606 1_555
O0 Sr0 2.752905 1_544
O0 Sr0 2.752911 1_545
O0 Sr0 2.752911 1_554
O0 Sr0 2.752916 1_555
O1 Sr0 2.752905 1_454
O1 Sr0 2.752911 1_455
O1 Sr0 2.752911 1_554
O1 Sr0 2.752916 1_555
O2 Sr0 2.752905 1_445
O2 Sr0 2.752911 1_545
O2 Sr0 2.752911 1_455
O2 Sr0 2.752916 1_555
