# generated using pymatgen
data_K2Na2Nd2MgNb2O10
_symmetry_space_group_name_H-M   'P 1'
_cell_length_a   5.76427404
_cell_length_b   5.91287636
_cell_length_c   8.78951654
_cell_angle_alpha   95.34743449
_cell_angle_beta   90.00000000
_cell_angle_gamma   90.00000000
_symmetry_Int_Tables_number   1
_chemical_formula_structural   K2Na2Nd2MgNb2O10
_chemical_formula_sum   'K2 Na2 Nd2 Mg1 Nb2 O10'
_cell_volume   298.27316364
_cell_formula_units_Z   1
loop_
 _symmetry_equiv_pos_site_id
 _symmetry_equiv_pos_as_xyz
  1  'x, y, z'
loop_
 _atom_site_type_symbol
 _atom_site_label
 _atom_site_symmetry_multiplicity
 _atom_site_fract_x
 _atom_site_fract_y
 _atom_site_fract_z
 _atom_site_occupancy
  K  K0  1  0.25000000  0.68081898  0.09689405  1
  K  K1  1  0.75000000  0.25278057  0.00554027  1
  Na  Na0  1  0.25000000  0.37859532  0.74374975  1
  Na  Na1  1  0.75000000  0.73673197  0.24437730  1
  Nd  Nd0  1  0.25000000  0.74771932  0.48808902  1
  Nd  Nd1  1  0.75000000  0.25483749  0.50396602  1
  Mg  Mg0  1  0.25000000  0.96059268  0.83141632  1
  Nb  Nb0  1  0.25000000  0.21371070  0.25787583  1
  Nb  Nb1  1  0.75000000  0.77509922  0.74868409  1
  O  O0  1  0.98567969  0.03221133  0.69131859  1
  O  O1  1  0.52728959  0.55710455  0.62574770  1
  O  O2  1  0.75000000  0.74471663  0.95946098  1
  O  O3  1  0.47947521  0.00259271  0.33934988  1
  O  O4  1  0.47994068  0.45400476  0.31040105  1
  O  O5  1  0.25000000  0.16257041  0.03787394  1
  O  O6  1  0.51432031  0.03221133  0.69131859  1
  O  O7  1  0.97271041  0.55710455  0.62574770  1
  O  O8  1  0.02052479  0.00259271  0.33934988  1
  O  O9  1  0.02005932  0.45400476  0.31040105  1
loop_
_geom_bond_atom_site_label_1
_geom_bond_atom_site_label_2
_geom_bond_distance
_geom_bond_site_symmetry_2
K0 O9 2.747040 1_555
K0 O4 2.747040 1_555
K0 O5 2.942567 1_565
K0 Mg0 2.983444 1_554
K0 O3 3.025778 1_565
K0 O8 3.025778 1_565
K0 O5 3.059901 1_555
K0 O2 3.161285 1_554
K0 O2 3.161285 1_454
K1 O5 2.949619 1_555
K1 O5 2.949619 1_655
K1 O2 2.973968 1_554
K1 O2 2.993658 1_544
K1 O4 3.228754 1_555
K1 O9 3.228754 1_655
K1 O6 3.240832 1_554
K1 O0 3.240832 1_554
Na0 O1 2.224562 1_555
Na0 O7 2.224562 1_455
Na0 O6 2.559819 1_555
Na0 O0 2.559819 1_455
Na1 O8 2.314107 1_665
Na1 O3 2.314107 1_565
Na1 O4 2.394907 1_555
Na1 O9 2.394907 1_655
Na1 O2 2.509117 1_554
Nd0 O7 2.354417 1_455
Nd0 O1 2.354417 1_555
Nd0 O8 2.469255 1_565
Nd0 O3 2.469255 1_565
Nd0 O4 2.589701 1_555
Nd0 O9 2.589701 1_555
Nd0 O6 2.789596 1_565
Nd0 O0 2.789596 1_465
Nd1 O1 2.373090 1_555
Nd1 O7 2.373090 1_555
Nd1 O3 2.519422 1_555
Nd1 O8 2.519422 1_655
Nd1 O0 2.587310 1_555
Nd1 O6 2.587310 1_555
Nd1 O4 2.660485 1_555
Nd1 O9 2.660485 1_655
Mg0 O0 2.028361 1_465
Mg0 O6 2.028361 1_565
Mg0 O5 2.077339 1_566
Nb0 O5 1.929167 1_555
Nb0 O9 1.966323 1_555
Nb0 O4 1.966323 1_555
Nb0 O8 1.996853 1_555
Nb0 O3 1.996853 1_555
Nb1 O2 1.877907 1_555
Nb1 O1 2.053654 1_555
Nb1 O7 2.053654 1_555
Nb1 O0 2.133991 1_565
Nb1 O6 2.133991 1_565
