# generated using pymatgen
data_Na3Hf2Ga2P5SO24
_symmetry_space_group_name_H-M   'P 1'
_cell_length_a   8.73098058
_cell_length_b   8.71113739
_cell_length_c   22.54976435
_cell_angle_alpha   90.19092273
_cell_angle_beta   89.82409907
_cell_angle_gamma   120.16044428
_symmetry_Int_Tables_number   1
_chemical_formula_structural   Na3Hf2Ga2P5SO24
_chemical_formula_sum   'Na9 Hf6 Ga6 P15 S3 O72'
_cell_volume   1482.87018322
_cell_formula_units_Z   3
loop_
 _symmetry_equiv_pos_site_id
 _symmetry_equiv_pos_as_xyz
  1  'x, y, z'
loop_
 _atom_site_type_symbol
 _atom_site_label
 _atom_site_symmetry_multiplicity
 _atom_site_fract_x
 _atom_site_fract_y
 _atom_site_fract_z
 _atom_site_occupancy
  Na  Na0  1  0.00297301  0.36436450  0.75144358  1
  Na  Na1  1  0.66767525  0.96903706  0.58382464  1
  Na  Na2  1  0.03258635  0.33385833  0.08380510  1
  Na  Na3  1  0.00752157  0.99447043  0.50424504  1
  Na  Na4  1  0.00600842  0.99366057  0.00364718  1
  Na  Na5  1  0.65662574  0.32686691  0.83384521  1
  Na  Na6  1  0.67796994  0.33724765  0.33302251  1
  Na  Na7  1  0.34426858  0.67174550  0.16757769  1
  Na  Na8  1  0.33388195  0.66702397  0.66651450  1
  Hf  Hf0  1  0.98726673  0.99208770  0.35491870  1
  Hf  Hf1  1  0.00605480  0.00359809  0.85468657  1
  Hf  Hf2  1  0.66241507  0.33535031  0.68489405  1
  Hf  Hf3  1  0.66967142  0.33689099  0.18569044  1
  Hf  Hf4  1  0.66599978  0.32927467  0.98084818  1
  Hf  Hf5  1  0.67308016  0.33457309  0.48052070  1
  Ga  Ga0  1  0.00456814  0.99792529  0.64957801  1
  Ga  Ga1  1  0.98941472  0.99692000  0.14860003  1
  Ga  Ga2  1  0.32866998  0.67064918  0.01971978  1
  Ga  Ga3  1  0.32789019  0.67137854  0.51950059  1
  Ga  Ga4  1  0.33137760  0.66428815  0.31382427  1
  Ga  Ga5  1  0.33215159  0.67636291  0.81303768  1
  P  P0  1  0.70096172  0.71121944  0.24895456  1
  P  P1  1  0.00920593  0.29622879  0.24893178  1
  P  P2  1  0.28979739  0.29566722  0.74950606  1
  P  P3  1  0.00609617  0.71420295  0.74899907  1
  P  P4  1  0.70424860  0.99004228  0.74861192  1
  P  P5  1  0.97119422  0.33591944  0.58436011  1
  P  P6  1  0.36425636  0.03581644  0.58249473  1
  P  P7  1  0.66522133  0.63249350  0.58232910  1
  P  P8  1  0.96511915  0.63704676  0.08298986  1
  P  P9  1  0.66202549  0.03004338  0.08362695  1
  P  P10  1  0.36821310  0.33309751  0.08350047  1
  P  P11  1  0.05208205  0.38711274  0.91667433  1
  P  P12  1  0.33397789  0.94725292  0.91688913  1
  P  P13  1  0.60917430  0.94563980  0.41706825  1
  P  P14  1  0.05509696  0.66708075  0.41580523  1
  S  S0  1  0.28638222  0.99440929  0.24940326  1
  S  S1  1  0.61453732  0.66551818  0.91647642  1
  S  S2  1  0.33439658  0.38294111  0.41680587  1
  O  O0  1  0.20656508  0.02271759  0.30333418  1
  O  O1  1  0.81852049  0.79348950  0.30460056  1
  O  O2  1  0.98195705  0.17822594  0.30344044  1
  O  O3  1  0.20614055  0.18027474  0.80527445  1
  O  O4  1  0.97443118  0.79513372  0.80502902  1
  O  O5  1  0.82705024  0.02811237  0.80279613  1
  O  O6  1  0.78669985  0.96677997  0.69118256  1
  O  O7  1  0.16946527  0.21174777  0.69521024  1
  O  O8  1  0.03334258  0.82549773  0.69378417  1
  O  O9  1  0.78990397  0.82449311  0.19393786  1
  O  O10  1  0.03476808  0.21386559  0.19149218  1
  O  O11  1  0.18045717  0.97091496  0.19596331  1
  O  O12  1  0.88433820  0.36447043  0.64048481  1
  O  O13  1  0.48834643  0.12312962  0.63679416  1
  O  O14  1  0.63657287  0.51501034  0.63722126  1
  O  O15  1  0.87696649  0.51132613  0.13694967  1
  O  O16  1  0.63455620  0.12036776  0.13837418  1
  O  O17  1  0.48624299  0.36166109  0.13793472  1
  O  O18  1  0.45719898  0.30450838  0.02851521  1
  O  O19  1  0.84766682  0.54664852  0.02815613  1
  O  O20  1  0.70003131  0.15538324  0.02947786  1
  O  O21  1  0.45656254  0.15305312  0.52776032  1
  O  O22  1  0.69402198  0.54229744  0.52782919  1
  O  O23  1  0.84367803  0.30022205  0.53093477  1
  O  O24  1  0.53801085  0.69236819  0.97094589  1
  O  O25  1  0.15965135  0.46530430  0.97378378  1
  O  O26  1  0.30674030  0.83944857  0.97304584  1
  O  O27  1  0.53621000  0.84096362  0.47494341  1
  O  O28  1  0.30614791  0.45972714  0.47066251  1
  O  O29  1  0.16095578  0.69422740  0.47237883  1
  O  O30  1  0.13314690  0.63527860  0.35957719  1
  O  O31  1  0.50145048  0.86074936  0.36128577  1
  O  O32  1  0.36235428  0.48594216  0.36249431  1
  O  O33  1  0.13346685  0.49092002  0.85923988  1
  O  O34  1  0.36628353  0.87066817  0.86042289  1
  O  O35  1  0.51187404  0.63875892  0.86254308  1
  O  O36  1  0.03508474  0.83438021  0.41016570  1
  O  O37  1  0.80007323  0.97225214  0.41185079  1
  O  O38  1  0.17591297  0.20154433  0.41098010  1
  O  O39  1  0.02568727  0.19686740  0.91200709  1
  O  O40  1  0.16712336  0.96731621  0.91184350  1
  O  O41  1  0.79568065  0.82505599  0.91161350  1
  O  O42  1  0.97657927  0.16277021  0.59018254  1
  O  O43  1  0.18369253  0.02022102  0.59014841  1
  O  O44  1  0.83033180  0.81799115  0.58939330  1
  O  O45  1  0.98299503  0.81889125  0.09173747  1
  O  O46  1  0.83539559  0.02437774  0.08953389  1
  O  O47  1  0.18199162  0.16804386  0.09057382  1
  O  O48  1  0.69251046  0.16312389  0.74353653  1
  O  O49  1  0.47365849  0.31293071  0.74387337  1
  O  O50  1  0.84104502  0.52352894  0.74388053  1
  O  O51  1  0.68272583  0.52486645  0.24365803  1
  O  O52  1  0.83887951  0.31037263  0.24403670  1
  O  O53  1  0.46559775  0.15646010  0.24476249  1
  O  O54  1  0.63723905  0.50708067  0.92177415  1
  O  O55  1  0.86499827  0.36674551  0.92211361  1
  O  O56  1  0.49786781  0.13770653  0.92238508  1
  O  O57  1  0.63348477  0.13475960  0.42198203  1
  O  O58  1  0.49308829  0.36158259  0.42215238  1
  O  O59  1  0.86457561  0.50309622  0.42180619  1
  O  O60  1  0.34671146  0.49765456  0.07642361  1
  O  O61  1  0.14417561  0.64299091  0.07718971  1
  O  O62  1  0.49848170  0.84780609  0.07543899  1
  O  O63  1  0.35714543  0.85568537  0.57709297  1
  O  O64  1  0.50073488  0.65295180  0.57589978  1
  O  O65  1  0.15178461  0.50114270  0.57550325  1
  O  O66  1  0.30687313  0.83715821  0.25504822  1
  O  O67  1  0.51846619  0.69383259  0.25724094  1
  O  O68  1  0.17309451  0.48158970  0.25642840  1
  O  O69  1  0.30564924  0.47885207  0.75761574  1
  O  O70  1  0.16636198  0.68544602  0.75494799  1
  O  O71  1  0.52110195  0.82659669  0.75687294  1
loop_
_geom_bond_atom_site_label_1
_geom_bond_atom_site_label_2
_geom_bond_distance
_geom_bond_site_symmetry_2
Na0 O69 2.313149 1_555
Na0 O48 2.382962 1_455
Na0 O70 2.419558 1_555
Na0 O50 2.433734 1_455
Na0 O33 2.675663 1_555
Na0 O12 2.711133 1_455
Na0 O7 2.721741 1_555
Na0 O5 2.787616 1_455
Na1 O42 2.360033 1_565
Na1 O44 2.375656 1_555
Na1 O63 2.379125 1_555
Na1 O64 2.388201 1_555
Na1 O6 2.641469 1_555
Na1 O27 2.702350 1_555
Na1 O23 2.768374 1_565
Na1 O13 2.787421 1_565
Na2 O46 2.363435 1_455
Na2 O61 2.364022 1_555
Na2 O60 2.377410 1_555
Na2 O47 2.388996 1_555
Na2 O10 2.650829 1_555
Na2 O25 2.724444 1_554
Na2 O15 2.785775 1_455
Na2 O20 2.796700 1_455
Na3 O43 2.416043 1_565
Na3 O44 2.460691 1_455
Na3 O42 2.520628 1_465
Na3 O36 2.611080 1_555
Na3 O38 2.679524 1_565
Na3 O37 2.706857 1_455
Na4 O45 2.452419 1_455
Na4 O47 2.482740 1_565
Na4 O46 2.533934 1_465
Na4 O40 2.572997 1_554
Na4 O41 2.670082 1_454
Na4 O39 2.673920 1_564
Na5 O56 2.516468 1_555
Na5 O49 2.550742 1_555
Na5 O54 2.582391 1_555
Na5 O48 2.589521 1_555
Na5 O55 2.602863 1_555
Na5 O50 2.621897 1_555
Na6 O52 2.522912 1_555
Na6 O59 2.526940 1_555
Na6 O57 2.572291 1_555
Na6 O51 2.585916 1_555
Na6 O53 2.635690 1_555
Na6 O58 2.647864 1_555
Na7 O67 2.482028 1_555
Na7 O62 2.531992 1_555
Na7 O68 2.551050 1_555
Na7 O66 2.554066 1_555
Na7 O60 2.556730 1_555
Na7 O61 2.616848 1_555
Na8 O70 2.521399 1_555
Na8 O64 2.544013 1_555
Na8 O71 2.544452 1_555
Na8 O63 2.548010 1_555
Na8 O65 2.553311 1_555
Na8 O69 2.565389 1_555
Hf0 O1 1.971560 1_555
Hf0 O37 2.013465 1_555
Hf0 O2 2.016743 1_565
Hf0 O36 2.050522 1_655
Hf0 O0 2.136667 1_665
Hf0 O38 2.148894 1_665
Hf1 O3 1.989930 1_555
Hf1 O4 2.027892 1_445
Hf1 O40 2.049194 1_545
Hf1 O5 2.050768 1_455
Hf1 O39 2.057054 1_555
Hf1 O41 2.137477 1_445
Hf2 O14 2.005853 1_555
Hf2 O13 2.019250 1_555
Hf2 O49 2.046416 1_555
Hf2 O12 2.077833 1_555
Hf2 O50 2.077981 1_555
Hf2 O48 2.116617 1_555
Hf3 O15 2.007008 1_555
Hf3 O17 2.032349 1_555
Hf3 O16 2.048793 1_555
Hf3 O51 2.049902 1_555
Hf3 O52 2.079393 1_555
Hf3 O53 2.145879 1_555
Hf4 O20 2.012642 1_556
Hf4 O18 2.029698 1_556
Hf4 O56 2.052647 1_555
Hf4 O19 2.053868 1_556
Hf4 O55 2.073241 1_555
Hf4 O54 2.154822 1_555
Hf5 O23 2.015197 1_555
Hf5 O22 2.025266 1_555
Hf5 O21 2.050342 1_555
Hf5 O59 2.058271 1_555
Hf5 O57 2.067495 1_555
Hf5 O58 2.154914 1_555
Ga0 O8 1.924481 1_555
Ga0 O7 1.975522 1_565
Ga0 O43 1.990774 1_565
Ga0 O6 2.011046 1_455
Ga0 O44 2.053143 1_455
Ga0 O42 2.069561 1_465
Ga1 O9 1.925048 1_555
Ga1 O10 1.975348 1_665
Ga1 O45 1.988014 1_555
Ga1 O46 1.993963 1_565
Ga1 O47 2.059669 1_665
Ga1 O11 2.089600 1_655
Ga2 O26 1.897636 1_554
Ga2 O25 1.948065 1_554
Ga2 O62 1.964134 1_555
Ga2 O61 1.982802 1_555
Ga2 O60 2.045330 1_555
Ga2 O24 2.056132 1_554
Ga3 O29 1.896164 1_555
Ga3 O27 1.949043 1_555
Ga3 O65 1.966575 1_555
Ga3 O63 1.976262 1_555
Ga3 O64 2.043811 1_555
Ga3 O28 2.069842 1_555
Ga4 O30 1.917048 1_555
Ga4 O31 1.929566 1_555
Ga4 O68 1.976117 1_555
Ga4 O67 1.982279 1_555
Ga4 O32 2.031431 1_555
Ga4 O66 2.099745 1_555
Ga5 O34 1.891709 1_555
Ga5 O71 1.966488 1_555
Ga5 O33 1.971929 1_555
Ga5 O70 1.986156 1_555
Ga5 O69 2.040365 1_555
Ga5 O35 2.084574 1_555
O0 S0 1.480171 1_545
O1 P0 1.550616 1_555
O2 P1 1.544335 1_655
O3 P2 1.546095 1_555
O4 P3 1.535437 1_655
O5 P4 1.549353 1_545
O6 P4 1.541258 1_555
O7 P2 1.538647 1_555
O8 P3 1.523560 1_555
O9 P0 1.532348 1_555
O10 P1 1.547641 1_555
O11 S0 1.471178 1_555
O12 P5 1.555701 1_555
O13 P6 1.557392 1_555
O14 P7 1.546420 1_555
O15 P8 1.558354 1_555
O16 P9 1.543383 1_555
O17 P10 1.542289 1_555
O18 P10 1.545791 1_555
O19 P8 1.546112 1_555
O20 P9 1.560624 1_555
O21 P6 1.546320 1_555
O22 P7 1.543085 1_555
O23 P5 1.563794 1_555
O24 S1 1.469649 1_555
O25 P11 1.537278 1_555
O26 P12 1.524367 1_555
O27 P13 1.536108 1_555
O28 S2 1.463445 1_555
O29 P14 1.524215 1_555
O30 P14 1.526703 1_555
O31 P13 1.521807 1_555
O32 S2 1.466282 1_555
O33 P11 1.535086 1_555
O34 P12 1.525499 1_555
O35 S1 1.460046 1_555
O36 P14 1.558163 1_555
O37 P13 1.567261 1_555
O38 S2 1.493821 1_555
O39 P11 1.557527 1_555
O40 P12 1.556523 1_555
O41 S1 1.495357 1_555
O42 P5 1.538544 1_555
O43 P6 1.522126 1_555
O44 P7 1.540651 1_555
O45 P8 1.523887 1_555
O46 P9 1.545247 1_555
O47 P10 1.545040 1_555
O48 P4 1.566323 1_545
O49 P2 1.540127 1_555
O50 P3 1.563143 1_655
O51 P0 1.553698 1_555
O52 P1 1.556950 1_655
O53 S0 1.494156 1_545
O54 S1 1.494845 1_555
O55 P11 1.556375 1_655
O56 P12 1.558723 1_545
O57 P13 1.555304 1_545
O58 S2 1.493007 1_555
O59 P14 1.561445 1_655
O60 P10 1.545216 1_555
O61 P8 1.543134 1_455
O62 P9 1.521519 1_565
O63 P6 1.543306 1_565
O64 P7 1.540738 1_555
O65 P5 1.522211 1_455
O66 S0 1.473846 1_555
O67 P0 1.533795 1_555
O68 P1 1.536659 1_555
O69 P2 1.541199 1_555
O70 P3 1.546715 1_555
O71 P4 1.526775 1_555
