# generated using pymatgen
data_Na2LaInP2SO12
_symmetry_space_group_name_H-M   'P 1'
_cell_length_a   9.23567037
_cell_length_b   9.25570257
_cell_length_c   24.04864834
_cell_angle_alpha   90.82198009
_cell_angle_beta   89.21317727
_cell_angle_gamma   119.90005925
_symmetry_Int_Tables_number   1
_chemical_formula_structural   Na2LaInP2SO12
_chemical_formula_sum   'Na12 La6 In6 P12 S6 O72'
_cell_volume   1781.87974503
_cell_formula_units_Z   6
loop_
 _symmetry_equiv_pos_site_id
 _symmetry_equiv_pos_as_xyz
  1  'x, y, z'
loop_
 _atom_site_type_symbol
 _atom_site_label
 _atom_site_symmetry_multiplicity
 _atom_site_fract_x
 _atom_site_fract_y
 _atom_site_fract_z
 _atom_site_occupancy
  Na  Na0  1  0.99209884  0.62889216  0.25626272  1
  Na  Na1  1  0.37694331  0.01447010  0.74778726  1
  Na  Na2  1  0.66254052  0.95729320  0.58911648  1
  Na  Na3  1  0.04217960  0.33955619  0.09008362  1
  Na  Na4  1  0.32346414  0.29492532  0.92011520  1
  Na  Na5  1  0.70364379  0.67513601  0.41753096  1
  Na  Na6  1  0.02392913  0.99320957  0.50015331  1
  Na  Na7  1  0.01314613  0.97960488  0.99978538  1
  Na  Na8  1  0.68786730  0.32232807  0.83106775  1
  Na  Na9  1  0.67213840  0.31108731  0.33465523  1
  Na  Na10  1  0.35508918  0.65591008  0.17168365  1
  Na  Na11  1  0.34408877  0.64439382  0.66626613  1
  La  La0  1  0.98932499  0.00549105  0.84306838  1
  La  La1  1  0.00136493  0.99772116  0.15799840  1
  La  La2  1  0.66868820  0.32954799  0.98452249  1
  La  La3  1  0.32900787  0.68072280  0.01936280  1
  La  La4  1  0.32269604  0.67098068  0.51524744  1
  La  La5  1  0.33506675  0.66317277  0.81134643  1
  In  In0  1  0.98754153  0.00346542  0.34565810  1
  In  In1  1  0.00309547  0.99804312  0.64691742  1
  In  In2  1  0.65910054  0.33991718  0.67874081  1
  In  In3  1  0.65980522  0.34439986  0.18695835  1
  In  In4  1  0.66722226  0.33254059  0.48356247  1
  In  In5  1  0.33230032  0.66619304  0.32244141  1
  P  P0  1  0.68799374  0.69081838  0.25600048  1
  P  P1  1  0.00047930  0.31311901  0.25197113  1
  P  P2  1  0.30331218  0.29220962  0.74370936  1
  P  P3  1  0.69975659  0.01402267  0.73842475  1
  P  P4  1  0.37452792  0.05136756  0.58511072  1
  P  P5  1  0.67853875  0.63397694  0.58237163  1
  P  P6  1  0.96206091  0.62640578  0.09032188  1
  P  P7  1  0.36624224  0.33570596  0.08620546  1
  P  P8  1  0.03314371  0.36149508  0.91798534  1
  P  P9  1  0.33003836  0.97781128  0.91171991  1
  P  P10  1  0.63665790  0.97202775  0.41609422  1
  P  P11  1  0.02171158  0.66859231  0.41101737  1
  S  S0  1  0.30763200  0.99812678  0.25553285  1
  S  S1  1  0.98965778  0.69358799  0.74264568  1
  S  S2  1  0.94925559  0.32150015  0.58555676  1
  S  S3  1  0.66823354  0.04147407  0.09099215  1
  S  S4  1  0.63858269  0.66610993  0.91698013  1
  S  S5  1  0.33313471  0.35929299  0.41346020  1
  O  O0  1  0.22056872  0.02498395  0.30360486  1
  O  O1  1  0.80636813  0.77438873  0.30678367  1
  O  O2  1  0.98095950  0.19563424  0.30035175  1
  O  O3  1  0.23347757  0.20174663  0.79993894  1
  O  O4  1  0.96829239  0.76198314  0.79595087  1
  O  O5  1  0.79239594  0.02552328  0.79256413  1
  O  O6  1  0.78940712  0.99287981  0.68645328  1
  O  O7  1  0.18725300  0.18646533  0.69604230  1
  O  O8  1  0.00714626  0.80332660  0.69574640  1
  O  O9  1  0.76640680  0.79461338  0.20334897  1
  O  O10  1  0.02922366  0.24767234  0.19590181  1
  O  O11  1  0.20821653  0.96647726  0.20433759  1
  O  O12  1  0.86823083  0.34102742  0.63581623  1
  O  O13  1  0.47561587  0.12445677  0.63885816  1
  O  O14  1  0.66577978  0.53169345  0.63342781  1
  O  O15  1  0.87161583  0.52528163  0.14338659  1
  O  O16  1  0.65976946  0.13737251  0.13974584  1
  O  O17  1  0.47092148  0.33324218  0.13572080  1
  O  O18  1  0.44073263  0.32484709  0.02931645  1
  O  O19  1  0.86867989  0.53766999  0.03691897  1
  O  O20  1  0.67518773  0.12384701  0.03824081  1
  O  O21  1  0.46355398  0.15704503  0.53305250  1
  O  O22  1  0.69540553  0.55371848  0.52669641  1
  O  O23  1  0.85198786  0.30412998  0.53441014  1
  O  O24  1  0.55219077  0.67502896  0.96793167  1
  O  O25  1  0.12558108  0.44689169  0.97284922  1
  O  O26  1  0.33207350  0.88075819  0.96346588  1
  O  O27  1  0.56603924  0.86573185  0.46980496  1
  O  O28  1  0.30287468  0.43055325  0.46501140  1
  O  O29  1  0.12856686  0.69223891  0.46278723  1
  O  O30  1  0.10378061  0.64222791  0.35793939  1
  O  O31  1  0.52072578  0.87914471  0.36633582  1
  O  O32  1  0.36193718  0.47176242  0.36559835  1
  O  O33  1  0.13792044  0.46561080  0.86740728  1
  O  O34  1  0.33719076  0.88964250  0.85706017  1
  O  O35  1  0.54387630  0.66280077  0.86686092  1
  O  O36  1  0.99909472  0.82479112  0.40523497  1
  O  O37  1  0.81051617  0.98335918  0.40741923  1
  O  O38  1  0.18870295  0.18983880  0.40450024  1
  O  O39  1  0.02691173  0.19077709  0.91629438  1
  O  O40  1  0.17130630  0.99466122  0.91454084  1
  O  O41  1  0.80885350  0.81050819  0.91600496  1
  O  O42  1  0.95679599  0.16347535  0.58795525  1
  O  O43  1  0.19667069  0.02973412  0.58850511  1
  O  O44  1  0.83549088  0.81503470  0.58656946  1
  O  O45  1  0.98643850  0.80377820  0.09083063  1
  O  O46  1  0.82611564  0.03525705  0.09212931  1
  O  O47  1  0.18443282  0.18313819  0.08897643  1
  O  O48  1  0.68262280  0.17314831  0.73684557  1
  O  O49  1  0.47692376  0.30354818  0.73963362  1
  O  O50  1  0.84509573  0.52334052  0.73666396  1
  O  O51  1  0.68195980  0.51839911  0.25035007  1
  O  O52  1  0.84039466  0.33218668  0.24899899  1
  O  O53  1  0.47692782  0.14717270  0.24928742  1
  O  O54  1  0.64161635  0.50723509  0.91544694  1
  O  O55  1  0.85743099  0.33955847  0.91474396  1
  O  O56  1  0.48268546  0.15783694  0.91210726  1
  O  O57  1  0.65587279  0.14820863  0.42275144  1
  O  O58  1  0.49198863  0.35360899  0.41899948  1
  O  O59  1  0.84107206  0.51291619  0.41884994  1
  O  O60  1  0.34946284  0.49501817  0.08924101  1
  O  O61  1  0.13343844  0.63165471  0.09018560  1
  O  O62  1  0.52148700  0.87156963  0.09213696  1
  O  O63  1  0.36431195  0.87731662  0.57995712  1
  O  O64  1  0.52281359  0.65860541  0.58097731  1
  O  O65  1  0.12068423  0.46706208  0.58243887  1
  O  O66  1  0.31977134  0.84452239  0.26253376  1
  O  O67  1  0.51171822  0.66792676  0.26415549  1
  O  O68  1  0.15262558  0.49342737  0.26134767  1
  O  O69  1  0.32357984  0.46844045  0.74317057  1
  O  O70  1  0.14861456  0.68729001  0.74357677  1
  O  O71  1  0.51821527  0.86068858  0.74053959  1
loop_
_geom_bond_atom_site_label_1
_geom_bond_atom_site_label_2
_geom_bond_distance
_geom_bond_site_symmetry_2
Na0 O68 2.376486 1_655
Na0 O52 2.385827 1_555
Na0 O51 2.521329 1_555
Na0 O30 2.644192 1_655
Na0 O66 2.673318 1_655
Na0 O1 2.903605 1_555
Na0 O15 2.910472 1_555
Na0 O11 3.021928 1_655
Na1 O71 2.365757 1_545
Na1 O49 2.365788 1_555
Na1 O48 2.460360 1_555
Na1 O70 2.694081 1_545
Na1 O13 2.795558 1_555
Na1 O34 2.830735 1_545
Na1 O3 2.918039 1_555
Na2 O64 2.404382 1_555
Na2 O42 2.420143 1_565
Na2 O63 2.482366 1_555
Na2 O44 2.526003 1_555
Na2 O6 2.574731 1_555
Na3 O47 2.391035 1_555
Na3 O61 2.397455 1_555
Na3 O60 2.460274 1_555
Na3 O46 2.512978 1_455
Na3 O10 2.676899 1_555
Na3 O25 2.964237 1_554
Na4 O56 2.378007 1_555
Na4 O39 2.410646 1_555
Na4 O40 2.411905 1_545
Na4 O54 2.597819 1_555
Na4 O18 2.811500 1_556
Na5 O36 2.381846 1_555
Na5 O59 2.401830 1_555
Na5 O37 2.525460 1_555
Na5 O58 2.622994 1_555
Na5 O1 2.822974 1_555
Na5 O22 2.855651 1_555
Na5 O27 2.904335 1_555
Na5 O32 3.030005 1_555
Na6 O43 2.590144 1_565
Na6 O44 2.684204 1_455
Na6 O36 2.692382 1_455
Na6 O42 2.858183 1_465
Na6 O38 2.860476 1_565
Na6 O37 2.966885 1_455
Na7 O40 2.465499 1_555
Na7 O41 2.671851 1_455
Na7 O45 2.681500 1_456
Na7 O47 2.767354 1_566
Na7 O39 2.779516 1_565
Na7 O46 2.988258 1_466
Na8 O55 2.521030 1_555
Na8 O56 2.610450 1_555
Na8 O48 2.624843 1_555
Na8 O54 2.799032 1_555
Na8 O50 2.839271 1_555
Na8 O49 2.903413 1_555
Na9 O52 2.513416 1_555
Na9 O57 2.576984 1_555
Na9 O53 2.655599 1_555
Na9 O59 2.663851 1_555
Na9 O58 2.752209 1_555
Na9 O51 2.780931 1_555
Na10 O60 2.447883 1_555
Na10 O67 2.640300 1_555
Na10 O62 2.641237 1_555
Na10 O68 2.754358 1_555
Na10 O61 2.778786 1_555
Na10 O66 2.892431 1_555
Na11 O69 2.424425 1_555
Na11 O71 2.559496 1_555
Na11 O64 2.578207 1_555
Na11 O70 2.734009 1_555
Na11 O65 2.767330 1_555
Na11 O63 2.950781 1_555
La0 O5 2.284906 1_555
La0 O3 2.316512 1_655
La0 O39 2.345049 1_655
La0 O4 2.428527 1_545
La0 O40 2.457934 1_645
La0 O41 2.474528 1_545
La1 O9 2.314983 1_455
La1 O45 2.350892 1_455
La1 O11 2.365098 1_555
La1 O10 2.366798 1_565
La1 O47 2.381366 1_565
La1 O46 2.428264 1_465
La2 O19 2.270923 1_556
La2 O18 2.332904 1_556
La2 O20 2.341792 1_556
La2 O55 2.371975 1_555
La2 O56 2.406350 1_555
La2 O54 2.454899 1_555
La3 O26 2.292124 1_554
La3 O25 2.323680 1_554
La3 O61 2.342949 1_555
La3 O24 2.411993 1_554
La3 O62 2.491868 1_555
La3 O60 2.495873 1_555
La4 O29 2.294740 1_555
La4 O63 2.327240 1_555
La4 O27 2.333376 1_555
La4 O28 2.442929 1_555
La4 O65 2.479557 1_555
La4 O64 2.494832 1_555
La5 O33 2.271669 1_555
La5 O34 2.344404 1_555
La5 O35 2.361975 1_555
La5 O69 2.382705 1_555
La5 O71 2.455626 1_555
La5 O70 2.478314 1_555
In0 O2 2.125951 1_555
In0 O37 2.133452 1_545
In0 O1 2.149041 1_545
In0 O36 2.246587 1_545
In0 O0 2.283178 1_655
In0 O38 2.288401 1_655
In1 O7 2.090160 1_565
In1 O6 2.157992 1_455
In1 O43 2.162308 1_565
In1 O44 2.179136 1_455
In1 O8 2.181175 1_555
In1 O42 2.295588 1_465
In2 O14 2.070382 1_555
In2 O13 2.095022 1_555
In2 O49 2.114345 1_555
In2 O12 2.173015 1_555
In2 O48 2.187894 1_555
In2 O50 2.205396 1_555
In3 O17 2.109007 1_555
In3 O15 2.111046 1_555
In3 O51 2.137564 1_555
In3 O16 2.213107 1_555
In3 O52 2.298205 1_555
In3 O53 2.316664 1_555
In4 O21 2.130962 1_555
In4 O22 2.179418 1_555
In4 O57 2.194276 1_555
In4 O23 2.233887 1_555
In4 O59 2.262874 1_555
In4 O58 2.336731 1_555
In5 O31 2.144461 1_555
In5 O67 2.149687 1_555
In5 O30 2.172910 1_555
In5 O68 2.196212 1_555
In5 O32 2.223308 1_555
In5 O66 2.253127 1_555
O0 S0 1.486722 1_545
O1 P0 1.565730 1_555
O2 P1 1.550403 1_655
O3 P2 1.554270 1_555
O4 S1 1.475569 1_555
O5 P3 1.540885 1_555
O6 P3 1.553081 1_565
O7 P2 1.541611 1_555
O8 S1 1.481261 1_455
O9 P0 1.538422 1_555
O10 P1 1.543578 1_555
O11 S0 1.482291 1_555
O12 S2 1.468764 1_555
O13 P4 1.542191 1_555
O14 P5 1.528354 1_555
O15 P6 1.558155 1_555
O16 S3 1.485066 1_555
O17 P7 1.551617 1_555
O18 P7 1.547337 1_555
O19 P6 1.536770 1_555
O20 S3 1.473582 1_555
O21 P4 1.550856 1_555
O22 P5 1.565210 1_555
O23 S2 1.492129 1_555
O24 S4 1.476737 1_555
O25 P8 1.556493 1_555
O26 P9 1.550941 1_555
O27 P10 1.560554 1_555
O28 S5 1.483534 1_555
O29 P11 1.543513 1_555
O30 P11 1.553151 1_555
O31 P10 1.550927 1_555
O32 S5 1.493028 1_555
O33 P8 1.554390 1_555
O34 P9 1.555248 1_555
O35 S4 1.489943 1_555
O36 P11 1.568676 1_655
O37 P10 1.567265 1_555
O38 S5 1.482595 1_555
O39 P8 1.552185 1_555
O40 P9 1.550155 1_555
O41 S4 1.471142 1_555
O42 S2 1.500515 1_555
O43 P4 1.553662 1_555
O44 P5 1.580217 1_555
O45 P6 1.541764 1_555
O46 S3 1.488303 1_555
O47 P7 1.566419 1_555
O48 P3 1.558784 1_555
O49 P2 1.555567 1_555
O50 S1 1.479043 1_555
O51 P0 1.572789 1_555
O52 P1 1.576576 1_655
O53 S0 1.489769 1_545
O54 S4 1.484588 1_555
O55 P8 1.534725 1_655
O56 P9 1.556269 1_545
O57 P10 1.555961 1_545
O58 S5 1.501826 1_555
O59 P11 1.580351 1_655
O60 P7 1.558220 1_555
O61 P6 1.559097 1_455
O62 S3 1.478499 1_565
O63 P4 1.569243 1_565
O64 P5 1.565242 1_555
O65 S2 1.483403 1_455
O66 S0 1.492814 1_555
O67 P0 1.543482 1_555
O68 P1 1.571766 1_555
O69 P2 1.546597 1_555
O70 S1 1.498464 1_455
O71 P3 1.566946 1_565
