# generated using pymatgen
data_MgV2(AuS2)2
_symmetry_space_group_name_H-M   'P 1'
_cell_length_a   3.24314200
_cell_length_b   3.24314169
_cell_length_c   16.93583700
_cell_angle_alpha   90.00000000
_cell_angle_beta   90.00000000
_cell_angle_gamma   120.00000318
_symmetry_Int_Tables_number   1
_chemical_formula_structural   MgV2(AuS2)2
_chemical_formula_sum   'Mg1 V2 Au2 S4'
_cell_volume   154.26562756
_cell_formula_units_Z   1
loop_
 _symmetry_equiv_pos_site_id
 _symmetry_equiv_pos_as_xyz
  1  'x, y, z'
loop_
 _atom_site_type_symbol
 _atom_site_label
 _atom_site_symmetry_multiplicity
 _atom_site_fract_x
 _atom_site_fract_y
 _atom_site_fract_z
 _atom_site_occupancy
  Mg  Mg0  1  0.33333300  0.66666700  0.42403400  1
  V  V0  1  0.33333300  0.66666700  0.21688000  1
  V  V1  1  0.66666700  0.33333300  0.76999600  1
  Au  Au0  1  0.00000000  0.00000000  0.99284100  1
  Au  Au1  1  0.00000000  0.00000000  0.53719200  1
  S  S0  1  0.00000000  0.00000000  0.30405700  1
  S  S1  1  0.00000000  0.00000000  0.85370000  1
  S  S2  1  0.00000000  0.00000000  0.13253600  1
  S  S3  1  0.00000000  0.00000000  0.68543100  1
loop_
_geom_bond_atom_site_label_1
_geom_bond_atom_site_label_2
_geom_bond_distance
_geom_bond_site_symmetry_2
Mg0 S0 2.763086 1_565
Mg0 S0 2.763088 1_555
Mg0 S0 2.763088 1_665
Au0 S1 2.356469 1_555
Au0 S2 2.365852 1_556
Au1 S3 2.510552 1_555
Au1 Mg0 2.679304 1_545
Au1 Mg0 2.679306 1_555
Au1 Mg0 2.679306 1_445
S0 V0 2.384488 1_545
S0 V0 2.384491 1_555
S0 V0 2.384491 1_445
S1 V1 2.348524 1_455
S1 V1 2.348526 1_445
S1 V1 2.348526 1_555
S2 V0 2.355082 1_545
S2 V0 2.355084 1_555
S2 V0 2.355085 1_445
S3 V1 2.357354 1_455
S3 V1 2.357356 1_445
S3 V1 2.357357 1_555
