# generated using pymatgen
data_MgZn2(FeO2)4
_symmetry_space_group_name_H-M   'P 1'
_cell_length_a   3.02936424
_cell_length_b   8.09583737
_cell_length_c   7.95311869
_cell_angle_alpha   78.20963406
_cell_angle_beta   79.03727592
_cell_angle_gamma   79.18005033
_symmetry_Int_Tables_number   1
_chemical_formula_structural   MgZn2(FeO2)4
_chemical_formula_sum   'Mg1 Zn2 Fe4 O8'
_cell_volume   185.18995738
_cell_formula_units_Z   1
loop_
 _symmetry_equiv_pos_site_id
 _symmetry_equiv_pos_as_xyz
  1  'x, y, z'
loop_
 _atom_site_type_symbol
 _atom_site_label
 _atom_site_symmetry_multiplicity
 _atom_site_fract_x
 _atom_site_fract_y
 _atom_site_fract_z
 _atom_site_occupancy
  Mg  Mg0  1  0.59113377  0.48867039  0.51604632  1
  Zn  Zn0  1  0.19950205  0.17306106  0.25859748  1
  Zn  Zn1  1  0.62805980  0.80431068  0.77403468  1
  Fe  Fe0  1  0.57006122  0.14696989  0.59738443  1
  Fe  Fe1  1  0.23588254  0.52719375  0.17931628  1
  Fe  Fe2  1  0.93777260  0.45034198  0.85279988  1
  Fe  Fe3  1  0.30992569  0.83036292  0.43518093  1
  O  O0  1  0.95644407  0.64203407  0.59757533  1
  O  O1  1  0.53228415  0.33561651  0.75987468  1
  O  O2  1  0.62243849  0.64187407  0.27232820  1
  O  O3  1  0.19161460  0.33543471  0.43460499  1
  O  O4  1  0.07994789  0.96601206  0.68773763  1
  O  O5  1  0.86795560  0.35995971  0.10719958  1
  O  O6  1  0.72800232  0.01139436  0.34470869  1
  O  O7  1  0.32975322  0.61776683  0.92489690  1
loop_
_geom_bond_atom_site_label_1
_geom_bond_atom_site_label_2
_geom_bond_distance
_geom_bond_site_symmetry_2
Mg0 O2 2.072733 1_555
Mg0 O1 2.072950 1_555
Mg0 O3 2.073779 1_655
Mg0 O0 2.074733 1_555
Mg0 O3 2.147928 1_555
Mg0 O0 2.148807 1_455
Fe0 O4 2.047157 1_645
Fe0 O3 2.102116 1_555
Fe0 O1 2.168028 1_555
Fe0 O4 2.201746 1_545
Fe0 O6 2.410497 1_555
Fe0 O3 2.625573 1_655
Fe1 O2 1.949053 1_555
Fe1 O7 1.991458 1_554
Fe1 O2 1.993160 1_455
Fe1 O5 2.128697 1_455
Fe1 O5 2.180530 1_555
Fe1 O3 2.288421 1_555
Fe2 O1 1.949018 1_655
Fe2 O5 1.991007 1_556
Fe2 O1 1.992963 1_555
Fe2 O7 2.130077 1_555
Fe2 O7 2.181038 1_655
Fe2 O0 2.287747 1_555
Fe3 O6 2.046729 1_565
Fe3 O0 2.102765 1_455
Fe3 O2 2.168251 1_555
Fe3 O6 2.203372 1_465
Fe3 O4 2.409955 1_555
Fe3 O0 2.620080 1_555
O0 Zn1 2.101649 1_555
O3 Zn0 2.101322 1_555
O4 Zn1 2.001775 1_455
O4 Zn1 2.047438 1_555
O5 Zn0 1.973047 1_655
O6 Zn0 2.002325 1_555
O6 Zn0 2.045909 1_655
O7 Zn1 1.973959 1_555
