# generated using pymatgen
data_LiFe2P5O16
_symmetry_space_group_name_H-M   'P 1'
_cell_length_a   6.79328600
_cell_length_b   5.07744600
_cell_length_c   18.80484303
_cell_angle_alpha   89.98101500
_cell_angle_beta   90.00000000
_cell_angle_gamma   90.00000000
_symmetry_Int_Tables_number   1
_chemical_formula_structural   LiFe2P5O16
_chemical_formula_sum   'Li2 Fe4 P10 O32'
_cell_volume   648.62681805
_cell_formula_units_Z   2
loop_
 _symmetry_equiv_pos_site_id
 _symmetry_equiv_pos_as_xyz
  1  'x, y, z'
loop_
 _atom_site_type_symbol
 _atom_site_label
 _atom_site_symmetry_multiplicity
 _atom_site_fract_x
 _atom_site_fract_y
 _atom_site_fract_z
 _atom_site_occupancy
  Li  Li0  1  0.38078600  0.27190500  0.47204500  1
  Li  Li1  1  0.61921400  0.27190500  0.97204500  1
  Fe  Fe0  1  0.17762400  0.26507500  0.90728100  1
  Fe  Fe1  1  0.17424500  0.73385400  0.59327000  1
  Fe  Fe2  1  0.82237600  0.26507500  0.40728100  1
  Fe  Fe3  1  0.82575500  0.73385400  0.09327000  1
  P  P0  1  0.86937100  0.22496100  0.57753300  1
  P  P1  1  0.46496900  0.25571600  0.63036900  1
  P  P2  1  0.25877700  0.99244500  0.75045200  1
  P  P3  1  0.47645000  0.75021500  0.86933700  1
  P  P4  1  0.13062900  0.22496100  0.07753300  1
  P  P5  1  0.53503100  0.25571600  0.13036900  1
  P  P6  1  0.74122300  0.99244500  0.25045200  1
  P  P7  1  0.87641900  0.76982200  0.92026600  1
  P  P8  1  0.12358100  0.76982200  0.42026600  1
  P  P9  1  0.52355000  0.75021500  0.36933700  1
  O  O0  1  0.92777900  0.06178400  0.93082100  1
  O  O1  1  0.39848100  0.96612200  0.91687700  1
  O  O2  1  0.94494000  0.94383000  0.57024500  1
  O  O3  1  0.77742400  0.64364400  0.98568900  1
  O  O4  1  0.22862900  0.32593800  0.00933100  1
  O  O5  1  0.63197400  0.07207500  0.07710900  1
  O  O6  1  0.05506000  0.94383000  0.07024500  1
  O  O7  1  0.57241200  0.54500400  0.11739600  1
  O  O8  1  0.97910100  0.41258200  0.10911500  1
  O  O9  1  0.30456100  0.20726900  0.13668900  1
  O  O10  1  0.85921500  0.84390600  0.19658700  1
  O  O11  1  0.59017400  0.18674200  0.21124000  1
  O  O12  1  0.59583700  0.78537900  0.28880800  1
  O  O13  1  0.84847800  0.15110000  0.30564800  1
  O  O14  1  0.29182800  0.77881700  0.35796200  1
  O  O15  1  0.95894800  0.60308700  0.38884700  1
  O  O16  1  0.55887400  0.46734400  0.39169100  1
  O  O17  1  0.60151900  0.96612200  0.41687700  1
  O  O18  1  0.07222100  0.06178400  0.43082100  1
  O  O19  1  0.04105200  0.60308700  0.88884700  1
  O  O20  1  0.77137100  0.32593800  0.50933100  1
  O  O21  1  0.36802600  0.07207500  0.57710900  1
  O  O22  1  0.22257600  0.64364400  0.48568900  1
  O  O23  1  0.42758800  0.54500400  0.61739600  1
  O  O24  1  0.02089900  0.41258200  0.60911500  1
  O  O25  1  0.69543900  0.20726900  0.63668900  1
  O  O26  1  0.14078500  0.84390600  0.69658700  1
  O  O27  1  0.40982600  0.18674200  0.71124000  1
  O  O28  1  0.40416300  0.78537900  0.78880800  1
  O  O29  1  0.15152200  0.15110000  0.80564800  1
  O  O30  1  0.70817200  0.77881700  0.85796200  1
  O  O31  1  0.44112600  0.46734400  0.89169100  1
loop_
_geom_bond_atom_site_label_1
_geom_bond_atom_site_label_2
_geom_bond_distance
_geom_bond_site_symmetry_2
Li0 O16 2.174995 1_555
Li0 O22 2.187206 1_555
Li0 O21 2.222406 1_555
Li0 O17 2.395075 1_545
Li0 O18 2.476622 1_555
Li1 O31 2.174995 1_555
Li1 O3 2.187206 1_555
Li1 O5 2.222406 1_556
Li1 O1 2.395075 1_545
Li1 O0 2.476622 1_555
Fe0 O4 1.974498 1_556
Fe0 O19 1.981415 1_555
Fe0 O29 2.004926 1_555
Fe0 O0 2.035143 1_455
Fe0 O31 2.084408 1_555
Fe0 O1 2.141843 1_545
Fe1 O2 1.936585 1_455
Fe1 O24 1.958212 1_555
Fe1 O23 2.021617 1_555
Fe1 O26 2.034534 1_555
Fe1 O22 2.100218 1_555
Fe1 O21 2.184963 1_565
Fe2 O20 1.974498 1_555
Fe2 O15 1.981415 1_555
Fe2 O13 2.004926 1_555
Fe2 O18 2.035143 1_655
Fe2 O16 2.084408 1_555
Fe2 O17 2.141843 1_545
Fe3 O6 1.936585 1_655
Fe3 O8 1.958212 1_555
Fe3 O7 2.021617 1_555
Fe3 O10 2.034534 1_555
Fe3 O3 2.100218 1_554
Fe3 O5 2.184963 1_565
O0 P7 1.535870 1_545
O1 P3 1.510688 1_555
O2 P0 1.523155 1_565
O3 P7 1.541345 1_555
O4 P4 1.533141 1_555
O5 P5 1.518828 1_555
O6 P4 1.523155 1_565
O7 P5 1.510386 1_555
O8 P4 1.523223 1_655
O9 P5 1.589299 1_555
O9 P4 1.625296 1_555
O10 P6 1.495935 1_555
O11 P6 1.602937 1_545
O11 P5 1.604791 1_555
O12 P9 1.601891 1_555
O12 P6 1.612626 1_555
O13 P6 1.502567 1_545
O14 P9 1.595238 1_555
O14 P8 1.637398 1_555
O15 P8 1.522149 1_655
O16 P9 1.515499 1_555
O17 P9 1.510688 1_555
O18 P8 1.535870 1_545
O19 P7 1.522149 1_455
O20 P0 1.533141 1_555
O21 P1 1.518828 1_555
O22 P8 1.541345 1_555
O23 P1 1.510386 1_555
O24 P0 1.523223 1_455
O25 P1 1.589299 1_555
O25 P0 1.625296 1_555
O26 P2 1.495935 1_555
O27 P2 1.602937 1_545
O27 P1 1.604791 1_555
O28 P3 1.601891 1_555
O28 P2 1.612626 1_555
O29 P2 1.502567 1_545
O30 P3 1.595238 1_555
O30 P7 1.637398 1_555
O31 P3 1.515499 1_555
