# generated using pymatgen
data_Dy2MgV2O7
_symmetry_space_group_name_H-M   'P 1'
_cell_length_a   5.92742885
_cell_length_b   5.92742648
_cell_length_c   5.47046950
_cell_angle_alpha   83.02117353
_cell_angle_beta   96.97862054
_cell_angle_gamma   66.02488302
_symmetry_Int_Tables_number   1
_chemical_formula_structural   Dy2MgV2O7
_chemical_formula_sum   'Dy2 Mg1 V2 O7'
_cell_volume   171.19611207
_cell_formula_units_Z   1
loop_
 _symmetry_equiv_pos_site_id
 _symmetry_equiv_pos_as_xyz
  1  'x, y, z'
loop_
 _atom_site_type_symbol
 _atom_site_label
 _atom_site_symmetry_multiplicity
 _atom_site_fract_x
 _atom_site_fract_y
 _atom_site_fract_z
 _atom_site_occupancy
  Dy  Dy0  1  0.33136400  0.33136600  0.49999900  1
  Dy  Dy1  1  0.68479900  0.68479900  0.50000000  1
  Mg  Mg0  1  0.21109100  0.21109000  0.00000000  1
  V  V0  1  0.25922700  0.73980600  0.88499900  1
  V  V1  1  0.73980600  0.25922700  0.11500100  1
  O  O0  1  0.07146800  0.54900300  0.74741800  1
  O  O1  1  0.39524100  0.96671600  0.72762100  1
  O  O2  1  0.45098600  0.56580000  0.22829200  1
  O  O3  1  0.56580000  0.45098500  0.77170700  1
  O  O4  1  0.01408300  0.01408200  0.00000200  1
  O  O5  1  0.54900200  0.07146900  0.25258100  1
  O  O6  1  0.96671700  0.39524000  0.27237900  1
loop_
_geom_bond_atom_site_label_1
_geom_bond_atom_site_label_2
_geom_bond_distance
_geom_bond_site_symmetry_2
Dy0 O6 2.220804 1_455
Dy0 O1 2.220814 1_545
Dy0 O0 2.277112 1_555
Dy0 O5 2.277114 1_555
Dy0 O2 2.279892 1_555
Dy0 O3 2.279897 1_555
Dy1 O3 2.275126 1_555
Dy1 O2 2.275131 1_555
Dy1 O0 2.283652 1_655
Dy1 O5 2.283654 1_565
Dy1 O1 2.445984 1_555
Dy1 O6 2.445990 1_555
Mg0 O4 1.958440 1_555
Mg0 O5 2.075665 1_555
Mg0 O0 2.075672 1_554
Mg0 O6 2.268177 1_455
Mg0 O1 2.268178 1_544
O0 V0 2.027406 1_555
O1 V0 1.992158 1_555
O2 V0 1.985047 1_554
O2 V1 2.149503 1_555
O3 V1 1.985049 1_556
O3 V0 2.149509 1_555
O4 V1 1.923830 1_455
O4 V0 1.923835 1_544
O5 V1 2.027402 1_555
O6 V1 1.992162 1_555
