# generated using pymatgen
data_Si5Ir3
_symmetry_space_group_name_H-M   'P 1'
_cell_length_a   6.43285516
_cell_length_b   10.43445690
_cell_length_c   14.24053822
_cell_angle_alpha   90.00000000
_cell_angle_beta   90.00000000
_cell_angle_gamma   96.98420830
_symmetry_Int_Tables_number   1
_chemical_formula_structural   Si5Ir3
_chemical_formula_sum   'Si40 Ir24'
_cell_volume   948.77977091
_cell_formula_units_Z   8
loop_
 _symmetry_equiv_pos_site_id
 _symmetry_equiv_pos_as_xyz
  1  'x, y, z'
loop_
 _atom_site_type_symbol
 _atom_site_label
 _atom_site_symmetry_multiplicity
 _atom_site_fract_x
 _atom_site_fract_y
 _atom_site_fract_z
 _atom_site_occupancy
  Si  Si0  1  0.14031700  0.69287195  0.71985075  1
  Si  Si1  1  0.35968300  0.80712805  0.21985075  1
  Si  Si2  1  0.85968300  0.30712805  0.28014925  1
  Si  Si3  1  0.64031700  0.19287195  0.78014925  1
  Si  Si4  1  0.97313151  0.35566936  0.74806127  1
  Si  Si5  1  0.52686849  0.14433064  0.24806127  1
  Si  Si6  1  0.02686849  0.64433064  0.25193873  1
  Si  Si7  1  0.47313151  0.85566936  0.75193873  1
  Si  Si8  1  0.94617556  0.20521029  0.51215216  1
  Si  Si9  1  0.55382444  0.29478971  0.01215216  1
  Si  Si10  1  0.05382444  0.79478971  0.48784784  1
  Si  Si11  1  0.44617556  0.70521029  0.98784784  1
  Si  Si12  1  0.45686922  0.40851508  0.85046879  1
  Si  Si13  1  0.04313078  0.09148492  0.35046879  1
  Si  Si14  1  0.54313078  0.59148492  0.14953121  1
  Si  Si15  1  0.33707848  0.66502908  0.55678408  1
  Si  Si16  1  0.95686922  0.90851508  0.64953121  1
  Si  Si17  1  0.84232358  0.49162102  0.06261267  1
  Si  Si18  1  0.34232358  0.99162102  0.43738733  1
  Si  Si19  1  0.15767642  0.50837898  0.93738733  1
  Si  Si20  1  0.74728545  0.60866613  0.88679955  1
  Si  Si21  1  0.75271455  0.89133387  0.38679955  1
  Si  Si22  1  0.25271455  0.39133387  0.11320045  1
  Si  Si23  1  0.24728545  0.10866613  0.61320045  1
  Si  Si24  1  0.14166790  0.06814954  0.84277446  1
  Si  Si25  1  0.35833210  0.43185046  0.34277446  1
  Si  Si26  1  0.85833210  0.93185046  0.15722554  1
  Si  Si27  1  0.64166790  0.56814954  0.65722554  1
  Si  Si28  1  0.83301899  0.57608008  0.48955417  1
  Si  Si29  1  0.66698101  0.92391992  0.98955417  1
  Si  Si30  1  0.16698101  0.42391992  0.51044583  1
  Si  Si31  1  0.33301899  0.07608008  0.01044583  1
  Si  Si32  1  0.46215202  0.32820065  0.60930568  1
  Si  Si33  1  0.03784798  0.17179935  0.10930568  1
  Si  Si34  1  0.53784798  0.67179935  0.39069432  1
  Si  Si35  1  0.96215202  0.82820065  0.89069432  1
  Si  Si36  1  0.83707848  0.16502908  0.94321592  1
  Si  Si37  1  0.66292152  0.33497092  0.44321592  1
  Si  Si38  1  0.16292152  0.83497092  0.05678408  1
  Si  Si39  1  0.65767642  0.00837898  0.56261267  1
  Ir  Ir0  1  0.26087196  0.49391598  0.66429572  1
  Ir  Ir1  1  0.23912804  0.00608402  0.16429572  1
  Ir  Ir2  1  0.73912804  0.50608402  0.33570428  1
  Ir  Ir3  1  0.76087196  0.99391598  0.83570428  1
  Ir  Ir4  1  0.39652793  0.63264904  0.83390260  1
  Ir  Ir5  1  0.10347207  0.86735096  0.33390260  1
  Ir  Ir6  1  0.60347207  0.36735096  0.16609740  1
  Ir  Ir7  1  0.89652793  0.13264904  0.66609740  1
  Ir  Ir8  1  0.69249628  0.77237584  0.54322510  1
  Ir  Ir9  1  0.80750372  0.72762416  0.04322510  1
  Ir  Ir10  1  0.30750372  0.22762416  0.45677390  1
  Ir  Ir11  1  0.19249628  0.27237584  0.95677490  1
  Ir  Ir12  1  0.79330344  0.74398462  0.74764352  1
  Ir  Ir13  1  0.70669656  0.75601538  0.24764352  1
  Ir  Ir14  1  0.20669656  0.25601538  0.25235648  1
  Ir  Ir15  1  0.29330344  0.24398462  0.75235648  1
  Ir  Ir16  1  0.32899941  0.89654078  0.90677586  1
  Ir  Ir17  1  0.17100059  0.60345922  0.40677586  1
  Ir  Ir18  1  0.67100059  0.10345922  0.09322414  1
  Ir  Ir19  1  0.82899941  0.39654078  0.59322414  1
  Ir  Ir20  1  0.18290853  0.61122254  0.09848296  1
  Ir  Ir21  1  0.31709147  0.88877746  0.59848296  1
  Ir  Ir22  1  0.81709147  0.38877746  0.90151704  1
  Ir  Ir23  1  0.68290853  0.11122254  0.40151704  1
loop_
_geom_bond_atom_site_label_1
_geom_bond_atom_site_label_2
_geom_bond_distance
_geom_bond_site_symmetry_2
Si0 Si7 2.606454 1_555
Si1 Si6 2.606454 1_555
Si2 Si5 2.606454 1_555
Si3 Si4 2.606454 1_555
Si15 Si34 2.691660 1_555
Si15 Si27 2.718202 1_555
Si20 Si35 2.528038 1_555
Si21 Si34 2.528038 1_555
Si22 Si33 2.528038 1_555
Si23 Si32 2.528038 1_555
Si24 Si31 2.683008 1_556
Si24 Si35 2.713815 1_445
Si24 Si36 2.718202 1_455
Si25 Si30 2.683008 1_555
Si25 Si34 2.713815 1_555
Si25 Si37 2.718202 1_555
Si26 Si29 2.683008 1_554
Si26 Si33 2.713815 1_665
Si26 Si38 2.718202 1_655
Si27 Si28 2.683008 1_555
Si27 Si32 2.713815 1_555
Si28 Si34 2.654454 1_555
Si29 Si35 2.654454 1_555
Si30 Si32 2.654454 1_555
Si31 Si33 2.654454 1_555
Si32 Si37 2.691660 1_555
Si33 Si36 2.691660 1_454
Si35 Si38 2.691660 1_656
Ir0 Si15 2.357839 1_555
Ir0 Si30 2.364535 1_555
Ir0 Si32 2.413336 1_555
Ir0 Si0 2.434873 1_555
Ir0 Si27 2.479768 1_555
Ir0 Si4 2.506121 1_455
Ir1 Si38 2.357839 1_545
Ir1 Si31 2.364535 1_555
Ir1 Si33 2.413336 1_555
Ir1 Si1 2.434873 1_545
Ir1 Si26 2.479768 1_445
Ir1 Si5 2.506121 1_555
Ir2 Si37 2.357839 1_555
Ir2 Si28 2.364535 1_555
Ir2 Si34 2.413336 1_555
Ir2 Si2 2.434873 1_555
Ir2 Si25 2.479768 1_555
Ir2 Si6 2.506121 1_655
Ir3 Si36 2.357839 1_565
Ir3 Si29 2.364535 1_555
Ir3 Si35 2.413336 1_555
Ir3 Si3 2.434873 1_565
Ir3 Si24 2.479768 1_665
Ir3 Si7 2.506121 1_555
Ir4 Si11 2.328619 1_555
Ir4 Si19 2.393623 1_555
Ir4 Si20 2.420453 1_555
Ir4 Si12 2.428311 1_555
Ir4 Si0 2.449715 1_555
Ir4 Si7 2.596480 1_555
Ir4 Si27 3.086740 1_555
Ir5 Si10 2.328619 1_555
Ir5 Si18 2.393623 1_555
Ir5 Si21 2.420453 1_455
Ir5 Si13 2.428311 1_565
Ir5 Si1 2.449715 1_555
Ir5 Si6 2.596480 1_555
Ir5 Si26 3.086740 1_455
Ir6 Si9 2.328619 1_555
Ir6 Si17 2.393623 1_555
Ir6 Si22 2.420453 1_555
Ir6 Si14 2.428311 1_555
Ir6 Si2 2.449715 1_555
Ir6 Si5 2.596480 1_555
Ir6 Si25 3.086740 1_555
Ir7 Si8 2.328619 1_555
Ir7 Si39 2.393623 1_555
Ir7 Si23 2.420453 1_655
Ir7 Si16 2.428311 1_545
Ir7 Si3 2.449715 1_555
Ir7 Si4 2.596480 1_555
Ir7 Si24 3.086740 1_655
Ir8 Si15 2.428275 1_555
Ir8 Si10 2.438666 1_655
Ir8 Si28 2.459038 1_555
Ir8 Si39 2.514908 1_565
Ir8 Si21 2.556558 1_555
Ir8 Si34 2.560325 1_555
Ir8 Si16 2.571859 1_555
Ir8 Si27 2.667227 1_555
Ir9 Si38 2.428275 1_655
Ir9 Si11 2.438666 1_554
Ir9 Si29 2.459038 1_554
Ir9 Si17 2.514908 1_555
Ir9 Si20 2.556558 1_554
Ir9 Si35 2.560325 1_554
Ir9 Si14 2.571859 1_555
Ir9 Si26 2.667227 1_555
Ir10 Si37 2.428274 1_555
Ir10 Si8 2.438671 1_455
Ir10 Si30 2.459043 1_555
Ir10 Si18 2.514907 1_545
Ir10 Si23 2.556570 1_555
Ir10 Si32 2.560337 1_555
Ir10 Si13 2.571851 1_555
Ir10 Si25 2.667218 1_555
Ir11 Si36 2.428275 1_455
Ir11 Si9 2.438666 1_556
Ir11 Si31 2.459038 1_556
Ir11 Si19 2.514908 1_555
Ir11 Si22 2.556558 1_556
Ir11 Si33 2.560325 1_556
Ir11 Si12 2.571859 1_555
Ir11 Si24 2.667227 1_555
Ir12 Si27 2.353818 1_555
Ir12 Si16 2.359504 1_555
Ir12 Si0 2.390341 1_655
Ir12 Si35 2.422751 1_555
Ir12 Si20 2.430354 1_555
Ir12 Si7 2.487483 1_555
Ir13 Si26 2.353818 1_555
Ir13 Si14 2.359504 1_555
Ir13 Si1 2.390341 1_555
Ir13 Si34 2.422751 1_555
Ir13 Si21 2.430354 1_555
Ir13 Si6 2.487483 1_655
Ir14 Si25 2.353818 1_555
Ir14 Si13 2.359504 1_555
Ir14 Si2 2.390341 1_455
Ir14 Si33 2.422751 1_555
Ir14 Si22 2.430354 1_555
Ir14 Si5 2.487483 1_555
Ir15 Si24 2.353818 1_555
Ir15 Si12 2.359504 1_555
Ir15 Si3 2.390341 1_555
Ir15 Si32 2.422751 1_555
Ir15 Si23 2.430354 1_555
Ir15 Si4 2.487483 1_455
Ir16 Si31 2.382857 1_566
Ir16 Si35 2.391802 1_455
Ir16 Si38 2.439374 1_556
Ir16 Si7 2.449402 1_555
Ir16 Si24 2.452359 1_565
Ir16 Si29 2.459113 1_555
Ir16 Si11 2.500554 1_555
Ir17 Si30 2.382857 1_555
Ir17 Si34 2.391802 1_555
Ir17 Si15 2.439374 1_555
Ir17 Si6 2.449402 1_555
Ir17 Si25 2.452359 1_555
Ir17 Si28 2.459113 1_455
Ir17 Si10 2.500554 1_555
Ir18 Si29 2.382857 1_544
Ir18 Si33 2.391802 1_655
Ir18 Si36 2.439374 1_554
Ir18 Si5 2.449402 1_555
Ir18 Si26 2.452359 1_545
Ir18 Si31 2.459113 1_555
Ir18 Si9 2.500554 1_555
Ir19 Si28 2.382857 1_555
Ir19 Si32 2.391802 1_555
Ir19 Si37 2.439374 1_555
Ir19 Si4 2.449402 1_555
Ir19 Si27 2.452359 1_555
Ir19 Si30 2.459113 1_655
Ir19 Si8 2.500554 1_555
Ir20 Si22 2.400103 1_555
Ir20 Si38 2.427538 1_555
Ir20 Si11 2.430686 1_554
Ir20 Si17 2.440005 1_455
Ir20 Si6 2.446786 1_555
Ir20 Si14 2.461021 1_555
Ir20 Si19 2.529507 1_554
Ir20 Si1 2.809559 1_555
Ir21 Si23 2.400103 1_565
Ir21 Si15 2.427538 1_555
Ir21 Si10 2.430686 1_555
Ir21 Si39 2.440005 1_565
Ir21 Si7 2.446786 1_555
Ir21 Si16 2.461021 1_455
Ir21 Si18 2.529507 1_555
Ir21 Si0 2.809559 1_555
Ir22 Si20 2.400103 1_555
Ir22 Si36 2.427538 1_555
Ir22 Si9 2.430686 1_556
Ir22 Si19 2.440005 1_655
Ir22 Si4 2.446786 1_555
Ir22 Si12 2.461021 1_555
Ir22 Si17 2.529507 1_556
Ir22 Si3 2.809559 1_555
Ir23 Si21 2.400103 1_545
Ir23 Si37 2.427538 1_555
Ir23 Si8 2.430686 1_555
Ir23 Si18 2.440005 1_545
Ir23 Si5 2.446786 1_555
Ir23 Si13 2.461021 1_655
Ir23 Si39 2.529507 1_555
Ir23 Si2 2.809559 1_555
