# generated using pymatgen
data_KNb3O8
_symmetry_space_group_name_H-M   'P 1'
_cell_length_a   10.89336724
_cell_length_b   10.89336500
_cell_length_c   9.00217309
_cell_angle_alpha   90.00005411
_cell_angle_beta   89.99994370
_cell_angle_gamma   159.75307109
_symmetry_Int_Tables_number   1
_chemical_formula_structural   KNb3O8
_chemical_formula_sum   'K2 Nb6 O16'
_cell_volume   369.68468373
_cell_formula_units_Z   2
loop_
 _symmetry_equiv_pos_site_id
 _symmetry_equiv_pos_as_xyz
  1  'x, y, z'
loop_
 _atom_site_type_symbol
 _atom_site_label
 _atom_site_symmetry_multiplicity
 _atom_site_fract_x
 _atom_site_fract_y
 _atom_site_fract_z
 _atom_site_occupancy
  K  K0  1  0.98430024  0.01567070  0.75000356  1
  K  K1  1  0.01569213  0.98430975  0.25000504  1
  Nb  Nb0  1  0.24170215  0.75829885  0.75000082  1
  Nb  Nb1  1  0.75830102  0.24170029  0.24999957  1
  Nb  Nb2  1  0.63096959  0.36903565  0.55838389  1
  Nb  Nb3  1  0.36903451  0.63096984  0.44160785  1
  Nb  Nb4  1  0.36903064  0.63096840  0.05839147  1
  Nb  Nb5  1  0.63096673  0.36903219  0.94161480  1
  O  O0  1  0.58507884  0.41492456  0.74999915  1
  O  O1  1  0.41492480  0.58507597  0.25000233  1
  O  O2  1  0.71406581  0.28593818  0.74999792  1
  O  O3  1  0.28594107  0.71406176  0.24999871  1
  O  O4  1  0.70397932  0.29602301  0.40705279  1
  O  O5  1  0.29602446  0.70397650  0.59293996  1
  O  O6  1  0.29602545  0.70397835  0.90706093  1
  O  O7  1  0.70397838  0.29602110  0.09294315  1
  O  O8  1  0.84347370  0.15653127  0.40751248  1
  O  O9  1  0.15652960  0.84347430  0.59247927  1
  O  O10  1  0.15652841  0.84347304  0.90751915  1
  O  O11  1  0.84347132  0.15653061  0.09248867  1
  O  O12  1  0.56761155  0.43238839  0.06743704  1
  O  O13  1  0.43238140  0.56761713  0.93257934  1
  O  O14  1  0.43237609  0.56761154  0.56741880  1
  O  O15  1  0.56761280  0.43238961  0.43256233  1
loop_
_geom_bond_atom_site_label_1
_geom_bond_atom_site_label_2
_geom_bond_distance
_geom_bond_site_symmetry_2
K0 O13 2.758248 1_545
K0 O14 2.758311 1_545
K0 O13 2.758321 1_655
K0 O14 2.758354 1_655
K0 O0 2.887266 1_545
K0 O0 2.887351 1_655
K1 O15 2.758080 1_455
K1 O15 2.758082 1_565
K1 O12 2.758135 1_565
K1 O12 2.758139 1_455
K1 O1 2.887377 1_565
K1 O1 2.887381 1_455
Nb0 O6 1.832064 1_555
Nb0 O5 1.832073 1_555
Nb0 O2 2.004376 1_455
Nb0 O2 2.004386 1_565
Nb0 O10 2.312539 1_555
Nb0 O9 2.312559 1_555
Nb1 O4 1.832018 1_555
Nb1 O7 1.832036 1_555
Nb1 O3 2.004387 1_545
Nb1 O3 2.004393 1_655
Nb1 O11 2.312430 1_555
Nb1 O8 2.312458 1_555
Nb2 O15 1.768989 1_555
Nb2 O0 1.985991 1_555
Nb2 O9 2.015171 1_655
Nb2 O9 2.015175 1_545
Nb2 O4 2.075562 1_555
Nb2 O2 2.480273 1_555
Nb3 O14 1.768838 1_555
Nb3 O1 1.985938 1_555
Nb3 O8 2.015175 1_455
Nb3 O8 2.015176 1_565
Nb3 O5 2.075522 1_555
Nb3 O3 2.480178 1_555
Nb4 O13 1.768861 1_554
Nb4 O1 1.985995 1_555
Nb4 O11 2.015171 1_455
Nb4 O11 2.015181 1_565
Nb4 O6 2.075502 1_554
Nb4 O3 2.480145 1_555
Nb5 O12 1.768996 1_556
Nb5 O0 1.985999 1_555
Nb5 O10 2.015167 1_545
Nb5 O10 2.015176 1_655
Nb5 O7 2.075550 1_556
Nb5 O2 2.480283 1_555
