# generated using pymatgen
data_Eu(SiRh)2
_symmetry_space_group_name_H-M   'P 1'
_cell_length_a   4.09748777
_cell_length_b   4.09748697
_cell_length_c   5.88183475
_cell_angle_alpha   110.38442559
_cell_angle_beta   110.38441768
_cell_angle_gamma   90.00000271
_symmetry_Int_Tables_number   1
_chemical_formula_structural   Eu(SiRh)2
_chemical_formula_sum   'Eu1 Si2 Rh2'
_cell_volume   85.94021854
_cell_formula_units_Z   1
loop_
 _symmetry_equiv_pos_site_id
 _symmetry_equiv_pos_as_xyz
  1  'x, y, z'
loop_
 _atom_site_type_symbol
 _atom_site_label
 _atom_site_symmetry_multiplicity
 _atom_site_fract_x
 _atom_site_fract_y
 _atom_site_fract_z
 _atom_site_occupancy
  Eu  Eu0  1  0.00000000  -0.00000000  0.00000000  1
  Si  Si0  1  0.62977601  0.62977601  0.25955402  1
  Si  Si1  1  0.37022399  0.37022399  0.74044598  1
  Rh  Rh0  1  0.25000000  0.75000000  0.50000000  1
  Rh  Rh1  1  0.75000000  0.25000000  0.50000000  1
loop_
_geom_bond_atom_site_label_1
_geom_bond_atom_site_label_2
_geom_bond_distance
_geom_bond_site_symmetry_2
Eu0 Si0 3.187444 1_555
Eu0 Si1 3.187444 1_444
Eu0 Si0 3.187450 1_455
Eu0 Si1 3.187450 1_544
Eu0 Si0 3.187450 1_545
Eu0 Si1 3.187450 1_454
Eu0 Si0 3.187455 1_445
Eu0 Si1 3.187455 1_554
Eu0 Rh1 3.278363 1_444
Eu0 Rh0 3.278363 1_555
Eu0 Rh1 3.278364 1_455
Eu0 Rh0 3.278364 1_544
Eu0 Rh1 3.278364 1_555
Eu0 Rh0 3.278364 1_444
Eu0 Rh0 3.278364 1_545
Eu0 Rh1 3.278364 1_454
Rh0 Si1 2.390009 1_555
Rh0 Si0 2.390009 1_555
Rh0 Si1 2.390015 1_565
Rh0 Si0 2.390016 1_455
Rh1 Si0 2.390009 1_555
Rh1 Si1 2.390009 1_555
Rh1 Si0 2.390015 1_545
Rh1 Si1 2.390016 1_655
