# generated using pymatgen
data_MgTe4Mo2W2(SeS)2
_symmetry_space_group_name_H-M   'P 1'
_cell_length_a   6.77988800
_cell_length_b   6.77957356
_cell_length_c   93.58837825
_cell_angle_alpha   89.99425186
_cell_angle_beta   89.99787629
_cell_angle_gamma   120.00106338
_symmetry_Int_Tables_number   1
_chemical_formula_structural   MgTe4Mo2W2(SeS)2
_chemical_formula_sum   'Mg8 Te32 Mo16 W16 Se16 S16'
_cell_volume   3725.39898590
_cell_formula_units_Z   8
loop_
 _symmetry_equiv_pos_site_id
 _symmetry_equiv_pos_as_xyz
  1  'x, y, z'
loop_
 _atom_site_type_symbol
 _atom_site_label
 _atom_site_symmetry_multiplicity
 _atom_site_fract_x
 _atom_site_fract_y
 _atom_site_fract_z
 _atom_site_occupancy
  Mg  Mg0_0  1  0.49995200  0.49999550  0.18931600  1
  Mg  Mg0_1  1  0.49995200  0.49999550  0.68931600  1
  Mg  Mg0_2  1  0.49995200  0.99999550  0.18931600  1
  Mg  Mg0_3  1  0.49995200  0.99999550  0.68931600  1
  Mg  Mg0_4  1  0.99995200  0.49999550  0.18931600  1
  Mg  Mg0_5  1  0.99995200  0.49999550  0.68931600  1
  Mg  Mg0_6  1  0.99995200  0.99999550  0.18931600  1
  Mg  Mg0_7  1  0.99995200  0.99999550  0.68931600  1
  Te  Te0_0  1  0.16663500  0.33329500  0.15785050  1
  Te  Te0_1  1  0.16663500  0.33329500  0.65785050  1
  Te  Te0_2  1  0.16663500  0.83329500  0.15785050  1
  Te  Te0_3  1  0.16663500  0.83329500  0.65785050  1
  Te  Te0_4  1  0.66663500  0.33329500  0.15785050  1
  Te  Te0_5  1  0.66663500  0.33329500  0.65785050  1
  Te  Te0_6  1  0.66663500  0.83329500  0.15785050  1
  Te  Te0_7  1  0.66663500  0.83329500  0.65785050  1
  Te  Te1_0  1  0.16662000  0.33324700  0.34884450  1
  Te  Te1_1  1  0.16662000  0.33324700  0.84884450  1
  Te  Te1_2  1  0.16662000  0.83324700  0.34884450  1
  Te  Te1_3  1  0.16662000  0.83324700  0.84884450  1
  Te  Te1_4  1  0.66662000  0.33324700  0.34884450  1
  Te  Te1_5  1  0.66662000  0.33324700  0.84884450  1
  Te  Te1_6  1  0.66662000  0.83324700  0.34884450  1
  Te  Te1_7  1  0.66662000  0.83324700  0.84884450  1
  Te  Te2_0  1  0.16668300  0.33337450  0.11760050  1
  Te  Te2_1  1  0.16668300  0.33337450  0.61760050  1
  Te  Te2_2  1  0.16668300  0.83337450  0.11760050  1
  Te  Te2_3  1  0.16668300  0.83337450  0.61760050  1
  Te  Te2_4  1  0.66668300  0.33337450  0.11760050  1
  Te  Te2_5  1  0.66668300  0.33337450  0.61760050  1
  Te  Te2_6  1  0.66668300  0.83337450  0.11760050  1
  Te  Te2_7  1  0.66668300  0.83337450  0.61760050  1
  Te  Te3_0  1  0.16669350  0.33335700  0.30856950  1
  Te  Te3_1  1  0.16669350  0.33335700  0.80856950  1
  Te  Te3_2  1  0.16669350  0.83335700  0.30856950  1
  Te  Te3_3  1  0.16669350  0.83335700  0.80856950  1
  Te  Te3_4  1  0.66669350  0.33335700  0.30856950  1
  Te  Te3_5  1  0.66669350  0.33335700  0.80856950  1
  Te  Te3_6  1  0.66669350  0.83335700  0.30856950  1
  Te  Te3_7  1  0.66669350  0.83335700  0.80856950  1
  Mo  Mo0_0  1  0.16668300  0.33333900  0.04687650  1
  Mo  Mo0_1  1  0.16668300  0.33333900  0.54687650  1
  Mo  Mo0_2  1  0.16668300  0.83333900  0.04687650  1
  Mo  Mo0_3  1  0.16668300  0.83333900  0.54687650  1
  Mo  Mo0_4  1  0.66668300  0.33333900  0.04687650  1
  Mo  Mo0_5  1  0.66668300  0.33333900  0.54687650  1
  Mo  Mo0_6  1  0.66668300  0.83333900  0.04687650  1
  Mo  Mo0_7  1  0.66668300  0.83333900  0.54687650  1
  Mo  Mo1_0  1  0.33333150  0.16667900  0.13760900  1
  Mo  Mo1_1  1  0.33333150  0.16667900  0.63760900  1
  Mo  Mo1_2  1  0.33333150  0.66667900  0.13760900  1
  Mo  Mo1_3  1  0.33333150  0.66667900  0.63760900  1
  Mo  Mo1_4  1  0.83333150  0.16667900  0.13760900  1
  Mo  Mo1_5  1  0.83333150  0.16667900  0.63760900  1
  Mo  Mo1_6  1  0.83333150  0.66667900  0.13760900  1
  Mo  Mo1_7  1  0.83333150  0.66667900  0.63760900  1
  W  W0_0  1  0.16667300  0.33333600  0.23964000  1
  W  W0_1  1  0.16667300  0.33333600  0.73964000  1
  W  W0_2  1  0.16667300  0.83333600  0.23964000  1
  W  W0_3  1  0.16667300  0.83333600  0.73964000  1
  W  W0_4  1  0.66667300  0.33333600  0.23964000  1
  W  W0_5  1  0.66667300  0.33333600  0.73964000  1
  W  W0_6  1  0.66667300  0.83333600  0.23964000  1
  W  W0_7  1  0.66667300  0.83333600  0.73964000  1
  W  W1_0  1  0.33332700  0.16663900  0.32870900  1
  W  W1_1  1  0.33332700  0.16663900  0.82870900  1
  W  W1_2  1  0.33332700  0.66663900  0.32870900  1
  W  W1_3  1  0.33332700  0.66663900  0.82870900  1
  W  W1_4  1  0.83332700  0.16663900  0.32870900  1
  W  W1_5  1  0.83332700  0.16663900  0.82870900  1
  W  W1_6  1  0.83332700  0.66663900  0.32870900  1
  W  W1_7  1  0.83332700  0.66663900  0.82870900  1
  Se  Se0_0  1  0.33337950  0.16671950  0.02924050  1
  Se  Se0_1  1  0.33337950  0.16671950  0.52924050  1
  Se  Se0_2  1  0.33337950  0.66671950  0.02924050  1
  Se  Se0_3  1  0.33337950  0.66671950  0.52924050  1
  Se  Se0_4  1  0.83337950  0.16671950  0.02924050  1
  Se  Se0_5  1  0.83337950  0.16671950  0.52924050  1
  Se  Se0_6  1  0.83337950  0.66671950  0.02924050  1
  Se  Se0_7  1  0.83337950  0.66671950  0.52924050  1
  Se  Se1_0  1  0.33332250  0.16665450  0.06450750  1
  Se  Se1_1  1  0.33332250  0.16665450  0.56450750  1
  Se  Se1_2  1  0.33332250  0.66665450  0.06450750  1
  Se  Se1_3  1  0.33332250  0.66665450  0.56450750  1
  Se  Se1_4  1  0.83332250  0.16665450  0.06450750  1
  Se  Se1_5  1  0.83332250  0.16665450  0.56450750  1
  Se  Se1_6  1  0.83332250  0.66665450  0.06450750  1
  Se  Se1_7  1  0.83332250  0.66665450  0.56450750  1
  S  S0_0  1  0.33337100  0.16670750  0.22350400  1
  S  S0_1  1  0.33337100  0.16670750  0.72350400  1
  S  S0_2  1  0.33337100  0.66670750  0.22350400  1
  S  S0_3  1  0.33337100  0.66670750  0.72350400  1
  S  S0_4  1  0.83337100  0.16670750  0.22350400  1
  S  S0_5  1  0.83337100  0.16670750  0.72350400  1
  S  S0_6  1  0.83337100  0.66670750  0.22350400  1
  S  S0_7  1  0.83337100  0.66670750  0.72350400  1
  S  S1_0  1  0.33332950  0.16665600  0.25568200  1
  S  S1_1  1  0.33332950  0.16665600  0.75568200  1
  S  S1_2  1  0.33332950  0.66665600  0.25568200  1
  S  S1_3  1  0.33332950  0.66665600  0.75568200  1
  S  S1_4  1  0.83332950  0.16665600  0.25568200  1
  S  S1_5  1  0.83332950  0.16665600  0.75568200  1
  S  S1_6  1  0.83332950  0.66665600  0.25568200  1
  S  S1_7  1  0.83332950  0.66665600  0.75568200  1
loop_
_geom_bond_atom_site_label_1
_geom_bond_atom_site_label_2
_geom_bond_distance
_geom_bond_site_symmetry_2
Mg0_0 Mg0_2 3.389787 1_545
Mg0_0 Mg0_2 3.389787 1_555
Mg0_0 Mg0_6 3.389811 1_445
Mg0_0 Mg0_6 3.389811 1_555
Mg0_0 Mg0_4 3.389944 1_455
Mg0_0 Mg0_4 3.389944 1_555
Mg0_0 Te0_6 3.535485 1_555
Mg0_0 Te0_0 3.535980 1_555
Mg0_0 Te0_4 3.536084 1_555
Mg0_1 Mg0_3 3.389787 1_545
Mg0_1 Mg0_3 3.389787 1_555
Mg0_1 Mg0_7 3.389811 1_445
Mg0_1 Mg0_7 3.389811 1_555
Mg0_1 Mg0_5 3.389944 1_455
Mg0_1 Mg0_5 3.389944 1_555
Mg0_1 Te0_7 3.535485 1_555
Mg0_1 Te0_1 3.535980 1_555
Mg0_1 Te0_5 3.536084 1_555
Mg0_2 Mg0_4 3.389811 1_455
Mg0_2 Mg0_4 3.389811 1_565
Mg0_2 Mg0_6 3.389944 1_555
Mg0_2 Mg0_6 3.389944 1_455
Mg0_2 Te0_4 3.535485 1_565
Mg0_2 Te0_2 3.535980 1_555
Mg0_2 Te0_6 3.536084 1_555
Mg0_3 Mg0_5 3.389811 1_455
Mg0_3 Mg0_5 3.389811 1_565
Mg0_3 Mg0_7 3.389944 1_455
Mg0_3 Mg0_7 3.389944 1_555
Mg0_3 Te0_5 3.535485 1_565
Mg0_3 Te0_3 3.535980 1_555
Mg0_3 Te0_7 3.536084 1_555
Mg0_4 Mg0_6 3.389787 1_545
Mg0_4 Mg0_6 3.389787 1_555
Mg0_4 Te0_2 3.535485 1_655
Mg0_4 Te0_4 3.535980 1_555
Mg0_4 Te0_0 3.536084 1_655
Mg0_5 Mg0_7 3.389787 1_545
Mg0_5 Mg0_7 3.389787 1_555
Mg0_5 Te0_3 3.535485 1_655
Mg0_5 Te0_5 3.535980 1_555
Mg0_5 Te0_1 3.536084 1_655
Mg0_6 Te0_0 3.535485 1_665
Mg0_6 Te0_6 3.535980 1_555
Mg0_6 Te0_2 3.536084 1_655
Mg0_7 Te0_1 3.535485 1_665
Mg0_7 Te0_7 3.535980 1_555
Mg0_7 Te0_3 3.536084 1_655
Te1_0 W1_0 2.716879 1_555
Te1_0 W1_4 2.716883 1_455
Te1_0 W1_2 2.716914 1_555
Te1_1 W1_1 2.716879 1_555
Te1_1 W1_5 2.716883 1_455
Te1_1 W1_3 2.716914 1_555
Te1_2 W1_2 2.716879 1_555
Te1_2 W1_6 2.716883 1_455
Te1_2 W1_0 2.716914 1_565
Te1_3 W1_3 2.716879 1_555
Te1_3 W1_7 2.716883 1_455
Te1_3 W1_1 2.716914 1_565
Te1_4 W1_4 2.716879 1_555
Te1_4 W1_0 2.716883 1_555
Te1_4 W1_6 2.716914 1_555
Te1_5 W1_5 2.716879 1_555
Te1_5 W1_1 2.716883 1_555
Te1_5 W1_7 2.716914 1_555
Te1_6 W1_6 2.716879 1_555
Te1_6 W1_2 2.716883 1_555
Te1_6 W1_4 2.716914 1_565
Te1_7 W1_7 2.716879 1_555
Te1_7 W1_3 2.716883 1_555
Te1_7 W1_5 2.716914 1_565
Te3_0 W1_2 2.717081 1_555
Te3_0 W1_4 2.717180 1_455
Te3_0 W1_0 2.717194 1_555
Te3_1 W1_3 2.717081 1_555
Te3_1 W1_5 2.717180 1_455
Te3_1 W1_1 2.717194 1_555
Te3_2 W1_0 2.717081 1_565
Te3_2 W1_6 2.717180 1_455
Te3_2 W1_2 2.717194 1_555
Te3_3 W1_1 2.717081 1_565
Te3_3 W1_7 2.717180 1_455
Te3_3 W1_3 2.717194 1_555
Te3_4 W1_6 2.717081 1_555
Te3_4 W1_0 2.717180 1_555
Te3_4 W1_4 2.717194 1_555
Te3_5 W1_7 2.717081 1_555
Te3_5 W1_1 2.717180 1_555
Te3_5 W1_5 2.717194 1_555
Te3_6 W1_4 2.717081 1_565
Te3_6 W1_2 2.717180 1_555
Te3_6 W1_6 2.717194 1_555
Te3_7 W1_5 2.717081 1_565
Te3_7 W1_3 2.717180 1_555
Te3_7 W1_7 2.717194 1_555
Mo0_0 Se1_0 2.559819 1_555
Mo0_0 Se1_4 2.559913 1_455
Mo0_0 Se1_2 2.559941 1_555
Mo0_0 Se0_0 2.560177 1_555
Mo0_0 Se0_2 2.560188 1_555
Mo0_0 Se0_4 2.560212 1_455
Mo0_1 Se1_1 2.559819 1_555
Mo0_1 Se1_5 2.559913 1_455
Mo0_1 Se1_3 2.559941 1_555
Mo0_1 Se0_1 2.560177 1_555
Mo0_1 Se0_3 2.560188 1_555
Mo0_1 Se0_5 2.560212 1_455
Mo0_2 Se1_2 2.559819 1_555
Mo0_2 Se1_6 2.559913 1_455
Mo0_2 Se1_0 2.559941 1_565
Mo0_2 Se0_2 2.560177 1_555
Mo0_2 Se0_0 2.560188 1_565
Mo0_2 Se0_6 2.560212 1_455
Mo0_3 Se1_3 2.559819 1_555
Mo0_3 Se1_7 2.559913 1_455
Mo0_3 Se1_1 2.559941 1_565
Mo0_3 Se0_3 2.560177 1_555
Mo0_3 Se0_1 2.560188 1_565
Mo0_3 Se0_7 2.560212 1_455
Mo0_4 Se1_4 2.559819 1_555
Mo0_4 Se1_0 2.559913 1_555
Mo0_4 Se1_6 2.559941 1_555
Mo0_4 Se0_4 2.560177 1_555
Mo0_4 Se0_6 2.560188 1_555
Mo0_4 Se0_0 2.560212 1_555
Mo0_5 Se1_5 2.559819 1_555
Mo0_5 Se1_1 2.559913 1_555
Mo0_5 Se1_7 2.559941 1_555
Mo0_5 Se0_5 2.560177 1_555
Mo0_5 Se0_7 2.560188 1_555
Mo0_5 Se0_1 2.560212 1_555
Mo0_6 Se1_6 2.559819 1_555
Mo0_6 Se1_2 2.559913 1_555
Mo0_6 Se1_4 2.559941 1_565
Mo0_6 Se0_6 2.560177 1_555
Mo0_6 Se0_4 2.560188 1_565
Mo0_6 Se0_2 2.560212 1_555
Mo0_7 Se1_7 2.559819 1_555
Mo0_7 Se1_3 2.559913 1_555
Mo0_7 Se1_5 2.559941 1_565
Mo0_7 Se0_7 2.560177 1_555
Mo0_7 Se0_5 2.560188 1_565
Mo0_7 Se0_3 2.560212 1_555
Mo1_0 Te2_4 2.708628 1_555
Mo1_0 Te2_0 2.708672 1_555
Mo1_0 Te2_2 2.708685 1_545
Mo1_0 Te0_0 2.723759 1_555
Mo1_0 Te0_2 2.723769 1_545
Mo1_0 Te0_4 2.723818 1_555
Mo1_1 Te2_5 2.708628 1_555
Mo1_1 Te2_1 2.708672 1_555
Mo1_1 Te2_3 2.708685 1_545
Mo1_1 Te0_1 2.723759 1_555
Mo1_1 Te0_3 2.723769 1_545
Mo1_1 Te0_5 2.723818 1_555
Mo1_2 Te2_6 2.708628 1_555
Mo1_2 Te2_2 2.708672 1_555
Mo1_2 Te2_0 2.708685 1_555
Mo1_2 Te0_2 2.723759 1_555
Mo1_2 Te0_0 2.723769 1_555
Mo1_2 Te0_6 2.723818 1_555
Mo1_3 Te2_7 2.708628 1_555
Mo1_3 Te2_3 2.708672 1_555
Mo1_3 Te2_1 2.708685 1_555
Mo1_3 Te0_3 2.723759 1_555
Mo1_3 Te0_1 2.723769 1_555
Mo1_3 Te0_7 2.723818 1_555
Mo1_4 Te2_0 2.708628 1_655
Mo1_4 Te2_4 2.708672 1_555
Mo1_4 Te2_6 2.708685 1_545
Mo1_4 Te0_4 2.723759 1_555
Mo1_4 Te0_6 2.723769 1_545
Mo1_4 Te0_0 2.723818 1_655
Mo1_5 Te2_1 2.708628 1_655
Mo1_5 Te2_5 2.708672 1_555
Mo1_5 Te2_7 2.708685 1_545
Mo1_5 Te0_5 2.723759 1_555
Mo1_5 Te0_7 2.723769 1_545
Mo1_5 Te0_1 2.723818 1_655
Mo1_6 Te2_2 2.708628 1_655
Mo1_6 Te2_6 2.708672 1_555
Mo1_6 Te2_4 2.708685 1_555
Mo1_6 Te0_6 2.723759 1_555
Mo1_6 Te0_4 2.723769 1_555
Mo1_6 Te0_2 2.723818 1_655
Mo1_7 Te2_3 2.708628 1_655
Mo1_7 Te2_7 2.708672 1_555
Mo1_7 Te2_5 2.708685 1_555
Mo1_7 Te0_7 2.723759 1_555
Mo1_7 Te0_5 2.723769 1_555
Mo1_7 Te0_3 2.723818 1_655
S0_0 W0_2 2.471989 1_545
S0_0 W0_4 2.472023 1_555
S0_0 W0_0 2.472049 1_555
S0_1 W0_3 2.471989 1_545
S0_1 W0_5 2.472023 1_555
S0_1 W0_1 2.472049 1_555
S0_2 W0_0 2.471989 1_555
S0_2 W0_6 2.472023 1_555
S0_2 W0_2 2.472049 1_555
S0_3 W0_1 2.471989 1_555
S0_3 W0_7 2.472023 1_555
S0_3 W0_3 2.472049 1_555
S0_4 W0_6 2.471989 1_545
S0_4 W0_0 2.472023 1_655
S0_4 W0_4 2.472049 1_555
S0_5 W0_7 2.471989 1_545
S0_5 W0_1 2.472023 1_655
S0_5 W0_5 2.472049 1_555
S0_6 W0_4 2.471989 1_555
S0_6 W0_2 2.472023 1_655
S0_6 W0_6 2.472049 1_555
S0_7 W0_5 2.471989 1_555
S0_7 W0_3 2.472023 1_655
S0_7 W0_7 2.472049 1_555
S1_0 W0_4 2.466611 1_555
S1_0 W0_0 2.466644 1_555
S1_0 W0_2 2.466713 1_545
S1_1 W0_5 2.466611 1_555
S1_1 W0_1 2.466644 1_555
S1_1 W0_3 2.466713 1_545
S1_2 W0_6 2.466611 1_555
S1_2 W0_2 2.466644 1_555
S1_2 W0_0 2.466713 1_555
S1_3 W0_7 2.466611 1_555
S1_3 W0_3 2.466644 1_555
S1_3 W0_1 2.466713 1_555
S1_4 W0_0 2.466611 1_655
S1_4 W0_4 2.466644 1_555
S1_4 W0_6 2.466713 1_545
S1_5 W0_1 2.466611 1_655
S1_5 W0_5 2.466644 1_555
S1_5 W0_7 2.466713 1_545
S1_6 W0_2 2.466611 1_655
S1_6 W0_6 2.466644 1_555
S1_6 W0_4 2.466713 1_555
S1_7 W0_3 2.466611 1_655
S1_7 W0_7 2.466644 1_555
S1_7 W0_5 2.466713 1_555
