# generated using pymatgen
data_Na2LaTa3Si2(PO6)4
_symmetry_space_group_name_H-M   'P 1'
_cell_length_a   8.97485983
_cell_length_b   8.98651037
_cell_length_c   23.07048031
_cell_angle_alpha   90.02304591
_cell_angle_beta   90.07271375
_cell_angle_gamma   120.01246780
_symmetry_Int_Tables_number   1
_chemical_formula_structural   Na2LaTa3Si2(PO6)4
_chemical_formula_sum   'Na6 La3 Ta9 Si6 P12 O72'
_cell_volume   1611.20494272
_cell_formula_units_Z   3
loop_
 _symmetry_equiv_pos_site_id
 _symmetry_equiv_pos_as_xyz
  1  'x, y, z'
loop_
 _atom_site_type_symbol
 _atom_site_label
 _atom_site_symmetry_multiplicity
 _atom_site_fract_x
 _atom_site_fract_y
 _atom_site_fract_z
 _atom_site_occupancy
  Na  Na0  1  0.99402162  0.99865177  0.49989893  1
  Na  Na1  1  0.99841103  0.99791331  0.00284858  1
  Na  Na2  1  0.66865618  0.33398685  0.83459538  1
  Na  Na3  1  0.66616726  0.33481788  0.32456766  1
  Na  Na4  1  0.33389615  0.65725043  0.16370128  1
  Na  Na5  1  0.32298808  0.65865414  0.66893340  1
  La  La0  1  0.99797735  0.00071358  0.36078266  1
  La  La1  1  0.67117076  0.33526971  0.68858712  1
  La  La2  1  0.66329504  0.33529200  0.17541809  1
  Ta  Ta0  1  0.00071791  0.00044647  0.85983735  1
  Ta  Ta1  1  0.99902743  0.00155947  0.64606641  1
  Ta  Ta2  1  0.00207659  0.00226423  0.14695519  1
  Ta  Ta3  1  0.66216102  0.33202442  0.97967126  1
  Ta  Ta4  1  0.66879746  0.32914837  0.48025151  1
  Ta  Ta5  1  0.33318996  0.66484082  0.01333104  1
  Ta  Ta6  1  0.33602674  0.66814041  0.52086463  1
  Ta  Ta7  1  0.33719244  0.67055730  0.31148100  1
  Ta  Ta8  1  0.33261409  0.66589740  0.81425800  1
  Si  Si0  1  0.96572363  0.33366154  0.58350605  1
  Si  Si1  1  0.36175138  0.33566379  0.08171240  1
  Si  Si2  1  0.61990707  0.66009441  0.91444296  1
  Si  Si3  1  0.03898173  0.38032137  0.91426961  1
  Si  Si4  1  0.34033022  0.95910482  0.91465616  1
  Si  Si5  1  0.60966381  0.96151995  0.41897748  1
  P  P0  1  0.28711184  0.98420767  0.24992796  1
  P  P1  1  0.69841833  0.71105548  0.24963190  1
  P  P2  1  0.01404137  0.30297406  0.24963386  1
  P  P3  1  0.27046420  0.28825183  0.75330109  1
  P  P4  1  0.01832905  0.72999333  0.75331734  1
  P  P5  1  0.71018929  0.97982645  0.75336475  1
  P  P6  1  0.36573768  0.03643516  0.58157837  1
  P  P7  1  0.67031722  0.63305626  0.58196926  1
  P  P8  1  0.97197061  0.63903098  0.07987054  1
  P  P9  1  0.66706615  0.02839404  0.07970616  1
  P  P10  1  0.35813271  0.39887042  0.41927457  1
  P  P11  1  0.04218794  0.64434081  0.41942494  1
  O  O0  1  0.21147766  0.00700433  0.30517852  1
  O  O1  1  0.79496427  0.79121278  0.30508186  1
  O  O2  1  0.99179957  0.20314127  0.30463247  1
  O  O3  1  0.16907963  0.18311981  0.80651172  1
  O  O4  1  0.01583898  0.83257573  0.80663528  1
  O  O5  1  0.81663593  0.98577062  0.80665432  1
  O  O6  1  0.80629121  0.97406767  0.69643590  1
  O  O7  1  0.16911265  0.19132228  0.69627466  1
  O  O8  1  0.02452292  0.82980977  0.69639457  1
  O  O9  1  0.79976745  0.82525903  0.19521562  1
  O  O10  1  0.02237012  0.19468333  0.19522491  1
  O  O11  1  0.16988141  0.97304074  0.19567225  1
  O  O12  1  0.90855664  0.38460200  0.64172828  1
  O  O13  1  0.47068163  0.09269699  0.63651111  1
  O  O14  1  0.61960139  0.52960347  0.63720941  1
  O  O15  1  0.92654849  0.54140635  0.13635306  1
  O  O16  1  0.61950668  0.07709806  0.13638216  1
  O  O17  1  0.46181494  0.38876498  0.14159319  1
  O  O18  1  0.47410097  0.30543321  0.02940842  1
  O  O19  1  0.83983165  0.53404728  0.03053561  1
  O  O20  1  0.69860397  0.16113475  0.03025412  1
  O  O21  1  0.46147139  0.16397578  0.53034136  1
  O  O22  1  0.69733467  0.53579236  0.53084823  1
  O  O23  1  0.82676939  0.30193481  0.52936223  1
  O  O24  1  0.52822813  0.69435382  0.96871158  1
  O  O25  1  0.16671039  0.47340127  0.96811146  1
  O  O26  1  0.30555015  0.83481383  0.96891563  1
  O  O27  1  0.49267124  0.84900258  0.47294586  1
  O  O28  1  0.35345871  0.50083220  0.47232925  1
  O  O29  1  0.14426893  0.64024081  0.47246031  1
  O  O30  1  0.13049355  0.63271806  0.36226179  1
  O  O31  1  0.49962524  0.86034882  0.35881916  1
  O  O32  1  0.36276218  0.49773763  0.36237409  1
  O  O33  1  0.13348437  0.50258564  0.85671011  1
  O  O34  1  0.36881768  0.86472891  0.85719503  1
  O  O35  1  0.49696414  0.62992793  0.85692298  1
  O  O36  1  0.02737999  0.80420738  0.42419296  1
  O  O37  1  0.79659382  0.98605569  0.42701461  1
  O  O38  1  0.20274508  0.22067864  0.42350770  1
  O  O39  1  0.01625754  0.18789390  0.90683892  1
  O  O40  1  0.17374914  0.98687115  0.90677808  1
  O  O41  1  0.81310465  0.82860232  0.90711568  1
  O  O42  1  0.97237026  0.15323101  0.59292010  1
  O  O43  1  0.18757445  0.02595814  0.59032711  1
  O  O44  1  0.84069947  0.80957403  0.59095773  1
  O  O45  1  0.97487587  0.81411923  0.08816693  1
  O  O46  1  0.83482475  0.01674542  0.08768644  1
  O  O47  1  0.17439789  0.15445826  0.09122106  1
  O  O48  1  0.69255670  0.13911352  0.75451236  1
  O  O49  1  0.44686529  0.30464844  0.75463597  1
  O  O50  1  0.85705522  0.55412924  0.75587618  1
  O  O51  1  0.66157783  0.52768046  0.24558421  1
  O  O52  1  0.86874392  0.34073253  0.24308430  1
  O  O53  1  0.47171381  0.12571055  0.24299145  1
  O  O54  1  0.64002514  0.49175945  0.92614503  1
  O  O55  1  0.85216472  0.36136573  0.92627555  1
  O  O56  1  0.51075602  0.14705931  0.92579809  1
  O  O57  1  0.61688249  0.14952610  0.42500037  1
  O  O58  1  0.52729384  0.39225231  0.42428612  1
  O  O59  1  0.85957378  0.48027407  0.42422520  1
  O  O60  1  0.32349104  0.49034170  0.06546059  1
  O  O61  1  0.15526912  0.67847407  0.06398940  1
  O  O62  1  0.51754655  0.84768376  0.06415432  1
  O  O63  1  0.32369423  0.84916445  0.56873808  1
  O  O64  1  0.52765114  0.67939645  0.56896918  1
  O  O65  1  0.16317546  0.48423184  0.56950906  1
  O  O66  1  0.28107110  0.80479747  0.25448883  1
  O  O67  1  0.52065712  0.70941987  0.25408357  1
  O  O68  1  0.19135001  0.47582391  0.25352549  1
  O  O69  1  0.28093783  0.46682450  0.75414689  1
  O  O70  1  0.18562844  0.71701304  0.75474291  1
  O  O71  1  0.53143663  0.81176226  0.75423810  1
loop_
_geom_bond_atom_site_label_1
_geom_bond_atom_site_label_2
_geom_bond_distance
_geom_bond_site_symmetry_2
Na0 O37 2.402374 1_555
Na0 O36 2.591464 1_655
Na0 O42 2.615651 1_565
Na0 O44 2.620127 1_555
Na0 O38 2.620743 1_665
Na0 O43 2.644626 1_665
Na1 O46 2.504109 1_565
Na1 O45 2.510305 1_555
Na1 O47 2.529259 1_665
Na1 O41 2.723128 1_554
Na1 O40 2.750174 1_654
Na1 O39 2.752628 1_664
Na2 O50 2.595241 1_555
Na2 O55 2.613822 1_555
Na2 O56 2.624167 1_555
Na2 O49 2.626781 1_555
Na2 O48 2.626874 1_555
Na2 O54 2.626905 1_555
Na3 O51 2.529757 1_555
Na3 O52 2.598896 1_555
Na3 O53 2.612839 1_555
Na3 O57 2.757867 1_555
Na3 O59 2.779452 1_555
Na3 O58 2.786079 1_555
Na4 O68 2.551880 1_555
Na4 O67 2.565427 1_555
Na4 O66 2.645561 1_555
Na4 O60 2.692944 1_555
Na4 O62 2.847933 1_555
Na4 O61 2.862724 1_555
Na5 O69 2.516504 1_555
Na5 O70 2.523094 1_555
Na5 O71 2.584486 1_555
Na5 O65 2.741385 1_555
Na5 O63 2.875189 1_555
Na5 O64 2.897569 1_555
La0 O1 2.253022 1_545
La0 O2 2.256761 1_555
La0 O0 2.284364 1_655
La0 O37 2.321165 1_545
La0 O38 2.394935 1_655
La0 O36 2.407368 1_645
La1 O12 2.228372 1_555
La1 O14 2.340485 1_555
La1 O13 2.345533 1_555
La1 O50 2.402064 1_555
La1 O48 2.407750 1_555
La1 O49 2.429853 1_555
La2 O17 2.230614 1_555
La2 O16 2.331165 1_555
La2 O15 2.335404 1_555
La2 O51 2.373648 1_555
La2 O53 2.388204 1_555
La2 O52 2.396189 1_555
O0 P0 1.506186 1_545
O1 P1 1.509380 1_555
O2 P2 1.509004 1_655
O3 P3 1.539905 1_555
O3 Ta0 2.004110 1_555
O4 P4 1.543749 1_555
O4 Ta0 2.001112 1_565
O5 P5 1.540426 1_555
O5 Ta0 2.007247 1_665
O6 P5 1.587141 1_555
O6 Ta1 1.995333 1_565
O7 P3 1.587587 1_555
O7 Ta1 1.992429 1_455
O8 P4 1.575925 1_555
O8 Ta1 2.033898 1_465
O9 P1 1.589580 1_555
O9 Ta2 2.045459 1_665
O10 P2 1.612537 1_555
O10 Ta2 1.986509 1_555
O11 P0 1.604600 1_555
O11 Ta2 1.997970 1_565
O12 Si0 1.585319 1_555
O13 P6 1.506290 1_555
O14 P7 1.508219 1_555
O15 P8 1.509422 1_555
O16 P9 1.507073 1_555
O17 Si1 1.584397 1_555
O18 Si1 1.680311 1_555
O18 Ta3 1.955541 1_554
O19 P8 1.571113 1_555
O19 Ta3 2.076819 1_554
O20 P9 1.571250 1_555
O20 Ta3 2.080894 1_554
O21 P6 1.570882 1_555
O21 Ta4 2.060290 1_555
O22 P7 1.557451 1_555
O22 Ta4 2.097224 1_555
O23 Si0 1.684312 1_555
O23 Ta4 1.922655 1_555
O24 Si2 1.610908 1_555
O24 Ta5 1.932459 1_556
O25 Si3 1.610294 1_555
O25 Ta5 1.924480 1_556
O26 Si4 1.601660 1_555
O26 Ta5 1.955588 1_556
O27 Si5 1.617820 1_555
O27 Ta6 1.886748 1_555
O28 P10 1.541810 1_555
O28 Ta6 1.942485 1_555
O29 P11 1.539074 1_555
O29 Ta6 1.958313 1_555
O30 P11 1.569570 1_555
O30 Ta7 2.074678 1_555
O31 Si5 1.680897 1_555
O31 Ta7 1.932358 1_555
O32 P10 1.574323 1_555
O32 Ta7 2.049514 1_555
O33 Si3 1.661849 1_555
O33 Ta8 1.920619 1_555
O34 Si4 1.660993 1_555
O34 Ta8 1.922615 1_555
O35 Si2 1.657920 1_555
O35 Ta8 1.929391 1_555
O36 P11 1.511494 1_555
O37 Si5 1.589561 1_555
O38 P10 1.511650 1_555
O39 Si3 1.645648 1_555
O39 Ta0 1.948313 1_555
O40 Si4 1.644074 1_555
O40 Ta0 1.945406 1_565
O41 Si2 1.643911 1_555
O41 Ta0 1.953066 1_665
O42 Si0 1.666376 1_555
O42 Ta1 1.935242 1_555
O43 P6 1.567355 1_555
O43 Ta1 2.049333 1_455
O44 P7 1.571607 1_555
O44 Ta1 2.037969 1_565
O45 P8 1.572166 1_555
O45 Ta2 2.083788 1_665
O46 P9 1.571208 1_555
O46 Ta2 2.080899 1_655
O47 Si1 1.670104 1_555
O47 Ta2 1.950947 1_555
O48 P5 1.517017 1_545
O49 P3 1.515127 1_555
O50 P4 1.519242 1_655
O51 P1 1.512731 1_555
O52 P2 1.510176 1_655
O53 P0 1.510227 1_545
O54 Si2 1.633194 1_555
O54 Ta3 1.977630 1_555
O55 Si3 1.622471 1_655
O55 Ta3 2.012636 1_555
O56 Si4 1.634835 1_545
O56 Ta3 1.971959 1_555
O57 Si5 1.663811 1_545
O57 Ta4 1.921433 1_555
O58 P10 1.552970 1_555
O58 Ta4 2.078068 1_555
O59 P11 1.566987 1_655
O59 Ta4 2.031637 1_555
O60 Si1 1.633465 1_555
O60 Ta5 1.943770 1_555
O61 P8 1.544172 1_455
O61 Ta5 2.032497 1_555
O62 P9 1.544337 1_565
O62 Ta5 2.021409 1_555
O63 P6 1.557683 1_565
O63 Ta6 2.014317 1_555
O64 P7 1.560561 1_555
O64 Ta6 2.005152 1_555
O65 Si0 1.636634 1_455
O65 Ta6 1.959215 1_555
O66 P0 1.589383 1_555
O66 Ta7 2.011271 1_555
O67 P1 1.591529 1_555
O67 Ta7 2.004313 1_555
O68 P2 1.574777 1_555
O68 Ta7 2.065344 1_555
O69 P3 1.559965 1_555
O69 Ta8 2.122514 1_555
O70 P4 1.563408 1_555
O70 Ta8 2.106793 1_555
O71 P5 1.559292 1_555
O71 Ta8 2.118377 1_555
