# generated using pymatgen
data_Na4Mg(FeO3)2
_symmetry_space_group_name_H-M   'P 1'
_cell_length_a   6.06719782
_cell_length_b   6.38117489
_cell_length_c   6.17671218
_cell_angle_alpha   87.16660334
_cell_angle_beta   116.13189825
_cell_angle_gamma   64.85825116
_symmetry_Int_Tables_number   1
_chemical_formula_structural   Na4Mg(FeO3)2
_chemical_formula_sum   'Na4 Mg1 Fe2 O6'
_cell_volume   185.93775319
_cell_formula_units_Z   1
loop_
 _symmetry_equiv_pos_site_id
 _symmetry_equiv_pos_as_xyz
  1  'x, y, z'
loop_
 _atom_site_type_symbol
 _atom_site_label
 _atom_site_symmetry_multiplicity
 _atom_site_fract_x
 _atom_site_fract_y
 _atom_site_fract_z
 _atom_site_occupancy
  Na  Na0  1  0.65946282  0.46361817  0.56809693  1
  Na  Na1  1  0.04234788  0.41428506  0.33533196  1
  Na  Na2  1  0.61167241  0.91191831  0.09143144  1
  Na  Na3  1  0.30563255  0.45105347  0.01996209  1
  Mg  Mg0  1  0.61531490  0.92438603  0.57885525  1
  Fe  Fe0  1  0.07977238  0.87198241  0.54368378  1
  Fe  Fe1  1  0.04798222  0.01755056  0.08985872  1
  O  O0  1  0.45444260  0.80932424  0.74103435  1
  O  O1  1  0.17697485  0.69984068  0.26845738  1
  O  O2  1  0.93449462  0.65608169  0.57092414  1
  O  O3  1  0.86479476  0.06370470  0.73581749  1
  O  O4  1  0.31640453  0.12082204  0.22379197  1
  O  O5  1  0.81955049  0.16658566  0.24085451  1
loop_
_geom_bond_atom_site_label_1
_geom_bond_atom_site_label_2
_geom_bond_distance
_geom_bond_site_symmetry_2
Na0 O3 2.244525 1_555
Na0 O1 2.338625 1_555
Na0 O2 2.451723 1_555
Na0 O0 2.574201 1_555
Na1 O2 2.264794 1_455
Na1 O4 2.288455 1_555
Na1 O1 2.376053 1_555
Na1 O5 2.424451 1_455
Na2 O0 2.207911 1_554
Na2 O4 2.241291 1_565
Na2 O5 2.438832 1_565
Na2 O2 2.639725 1_555
Na2 O1 2.719692 1_655
Na3 O4 2.361804 1_555
Na3 O1 2.393496 1_555
Na3 O5 2.465184 1_555
Na3 O2 2.472117 1_454
Mg0 O0 1.972998 1_555
Mg0 O3 1.989315 1_565
Mg0 O2 1.989575 1_555
Mg0 O4 1.990734 1_565
Fe0 O0 1.884626 1_555
Fe0 O2 1.960321 1_455
Fe0 O5 2.013569 1_465
Fe0 O3 2.181169 1_465
Fe0 O1 2.227488 1_555
Fe1 O4 1.884129 1_555
Fe1 O1 1.899950 1_545
Fe1 O3 1.902992 1_454
Fe1 O5 1.949734 1_455
