# generated using pymatgen
data_Na3InSi3Ge3(SO8)3
_symmetry_space_group_name_H-M   'P 1'
_cell_length_a   8.63601998
_cell_length_b   8.72169001
_cell_length_c   22.22921910
_cell_angle_alpha   89.23331706
_cell_angle_beta   90.66788695
_cell_angle_gamma   120.12708769
_symmetry_Int_Tables_number   1
_chemical_formula_structural   Na3InSi3Ge3(SO8)3
_chemical_formula_sum   'Na9 In3 Si9 Ge9 S9 O72'
_cell_volume   1447.98999979
_cell_formula_units_Z   3
loop_
 _symmetry_equiv_pos_site_id
 _symmetry_equiv_pos_as_xyz
  1  'x, y, z'
loop_
 _atom_site_type_symbol
 _atom_site_label
 _atom_site_symmetry_multiplicity
 _atom_site_fract_x
 _atom_site_fract_y
 _atom_site_fract_z
 _atom_site_occupancy
  Na  Na0  1  0.35945795  0.35903379  0.24571690  1
  Na  Na1  1  0.63316371  0.62486222  0.75384034  1
  Na  Na2  1  0.96649842  0.28809979  0.41644870  1
  Na  Na3  1  0.99650072  0.00032201  0.50037704  1
  Na  Na4  1  0.00001100  0.99601638  0.00063129  1
  Na  Na5  1  0.66619482  0.33452177  0.83388933  1
  Na  Na6  1  0.67076063  0.32553679  0.33220211  1
  Na  Na7  1  0.31810839  0.66282669  0.16296480  1
  Na  Na8  1  0.30754878  0.65260673  0.66603278  1
  In  In0  1  0.99473190  0.00337322  0.35634910  1
  In  In1  1  0.67645695  0.33911446  0.68684980  1
  In  In2  1  0.68664687  0.34671930  0.17780490  1
  Si  Si0  1  0.99905256  0.29623035  0.25061581  1
  Si  Si1  1  0.27863491  0.28150164  0.75460714  1
  Si  Si2  1  0.01402661  0.72564719  0.75048332  1
  Si  Si3  1  0.96385886  0.33304597  0.58142927  1
  Si  Si4  1  0.97542126  0.64187003  0.08121699  1
  Si  Si5  1  0.37389505  0.33705827  0.08308477  1
  Si  Si6  1  0.62049745  0.67681361  0.91506058  1
  Si  Si7  1  0.60215580  0.93890083  0.41879503  1
  Si  Si8  1  0.34955184  0.37979638  0.41946485  1
  Ge  Ge0  1  0.00026191  0.98193492  0.85265147  1
  Ge  Ge1  1  0.01955295  0.02301056  0.64934228  1
  Ge  Ge2  1  0.01900592  0.01790560  0.14181746  1
  Ge  Ge3  1  0.66105518  0.37483489  0.98410370  1
  Ge  Ge4  1  0.65376675  0.30149683  0.47872183  1
  Ge  Ge5  1  0.34108875  0.66314741  0.02056492  1
  Ge  Ge6  1  0.33149227  0.64574584  0.51710373  1
  Ge  Ge7  1  0.33987937  0.65509420  0.31665312  1
  Ge  Ge8  1  0.31593505  0.64384274  0.81266632  1
  S  S0  1  0.28884994  0.98864534  0.24978458  1
  S  S1  1  0.70817706  0.71400411  0.24961354  1
  S  S2  1  0.71423091  0.99586316  0.75211887  1
  S  S3  1  0.36870123  0.03303109  0.58211018  1
  S  S4  1  0.66872821  0.63125663  0.58150032  1
  S  S5  1  0.66637060  0.04024134  0.07950104  1
  S  S6  1  0.03879908  0.37372448  0.91755189  1
  S  S7  1  0.33892365  0.95712481  0.91619058  1
  S  S8  1  0.04717750  0.66162501  0.41808263  1
  O  O0  1  0.21067970  0.01686043  0.30399356  1
  O  O1  1  0.81204148  0.78324366  0.30504490  1
  O  O2  1  0.97640640  0.19794943  0.31393042  1
  O  O3  1  0.18220894  0.16210015  0.81425205  1
  O  O4  1  0.95966438  0.79984105  0.80903362  1
  O  O5  1  0.82329583  0.02470143  0.80693038  1
  O  O6  1  0.79055023  0.96377734  0.69683670  1
  O  O7  1  0.16415441  0.21089007  0.69204988  1
  O  O8  1  0.03736592  0.84652775  0.68914001  1
  O  O9  1  0.79302249  0.82027564  0.19527494  1
  O  O10  1  0.04342578  0.19733126  0.19334282  1
  O  O11  1  0.17688832  0.96108614  0.19432321  1
  O  O12  1  0.89122770  0.37473255  0.64054931  1
  O  O13  1  0.47469845  0.10952586  0.63712107  1
  O  O14  1  0.62907999  0.52954078  0.63887885  1
  O  O15  1  0.92120897  0.52353315  0.14070675  1
  O  O16  1  0.62771996  0.10109046  0.13571327  1
  O  O17  1  0.47548904  0.36894716  0.14657159  1
  O  O18  1  0.46190300  0.29034216  0.02529520  1
  O  O19  1  0.83998991  0.54920264  0.02256586  1
  O  O20  1  0.69936659  0.15636039  0.02682041  1
  O  O21  1  0.45037493  0.15202600  0.52799193  1
  O  O22  1  0.69288736  0.54169829  0.53040607  1
  O  O23  1  0.83501039  0.30006239  0.52013572  1
  O  O24  1  0.52673399  0.70504162  0.97318377  1
  O  O25  1  0.15470430  0.45845573  0.97039053  1
  O  O26  1  0.30444116  0.84599364  0.97062386  1
  O  O27  1  0.50759562  0.82767014  0.47934823  1
  O  O28  1  0.29176744  0.46372968  0.47336343  1
  O  O29  1  0.15481051  0.69142299  0.47297215  1
  O  O30  1  0.12286815  0.62679082  0.36292172  1
  O  O31  1  0.48240253  0.85615682  0.35683692  1
  O  O32  1  0.38117888  0.49440033  0.35607880  1
  O  O33  1  0.11363187  0.48695114  0.86143591  1
  O  O34  1  0.36173425  0.87504026  0.86180180  1
  O  O35  1  0.49685823  0.64044051  0.85422627  1
  O  O36  1  0.02732228  0.81773248  0.41261041  1
  O  O37  1  0.80101345  0.96621280  0.41947462  1
  O  O38  1  0.17638402  0.18447574  0.41761389  1
  O  O39  1  0.02647743  0.19983818  0.91122862  1
  O  O40  1  0.17353031  0.97625009  0.91210322  1
  O  O41  1  0.82328632  0.85443660  0.90852780  1
  O  O42  1  0.97826998  0.14885581  0.58924088  1
  O  O43  1  0.18960740  0.01912472  0.58566319  1
  O  O44  1  0.83044318  0.80904256  0.58705739  1
  O  O45  1  0.97601532  0.82945747  0.09272228  1
  O  O46  1  0.82753709  0.01943554  0.08681707  1
  O  O47  1  0.17481934  0.16038293  0.08602269  1
  O  O48  1  0.69106594  0.15072788  0.74826267  1
  O  O49  1  0.47779867  0.30931538  0.74935707  1
  O  O50  1  0.83829280  0.53144014  0.74849835  1
  O  O51  1  0.67137490  0.52989105  0.24680949  1
  O  O52  1  0.82580333  0.31673946  0.24680908  1
  O  O53  1  0.46515403  0.15172801  0.24417787  1
  O  O54  1  0.63837182  0.49484569  0.92104585  1
  O  O55  1  0.85811970  0.35291913  0.92326235  1
  O  O56  1  0.50127329  0.13536966  0.92171640  1
  O  O57  1  0.63264542  0.14375253  0.42225074  1
  O  O58  1  0.53566371  0.37654568  0.43067016  1
  O  O59  1  0.86851282  0.49794170  0.42294212  1
  O  O60  1  0.35762233  0.51334390  0.07233284  1
  O  O61  1  0.17201566  0.66853783  0.06515421  1
  O  O62  1  0.50669391  0.85987251  0.07215210  1
  O  O63  1  0.34958473  0.85790113  0.57463304  1
  O  O64  1  0.50597250  0.65237516  0.57536505  1
  O  O65  1  0.16227828  0.51476966  0.57197496  1
  O  O66  1  0.30508760  0.82829450  0.25441300  1
  O  O67  1  0.52853449  0.70525439  0.25341325  1
  O  O68  1  0.19172783  0.49659300  0.25750019  1
  O  O69  1  0.30481590  0.48399534  0.75894470  1
  O  O70  1  0.19644716  0.71259003  0.76135844  1
  O  O71  1  0.53591215  0.83121208  0.75650577  1
loop_
_geom_bond_atom_site_label_1
_geom_bond_atom_site_label_2
_geom_bond_distance
_geom_bond_site_symmetry_2
Na0 O68 2.316896 1_555
Na0 O51 2.333936 1_555
Na0 O53 2.400528 1_555
Na0 O17 2.414180 1_555
Na0 O67 2.619433 1_555
Na0 O10 2.626644 1_555
Na0 O32 2.700372 1_555
Na0 O0 2.884692 1_555
Na1 O50 2.296226 1_555
Na1 O71 2.338636 1_555
Na1 O49 2.383632 1_555
Na1 O69 2.463660 1_555
Na1 O35 2.571694 1_555
Na1 O14 2.692273 1_555
Na1 O4 2.726653 1_555
Na1 O6 2.845579 1_555
Na2 O59 2.377186 1_555
Na2 O38 2.397008 1_655
Na2 O37 2.428594 1_545
Na2 O2 2.436997 1_555
Na2 O57 2.504963 1_555
Na2 O23 2.607524 1_555
Na2 O28 2.736299 1_655
Na2 O30 2.811455 1_655
Na3 O37 2.369016 1_545
Na3 O38 2.420857 1_655
Na3 O42 2.426025 1_555
Na3 O43 2.462180 1_655
Na3 O44 2.475722 1_545
Na3 O36 2.633243 1_645
Na4 O47 2.402241 1_565
Na4 O45 2.443765 1_455
Na4 O41 2.479688 1_454
Na4 O46 2.512598 1_465
Na4 O40 2.546586 1_554
Na4 O39 2.582652 1_564
Na5 O49 2.409798 1_555
Na5 O50 2.485522 1_555
Na5 O54 2.487406 1_555
Na5 O56 2.519483 1_555
Na5 O55 2.526793 1_555
Na5 O48 2.583702 1_555
Na6 O52 2.359703 1_555
Na6 O57 2.456714 1_555
Na6 O53 2.564350 1_555
Na6 O59 2.582484 1_555
Na6 O51 2.584586 1_555
Na6 O58 2.637591 1_555
Na7 O68 2.468358 1_555
Na7 O61 2.513539 1_555
Na7 O60 2.531410 1_555
Na7 O66 2.544496 1_555
Na7 O67 2.596441 1_555
Na7 O62 2.618243 1_555
Na8 O65 2.425457 1_555
Na8 O70 2.503090 1_555
Na8 O69 2.512743 1_555
Na8 O63 2.594814 1_555
Na8 O64 2.661321 1_555
Na8 O71 2.695944 1_555
In0 O2 2.004344 1_555
In0 O38 2.081087 1_655
In0 O37 2.090730 1_545
In0 O1 2.109930 1_545
In0 O36 2.158673 1_645
In0 O0 2.161713 1_655
In1 O12 2.013333 1_555
In1 O50 2.075695 1_555
In1 O49 2.130699 1_555
In1 O14 2.165058 1_555
In1 O48 2.173301 1_555
In1 O13 2.186203 1_555
In2 O15 2.007651 1_555
In2 O52 2.031550 1_555
In2 O17 2.041267 1_555
In2 O16 2.161490 1_555
In2 O51 2.281300 1_555
In2 O53 2.336893 1_555
Ge0 O4 1.749181 1_455
Ge0 O3 1.784254 1_565
Ge0 O41 1.848364 1_455
Ge0 O40 2.003666 1_555
Ge0 O5 2.008384 1_465
Ge0 O39 2.232949 1_565
Ge1 O7 1.762294 1_555
Ge1 O8 1.836740 1_545
Ge1 O42 1.859886 1_455
Ge1 O43 2.064309 1_555
Ge1 O6 2.073928 1_445
Ge1 O44 2.241365 1_445
Ge2 O47 1.792271 1_555
Ge2 O45 1.859101 1_445
Ge2 O10 1.875177 1_555
Ge2 O11 2.023021 1_545
Ge2 O46 2.050294 1_455
Ge2 O9 2.194150 1_445
Ge3 O19 1.754027 1_556
Ge3 O18 1.756657 1_556
Ge3 O54 1.805256 1_555
Ge3 O55 2.269163 1_555
Ge3 O20 2.284524 1_556
Ge3 O56 2.308516 1_555
Ge4 O58 1.798812 1_555
Ge4 O23 1.811999 1_555
Ge4 O57 1.814071 1_555
Ge4 O21 1.921537 1_555
Ge4 O59 2.172420 1_555
Ge4 O22 2.273291 1_555
Ge5 O60 1.787424 1_555
Ge5 O61 1.794575 1_555
Ge5 O24 1.803945 1_554
Ge5 O62 1.963527 1_555
Ge5 O25 2.036863 1_554
Ge5 O26 2.080106 1_554
Ge6 O28 1.752151 1_555
Ge6 O27 1.762572 1_555
Ge6 O65 1.804641 1_555
Ge6 O64 1.954528 1_555
Ge6 O29 2.003517 1_555
Ge6 O63 2.202742 1_555
Ge7 O31 1.799331 1_555
Ge7 O32 1.822412 1_555
Ge7 O68 1.873754 1_555
Ge7 O67 2.035539 1_555
Ge7 O30 2.050565 1_555
Ge7 O66 2.162497 1_555
Ge8 O69 1.812851 1_555
Ge8 O70 1.816729 1_555
Ge8 O35 1.818735 1_555
Ge8 O33 1.924751 1_555
Ge8 O34 2.159560 1_555
Ge8 O71 2.173084 1_555
O0 S0 1.470386 1_545
O1 S1 1.462172 1_555
O2 Si0 1.599912 1_555
O3 Si1 1.629139 1_555
O4 Si2 1.635499 1_655
O5 S2 1.476004 1_545
O6 S2 1.495359 1_555
O7 Si1 1.634057 1_555
O8 Si2 1.663190 1_555
O9 S1 1.471030 1_555
O10 Si0 1.698327 1_455
O11 S0 1.503152 1_555
O12 Si3 1.585452 1_555
O13 S3 1.470064 1_555
O14 S4 1.485285 1_555
O15 Si4 1.589350 1_555
O16 S5 1.469607 1_555
O17 Si5 1.604828 1_555
O18 Si5 1.655760 1_555
O19 Si4 1.662740 1_555
O20 S5 1.471248 1_555
O21 S3 1.507768 1_555
O22 S4 1.461682 1_555
O23 Si3 1.682611 1_555
O24 Si6 1.618231 1_555
O25 S6 1.476790 1_555
O26 S7 1.476321 1_555
O27 Si7 1.617181 1_555
O28 Si8 1.620041 1_555
O29 S8 1.469648 1_555
O30 S8 1.500373 1_555
O31 Si7 1.652708 1_555
O32 Si8 1.660197 1_555
O33 S6 1.514623 1_555
O34 S7 1.477619 1_555
O35 Si6 1.645367 1_555
O36 S8 1.458553 1_555
O37 Si7 1.610920 1_555
O38 Si8 1.607242 1_555
O39 S6 1.474605 1_555
O40 S7 1.520517 1_555
O41 Si6 1.662673 1_555
O42 Si3 1.679003 1_555
O43 S3 1.492441 1_555
O44 S4 1.482326 1_555
O45 Si4 1.656784 1_555
O46 S5 1.498017 1_555
O47 Si5 1.635535 1_555
O48 S2 1.462689 1_545
O49 Si1 1.617370 1_555
O50 Si2 1.610638 1_655
O51 S1 1.474218 1_555
O52 Si0 1.594686 1_555
O53 S0 1.477353 1_545
O54 Si6 1.673353 1_555
O55 S6 1.484423 1_655
O56 S7 1.486847 1_545
O57 Si7 1.672816 1_545
O58 Si8 1.637795 1_555
O59 S8 1.489627 1_655
O60 Si5 1.626987 1_555
O61 Si4 1.636949 1_455
O62 S5 1.492302 1_565
O63 S3 1.463196 1_565
O64 S4 1.510917 1_555
O65 Si3 1.663022 1_455
O66 S0 1.476082 1_555
O67 S1 1.517836 1_555
O68 Si0 1.711200 1_455
O69 Si1 1.668139 1_555
O70 Si2 1.650374 1_555
O71 S2 1.490979 1_555
