# generated using pymatgen
data_MgMn4(ZnS4)2
_symmetry_space_group_name_H-M   'P 1'
_cell_length_a   7.71730289
_cell_length_b   7.71730289
_cell_length_c   7.12007211
_cell_angle_alpha   62.51162659
_cell_angle_beta   62.51162659
_cell_angle_gamma   54.03703466
_symmetry_Int_Tables_number   1
_chemical_formula_structural   MgMn4(ZnS4)2
_chemical_formula_sum   'Mg1 Mn4 Zn2 S8'
_cell_volume   293.56258499
_cell_formula_units_Z   1
loop_
 _symmetry_equiv_pos_site_id
 _symmetry_equiv_pos_as_xyz
  1  'x, y, z'
loop_
 _atom_site_type_symbol
 _atom_site_label
 _atom_site_symmetry_multiplicity
 _atom_site_fract_x
 _atom_site_fract_y
 _atom_site_fract_z
 _atom_site_occupancy
  Mg  Mg0  1  0.40344900  0.40344900  0.84348500  1
  Mn  Mn0  1  0.98829900  0.98829900  0.51052300  1
  Mn  Mn1  1  0.94194100  0.47383500  0.04025800  1
  Mn  Mn2  1  0.47383500  0.94194100  0.04025800  1
  Mn  Mn3  1  0.98703400  0.98703400  0.01036100  1
  Zn  Zn0  1  0.36504500  0.36504500  0.38334800  1
  Zn  Zn1  1  0.65980500  0.65980500  0.58833600  1
  S  S0  1  0.24658100  0.24658100  0.77546700  1
  S  S1  1  0.23739900  0.76005300  0.25016500  1
  S  S2  1  0.76005300  0.23739900  0.25016500  1
  S  S3  1  0.24704100  0.24704100  0.22671700  1
  S  S4  1  0.76800600  0.76800600  0.20674500  1
  S  S5  1  0.79736800  0.25891900  0.72012600  1
  S  S6  1  0.25891900  0.79736800  0.72012600  1
  S  S7  1  0.76800300  0.76800300  0.75336300  1
loop_
_geom_bond_atom_site_label_1
_geom_bond_atom_site_label_2
_geom_bond_distance
_geom_bond_site_symmetry_2
Mg0 S5 2.390410 1_555
Mg0 S6 2.390410 1_555
Mg0 S0 2.443235 1_555
Mg0 S3 2.447398 1_556
Mn0 S2 2.445842 1_565
Mn0 S1 2.445842 1_655
Mn0 S5 2.448040 1_565
Mn0 S6 2.448040 1_655
Mn0 S7 2.595721 1_555
Mn0 S3 3.048122 1_665
Mn1 S4 2.407704 1_555
Mn1 S7 2.408202 1_554
Mn1 S2 2.467292 1_555
Mn1 S3 2.504025 1_655
Mn1 S0 2.505055 1_654
Mn2 S4 2.407704 1_555
Mn2 S7 2.408202 1_554
Mn2 S1 2.467292 1_555
Mn2 S3 2.504025 1_565
Mn2 S0 2.505055 1_564
Mn3 S6 2.449033 1_654
Mn3 S5 2.449033 1_564
Mn3 S1 2.454815 1_655
Mn3 S2 2.454815 1_565
Mn3 S4 2.580992 1_555
Mn3 S0 3.057526 1_664
S0 Zn0 2.394907 1_555
S1 Zn0 2.414359 1_555
S2 Zn0 2.414359 1_555
S3 Zn0 2.398233 1_555
S4 Zn1 2.325219 1_555
S5 Zn1 2.441514 1_555
S6 Zn1 2.441514 1_555
S7 Zn1 2.324952 1_555
