# generated using pymatgen
data_Na3ZrScSi(PO6)2
_symmetry_space_group_name_H-M   'P 1'
_cell_length_a   9.09374104
_cell_length_b   9.09374072
_cell_length_c   22.82746801
_cell_angle_alpha   90.01033531
_cell_angle_beta   89.98966470
_cell_angle_gamma   120.11798494
_symmetry_Int_Tables_number   1
_chemical_formula_structural   Na3ZrScSi(PO6)2
_chemical_formula_sum   'Na18 Zr6 Sc6 Si6 P12 O72'
_cell_volume   1632.88634060
_cell_formula_units_Z   6
loop_
 _symmetry_equiv_pos_site_id
 _symmetry_equiv_pos_as_xyz
  1  'x, y, z'
loop_
 _atom_site_type_symbol
 _atom_site_label
 _atom_site_symmetry_multiplicity
 _atom_site_fract_x
 _atom_site_fract_y
 _atom_site_fract_z
 _atom_site_occupancy
  Na  Na0  1  0.00360180  0.99490603  0.49655402  1
  Na  Na1  1  0.00509397  0.99639820  0.99655402  1
  Na  Na2  1  0.66598030  0.32530106  0.83010140  1
  Na  Na3  1  0.67469894  0.33401970  0.33010140  1
  Na  Na4  1  0.34614888  0.67231177  0.16309134  1
  Na  Na5  1  0.32768823  0.65385112  0.66309134  1
  Na  Na6  1  0.36265798  0.36147831  0.24743265  1
  Na  Na7  1  0.99277459  0.62680571  0.24815087  1
  Na  Na8  1  0.63852169  0.63734202  0.74743265  1
  Na  Na9  1  0.37319429  0.00722541  0.74815087  1
  Na  Na10  1  0.03899360  0.70053169  0.58045604  1
  Na  Na11  1  0.65466762  0.96381385  0.58430344  1
  Na  Na12  1  0.29946831  0.96100640  0.08045604  1
  Na  Na13  1  0.03618615  0.34533238  0.08430344  1
  Na  Na14  1  0.97420656  0.67443673  0.91826005  1
  Na  Na15  1  0.69832366  0.02833896  0.91248968  1
  Na  Na16  1  0.97166104  0.30167634  0.41248968  1
  Na  Na17  1  0.32556327  0.02579344  0.41826005  1
  Zr  Zr0  1  0.00554272  0.00806003  0.64858106  1
  Zr  Zr1  1  0.99193997  0.99445728  0.14858106  1
  Zr  Zr2  1  0.66037430  0.33703123  0.98189059  1
  Zr  Zr3  1  0.66296877  0.33962570  0.48189059  1
  Zr  Zr4  1  0.33094607  0.66687259  0.31524741  1
  Zr  Zr5  1  0.33312741  0.66905393  0.81524741  1
  Sc  Sc0  1  0.99093417  0.99424394  0.35112393  1
  Sc  Sc1  1  0.00575606  0.00906583  0.85112393  1
  Sc  Sc2  1  0.66853478  0.32372647  0.68445009  1
  Sc  Sc3  1  0.67627353  0.33146522  0.18445009  1
  Sc  Sc4  1  0.33243445  0.66857741  0.01726000  1
  Sc  Sc5  1  0.33142259  0.66756555  0.51726000  1
  Si  Si0  1  0.99744376  0.29337162  0.25168476  1
  Si  Si1  1  0.70662838  0.00255624  0.75168476  1
  Si  Si2  1  0.36968392  0.03496695  0.58352577  1
  Si  Si3  1  0.96503305  0.63031608  0.08352577  1
  Si  Si4  1  0.33073218  0.96302178  0.91786380  1
  Si  Si5  1  0.03697822  0.66926782  0.41786380  1
  P  P0  1  0.29331997  0.00248263  0.25095847  1
  P  P1  1  0.70427452  0.70339229  0.25074606  1
  P  P2  1  0.29660771  0.29572548  0.75074606  1
  P  P3  1  0.99751737  0.70668003  0.75095847  1
  P  P4  1  0.95942569  0.33461063  0.58241756  1
  P  P5  1  0.66521835  0.62761832  0.58678413  1
  P  P6  1  0.66538937  0.04057431  0.08241756  1
  P  P7  1  0.37238168  0.33478165  0.08678413  1
  P  P8  1  0.62632829  0.66735534  0.91607383  1
  P  P9  1  0.03918700  0.37147135  0.91923224  1
  P  P10  1  0.62852865  0.96081300  0.41923224  1
  P  P11  1  0.33264466  0.37367171  0.41607383  1
  O  O0  1  0.20817858  0.02537695  0.30545196  1
  O  O1  1  0.82002729  0.78748281  0.30334745  1
  O  O2  1  0.98093432  0.18416931  0.30963512  1
  O  O3  1  0.21251719  0.17997271  0.80334745  1
  O  O4  1  0.97462305  0.79182142  0.80545196  1
  O  O5  1  0.81583069  0.01906568  0.80963512  1
  O  O6  1  0.79400589  0.97016078  0.69316385  1
  O  O7  1  0.18538376  0.20863052  0.69585645  1
  O  O8  1  0.03075184  0.82155682  0.69595092  1
  O  O9  1  0.79136948  0.81461624  0.19585645  1
  O  O10  1  0.02983922  0.20599411  0.19316385  1
  O  O11  1  0.17844318  0.96924816  0.19595092  1
  O  O12  1  0.87369519  0.36409423  0.63529479  1
  O  O13  1  0.48819821  0.12561063  0.64061375  1
  O  O14  1  0.64669542  0.52520511  0.64204817  1
  O  O15  1  0.87438937  0.51180179  0.14061375  1
  O  O16  1  0.63590577  0.12630481  0.13529479  1
  O  O17  1  0.47479489  0.35330458  0.14204817  1
  O  O18  1  0.46039805  0.30343816  0.03300761  1
  O  O19  1  0.84960337  0.53934955  0.02474286  1
  O  O20  1  0.69494679  0.15152601  0.02686088  1
  O  O21  1  0.46065045  0.15039663  0.52474286  1
  O  O22  1  0.69656184  0.53960195  0.53300761  1
  O  O23  1  0.84847399  0.30505321  0.52686088  1
  O  O24  1  0.53654305  0.69117880  0.96829693  1
  O  O25  1  0.14228479  0.45249380  0.97470800  1
  O  O26  1  0.30463329  0.84545403  0.97514547  1
  O  O27  1  0.54750620  0.85771521  0.47470800  1
  O  O28  1  0.30882120  0.46345695  0.46829693  1
  O  O29  1  0.15454597  0.69536671  0.47514547  1
  O  O30  1  0.12844268  0.63793738  0.35977106  1
  O  O31  1  0.51232064  0.87096967  0.36576660  1
  O  O32  1  0.35971253  0.47968152  0.35964107  1
  O  O33  1  0.12903033  0.48767936  0.86576660  1
  O  O34  1  0.36206262  0.87155732  0.85977106  1
  O  O35  1  0.52031848  0.64028747  0.85964107  1
  O  O36  1  0.03091098  0.84346335  0.41136023  1
  O  O37  1  0.80978263  0.99161372  0.41284042  1
  O  O38  1  0.17324097  0.19536957  0.41132114  1
  O  O39  1  0.00838628  0.19021737  0.91284042  1
  O  O40  1  0.15653665  0.96908902  0.91136023  1
  O  O41  1  0.80463043  0.82675903  0.91132114  1
  O  O42  1  0.96579978  0.16790348  0.58885800  1
  O  O43  1  0.17579330  0.00483799  0.58753323  1
  O  O44  1  0.83056758  0.80622436  0.58924092  1
  O  O45  1  0.99516201  0.82420670  0.08753323  1
  O  O46  1  0.83209652  0.03420022  0.08885800  1
  O  O47  1  0.19377564  0.16943242  0.08924092  1
  O  O48  1  0.67244036  0.16172821  0.74723540  1
  O  O49  1  0.47569097  0.31811995  0.74423959  1
  O  O50  1  0.83519256  0.53440741  0.74365971  1
  O  O51  1  0.68188005  0.52430903  0.24423959  1
  O  O52  1  0.83827179  0.32755964  0.24723540  1
  O  O53  1  0.46559259  0.16480744  0.24365971  1
  O  O54  1  0.65138673  0.51061307  0.92108719  1
  O  O55  1  0.86137678  0.35957947  0.92231830  1
  O  O56  1  0.51042479  0.14507418  0.92162537  1
  O  O57  1  0.64042053  0.13862322  0.42231830  1
  O  O58  1  0.48938693  0.34861327  0.42108719  1
  O  O59  1  0.85492582  0.48957521  0.42162537  1
  O  O60  1  0.34594241  0.48605430  0.07837435  1
  O  O61  1  0.15291903  0.64621691  0.07950846  1
  O  O62  1  0.50777571  0.86439701  0.07671707  1
  O  O63  1  0.35378309  0.84708097  0.57950846  1
  O  O64  1  0.51394570  0.65405759  0.57837435  1
  O  O65  1  0.13560299  0.49222429  0.57671707  1
  O  O66  1  0.30735662  0.83959596  0.25589623  1
  O  O67  1  0.52627526  0.68375829  0.25566043  1
  O  O68  1  0.17539268  0.48346001  0.25454186  1
  O  O69  1  0.31624171  0.47372474  0.75566043  1
  O  O70  1  0.16040404  0.69264338  0.75589623  1
  O  O71  1  0.51653999  0.82460732  0.75454186  1
loop_
_geom_bond_atom_site_label_1
_geom_bond_atom_site_label_2
_geom_bond_distance
_geom_bond_site_symmetry_2
Na0 O36 2.466268 1_555
Na0 O43 2.575358 1_565
Na0 O38 2.581958 1_565
Na0 O37 2.589882 1_455
Na0 O44 2.680908 1_455
Na0 O42 2.752111 1_465
Na1 O40 2.466268 1_555
Na1 O45 2.575358 1_456
Na1 O41 2.581958 1_455
Na1 O39 2.589882 1_565
Na1 O47 2.680908 1_566
Na1 O46 2.752111 1_466
Na2 O48 2.425066 1_555
Na2 O56 2.593388 1_555
Na2 O49 2.593857 1_555
Na2 O50 2.634617 1_555
Na2 O55 2.670411 1_555
Na2 O54 2.719254 1_555
Na3 O52 2.425066 1_555
Na3 O59 2.593388 1_555
Na3 O51 2.593857 1_555
Na3 O53 2.634617 1_555
Na3 O57 2.670411 1_555
Na3 O58 2.719254 1_555
Na4 O61 2.523290 1_555
Na4 O62 2.553974 1_555
Na4 O60 2.569899 1_555
Na4 O67 2.643724 1_555
Na4 O68 2.653762 1_555
Na4 O66 2.731992 1_555
Na5 O63 2.523289 1_555
Na5 O65 2.553974 1_555
Na5 O64 2.569899 1_555
Na5 O69 2.643724 1_555
Na5 O71 2.653762 1_555
Na5 O70 2.731992 1_555
Na6 O53 2.400473 1_555
Na6 O68 2.460167 1_555
Na6 O51 2.512177 1_555
Na6 O67 2.542052 1_555
Na6 O17 2.628255 1_555
Na6 O32 2.782978 1_555
Na6 O10 2.898292 1_555
Na6 O0 2.959917 1_555
Na7 O52 2.354301 1_555
Na7 O51 2.495049 1_555
Na7 O66 2.530638 1_655
Na7 O68 2.578961 1_655
Na7 O15 2.673741 1_555
Na7 O30 2.810762 1_655
Na7 O1 2.914193 1_555
Na7 O11 2.948247 1_655
Na8 O50 2.400473 1_555
Na8 O71 2.460167 1_555
Na8 O49 2.512177 1_555
Na8 O69 2.542052 1_555
Na8 O14 2.628255 1_555
Na8 O35 2.782978 1_555
Na8 O6 2.898292 1_555
Na8 O4 2.959918 1_555
Na9 O48 2.354301 1_555
Na9 O49 2.495049 1_555
Na9 O70 2.530638 1_545
Na9 O71 2.578961 1_545
Na9 O13 2.673741 1_555
Na9 O34 2.810762 1_545
Na9 O3 2.914193 1_555
Na9 O8 2.948247 1_545
Na10 O43 2.403461 1_565
Na10 O65 2.457138 1_555
Na10 O63 2.478408 1_555
Na10 O44 2.526747 1_455
Na10 O29 2.633261 1_555
Na10 O8 2.872183 1_555
Na10 O22 2.904995 1_455
Na10 O12 2.927863 1_455
Na11 O63 2.389690 1_555
Na11 O64 2.443956 1_555
Na11 O42 2.488127 1_565
Na11 O44 2.631678 1_555
Na11 O27 2.682520 1_555
Na11 O6 2.777020 1_555
Na11 O13 2.888379 1_565
Na11 O23 2.994519 1_565
Na12 O45 2.403461 1_455
Na12 O62 2.457138 1_555
Na12 O61 2.478407 1_555
Na12 O47 2.526747 1_565
Na12 O26 2.633261 1_554
Na12 O11 2.872183 1_555
Na12 O18 2.904995 1_565
Na12 O16 2.927863 1_565
Na13 O61 2.389690 1_555
Na13 O60 2.443956 1_555
Na13 O46 2.488127 1_455
Na13 O47 2.631678 1_555
Na13 O25 2.682520 1_554
Na13 O10 2.777020 1_555
Na13 O15 2.888379 1_455
Na13 O20 2.994519 1_455
Na14 O40 2.344165 1_655
Na14 O55 2.512215 1_555
Na14 O54 2.540179 1_555
Na14 O41 2.542768 1_555
Na14 O19 2.702710 1_556
Na14 O4 2.787057 1_555
Na14 O26 2.905981 1_655
Na14 O33 2.949705 1_655
Na15 O56 2.431094 1_555
Na15 O39 2.439648 1_655
Na15 O41 2.464548 1_545
Na15 O5 2.598289 1_555
Na15 O55 2.615324 1_555
Na15 O20 2.847034 1_556
Na15 O34 2.908092 1_545
Na15 O24 2.943107 1_545
Na16 O59 2.431094 1_555
Na16 O37 2.439648 1_545
Na16 O38 2.464548 1_655
Na16 O2 2.598289 1_555
Na16 O57 2.615324 1_555
Na16 O23 2.847034 1_555
Na16 O30 2.908092 1_655
Na16 O28 2.943107 1_655
Na17 O36 2.344165 1_545
Na17 O57 2.512215 1_555
Na17 O58 2.540179 1_555
Na17 O38 2.542768 1_555
Na17 O21 2.702710 1_555
Na17 O0 2.787057 1_555
Na17 O29 2.905981 1_545
Na17 O31 2.949705 1_545
O0 P0 1.533477 1_555
O0 Sc0 2.123212 1_445
O1 P1 1.525423 1_555
O1 Sc0 2.051202 1_555
O2 Si0 1.615377 1_555
O2 Sc0 2.011582 1_545
O3 P2 1.525423 1_555
O3 Sc1 2.051202 1_555
O4 P3 1.533477 1_555
O4 Sc1 2.123212 1_665
O5 Si1 1.615377 1_555
O5 Sc1 2.011582 1_655
O6 Si1 1.654429 1_565
O6 Zr0 2.046721 1_665
O7 P2 1.554496 1_555
O7 Zr0 2.042638 1_555
O8 P3 1.562972 1_455
O8 Zr0 2.118781 1_565
O9 P1 1.554496 1_555
O9 Zr1 2.042638 1_555
O10 Si0 1.654429 1_455
O10 Zr1 2.046721 1_445
O11 P0 1.562972 1_565
O11 Zr1 2.118781 1_455
O12 P4 1.531657 1_555
O12 Sc2 2.046134 1_555
O13 Si2 1.627212 1_555
O13 Sc2 1.992843 1_555
O14 P5 1.526473 1_555
O14 Sc2 2.167752 1_555
O15 Si3 1.627212 1_555
O15 Sc3 1.992843 1_555
O16 P6 1.531657 1_555
O16 Sc3 2.046134 1_555
O17 P7 1.526473 1_555
O17 Sc3 2.167752 1_555
O18 P7 1.567580 1_555
O18 Zr2 2.050321 1_554
O19 Si3 1.647857 1_555
O19 Zr2 2.031185 1_554
O20 P6 1.557823 1_555
O20 Zr2 2.128711 1_554
O21 Si2 1.647857 1_555
O21 Zr3 2.031185 1_555
O22 P5 1.567580 1_555
O22 Zr3 2.050321 1_555
O23 P4 1.557823 1_555
O23 Zr3 2.128711 1_555
O24 P8 1.520462 1_555
O24 Sc4 2.086417 1_556
O25 P9 1.527221 1_555
O25 Sc4 2.093989 1_556
O26 Si4 1.629392 1_555
O26 Sc4 1.996012 1_556
O27 P10 1.527221 1_555
O27 Sc5 2.093989 1_555
O28 P11 1.520462 1_555
O28 Sc5 2.086417 1_555
O29 Si5 1.629392 1_555
O29 Sc5 1.996012 1_555
O30 Si5 1.663984 1_555
O30 Zr4 2.001634 1_555
O31 P10 1.551607 1_555
O31 Zr4 2.103063 1_555
O32 P11 1.552943 1_555
O32 Zr4 2.107302 1_555
O33 P9 1.551607 1_555
O33 Zr5 2.103063 1_555
O34 Si4 1.663984 1_555
O34 Zr5 2.001634 1_555
O35 P8 1.552943 1_555
O35 Zr5 2.107302 1_555
O36 Si5 1.619328 1_555
O36 Sc0 2.098592 1_455
O37 P10 1.534004 1_555
O37 Sc0 2.158415 1_555
O38 P11 1.543798 1_555
O38 Sc0 2.222356 1_445
O39 P9 1.534004 1_555
O39 Sc1 2.158415 1_555
O40 Si4 1.619328 1_555
O40 Sc1 2.098592 1_565
O41 P8 1.543798 1_555
O41 Sc1 2.222356 1_665
O42 P4 1.552892 1_555
O42 Zr0 2.151804 1_655
O43 Si2 1.645424 1_555
O43 Zr0 2.093941 1_555
O44 P5 1.565626 1_555
O44 Zr0 2.191928 1_665
O45 Si3 1.645424 1_555
O45 Zr1 2.093941 1_555
O46 P6 1.552893 1_555
O46 Zr1 2.151804 1_545
O47 P7 1.565626 1_555
O47 Zr1 2.191928 1_445
O48 Si1 1.629055 1_555
O48 Sc2 2.068557 1_555
O49 P2 1.543618 1_555
O49 Sc2 2.202315 1_555
O50 P3 1.529777 1_555
O50 Sc2 2.209107 1_555
O51 P1 1.543618 1_555
O51 Sc3 2.202315 1_555
O52 Si0 1.629055 1_555
O52 Sc3 2.068557 1_555
O53 P0 1.529777 1_555
O53 Sc3 2.209107 1_555
O54 P8 1.556518 1_555
O54 Zr2 2.134287 1_555
O55 P9 1.567066 1_655
O55 Zr2 2.203517 1_555
O56 Si4 1.644222 1_545
O56 Zr2 2.100030 1_555
O57 P10 1.567066 1_545
O57 Zr3 2.203517 1_555
O58 P11 1.556518 1_555
O58 Zr3 2.134287 1_555
O59 Si5 1.644222 1_655
O59 Zr3 2.100030 1_555
O60 P7 1.522849 1_555
O60 Sc4 2.218527 1_555
O61 Si3 1.643349 1_455
O61 Sc4 2.095615 1_555
O62 P6 1.527593 1_565
O62 Sc4 2.169332 1_555
O63 Si2 1.643349 1_565
O63 Sc5 2.095615 1_555
O64 P5 1.522849 1_555
O64 Sc5 2.218527 1_555
O65 P4 1.527593 1_455
O65 Sc5 2.169332 1_555
O66 P0 1.553355 1_565
O66 Zr4 2.165114 1_555
O67 P1 1.540937 1_555
O67 Zr4 2.180459 1_555
O68 Si0 1.674440 1_455
O68 Zr4 2.082143 1_555
O69 P2 1.540937 1_555
O69 Zr5 2.180459 1_555
O70 P3 1.553355 1_455
O70 Zr5 2.165114 1_555
O71 Si1 1.674440 1_565
O71 Zr5 2.082143 1_555
