# generated using pymatgen
data_Li3Sb5(PO4)6
_symmetry_space_group_name_H-M   'P 1'
_cell_length_a   8.64153200
_cell_length_b   8.78572305
_cell_length_c   8.78750773
_cell_angle_alpha   108.69989321
_cell_angle_beta   109.01722205
_cell_angle_gamma   109.75628687
_symmetry_Int_Tables_number   1
_chemical_formula_structural   Li3Sb5(PO4)6
_chemical_formula_sum   'Li3 Sb5 P6 O24'
_cell_volume   519.42383126
_cell_formula_units_Z   1
loop_
 _symmetry_equiv_pos_site_id
 _symmetry_equiv_pos_as_xyz
  1  'x, y, z'
loop_
 _atom_site_type_symbol
 _atom_site_label
 _atom_site_symmetry_multiplicity
 _atom_site_fract_x
 _atom_site_fract_y
 _atom_site_fract_z
 _atom_site_occupancy
  Li  Li0  1  0.01015800  0.27033900  0.46277400  1
  Li  Li1  1  0.19426000  0.21541100  0.23903600  1
  Li  Li2  1  0.49868700  0.98757100  0.78068600  1
  Sb  Sb0  1  0.31395800  0.48656000  0.99000400  1
  Sb  Sb1  1  0.50608600  0.01813500  0.33009500  1
  Sb  Sb2  1  0.81707600  0.48089900  0.99611900  1
  Sb  Sb3  1  0.03235200  0.84747400  0.52352000  1
  Sb  Sb4  1  0.65524500  0.68526500  0.67229600  1
  P  P0  1  0.37111300  0.24129900  0.62758300  1
  P  P1  1  0.12764600  0.75738200  0.88301200  1
  P  P2  1  0.86528700  0.13021000  0.74331400  1
  P  P3  1  0.24818900  0.61704400  0.37689800  1
  P  P4  1  0.62422700  0.38518600  0.25604800  1
  P  P5  1  0.75040100  0.87172900  0.11535000  1
  O  O0  1  0.07378400  0.25723400  0.90441200  1
  O  O1  1  0.33516800  0.07225600  0.66294800  1
  O  O2  1  0.14985500  0.58476200  0.85924300  1
  O  O3  1  0.24028000  0.31477100  0.65829200  1
  O  O4  1  0.73608900  0.16693500  0.81803700  1
  O  O5  1  0.35608900  0.19078700  0.43698200  1
  O  O6  1  0.58009100  0.40432100  0.77310000  1
  O  O7  1  0.16367000  0.80903100  0.73775300  1
  O  O8  1  0.16226100  0.42540400  0.35351600  1
  O  O9  1  0.83726100  0.15249400  0.57239700  1
  O  O10  1  0.10244100  0.69067500  0.36340700  1
  O  O11  1  0.65519300  0.24418500  0.31801500  1
  O  O12  1  0.65671300  0.82827300  0.90756200  1
  O  O13  1  0.42565100  0.35746800  0.19771600  1
  O  O14  1  0.43273100  0.76102600  0.56345300  1
  O  O15  1  0.28971600  0.62849000  0.21855500  1
  O  O16  1  0.93081700  0.05417300  0.23477900  1
  O  O17  1  0.92554500  0.70808200  0.84983200  1
  O  O18  1  0.65931300  0.34572300  0.08672500  1
  O  O19  1  0.77606400  0.58147600  0.42052200  1
  O  O20  1  0.83288500  0.92816200  0.69700200  1
  O  O21  1  0.27168700  0.92745800  0.07547000  1
  O  O22  1  0.59054900  0.86373200  0.16600600  1
  O  O23  1  0.77931200  0.70858000  0.12754000  1
loop_
_geom_bond_atom_site_label_1
_geom_bond_atom_site_label_2
_geom_bond_distance
_geom_bond_site_symmetry_2
Li0 O16 1.968660 1_455
Li0 O3 1.969098 1_555
Li0 O9 2.182657 1_455
Li0 O8 2.226220 1_555
Li1 O8 1.956621 1_555
Li1 O5 1.971977 1_555
Li1 O13 2.182759 1_555
Li1 O16 2.218366 1_455
Li2 O4 1.960535 1_565
Li2 O1 1.967817 1_565
Li2 O14 2.004530 1_555
Li2 O12 2.523289 1_555
Li2 O7 2.612070 1_555
O0 P2 1.568798 1_455
O0 Sb0 2.028960 1_555
O1 P0 1.563895 1_555
O1 Sb3 2.261467 1_545
O2 P1 1.549285 1_555
O2 Sb0 2.115805 1_555
O3 P0 1.532405 1_555
O3 Sb0 2.549495 1_555
O4 P2 1.538577 1_555
O4 Sb2 2.400154 1_555
O5 P0 1.536825 1_555
O5 Sb1 2.464213 1_555
O6 P0 1.587405 1_555
O6 Sb2 2.023566 1_555
O7 P1 1.570688 1_555
O7 Sb3 2.054380 1_555
O8 P3 1.503983 1_555
O9 P2 1.528509 1_555
O9 Sb1 2.500120 1_555
O10 P3 1.587930 1_555
O10 Sb3 2.029981 1_555
O11 P4 1.569850 1_555
O11 Sb1 2.027342 1_555
O12 P5 1.586156 1_556
O12 Sb4 2.039474 1_555
O13 P4 1.526735 1_555
O13 Sb0 2.543405 1_554
O14 P3 1.559979 1_555
O14 Sb4 2.264985 1_555
O15 P3 1.570267 1_555
O15 Sb0 2.115977 1_554
O16 P5 1.505641 1_545
O17 P1 1.548715 1_655
O17 Sb4 2.244577 1_555
O18 P4 1.568548 1_555
O18 Sb2 2.030311 1_554
O19 P4 1.555872 1_555
O19 Sb3 2.241424 1_655
O20 P2 1.587961 1_565
O20 Sb4 2.056394 1_555
O21 P1 1.546810 1_554
O21 Sb1 2.134588 1_565
O22 P5 1.570489 1_555
O22 Sb1 2.133802 1_565
O23 P5 1.565754 1_555
O23 Sb2 2.155736 1_554
