# generated using pymatgen
data_La2MgFe2(TeO6)2
_symmetry_space_group_name_H-M   'P 1'
_cell_length_a   5.68084564
_cell_length_b   5.58095349
_cell_length_c   7.97262307
_cell_angle_alpha   90.45574939
_cell_angle_beta   89.83502040
_cell_angle_gamma   94.34229389
_symmetry_Int_Tables_number   1
_chemical_formula_structural   La2MgFe2(TeO6)2
_chemical_formula_sum   'La2 Mg1 Fe2 Te2 O12'
_cell_volume   252.03411100
_cell_formula_units_Z   1
loop_
 _symmetry_equiv_pos_site_id
 _symmetry_equiv_pos_as_xyz
  1  'x, y, z'
loop_
 _atom_site_type_symbol
 _atom_site_label
 _atom_site_symmetry_multiplicity
 _atom_site_fract_x
 _atom_site_fract_y
 _atom_site_fract_z
 _atom_site_occupancy
  La  La0  1  0.05733400  0.00318200  0.24347700  1
  La  La1  1  0.44215600  0.48423800  0.75035600  1
  Mg  Mg0  1  0.95768400  0.98804000  0.72486600  1
  Fe  Fe0  1  0.51974800  0.98708700  0.00827700  1
  Fe  Fe1  1  0.98539500  0.50848400  0.48707000  1
  Te  Te0  1  0.51535000  0.98919400  0.50342800  1
  Te  Te1  1  0.97721600  0.50768400  0.99531800  1
  O  O0  1  0.00094100  0.61963700  0.75962000  1
  O  O1  1  0.14333300  0.22153500  0.92580800  1
  O  O2  1  0.22853500  0.15912500  0.56493700  1
  O  O3  1  0.27236200  0.70566100  0.03021400  1
  O  O4  1  0.31489600  0.69478900  0.48154600  1
  O  O5  1  0.47926800  0.06661300  0.27185400  1
  O  O6  1  0.57000000  0.91128200  0.74195500  1
  O  O7  1  0.71314000  0.28013900  0.56112300  1
  O  O8  1  0.68577000  0.31485300  0.95459000  1
  O  O9  1  0.81339300  0.83901600  0.46992400  1
  O  O10  1  0.81102500  0.78837500  0.04753000  1
  O  O11  1  0.98864500  0.41027100  0.22848100  1
loop_
_geom_bond_atom_site_label_1
_geom_bond_atom_site_label_2
_geom_bond_distance
_geom_bond_site_symmetry_2
La0 O11 2.338190 1_455
La0 O10 2.358888 1_445
La0 O5 2.407320 1_555
La0 O9 2.416375 1_445
La0 O3 2.718535 1_545
La0 O1 2.844270 1_554
La0 O2 2.849978 1_555
La1 O8 2.386586 1_555
La1 O6 2.439728 1_555
La1 O7 2.483591 1_555
La1 O2 2.566012 1_555
La1 O1 2.574883 1_555
La1 O4 2.583417 1_555
La1 O0 2.672778 1_555
La1 O3 2.749544 1_556
Mg0 O0 2.109603 1_655
Mg0 O2 2.165761 1_665
Mg0 O6 2.215593 1_555
Mg0 O1 2.268331 1_665
Mg0 O9 2.318269 1_555
Mg0 O7 2.584360 1_565
Fe0 O3 2.034993 1_555
Fe0 O8 2.041507 1_564
Fe0 O10 2.086203 1_555
Fe0 O5 2.159534 1_565
Fe0 O6 2.183878 1_554
Fe0 O1 2.676258 1_564
Fe1 O7 2.018156 1_555
Fe1 O4 2.071804 1_655
Fe1 O11 2.129423 1_555
Fe1 O9 2.157320 1_555
Fe1 O0 2.255138 1_655
Fe1 O2 2.554756 1_655
O0 Te1 1.985988 1_455
O1 Te1 1.989757 1_455
O2 Te0 2.004166 1_545
O3 Te1 1.956201 1_454
O4 Te0 1.933930 1_555
O5 Te0 1.914583 1_545
O6 Te0 1.984657 1_555
O7 Te0 1.955882 1_545
O8 Te1 1.931976 1_555
O9 Te0 1.961953 1_555
O10 Te1 1.931303 1_554
O11 Te1 1.943575 1_554
