# generated using pymatgen
data_V6P7O24
_symmetry_space_group_name_H-M   'P 1'
_cell_length_a   26.63882900
_cell_length_b   5.28708200
_cell_length_c   6.53288476
_cell_angle_alpha   73.16087158
_cell_angle_beta   90.00000000
_cell_angle_gamma   90.00000000
_symmetry_Int_Tables_number   1
_chemical_formula_structural   V6P7O24
_chemical_formula_sum   'V12 P14 O48'
_cell_volume   880.65016708
_cell_formula_units_Z   2
loop_
 _symmetry_equiv_pos_site_id
 _symmetry_equiv_pos_as_xyz
  1  'x, y, z'
loop_
 _atom_site_type_symbol
 _atom_site_label
 _atom_site_symmetry_multiplicity
 _atom_site_fract_x
 _atom_site_fract_y
 _atom_site_fract_z
 _atom_site_occupancy
  V  V0  1  0.45203900  0.18085800  0.30937800  1
  V  V1  1  0.04796100  0.18085800  0.30937800  1
  V  V2  1  0.31396300  0.10971500  0.72539700  1
  V  V3  1  0.18603700  0.10971500  0.72539700  1
  V  V4  1  0.90115200  0.20537300  0.91286600  1
  V  V5  1  0.59884800  0.20537300  0.91286600  1
  V  V6  1  0.40115200  0.79462700  0.08713400  1
  V  V7  1  0.09884800  0.79462700  0.08713400  1
  V  V8  1  0.81396300  0.89028500  0.27460300  1
  V  V9  1  0.68603700  0.89028500  0.27460300  1
  V  V10  1  0.95203900  0.81914200  0.69062200  1
  V  V11  1  0.54796100  0.81914200  0.69062200  1
  P  P0  1  0.33196500  0.24023200  0.19643500  1
  P  P1  1  0.16803500  0.24023200  0.19643500  1
  P  P2  1  0.89126900  0.33063900  0.37962500  1
  P  P3  1  0.60873100  0.33063900  0.37962500  1
  P  P4  1  0.75000000  0.46377300  0.09133100  1
  P  P5  1  0.47678600  0.29055800  0.79572200  1
  P  P6  1  0.02321400  0.29055800  0.79572200  1
  P  P7  1  0.97678600  0.70944200  0.20427800  1
  P  P8  1  0.52321400  0.70944200  0.20427800  1
  P  P9  1  0.25000000  0.53622700  0.90866900  1
  P  P10  1  0.39126900  0.66936100  0.62037500  1
  P  P11  1  0.10873100  0.66936100  0.62037500  1
  P  P12  1  0.83196500  0.75976800  0.80356500  1
  P  P13  1  0.66803500  0.75976800  0.80356500  1
  O  O0  1  0.33610500  0.05343100  0.05273700  1
  O  O1  1  0.16389500  0.05343100  0.05273700  1
  O  O2  1  0.45049300  0.12760600  0.00233900  1
  O  O3  1  0.04950700  0.12760600  0.00233900  1
  O  O4  1  0.87689900  0.15690600  0.23483400  1
  O  O5  1  0.62310100  0.15690600  0.23483400  1
  O  O6  1  0.75000000  0.16904600  0.20512000  1
  O  O7  1  0.30732800  0.11759500  0.40855900  1
  O  O8  1  0.19267200  0.11759500  0.40855900  1
  O  O9  1  0.47922300  0.13674600  0.62962200  1
  O  O10  1  0.02077700  0.13674600  0.62962200  1
  O  O11  1  0.90467900  0.15551700  0.60686900  1
  O  O12  1  0.59532100  0.15551700  0.60686900  1
  O  O13  1  0.38191000  0.38849800  0.20554600  1
  O  O14  1  0.11809000  0.38849800  0.20554600  1
  O  O15  1  0.29731900  0.48722900  0.06022700  1
  O  O16  1  0.20268100  0.48722900  0.06022700  1
  O  O17  1  0.94565600  0.44366500  0.29166800  1
  O  O18  1  0.55434400  0.44366500  0.29166800  1
  O  O19  1  0.25000000  0.34409100  0.77322400  1
  O  O20  1  0.47234200  0.59226700  0.16479800  1
  O  O21  1  0.02765800  0.59226700  0.16479800  1
  O  O22  1  0.85575500  0.55153400  0.37206600  1
  O  O23  1  0.64424500  0.55153400  0.37206600  1
  O  O24  1  0.35575500  0.44846600  0.62793400  1
  O  O25  1  0.14424500  0.44846600  0.62793400  1
  O  O26  1  0.97234200  0.40773300  0.83520200  1
  O  O27  1  0.52765800  0.40773300  0.83520200  1
  O  O28  1  0.75000000  0.65590900  0.22677600  1
  O  O29  1  0.44565600  0.55633500  0.70833200  1
  O  O30  1  0.05434400  0.55633500  0.70833200  1
  O  O31  1  0.79731900  0.51277100  0.93977300  1
  O  O32  1  0.70268100  0.51277100  0.93977300  1
  O  O33  1  0.88191000  0.61150200  0.79445400  1
  O  O34  1  0.61809000  0.61150200  0.79445400  1
  O  O35  1  0.40467900  0.84448300  0.39313100  1
  O  O36  1  0.09532100  0.84448300  0.39313100  1
  O  O37  1  0.97922300  0.86325400  0.37037800  1
  O  O38  1  0.52077700  0.86325400  0.37037800  1
  O  O39  1  0.80732800  0.88240500  0.59144100  1
  O  O40  1  0.69267200  0.88240500  0.59144100  1
  O  O41  1  0.25000000  0.83095400  0.79488000  1
  O  O42  1  0.37689900  0.84309400  0.76516600  1
  O  O43  1  0.12310100  0.84309400  0.76516600  1
  O  O44  1  0.95049300  0.87239400  0.99766100  1
  O  O45  1  0.54950700  0.87239400  0.99766100  1
  O  O46  1  0.83610500  0.94656900  0.94726300  1
  O  O47  1  0.66389500  0.94656900  0.94726300  1
loop_
_geom_bond_atom_site_label_1
_geom_bond_atom_site_label_2
_geom_bond_distance
_geom_bond_site_symmetry_2
O0 P0 1.551135 1_555
O0 V2 2.154262 1_554
O0 V6 2.178797 1_545
O1 P1 1.551135 1_555
O1 V3 2.154262 1_554
O1 V7 2.178797 1_545
O2 P5 1.543065 1_554
O2 V0 2.105136 1_555
O2 V6 2.137469 1_545
O3 P6 1.543065 1_554
O3 V1 2.105136 1_555
O3 V7 2.137469 1_545
O4 P2 1.545436 1_555
O4 V4 2.143596 1_554
O4 V8 2.157130 1_545
O5 P3 1.545436 1_555
O5 V5 2.143596 1_554
O5 V9 2.157130 1_545
O6 P4 1.519741 1_555
O6 V8 2.212216 1_545
O6 V9 2.212216 1_545
O7 P0 1.500317 1_555
O7 V2 2.065759 1_555
O8 P1 1.500317 1_555
O8 V3 2.065759 1_555
O9 P5 1.534360 1_555
O9 V0 2.161723 1_555
O9 V11 2.437979 1_545
O10 P6 1.534360 1_555
O10 V1 2.161723 1_555
O10 V10 2.437979 1_445
O11 P2 1.546747 1_555
O11 V4 2.092790 1_555
O11 V10 2.118993 1_545
O12 P3 1.546747 1_555
O12 V5 2.092790 1_555
O12 V11 2.118993 1_545
O13 P0 1.554102 1_555
O13 V6 2.123541 1_555
O13 V0 2.173446 1_555
O14 P1 1.554102 1_555
O14 V7 2.123541 1_555
O14 V1 2.173446 1_555
O15 P9 1.577258 1_554
O15 P0 1.635760 1_555
O16 P9 1.577258 1_554
O16 P1 1.635760 1_555
O17 P7 1.588513 1_555
O17 P2 1.608532 1_555
O18 P8 1.588513 1_555
O18 P3 1.608532 1_555
O19 P9 1.528285 1_555
O19 V2 2.181913 1_555
O19 V3 2.181913 1_555
O20 P8 1.542524 1_555
O20 V6 2.164255 1_555
O20 V0 2.173850 1_555
O21 P7 1.542524 1_455
O21 V7 2.164255 1_555
O21 V1 2.173850 1_555
O22 P2 1.492650 1_555
O22 V8 2.047395 1_555
O23 P3 1.492650 1_555
O23 V9 2.047395 1_555
O24 P10 1.492650 1_555
O24 V2 2.047395 1_555
O25 P11 1.492650 1_555
O25 V3 2.047395 1_555
O26 P6 1.542524 1_655
O26 V4 2.164255 1_555
O26 V10 2.173850 1_555
O27 P5 1.542524 1_555
O27 V5 2.164255 1_555
O27 V11 2.173850 1_555
O28 P4 1.528285 1_555
O28 V9 2.181913 1_555
O28 V8 2.181913 1_555
O29 P5 1.588513 1_555
O29 P10 1.608532 1_555
O30 P6 1.588513 1_555
O30 P11 1.608532 1_555
O31 P4 1.577258 1_556
O31 P12 1.635760 1_555
O32 P4 1.577258 1_556
O32 P13 1.635760 1_555
O33 P12 1.554102 1_555
O33 V4 2.123541 1_555
O33 V10 2.173446 1_555
O34 P13 1.554102 1_555
O34 V5 2.123541 1_555
O34 V11 2.173446 1_555
O35 P10 1.546747 1_555
O35 V6 2.092790 1_555
O35 V0 2.118993 1_565
O36 P11 1.546747 1_555
O36 V7 2.092790 1_555
O36 V1 2.118993 1_565
O37 P7 1.534360 1_555
O37 V10 2.161723 1_555
O37 V1 2.437979 1_665
O38 P8 1.534360 1_555
O38 V11 2.161723 1_555
O38 V0 2.437979 1_565
O39 P12 1.500317 1_555
O39 V8 2.065759 1_555
O40 P13 1.500317 1_555
O40 V9 2.065759 1_555
O41 P9 1.519741 1_555
O41 V2 2.212216 1_565
O41 V3 2.212216 1_565
O42 P10 1.545436 1_555
O42 V6 2.143596 1_556
O42 V2 2.157130 1_565
O43 P11 1.545436 1_555
O43 V7 2.143596 1_556
O43 V3 2.157130 1_565
O44 P7 1.543065 1_556
O44 V10 2.105136 1_555
O44 V4 2.137469 1_565
O45 P8 1.543065 1_556
O45 V11 2.105136 1_555
O45 V5 2.137469 1_565
O46 P12 1.551135 1_555
O46 V8 2.154262 1_556
O46 V4 2.178797 1_565
O47 P13 1.551135 1_555
O47 V9 2.154262 1_556
O47 V5 2.178797 1_565
