# generated using pymatgen
data_As2O3
_symmetry_space_group_name_H-M   'P 1'
_cell_length_a   4.55608138
_cell_length_b   8.28236043
_cell_length_c   9.05182504
_cell_angle_alpha   77.62378663
_cell_angle_beta   90.00000000
_cell_angle_gamma   90.00000000
_symmetry_Int_Tables_number   1
_chemical_formula_structural   As2O3
_chemical_formula_sum   'As8 O12'
_cell_volume   333.63393122
_cell_formula_units_Z   4
loop_
 _symmetry_equiv_pos_site_id
 _symmetry_equiv_pos_as_xyz
  1  'x, y, z'
loop_
 _atom_site_type_symbol
 _atom_site_label
 _atom_site_symmetry_multiplicity
 _atom_site_fract_x
 _atom_site_fract_y
 _atom_site_fract_z
 _atom_site_occupancy
  As  As0  1  0.79966459  0.36866650  0.05970664  1
  As  As1  1  0.29966459  0.63133350  0.94029336  1
  As  As2  1  0.87380221  0.07895847  0.87870061  1
  As  As3  1  0.37380221  0.92104153  0.12129939  1
  As  As4  1  0.36578830  0.42121121  0.62103398  1
  As  As5  1  0.86578830  0.57878879  0.37896602  1
  As  As6  1  0.48290752  0.13140762  0.44153892  1
  As  As7  1  0.98290752  0.86859238  0.55846108  1
  O  O0  1  0.67723159  0.57094597  0.96398747  1
  O  O1  1  0.17723159  0.42905403  0.03601253  1
  O  O2  1  0.75798909  0.28133459  0.89345031  1
  O  O3  1  0.25798909  0.71866541  0.10654969  1
  O  O4  1  0.54643204  0.96355939  0.93603953  1
  O  O5  1  0.04643204  0.03644061  0.06396047  1
  O  O6  1  0.68262368  0.54428335  0.56062113  1
  O  O7  1  0.18262368  0.45571665  0.43937887  1
  O  O8  1  0.50251145  0.22331167  0.60592126  1
  O  O9  1  0.00251145  0.77668833  0.39407874  1
  O  O10  1  0.35844953  0.93347596  0.54694795  1
  O  O11  1  0.85844953  0.06652404  0.45305205  1
loop_
_geom_bond_atom_site_label_1
_geom_bond_atom_site_label_2
_geom_bond_distance
_geom_bond_site_symmetry_2
As0 O1 1.791465 1_655
As0 O0 1.801786 1_554
As0 O2 1.814012 1_554
As1 O0 1.791465 1_555
As1 O1 1.801786 1_556
As1 O3 1.814012 1_556
As2 O4 1.787427 1_545
As2 O2 1.789318 1_555
As2 O5 1.817032 1_656
As3 O5 1.787427 1_565
As3 O3 1.789318 1_555
As3 O4 1.817032 1_554
As4 O6 1.784069 1_555
As4 O8 1.785897 1_555
As4 O7 1.811189 1_555
As5 O7 1.784069 1_655
As5 O9 1.785897 1_655
As5 O6 1.811189 1_555
As6 O11 1.789738 1_555
As6 O10 1.802462 1_545
As6 O8 1.812983 1_555
As7 O10 1.789738 1_655
As7 O11 1.802462 1_565
As7 O9 1.812983 1_655
