# generated using pymatgen
data_Cr2As
_symmetry_space_group_name_H-M   'P 1'
_cell_length_a   3.56074900
_cell_length_b   3.56074900
_cell_length_c   6.32562000
_cell_angle_alpha   90.00000000
_cell_angle_beta   90.00000000
_cell_angle_gamma   90.00000000
_symmetry_Int_Tables_number   1
_chemical_formula_structural   Cr2As
_chemical_formula_sum   'Cr4 As2'
_cell_volume   80.20211495
_cell_formula_units_Z   2
loop_
 _symmetry_equiv_pos_site_id
 _symmetry_equiv_pos_as_xyz
  1  'x, y, z'
loop_
 _atom_site_type_symbol
 _atom_site_label
 _atom_site_symmetry_multiplicity
 _atom_site_fract_x
 _atom_site_fract_y
 _atom_site_fract_z
 _atom_site_occupancy
  Cr  Cr0  1  0.00000000  0.50000000  0.66659200  1
  Cr  Cr1  1  0.50000000  0.00000000  0.33340800  1
  Cr  Cr2  1  0.50000000  0.50000000  0.00000000  1
  Cr  Cr3  1  0.00000000  0.00000000  0.00000000  1
  As  As0  1  0.00000000  0.50000000  0.28067400  1
  As  As1  1  0.50000000  0.00000000  0.71932600  1
loop_
_geom_bond_atom_site_label_1
_geom_bond_atom_site_label_2
_geom_bond_distance
_geom_bond_site_symmetry_2
As0 Cr0 2.441171 1_555
As0 Cr3 2.514341 1_565
As0 Cr3 2.514341 1_555
As0 Cr2 2.514341 1_455
As0 Cr2 2.514341 1_555
As0 Cr1 2.539831 1_565
As0 Cr1 2.539831 1_455
As0 Cr1 2.539831 1_465
As0 Cr1 2.539831 1_555
As1 Cr1 2.441171 1_555
As1 Cr2 2.514341 1_556
As1 Cr3 2.514341 1_556
As1 Cr2 2.514341 1_546
As1 Cr3 2.514341 1_656
As1 Cr0 2.539831 1_655
As1 Cr0 2.539831 1_545
As1 Cr0 2.539831 1_645
As1 Cr0 2.539831 1_555
