# generated using pymatgen
data_La2Be2O5
_symmetry_space_group_name_H-M   'P 1'
_cell_length_a   5.29590513
_cell_length_b   5.29590513
_cell_length_c   7.45791953
_cell_angle_alpha   89.23128541
_cell_angle_beta   89.23128541
_cell_angle_gamma   88.37735835
_symmetry_Int_Tables_number   1
_chemical_formula_structural   La2Be2O5
_chemical_formula_sum   'La4 Be4 O10'
_cell_volume   209.04889166
_cell_formula_units_Z   2
loop_
 _symmetry_equiv_pos_site_id
 _symmetry_equiv_pos_as_xyz
  1  'x, y, z'
loop_
 _atom_site_type_symbol
 _atom_site_label
 _atom_site_symmetry_multiplicity
 _atom_site_fract_x
 _atom_site_fract_y
 _atom_site_fract_z
 _atom_site_occupancy
  La  La0  1  0.79981500  0.72814900  0.69403600  1
  La  La1  1  0.27185100  0.20018500  0.80596400  1
  La  La2  1  0.20018500  0.27185100  0.30596400  1
  La  La3  1  0.72814900  0.79981500  0.19403600  1
  Be  Be0  1  0.68761600  0.25202000  0.46987000  1
  Be  Be1  1  0.74798000  0.31238400  0.03013000  1
  Be  Be2  1  0.25202000  0.68761600  0.96987000  1
  Be  Be3  1  0.31238400  0.74798000  0.53013000  1
  O  O0  1  0.75296100  0.24703900  0.25000000  1
  O  O1  1  0.24703900  0.75296100  0.75000000  1
  O  O2  1  0.50000000  0.50000000  0.50000000  1
  O  O3  1  0.50000000  0.50000000  0.00000000  1
  O  O4  1  0.74383400  0.05626300  0.91599700  1
  O  O5  1  0.94373700  0.25616600  0.58400300  1
  O  O6  1  0.25616600  0.94373700  0.08400300  1
  O  O7  1  0.05626300  0.74383400  0.41599700  1
  O  O8  1  0.50000000  0.00000000  0.50000000  1
  O  O9  1  0.00000000  0.50000000  0.00000000  1
loop_
_geom_bond_atom_site_label_1
_geom_bond_atom_site_label_2
_geom_bond_distance
_geom_bond_site_symmetry_2
La0 O1 2.417990 1_655
La0 O4 2.425374 1_565
La0 O7 2.465236 1_655
La0 O2 2.508444 1_555
La0 O8 2.562072 1_565
La0 O5 2.726280 1_555
La0 O9 2.776522 1_656
La0 O1 2.950988 1_555
La0 O5 3.019297 1_565
La0 O3 3.020808 1_556
La1 O1 2.417990 1_545
La1 O5 2.425374 1_455
La1 O6 2.465236 1_546
La1 O3 2.508444 1_556
La1 O9 2.562072 1_556
La1 O4 2.726280 1_555
La1 O8 2.776522 1_555
La1 O1 2.950988 1_555
La1 O4 3.019297 1_455
La1 O2 3.020808 1_555
La2 O0 2.417990 1_455
La2 O6 2.425374 1_545
La2 O5 2.465236 1_455
La2 O2 2.508444 1_555
La2 O8 2.562072 1_555
La2 O7 2.726280 1_555
La2 O9 2.776522 1_555
La2 O0 2.950988 1_555
La2 O7 3.019297 1_545
La2 O3 3.020808 1_555
La3 O0 2.417990 1_565
La3 O7 2.425374 1_655
La3 O4 2.465236 1_564
La3 O3 2.508444 1_555
La3 O9 2.562072 1_655
La3 O6 2.726280 1_555
La3 O8 2.776522 1_565
La3 O0 2.950988 1_555
La3 O6 3.019297 1_655
La3 O2 3.020808 1_555
Be0 O5 1.611826 1_555
Be0 O2 1.640261 1_555
Be0 O0 1.671743 1_555
Be0 O8 1.697100 1_555
Be1 O4 1.611826 1_554
Be1 O3 1.640261 1_555
Be1 O0 1.671743 1_555
Be1 O9 1.697100 1_655
Be2 O6 1.611826 1_556
Be2 O3 1.640261 1_556
Be2 O1 1.671743 1_555
Be2 O9 1.697100 1_556
Be3 O7 1.611826 1_555
Be3 O2 1.640261 1_555
Be3 O1 1.671743 1_555
Be3 O8 1.697100 1_565
