# generated using pymatgen
data_Na5Y2Ta2Si3(PO8)3
_symmetry_space_group_name_H-M   'P 1'
_cell_length_a   9.15426893
_cell_length_b   9.18191881
_cell_length_c   22.90616045
_cell_angle_alpha   90.31914891
_cell_angle_beta   89.78772738
_cell_angle_gamma   119.52852598
_symmetry_Int_Tables_number   1
_chemical_formula_structural   Na5Y2Ta2Si3(PO8)3
_chemical_formula_sum   'Na15 Y6 Ta6 Si9 P9 O72'
_cell_volume   1675.23903290
_cell_formula_units_Z   3
loop_
 _symmetry_equiv_pos_site_id
 _symmetry_equiv_pos_as_xyz
  1  'x, y, z'
loop_
 _atom_site_type_symbol
 _atom_site_label
 _atom_site_symmetry_multiplicity
 _atom_site_fract_x
 _atom_site_fract_y
 _atom_site_fract_z
 _atom_site_occupancy
  Na  Na0  1  0.98979790  0.63072407  0.24494857  1
  Na  Na1  1  0.36494585  0.01112675  0.74550846  1
  Na  Na2  1  0.03802159  0.69383616  0.57895100  1
  Na  Na3  1  0.64668728  0.96641754  0.58165657  1
  Na  Na4  1  0.30322022  0.95988540  0.07875588  1
  Na  Na5  1  0.03110427  0.35427152  0.08423646  1
  Na  Na6  1  0.98583636  0.68237027  0.91654929  1
  Na  Na7  1  0.97393474  0.30161496  0.41092004  1
  Na  Na8  1  0.32127204  0.01670212  0.41665217  1
  Na  Na9  1  0.98745997  0.98666730  0.49475724  1
  Na  Na10  1  0.99739652  0.00245188  0.99436518  1
  Na  Na11  1  0.67289860  0.32297581  0.83012444  1
  Na  Na12  1  0.66570611  0.32906061  0.32830670  1
  Na  Na13  1  0.35115617  0.65606880  0.16393363  1
  Na  Na14  1  0.34113531  0.64546361  0.66292217  1
  Y  Y0  1  0.98800857  0.99536818  0.35073847  1
  Y  Y1  1  0.99757997  0.00999265  0.85294236  1
  Y  Y2  1  0.67000029  0.33799759  0.68725879  1
  Y  Y3  1  0.66293659  0.32948199  0.18626936  1
  Y  Y4  1  0.34040618  0.66569993  0.01732800  1
  Y  Y5  1  0.34021789  0.66463318  0.51775122  1
  Ta  Ta0  1  0.99799589  0.00058717  0.64785493  1
  Ta  Ta1  1  0.99905519  0.00134218  0.14800515  1
  Ta  Ta2  1  0.65736231  0.33109349  0.98071970  1
  Ta  Ta3  1  0.66399766  0.33770804  0.48090139  1
  Ta  Ta4  1  0.33422329  0.66551946  0.31485086  1
  Ta  Ta5  1  0.34167104  0.67065672  0.81437918  1
  Si  Si0  1  0.01242780  0.30637285  0.25266043  1
  Si  Si1  1  0.69606103  0.99000493  0.75050135  1
  Si  Si2  1  0.36656267  0.04432660  0.58494973  1
  Si  Si3  1  0.67556343  0.63506047  0.58545689  1
  Si  Si4  1  0.95471084  0.63205694  0.08401410  1
  Si  Si5  1  0.36362346  0.32429518  0.08524121  1
  Si  Si6  1  0.34379235  0.96780017  0.91891150  1
  Si  Si7  1  0.62698203  0.97040212  0.41908704  1
  Si  Si8  1  0.03296317  0.65853299  0.41898358  1
  P  P0  1  0.28835655  0.98677548  0.25144340  1
  P  P1  1  0.69921392  0.71276975  0.24829738  1
  P  P2  1  0.28353631  0.29776711  0.74986596  1
  P  P3  1  0.01408407  0.71369604  0.75215845  1
  P  P4  1  0.95303514  0.32105269  0.58179245  1
  P  P5  1  0.67871420  0.04813463  0.08195749  1
  P  P6  1  0.62348441  0.65102116  0.91525212  1
  P  P7  1  0.03293179  0.38107713  0.91782954  1
  P  P8  1  0.34643286  0.37890487  0.41428128  1
  O  O0  1  0.20876422  0.00348418  0.30762670  1
  O  O1  1  0.80678571  0.78464977  0.30286230  1
  O  O2  1  0.99430057  0.20950023  0.31210834  1
  O  O3  1  0.21110729  0.18890488  0.80335439  1
  O  O4  1  0.99879772  0.79480999  0.80761308  1
  O  O5  1  0.80394096  0.01055060  0.80638375  1
  O  O6  1  0.80226351  0.97578354  0.69126648  1
  O  O7  1  0.16615395  0.19903463  0.69558039  1
  O  O8  1  0.03562172  0.83420372  0.69762321  1
  O  O9  1  0.79995112  0.83081911  0.19497047  1
  O  O10  1  0.02124452  0.19114698  0.19475121  1
  O  O11  1  0.16638299  0.96609183  0.19754088  1
  O  O12  1  0.87417020  0.35041470  0.63518935  1
  O  O13  1  0.48152434  0.11697655  0.64159692  1
  O  O14  1  0.65950863  0.52947973  0.64127469  1
  O  O15  1  0.88442629  0.51834221  0.14113576  1
  O  O16  1  0.64661791  0.12061258  0.13656662  1
  O  O17  1  0.47087429  0.34457971  0.14119037  1
  O  O18  1  0.46946599  0.29986805  0.02723229  1
  O  O19  1  0.83129440  0.52534027  0.02593153  1
  O  O20  1  0.70422587  0.16880618  0.02855021  1
  O  O21  1  0.47423152  0.16889595  0.52677668  1
  O  O22  1  0.69877986  0.53038891  0.52705284  1
  O  O23  1  0.83594925  0.29618109  0.52646449  1
  O  O24  1  0.55099391  0.67890524  0.97059777  1
  O  O25  1  0.12464092  0.45442361  0.97513262  1
  O  O26  1  0.31607811  0.86431416  0.97770785  1
  O  O27  1  0.55206206  0.87276277  0.47876238  1
  O  O28  1  0.30452931  0.44615322  0.46830737  1
  O  O29  1  0.13468210  0.67983498  0.47784706  1
  O  O30  1  0.14110813  0.63379937  0.36118269  1
  O  O31  1  0.49695315  0.85552250  0.36315510  1
  O  O32  1  0.36594076  0.49592343  0.36078281  1
  O  O33  1  0.13923972  0.50052544  0.86552468  1
  O  O34  1  0.36119236  0.85423038  0.86144234  1
  O  O35  1  0.50629539  0.63479134  0.86161562  1
  O  O36  1  0.02311128  0.82746945  0.41158924  1
  O  O37  1  0.82197818  0.01860393  0.41493638  1
  O  O38  1  0.20417547  0.19880453  0.40559176  1
  O  O39  1  0.00185294  0.20291957  0.91264494  1
  O  O40  1  0.17641701  0.98196312  0.91108922  1
  O  O41  1  0.80451751  0.79135775  0.90817305  1
  O  O42  1  0.95568673  0.15140708  0.58792085  1
  O  O43  1  0.18137246  0.03635190  0.59254805  1
  O  O44  1  0.85865116  0.81901266  0.59058955  1
  O  O45  1  0.96451929  0.81789132  0.09284545  1
  O  O46  1  0.84915502  0.04544684  0.08796979  1
  O  O47  1  0.18040767  0.14126609  0.09115933  1
  O  O48  1  0.64643422  0.13554537  0.74789844  1
  O  O49  1  0.45908071  0.32093781  0.74189631  1
  O  O50  1  0.86942921  0.53676564  0.74551442  1
  O  O51  1  0.67809641  0.53879240  0.24111817  1
  O  O52  1  0.86139243  0.34926595  0.24852540  1
  O  O53  1  0.46436501  0.13051403  0.24475361  1
  O  O54  1  0.63002467  0.48268566  0.92048123  1
  O  O55  1  0.86168015  0.38360191  0.91922945  1
  O  O56  1  0.52105590  0.15097553  0.92414878  1
  O  O57  1  0.62265023  0.15156955  0.42141411  1
  O  O58  1  0.51369211  0.37291702  0.42142140  1
  O  O59  1  0.85167036  0.47886742  0.42292985  1
  O  O60  1  0.31419372  0.46854901  0.07922312  1
  O  O61  1  0.14752941  0.67066909  0.07707027  1
  O  O62  1  0.52951303  0.87328617  0.07410280  1
  O  O63  1  0.32668882  0.85189658  0.57810538  1
  O  O64  1  0.52823036  0.68131569  0.58177881  1
  O  O65  1  0.12809950  0.47063844  0.57493308  1
  O  O66  1  0.28811754  0.81399990  0.25444841  1
  O  O67  1  0.52737126  0.70780740  0.25459269  1
  O  O68  1  0.19259504  0.49168186  0.25611402  1
  O  O69  1  0.28956573  0.47029460  0.75676823  1
  O  O70  1  0.18622182  0.71062738  0.75525438  1
  O  O71  1  0.51052201  0.80721402  0.75758066  1
loop_
_geom_bond_atom_site_label_1
_geom_bond_atom_site_label_2
_geom_bond_distance
_geom_bond_site_symmetry_2
Na0 O52 2.252650 1_555
Na0 O66 2.409857 1_655
Na0 O51 2.547345 1_555
Na0 O15 2.580391 1_555
Na0 O68 2.735899 1_655
Na0 O11 2.896923 1_655
Na0 O1 2.976699 1_555
Na0 O30 2.999353 1_655
Na1 O48 2.246491 1_555
Na1 O70 2.427758 1_545
Na1 O49 2.535211 1_555
Na1 O13 2.594894 1_555
Na1 O71 2.797485 1_545
Na1 O8 2.847431 1_545
Na1 O3 2.937947 1_555
Na1 O34 3.020248 1_545
Na2 O63 2.304183 1_555
Na2 O44 2.437605 1_455
Na2 O29 2.501306 1_555
Na2 O65 2.559592 1_555
Na3 O64 2.287053 1_555
Na3 O42 2.484213 1_565
Na3 O27 2.510608 1_555
Na3 O63 2.580302 1_555
Na3 O13 2.847097 1_565
Na3 O44 2.869408 1_555
Na3 O6 2.871044 1_555
Na3 O23 2.936566 1_565
Na4 O61 2.313726 1_555
Na4 O47 2.440552 1_565
Na4 O26 2.493703 1_554
Na4 O62 2.560467 1_555
Na4 O45 2.725812 1_455
Na4 O18 2.966267 1_565
Na4 O11 3.003180 1_555
Na4 O16 3.041313 1_565
Na5 O60 2.269080 1_555
Na5 O46 2.483612 1_455
Na5 O61 2.560207 1_555
Na5 O25 2.656720 1_554
Na5 O15 2.780321 1_455
Na5 O47 2.891076 1_555
Na5 O20 2.908990 1_455
Na5 O10 2.926972 1_555
Na6 O41 2.331333 1_555
Na6 O55 2.397721 1_555
Na6 O40 2.428593 1_655
Na6 O4 2.685570 1_555
Na6 O54 2.844656 1_555
Na6 O19 2.891594 1_556
Na6 O33 2.898839 1_655
Na6 O26 2.986594 1_655
Na7 O37 2.265992 1_555
Na7 O59 2.401142 1_555
Na7 O2 2.450319 1_555
Na7 O38 2.703035 1_655
Na7 O57 2.815638 1_555
Na7 O30 2.892711 1_655
Na7 O23 2.918483 1_555
Na7 O28 2.949425 1_655
Na8 O38 2.404668 1_555
Na8 O57 2.406237 1_555
Na8 O36 2.409912 1_545
Na8 O0 2.684163 1_555
Na8 O58 2.851469 1_555
Na8 O21 2.886996 1_555
Na8 O31 2.930791 1_545
Na9 O37 2.487605 1_565
Na9 O36 2.511387 1_655
Na9 O44 2.609220 1_555
Na9 O42 2.705514 1_565
Na9 O43 2.756208 1_665
Na9 O38 2.847209 1_665
Na10 O40 2.576136 1_645
Na10 O39 2.618694 1_655
Na10 O46 2.663035 1_556
Na10 O47 2.690427 1_656
Na10 O41 2.717013 1_545
Na10 O45 2.754232 1_546
Na11 O48 2.474720 1_555
Na11 O55 2.554901 1_555
Na11 O56 2.629964 1_555
Na11 O54 2.667538 1_555
Na11 O50 2.716926 1_555
Na11 O49 2.812232 1_555
Na12 O52 2.497004 1_555
Na12 O57 2.599842 1_555
Na12 O53 2.656824 1_555
Na12 O58 2.677444 1_555
Na12 O59 2.678413 1_555
Na12 O51 2.745146 1_555
Na13 O60 2.497510 1_555
Na13 O67 2.529579 1_555
Na13 O68 2.587811 1_555
Na13 O66 2.741733 1_555
Na13 O62 2.772847 1_555
Na13 O61 2.779996 1_555
Na14 O64 2.433915 1_555
Na14 O69 2.591010 1_555
Na14 O71 2.651512 1_555
Na14 O65 2.710998 1_555
Na14 O70 2.764461 1_555
Na14 O63 2.770346 1_555
O0 P0 1.520418 1_545
O0 Y0 2.214093 1_445
O1 P1 1.525379 1_555
O1 Y0 2.127018 1_555
O2 Si0 1.593525 1_655
O2 Y0 2.135276 1_545
O3 P2 1.514675 1_555
O3 Y1 2.156105 1_455
O4 P3 1.509536 1_655
O4 Y1 2.231759 1_565
O5 Si1 1.572398 1_545
O5 Y1 2.074275 1_555
O6 Si1 1.707820 1_555
O6 Ta0 1.959149 1_565
O7 P2 1.599952 1_555
O7 Ta0 2.027394 1_455
O8 P3 1.619325 1_555
O8 Ta0 2.071994 1_465
O9 P1 1.593269 1_555
O9 Ta1 2.030303 1_565
O10 Si0 1.718474 1_555
O10 Ta1 1.963911 1_455
O11 P0 1.614273 1_555
O11 Ta1 2.060148 1_465
O12 P4 1.507168 1_555
O12 Y2 2.168817 1_555
O13 Si2 1.595205 1_555
O13 Y2 2.174307 1_555
O14 Si3 1.571025 1_555
O14 Y2 2.097071 1_555
O15 Si4 1.600922 1_555
O15 Y3 2.173853 1_555
O16 P5 1.508197 1_555
O16 Y3 2.165888 1_555
O17 Si5 1.570825 1_555
O17 Y3 2.105227 1_555
O18 Si5 1.719317 1_555
O18 Ta2 1.918236 1_554
O19 Si4 1.706470 1_555
O19 Ta2 1.995287 1_554
O20 P5 1.592707 1_555
O20 Ta2 2.063161 1_554
O21 Si2 1.717943 1_555
O21 Ta3 1.968501 1_555
O22 Si3 1.715665 1_555
O22 Ta3 1.943024 1_555
O23 P4 1.603972 1_555
O23 Ta3 2.078614 1_555
O24 P6 1.506898 1_555
O24 Y4 2.152337 1_556
O25 P7 1.523898 1_555
O25 Y4 2.194336 1_556
O26 Si6 1.598503 1_555
O26 Y4 2.149243 1_556
O27 Si7 1.594756 1_555
O27 Y5 2.136245 1_555
O28 P8 1.510411 1_555
O28 Y5 2.178337 1_555
O29 Si8 1.596925 1_555
O29 Y5 2.160594 1_555
O30 Si8 1.730079 1_555
O30 Ta4 1.954068 1_555
O31 Si7 1.711592 1_555
O31 Ta4 1.978878 1_555
O32 P8 1.584920 1_555
O32 Ta4 2.020492 1_555
O33 P7 1.593523 1_555
O33 Ta5 2.097058 1_555
O34 Si6 1.729903 1_555
O34 Ta5 1.928595 1_555
O35 P6 1.591440 1_555
O35 Ta5 2.013832 1_555
O36 Si8 1.607438 1_555
O36 Y0 2.222228 1_455
O37 Si7 1.616099 1_545
O37 Y0 2.194904 1_545
O38 P8 1.531545 1_555
O38 Y0 2.309218 1_445
O39 P7 1.519972 1_555
O39 Y1 2.216945 1_455
O40 Si6 1.611009 1_555
O40 Y1 2.226143 1_465
O41 P6 1.525938 1_555
O41 Y1 2.295331 1_565
O42 P4 1.576822 1_555
O42 Ta0 2.122799 1_555
O43 Si2 1.668900 1_555
O43 Ta0 1.994053 1_455
O44 Si3 1.698400 1_555
O44 Ta0 2.004766 1_565
O45 Si4 1.675043 1_555
O45 Ta1 1.997000 1_565
O46 P5 1.579106 1_555
O46 Ta1 2.122751 1_555
O47 Si5 1.696512 1_555
O47 Ta1 2.000606 1_455
O48 Si1 1.610980 1_545
O48 Y2 2.250040 1_555
O49 P2 1.523887 1_555
O49 Y2 2.237203 1_555
O50 P3 1.514630 1_655
O50 Y2 2.269599 1_555
O51 P1 1.519591 1_555
O51 Y3 2.236698 1_555
O52 Si0 1.616742 1_655
O52 Y3 2.249018 1_555
O53 P0 1.505228 1_545
O53 Y3 2.274274 1_555
O54 P6 1.581226 1_555
O54 Ta2 2.066708 1_555
O55 P7 1.579443 1_655
O55 Ta2 2.194043 1_555
O56 Si6 1.668931 1_545
O56 Ta2 1.981221 1_555
O57 Si7 1.683908 1_545
O57 Ta3 2.064286 1_555
O58 P8 1.568147 1_555
O58 Ta3 2.076361 1_555
O59 Si8 1.669053 1_655
O59 Ta3 2.049912 1_555
O60 Si5 1.603558 1_555
O60 Y4 2.223171 1_555
O61 Si4 1.627364 1_455
O61 Y4 2.247909 1_555
O62 P5 1.520683 1_565
O62 Y4 2.248931 1_555
O63 Si2 1.625203 1_565
O63 Y5 2.250604 1_555
O64 Si3 1.603876 1_555
O64 Y5 2.212019 1_555
O65 P4 1.519963 1_455
O65 Y5 2.292761 1_555
O66 P0 1.587211 1_555
O66 Ta4 2.131589 1_555
O67 P1 1.557316 1_555
O67 Ta4 2.119760 1_555
O68 Si0 1.689619 1_555
O68 Ta4 1.996995 1_555
O69 P2 1.564803 1_555
O69 Ta5 2.113326 1_555
O70 P3 1.591719 1_555
O70 Ta5 2.128026 1_555
O71 Si1 1.708534 1_555
O71 Ta5 1.935699 1_555
