# generated using pymatgen
data_SnPd
_symmetry_space_group_name_H-M   'P 1'
_cell_length_a   4.00620273
_cell_length_b   6.00459695
_cell_length_c   6.50183116
_cell_angle_alpha   90.00000000
_cell_angle_beta   90.00000000
_cell_angle_gamma   90.00000000
_symmetry_Int_Tables_number   1
_chemical_formula_structural   SnPd
_chemical_formula_sum   'Sn4 Pd4'
_cell_volume   156.40566222
_cell_formula_units_Z   4
loop_
 _symmetry_equiv_pos_site_id
 _symmetry_equiv_pos_as_xyz
  1  'x, y, z'
loop_
 _atom_site_type_symbol
 _atom_site_label
 _atom_site_symmetry_multiplicity
 _atom_site_fract_x
 _atom_site_fract_y
 _atom_site_fract_z
 _atom_site_occupancy
  Sn  Sn0  1  0.75000000  0.80721541  0.40668805  1
  Sn  Sn1  1  0.25000000  0.19278459  0.59331195  1
  Sn  Sn2  1  0.75000000  0.30721541  0.09331195  1
  Sn  Sn3  1  0.25000000  0.69278459  0.90668805  1
  Pd  Pd0  1  0.75000000  0.99122267  0.80617860  1
  Pd  Pd1  1  0.25000000  0.00877733  0.19382140  1
  Pd  Pd2  1  0.75000000  0.49122267  0.69382140  1
  Pd  Pd3  1  0.25000000  0.50877733  0.30617860  1
loop_
_geom_bond_atom_site_label_1
_geom_bond_atom_site_label_2
_geom_bond_distance
_geom_bond_site_symmetry_2
Pd0 Sn2 2.661851 1_566
Pd0 Sn1 2.718962 1_565
Pd0 Sn1 2.718962 1_665
Pd0 Sn3 2.765997 1_555
Pd0 Sn3 2.765997 1_655
Pd0 Sn0 2.822653 1_555
Pd1 Sn3 2.661851 1_544
Pd1 Sn0 2.718962 1_445
Pd1 Sn0 2.718962 1_545
Pd1 Sn2 2.765997 1_455
Pd1 Sn2 2.765997 1_555
Pd1 Sn1 2.822653 1_555
Pd2 Sn0 2.661851 1_555
Pd2 Sn3 2.718962 1_555
Pd2 Sn3 2.718962 1_655
Pd2 Sn1 2.765997 1_555
Pd2 Sn1 2.765997 1_655
Pd2 Sn2 2.822653 1_556
Pd3 Sn1 2.661851 1_555
Pd3 Sn2 2.718962 1_455
Pd3 Sn2 2.718962 1_555
Pd3 Sn0 2.765997 1_455
Pd3 Sn0 2.765997 1_555
Pd3 Sn3 2.822653 1_554
