# generated using pymatgen
data_MnWN2
_symmetry_space_group_name_H-M   'P 1'
_cell_length_a   3.04373043
_cell_length_b   3.04373043
_cell_length_c   10.28909800
_cell_angle_alpha   90.00000000
_cell_angle_beta   90.00000000
_cell_angle_gamma   120.00000937
_symmetry_Int_Tables_number   1
_chemical_formula_structural   MnWN2
_chemical_formula_sum   'Mn2 W2 N4'
_cell_volume   82.55060627
_cell_formula_units_Z   2
loop_
 _symmetry_equiv_pos_site_id
 _symmetry_equiv_pos_as_xyz
  1  'x, y, z'
loop_
 _atom_site_type_symbol
 _atom_site_label
 _atom_site_symmetry_multiplicity
 _atom_site_fract_x
 _atom_site_fract_y
 _atom_site_fract_z
 _atom_site_occupancy
  Mn  Mn0  1  0.00000000  0.00000000  0.98530400  1
  Mn  Mn1  1  0.00000000  0.00000000  0.48530400  1
  W  W0  1  0.66666700  0.33333300  0.29178400  1
  W  W1  1  0.33333300  0.66666700  0.79178400  1
  N  N0  1  0.66666700  0.33333300  0.94216900  1
  N  N1  1  0.33333300  0.66666700  0.44216900  1
  N  N2  1  0.00000000  0.00000000  0.18074300  1
  N  N3  1  0.00000000  0.00000000  0.68074300  1
loop_
_geom_bond_atom_site_label_1
_geom_bond_atom_site_label_2
_geom_bond_distance
_geom_bond_site_symmetry_2
Mn0 N0 1.812476 1_455
Mn0 N0 1.812478 1_555
Mn0 N0 1.812478 1_445
Mn0 N2 2.010891 1_556
Mn1 N1 1.812476 1_545
Mn1 N1 1.812478 1_445
Mn1 N1 1.812478 1_555
Mn1 N3 2.010891 1_555
N0 W1 2.341433 1_545
N0 W1 2.341433 1_655
N0 W1 2.341437 1_555
N1 W0 2.341433 1_455
N1 W0 2.341433 1_565
N1 W0 2.341437 1_555
N2 W0 2.096050 1_455
N2 W0 2.096052 1_555
N2 W0 2.096052 1_445
N3 W1 2.096050 1_545
N3 W1 2.096052 1_445
N3 W1 2.096052 1_555
