# generated using pymatgen
data_MgMn6(O5F)2
_symmetry_space_group_name_H-M   'P 1'
_cell_length_a   4.95146249
_cell_length_b   14.04618346
_cell_length_c   3.02736398
_cell_angle_alpha   88.00701430
_cell_angle_beta   89.84335272
_cell_angle_gamma   95.53515950
_symmetry_Int_Tables_number   1
_chemical_formula_structural   MgMn6(O5F)2
_chemical_formula_sum   'Mg1 Mn6 O10 F2'
_cell_volume   209.43814373
_cell_formula_units_Z   1
loop_
 _symmetry_equiv_pos_site_id
 _symmetry_equiv_pos_as_xyz
  1  'x, y, z'
loop_
 _atom_site_type_symbol
 _atom_site_label
 _atom_site_symmetry_multiplicity
 _atom_site_fract_x
 _atom_site_fract_y
 _atom_site_fract_z
 _atom_site_occupancy
  Mg  Mg0  1  0.44095500  0.32661300  0.51196900  1
  Mn  Mn0  1  0.02812000  0.98738100  0.99377900  1
  Mn  Mn1  1  0.93309400  0.35413000  0.01405200  1
  Mn  Mn2  1  0.03664200  0.66677700  0.04049200  1
  Mn  Mn3  1  0.56167300  0.13097600  0.46732800  1
  Mn  Mn4  1  0.50063600  0.52292400  0.56202400  1
  Mn  Mn5  1  0.49147700  0.84082100  0.51219700  1
  O  O0  1  0.19228100  0.60172300  0.54768300  1
  O  O1  1  0.18888000  0.92489800  0.50312700  1
  O  O2  1  0.35333400  0.07972800  0.97517400  1
  O  O3  1  0.34487900  0.76317900  0.02386500  1
  O  O4  1  0.30244300  0.41982600  0.99422200  1
  O  O5  1  0.61622900  0.25250900  0.01898100  1
  O  O6  1  0.69209300  0.58319100  0.06134800  1
  O  O7  1  0.69852200  0.89816200  0.00384000  1
  O  O8  1  0.88358700  0.05633000  0.48405000  1
  O  O9  1  0.77445800  0.41886500  0.53338700  1
  F  F0  1  0.08089500  0.26497200  0.47554700  1
  F  F1  1  0.86591300  0.73569900  0.52693600  1
loop_
_geom_bond_atom_site_label_1
_geom_bond_atom_site_label_2
_geom_bond_distance
_geom_bond_site_symmetry_2
Mg0 O9 2.000948 1_555
Mg0 O5 2.064700 1_556
Mg0 O5 2.083091 1_555
Mg0 O4 2.148669 1_555
Mg0 O4 2.162809 1_554
Mn0 O1 1.956767 1_556
Mn0 O1 1.956838 1_555
Mn0 O7 1.958911 1_456
Mn0 O8 1.966508 1_465
Mn0 O2 1.967281 1_565
Mn0 O8 1.970000 1_466
Mn1 O9 1.900849 1_554
Mn1 O4 1.967152 1_654
Mn1 O5 2.016336 1_555
Mn1 O9 2.036196 1_555
Mn2 O3 1.939481 1_555
Mn2 O0 1.957342 1_555
Mn2 O0 1.969524 1_554
Mn2 O6 1.975038 1_455
Mn3 O2 1.927988 1_555
Mn3 O2 1.934417 1_554
Mn3 O8 1.990405 1_555
Mn3 O5 2.139449 1_555
Mn3 O5 2.426512 1_556
Mn4 O6 1.913323 1_555
Mn4 O6 1.960193 1_556
Mn4 O0 1.970055 1_555
Mn4 O4 2.087853 1_555
Mn4 O9 2.091076 1_555
Mn4 O4 2.433743 1_554
Mn5 O7 1.952953 1_555
Mn5 O3 1.959414 1_556
Mn5 O7 1.961481 1_556
Mn5 O3 1.966490 1_555
Mn5 O1 1.994902 1_555
F0 Mg0 1.910549 1_555
F0 Mn1 2.028924 1_455
F0 Mn1 2.252533 1_456
F1 Mn2 2.017607 1_655
F1 Mn2 2.032084 1_656
F1 Mn5 2.478618 1_555
