# generated using pymatgen
data_MgV4O5F7
_symmetry_space_group_name_H-M   'P 1'
_cell_length_a   5.10307718
_cell_length_b   7.74045654
_cell_length_c   5.37026187
_cell_angle_alpha   93.78658130
_cell_angle_beta   88.25429163
_cell_angle_gamma   89.85865129
_symmetry_Int_Tables_number   1
_chemical_formula_structural   MgV4O5F7
_chemical_formula_sum   'Mg1 V4 O5 F7'
_cell_volume   211.56268360
_cell_formula_units_Z   1
loop_
 _symmetry_equiv_pos_site_id
 _symmetry_equiv_pos_as_xyz
  1  'x, y, z'
loop_
 _atom_site_type_symbol
 _atom_site_label
 _atom_site_symmetry_multiplicity
 _atom_site_fract_x
 _atom_site_fract_y
 _atom_site_fract_z
 _atom_site_occupancy
  Mg  Mg0  1  0.49387200  0.20669400  0.09510000  1
  V  V0  1  0.46551300  0.50367800  0.49136500  1
  V  V1  1  0.48673700  0.96946500  0.51335400  1
  V  V2  1  0.01665900  0.50270800  0.99766100  1
  V  V3  1  0.99672300  0.99044300  0.99641800  1
  O  O0  1  0.71127000  0.98125200  0.19311000  1
  O  O1  1  0.40453900  0.76009800  0.49035500  1
  O  O2  1  0.31465000  0.43216000  0.17965400  1
  O  O3  1  0.30364400  0.05850600  0.82482100  1
  O  O4  1  0.20913900  0.46568400  0.68856600  1
  F  F0  1  0.86454600  0.24938400  0.97922100  1
  F  F1  1  0.80035900  0.54941800  0.30535000  1
  F  F2  1  0.81681400  0.94379600  0.68457700  1
  F  F3  1  0.70467100  0.55357600  0.79241100  1
  F  F4  1  0.58898200  0.25025000  0.47482800  1
  F  F5  1  0.20874800  0.06595600  0.30245300  1
  F  F6  1  0.11313400  0.75799600  0.01575600  1
loop_
_geom_bond_atom_site_label_1
_geom_bond_atom_site_label_2
_geom_bond_distance
_geom_bond_site_symmetry_2
Mg0 O2 1.987602 1_555
Mg0 O3 2.058218 1_554
Mg0 O0 2.168005 1_545
O0 V3 1.777480 1_554
O0 V1 2.044523 1_555
O1 V1 1.672605 1_555
O1 V0 2.008678 1_555
O2 V0 1.912994 1_555
O2 V2 1.929455 1_554
O3 V3 1.886831 1_445
O3 V1 1.973610 1_545
O4 V0 1.696547 1_555
O4 V2 1.907539 1_555
F0 Mg0 2.008243 1_556
F0 V2 2.108036 1_655
F0 V3 2.121879 1_545
F1 V2 1.971653 1_654
F1 V0 1.997188 1_555
F2 V3 1.947618 1_555
F2 V1 1.959351 1_555
F3 V2 2.016410 1_655
F3 V0 2.071817 1_555
F4 V0 2.054367 1_555
F4 Mg0 2.116136 1_555
F4 V1 2.257684 1_545
F5 V1 2.014304 1_545
F5 V3 2.048893 1_444
F5 Mg0 2.147811 1_555
F6 V3 1.903716 1_454
F6 V2 2.034436 1_554
