# generated using pymatgen
data_BiI3
_symmetry_space_group_name_H-M   'P 1'
_cell_length_a   13.28894856
_cell_length_b   7.71696822
_cell_length_c   7.67043963
_cell_angle_alpha   71.84274963
_cell_angle_beta   90.00000000
_cell_angle_gamma   90.00000000
_symmetry_Int_Tables_number   1
_chemical_formula_structural   BiI3
_chemical_formula_sum   'Bi4 I12'
_cell_volume   747.43739209
_cell_formula_units_Z   4
loop_
 _symmetry_equiv_pos_site_id
 _symmetry_equiv_pos_as_xyz
  1  'x, y, z'
loop_
 _atom_site_type_symbol
 _atom_site_label
 _atom_site_symmetry_multiplicity
 _atom_site_fract_x
 _atom_site_fract_y
 _atom_site_fract_z
 _atom_site_occupancy
  Bi  Bi0  1  0.33284144  0.48463184  0.00823780  1
  Bi  Bi1  1  0.83284144  0.01536816  0.99176220  1
  Bi  Bi2  1  0.66715856  0.51536816  0.99176220  1
  Bi  Bi3  1  0.16715856  0.98463184  0.00823780  1
  I  I0  1  0.50689993  0.27527516  0.25322338  1
  I  I1  1  0.00689993  0.22472484  0.74677662  1
  I  I2  1  0.49310007  0.72472484  0.74677662  1
  I  I3  1  0.99310007  0.77527516  0.25322338  1
  I  I4  1  0.33306993  0.22726784  0.76803779  1
  I  I5  1  0.83306993  0.27273216  0.23196221  1
  I  I6  1  0.66693007  0.77273216  0.23196221  1
  I  I7  1  0.16693007  0.72726784  0.76803779  1
  I  I8  1  0.17494070  0.23164854  0.25861315  1
  I  I9  1  0.67494070  0.26835146  0.74138685  1
  I  I10  1  0.82505930  0.76835146  0.74138685  1
  I  I11  1  0.32505930  0.73164854  0.25861315  1
loop_
_geom_bond_atom_site_label_1
_geom_bond_atom_site_label_2
_geom_bond_distance
_geom_bond_site_symmetry_2
Bi0 I8 3.092873 1_555
Bi0 I0 3.098292 1_555
Bi0 I7 3.100243 1_554
Bi0 I11 3.100693 1_555
Bi0 I4 3.101561 1_554
Bi0 I2 3.110394 1_554
Bi1 I9 3.092873 1_555
Bi1 I1 3.098292 1_655
Bi1 I6 3.100243 1_546
Bi1 I10 3.100693 1_545
Bi1 I5 3.101561 1_556
Bi1 I3 3.110394 1_546
Bi2 I10 3.092873 1_555
Bi2 I2 3.098292 1_555
Bi2 I5 3.100243 1_556
Bi2 I9 3.100693 1_555
Bi2 I6 3.101561 1_556
Bi2 I0 3.110394 1_556
Bi3 I11 3.092873 1_555
Bi3 I3 3.098292 1_455
Bi3 I4 3.100243 1_564
Bi3 I8 3.100693 1_565
Bi3 I7 3.101561 1_554
Bi3 I1 3.110394 1_564
