# generated using pymatgen
data_Mg(CuO)2
_symmetry_space_group_name_H-M   'P 1'
_cell_length_a   2.87543626
_cell_length_b   2.87543626
_cell_length_c   7.82699258
_cell_angle_alpha   90.79659695
_cell_angle_beta   90.79659695
_cell_angle_gamma   89.88562049
_symmetry_Int_Tables_number   1
_chemical_formula_structural   Mg(CuO)2
_chemical_formula_sum   'Mg1 Cu2 O2'
_cell_volume   64.70200742
_cell_formula_units_Z   1
loop_
 _symmetry_equiv_pos_site_id
 _symmetry_equiv_pos_as_xyz
  1  'x, y, z'
loop_
 _atom_site_type_symbol
 _atom_site_label
 _atom_site_symmetry_multiplicity
 _atom_site_fract_x
 _atom_site_fract_y
 _atom_site_fract_z
 _atom_site_occupancy
  Mg  Mg0  1  0.00012338  0.99987662  0.75000000  1
  Cu  Cu0  1  1.00136972  0.49867356  0.41216846  1
  Cu  Cu1  1  0.50132644  -0.00136972  0.08783154  1
  O  O0  1  0.49752631  0.50247369  0.25000000  1
  O  O1  1  0.49965414  0.50034586  0.75000000  1
loop_
_geom_bond_atom_site_label_1
_geom_bond_atom_site_label_2
_geom_bond_distance
_geom_bond_site_symmetry_2
Mg0 O1 2.029304 1_555
Mg0 O1 2.033116 1_465
Mg0 O1 2.035270 1_455
Mg0 O1 2.035270 1_565
Cu0 O0 1.912941 1_555
Cu0 O0 1.922862 1_655
Cu1 O0 1.912941 1_555
Cu1 O0 1.922862 1_545
