# generated using pymatgen
data_Na4CaTiSi(PO6)2
_symmetry_space_group_name_H-M   'P 1'
_cell_length_a   9.29629051
_cell_length_b   9.27937549
_cell_length_c   22.06900318
_cell_angle_alpha   90.37236496
_cell_angle_beta   90.00000000
_cell_angle_gamma   120.06031810
_symmetry_Int_Tables_number   1
_chemical_formula_structural   Na4CaTiSi(PO6)2
_chemical_formula_sum   'Na24 Ca6 Ti6 Si6 P12 O72'
_cell_volume   1647.65110272
_cell_formula_units_Z   6
loop_
 _symmetry_equiv_pos_site_id
 _symmetry_equiv_pos_as_xyz
  1  'x, y, z'
loop_
 _atom_site_type_symbol
 _atom_site_label
 _atom_site_symmetry_multiplicity
 _atom_site_fract_x
 _atom_site_fract_y
 _atom_site_fract_z
 _atom_site_occupancy
  Na  Na0  1  0.64867889  0.01396975  0.24448480  1
  Na  Na1  1  0.36687949  0.35592292  0.24991858  1
  Na  Na2  1  0.99027731  0.62639305  0.24352492  1
  Na  Na3  1  0.63611574  0.62639305  0.74352492  1
  Na  Na4  1  0.98904343  0.35592292  0.74991858  1
  Na  Na5  1  0.36529086  0.01396975  0.74448480  1
  Na  Na6  1  0.30919769  0.34644901  0.58227943  1
  Na  Na7  1  0.03324600  0.69179689  0.57904873  1
  Na  Na8  1  0.65303950  0.96341582  0.57531175  1
  Na  Na9  1  0.31037732  0.96341582  0.07531175  1
  Na  Na10  1  0.65855189  0.69179689  0.07904873  1
  Na  Na11  1  0.03725232  0.34644901  0.08227943  1
  Na  Na12  1  0.98346154  0.68260930  0.91429443  1
  Na  Na13  1  0.70356028  0.03009856  0.91031929  1
  Na  Na14  1  0.32341746  0.29878632  0.91205171  1
  Na  Na15  1  0.97536785  0.29878632  0.41205171  1
  Na  Na16  1  0.32653728  0.03009856  0.41031929  1
  Na  Na17  1  0.69914676  0.68260930  0.41429443  1
  Na  Na18  1  0.99731094  0.00510715  0.49811702  1
  Na  Na19  1  0.00779621  0.00510715  0.99811702  1
  Na  Na20  1  0.66609998  0.32592553  0.83234755  1
  Na  Na21  1  0.65982655  0.32592553  0.33234755  1
  Na  Na22  1  0.32259356  0.66165466  0.16513652  1
  Na  Na23  1  0.33906011  0.66165466  0.66513652  1
  Ca  Ca0  1  0.00077190  0.00101376  0.34818173  1
  Ca  Ca1  1  0.00024186  0.00101376  0.84818173  1
  Ca  Ca2  1  0.66473653  0.33161335  0.68148699  1
  Ca  Ca3  1  0.66687782  0.33161335  0.18148699  1
  Ca  Ca4  1  0.33274823  0.66806824  0.01473383  1
  Ca  Ca5  1  0.33531901  0.66806824  0.51473383  1
  Ti  Ti0  1  0.98184829  0.98798610  0.65084252  1
  Ti  Ti1  1  0.00613781  0.98798610  0.15084252  1
  Ti  Ti2  1  0.66835866  0.33245260  0.98393559  1
  Ti  Ti3  1  0.66409494  0.33245260  0.48393559  1
  Ti  Ti4  1  0.33773640  0.68332996  0.31703644  1
  Ti  Ti5  1  0.34559256  0.68332996  0.81703644  1
  Si  Si0  1  0.29846532  0.98943140  0.25419120  1
  Si  Si1  1  0.69096607  0.98943140  0.75419120  1
  Si  Si2  1  0.67445991  0.63715000  0.58665445  1
  Si  Si3  1  0.96269110  0.63715000  0.08665445  1
  Si  Si4  1  0.34638281  0.97894432  0.92061940  1
  Si  Si5  1  0.63256051  0.97894432  0.42061940  1
  P  P0  1  0.69287863  0.70723163  0.25073092  1
  P  P1  1  0.01411817  0.30220031  0.24954233  1
  P  P2  1  0.28808214  0.30220031  0.74954233  1
  P  P3  1  0.01435300  0.70723163  0.75073092  1
  P  P4  1  0.95702171  0.31903873  0.58404655  1
  P  P5  1  0.35887858  0.04160404  0.58313717  1
  P  P6  1  0.68272646  0.04160404  0.08313717  1
  P  P7  1  0.36201802  0.31903873  0.08404655  1
  P  P8  1  0.62643184  0.65305469  0.91755371  1
  P  P9  1  0.02975815  0.37737922  0.91709017  1
  P  P10  1  0.34762007  0.37737922  0.41709017  1
  P  P11  1  0.02662185  0.65305469  0.41755371  1
  O  O0  1  0.22452142  0.01654927  0.31473145  1
  O  O1  1  0.78664272  0.77854555  0.30960978  1
  O  O2  1  0.98805300  0.20923145  0.30864144  1
  O  O3  1  0.22117845  0.20923145  0.80864144  1
  O  O4  1  0.99190282  0.77854555  0.80960978  1
  O  O5  1  0.79202785  0.01654927  0.81473145  1
  O  O6  1  0.80505856  0.96778235  0.69569212  1
  O  O7  1  0.16800505  0.19412951  0.69489719  1
  O  O8  1  0.02781465  0.82658003  0.69580266  1
  O  O9  1  0.79876537  0.82658003  0.19580266  1
  O  O10  1  0.02612447  0.19412951  0.19489719  1
  O  O11  1  0.16272379  0.96778235  0.19569212  1
  O  O12  1  0.88800190  0.34195984  0.64333541  1
  O  O13  1  0.45560541  0.10767346  0.64197599  1
  O  O14  1  0.65430058  0.54143831  0.64797949  1
  O  O15  1  0.88713873  0.54143831  0.14797949  1
  O  O16  1  0.65206905  0.10767346  0.14197599  1
  O  O17  1  0.45395893  0.34195984  0.14333541  1
  O  O18  1  0.46707031  0.30372769  0.02905155  1
  O  O19  1  0.82709553  0.52357495  0.02840554  1
  O  O20  1  0.69129345  0.16329309  0.02933692  1
  O  O21  1  0.47200064  0.16329309  0.52933692  1
  O  O22  1  0.69648042  0.52357495  0.52840554  1
  O  O23  1  0.83665838  0.30372769  0.52905155  1
  O  O24  1  0.55647083  0.67594850  0.97651921  1
  O  O25  1  0.12232732  0.44445452  0.97658626  1
  O  O26  1  0.31577980  0.87199808  0.97963514  1
  O  O27  1  0.55621729  0.87199808  0.47963514  1
  O  O28  1  0.32212620  0.44445452  0.47658626  1
  O  O29  1  0.11947667  0.67594850  0.47651921  1
  O  O30  1  0.13445171  0.63970263  0.36286271  1
  O  O31  1  0.49529137  0.85920952  0.36172943  1
  O  O32  1  0.36363288  0.49542102  0.36242557  1
  O  O33  1  0.13178715  0.49542102  0.86242557  1
  O  O34  1  0.36391715  0.85920952  0.86172943  1
  O  O35  1  0.50524992  0.63970263  0.86286271  1
  O  O36  1  0.99478284  0.79885408  0.41093209  1
  O  O37  1  0.81730192  0.00880249  0.41267154  1
  O  O38  1  0.20108501  0.19901175  0.41095889  1
  O  O39  1  0.99792674  0.19901175  0.91095889  1
  O  O40  1  0.19150057  0.00880249  0.91267154  1
  O  O41  1  0.80407125  0.79885408  0.91093209  1
  O  O42  1  0.95948751  0.15028314  0.58471930  1
  O  O43  1  0.19387602  0.04717321  0.58243993  1
  O  O44  1  0.85849343  0.82175635  0.58940306  1
  O  O45  1  0.96326292  0.82175635  0.08940306  1
  O  O46  1  0.85329719  0.04717321  0.08243993  1
  O  O47  1  0.19079563  0.15028314  0.08471930  1
  O  O48  1  0.65494812  0.14006341  0.74615869  1
  O  O49  1  0.46523176  0.33110913  0.74347203  1
  O  O50  1  0.86819464  0.52930134  0.74435769  1
  O  O51  1  0.66110770  0.52930134  0.24435769  1
  O  O52  1  0.86587837  0.33110913  0.24347203  1
  O  O53  1  0.48511629  0.14006341  0.24615869  1
  O  O54  1  0.62611442  0.48318078  0.91709582  1
  O  O55  1  0.85775238  0.37522773  0.91921993  1
  O  O56  1  0.52796375  0.15749161  0.92194373  1
  O  O57  1  0.62952886  0.15749161  0.42194373  1
  O  O58  1  0.51747635  0.37522773  0.41921993  1
  O  O59  1  0.85706736  0.48318078  0.41709582  1
  O  O60  1  0.33399403  0.46703447  0.07657584  1
  O  O61  1  0.14952491  0.66980272  0.08133620  1
  O  O62  1  0.53886942  0.86321271  0.07549204  1
  O  O63  1  0.32434229  0.86321271  0.57549204  1
  O  O64  1  0.52027681  0.66980272  0.58133620  1
  O  O65  1  0.13303944  0.46703447  0.57657584  1
  O  O66  1  0.29402852  0.80479664  0.25589220  1
  O  O67  1  0.52296795  0.70696488  0.25101634  1
  O  O68  1  0.18274852  0.47208646  0.25047910  1
  O  O69  1  0.28933693  0.47208646  0.75047910  1
  O  O70  1  0.18399593  0.70696488  0.75101634  1
  O  O71  1  0.51076712  0.80479664  0.75589220  1
loop_
_geom_bond_atom_site_label_1
_geom_bond_atom_site_label_2
_geom_bond_distance
_geom_bond_site_symmetry_2
Na0 O53 2.337569 1_555
Na0 O16 2.423430 1_555
Na0 O67 2.484404 1_545
Na0 O52 2.604961 1_555
Na0 O66 2.880271 1_545
Na1 O51 2.383047 1_555
Na1 O68 2.437299 1_555
Na1 O17 2.511174 1_555
Na1 O53 2.725939 1_555
Na1 O32 2.799780 1_555
Na1 O67 2.825022 1_555
Na2 O15 2.282125 1_555
Na2 O52 2.381324 1_555
Na2 O66 2.469747 1_655
Na2 O51 2.722907 1_555
Na2 O68 2.800858 1_655
Na2 O30 2.928781 1_655
Na2 O11 2.945422 1_655
Na3 O14 2.282127 1_555
Na3 O49 2.381323 1_555
Na3 O71 2.469754 1_555
Na3 O50 2.722916 1_555
Na3 O69 2.800867 1_555
Na3 O35 2.928785 1_555
Na3 O6 2.945422 1_555
Na4 O50 2.383039 1_555
Na4 O69 2.437290 1_655
Na4 O12 2.511170 1_555
Na4 O48 2.725932 1_555
Na4 O33 2.799778 1_655
Na4 O70 2.825022 1_655
Na5 O48 2.337578 1_555
Na5 O13 2.423431 1_555
Na5 O70 2.484405 1_545
Na5 O49 2.604959 1_555
Na5 O71 2.880264 1_545
Na6 O65 2.405681 1_555
Na6 O43 2.424677 1_555
Na6 O28 2.490047 1_555
Na6 O64 2.637478 1_555
Na6 O42 2.821014 1_455
Na6 O7 2.843360 1_555
Na7 O63 2.355563 1_555
Na7 O29 2.428566 1_555
Na7 O44 2.470786 1_455
Na7 O65 2.674043 1_555
Na7 O43 2.858949 1_565
Na7 O8 2.868323 1_555
Na7 O22 2.927181 1_455
Na8 O27 2.280336 1_555
Na8 O64 2.366437 1_555
Na8 O42 2.492417 1_565
Na8 O63 2.712069 1_555
Na8 O44 2.827216 1_555
Na8 O23 2.927440 1_565
Na8 O6 2.999662 1_555
Na9 O26 2.280332 1_554
Na9 O61 2.366438 1_555
Na9 O47 2.492425 1_565
Na9 O62 2.712051 1_555
Na9 O45 2.827224 1_455
Na9 O18 2.927440 1_565
Na9 O11 2.999666 1_555
Na10 O62 2.355578 1_555
Na10 O24 2.428572 1_554
Na10 O45 2.470778 1_555
Na10 O60 2.674057 1_555
Na10 O46 2.858949 1_565
Na10 O9 2.868320 1_555
Na10 O19 2.927181 1_555
Na11 O60 2.405664 1_555
Na11 O46 2.424678 1_455
Na11 O25 2.490045 1_554
Na11 O61 2.637482 1_555
Na11 O47 2.821006 1_555
Na11 O10 2.843358 1_555
Na12 O41 2.398615 1_555
Na12 O4 2.468366 1_555
Na12 O55 2.485526 1_555
Na12 O40 2.653364 1_665
Na12 O54 2.882155 1_555
Na12 O19 2.920956 1_556
Na12 O33 2.932982 1_655
Na12 O26 3.039697 1_655
Na13 O5 2.289637 1_555
Na13 O39 2.376583 1_555
Na13 O56 2.461145 1_555
Na13 O41 2.736193 1_545
Na13 O55 2.782557 1_555
Na13 O20 2.922095 1_556
Na13 O34 2.931841 1_545
Na14 O40 2.332255 1_555
Na14 O3 2.446685 1_555
Na14 O54 2.456091 1_555
Na14 O39 2.684531 1_455
Na14 O56 2.807828 1_555
Na14 O18 2.896498 1_556
Na14 O35 2.954804 1_555
Na15 O37 2.332255 1_555
Na15 O2 2.446687 1_555
Na15 O59 2.456076 1_555
Na15 O38 2.684540 1_655
Na15 O57 2.807811 1_555
Na15 O23 2.896489 1_555
Na15 O30 2.954804 1_655
Na16 O0 2.289633 1_555
Na16 O38 2.376575 1_555
Na16 O57 2.461162 1_555
Na16 O36 2.736186 1_445
Na16 O58 2.782559 1_555
Na16 O21 2.922100 1_555
Na16 O31 2.931841 1_545
Na17 O36 2.398623 1_555
Na17 O1 2.468368 1_555
Na17 O58 2.485524 1_555
Na17 O37 2.653363 1_565
Na17 O59 2.882170 1_555
Na17 O22 2.920960 1_555
Na17 O32 2.932982 1_555
Na17 O27 3.039697 1_555
Na18 O42 2.456072 1_555
Na18 O43 2.496095 1_655
Na18 O37 2.532919 1_555
Na18 O44 2.542356 1_545
Na18 O38 2.675097 1_655
Na18 O36 2.696801 1_545
Na19 O47 2.456072 1_556
Na19 O46 2.496095 1_456
Na19 O40 2.532919 1_555
Na19 O45 2.542356 1_446
Na19 O39 2.675097 1_455
Na19 O41 2.696801 1_445
Na20 O56 2.455817 1_555
Na20 O55 2.496242 1_555
Na20 O54 2.504700 1_555
Na20 O48 2.526165 1_555
Na20 O50 2.712482 1_555
Na20 O49 2.725346 1_555
Na21 O57 2.455817 1_555
Na21 O58 2.496242 1_555
Na21 O59 2.504700 1_555
Na21 O53 2.526165 1_555
Na21 O51 2.712482 1_555
Na21 O52 2.725346 1_555
Na22 O68 2.466529 1_555
Na22 O61 2.477538 1_555
Na22 O66 2.482973 1_555
Na22 O67 2.538443 1_555
Na22 O60 2.690433 1_555
Na22 O62 2.781232 1_555
Na23 O69 2.466529 1_555
Na23 O64 2.477537 1_555
Na23 O71 2.482973 1_555
Na23 O70 2.538443 1_555
Na23 O65 2.690433 1_555
Na23 O63 2.781232 1_555
Ca0 O0 2.143196 1_555
Ca0 O2 2.181593 1_455
Ca0 O1 2.192959 1_445
Ca0 O37 2.249887 1_455
Ca0 O38 2.302622 1_555
Ca0 O36 2.317125 1_445
Ca1 O5 2.143196 1_455
Ca1 O3 2.181593 1_555
Ca1 O4 2.192959 1_445
Ca1 O40 2.249887 1_555
Ca1 O39 2.302622 1_455
Ca1 O41 2.317125 1_445
Ca2 O14 2.134285 1_555
Ca2 O13 2.187992 1_555
Ca2 O12 2.197137 1_555
Ca2 O48 2.252911 1_555
Ca2 O49 2.302702 1_555
Ca2 O50 2.314868 1_555
Ca3 O15 2.134285 1_555
Ca3 O16 2.187992 1_555
Ca3 O17 2.197137 1_555
Ca3 O53 2.252911 1_555
Ca3 O52 2.302702 1_555
Ca3 O51 2.314868 1_555
Ca4 O26 2.126954 1_554
Ca4 O25 2.179852 1_554
Ca4 O24 2.211463 1_554
Ca4 O61 2.255901 1_555
Ca4 O62 2.289318 1_555
Ca4 O60 2.323251 1_555
Ca5 O27 2.126954 1_555
Ca5 O28 2.179852 1_555
Ca5 O29 2.211463 1_555
Ca5 O64 2.255901 1_555
Ca5 O63 2.289318 1_555
Ca5 O65 2.323251 1_555
O0 Si0 1.577920 1_545
O1 P0 1.515614 1_555
O2 P1 1.519621 1_655
O3 P2 1.519621 1_555
O4 P3 1.515614 1_655
O5 Si1 1.577920 1_545
O6 Si1 1.744167 1_555
O6 Ti0 1.846513 1_555
O7 P2 1.602775 1_555
O7 Ti0 2.063652 1_445
O8 P3 1.609419 1_555
O8 Ti0 2.017636 1_455
O9 P0 1.609419 1_555
O9 Ti1 2.017636 1_655
O10 P1 1.602775 1_555
O10 Ti1 2.063652 1_545
O11 Si0 1.744167 1_555
O11 Ti1 1.846513 1_555
O12 P4 1.517253 1_555
O13 P5 1.519189 1_555
O14 Si2 1.582543 1_555
O15 Si3 1.582543 1_555
O16 P6 1.519189 1_555
O17 P7 1.517253 1_555
O18 P7 1.607396 1_555
O18 Ti2 2.016849 1_554
O19 Si3 1.733104 1_555
O19 Ti2 1.908286 1_554
O20 P6 1.618174 1_555
O20 Ti2 1.966991 1_554
O21 P5 1.618174 1_555
O21 Ti3 1.966991 1_555
O22 Si2 1.733104 1_555
O22 Ti3 1.908286 1_555
O23 P4 1.607396 1_555
O23 Ti3 2.016849 1_555
O24 P8 1.515373 1_555
O25 P9 1.518140 1_555
O26 Si4 1.579884 1_555
O27 Si5 1.579884 1_555
O28 P10 1.518140 1_555
O29 P11 1.515373 1_555
O30 P11 1.612285 1_555
O30 Ti4 1.999223 1_555
O31 Si5 1.764306 1_555
O31 Ti4 1.834669 1_555
O32 P10 1.590965 1_555
O32 Ti4 2.131900 1_555
O33 P9 1.590965 1_555
O33 Ti5 2.131900 1_555
O34 Si4 1.764306 1_555
O34 Ti5 1.834669 1_555
O35 P8 1.612285 1_555
O35 Ti5 1.999223 1_555
O36 P11 1.530725 1_655
O37 Si5 1.606536 1_545
O38 P10 1.533547 1_555
O39 P9 1.533550 1_655
O40 Si4 1.606527 1_545
O41 P8 1.530731 1_555
O42 P4 1.577719 1_555
O42 Ti0 2.186999 1_545
O43 P5 1.560518 1_555
O43 Ti0 2.322033 1_445
O44 Si2 1.711051 1_555
O44 Ti0 1.932244 1_555
O45 Si3 1.711056 1_555
O45 Ti1 1.932244 1_655
O46 P6 1.560509 1_555
O46 Ti1 2.322033 1_645
O47 P7 1.577724 1_555
O47 Ti1 2.186999 1_545
O48 Si1 1.602933 1_545
O49 P2 1.536184 1_555
O50 P3 1.530203 1_655
O51 P0 1.530206 1_555
O52 P1 1.536174 1_655
O53 Si0 1.602940 1_545
O54 P8 1.574814 1_555
O54 Ti2 2.205325 1_555
O55 P9 1.589808 1_655
O55 Ti2 2.145809 1_555
O56 Si4 1.671179 1_545
O56 Ti2 2.014765 1_555
O57 Si5 1.671170 1_545
O57 Ti3 2.014765 1_555
O58 P10 1.589826 1_555
O58 Ti3 2.145809 1_555
O59 P11 1.574805 1_655
O59 Ti3 2.205325 1_555
O60 P7 1.530489 1_555
O61 Si3 1.611058 1_455
O62 P6 1.528304 1_565
O63 P5 1.528298 1_565
O64 Si2 1.611077 1_555
O65 P4 1.530477 1_455
O66 Si0 1.693674 1_555
O66 Ti4 1.932608 1_555
O67 P0 1.578313 1_555
O67 Ti4 2.182182 1_555
O68 P1 1.570623 1_555
O68 Ti4 2.282328 1_555
O69 P2 1.570628 1_555
O69 Ti5 2.282328 1_555
O70 P3 1.578304 1_555
O70 Ti5 2.182182 1_555
O71 Si1 1.693679 1_555
O71 Ti5 1.932608 1_555
