# generated using pymatgen
data_MgV4(FeO6)2
_symmetry_space_group_name_H-M   'P 1'
_cell_length_a   7.01681771
_cell_length_b   7.01681882
_cell_length_c   5.78109549
_cell_angle_alpha   72.26554256
_cell_angle_beta   107.73445486
_cell_angle_gamma   100.10585191
_symmetry_Int_Tables_number   1
_chemical_formula_structural   MgV4(FeO6)2
_chemical_formula_sum   'Mg1 V4 Fe2 O12'
_cell_volume   257.15188853
_cell_formula_units_Z   1
loop_
 _symmetry_equiv_pos_site_id
 _symmetry_equiv_pos_as_xyz
  1  'x, y, z'
loop_
 _atom_site_type_symbol
 _atom_site_label
 _atom_site_symmetry_multiplicity
 _atom_site_fract_x
 _atom_site_fract_y
 _atom_site_fract_z
 _atom_site_occupancy
  Mg  Mg0  1  0.73185900  0.73185900  0.75000000  1
  V  V0  1  0.18622100  0.60683600  0.78394000  1
  V  V1  1  0.38445000  0.79779600  0.29127400  1
  V  V2  1  0.60683600  0.18622100  0.71606000  1
  V  V3  1  0.79779600  0.38445000  0.20872600  1
  Fe  Fe0  1  0.08863300  0.08863300  0.75000000  1
  Fe  Fe1  1  0.92021500  0.92021500  0.25000000  1
  O  O0  1  0.00608000  0.79514100  0.66043400  1
  O  O1  1  0.08593900  0.37366500  0.75899500  1
  O  O2  1  0.20730400  0.97004300  0.16641800  1
  O  O3  1  0.40152000  0.68382400  0.62156500  1
  O  O4  1  0.37366500  0.08593900  0.74100500  1
  O  O5  1  0.32624800  0.62595800  0.11090400  1
  O  O6  1  0.68382400  0.40152000  0.87843500  1
  O  O7  1  0.63564800  0.88558200  0.33037700  1
  O  O8  1  0.62595800  0.32624800  0.38909600  1
  O  O9  1  0.79514100  0.00608000  0.83956600  1
  O  O10  1  0.88558200  0.63564800  0.16962300  1
  O  O11  1  0.97004300  0.20730400  0.33358200  1
loop_
_geom_bond_atom_site_label_1
_geom_bond_atom_site_label_2
_geom_bond_distance
_geom_bond_site_symmetry_2
Mg0 O0 2.081999 1_655
Mg0 O9 2.081999 1_565
Mg0 O3 2.206241 1_555
Mg0 O6 2.206242 1_555
Mg0 O10 2.273294 1_556
Mg0 O7 2.273294 1_555
Fe0 O4 2.019990 1_555
Fe0 O1 2.019990 1_555
Fe0 O9 2.212002 1_455
Fe0 O0 2.212002 1_545
Fe0 O2 2.232200 1_546
Fe0 O11 2.232200 1_455
Fe1 O7 2.142000 1_555
Fe1 O10 2.142000 1_555
Fe1 O2 2.157924 1_655
Fe1 O11 2.157924 1_565
Fe1 O9 2.192997 1_564
Fe1 O0 2.192997 1_655
O0 V0 1.820695 1_555
O1 V0 1.694319 1_555
O2 V1 1.725106 1_555
O3 V1 1.806621 1_555
O3 V0 1.929729 1_555
O4 V2 1.694319 1_555
O5 V1 1.744032 1_555
O5 V0 1.879653 1_554
O6 V3 1.806621 1_556
O6 V2 1.929729 1_555
O7 V1 1.731588 1_555
O8 V3 1.744031 1_555
O8 V2 1.879653 1_555
O9 V2 1.820695 1_555
O10 V3 1.731588 1_555
O11 V3 1.725106 1_555
