# generated using pymatgen
data_Na3LaGa(PO4)3
_symmetry_space_group_name_H-M   'P 1'
_cell_length_a   9.17309393
_cell_length_b   9.10522247
_cell_length_c   22.96553175
_cell_angle_alpha   89.77992016
_cell_angle_beta   90.21961184
_cell_angle_gamma   119.60056670
_symmetry_Int_Tables_number   1
_chemical_formula_structural   Na3LaGa(PO4)3
_chemical_formula_sum   'Na18 La6 Ga6 P18 O72'
_cell_volume   1667.79720335
_cell_formula_units_Z   6
loop_
 _symmetry_equiv_pos_site_id
 _symmetry_equiv_pos_as_xyz
  1  'x, y, z'
loop_
 _atom_site_type_symbol
 _atom_site_label
 _atom_site_symmetry_multiplicity
 _atom_site_fract_x
 _atom_site_fract_y
 _atom_site_fract_z
 _atom_site_occupancy
  Na  Na0  1  0.00129510  0.00129831  0.50469134  1
  Na  Na1  1  0.99669971  0.99639184  0.00298977  1
  Na  Na2  1  0.63427581  0.31675880  0.83122232  1
  Na  Na3  1  0.68598601  0.36815435  0.33543939  1
  Na  Na4  1  0.32748474  0.66593162  0.17562492  1
  Na  Na5  1  0.33401883  0.66794905  0.66521754  1
  Na  Na6  1  0.63852657  0.00011013  0.24850938  1
  Na  Na7  1  0.36043971  0.36060823  0.24866450  1
  Na  Na8  1  0.63913692  0.63156900  0.74134779  1
  Na  Na9  1  0.98770710  0.35765857  0.73947552  1
  Na  Na10  1  0.04160374  0.70670299  0.58615875  1
  Na  Na11  1  0.66648271  0.96719430  0.58645722  1
  Na  Na12  1  0.29588816  0.96683444  0.09325633  1
  Na  Na13  1  0.02218160  0.32635985  0.09451735  1
  Na  Na14  1  0.97487271  0.66597269  0.91901265  1
  Na  Na15  1  0.69370484  0.02766765  0.91773497  1
  Na  Na16  1  0.96966924  0.30315530  0.41655096  1
  Na  Na17  1  0.33545233  0.03449034  0.41829637  1
  La  La0  1  0.98654677  0.98181843  0.34169037  1
  La  La1  1  0.02110272  0.01687032  0.84058564  1
  La  La2  1  0.65860934  0.34389455  0.99435988  1
  La  La3  1  0.34684373  0.65917541  0.02356348  1
  La  La4  1  0.33919516  0.65322322  0.52114990  1
  La  La5  1  0.33197845  0.67062399  0.81065653  1
  Ga  Ga0  1  0.01138917  0.00808815  0.64546076  1
  Ga  Ga1  1  0.99265099  0.98904834  0.15768903  1
  Ga  Ga2  1  0.65939241  0.32855165  0.67834953  1
  Ga  Ga3  1  0.67269018  0.34079369  0.18353252  1
  Ga  Ga4  1  0.65914063  0.33770647  0.48408435  1
  Ga  Ga5  1  0.32430850  0.66323472  0.31848917  1
  P  P0  1  0.31336974  -0.00003548  0.24912951  1
  P  P1  1  0.68968826  0.68667993  0.24613369  1
  P  P2  1  0.99930842  0.31393271  0.24902270  1
  P  P3  1  0.31286462  0.29769638  0.73736450  1
  P  P4  1  0.98471593  0.68811083  0.73848945  1
  P  P5  1  0.70788060  0.01200697  0.73808830  1
  P  P6  1  0.93792638  0.31860109  0.58466628  1
  P  P7  1  0.37201386  0.05892593  0.58287622  1
  P  P8  1  0.68822833  0.63108942  0.58662852  1
  P  P9  1  0.96211268  0.64582523  0.09045728  1
  P  P10  1  0.68324198  0.04107995  0.09367236  1
  P  P11  1  0.34466106  0.30833224  0.09829953  1
  P  P12  1  0.65047517  0.67054704  0.90979475  1
  P  P13  1  0.01904877  0.35573809  0.91794271  1
  P  P14  1  0.33431037  0.97510718  0.92259288  1
  P  P15  1  0.62402987  0.97396225  0.41643068  1
  P  P16  1  0.34888564  0.37401538  0.41078097  1
  P  P17  1  0.03131277  0.65028487  0.41961574  1
  O  O0  1  0.25087835  0.04638897  0.30421070  1
  O  O1  1  0.78141178  0.73454998  0.30425615  1
  O  O2  1  0.95112697  0.20567646  0.30497236  1
  O  O3  1  0.25943610  0.22092157  0.79860361  1
  O  O4  1  0.96985027  0.76012392  0.79784367  1
  O  O5  1  0.79844253  0.03923641  0.79773998  1
  O  O6  1  0.81667350  0.99573601  0.68917866  1
  O  O7  1  0.18010404  0.19081261  0.69122874  1
  O  O8  1  0.00280255  0.80890593  0.68792667  1
  O  O9  1  0.79188033  0.82565106  0.19973483  1
  O  O10  1  0.03445802  0.21694547  0.19940911  1
  O  O11  1  0.19187266  0.97081191  0.19739921  1
  O  O12  1  0.85060413  0.33647836  0.63940748  1
  O  O13  1  0.48694697  0.14993940  0.63453570  1
  O  O14  1  0.67294332  0.52989926  0.64214869  1
  O  O15  1  0.84523296  0.50742951  0.13349471  1
  O  O16  1  0.66562488  0.15164787  0.14132920  1
  O  O17  1  0.46583027  0.32397992  0.14737408  1
  O  O18  1  0.40849750  0.28405578  0.03905051  1
  O  O19  1  0.89157352  0.59731919  0.02767957  1
  O  O20  1  0.71105778  0.12977255  0.03335521  1
  O  O21  1  0.44834613  0.15420552  0.52403446  1
  O  O22  1  0.69861623  0.53830150  0.53134540  1
  O  O23  1  0.83017372  0.29511116  0.52845540  1
  O  O24  1  0.54890089  0.67628201  0.96261756  1
  O  O25  1  0.11701474  0.45114387  0.97324551  1
  O  O26  1  0.33269056  0.88438828  0.98014318  1
  O  O27  1  0.55270135  0.87866152  0.47343911  1
  O  O28  1  0.30445410  0.44477082  0.46339778  1
  O  O29  1  0.12579528  0.67801930  0.47724098  1
  O  O30  1  0.12809261  0.62127392  0.36799337  1
  O  O31  1  0.51174690  0.87603677  0.36233661  1
  O  O32  1  0.36639596  0.48055954  0.35436912  1
  O  O33  1  0.11150344  0.45090423  0.86170569  1
  O  O34  1  0.34066708  0.87263665  0.86993049  1
  O  O35  1  0.56346303  0.66756592  0.85185529  1
  O  O36  1  0.02052021  0.81243388  0.41066130  1
  O  O37  1  0.80725711  0.00993815  0.41115335  1
  O  O38  1  0.19762562  0.19148505  0.40550645  1
  O  O39  1  0.99120731  0.17470398  0.91945323  1
  O  O40  1  0.17069299  0.98196440  0.92048829  1
  O  O41  1  0.82347880  0.83202435  0.91399102  1
  O  O42  1  0.95911627  0.15774107  0.58737400  1
  O  O43  1  0.18876629  0.03016401  0.58771169  1
  O  O44  1  0.85209302  0.81130386  0.58649355  1
  O  O45  1  0.98586866  0.82379299  0.10147053  1
  O  O46  1  0.84202278  0.02517908  0.10305940  1
  O  O47  1  0.16874177  0.14800843  0.10405348  1
  O  O48  1  0.68428061  0.16860964  0.73225300  1
  O  O49  1  0.49261781  0.32528661  0.73100680  1
  O  O50  1  0.82386438  0.50974945  0.73595103  1
  O  O51  1  0.65687874  0.50479540  0.23338395  1
  O  O52  1  0.84701970  0.34014158  0.23623292  1
  O  O53  1  0.49518954  0.15256771  0.23872341  1
  O  O54  1  0.67413908  0.51461727  0.91265338  1
  O  O55  1  0.84547270  0.34641653  0.91718139  1
  O  O56  1  0.49548582  0.14856269  0.91886265  1
  O  O57  1  0.62873979  0.14987759  0.41947346  1
  O  O58  1  0.51333842  0.36563671  0.42070445  1
  O  O59  1  0.85572756  0.48629240  0.42315314  1
  O  O60  1  0.31816723  0.46367636  0.09893348  1
  O  O61  1  0.13792213  0.65734705  0.09385233  1
  O  O62  1  0.51868604  0.86923202  0.09516569  1
  O  O63  1  0.35382334  0.87862140  0.58313984  1
  O  O64  1  0.54058475  0.66777353  0.58823466  1
  O  O65  1  0.11069395  0.48105294  0.58448040  1
  O  O66  1  0.33128545  0.83778143  0.25799254  1
  O  O67  1  0.51482389  0.67913810  0.25067521  1
  O  O68  1  0.16712350  0.48543735  0.25702759  1
  O  O69  1  0.32545863  0.47521507  0.73626601  1
  O  O70  1  0.13700972  0.65744855  0.73650184  1
  O  O71  1  0.53781762  0.84540377  0.73698145  1
loop_
_geom_bond_atom_site_label_1
_geom_bond_atom_site_label_2
_geom_bond_distance
_geom_bond_site_symmetry_2
Na0 O44 2.459849 1_445
Na0 O43 2.488727 1_555
Na0 O42 2.520964 1_455
Na0 O37 2.810089 1_455
Na0 O36 2.825345 1_545
Na0 O38 2.889794 1_555
Na1 O39 2.524907 1_564
Na1 O40 2.527198 1_654
Na1 O41 2.567393 1_554
Na1 O45 2.723037 1_555
Na1 O47 2.761806 1_665
Na1 O46 2.785753 1_565
Na2 O56 2.467191 1_555
Na2 O54 2.499284 1_555
Na2 O49 2.658359 1_555
Na2 O55 2.679770 1_555
Na2 O48 2.799791 1_555
Na2 O50 2.807151 1_555
Na3 O59 2.444843 1_555
Na3 O58 2.516071 1_555
Na3 O57 2.626305 1_555
Na3 O51 2.722750 1_555
Na3 O52 2.800066 1_555
Na3 O53 2.908528 1_555
Na4 O67 2.390202 1_555
Na4 O68 2.443121 1_555
Na4 O66 2.448704 1_555
Na4 O60 2.523692 1_555
Na4 O61 2.529490 1_555
Na4 O62 2.590033 1_555
Na5 O69 2.364524 1_555
Na5 O70 2.409538 1_555
Na5 O71 2.415489 1_555
Na5 O64 2.597076 1_555
Na5 O63 2.626065 1_555
Na5 O65 2.661144 1_555
Na6 O53 2.346227 1_555
Na6 O66 2.462140 1_545
Na6 O67 2.560153 1_545
Na6 O52 2.733243 1_555
Na6 O16 2.768411 1_555
Na6 O9 2.826688 1_545
Na6 O2 2.845225 1_555
Na6 O31 2.857441 1_545
Na7 O51 2.391255 1_555
Na7 O67 2.522350 1_555
Na7 O68 2.543383 1_555
Na7 O17 2.607436 1_555
Na7 O32 2.655054 1_555
Na7 O53 2.736201 1_555
Na7 O0 2.822066 1_555
Na7 O10 2.837878 1_555
Na8 O49 2.437181 1_555
Na8 O50 2.444700 1_555
Na8 O69 2.504334 1_555
Na8 O14 2.539364 1_555
Na8 O71 2.539722 1_555
Na8 O35 2.697166 1_555
Na9 O70 2.374334 1_655
Na9 O48 2.450127 1_555
Na9 O50 2.497490 1_555
Na9 O12 2.577184 1_555
Na9 O69 2.734071 1_655
Na9 O5 2.868083 1_555
Na9 O33 2.988563 1_655
Na10 O44 2.359023 1_455
Na10 O65 2.431397 1_555
Na10 O63 2.495892 1_555
Na10 O43 2.563287 1_565
Na10 O8 2.608688 1_555
Na10 O29 2.672174 1_555
Na11 O42 2.369651 1_565
Na11 O64 2.378476 1_555
Na11 O63 2.568211 1_555
Na11 O6 2.675229 1_555
Na11 O44 2.702061 1_555
Na11 O27 2.764062 1_555
Na11 O23 2.915388 1_565
Na12 O61 2.450855 1_555
Na12 O47 2.459505 1_565
Na12 O45 2.482431 1_455
Na12 O11 2.585384 1_555
Na12 O62 2.600364 1_555
Na12 O26 2.774461 1_554
Na12 O18 2.827390 1_565
Na13 O60 2.364438 1_555
Na13 O46 2.410626 1_455
Na13 O47 2.577668 1_555
Na13 O10 2.626456 1_555
Na13 O61 2.654944 1_555
Na13 O20 2.874711 1_455
Na13 O15 2.969892 1_455
Na13 O25 2.970208 1_554
Na14 O54 2.402796 1_555
Na14 O41 2.509903 1_555
Na14 O40 2.529922 1_655
Na14 O55 2.542695 1_555
Na14 O19 2.594874 1_556
Na14 O4 2.915513 1_555
Na15 O39 2.373112 1_555
Na15 O55 2.523845 1_555
Na15 O56 2.548806 1_555
Na15 O41 2.587415 1_545
Na15 O20 2.794584 1_556
Na15 O5 2.906271 1_555
Na15 O24 2.974901 1_545
Na15 O34 3.025561 1_545
Na16 O37 2.331206 1_555
Na16 O59 2.370852 1_555
Na16 O2 2.692194 1_555
Na16 O57 2.724301 1_555
Na16 O30 2.752197 1_655
Na16 O38 2.752674 1_655
Na16 O23 2.859816 1_555
Na16 O28 2.885240 1_655
Na17 O38 2.346796 1_555
Na17 O57 2.355812 1_555
Na17 O36 2.587081 1_545
Na17 O58 2.626213 1_555
Na17 O21 2.653921 1_555
Na17 O0 2.746540 1_555
Na17 O31 2.946776 1_545
La0 O1 2.272898 1_555
La0 O36 2.331726 1_655
La0 O0 2.360016 1_665
La0 O2 2.368575 1_565
La0 O37 2.398849 1_565
La0 O38 2.426831 1_665
La1 O3 2.269541 1_555
La1 O5 2.361225 1_455
La1 O4 2.361752 1_445
La1 O40 2.399641 1_545
La1 O39 2.415410 1_455
La1 O41 2.438930 1_445
La2 O18 2.322260 1_556
La2 O19 2.367784 1_556
La2 O54 2.391348 1_555
La2 O20 2.396760 1_556
La2 O56 2.404813 1_555
La2 O55 2.462595 1_555
La3 O24 2.269741 1_554
La3 O25 2.328309 1_554
La3 O26 2.337204 1_554
La3 O60 2.398148 1_555
La3 O62 2.423376 1_555
La3 O61 2.504154 1_555
La4 O28 2.209441 1_555
La4 O27 2.297263 1_555
La4 O29 2.306407 1_555
La4 O64 2.354111 1_555
La4 O65 2.392918 1_555
La4 O63 2.450632 1_555
La5 O34 2.261910 1_555
La5 O35 2.334039 1_555
La5 O33 2.338830 1_555
La5 O70 2.424764 1_555
La5 O71 2.448658 1_555
La5 O69 2.450595 1_555
Ga0 O7 1.930093 1_555
Ga0 O6 2.006343 1_445
Ga0 O8 2.022953 1_545
Ga0 O43 2.034245 1_555
Ga0 O42 2.119626 1_455
Ga0 O44 2.143942 1_445
Ga1 O9 1.957908 1_555
Ga1 O45 1.963845 1_555
Ga1 O47 1.978188 1_665
Ga1 O46 2.005994 1_565
Ga1 O11 2.117727 1_655
Ga1 O10 2.144114 1_665
Ga2 O13 1.902238 1_555
Ga2 O12 1.941139 1_555
Ga2 O49 1.942339 1_555
Ga2 O14 1.957454 1_555
Ga2 O48 2.004456 1_555
Ga2 O50 2.071372 1_555
Ga3 O15 1.938006 1_555
Ga3 O51 1.946788 1_555
Ga3 O16 1.952355 1_555
Ga3 O17 2.003893 1_555
Ga3 O52 2.004142 1_555
Ga3 O53 2.106484 1_555
Ga4 O22 2.000990 1_555
Ga4 O21 2.045117 1_555
Ga4 O23 2.058173 1_555
Ga4 O58 2.071316 1_555
Ga4 O59 2.152901 1_555
Ga4 O57 2.179341 1_555
Ga5 O30 2.002785 1_555
Ga5 O32 2.053292 1_555
Ga5 O66 2.084088 1_555
Ga5 O68 2.094774 1_555
Ga5 O31 2.105982 1_555
Ga5 O67 2.295584 1_555
O0 P0 1.535081 1_555
O1 P1 1.520922 1_555
O2 P2 1.543433 1_555
O3 P3 1.538205 1_555
O4 P4 1.550225 1_555
O5 P5 1.555222 1_555
O6 P5 1.560602 1_565
O7 P3 1.542727 1_555
O8 P4 1.548229 1_455
O9 P1 1.562313 1_555
O10 P2 1.572859 1_455
O11 P0 1.556911 1_565
O12 P6 1.544887 1_555
O13 P7 1.529913 1_555
O14 P8 1.535916 1_555
O15 P9 1.542130 1_555
O16 P10 1.551789 1_555
O17 P11 1.536584 1_555
O18 P11 1.542568 1_555
O19 P9 1.551688 1_555
O20 P10 1.557768 1_555
O21 P7 1.570718 1_555
O22 P8 1.556746 1_555
O23 P6 1.572475 1_555
O24 P12 1.549104 1_555
O25 P13 1.550409 1_555
O26 P14 1.552089 1_555
O27 P15 1.527123 1_555
O28 P16 1.520029 1_555
O29 P17 1.530968 1_555
O30 P17 1.582892 1_555
O31 P15 1.578172 1_555
O32 P16 1.575851 1_555
O33 P13 1.553035 1_555
O34 P14 1.549056 1_555
O35 P12 1.542423 1_555
O36 P17 1.540703 1_555
O37 P15 1.550580 1_545
O38 P16 1.556982 1_555
O39 P13 1.538587 1_655
O40 P14 1.533253 1_555
O41 P12 1.544139 1_555
O42 P6 1.570782 1_555
O43 P7 1.572520 1_555
O44 P8 1.585977 1_555
O45 P9 1.546335 1_555
O46 P10 1.547429 1_555
O47 P11 1.557402 1_555
O48 P5 1.549607 1_555
O49 P3 1.547780 1_555
O50 P4 1.565493 1_555
O51 P1 1.558727 1_555
O52 P2 1.555752 1_555
O53 P0 1.574991 1_555
O54 P12 1.539750 1_555
O55 P13 1.552094 1_655
O56 P14 1.542962 1_545
O57 P15 1.582662 1_545
O58 P16 1.563451 1_555
O59 P17 1.566712 1_655
O60 P11 1.549097 1_555
O61 P9 1.565215 1_455
O62 P10 1.547483 1_565
O63 P7 1.566016 1_565
O64 P8 1.547439 1_555
O65 P6 1.543936 1_455
O66 P0 1.576802 1_565
O67 P1 1.575110 1_555
O68 P2 1.570762 1_455
O69 P3 1.562626 1_555
O70 P4 1.554846 1_455
O71 P5 1.548414 1_565
