# generated using pymatgen
data_MgCr4O8
_symmetry_space_group_name_H-M   'P 1'
_cell_length_a   4.77564074
_cell_length_b   5.01381285
_cell_length_c   5.59522796
_cell_angle_alpha   94.59820484
_cell_angle_beta   87.51628282
_cell_angle_gamma   91.38284629
_symmetry_Int_Tables_number   1
_chemical_formula_structural   MgCr4O8
_chemical_formula_sum   'Mg1 Cr4 O8'
_cell_volume   133.38771282
_cell_formula_units_Z   1
loop_
 _symmetry_equiv_pos_site_id
 _symmetry_equiv_pos_as_xyz
  1  'x, y, z'
loop_
 _atom_site_type_symbol
 _atom_site_label
 _atom_site_symmetry_multiplicity
 _atom_site_fract_x
 _atom_site_fract_y
 _atom_site_fract_z
 _atom_site_occupancy
  Mg  Mg0  1  0.03541300  0.07588100  0.50498800  1
  Cr  Cr0  1  0.52614100  0.27658000  0.64774900  1
  Cr  Cr1  1  0.01976000  0.73835300  0.85901800  1
  Cr  Cr2  1  0.49809200  0.73053900  0.33803700  1
  Cr  Cr3  1  0.99582800  0.26809300  0.11104700  1
  O  O0  1  0.82015900  0.09390100  0.82883500  1
  O  O1  1  0.75259200  0.57896000  0.59451600  1
  O  O2  1  0.32704300  0.90489400  0.64064200  1
  O  O3  1  0.25408700  0.42211200  0.88021800  1
  O  O4  1  0.19480800  0.91454300  0.15138200  1
  O  O5  1  0.25720100  0.41049800  0.39166600  1
  O  O6  1  0.69518500  0.09175500  0.34729500  1
  O  O7  1  0.76431700  0.58138900  0.09746200  1
loop_
_geom_bond_atom_site_label_1
_geom_bond_atom_site_label_2
_geom_bond_distance
_geom_bond_site_symmetry_2
Mg0 O2 1.871980 1_545
Mg0 O6 1.888541 1_455
Mg0 O0 2.040840 1_455
Mg0 O5 2.089302 1_555
Mg0 O4 2.188803 1_545
Cr0 O1 1.876722 1_555
Cr0 O3 1.912957 1_555
Cr0 O6 2.001321 1_555
Cr0 O0 2.042365 1_555
Cr0 O2 2.069875 1_545
Cr0 O5 2.123400 1_555
Cr1 O7 1.966829 1_456
Cr1 O3 1.976794 1_555
Cr1 O4 2.001593 1_556
Cr1 O0 2.063792 1_465
Cr1 O2 2.071883 1_555
Cr1 O1 2.093238 1_455
Cr2 O7 1.929700 1_555
Cr2 O5 1.986577 1_555
Cr2 O2 1.993862 1_555
Cr2 O6 2.018788 1_565
Cr2 O4 2.095165 1_555
Cr2 O1 2.117733 1_555
Cr3 O3 1.939444 1_654
Cr3 O7 1.950858 1_555
Cr3 O0 1.954042 1_554
Cr3 O4 2.064021 1_645
Cr3 O5 2.116660 1_655
Cr3 O6 2.133550 1_555
