# generated using pymatgen
data_MgTi8(NiO3)8
_symmetry_space_group_name_H-M   'P 1'
_cell_length_a   5.62045635
_cell_length_b   11.13120904
_cell_length_c   11.23482123
_cell_angle_alpha   54.14862720
_cell_angle_beta   54.12362705
_cell_angle_gamma   54.19999619
_symmetry_Int_Tables_number   1
_chemical_formula_structural   MgTi8(NiO3)8
_chemical_formula_sum   'Mg1 Ti8 Ni8 O24'
_cell_volume   429.22293159
_cell_formula_units_Z   1
loop_
 _symmetry_equiv_pos_site_id
 _symmetry_equiv_pos_as_xyz
  1  'x, y, z'
loop_
 _atom_site_type_symbol
 _atom_site_label
 _atom_site_symmetry_multiplicity
 _atom_site_fract_x
 _atom_site_fract_y
 _atom_site_fract_z
 _atom_site_occupancy
  Mg  Mg0  1  0.30729200  0.16016300  0.66147300  1
  Ti  Ti0  1  0.35723500  0.17498100  0.16211500  1
  Ti  Ti1  1  0.01355200  0.00372200  0.51935500  1
  Ti  Ti2  1  0.12449700  0.58412200  0.06743000  1
  Ti  Ti3  1  0.14524500  0.57945900  0.56141300  1
  Ti  Ti4  1  0.87712300  0.40931700  0.42637000  1
  Ti  Ti5  1  0.84655900  0.43291400  0.92837600  1
  Ti  Ti6  1  0.82384400  0.91577800  0.41399300  1
  Ti  Ti7  1  0.83531300  0.93955200  0.91549300  1
  Ni  Ni0  1  0.14450100  0.06622100  0.07622300  1
  Ni  Ni1  1  0.33834500  0.67288300  0.17417600  1
  Ni  Ni2  1  0.50665600  0.24524000  0.73864000  1
  Ni  Ni3  1  0.64316900  0.33164000  0.31663400  1
  Ni  Ni4  1  0.34966200  0.66311400  0.67911300  1
  Ni  Ni5  1  0.65549600  0.33369900  0.83295200  1
  Ni  Ni6  1  0.65373000  0.81271000  0.31428300  1
  Ni  Ni7  1  0.63909100  0.82020500  0.83036200  1
  O  O0  1  0.06554200  0.37518200  0.21335100  1
  O  O1  1  0.42527500  0.02498500  0.36686000  1
  O  O2  1  0.72250600  0.22198400  0.04193700  1
  O  O3  1  0.23427500  0.29519300  0.45821700  1
  O  O4  1  0.55899000  0.47738800  0.11074800  1
  O  O5  1  0.05782300  0.38076500  0.72253500  1
  O  O6  1  0.04563000  0.86750700  0.22860900  1
  O  O7  1  0.95370100  0.10857400  0.29386400  1
  O  O8  1  0.45122900  0.02692900  0.86896700  1
  O  O9  1  0.42650500  0.52832200  0.38366100  1
  O  O10  1  0.76609900  0.21192600  0.51398200  1
  O  O11  1  0.75738900  0.71461200  0.02770600  1
  O  O12  1  0.21500000  0.28676500  0.98411000  1
  O  O13  1  0.22083700  0.78482800  0.47428900  1
  O  O14  1  0.56895500  0.46281500  0.61437200  1
  O  O15  1  0.56244000  0.97646300  0.11089600  1
  O  O16  1  0.05824000  0.87675500  0.71426500  1
  O  O17  1  0.90675200  0.12450800  0.79652100  1
  O  O18  1  0.94306600  0.60712200  0.27548700  1
  O  O19  1  0.43798400  0.52954500  0.88432800  1
  O  O20  1  0.75265200  0.70933500  0.53051200  1
  O  O21  1  0.21066100  0.78213300  0.96873400  1
  O  O22  1  0.62901500  0.96337200  0.60473600  1
  O  O23  1  0.94672300  0.61252000  0.78220900  1
loop_
_geom_bond_atom_site_label_1
_geom_bond_atom_site_label_2
_geom_bond_distance
_geom_bond_site_symmetry_2
Mg0 O17 1.965719 1_455
Mg0 O3 1.999611 1_555
Mg0 O22 2.031017 1_545
Mg0 O8 2.246170 1_555
Mg0 O5 2.298739 1_555
Mg0 O10 2.310645 1_555
Ni0 O6 2.004886 1_545
Ni0 O8 2.047194 1_554
Ni0 O2 2.063360 1_455
Ni0 O15 2.130425 1_545
Ni0 O12 2.221733 1_554
Ni0 O7 2.244220 1_455
Ni1 O6 1.994202 1_555
Ni1 O11 2.076691 1_555
Ni1 O9 2.090889 1_555
Ni1 O4 2.098710 1_555
Ni1 O18 2.174823 1_455
Ni1 O21 2.225708 1_554
Ni2 O8 2.080704 1_555
Ni2 O14 2.096591 1_555
Ni2 O5 2.106015 1_555
Ni2 O17 2.107225 1_555
Ni2 O10 2.187311 1_555
Ni2 O12 2.411305 1_555
Ni3 O3 2.006638 1_555
Ni3 O4 2.048226 1_555
Ni3 O10 2.103917 1_555
Ni3 O7 2.104189 1_555
Ni3 O9 2.140179 1_555
Ni3 O0 2.162307 1_655
Ni4 O20 2.026624 1_555
Ni4 O19 2.057964 1_555
Ni4 O16 2.068580 1_555
Ni4 O23 2.107404 1_455
Ni4 O14 2.157096 1_555
Ni4 O13 2.192814 1_555
Ni5 O19 2.027082 1_555
Ni5 O17 2.043473 1_555
Ni5 O5 2.064829 1_655
Ni5 O2 2.066248 1_556
Ni5 O14 2.186461 1_555
Ni5 O12 2.198285 1_555
Ni6 O18 2.013775 1_555
Ni6 O15 2.051399 1_555
Ni6 O13 2.085934 1_555
Ni6 O6 2.132922 1_655
Ni6 O1 2.185694 1_565
Ni6 O20 2.257182 1_555
Ni7 O22 2.073446 1_555
Ni7 O23 2.078190 1_555
Ni7 O8 2.094708 1_565
Ni7 O21 2.104581 1_555
Ni7 O11 2.121371 1_556
Ni7 O16 2.195219 1_655
O0 Ti2 2.001303 1_555
O0 Ti0 2.026696 1_555
O0 Ti4 2.148785 1_455
O1 Ti1 1.966000 1_555
O1 Ti0 2.002610 1_555
O1 Ti6 2.055926 1_545
O2 Ti0 1.868628 1_555
O2 Ti5 2.233884 1_554
O3 Ti4 1.759929 1_455
O4 Ti5 1.850962 1_554
O4 Ti2 2.221113 1_555
O5 Ti3 1.987216 1_555
O5 Ti5 2.154654 1_455
O6 Ti6 1.914350 1_455
O7 Ti6 2.060320 1_545
O7 Ti0 2.150888 1_655
O7 Ti1 2.229190 1_655
O8 Ti7 2.037152 1_545
O9 Ti3 1.841118 1_555
O9 Ti4 2.270298 1_555
O10 Ti1 1.863503 1_655
O10 Ti4 2.129957 1_555
O11 Ti2 1.838470 1_655
O11 Ti7 2.233540 1_554
O12 Ti5 1.926702 1_455
O12 Ti0 1.995501 1_556
O13 Ti6 2.090967 1_455
O13 Ti3 2.095760 1_555
O13 Ti1 2.232294 1_565
O14 Ti4 1.947978 1_555
O14 Ti3 2.202159 1_555
O15 Ti7 1.927036 1_554
O15 Ti0 2.067427 1_565
O16 Ti1 1.860058 1_565
O16 Ti7 2.162394 1_455
O17 Ti7 1.816878 1_545
O18 Ti4 1.924884 1_555
O18 Ti2 2.042309 1_655
O19 Ti2 1.915367 1_556
O19 Ti5 2.119889 1_555
O20 Ti3 1.912421 1_655
O20 Ti6 2.022987 1_555
O21 Ti7 1.950715 1_455
O21 Ti2 2.019575 1_556
O22 Ti6 1.993189 1_555
O22 Ti1 1.998510 1_665
O23 Ti5 1.843381 1_555
O23 Ti3 2.208764 1_655
