# generated using pymatgen
data_Na6Si7Ge8S5O48
_symmetry_space_group_name_H-M   'P 1'
_cell_length_a   17.11205052
_cell_length_b   8.56264135
_cell_length_c   21.91484008
_cell_angle_alpha   89.95278185
_cell_angle_beta   89.33890304
_cell_angle_gamma   120.02540068
_symmetry_Int_Tables_number   1
_chemical_formula_structural   Na6Si7Ge8S5O48
_chemical_formula_sum   'Na18 Si21 Ge24 S15 O144'
_cell_volume   2779.87973543
_cell_formula_units_Z   3
loop_
 _symmetry_equiv_pos_site_id
 _symmetry_equiv_pos_as_xyz
  1  'x, y, z'
loop_
 _atom_site_type_symbol
 _atom_site_label
 _atom_site_symmetry_multiplicity
 _atom_site_fract_x
 _atom_site_fract_y
 _atom_site_fract_z
 _atom_site_occupancy
  Na  Na0  1  0.00023021  0.63322192  0.25081394  1
  Na  Na1  1  0.49774673  0.63913684  0.24587177  1
  Na  Na2  1  0.99888320  0.35764776  0.75167621  1
  Na  Na3  1  0.49965941  0.36841434  0.75311600  1
  Na  Na4  1  0.66554838  0.30570484  0.91746988  1
  Na  Na5  1  0.16642758  0.02784822  0.41404126  1
  Na  Na6  1  0.99777481  0.99105040  0.50199291  1
  Na  Na7  1  0.49592383  0.99237154  0.49728991  1
  Na  Na8  1  0.99686811  0.00003523  0.99861330  1
  Na  Na9  1  0.49720995  0.99836471  0.00444820  1
  Na  Na10  1  0.33069665  0.33383831  0.83387046  1
  Na  Na11  1  0.83225005  0.33172859  0.83476509  1
  Na  Na12  1  0.33277687  0.33549803  0.33101122  1
  Na  Na13  1  0.83088798  0.32693436  0.33104117  1
  Na  Na14  1  0.17458084  0.67186489  0.16871866  1
  Na  Na15  1  0.67020123  0.66774309  0.16301434  1
  Na  Na16  1  0.17471813  0.67793403  0.66633199  1
  Na  Na17  1  0.67221144  0.67529666  0.66992490  1
  Si  Si0  1  0.14831519  0.01138253  0.24776107  1
  Si  Si1  1  0.63903679  0.00476151  0.25069948  1
  Si  Si2  1  0.35380718  0.71083484  0.24723215  1
  Si  Si3  1  0.85103673  0.71063880  0.25020525  1
  Si  Si4  1  0.99997038  0.28465087  0.25107043  1
  Si  Si5  1  0.13876269  0.27518826  0.75094113  1
  Si  Si6  1  0.64506248  0.28567202  0.74964029  1
  Si  Si7  1  0.49986940  0.71515720  0.75104695  1
  Si  Si8  1  0.35056779  0.99043530  0.75117720  1
  Si  Si9  1  0.85413436  0.99673933  0.74710540  1
  Si  Si10  1  0.19125129  0.05248283  0.58469398  1
  Si  Si11  1  0.83238415  0.62523572  0.58451310  1
  Si  Si12  1  0.47986489  0.61826164  0.08245512  1
  Si  Si13  1  0.33156669  0.03939652  0.08489222  1
  Si  Si14  1  0.69221524  0.32835276  0.08527503  1
  Si  Si15  1  0.81123387  0.67688445  0.91605779  1
  Si  Si16  1  0.02509056  0.38930346  0.92020583  1
  Si  Si17  1  0.51907226  0.37234922  0.91374563  1
  Si  Si18  1  0.31511093  0.95323018  0.41333155  1
  Si  Si19  1  0.01988984  0.66491579  0.41429111  1
  Si  Si20  1  0.52544779  0.66398305  0.41983282  1
  Ge  Ge0  1  0.99937427  0.98746615  0.34517631  1
  Ge  Ge1  1  0.49391028  0.96289491  0.35360180  1
  Ge  Ge2  1  0.99378264  0.02635364  0.85633274  1
  Ge  Ge3  1  0.49845284  0.00717319  0.84799983  1
  Ge  Ge4  1  0.99909031  0.99705306  0.64553587  1
  Ge  Ge5  1  0.49602689  0.99340768  0.65770422  1
  Ge  Ge6  1  0.99754722  0.00269497  0.15543324  1
  Ge  Ge7  1  0.49692776  0.98113370  0.13959006  1
  Ge  Ge8  1  0.32463187  0.32030374  0.69492265  1
  Ge  Ge9  1  0.82370801  0.32895165  0.68857811  1
  Ge  Ge10  1  0.33198010  0.32936828  0.18516445  1
  Ge  Ge11  1  0.82489323  0.32695972  0.19442980  1
  Ge  Ge12  1  0.34946691  0.33554212  0.98409971  1
  Ge  Ge13  1  0.83444821  0.34415366  0.97835673  1
  Ge  Ge14  1  0.33452770  0.32525375  0.47744329  1
  Ge  Ge15  1  0.84016028  0.35709605  0.48033853  1
  Ge  Ge16  1  0.16859143  0.67194409  0.02042919  1
  Ge  Ge17  1  0.66236325  0.63232019  0.02141263  1
  Ge  Ge18  1  0.17204448  0.70142631  0.51605511  1
  Ge  Ge19  1  0.66826427  0.66330048  0.51941231  1
  Ge  Ge20  1  0.16701765  0.67949739  0.30733750  1
  Ge  Ge21  1  0.66295263  0.67354177  0.30933648  1
  Ge  Ge22  1  0.16746005  0.65512007  0.81335431  1
  Ge  Ge23  1  0.66681485  0.65758192  0.80927099  1
  S  S0  1  0.50040512  0.28216230  0.25126170  1
  S  S1  1  0.00027983  0.71514492  0.75041425  1
  S  S2  1  0.47888961  0.32990735  0.58368808  1
  S  S3  1  0.97901432  0.33707991  0.58172611  1
  S  S4  1  0.68788177  0.04508032  0.58158799  1
  S  S5  1  0.33377451  0.62271812  0.58291657  1
  S  S6  1  0.97885886  0.62779501  0.08378699  1
  S  S7  1  0.83584769  0.04837465  0.08363348  1
  S  S8  1  0.18681031  0.32899813  0.08143022  1
  S  S9  1  0.31165246  0.66411234  0.91755427  1
  S  S10  1  0.16695651  0.95639967  0.91634347  1
  S  S11  1  0.66551970  0.94854792  0.91739323  1
  S  S12  1  0.81187294  0.95914688  0.41837352  1
  S  S13  1  0.16580667  0.38459227  0.41887306  1
  S  S14  1  0.66739230  0.37786667  0.41708527  1
  O  O0  1  0.10788022  0.04668046  0.31219523  1
  O  O1  1  0.59939212  0.04603196  0.31335643  1
  O  O2  1  0.41770657  0.77818893  0.30867478  1
  O  O3  1  0.91706225  0.78691792  0.30951357  1
  O  O4  1  0.48586343  0.17683503  0.30779256  1
  O  O5  1  0.97752272  0.15485559  0.31193390  1
  O  O6  1  0.09653248  0.14859677  0.81182294  1
  O  O7  1  0.60502437  0.16619704  0.81188381  1
  O  O8  1  0.47694950  0.79991324  0.81082204  1
  O  O9  1  0.98269745  0.78900287  0.80527744  1
  O  O10  1  0.41803465  0.04589747  0.80876056  1
  O  O11  1  0.91959088  0.05983744  0.80715268  1
  O  O12  1  0.39026776  0.94895479  0.68832690  1
  O  O13  1  0.89880420  0.95753961  0.68757227  1
  O  O14  1  0.07516578  0.19932330  0.69067414  1
  O  O15  1  0.57906530  0.20347792  0.68944116  1
  O  O16  1  0.01754320  0.82159760  0.69333567  1
  O  O17  1  0.52301625  0.83625608  0.68770422  1
  O  O18  1  0.39875562  0.84401256  0.18943218  1
  O  O19  1  0.89245465  0.83496845  0.18873535  1
  O  O20  1  0.02308283  0.20957745  0.18875809  1
  O  O21  1  0.51729620  0.21191263  0.19537428  1
  O  O22  1  0.07785218  0.95437561  0.19014551  1
  O  O23  1  0.57526373  0.95265569  0.19180662  1
  O  O24  1  0.44177300  0.36489184  0.63958474  1
  O  O25  1  0.93954605  0.36965362  0.63795889  1
  O  O26  1  0.25810467  0.14338657  0.64216799  1
  O  O27  1  0.74357079  0.12036085  0.63741428  1
  O  O28  1  0.32011801  0.51482027  0.63889291  1
  O  O29  1  0.81352606  0.49074010  0.64288837  1
  O  O30  1  0.43654645  0.49319585  0.14425852  1
  O  O31  1  0.94209932  0.51939532  0.13989145  1
  O  O32  1  0.30801602  0.12763885  0.14305466  1
  O  O33  1  0.82295055  0.13102502  0.13957053  1
  O  O34  1  0.24088981  0.36426247  0.13755254  1
  O  O35  1  0.75982346  0.37215023  0.14246251  1
  O  O36  1  0.22793684  0.30066116  0.02550124  1
  O  O37  1  0.73417639  0.29130645  0.02146739  1
  O  O38  1  0.41346741  0.53753225  0.02293011  1
  O  O39  1  0.92365285  0.54670697  0.02822895  1
  O  O40  1  0.34748927  0.15427646  0.02133520  1
  O  O41  1  0.85415821  0.16223119  0.02728343  1
  O  O42  1  0.23407130  0.17275060  0.52134273  1
  O  O43  1  0.73155728  0.15834602  0.52572356  1
  O  O44  1  0.35133813  0.54484560  0.52686741  1
  O  O45  1  0.85082145  0.53849594  0.52316813  1
  O  O46  1  0.42355933  0.30072824  0.52825346  1
  O  O47  1  0.91986487  0.30123304  0.52696771  1
  O  O48  1  0.27233432  0.70180883  0.97298398  1
  O  O49  1  0.76757780  0.71476516  0.97715187  1
  O  O50  1  0.09081145  0.48227987  0.97804564  1
  O  O51  1  0.58389865  0.45136201  0.97320169  1
  O  O52  1  0.15181991  0.84326906  0.97257706  1
  O  O53  1  0.65163721  0.84279986  0.97319228  1
  O  O54  1  0.27628111  0.83217361  0.47658690  1
  O  O55  1  0.77276207  0.84391071  0.47477183  1
  O  O56  1  0.15105285  0.46456611  0.47564384  1
  O  O57  1  0.65355181  0.45983388  0.47413034  1
  O  O58  1  0.08368307  0.71085757  0.47529139  1
  O  O59  1  0.59034525  0.70084938  0.47886601  1
  O  O60  1  0.06394493  0.62995952  0.35406793  1
  O  O61  1  0.56675593  0.62046777  0.35802159  1
  O  O62  1  0.24346539  0.86645807  0.35829465  1
  O  O63  1  0.75621481  0.88036115  0.36338318  1
  O  O64  1  0.18184707  0.49119353  0.36301476  1
  O  O65  1  0.68780727  0.49478363  0.36273272  1
  O  O66  1  0.06538594  0.50980209  0.85665347  1
  O  O67  1  0.56253955  0.49526251  0.85268159  1
  O  O68  1  0.18617130  0.87693225  0.86110723  1
  O  O69  1  0.68194249  0.87458556  0.86078705  1
  O  O70  1  0.25615402  0.63496844  0.86144827  1
  O  O71  1  0.74471850  0.62265064  0.85728964  1
  O  O72  1  0.01151588  0.85086394  0.40966945  1
  O  O73  1  0.51853009  0.84593365  0.41404150  1
  O  O74  1  0.41714443  0.98743223  0.40608673  1
  O  O75  1  0.90222909  0.97921669  0.41335865  1
  O  O76  1  0.08531490  0.19971785  0.41606231  1
  O  O77  1  0.58558580  0.20229037  0.41350787  1
  O  O78  1  0.01884434  0.19352456  0.91460003  1
  O  O79  1  0.51105330  0.17015119  0.90925042  1
  O  O80  1  0.08340848  0.96406037  0.91157144  1
  O  O81  1  0.58451042  0.97257386  0.91311799  1
  O  O82  1  0.40166465  0.82646944  0.91181315  1
  O  O83  1  0.91447822  0.84695096  0.90676107  1
  O  O84  1  0.48818785  0.16558290  0.58733334  1
  O  O85  1  0.98548208  0.17190564  0.58539630  1
  O  O86  1  0.09109358  0.03036115  0.59187145  1
  O  O87  1  0.59829828  0.03129782  0.58618806  1
  O  O88  1  0.41641977  0.80805523  0.58681281  1
  O  O89  1  0.92189878  0.82200108  0.59036078  1
  O  O90  1  0.48691568  0.81258743  0.08593726  1
  O  O91  1  0.98794258  0.81041841  0.08729802  1
  O  O92  1  0.42198179  0.02747160  0.09031695  1
  O  O93  1  0.91980029  0.03085914  0.08746307  1
  O  O94  1  0.09558123  0.16316575  0.08674866  1
  O  O95  1  0.59193007  0.15697578  0.09242520  1
  O  O96  1  0.34815801  0.17708654  0.74378166  1
  O  O97  1  0.85109367  0.18654348  0.73547707  1
  O  O98  1  0.24014920  0.30926340  0.74583020  1
  O  O99  1  0.74393883  0.30385289  0.74558258  1
  O  O100  1  0.41249882  0.51254288  0.73887531  1
  O  O101  1  0.92044323  0.52697145  0.74365144  1
  O  O102  1  0.34812528  0.51393108  0.23892752  1
  O  O103  1  0.84829942  0.51889479  0.24379619  1
  O  O104  1  0.42039542  0.30968951  0.24806265  1
  O  O105  1  0.91298665  0.31344521  0.23980363  1
  O  O106  1  0.24668494  0.18837833  0.24272414  1
  O  O107  1  0.74120595  0.17147024  0.24680033  1
  O  O108  1  0.31471002  0.49520747  0.92290580  1
  O  O109  1  0.81902795  0.49136884  0.92370859  1
  O  O110  1  0.41945419  0.35675164  0.91910662  1
  O  O111  1  0.92287646  0.35829290  0.92775999  1
  O  O112  1  0.24698918  0.13927112  0.92232360  1
  O  O113  1  0.74829665  0.13635437  0.92048692  1
  O  O114  1  0.31895550  0.14945575  0.42286142  1
  O  O115  1  0.81669106  0.13764643  0.42634592  1
  O  O116  1  0.24855314  0.36320972  0.42298601  1
  O  O117  1  0.74916147  0.35561606  0.42360350  1
  O  O118  1  0.42347016  0.48917752  0.42832729  1
  O  O119  1  0.92107030  0.47864835  0.42115953  1
  O  O120  1  0.17730034  0.49429962  0.07684880  1
  O  O121  1  0.68700620  0.51396524  0.07934220  1
  O  O122  1  0.07006958  0.64443886  0.07669509  1
  O  O123  1  0.58131436  0.64505482  0.07331451  1
  O  O124  1  0.24011736  0.83697104  0.07456054  1
  O  O125  1  0.75400787  0.87097060  0.07849066  1
  O  O126  1  0.18033957  0.84821715  0.57858664  1
  O  O127  1  0.67960943  0.86331494  0.57709365  1
  O  O128  1  0.24940642  0.63355342  0.57760193  1
  O  O129  1  0.74075409  0.64253535  0.57457482  1
  O  O130  1  0.07012755  0.49905951  0.57494724  1
  O  O131  1  0.57042456  0.49589797  0.57678616  1
  O  O132  1  0.15185908  0.82554379  0.25288738  1
  O  O133  1  0.64776760  0.82014629  0.25786198  1
  O  O134  1  0.25528766  0.68700947  0.25841734  1
  O  O135  1  0.75137441  0.68568090  0.26141602  1
  O  O136  1  0.08704293  0.48488886  0.25854559  1
  O  O137  1  0.58298369  0.47118590  0.25597603  1
  O  O138  1  0.14814909  0.47716499  0.75826667  1
  O  O139  1  0.65219860  0.48123859  0.75284002  1
  O  O140  1  0.08176746  0.69312883  0.75448232  1
  O  O141  1  0.58729894  0.69031410  0.75783494  1
  O  O142  1  0.25035242  0.81652198  0.76066673  1
  O  O143  1  0.75545755  0.82619722  0.75766353  1
loop_
_geom_bond_atom_site_label_1
_geom_bond_atom_site_label_2
_geom_bond_distance
_geom_bond_site_symmetry_2
Na0 O132 2.274426 1_555
Na0 O103 2.281142 1_455
Na0 O105 2.388065 1_455
Na0 O136 2.396349 1_555
Na0 O60 2.529241 1_555
Na0 O31 2.633993 1_455
Na0 O3 2.692052 1_455
Na0 O22 2.718792 1_555
Na1 O102 2.233847 1_555
Na1 O133 2.257413 1_555
Na1 O104 2.444087 1_555
Na1 O137 2.520070 1_555
Na1 O30 2.523066 1_555
Na1 O23 2.600948 1_555
Na1 O2 2.603667 1_555
Na1 O61 2.777735 1_555
Na2 O97 2.231998 1_555
Na2 O138 2.232738 1_655
Na2 O101 2.426380 1_555
Na2 O140 2.488407 1_655
Na2 O11 2.513159 1_555
Na2 O66 2.620420 1_655
Na2 O14 2.657570 1_655
Na2 O25 2.722966 1_555
Na3 O96 2.282355 1_555
Na3 O139 2.285338 1_555
Na3 O100 2.386885 1_555
Na3 O141 2.392547 1_555
Na3 O67 2.446828 1_555
Na3 O10 2.675684 1_555
Na3 O24 2.683178 1_555
Na3 O15 2.769132 1_555
Na4 O109 2.296503 1_555
Na4 O79 2.304207 1_555
Na4 O81 2.472571 1_545
Na4 O113 2.483758 1_555
Na4 O7 2.583694 1_555
Na4 O51 2.589682 1_555
Na4 O37 2.606679 1_556
Na4 O71 2.685760 1_555
Na5 O114 2.286076 1_555
Na5 O72 2.306206 1_545
Na5 O76 2.477341 1_555
Na5 O0 2.494790 1_555
Na5 O116 2.495600 1_555
Na5 O62 2.632269 1_545
Na5 O42 2.653142 1_555
Na5 O58 2.697749 1_545
Na6 O89 2.363870 1_555
Na6 O72 2.421821 1_655
Na6 O86 2.465497 1_665
Na6 O85 2.470820 1_565
Na6 O76 2.496694 1_665
Na6 O75 2.522735 1_555
Na7 O73 2.350140 1_555
Na7 O74 2.412296 1_555
Na7 O88 2.444422 1_555
Na7 O77 2.475012 1_565
Na7 O84 2.511254 1_565
Na7 O87 2.543804 1_565
Na8 O78 2.373099 1_655
Na8 O93 2.426954 1_556
Na8 O83 2.445027 1_545
Na8 O91 2.485254 1_546
Na8 O94 2.500696 1_656
Na8 O80 2.513722 1_645
Na9 O90 2.336295 1_555
Na9 O92 2.350831 1_565
Na9 O95 2.462171 1_565
Na9 O79 2.491392 1_564
Na9 O81 2.558968 1_554
Na9 O82 2.575653 1_554
Na10 O110 2.366930 1_555
Na10 O98 2.431251 1_555
Na10 O112 2.475334 1_555
Na10 O108 2.482264 1_555
Na10 O96 2.486103 1_555
Na10 O100 2.533519 1_555
Na11 O99 2.422469 1_555
Na11 O113 2.432887 1_555
Na11 O109 2.454133 1_555
Na11 O111 2.516093 1_555
Na11 O101 2.541547 1_555
Na11 O97 2.602564 1_555
Na12 O106 2.390237 1_555
Na12 O104 2.422934 1_555
Na12 O102 2.461047 1_555
Na12 O114 2.500400 1_555
Na12 O116 2.544047 1_555
Na12 O118 2.593382 1_555
Na13 O107 2.358034 1_555
Na13 O103 2.436728 1_555
Na13 O119 2.457173 1_555
Na13 O105 2.466332 1_555
Na13 O117 2.531796 1_555
Na13 O115 2.576215 1_555
Na14 O134 2.381613 1_555
Na14 O132 2.405118 1_555
Na14 O124 2.422671 1_555
Na14 O136 2.491773 1_555
Na14 O120 2.537910 1_555
Na14 O122 2.642770 1_555
Na15 O121 2.355755 1_555
Na15 O125 2.439635 1_555
Na15 O123 2.447325 1_555
Na15 O135 2.541552 1_555
Na15 O137 2.573097 1_555
Na15 O133 2.580346 1_555
Na16 O126 2.384034 1_555
Na16 O142 2.426089 1_555
Na16 O128 2.447223 1_555
Na16 O138 2.532226 1_555
Na16 O140 2.532850 1_555
Na16 O130 2.627601 1_555
Na17 O139 2.364590 1_555
Na17 O143 2.370889 1_555
Na17 O141 2.441753 1_555
Na17 O129 2.468692 1_555
Na17 O127 2.555644 1_555
Na17 O131 2.639928 1_555
Ge0 O3 1.774997 1_555
Ge0 O0 1.803693 1_665
Ge0 O5 1.807151 1_565
Ge0 O72 1.912105 1_655
Ge0 O75 2.196827 1_555
Ge0 O76 2.293814 1_665
Ge1 O2 1.771836 1_555
Ge1 O1 1.794158 1_565
Ge1 O74 1.826046 1_555
Ge1 O73 1.835156 1_555
Ge1 O4 2.152954 1_565
Ge1 O77 2.284777 1_565
Ge2 O11 1.803041 1_555
Ge2 O6 1.804295 1_655
Ge2 O78 1.806853 1_655
Ge2 O83 1.816327 1_545
Ge2 O80 2.227685 1_645
Ge2 O9 2.245245 1_545
Ge3 O10 1.796275 1_555
Ge3 O7 1.812758 1_555
Ge3 O8 1.817833 1_545
Ge3 O79 1.871996 1_555
Ge3 O82 2.114541 1_545
Ge3 O81 2.185700 1_545
Ge4 O13 1.813852 1_555
Ge4 O14 1.857161 1_665
Ge4 O86 1.857529 1_665
Ge4 O89 1.874026 1_555
Ge4 O16 1.983408 1_655
Ge4 O85 2.094174 1_565
Ge5 O17 1.756063 1_555
Ge5 O12 1.775565 1_555
Ge5 O15 1.790343 1_565
Ge5 O88 2.162734 1_555
Ge5 O84 2.183735 1_565
Ge5 O87 2.234273 1_565
Ge6 O20 1.759885 1_655
Ge6 O19 1.792358 1_545
Ge6 O22 1.797454 1_645
Ge6 O93 2.100749 1_555
Ge6 O94 2.144620 1_655
Ge6 O91 2.169357 1_545
Ge7 O90 1.804070 1_555
Ge7 O18 1.837222 1_555
Ge7 O95 1.867427 1_565
Ge7 O92 1.873146 1_565
Ge7 O23 1.878270 1_555
Ge7 O21 2.201229 1_565
Ge8 O98 1.780273 1_555
Ge8 O26 1.798558 1_555
Ge8 O96 1.820510 1_555
Ge8 O100 1.859364 1_555
Ge8 O28 2.101278 1_555
Ge8 O24 2.193586 1_555
Ge9 O99 1.771069 1_555
Ge9 O29 1.787563 1_555
Ge9 O97 1.828602 1_555
Ge9 O27 1.978742 1_555
Ge9 O101 2.076620 1_555
Ge9 O25 2.130378 1_555
Ge10 O32 1.818226 1_555
Ge10 O106 1.835905 1_555
Ge10 O30 1.849894 1_555
Ge10 O102 1.880327 1_555
Ge10 O34 2.027499 1_555
Ge10 O104 2.126108 1_555
Ge11 O35 1.773775 1_555
Ge11 O107 1.786635 1_555
Ge11 O103 1.840109 1_555
Ge11 O105 1.866428 1_555
Ge11 O33 2.051740 1_555
Ge11 O31 2.190954 1_555
Ge12 O40 1.738039 1_556
Ge12 O38 1.744492 1_556
Ge12 O110 1.799584 1_555
Ge12 O36 2.138147 1_556
Ge12 O112 2.200345 1_555
Ge12 O108 2.202369 1_555
Ge13 O37 1.796205 1_556
Ge13 O111 1.819780 1_555
Ge13 O109 1.852177 1_555
Ge13 O39 1.981122 1_556
Ge13 O41 2.054591 1_556
Ge13 O113 2.090308 1_555
Ge14 O118 1.807468 1_555
Ge14 O42 1.816327 1_555
Ge14 O114 1.837552 1_555
Ge14 O46 1.990985 1_555
Ge14 O116 2.052488 1_555
Ge14 O44 2.064128 1_555
Ge15 O45 1.746325 1_555
Ge15 O119 1.787838 1_555
Ge15 O47 1.953851 1_555
Ge15 O117 1.998951 1_555
Ge15 O43 2.031895 1_555
Ge15 O115 2.086060 1_555
Ge16 O50 1.771862 1_554
Ge16 O124 1.790948 1_555
Ge16 O52 1.939047 1_554
Ge16 O48 1.949527 1_554
Ge16 O122 1.993083 1_555
Ge16 O120 2.023051 1_555
Ge17 O121 1.804011 1_555
Ge17 O51 1.809236 1_554
Ge17 O123 1.828741 1_555
Ge17 O49 1.835035 1_554
Ge17 O53 2.175069 1_554
Ge17 O125 2.245476 1_555
Ge18 O54 1.774099 1_555
Ge18 O58 1.801137 1_555
Ge18 O126 1.818427 1_555
Ge18 O56 2.075555 1_555
Ge18 O130 2.151712 1_555
Ge18 O128 2.172410 1_555
Ge19 O59 1.768234 1_555
Ge19 O129 1.812923 1_555
Ge19 O57 1.911307 1_555
Ge19 O55 1.932842 1_555
Ge19 O131 1.996340 1_555
Ge19 O127 2.060399 1_555
Ge20 O134 1.816679 1_555
Ge20 O132 1.839658 1_555
Ge20 O62 1.860649 1_555
Ge20 O136 1.883470 1_555
Ge20 O60 1.883746 1_555
Ge20 O64 2.136895 1_555
Ge21 O135 1.791319 1_555
Ge21 O133 1.801870 1_555
Ge21 O61 1.806818 1_555
Ge21 O137 1.977292 1_555
Ge21 O63 2.074758 1_555
Ge21 O65 2.133797 1_555
Ge22 O142 1.803590 1_555
Ge22 O66 1.812281 1_555
Ge22 O138 1.843042 1_555
Ge22 O70 1.934646 1_555
Ge22 O68 2.051200 1_555
Ge22 O140 2.107437 1_555
Ge23 O71 1.845228 1_555
Ge23 O143 1.852160 1_555
Ge23 O67 1.870149 1_555
Ge23 O139 1.871945 1_555
Ge23 O141 1.901879 1_555
Ge23 O69 2.079190 1_555
O0 Si0 1.658760 1_555
O1 Si1 1.640056 1_555
O2 Si2 1.656947 1_555
O3 Si3 1.639878 1_555
O4 S0 1.475311 1_555
O5 Si4 1.649331 1_555
O6 Si5 1.633634 1_555
O7 Si6 1.628288 1_555
O8 Si7 1.634345 1_555
O9 S1 1.455807 1_655
O10 Si8 1.623815 1_545
O11 Si9 1.645519 1_545
O12 Si8 1.644830 1_555
O13 Si9 1.622828 1_555
O14 Si5 1.636391 1_555
O15 Si6 1.658812 1_555
O16 S1 1.484222 1_555
O17 Si7 1.653167 1_555
O18 Si2 1.610538 1_555
O19 Si3 1.634277 1_555
O20 Si4 1.636409 1_455
O21 S0 1.453432 1_555
O22 Si0 1.653336 1_565
O23 Si1 1.613033 1_565
O24 S2 1.471986 1_555
O25 S3 1.490792 1_555
O26 Si10 1.626268 1_555
O27 S4 1.494608 1_555
O28 S5 1.479343 1_555
O29 Si11 1.638017 1_555
O30 Si12 1.646431 1_555
O31 S6 1.471359 1_555
O32 Si13 1.628634 1_555
O33 S7 1.484507 1_555
O34 S8 1.485757 1_555
O35 Si14 1.627812 1_555
O36 S8 1.485902 1_555
O37 Si14 1.666450 1_555
O38 Si12 1.649282 1_555
O39 S6 1.492800 1_555
O40 Si13 1.643966 1_555
O41 S7 1.502330 1_555
O42 Si10 1.656469 1_555
O43 S4 1.499842 1_555
O44 S5 1.495686 1_555
O45 Si11 1.638554 1_555
O46 S2 1.491650 1_555
O47 S3 1.508797 1_555
O48 S9 1.493844 1_555
O49 Si15 1.635843 1_555
O50 Si16 1.625977 1_555
O51 Si17 1.633938 1_555
O52 S10 1.504565 1_555
O53 S11 1.465551 1_555
O54 Si18 1.650666 1_555
O55 S12 1.505707 1_555
O56 S13 1.499230 1_555
O57 S14 1.507480 1_555
O58 Si19 1.654769 1_555
O59 Si20 1.639995 1_555
O60 Si19 1.613459 1_555
O61 Si20 1.647942 1_555
O62 Si18 1.622913 1_555
O63 S12 1.483006 1_555
O64 S13 1.465153 1_555
O65 S14 1.476988 1_555
O66 Si16 1.656272 1_555
O67 Si17 1.625734 1_555
O68 S10 1.500833 1_555
O69 S11 1.479968 1_555
O70 S9 1.505413 1_555
O71 Si15 1.635755 1_555
O72 Si19 1.671621 1_555
O73 Si20 1.625424 1_555
O74 Si18 1.625207 1_555
O75 S12 1.470514 1_555
O76 S13 1.492291 1_555
O77 S14 1.456895 1_555
O78 Si16 1.630370 1_555
O79 Si17 1.670011 1_555
O80 S10 1.468506 1_555
O81 S11 1.503701 1_555
O82 S9 1.474203 1_555
O83 Si15 1.643133 1_555
O84 S2 1.495209 1_555
O85 S3 1.475030 1_555
O86 Si10 1.633071 1_555
O87 S4 1.479666 1_555
O88 S5 1.510883 1_555
O89 Si11 1.619735 1_555
O90 Si12 1.608910 1_555
O91 S6 1.494182 1_555
O92 Si13 1.606448 1_555
O93 S7 1.520443 1_555
O94 S8 1.498020 1_555
O95 Si14 1.611245 1_555
O96 Si8 1.627262 1_545
O97 Si9 1.671304 1_545
O98 Si5 1.611375 1_555
O99 Si6 1.621059 1_555
O100 Si7 1.652420 1_555
O101 S1 1.512173 1_655
O102 Si2 1.649874 1_555
O103 Si3 1.625150 1_555
O104 S0 1.503375 1_555
O105 Si4 1.647104 1_555
O106 Si0 1.607776 1_555
O107 Si1 1.612563 1_555
O108 S9 1.477763 1_555
O109 Si15 1.667737 1_555
O110 Si17 1.644702 1_555
O111 Si16 1.638807 1_655
O112 S10 1.484265 1_545
O113 S11 1.523103 1_545
O114 Si18 1.661722 1_545
O115 S12 1.499358 1_545
O116 S13 1.519527 1_555
O117 S14 1.511930 1_555
O118 Si20 1.642651 1_555
O119 Si19 1.649424 1_655
O120 S8 1.506860 1_555
O121 Si14 1.640894 1_555
O122 S6 1.500775 1_455
O123 Si12 1.643108 1_555
O124 Si13 1.672955 1_565
O125 S7 1.468470 1_565
O126 Si10 1.669159 1_565
O127 S4 1.494049 1_565
O128 S5 1.498127 1_555
O129 Si11 1.663792 1_555
O130 S3 1.485544 1_455
O131 S2 1.504216 1_555
O132 Si0 1.626308 1_565
O133 Si1 1.668040 1_565
O134 Si2 1.609364 1_555
O135 Si3 1.624813 1_555
O136 Si4 1.623604 1_455
O137 S0 1.530332 1_555
O138 Si5 1.663020 1_555
O139 Si6 1.618564 1_555
O140 S1 1.501269 1_555
O141 Si7 1.621503 1_555
O142 Si8 1.623960 1_555
O143 Si9 1.599991 1_555
