# generated using pymatgen
data_NbAlSi(SO6)2
_symmetry_space_group_name_H-M   'P 1'
_cell_length_a   8.64848674
_cell_length_b   8.65545810
_cell_length_c   22.34837088
_cell_angle_alpha   89.71577988
_cell_angle_beta   90.00000000
_cell_angle_gamma   119.97336020
_symmetry_Int_Tables_number   1
_chemical_formula_structural   NbAlSi(SO6)2
_chemical_formula_sum   'Nb6 Al6 Si6 S12 O72'
_cell_volume   1449.15914704
_cell_formula_units_Z   6
loop_
 _symmetry_equiv_pos_site_id
 _symmetry_equiv_pos_as_xyz
  1  'x, y, z'
loop_
 _atom_site_type_symbol
 _atom_site_label
 _atom_site_symmetry_multiplicity
 _atom_site_fract_x
 _atom_site_fract_y
 _atom_site_fract_z
 _atom_site_occupancy
  Nb  Nb0  1  0.00891924  0.01992128  0.64110719  1
  Nb  Nb1  1  0.01100204  0.01992128  0.14110719  1
  Nb  Nb2  1  0.65115748  0.32566870  0.97396576  1
  Nb  Nb3  1  0.67451222  0.32566870  0.47396576  1
  Nb  Nb4  1  0.33626023  0.67045386  0.30763181  1
  Nb  Nb5  1  0.33419263  0.67045386  0.80763181  1
  Al  Al0  1  0.98477974  0.01085355  0.35658688  1
  Al  Al1  1  0.02607381  0.01085355  0.85658688  1
  Al  Al2  1  0.67301934  0.34221235  0.68790497  1
  Al  Al3  1  0.66919402  0.34221235  0.18790497  1
  Al  Al4  1  0.32523988  0.66479648  0.02359820  1
  Al  Al5  1  0.33955560  0.66479648  0.52359820  1
  Si  Si0  1  0.97825259  0.28138524  0.25221228  1
  Si  Si1  1  0.30313265  0.28138524  0.75221228  1
  Si  Si2  1  0.96356274  0.36094960  0.58662068  1
  Si  Si3  1  0.39738786  0.36094960  0.08662068  1
  Si  Si4  1  0.31241992  0.93326773  0.92052907  1
  Si  Si5  1  0.62084680  0.93326773  0.42052907  1
  S  S0  1  0.28786883  0.01090392  0.25158777  1
  S  S1  1  0.72315591  0.70981337  0.25100085  1
  S  S2  1  0.98665746  0.70981337  0.75100085  1
  S  S3  1  0.72303508  0.01090392  0.75158777  1
  S  S4  1  0.38637123  0.04099555  0.58385819  1
  S  S5  1  0.65928079  0.61531233  0.58428342  1
  S  S6  1  0.95603254  0.61531233  0.08428342  1
  S  S7  1  0.65462531  0.04099555  0.08385819  1
  S  S8  1  0.62914472  0.68258281  0.91611201  1
  S  S9  1  0.05077112  0.37438646  0.91761222  1
  S  S10  1  0.32361434  0.37438646  0.41761222  1
  S  S11  1  0.05343710  0.68258281  0.41611201  1
  O  O0  1  0.20162169  0.02904561  0.30498870  1
  O  O1  1  0.83076243  0.79133393  0.30442757  1
  O  O2  1  0.96474226  0.15790954  0.30708633  1
  O  O3  1  0.19316727  0.15790954  0.80708633  1
  O  O4  1  0.96057149  0.79133393  0.80442757  1
  O  O5  1  0.82742391  0.02904561  0.80498870  1
  O  O6  1  0.79688410  0.96968141  0.69700810  1
  O  O7  1  0.16832033  0.19424372  0.69183983  1
  O  O8  1  0.02544362  0.82176288  0.69668545  1
  O  O9  1  0.79631926  0.82176288  0.19668545  1
  O  O10  1  0.02592339  0.19424372  0.19183983  1
  O  O11  1  0.17279731  0.96968141  0.19700810  1
  O  O12  1  0.85662935  0.37024896  0.64309598  1
  O  O13  1  0.49395260  0.12582495  0.63680620  1
  O  O14  1  0.63050696  0.50392635  0.63755035  1
  O  O15  1  0.87342039  0.50392635  0.13755035  1
  O  O16  1  0.63187335  0.12582495  0.13680620  1
  O  O17  1  0.51362061  0.37024896  0.14309598  1
  O  O18  1  0.47971265  0.31163595  0.02631908  1
  O  O19  1  0.84521049  0.53809459  0.02996968  1
  O  O20  1  0.70086195  0.15855461  0.02956305  1
  O  O21  1  0.45769366  0.15855461  0.52956305  1
  O  O22  1  0.69288510  0.53809459  0.52996968  1
  O  O23  1  0.83192430  0.31163595  0.52631908  1
  O  O24  1  0.54537988  0.70302326  0.96981315  1
  O  O25  1  0.16259273  0.45364566  0.97052729  1
  O  O26  1  0.30374869  0.81762180  0.97719419  1
  O  O27  1  0.51387211  0.81762180  0.47719419  1
  O  O28  1  0.29105192  0.45364566  0.47052729  1
  O  O29  1  0.15764238  0.70302326  0.46981315  1
  O  O30  1  0.12429506  0.63422637  0.36236759  1
  O  O31  1  0.49360199  0.85294727  0.36023671  1
  O  O32  1  0.35924430  0.48938608  0.36327265  1
  O  O33  1  0.13014078  0.48938608  0.86327265  1
  O  O34  1  0.35934428  0.85294727  0.86023671  1
  O  O35  1  0.50993031  0.63422637  0.86236759  1
  O  O36  1  0.03645081  0.83839190  0.40375720  1
  O  O37  1  0.81426756  0.96286238  0.40868882  1
  O  O38  1  0.17440765  0.19496918  0.40677400  1
  O  O39  1  0.02056153  0.19496918  0.90677400  1
  O  O40  1  0.14859481  0.96286238  0.90868882  1
  O  O41  1  0.80194109  0.83839190  0.90375720  1
  O  O42  1  0.97072525  0.17066889  0.59270862  1
  O  O43  1  0.20135851  0.01797085  0.59071792  1
  O  O44  1  0.82207415  0.79429603  0.59303662  1
  O  O45  1  0.97222188  0.79429603  0.09303662  1
  O  O46  1  0.81661233  0.01797085  0.09071792  1
  O  O47  1  0.19994364  0.17066889  0.09270862  1
  O  O48  1  0.69885567  0.16356251  0.74157039  1
  O  O49  1  0.49120744  0.30587683  0.73408974  1
  O  O50  1  0.83443503  0.53116078  0.74254038  1
  O  O51  1  0.69672675  0.53116078  0.24254038  1
  O  O52  1  0.81467039  0.30587683  0.23408974  1
  O  O53  1  0.46470784  0.16356251  0.24157039  1
  O  O54  1  0.65344598  0.52098125  0.92352938  1
  O  O55  1  0.87438882  0.36442433  0.92564391  1
  O  O56  1  0.49972175  0.13519075  0.92706606  1
  O  O57  1  0.63547000  0.13519075  0.42706606  1
  O  O58  1  0.49003651  0.36442433  0.42564391  1
  O  O59  1  0.86753627  0.52098125  0.42352938  1
  O  O60  1  0.36242280  0.51817743  0.06909268  1
  O  O61  1  0.13376391  0.63680366  0.07569918  1
  O  O62  1  0.50096156  0.86533492  0.07435431  1
  O  O63  1  0.36437236  0.86533492  0.57435431  1
  O  O64  1  0.50303876  0.63680366  0.57569918  1
  O  O65  1  0.15575363  0.51817743  0.56909268  1
  O  O66  1  0.30405099  0.84459946  0.25725614  1
  O  O67  1  0.53905143  0.69054171  0.25829624  1
  O  O68  1  0.16190923  0.47757099  0.26181525  1
  O  O69  1  0.31566076  0.47757099  0.76181525  1
  O  O70  1  0.15148928  0.69054171  0.75829624  1
  O  O71  1  0.54054746  0.84459946  0.75725614  1
loop_
_geom_bond_atom_site_label_1
_geom_bond_atom_site_label_2
_geom_bond_distance
_geom_bond_site_symmetry_2
Nb0 O42 1.843410 1_455
Nb0 O7 1.844222 1_555
Nb0 O43 2.016584 1_555
Nb0 O6 2.076156 1_445
Nb0 O44 2.108731 1_445
Nb0 O8 2.174562 1_545
Nb1 O47 1.843410 1_555
Nb1 O10 1.844222 1_555
Nb1 O46 2.016584 1_455
Nb1 O11 2.076156 1_545
Nb1 O45 2.108731 1_445
Nb1 O9 2.174562 1_445
Nb2 O56 1.841637 1_555
Nb2 O18 1.844135 1_556
Nb2 O54 2.019016 1_555
Nb2 O55 2.086939 1_555
Nb2 O20 2.103398 1_556
Nb2 O19 2.168700 1_556
Nb3 O57 1.841637 1_555
Nb3 O23 1.844135 1_555
Nb3 O59 2.019016 1_555
Nb3 O58 2.086939 1_555
Nb3 O21 2.103398 1_555
Nb3 O22 2.168700 1_555
Nb4 O31 1.897251 1_555
Nb4 O68 1.900239 1_555
Nb4 O67 2.003806 1_555
Nb4 O66 2.004929 1_555
Nb4 O32 2.081801 1_555
Nb4 O30 2.092141 1_555
Nb5 O34 1.897251 1_555
Nb5 O69 1.900239 1_555
Nb5 O70 2.003806 1_555
Nb5 O71 2.004929 1_555
Nb5 O33 2.081801 1_555
Nb5 O35 2.092141 1_555
Al0 O2 1.755100 1_555
Al0 O37 1.756745 1_545
Al0 O38 1.973191 1_655
Al0 O36 2.046990 1_645
Al0 O1 2.058241 1_545
Al0 O0 2.138834 1_655
Al1 O3 1.755100 1_555
Al1 O40 1.756745 1_545
Al1 O39 1.973191 1_555
Al1 O41 2.046990 1_445
Al1 O4 2.058241 1_445
Al1 O5 2.138834 1_455
Al2 O49 1.771820 1_555
Al2 O12 1.787691 1_555
Al2 O50 1.962886 1_555
Al2 O14 1.964523 1_555
Al2 O48 2.050902 1_555
Al2 O13 2.081669 1_555
Al3 O52 1.771820 1_555
Al3 O17 1.787691 1_555
Al3 O51 1.962886 1_555
Al3 O15 1.964522 1_555
Al3 O53 2.050902 1_555
Al3 O16 2.081669 1_555
Al4 O26 1.758354 1_554
Al4 O60 1.772742 1_555
Al4 O61 1.937272 1_555
Al4 O62 1.998216 1_555
Al4 O25 2.044088 1_554
Al4 O24 2.132059 1_554
Al5 O27 1.758354 1_555
Al5 O65 1.772742 1_555
Al5 O64 1.937272 1_555
Al5 O63 1.998216 1_555
Al5 O28 2.044088 1_555
Al5 O29 2.132059 1_555
O0 S0 1.457459 1_555
O1 S1 1.463495 1_555
O2 Si0 1.588081 1_555
O3 Si1 1.588081 1_555
O4 S2 1.463495 1_555
O5 S3 1.457459 1_555
O6 S3 1.501688 1_565
O7 Si1 1.697082 1_555
O8 S2 1.479341 1_455
O9 S1 1.479341 1_555
O10 Si0 1.697082 1_455
O11 S0 1.501688 1_565
O12 Si2 1.590634 1_555
O13 S4 1.459796 1_555
O14 S5 1.468816 1_555
O15 S6 1.468816 1_555
O16 S7 1.459796 1_555
O17 Si3 1.590634 1_555
O18 Si3 1.677680 1_555
O19 S6 1.485484 1_555
O20 S7 1.499605 1_555
O21 S4 1.499605 1_555
O22 S5 1.485484 1_555
O23 Si2 1.677680 1_555
O24 S8 1.458288 1_555
O25 S9 1.466113 1_555
O26 Si4 1.588610 1_555
O27 Si5 1.588610 1_555
O28 S10 1.466113 1_555
O29 S11 1.458288 1_555
O30 S11 1.501545 1_555
O31 Si5 1.659757 1_555
O32 S10 1.497340 1_555
O33 S9 1.497340 1_555
O34 Si4 1.659757 1_555
O35 S8 1.501545 1_555
O36 S11 1.452859 1_555
O37 Si5 1.582738 1_555
O38 S10 1.461802 1_555
O39 S9 1.461805 1_555
O40 Si4 1.582730 1_555
O41 S8 1.452864 1_555
O42 Si2 1.683616 1_555
O43 S4 1.518074 1_555
O44 S5 1.498036 1_555
O45 S6 1.498040 1_555
O46 S7 1.518066 1_555
O47 Si3 1.683621 1_555
O48 S3 1.453587 1_555
O49 Si1 1.584075 1_555
O50 S2 1.459052 1_555
O51 S1 1.459055 1_555
O52 Si0 1.584067 1_555
O53 S0 1.453592 1_555
O54 S8 1.523005 1_555
O55 S9 1.495005 1_655
O56 Si4 1.695176 1_545
O57 Si5 1.695169 1_545
O58 S10 1.495022 1_555
O59 S11 1.522995 1_655
O60 Si3 1.582019 1_555
O61 S6 1.465624 1_455
O62 S7 1.451614 1_565
O63 S4 1.451607 1_565
O64 S5 1.465641 1_555
O65 Si2 1.582008 1_455
O66 S0 1.518916 1_565
O67 S1 1.524447 1_555
O68 Si0 1.661635 1_455
O69 Si1 1.661639 1_555
O70 S2 1.524439 1_455
O71 S3 1.518921 1_565
