# generated using pymatgen
data_MgCo6(O3F)3
_symmetry_space_group_name_H-M   'P 1'
_cell_length_a   4.96812265
_cell_length_b   4.97965833
_cell_length_c   8.61320675
_cell_angle_alpha   89.06827837
_cell_angle_beta   91.67215628
_cell_angle_gamma   102.36653829
_symmetry_Int_Tables_number   1
_chemical_formula_structural   MgCo6(O3F)3
_chemical_formula_sum   'Mg1 Co6 O9 F3'
_cell_volume   208.04317058
_cell_formula_units_Z   1
loop_
 _symmetry_equiv_pos_site_id
 _symmetry_equiv_pos_as_xyz
  1  'x, y, z'
loop_
 _atom_site_type_symbol
 _atom_site_label
 _atom_site_symmetry_multiplicity
 _atom_site_fract_x
 _atom_site_fract_y
 _atom_site_fract_z
 _atom_site_occupancy
  Mg  Mg0  1  0.03696050  0.51726342  -0.00181232  1
  Co  Co0  1  0.98665180  0.00183776  0.99584989  1
  Co  Co1  1  -0.00171429  0.99328370  0.33247378  1
  Co  Co2  1  0.02234830  0.98038405  0.65823264  1
  Co  Co3  1  0.57102163  0.40687443  0.17829427  1
  Co  Co4  1  0.51138534  0.48862726  0.82267776  1
  Co  Co5  1  0.42885945  0.56886753  0.49240140  1
  O  O0  1  0.13765297  0.82523092  0.84049336  1
  O  O1  1  0.17768351  0.80950012  0.49142946  1
  O  O2  1  0.30747382  0.29915612  0.33605911  1
  O  O3  1  0.31374046  0.29228047  0.99575434  1
  O  O4  1  0.29496831  0.32174692  0.65769661  1
  O  O5  1  0.67011985  0.71344579  0.65956722  1
  O  O6  1  0.69709368  0.67820300  0.00060310  1
  O  O7  1  0.68337364  0.68997652  0.33403485  1
  O  O8  1  0.83770082  0.19537202  0.15854515  1
  F  F0  1  0.17407872  0.79064304  0.16060137  1
  F  F1  1  0.82012690  0.24429882  0.83665548  1
  F  F2  1  0.83047457  0.16911810  0.50044552  1
loop_
_geom_bond_atom_site_label_1
_geom_bond_atom_site_label_2
_geom_bond_distance
_geom_bond_site_symmetry_2
Mg0 O3 1.951600 1_554
Mg0 O6 2.018900 1_455
Mg0 O0 2.022439 1_554
Mg0 O8 2.187494 1_455
Co0 O0 1.872489 1_645
Co0 O6 1.917451 1_546
Co0 O3 1.930240 1_655
Co0 O8 1.962149 1_556
Co0 F0 2.068951 1_646
Co0 F1 2.080896 1_555
Co1 O2 1.917570 1_565
Co1 O7 1.928092 1_455
Co1 O1 1.934893 1_555
Co1 F2 1.994783 1_465
Co1 O8 2.029422 1_465
Co1 F0 2.115190 1_555
Co2 O0 1.867392 1_555
Co2 O4 1.933381 1_565
Co2 O1 1.941533 1_555
Co2 O5 1.957960 1_455
Co2 F2 1.976256 1_465
Co2 F1 2.412372 1_465
Co3 O8 1.873553 1_555
Co3 O2 1.904704 1_555
Co3 O7 1.944001 1_555
Co3 O3 2.007708 1_554
Co3 O6 2.046083 1_555
Co4 O4 1.852678 1_555
Co4 O5 1.866639 1_555
Co4 O6 1.918973 1_556
Co4 O3 1.941461 1_555
Co4 F1 2.152056 1_555
Co5 O7 1.889564 1_555
Co5 O5 1.895122 1_555
Co5 O4 1.905637 1_555
Co5 O1 1.905949 1_555
Co5 O2 1.909286 1_555
F0 Mg0 1.970616 1_555
F1 Mg0 2.071395 1_656
