# generated using pymatgen
data_Tm2S3
_symmetry_space_group_name_H-M   'P 1'
_cell_length_a   3.87066670
_cell_length_b   10.86108076
_cell_length_c   11.11103385
_cell_angle_alpha   108.92890190
_cell_angle_beta   90.00000000
_cell_angle_gamma   90.00000000
_symmetry_Int_Tables_number   1
_chemical_formula_structural   Tm2S3
_chemical_formula_sum   'Tm8 S12'
_cell_volume   441.84357555
_cell_formula_units_Z   4
loop_
 _symmetry_equiv_pos_site_id
 _symmetry_equiv_pos_as_xyz
  1  'x, y, z'
loop_
 _atom_site_type_symbol
 _atom_site_label
 _atom_site_symmetry_multiplicity
 _atom_site_fract_x
 _atom_site_fract_y
 _atom_site_fract_z
 _atom_site_occupancy
  Tm  Tm0  1  0.25000000  0.18240426  0.00295255  1
  Tm  Tm1  1  0.75000000  0.81759574  0.99704745  1
  Tm  Tm2  1  0.25000000  0.54330094  0.19013770  1
  Tm  Tm3  1  0.75000000  0.45669906  0.80986230  1
  Tm  Tm4  1  0.25000000  0.93250348  0.33191458  1
  Tm  Tm5  1  0.75000000  0.06749652  0.66808542  1
  Tm  Tm6  1  0.25000000  0.66100921  0.58368679  1
  Tm  Tm7  1  0.75000000  0.33899079  0.41631321  1
  S  S0  1  0.25000000  0.97700945  0.11347367  1
  S  S1  1  0.75000000  0.02299055  0.88652633  1
  S  S2  1  0.25000000  0.30844108  0.25049138  1
  S  S3  1  0.75000000  0.69155892  0.74950862  1
  S  S4  1  0.25000000  0.89759782  0.56325027  1
  S  S5  1  0.75000000  0.10240218  0.43674973  1
  S  S6  1  0.25000000  0.41883836  0.59798394  1
  S  S7  1  0.75000000  0.58116164  0.40201606  1
  S  S8  1  0.25000000  0.24549732  0.77676171  1
  S  S9  1  0.75000000  0.75450268  0.22323829  1
  S  S10  1  0.25000000  0.61025054  0.96258837  1
  S  S11  1  0.75000000  0.38974946  0.03741163  1
loop_
_geom_bond_atom_site_label_1
_geom_bond_atom_site_label_2
_geom_bond_distance
_geom_bond_site_symmetry_2
S0 Tm4 2.624056 1_555
S0 Tm1 2.638860 1_454
S0 Tm1 2.638860 1_554
S0 Tm0 2.874339 1_565
S1 Tm5 2.624056 1_555
S1 Tm0 2.638860 1_556
S1 Tm0 2.638860 1_656
S1 Tm1 2.874339 1_545
S2 Tm7 2.617941 1_555
S2 Tm7 2.617941 1_455
S2 Tm0 2.644983 1_555
S2 Tm2 2.840112 1_555
S3 Tm6 2.617941 1_555
S3 Tm6 2.617941 1_655
S3 Tm1 2.644983 1_555
S3 Tm3 2.840112 1_555
S4 Tm6 2.651981 1_555
S4 Tm5 2.666998 1_565
S4 Tm5 2.666998 1_465
S4 Tm4 2.717130 1_555
S5 Tm7 2.651981 1_555
S5 Tm4 2.666998 1_645
S5 Tm4 2.666998 1_545
S5 Tm5 2.717130 1_555
S6 Tm6 2.685976 1_555
S6 Tm7 2.726978 1_455
S6 Tm7 2.726978 1_555
S6 Tm3 2.971319 1_555
S6 Tm3 2.971319 1_455
S7 Tm7 2.685976 1_555
S7 Tm6 2.726978 1_555
S7 Tm6 2.726978 1_655
S7 Tm2 2.971319 1_555
S7 Tm2 2.971319 1_655
S8 Tm5 2.725178 1_455
S8 Tm5 2.725178 1_555
S8 Tm0 2.811258 1_556
S8 Tm3 2.931776 1_555
S8 Tm3 2.931776 1_455
S9 Tm4 2.725178 1_655
S9 Tm4 2.725178 1_555
S9 Tm1 2.811258 1_554
S9 Tm2 2.931776 1_655
S9 Tm2 2.931776 1_555
S10 Tm3 2.751430 1_555
S10 Tm3 2.751430 1_455
S10 Tm2 2.848482 1_556
S10 Tm1 2.898995 1_455
S10 Tm1 2.898995 1_555
S11 Tm2 2.751430 1_555
S11 Tm2 2.751430 1_655
S11 Tm3 2.848482 1_554
S11 Tm0 2.898995 1_555
S11 Tm0 2.898995 1_655
