# generated using pymatgen
data_LuMnGe2
_symmetry_space_group_name_H-M   'P 1'
_cell_length_a   9.57010224
_cell_length_b   9.57010224
_cell_length_c   8.19764200
_cell_angle_alpha   90.00000000
_cell_angle_beta   90.00000000
_cell_angle_gamma   147.25097972
_symmetry_Int_Tables_number   1
_chemical_formula_structural   LuMnGe2
_chemical_formula_sum   'Lu6 Mn6 Ge12'
_cell_volume   406.15081535
_cell_formula_units_Z   6
loop_
 _symmetry_equiv_pos_site_id
 _symmetry_equiv_pos_as_xyz
  1  'x, y, z'
loop_
 _atom_site_type_symbol
 _atom_site_label
 _atom_site_symmetry_multiplicity
 _atom_site_fract_x
 _atom_site_fract_y
 _atom_site_fract_z
 _atom_site_occupancy
  Lu  Lu0  1  0.09363500  0.90636500  0.25205100  1
  Lu  Lu1  1  0.90636500  0.09363500  0.74794900  1
  Lu  Lu2  1  0.90636500  0.09363500  0.25205100  1
  Lu  Lu3  1  0.09363500  0.90636500  0.74794900  1
  Lu  Lu4  1  0.35940500  0.64059500  0.50000000  1
  Lu  Lu5  1  0.64059500  0.35940500  0.50000000  1
  Mn  Mn0  1  0.50000000  0.00000000  0.74792700  1
  Mn  Mn1  1  0.00000000  0.50000000  0.74792700  1
  Mn  Mn2  1  0.50000000  0.00000000  0.25207300  1
  Mn  Mn3  1  0.00000000  0.50000000  0.25207300  1
  Mn  Mn4  1  0.50000000  0.50000000  0.24861200  1
  Mn  Mn5  1  0.50000000  0.50000000  0.75138800  1
  Ge  Ge0  1  0.20269700  0.79730300  0.50000000  1
  Ge  Ge1  1  0.79730300  0.20269700  0.50000000  1
  Ge  Ge2  1  0.63815600  0.36184400  0.15541200  1
  Ge  Ge3  1  0.63815600  0.36184400  0.84458800  1
  Ge  Ge4  1  0.36184400  0.63815600  0.15541200  1
  Ge  Ge5  1  0.36184400  0.63815600  0.84458800  1
  Ge  Ge6  1  0.24570700  0.24570700  0.00000000  1
  Ge  Ge7  1  0.75429300  0.75429300  0.00000000  1
  Ge  Ge8  1  0.24635700  0.24635700  0.50000000  1
  Ge  Ge9  1  0.75364300  0.75364300  0.50000000  1
  Ge  Ge10  1  0.21091600  0.78908400  0.00000000  1
  Ge  Ge11  1  0.78908400  0.21091600  0.00000000  1
loop_
_geom_bond_atom_site_label_1
_geom_bond_atom_site_label_2
_geom_bond_distance
_geom_bond_site_symmetry_2
Ge0 Mn2 2.589408 1_565
Ge0 Mn3 2.589408 1_555
Ge0 Mn0 2.589408 1_565
Ge0 Mn1 2.589408 1_555
Ge0 Lu3 2.853535 1_555
Ge0 Lu0 2.853535 1_555
Ge0 Lu4 2.877765 1_555
Ge0 Lu5 2.929084 1_565
Ge0 Lu5 2.929084 1_455
Ge1 Mn3 2.589408 1_655
Ge1 Mn0 2.589408 1_555
Ge1 Mn2 2.589408 1_555
Ge1 Mn1 2.589408 1_655
Ge1 Lu1 2.853535 1_555
Ge1 Lu2 2.853535 1_555
Ge1 Lu5 2.877765 1_555
Ge1 Lu4 2.929084 1_655
Ge1 Lu4 2.929084 1_545
Ge2 Ge3 2.548024 1_554
Ge2 Mn3 2.581875 1_655
Ge2 Mn2 2.581875 1_555
Ge2 Mn4 2.649622 1_555
Ge2 Lu5 2.825164 1_555
Ge2 Lu0 2.928306 1_545
Ge2 Lu0 2.928306 1_655
Ge3 Mn1 2.581875 1_655
Ge3 Mn0 2.581875 1_555
Ge3 Mn5 2.649622 1_555
Ge3 Lu5 2.825164 1_555
Ge3 Lu3 2.928306 1_545
Ge3 Lu3 2.928306 1_655
Ge4 Ge5 2.548024 1_554
Ge4 Mn2 2.581875 1_565
Ge4 Mn3 2.581875 1_555
Ge4 Mn4 2.649622 1_555
Ge4 Lu4 2.825164 1_555
Ge4 Lu2 2.928306 1_455
Ge4 Lu2 2.928306 1_565
Ge5 Mn1 2.581875 1_555
Ge5 Mn0 2.581875 1_565
Ge5 Mn5 2.649622 1_555
Ge5 Lu4 2.825164 1_555
Ge5 Lu1 2.928306 1_455
Ge5 Lu1 2.928306 1_565
Ge6 Mn4 2.456897 1_555
Ge6 Mn5 2.456897 1_554
Ge6 Lu0 2.997289 1_545
Ge6 Lu2 2.997289 1_455
Ge6 Lu1 2.997289 1_454
Ge6 Lu3 2.997289 1_544
Ge7 Mn4 2.456897 1_555
Ge7 Mn5 2.456897 1_554
Ge7 Lu2 2.997289 1_565
Ge7 Lu0 2.997289 1_655
Ge7 Lu1 2.997289 1_564
Ge7 Lu3 2.997289 1_654
Ge8 Mn4 2.473865 1_555
Ge8 Mn5 2.473865 1_555
Ge8 Ge9 2.658637 1_445
Ge8 Ge9 2.737267 1_555
Ge8 Lu5 2.922191 1_555
Ge8 Lu4 2.922191 1_555
Ge8 Lu3 2.975773 1_545
Ge8 Lu1 2.975773 1_455
Ge8 Lu0 2.975773 1_545
Ge8 Lu2 2.975773 1_455
Ge9 Mn5 2.473865 1_555
Ge9 Mn4 2.473865 1_555
Ge9 Lu5 2.922191 1_555
Ge9 Lu4 2.922191 1_555
Ge9 Lu3 2.975773 1_655
Ge9 Lu1 2.975773 1_565
Ge9 Lu0 2.975773 1_655
Ge9 Lu2 2.975773 1_565
Ge10 Mn0 2.570001 1_564
Ge10 Mn2 2.570001 1_565
Ge10 Mn3 2.570001 1_555
Ge10 Mn1 2.570001 1_554
Ge10 Lu0 2.984601 1_555
Ge10 Lu3 2.984601 1_554
Ge11 Mn1 2.570001 1_654
Ge11 Mn0 2.570001 1_554
Ge11 Mn2 2.570001 1_555
Ge11 Mn3 2.570001 1_655
Ge11 Lu2 2.984601 1_555
Ge11 Lu1 2.984601 1_554
