# generated using pymatgen
data_CaNi2
_symmetry_space_group_name_H-M   'P 1'
_cell_length_a   5.03832305
_cell_length_b   5.03831035
_cell_length_c   5.03827391
_cell_angle_alpha   60.00165519
_cell_angle_beta   60.00160929
_cell_angle_gamma   60.00197990
_symmetry_Int_Tables_number   1
_chemical_formula_structural   CaNi2
_chemical_formula_sum   'Ca2 Ni4'
_cell_volume   90.43882592
_cell_formula_units_Z   2
loop_
 _symmetry_equiv_pos_site_id
 _symmetry_equiv_pos_as_xyz
  1  'x, y, z'
loop_
 _atom_site_type_symbol
 _atom_site_label
 _atom_site_symmetry_multiplicity
 _atom_site_fract_x
 _atom_site_fract_y
 _atom_site_fract_z
 _atom_site_occupancy
  Ca  Ca0  1  0.87500163  0.87499899  0.87500196  1
  Ca  Ca1  1  0.12499837  0.12500101  0.12499804  1
  Ni  Ni0  1  0.50000000  0.50000000  0.50000000  1
  Ni  Ni1  1  0.50000000  0.50000000  -0.00000000  1
  Ni  Ni2  1  -0.00000000  0.50000000  0.50000000  1
  Ni  Ni3  1  0.50000000  0.00000000  0.50000000  1
loop_
_geom_bond_atom_site_label_1
_geom_bond_atom_site_label_2
_geom_bond_distance
_geom_bond_site_symmetry_2
Ca0 Ni2 2.953958 1_655
Ca0 Ni1 2.953968 1_556
Ca0 Ni3 2.953970 1_565
Ca0 Ni2 2.953987 1_656
Ca0 Ni3 2.953990 1_566
Ca0 Ni3 2.954012 1_665
Ca0 Ni2 2.954013 1_665
Ca0 Ni1 2.954019 1_656
Ca0 Ni1 2.954023 1_566
Ca0 Ni0 2.954024 1_556
Ca0 Ni0 2.954046 1_655
Ca0 Ni0 2.954059 1_565
Ca1 Ni2 2.953958 1_555
Ca1 Ni1 2.953968 1_555
Ca1 Ni3 2.953970 1_555
Ca1 Ni2 2.953987 1_554
Ca1 Ni3 2.953990 1_554
Ca1 Ni3 2.954012 1_455
Ca1 Ni2 2.954013 1_545
Ca1 Ni1 2.954019 1_455
Ca1 Ni1 2.954023 1_545
Ca1 Ni0 2.954024 1_554
Ca1 Ni0 2.954046 1_455
Ca1 Ni0 2.954059 1_545
Ni0 Ni1 2.519137 1_555
Ni0 Ni1 2.519137 1_556
Ni0 Ni3 2.519155 1_555
Ni0 Ni3 2.519155 1_565
Ni0 Ni2 2.519162 1_655
Ni0 Ni2 2.519162 1_555
Ni1 Ni3 2.519209 1_555
Ni1 Ni3 2.519209 1_564
Ni1 Ni2 2.519211 1_654
Ni1 Ni2 2.519211 1_555
Ni2 Ni3 2.519234 1_465
Ni2 Ni3 2.519234 1_555
