# generated using pymatgen
data_MgTi4(CuS4)2
_symmetry_space_group_name_H-M   'P 1'
_cell_length_a   7.28080131
_cell_length_b   7.03912073
_cell_length_c   7.04169314
_cell_angle_alpha   60.00535775
_cell_angle_beta   61.10013597
_cell_angle_gamma   61.08608760
_symmetry_Int_Tables_number   1
_chemical_formula_structural   MgTi4(CuS4)2
_chemical_formula_sum   'Mg1 Ti4 Cu2 S8'
_cell_volume   259.33383681
_cell_formula_units_Z   1
loop_
 _symmetry_equiv_pos_site_id
 _symmetry_equiv_pos_as_xyz
  1  'x, y, z'
loop_
 _atom_site_type_symbol
 _atom_site_label
 _atom_site_symmetry_multiplicity
 _atom_site_fract_x
 _atom_site_fract_y
 _atom_site_fract_z
 _atom_site_occupancy
  Mg  Mg0  1  0.50000000  0.00000000  0.00000000  1
  Ti  Ti0  1  0.50000000  0.99999900  0.50000000  1
  Ti  Ti1  1  0.99999900  0.50000000  0.50000000  1
  Ti  Ti2  1  0.50000000  0.50000100  0.99999900  1
  Ti  Ti3  1  0.50000000  0.50000000  0.50000000  1
  Cu  Cu0  1  0.91953600  0.86002700  0.86029300  1
  Cu  Cu1  1  0.08046300  0.13997300  0.13970700  1
  S  S0  1  0.74943500  0.74545100  0.74538500  1
  S  S1  1  0.25059000  0.25456600  0.74025900  1
  S  S2  1  0.25058700  0.74028800  0.25458400  1
  S  S3  1  0.72057600  0.25982000  0.25983800  1
  S  S4  1  0.74941500  0.25970700  0.74541700  1
  S  S5  1  0.27942000  0.74018100  0.74016300  1
  S  S6  1  0.25056700  0.25455000  0.25461800  1
  S  S7  1  0.74941200  0.74543600  0.25973700  1
loop_
_geom_bond_atom_site_label_1
_geom_bond_atom_site_label_2
_geom_bond_distance
_geom_bond_site_symmetry_2
Mg0 S4 2.576869 1_554
Mg0 S2 2.576883 1_545
Mg0 S7 2.576923 1_545
Mg0 S1 2.576933 1_554
Mg0 S0 2.577102 1_544
Mg0 S6 2.577122 1_555
Cu0 S5 2.174064 1_655
Cu0 S0 2.329366 1_555
Cu0 S7 2.329521 1_556
Cu0 S4 2.329598 1_565
Cu0 Mg0 2.534421 1_566
Cu1 S3 2.174082 1_455
Cu1 S6 2.329407 1_555
Cu1 S1 2.329545 1_554
Cu1 S2 2.329627 1_545
Cu1 Mg0 2.534427 1_555
S0 Ti1 2.487802 1_555
S0 Ti0 2.507056 1_555
S0 Ti2 2.507508 1_555
S1 Ti1 2.487758 1_455
S1 Ti0 2.507175 1_545
S1 Ti3 2.507257 1_555
S2 Ti1 2.487996 1_455
S2 Ti3 2.507104 1_555
S2 Ti2 2.507453 1_554
S3 Ti3 2.430122 1_555
S3 Ti0 2.430367 1_545
S3 Ti2 2.430444 1_554
S4 Ti1 2.487999 1_555
S4 Ti3 2.507119 1_555
S4 Ti2 2.507473 1_555
S5 Ti3 2.430132 1_555
S5 Ti0 2.430372 1_555
S5 Ti2 2.430449 1_555
S6 Ti1 2.487784 1_455
S6 Ti0 2.507032 1_545
S6 Ti2 2.507503 1_554
S7 Ti1 2.487756 1_555
S7 Ti0 2.507175 1_555
S7 Ti3 2.507277 1_555
