# generated using pymatgen
data_CaIn2O4
_symmetry_space_group_name_H-M   'P 1'
_cell_length_a   6.56542184
_cell_length_b   6.56542179
_cell_length_c   6.58151234
_cell_angle_alpha   119.91916039
_cell_angle_beta   119.91915511
_cell_angle_gamma   89.99999735
_symmetry_Int_Tables_number   1
_chemical_formula_structural   CaIn2O4
_chemical_formula_sum   'Ca2 In4 O8'
_cell_volume   201.09158068
_cell_formula_units_Z   2
loop_
 _symmetry_equiv_pos_site_id
 _symmetry_equiv_pos_as_xyz
  1  'x, y, z'
loop_
 _atom_site_type_symbol
 _atom_site_label
 _atom_site_symmetry_multiplicity
 _atom_site_fract_x
 _atom_site_fract_y
 _atom_site_fract_z
 _atom_site_occupancy
  Ca  Ca0  1  0.37500000  0.62500000  0.75000000  1
  Ca  Ca1  1  0.62500000  0.37500000  0.25000000  1
  In  In0  1  0.50000000  0.00000000  0.50000000  1
  In  In1  1  0.00000000  0.00000000  -0.00000000  1
  In  In2  1  0.00000000  0.00000000  0.50000000  1
  In  In3  1  0.00000000  0.50000000  -0.00000000  1
  O  O0  1  0.76475656  0.79232377  0.52951112  1
  O  O1  1  0.76281165  0.23524344  0.97048888  1
  O  O2  1  0.20767623  0.23524344  0.97048888  1
  O  O3  1  0.23524344  0.20767623  0.47048888  1
  O  O4  1  0.23524344  0.76281165  0.47048888  1
  O  O5  1  0.23718835  0.76475656  0.02951112  1
  O  O6  1  0.76475656  0.23718835  0.52951112  1
  O  O7  1  0.79232377  0.76475656  0.02951112  1
loop_
_geom_bond_atom_site_label_1
_geom_bond_atom_site_label_2
_geom_bond_distance
_geom_bond_site_symmetry_2
Ca0 O5 2.240822 1_556
Ca0 O4 2.240822 1_555
Ca0 O3 2.240827 1_555
Ca0 O7 2.240827 1_556
Ca1 O1 2.240822 1_554
Ca1 O6 2.240822 1_555
Ca1 O0 2.240827 1_555
Ca1 O2 2.240827 1_554
In0 O3 2.201288 1_555
In0 O0 2.201288 1_545
In0 O4 2.201293 1_545
In0 O6 2.201293 1_555
In0 O5 2.202366 1_545
In0 O1 2.202366 1_555
In1 O2 2.201279 1_554
In1 O7 2.201279 1_445
In1 O5 2.201283 1_545
In1 O1 2.201283 1_454
In1 O3 2.202366 1_555
In1 O0 2.202366 1_444
In2 O0 2.201279 1_445
In2 O3 2.201279 1_555
In2 O4 2.201283 1_545
In2 O6 2.201283 1_455
In2 O7 2.202366 1_445
In2 O2 2.202366 1_555
In3 O2 2.201288 1_554
In3 O7 2.201288 1_455
In3 O5 2.201293 1_555
In3 O1 2.201293 1_454
In3 O4 2.202366 1_555
In3 O6 2.202366 1_454
