# generated using pymatgen
data_KCoO2
_symmetry_space_group_name_H-M   'P 1'
_cell_length_a   6.50373377
_cell_length_b   7.07090632
_cell_length_c   6.87663675
_cell_angle_alpha   60.97175421
_cell_angle_beta   61.80436862
_cell_angle_gamma   76.70235694
_symmetry_Int_Tables_number   1
_chemical_formula_structural   KCoO2
_chemical_formula_sum   'K4 Co4 O8'
_cell_volume   243.70108302
_cell_formula_units_Z   4
loop_
 _symmetry_equiv_pos_site_id
 _symmetry_equiv_pos_as_xyz
  1  'x, y, z'
loop_
 _atom_site_type_symbol
 _atom_site_label
 _atom_site_symmetry_multiplicity
 _atom_site_fract_x
 _atom_site_fract_y
 _atom_site_fract_z
 _atom_site_occupancy
  K  K0  1  0.50016458  0.74141394  0.62888419  1
  K  K1  1  0.00016201  0.74141353  0.62888851  1
  K  K2  1  0.99983619  0.25858682  0.37111494  1
  K  K3  1  0.49983816  0.25858488  0.37111112  1
  Co  Co0  1  0.99974668  0.21075284  0.89496094  1
  Co  Co1  1  0.50025337  0.78924757  0.10503971  1
  Co  Co2  1  0.49974582  0.21075414  0.89495929  1
  Co  Co3  1  0.00025477  0.78924595  0.10503986  1
  O  O0  1  0.38560520  0.00002480  0.22830374  1
  O  O1  1  0.88560938  0.00002132  0.22830349  1
  O  O2  1  0.11439394  0.99997646  0.77169644  1
  O  O3  1  0.61439237  0.99997814  0.77169398  1
  O  O4  1  0.25031660  0.64455899  0.17734871  1
  O  O5  1  0.75031364  0.64456103  0.17734972  1
  O  O6  1  0.24968389  0.35544125  0.82265208  1
  O  O7  1  0.74968442  0.35543833  0.82265228  1
loop_
_geom_bond_atom_site_label_1
_geom_bond_atom_site_label_2
_geom_bond_distance
_geom_bond_site_symmetry_2
K0 O2 2.811736 1_555
K0 O1 2.812631 1_565
K0 O0 2.812690 1_565
K0 O3 2.813479 1_555
K0 O7 2.886905 1_555
K0 O6 2.888346 1_555
K0 O5 3.087819 1_555
K0 O4 3.090018 1_556
K1 O3 2.811730 1_455
K1 O0 2.812642 1_565
K1 O1 2.812686 1_465
K1 O2 2.813477 1_555
K1 O6 2.886890 1_555
K1 O7 2.888357 1_455
K1 O4 3.087858 1_555
K1 O5 3.090003 1_456
K2 O0 2.811726 1_655
K2 O3 2.812628 1_545
K2 O2 2.812689 1_645
K2 O1 2.813492 1_555
K2 O5 2.886904 1_555
K2 O4 2.888345 1_655
K2 O7 3.087831 1_555
K2 O6 3.090009 1_654
K3 O1 2.811735 1_555
K3 O2 2.812639 1_545
K3 O3 2.812680 1_545
K3 O0 2.813460 1_555
K3 O4 2.886894 1_555
K3 O5 2.888359 1_555
K3 O6 3.087872 1_555
K3 O7 3.089987 1_554
Co0 O6 1.855749 1_655
Co0 O7 1.855791 1_555
Co0 O1 1.900504 1_556
Co0 O2 1.900860 1_645
Co1 O4 1.855746 1_555
Co1 O5 1.855785 1_555
Co1 O3 1.900516 1_554
Co1 O0 1.900863 1_565
Co2 O7 1.855743 1_555
Co2 O6 1.855788 1_555
Co2 O0 1.900508 1_556
Co2 O3 1.900861 1_545
Co3 O5 1.855753 1_455
Co3 O4 1.855792 1_555
Co3 O2 1.900506 1_554
Co3 O1 1.900849 1_465
