# generated using pymatgen
data_Hf2Si(SO6)2
_symmetry_space_group_name_H-M   'P 1'
_cell_length_a   8.96894526
_cell_length_b   8.96822308
_cell_length_c   23.09148996
_cell_angle_alpha   90.01154060
_cell_angle_beta   90.00000000
_cell_angle_gamma   120.00266381
_symmetry_Int_Tables_number   1
_chemical_formula_structural   Hf2Si(SO6)2
_chemical_formula_sum   'Hf12 Si6 S12 O72'
_cell_volume   1608.49121934
_cell_formula_units_Z   6
loop_
 _symmetry_equiv_pos_site_id
 _symmetry_equiv_pos_as_xyz
  1  'x, y, z'
loop_
 _atom_site_type_symbol
 _atom_site_label
 _atom_site_symmetry_multiplicity
 _atom_site_fract_x
 _atom_site_fract_y
 _atom_site_fract_z
 _atom_site_occupancy
  Hf  Hf0  1  0.98963126  0.00919386  0.35616288  1
  Hf  Hf1  1  0.01956260  0.00919386  0.85616288  1
  Hf  Hf2  1  0.00760580  0.01898615  0.64402796  1
  Hf  Hf3  1  0.01138036  0.01898615  0.14402796  1
  Hf  Hf4  1  0.67126413  0.33690334  0.68923051  1
  Hf  Hf5  1  0.66564020  0.33690334  0.18923051  1
  Hf  Hf6  1  0.64800707  0.32422940  0.97705399  1
  Hf  Hf7  1  0.67622333  0.32422940  0.47705399  1
  Hf  Hf8  1  0.32921552  0.66747666  0.02284454  1
  Hf  Hf9  1  0.33826013  0.66747666  0.52284454  1
  Hf  Hf10  1  0.33483773  0.67045297  0.31066694  1
  Hf  Hf11  1  0.33561424  0.67045297  0.81066694  1
  Si  Si0  1  0.00001776  0.29345054  0.24992575  1
  Si  Si1  1  0.29343278  0.29345054  0.74992575  1
  Si  Si2  1  0.95801010  0.33761288  0.58391673  1
  Si  Si3  1  0.37960378  0.33761288  0.08391673  1
  Si  Si4  1  0.33357892  0.95154947  0.91669908  1
  Si  Si5  1  0.61796954  0.95154947  0.41669908  1
  S  S0  1  0.28720773  0.99967988  0.25014864  1
  S  S1  1  0.71315531  0.71276212  0.24990718  1
  S  S2  1  0.99960680  0.71276212  0.74990718  1
  S  S3  1  0.71247215  0.99967988  0.75014864  1
  S  S4  1  0.37881851  0.04553799  0.58331572  1
  S  S5  1  0.66831197  0.62136156  0.58331503  1
  S  S6  1  0.95305059  0.62136156  0.08331503  1
  S  S7  1  0.66672048  0.04553799  0.08331572  1
  S  S8  1  0.62211506  0.66889799  0.91655610  1
  S  S9  1  0.04432673  0.37964482  0.91675771  1
  S  S10  1  0.33531709  0.37964482  0.41675771  1
  S  S11  1  0.04678193  0.66889799  0.41655610  1
  O  O0  1  0.20893938  0.02661970  0.30209325  1
  O  O1  1  0.82206241  0.79051905  0.30196224  1
  O  O2  1  0.97199959  0.16810604  0.30556561  1
  O  O3  1  0.19610645  0.16810604  0.80556561  1
  O  O4  1  0.96845664  0.79051905  0.80196224  1
  O  O5  1  0.81768032  0.02661970  0.80209325  1
  O  O6  1  0.79033153  0.96849003  0.69810062  1
  O  O7  1  0.16800312  0.19581556  0.69435464  1
  O  O8  1  0.02660567  0.81764649  0.69789897  1
  O  O9  1  0.79104082  0.81764649  0.19789897  1
  O  O10  1  0.02781244  0.19581556  0.19435464  1
  O  O11  1  0.17815850  0.96849003  0.19810062  1
  O  O12  1  0.86169534  0.36196213  0.63973886  1
  O  O13  1  0.48660045  0.12498197  0.63500467  1
  O  O14  1  0.63672523  0.51149443  0.63532464  1
  O  O15  1  0.87477020  0.51149443  0.13532464  1
  O  O16  1  0.63838252  0.12498197  0.13500467  1
  O  O17  1  0.50026779  0.36196213  0.13973886  1
  O  O18  1  0.47243213  0.30660220  0.02771386  1
  O  O19  1  0.84894502  0.54092042  0.03117787  1
  O  O20  1  0.69973376  0.15514453  0.03150899  1
  O  O21  1  0.45541177  0.15514453  0.53150899  1
  O  O22  1  0.69197640  0.54092042  0.53117787  1
  O  O23  1  0.83417106  0.30660220  0.52771386  1
  O  O24  1  0.54046702  0.69390571  0.96844998  1
  O  O25  1  0.15480951  0.45658777  0.96849922  1
  O  O26  1  0.30626423  0.83231465  0.97310818  1
  O  O27  1  0.52604943  0.83231465  0.47310818  1
  O  O28  1  0.30177726  0.45658777  0.46849922  1
  O  O29  1  0.15343770  0.69390571  0.46844998  1
  O  O30  1  0.12351842  0.63526594  0.36477791  1
  O  O31  1  0.49902681  0.85961401  0.36023665  1
  O  O32  1  0.36051143  0.48655165  0.36494114  1
  O  O33  1  0.12603922  0.48655165  0.86494114  1
  O  O34  1  0.36058620  0.85961401  0.86023665  1
  O  O35  1  0.51174651  0.63526594  0.86477791  1
  O  O36  1  0.02944331  0.82171147  0.40698889  1
  O  O37  1  0.80783505  0.97144799  0.40776793  1
  O  O38  1  0.18371469  0.20519209  0.40791243  1
  O  O39  1  0.02147740  0.20519209  0.90791243  1
  O  O40  1  0.16361294  0.97144799  0.90776793  1
  O  O41  1  0.79226817  0.82171147  0.90698889  1
  O  O42  1  0.97167480  0.16386396  0.59236933  1
  O  O43  1  0.20407098  0.02096006  0.59202052  1
  O  O44  1  0.81996513  0.79223587  0.59330832  1
  O  O45  1  0.97227074  0.79223587  0.09330832  1
  O  O46  1  0.81688908  0.02096006  0.09202052  1
  O  O47  1  0.19218916  0.16386396  0.09236933  1
  O  O48  1  0.69112961  0.15142272  0.74094336  1
  O  O49  1  0.47929161  0.31052458  0.73777827  1
  O  O50  1  0.84613059  0.53933764  0.74229653  1
  O  O51  1  0.69320804  0.53933764  0.24229653  1
  O  O52  1  0.83123397  0.31052458  0.23777827  1
  O  O53  1  0.46029412  0.15142272  0.24094336  1
  O  O54  1  0.64514105  0.51726917  0.92530931  1
  O  O55  1  0.87439618  0.36259391  0.92628257  1
  O  O56  1  0.50334705  0.14140748  0.92567234  1
  O  O57  1  0.63806143  0.14140748  0.42567234  1
  O  O58  1  0.48819873  0.36259391  0.42628257  1
  O  O59  1  0.87212912  0.51726917  0.42530931  1
  O  O60  1  0.35623901  0.50230598  0.07140196  1
  O  O61  1  0.12618273  0.63955255  0.07549443  1
  O  O62  1  0.51376354  0.87334413  0.07465118  1
  O  O63  1  0.35957959  0.87334413  0.57465118  1
  O  O64  1  0.51336883  0.63955255  0.57549443  1
  O  O65  1  0.14606598  0.50230598  0.57140196  1
  O  O66  1  0.30680013  0.84610475  0.25777662  1
  O  O67  1  0.53989241  0.69113871  0.25894359  1
  O  O68  1  0.16851174  0.47930503  0.26209638  1
  O  O69  1  0.31079229  0.47930503  0.76209638  1
  O  O70  1  0.15124530  0.69113871  0.75894359  1
  O  O71  1  0.53930362  0.84610475  0.75777662  1
loop_
_geom_bond_atom_site_label_1
_geom_bond_atom_site_label_2
_geom_bond_distance
_geom_bond_site_symmetry_2
Hf0 O37 1.908233 1_545
Hf0 O2 1.909772 1_555
Hf0 O38 2.118237 1_655
Hf0 O1 2.173148 1_545
Hf0 O36 2.221086 1_645
Hf0 O0 2.268236 1_655
Hf1 O40 1.908233 1_545
Hf1 O3 1.909772 1_555
Hf1 O39 2.118237 1_555
Hf1 O4 2.173148 1_445
Hf1 O41 2.221086 1_445
Hf1 O5 2.268236 1_455
Hf2 O42 1.906397 1_455
Hf2 O7 1.911194 1_555
Hf2 O43 2.125159 1_555
Hf2 O6 2.163169 1_445
Hf2 O44 2.217142 1_445
Hf2 O8 2.268373 1_545
Hf3 O47 1.906397 1_555
Hf3 O10 1.911194 1_555
Hf3 O46 2.125159 1_455
Hf3 O11 2.163169 1_545
Hf3 O45 2.217142 1_445
Hf3 O9 2.268373 1_445
Hf4 O49 1.967234 1_555
Hf4 O12 1.972300 1_555
Hf4 O50 2.099717 1_555
Hf4 O48 2.126474 1_555
Hf4 O14 2.140774 1_555
Hf4 O13 2.184983 1_555
Hf5 O52 1.967234 1_555
Hf5 O17 1.972300 1_555
Hf5 O51 2.099717 1_555
Hf5 O53 2.126474 1_555
Hf5 O15 2.140774 1_555
Hf5 O16 2.184983 1_555
Hf6 O18 1.903763 1_556
Hf6 O56 1.910789 1_555
Hf6 O54 2.114434 1_555
Hf6 O20 2.190931 1_556
Hf6 O55 2.217473 1_555
Hf6 O19 2.254537 1_556
Hf7 O23 1.903763 1_555
Hf7 O57 1.910789 1_555
Hf7 O59 2.114434 1_555
Hf7 O21 2.190931 1_555
Hf7 O58 2.217473 1_555
Hf7 O22 2.254537 1_555
Hf8 O26 1.962599 1_554
Hf8 O60 1.967208 1_555
Hf8 O61 2.097822 1_555
Hf8 O62 2.126600 1_555
Hf8 O25 2.153840 1_554
Hf8 O24 2.185118 1_554
Hf9 O27 1.962599 1_555
Hf9 O65 1.967208 1_555
Hf9 O64 2.097823 1_555
Hf9 O63 2.126600 1_555
Hf9 O28 2.153840 1_555
Hf9 O29 2.185118 1_555
Hf10 O31 1.964051 1_555
Hf10 O68 1.965632 1_555
Hf10 O66 2.105543 1_555
Hf10 O67 2.121836 1_555
Hf10 O30 2.157559 1_555
Hf10 O32 2.173576 1_555
Hf11 O34 1.964051 1_555
Hf11 O69 1.965632 1_555
Hf11 O71 2.105543 1_555
Hf11 O70 2.121836 1_555
Hf11 O35 2.157559 1_555
Hf11 O33 2.173576 1_555
O0 S0 1.469490 1_545
O1 S1 1.484493 1_555
O2 Si0 1.641826 1_655
O3 Si1 1.641826 1_555
O4 S2 1.484493 1_555
O5 S3 1.469490 1_545
O6 S3 1.485120 1_555
O7 Si1 1.641140 1_555
O8 S2 1.469133 1_455
O9 S1 1.469133 1_555
O10 Si0 1.641140 1_555
O11 S0 1.485120 1_555
O12 Si2 1.626041 1_555
O13 S4 1.475666 1_555
O14 S5 1.488209 1_555
O15 S6 1.488209 1_555
O16 S7 1.475666 1_555
O17 Si3 1.626041 1_555
O18 Si3 1.638978 1_555
O19 S6 1.472311 1_555
O20 S7 1.481361 1_555
O21 S4 1.481361 1_555
O22 S5 1.472311 1_555
O23 Si2 1.638978 1_555
O24 S8 1.478729 1_555
O25 S9 1.483721 1_555
O26 Si4 1.624418 1_555
O27 Si5 1.624418 1_555
O28 S10 1.483721 1_555
O29 S11 1.478729 1_555
O30 S11 1.483799 1_555
O31 Si5 1.624090 1_555
O32 S10 1.478428 1_555
O33 S9 1.478428 1_555
O34 Si4 1.624090 1_555
O35 S8 1.483799 1_555
O36 S11 1.471198 1_555
O37 Si5 1.634113 1_555
O38 S10 1.486836 1_555
O39 S9 1.486840 1_555
O40 Si4 1.634104 1_555
O41 S8 1.471203 1_555
O42 Si2 1.634709 1_555
O43 S4 1.483222 1_555
O44 S5 1.472071 1_555
O45 S6 1.472074 1_555
O46 S7 1.483213 1_555
O47 Si3 1.634714 1_555
O48 S3 1.481354 1_545
O49 Si1 1.620377 1_555
O50 S2 1.484413 1_555
O51 S1 1.484417 1_555
O52 Si0 1.620369 1_655
O53 S0 1.481359 1_545
O54 S8 1.487830 1_555
O55 S9 1.470227 1_655
O56 Si4 1.633274 1_545
O57 Si5 1.633267 1_545
O58 S10 1.470245 1_555
O59 S11 1.487819 1_655
O60 Si3 1.618234 1_555
O61 S6 1.488999 1_455
O62 S7 1.479186 1_565
O63 S4 1.479179 1_565
O64 S5 1.489017 1_555
O65 Si2 1.618224 1_455
O66 S0 1.483573 1_555
O67 S1 1.481437 1_555
O68 Si0 1.619154 1_555
O69 Si1 1.619158 1_555
O70 S2 1.481428 1_455
O71 S3 1.483578 1_555
