# generated using pymatgen
data_LiFe(PO3)4
_symmetry_space_group_name_H-M   'P 1'
_cell_length_a   8.37933000
_cell_length_b   9.39928800
_cell_length_c   12.80498700
_cell_angle_alpha   90.00000000
_cell_angle_beta   90.00000000
_cell_angle_gamma   90.00000000
_symmetry_Int_Tables_number   1
_chemical_formula_structural   LiFe(PO3)4
_chemical_formula_sum   'Li4 Fe4 P16 O48'
_cell_volume   1008.51739454
_cell_formula_units_Z   4
loop_
 _symmetry_equiv_pos_site_id
 _symmetry_equiv_pos_as_xyz
  1  'x, y, z'
loop_
 _atom_site_type_symbol
 _atom_site_label
 _atom_site_symmetry_multiplicity
 _atom_site_fract_x
 _atom_site_fract_y
 _atom_site_fract_z
 _atom_site_occupancy
  Li  Li0  1  0.00258100  0.75000000  0.00000000  1
  Li  Li1  1  0.50258100  0.75000000  0.50000000  1
  Li  Li2  1  0.49741900  0.25000000  0.50000000  1
  Li  Li3  1  0.99741900  0.25000000  0.00000000  1
  Fe  Fe0  1  0.87086300  0.75000000  0.50000000  1
  Fe  Fe1  1  0.12913700  0.25000000  0.50000000  1
  Fe  Fe2  1  0.62913700  0.25000000  0.00000000  1
  Fe  Fe3  1  0.37086300  0.75000000  0.00000000  1
  P  P0  1  0.46746200  0.49011100  0.84815600  1
  P  P1  1  0.53253800  0.99011100  0.84815600  1
  P  P2  1  0.96746200  0.49011100  0.65184400  1
  P  P3  1  0.17717600  0.99395800  0.86293800  1
  P  P4  1  0.17717600  0.50604200  0.13706200  1
  P  P5  1  0.82282400  0.00604200  0.13706200  1
  P  P6  1  0.46746200  0.00988900  0.15184400  1
  P  P7  1  0.53253800  0.50988900  0.15184400  1
  P  P8  1  0.03253800  0.50988900  0.34815600  1
  P  P9  1  0.96746200  0.00988900  0.34815600  1
  P  P10  1  0.32282400  0.00604200  0.36293800  1
  P  P11  1  0.67717600  0.50604200  0.36293800  1
  P  P12  1  0.32282400  0.49395800  0.63706200  1
  P  P13  1  0.67717600  0.99395800  0.63706200  1
  P  P14  1  0.03253800  0.99011100  0.65184400  1
  P  P15  1  0.82282400  0.49395800  0.86293800  1
  O  O0  1  0.87225700  0.87874100  0.37377400  1
  O  O1  1  0.46707800  0.37177200  0.92796200  1
  O  O2  1  0.53292200  0.87177200  0.92796200  1
  O  O3  1  0.80989200  0.36663700  0.93610300  1
  O  O4  1  0.19010800  0.63336300  0.06389700  1
  O  O5  1  0.80989200  0.13336300  0.06389700  1
  O  O6  1  0.46707800  0.12822800  0.07203800  1
  O  O7  1  0.53292200  0.62822800  0.07203800  1
  O  O8  1  0.09323500  0.37664600  0.10143100  1
  O  O9  1  0.90676500  0.87664600  0.10143100  1
  O  O10  1  0.37225700  0.87874100  0.12622600  1
  O  O11  1  0.62774300  0.37874100  0.12622600  1
  O  O12  1  0.35297900  0.46528900  0.17951600  1
  O  O13  1  0.64702100  0.96528900  0.17951600  1
  O  O14  1  0.09701500  0.57452400  0.24088200  1
  O  O15  1  0.90298500  0.07452400  0.24088200  1
  O  O16  1  0.40298500  0.07452400  0.25911800  1
  O  O17  1  0.59701500  0.57452400  0.25911800  1
  O  O18  1  0.14702100  0.96528900  0.32048400  1
  O  O19  1  0.85297900  0.46528900  0.32048400  1
  O  O20  1  0.12774300  0.37874100  0.37377400  1
  O  O21  1  0.19010800  0.86663700  0.93610300  1
  O  O22  1  0.40676500  0.87664600  0.39856900  1
  O  O23  1  0.59323500  0.37664600  0.39856900  1
  O  O24  1  0.03292200  0.62822800  0.42796200  1
  O  O25  1  0.96707800  0.12822800  0.42796200  1
  O  O26  1  0.30989200  0.13336300  0.43610300  1
  O  O27  1  0.69010800  0.63336300  0.43610300  1
  O  O28  1  0.30989200  0.36663700  0.56389700  1
  O  O29  1  0.69010800  0.86663700  0.56389700  1
  O  O30  1  0.03292200  0.87177200  0.57203800  1
  O  O31  1  0.96707800  0.37177200  0.57203800  1
  O  O32  1  0.40676500  0.62335400  0.60143100  1
  O  O33  1  0.59323500  0.12335400  0.60143100  1
  O  O34  1  0.12774300  0.12125900  0.62622600  1
  O  O35  1  0.87225700  0.62125900  0.62622600  1
  O  O36  1  0.14702100  0.53471100  0.67951600  1
  O  O37  1  0.85297900  0.03471100  0.67951600  1
  O  O38  1  0.40298500  0.42547600  0.74088200  1
  O  O39  1  0.59701500  0.92547600  0.74088200  1
  O  O40  1  0.09701500  0.92547600  0.75911800  1
  O  O41  1  0.90298500  0.42547600  0.75911800  1
  O  O42  1  0.35297900  0.03471100  0.82048400  1
  O  O43  1  0.64702100  0.53471100  0.82048400  1
  O  O44  1  0.37225700  0.62125900  0.87377400  1
  O  O45  1  0.90676500  0.62335400  0.89856900  1
  O  O46  1  0.09323500  0.12335400  0.89856900  1
  O  O47  1  0.62774300  0.12125900  0.87377400  1
loop_
_geom_bond_atom_site_label_1
_geom_bond_atom_site_label_2
_geom_bond_distance
_geom_bond_site_symmetry_2
Li0 O9 1.936119 1_455
Li0 O45 1.936119 1_454
Li0 O21 2.083382 1_554
Li0 O4 2.083382 1_555
Li1 O22 1.936119 1_555
Li1 O32 1.936119 1_555
Li1 O27 2.083382 1_555
Li1 O29 2.083382 1_555
Li2 O23 1.936119 1_555
Li2 O33 1.936119 1_555
Li2 O26 2.083382 1_555
Li2 O28 2.083382 1_555
Li3 O8 1.936119 1_655
Li3 O46 1.936119 1_654
Li3 O3 2.083382 1_554
Li3 O5 2.083382 1_555
Fe0 O24 2.001241 1_655
Fe0 O30 2.001241 1_655
Fe0 O35 2.019137 1_555
Fe0 O0 2.019137 1_555
Fe0 O27 2.040923 1_555
Fe0 O29 2.040923 1_555
Fe1 O25 2.001241 1_455
Fe1 O31 2.001241 1_455
Fe1 O34 2.019137 1_555
Fe1 O20 2.019137 1_555
Fe1 O26 2.040923 1_555
Fe1 O28 2.040923 1_555
Fe2 O6 2.001241 1_555
Fe2 O1 2.001241 1_554
Fe2 O47 2.019137 1_554
Fe2 O11 2.019137 1_555
Fe2 O5 2.040923 1_555
Fe2 O3 2.040923 1_554
Fe3 O7 2.001241 1_555
Fe3 O2 2.001241 1_554
Fe3 O44 2.019137 1_554
Fe3 O10 2.019137 1_555
Fe3 O21 2.040923 1_554
Fe3 O4 2.040923 1_555
O0 P9 1.504515 1_565
O1 P0 1.510476 1_555
O2 P1 1.510476 1_555
O3 P15 1.523691 1_555
O4 P4 1.523691 1_555
O5 P5 1.523691 1_555
O6 P6 1.510476 1_555
O7 P7 1.510476 1_555
O8 P4 1.477198 1_555
O9 P5 1.477198 1_565
O10 P6 1.504515 1_565
O11 P7 1.504515 1_555
O12 P7 1.601582 1_555
O12 P4 1.616264 1_555
O13 P6 1.601582 1_565
O13 P5 1.616264 1_565
O14 P8 1.596206 1_555
O14 P4 1.622604 1_555
O15 P9 1.596206 1_555
O15 P5 1.622604 1_555
O16 P6 1.596206 1_555
O16 P10 1.622604 1_555
O17 P7 1.596206 1_555
O17 P11 1.622604 1_555
O18 P9 1.601582 1_465
O18 P10 1.616264 1_565
O19 P8 1.601582 1_655
O19 P11 1.616264 1_555
O20 P8 1.504515 1_555
O21 P3 1.523691 1_555
O22 P10 1.477198 1_565
O23 P11 1.477198 1_555
O24 P8 1.510476 1_555
O25 P9 1.510476 1_555
O26 P10 1.523691 1_555
O27 P11 1.523691 1_555
O28 P12 1.523691 1_555
O29 P13 1.523691 1_555
O30 P14 1.510476 1_555
O31 P2 1.510476 1_555
O32 P12 1.477198 1_555
O33 P13 1.477198 1_545
O34 P14 1.504515 1_545
O35 P2 1.504515 1_555
O36 P2 1.601582 1_455
O36 P12 1.616264 1_555
O37 P14 1.601582 1_645
O37 P13 1.616264 1_545
O38 P0 1.596206 1_555
O38 P12 1.622604 1_555
O39 P1 1.596206 1_555
O39 P13 1.622604 1_555
O40 P14 1.596206 1_555
O40 P3 1.622604 1_555
O41 P2 1.596206 1_555
O41 P15 1.622604 1_555
O42 P1 1.601582 1_545
O42 P3 1.616264 1_545
O43 P0 1.601582 1_555
O43 P15 1.616264 1_555
O44 P0 1.504515 1_555
O45 P15 1.477198 1_555
O46 P3 1.477198 1_545
O47 P1 1.504515 1_545
