# generated using pymatgen
data_DyMn12
_symmetry_space_group_name_H-M   'P 1'
_cell_length_a   6.82760209
_cell_length_b   6.82760286
_cell_length_c   6.82915597
_cell_angle_alpha   98.13794345
_cell_angle_beta   98.13826996
_cell_angle_gamma   135.81507877
_symmetry_Int_Tables_number   1
_chemical_formula_structural   DyMn12
_chemical_formula_sum   'Dy1 Mn12'
_cell_volume   205.56520954
_cell_formula_units_Z   1
loop_
 _symmetry_equiv_pos_site_id
 _symmetry_equiv_pos_as_xyz
  1  'x, y, z'
loop_
 _atom_site_type_symbol
 _atom_site_label
 _atom_site_symmetry_multiplicity
 _atom_site_fract_x
 _atom_site_fract_y
 _atom_site_fract_z
 _atom_site_occupancy
  Dy  Dy0  1  0.00000204  0.00000828  0.00000996  1
  Mn  Mn0  1  0.27557082  0.50005868  0.77561589  1
  Mn  Mn1  1  0.50000679  0.00000408  -0.00000149  1
  Mn  Mn2  1  0.00001037  0.00000892  0.49999616  1
  Mn  Mn3  1  0.49998708  0.49998498  0.49999565  1
  Mn  Mn4  1  -0.00000563  0.49999118  -0.00000218  1
  Mn  Mn5  1  0.64629017  -0.00001426  0.64628752  1
  Mn  Mn6  1  0.00001501  0.35370989  0.35371454  1
  Mn  Mn7  1  -0.00001671  0.64628457  0.64628598  1
  Mn  Mn8  1  0.35370950  0.00001625  0.35371538  1
  Mn  Mn9  1  0.72443075  0.49994888  0.22438605  1
  Mn  Mn10  1  0.50006059  0.27556863  0.77561272  1
  Mn  Mn11  1  0.49993922  0.72442994  0.22438382  1
loop_
_geom_bond_atom_site_label_1
_geom_bond_atom_site_label_2
_geom_bond_distance
_geom_bond_site_symmetry_2
Dy0 Mn6 3.164604 1_555
Dy0 Mn8 3.164645 1_555
Dy0 Mn5 3.164676 1_454
Dy0 Mn7 3.164763 1_544
Dy0 Mn11 3.259299 1_555
Dy0 Mn9 3.259327 1_555
Dy0 Mn0 3.259346 1_444
Dy0 Mn10 3.259399 1_444
Dy0 Mn9 3.260246 1_445
Dy0 Mn11 3.260251 1_445
Dy0 Mn0 3.260291 1_554
Dy0 Mn10 3.260355 1_554
Dy0 Mn3 3.413523 1_555
Dy0 Mn4 3.413734 1_555
Dy0 Mn3 3.413737 1_444
Dy0 Mn1 3.413737 1_455
Dy0 Mn1 3.413865 1_555
Dy0 Mn4 3.413869 1_545
Dy0 Mn2 3.414475 1_555
Dy0 Mn2 3.414681 1_554
Mn0 Mn1 2.588511 1_566
Mn0 Mn4 2.589102 1_556
Mn0 Mn2 2.589317 1_555
Mn0 Mn3 2.589975 1_555
Mn0 Mn7 2.791155 1_555
Mn0 Mn6 2.791698 1_555
Mn0 Mn5 2.816087 1_455
Mn0 Mn5 2.816563 1_565
Mn0 Mn11 2.839337 1_556
Mn0 Mn10 2.840384 1_555
Mn1 Mn4 2.567814 1_655
Mn1 Mn4 2.567941 1_545
Mn1 Mn9 2.588554 1_555
Mn1 Mn10 2.589089 1_554
Mn1 Mn11 2.589099 1_545
Mn1 Mn6 2.740664 1_655
Mn1 Mn7 2.740688 1_544
Mn1 Mn5 2.741451 1_554
Mn1 Mn8 2.741529 1_555
Mn2 Mn3 2.567757 1_555
Mn2 Mn3 2.567997 1_445
Mn2 Mn9 2.589295 1_445
Mn2 Mn8 2.740919 1_555
Mn2 Mn6 2.740939 1_555
Mn2 Mn5 2.741026 1_455
Mn2 Mn7 2.741027 1_545
Mn3 Mn9 2.589964 1_555
Mn3 Mn8 2.740544 1_555
Mn3 Mn6 2.740570 1_555
Mn3 Mn7 2.740635 1_655
Mn3 Mn5 2.740657 1_565
Mn4 Mn9 2.589136 1_455
Mn4 Mn5 2.740639 1_454
Mn4 Mn8 2.740723 1_565
Mn4 Mn6 2.741477 1_555
Mn4 Mn7 2.741478 1_554
Mn5 Mn8 2.617875 1_555
Mn5 Mn6 3.164882 1_545
Mn5 Mn7 3.165522 1_655
Mn5 Mn7 3.165549 1_545
Mn5 Mn6 3.166170 1_655
Mn6 Mn7 2.617859 1_555
Mn6 Mn9 2.791212 1_455
Mn6 Mn8 3.165558 1_455
Mn6 Mn8 3.165559 1_565
Mn7 Mn9 2.791708 1_455
Mn7 Mn8 3.164860 1_455
Mn7 Mn8 3.166175 1_565
Mn8 Mn9 2.816075 1_445
Mn8 Mn9 2.816592 1_555
Mn10 Mn4 2.588486 1_656
Mn10 Mn2 2.589305 1_555
Mn10 Mn3 2.589952 1_555
Mn10 Mn5 2.791146 1_555
Mn10 Mn8 2.791669 1_555
Mn10 Mn7 2.816106 1_545
Mn10 Mn7 2.816538 1_655
Mn10 Mn9 2.839371 1_556
Mn11 Mn4 2.588500 1_555
Mn11 Mn2 2.589349 1_665
Mn11 Mn3 2.590002 1_555
Mn11 Mn8 2.791180 1_565
Mn11 Mn5 2.791714 1_565
Mn11 Mn6 2.816086 1_665
Mn11 Mn6 2.816563 1_555
Mn11 Mn9 2.840338 1_555
