# generated using pymatgen
data_U3Fe2Si7
_symmetry_space_group_name_H-M   'P 1'
_cell_length_a   12.51210384
_cell_length_b   12.51210384
_cell_length_c   3.98815171
_cell_angle_alpha   90.00000000
_cell_angle_beta   90.00000000
_cell_angle_gamma   161.61117598
_symmetry_Int_Tables_number   1
_chemical_formula_structural   U3Fe2Si7
_chemical_formula_sum   'U3 Fe2 Si7'
_cell_volume   196.96183488
_cell_formula_units_Z   1
loop_
 _symmetry_equiv_pos_site_id
 _symmetry_equiv_pos_as_xyz
  1  'x, y, z'
loop_
 _atom_site_type_symbol
 _atom_site_label
 _atom_site_symmetry_multiplicity
 _atom_site_fract_x
 _atom_site_fract_y
 _atom_site_fract_z
 _atom_site_occupancy
  U  U0  1  -0.00000000  0.00000000  0.50000000  1
  U  U1  1  0.31727498  0.68272502  0.00000000  1
  U  U2  1  0.68272502  0.31727498  -0.00000000  1
  Fe  Fe0  1  0.12821815  0.87178185  0.50000000  1
  Fe  Fe1  1  0.87178185  0.12821815  0.50000000  1
  Si  Si0  1  0.22137838  0.77862162  0.50000000  1
  Si  Si1  1  0.77862162  0.22137838  0.50000000  1
  Si  Si2  1  0.08621183  0.91378817  -0.00000000  1
  Si  Si3  1  0.91378817  0.08621183  0.00000000  1
  Si  Si4  1  0.41407589  0.58592411  0.50000000  1
  Si  Si5  1  0.50000000  0.50000000  0.00000000  1
  Si  Si6  1  0.58592411  0.41407589  0.50000000  1
loop_
_geom_bond_atom_site_label_1
_geom_bond_atom_site_label_2
_geom_bond_distance
_geom_bond_site_symmetry_2
Fe0 Si2 2.247909 1_555
Fe0 Si2 2.247909 1_556
Fe0 Si6 2.255779 1_565
Fe0 Si6 2.255779 1_455
Fe0 Si0 2.301309 1_555
Fe0 U2 3.128305 1_566
Fe0 U2 3.128305 1_565
Fe0 U2 3.128305 1_455
Fe0 U2 3.128305 1_456
Fe1 Si3 2.247909 1_556
Fe1 Si3 2.247909 1_555
Fe1 Si4 2.255779 1_655
Fe1 Si4 2.255779 1_545
Fe1 Si1 2.301309 1_555
Fe1 U1 3.128305 1_655
Fe1 U1 3.128305 1_656
Fe1 U1 3.128305 1_545
Fe1 U1 3.128305 1_546
Si0 Si1 2.448786 1_455
Si0 Si1 2.448786 1_565
Si0 U2 2.980779 1_455
Si0 U2 2.980779 1_456
Si0 U2 2.980779 1_566
Si0 U2 2.980779 1_565
Si0 U1 3.096457 1_556
Si0 U1 3.096457 1_555
Si1 U1 2.980779 1_545
Si1 U1 2.980779 1_546
Si1 U1 2.980779 1_655
Si1 U1 2.980779 1_656
Si1 U2 3.096457 1_556
Si1 U2 3.096457 1_555
Si2 U0 2.917500 1_565
Si2 U0 2.917500 1_564
Si2 U2 3.111444 1_565
Si2 U2 3.111444 1_455
Si3 U0 2.917500 1_655
Si3 U0 2.917500 1_654
Si3 U1 3.111444 1_655
Si3 U1 3.111444 1_545
Si4 U0 2.915858 1_555
Si4 U0 2.915858 1_665
Si4 U1 3.113580 1_556
Si4 U1 3.113580 1_555
Si5 U0 2.823707 1_555
Si5 U0 2.823707 1_665
Si5 U0 2.823707 1_664
Si5 U0 2.823707 1_554
Si6 U0 2.915858 1_555
Si6 U0 2.915858 1_665
Si6 U2 3.113580 1_555
Si6 U2 3.113580 1_556
