# generated using pymatgen
data_Na3GaSi3Ge3(SO8)3
_symmetry_space_group_name_H-M   'P 1'
_cell_length_a   8.54570871
_cell_length_b   8.60609061
_cell_length_c   22.03817932
_cell_angle_alpha   89.47308542
_cell_angle_beta   90.34874373
_cell_angle_gamma   120.01371875
_symmetry_Int_Tables_number   1
_chemical_formula_structural   Na3GaSi3Ge3(SO8)3
_chemical_formula_sum   'Na9 Ga3 Si9 Ge9 S9 O72'
_cell_volume   1403.39939744
_cell_formula_units_Z   3
loop_
 _symmetry_equiv_pos_site_id
 _symmetry_equiv_pos_as_xyz
  1  'x, y, z'
loop_
 _atom_site_type_symbol
 _atom_site_label
 _atom_site_symmetry_multiplicity
 _atom_site_fract_x
 _atom_site_fract_y
 _atom_site_fract_z
 _atom_site_occupancy
  Na  Na0  1  0.36165677  0.36151826  0.24584540  1
  Na  Na1  1  0.63492590  0.62756581  0.75258517  1
  Na  Na2  1  0.96745259  0.29140068  0.41658844  1
  Na  Na3  1  0.99726212  -0.00065305  0.49898611  1
  Na  Na4  1  0.00065648  0.99553651  0.00152980  1
  Na  Na5  1  0.66611595  0.33366680  0.83281371  1
  Na  Na6  1  0.66754758  0.32551815  0.33165041  1
  Na  Na7  1  0.31995567  0.66460295  0.16398898  1
  Na  Na8  1  0.31136824  0.65536809  0.66622784  1
  Ga  Ga0  1  0.99193279  0.01196321  0.35586167  1
  Ga  Ga1  1  0.68090695  0.34474075  0.68899440  1
  Ga  Ga2  1  0.69121948  0.34863225  0.18018503  1
  Si  Si0  1  0.99178061  0.29052536  0.25009848  1
  Si  Si1  1  0.28543687  0.28098564  0.75200771  1
  Si  Si2  1  0.00970880  0.71935859  0.74912588  1
  Si  Si3  1  0.95620437  0.33280993  0.58330299  1
  Si  Si4  1  0.96608934  0.63363107  0.08270495  1
  Si  Si5  1  0.38229489  0.33468738  0.08556933  1
  Si  Si6  1  0.62175815  0.67481484  0.91587906  1
  Si  Si7  1  0.60833470  0.93926410  0.41747539  1
  Si  Si8  1  0.34283870  0.37461918  0.41741893  1
  Ge  Ge0  1  0.00105244  0.98351813  0.85204367  1
  Ge  Ge1  1  0.01758675  0.01994279  0.64820687  1
  Ge  Ge2  1  0.01722632  0.01420657  0.14317590  1
  Ge  Ge3  1  0.66227032  0.36660368  0.98371199  1
  Ge  Ge4  1  0.65515410  0.30620154  0.47864444  1
  Ge  Ge5  1  0.34171912  0.66117674  0.02403166  1
  Ge  Ge6  1  0.32931348  0.64525605  0.51762362  1
  Ge  Ge7  1  0.33731292  0.65792525  0.31573813  1
  Ge  Ge8  1  0.31928329  0.64650043  0.81213145  1
  S  S0  1  0.28601130  0.99155218  0.25134680  1
  S  S1  1  0.71688135  0.71868888  0.25073097  1
  S  S2  1  0.71376936  0.00235525  0.75064511  1
  S  S3  1  0.37588469  0.04005751  0.58426599  1
  S  S4  1  0.66857599  0.62485237  0.58302851  1
  S  S5  1  0.66707271  0.04804461  0.08170311  1
  S  S6  1  0.03946212  0.37336192  0.91779440  1
  S  S7  1  0.33850578  0.95583168  0.91692109  1
  S  S8  1  0.04632423  0.66967711  0.41671035  1
  O  O0  1  0.20076785  0.02025010  0.30504342  1
  O  O1  1  0.82434970  0.79595217  0.30599418  1
  O  O2  1  0.96706835  0.18249266  0.31281799  1
  O  O3  1  0.19130337  0.16051594  0.81300244  1
  O  O4  1  0.95168258  0.79346258  0.80830719  1
  O  O5  1  0.82455710  0.03411433  0.80624177  1
  O  O6  1  0.78910726  0.96160012  0.69577213  1
  O  O7  1  0.16243258  0.21080728  0.69093160  1
  O  O8  1  0.03761271  0.84396912  0.68829121  1
  O  O9  1  0.79628891  0.82538520  0.19496342  1
  O  O10  1  0.04491647  0.19868272  0.19277955  1
  O  O11  1  0.17548077  0.95928670  0.19449084  1
  O  O12  1  0.86754953  0.36655867  0.64151307  1
  O  O13  1  0.48430763  0.12392862  0.63834110  1
  O  O14  1  0.63277243  0.51896829  0.63992820  1
  O  O15  1  0.89656618  0.50846656  0.14158249  1
  O  O16  1  0.63201697  0.11906215  0.13706738  1
  O  O17  1  0.49544105  0.36301413  0.14770667  1
  O  O18  1  0.46059099  0.28770745  0.02455181  1
  O  O19  1  0.84019507  0.54793739  0.02167757  1
  O  O20  1  0.70066625  0.15982835  0.02620832  1
  O  O21  1  0.45119496  0.15389594  0.52763328  1
  O  O22  1  0.69490425  0.53936775  0.52940380  1
  O  O23  1  0.83535055  0.30083286  0.51988305  1
  O  O24  1  0.52784383  0.70709527  0.97479896  1
  O  O25  1  0.15450986  0.45749882  0.97148515  1
  O  O26  1  0.30277570  0.84376148  0.97178391  1
  O  O27  1  0.51565691  0.82401723  0.47930974  1
  O  O28  1  0.28125611  0.45539492  0.47351390  1
  O  O29  1  0.15631320  0.70226053  0.47254971  1
  O  O30  1  0.12124250  0.62505014  0.36217172  1
  O  O31  1  0.48316549  0.85940941  0.35636300  1
  O  O32  1  0.37947716  0.49508335  0.35488934  1
  O  O33  1  0.11343449  0.48813332  0.86119293  1
  O  O34  1  0.36247388  0.87351195  0.86121282  1
  O  O35  1  0.49829880  0.63929112  0.85414860  1
  O  O36  1  0.02768272  0.82734787  0.40824945  1
  O  O37  1  0.80816830  0.96297453  0.41418524  1
  O  O38  1  0.16773091  0.17693614  0.41165033  1
  O  O39  1  0.02774104  0.19753139  0.91098931  1
  O  O40  1  0.17246623  0.97604186  0.91248410  1
  O  O41  1  0.82459223  0.85676305  0.90934362  1
  O  O42  1  0.97317969  0.14759502  0.58905266  1
  O  O43  1  0.19203129  0.02210747  0.58662451  1
  O  O44  1  0.83102015  0.80585452  0.58792425  1
  O  O45  1  0.97132430  0.82529992  0.09321188  1
  O  O46  1  0.82795111  0.02476292  0.08815710  1
  O  O47  1  0.17974270  0.16019610  0.08829888  1
  O  O48  1  0.69151139  0.15910392  0.74455185  1
  O  O49  1  0.48529760  0.30677009  0.74355752  1
  O  O50  1  0.83250636  0.52261495  0.74506296  1
  O  O51  1  0.68494953  0.53346838  0.24748136  1
  O  O52  1  0.81294682  0.30707145  0.24349154  1
  O  O53  1  0.46402462  0.15529260  0.24564141  1
  O  O54  1  0.63858257  0.49024352  0.92040566  1
  O  O55  1  0.85585096  0.35046205  0.92330528  1
  O  O56  1  0.50351824  0.13521904  0.92153232  1
  O  O57  1  0.64078658  0.14647530  0.42200771  1
  O  O58  1  0.52967684  0.37137526  0.42886863  1
  O  O59  1  0.86625541  0.50384310  0.42277991  1
  O  O60  1  0.36647540  0.51500589  0.07699228  1
  O  O61  1  0.16747986  0.66099973  0.06976969  1
  O  O62  1  0.50347763  0.86654033  0.07565363  1
  O  O63  1  0.35826827  0.86214241  0.57761149  1
  O  O64  1  0.50282587  0.64419811  0.57786995  1
  O  O65  1  0.15819939  0.51838521  0.57487153  1
  O  O66  1  0.30341312  0.82865359  0.25564327  1
  O  O67  1  0.53137579  0.70317256  0.25373460  1
  O  O68  1  0.18484793  0.49399546  0.25713661  1
  O  O69  1  0.31270248  0.48587161  0.75753615  1
  O  O70  1  0.19356410  0.70774743  0.75994204  1
  O  O71  1  0.53344089  0.83640045  0.75620227  1
loop_
_geom_bond_atom_site_label_1
_geom_bond_atom_site_label_2
_geom_bond_distance
_geom_bond_site_symmetry_2
Na0 O68 2.319037 1_555
Na0 O53 2.338514 1_555
Na0 O51 2.394518 1_555
Na0 O17 2.449453 1_555
Na0 O67 2.553281 1_555
Na0 O10 2.618199 1_555
Na0 O32 2.644001 1_555
Na0 O0 2.851294 1_555
Na1 O50 2.286053 1_555
Na1 O71 2.356143 1_555
Na1 O69 2.392350 1_555
Na1 O49 2.402493 1_555
Na1 O35 2.556779 1_555
Na1 O4 2.645606 1_555
Na1 O14 2.657593 1_555
Na1 O6 2.780711 1_555
Na2 O38 2.366959 1_655
Na2 O59 2.386833 1_555
Na2 O57 2.425067 1_555
Na2 O37 2.448974 1_545
Na2 O2 2.478852 1_555
Na2 O23 2.567000 1_555
Na2 O28 2.638636 1_655
Na2 O30 2.755178 1_655
Na3 O37 2.381141 1_545
Na3 O38 2.432127 1_655
Na3 O42 2.433964 1_555
Na3 O43 2.486094 1_655
Na3 O44 2.498024 1_545
Na3 O36 2.589038 1_645
Na4 O47 2.418990 1_565
Na4 O45 2.424054 1_455
Na4 O41 2.455066 1_454
Na4 O46 2.510123 1_465
Na4 O40 2.514450 1_554
Na4 O39 2.568320 1_564
Na5 O49 2.433946 1_555
Na5 O54 2.442956 1_555
Na5 O50 2.463413 1_555
Na5 O56 2.503578 1_555
Na5 O55 2.521604 1_555
Na5 O48 2.544131 1_555
Na6 O52 2.361401 1_555
Na6 O57 2.447130 1_555
Na6 O53 2.495179 1_555
Na6 O51 2.518282 1_555
Na6 O58 2.577930 1_555
Na6 O59 2.584612 1_555
Na7 O61 2.436834 1_555
Na7 O68 2.445476 1_555
Na7 O60 2.461322 1_555
Na7 O66 2.519689 1_555
Na7 O62 2.553033 1_555
Na7 O67 2.579708 1_555
Na8 O65 2.371586 1_555
Na8 O70 2.445106 1_555
Na8 O69 2.477810 1_555
Na8 O63 2.524560 1_555
Na8 O64 2.584094 1_555
Na8 O71 2.648341 1_555
Ga0 O2 1.839222 1_555
Ga0 O37 1.910041 1_545
Ga0 O38 1.913145 1_655
Ga0 O1 2.017337 1_545
Ga0 O0 2.083228 1_655
Ga0 O36 2.097184 1_645
Ga1 O12 1.841551 1_555
Ga1 O50 1.892050 1_555
Ga1 O49 1.953920 1_555
Ga1 O48 2.041370 1_555
Ga1 O14 2.041697 1_555
Ga1 O13 2.121843 1_555
Ga2 O15 1.810278 1_555
Ga2 O52 1.871336 1_555
Ga2 O17 1.875565 1_555
Ga2 O16 2.022623 1_555
Ga2 O51 2.205091 1_555
Ga2 O53 2.318866 1_555
Ge0 O4 1.765230 1_455
Ge0 O3 1.794230 1_565
Ge0 O41 1.846829 1_455
Ge0 O40 1.998277 1_555
Ge0 O5 2.028247 1_465
Ge0 O39 2.179910 1_565
Ge1 O7 1.759845 1_555
Ge1 O8 1.826483 1_545
Ge1 O42 1.853408 1_455
Ge1 O43 2.015183 1_555
Ge1 O6 2.048837 1_445
Ge1 O44 2.186793 1_445
Ge2 O47 1.793556 1_555
Ge2 O45 1.843655 1_445
Ge2 O10 1.850538 1_555
Ge2 O11 1.985522 1_545
Ge2 O46 2.053248 1_455
Ge2 O9 2.104935 1_445
Ge3 O18 1.754549 1_556
Ge3 O19 1.755576 1_556
Ge3 O54 1.817800 1_555
Ge3 O20 2.168234 1_556
Ge3 O55 2.188219 1_555
Ge3 O56 2.237980 1_555
Ge4 O58 1.801056 1_555
Ge4 O23 1.803546 1_555
Ge4 O57 1.823026 1_555
Ge4 O21 1.906030 1_555
Ge4 O59 2.140582 1_555
Ge4 O22 2.179021 1_555
Ge5 O60 1.796025 1_555
Ge5 O24 1.802109 1_554
Ge5 O61 1.802532 1_555
Ge5 O62 1.975463 1_555
Ge5 O25 2.045086 1_554
Ge5 O26 2.095449 1_554
Ge6 O28 1.771017 1_555
Ge6 O27 1.776850 1_555
Ge6 O65 1.822644 1_555
Ge6 O64 1.987686 1_555
Ge6 O29 2.027771 1_555
Ge6 O63 2.207332 1_555
Ge7 O31 1.792940 1_555
Ge7 O32 1.821389 1_555
Ge7 O68 1.878817 1_555
Ge7 O30 2.007916 1_555
Ge7 O67 2.034910 1_555
Ge7 O66 2.093355 1_555
Ge8 O35 1.810601 1_555
Ge8 O70 1.815291 1_555
Ge8 O69 1.820382 1_555
Ge8 O33 1.928375 1_555
Ge8 O34 2.106114 1_555
Ge8 O71 2.130197 1_555
O0 S0 1.479154 1_545
O1 S1 1.469428 1_555
O2 Si0 1.613396 1_555
O3 Si1 1.637709 1_555
O4 Si2 1.641103 1_655
O5 S2 1.485077 1_555
O6 S2 1.497703 1_565
O7 Si1 1.626051 1_555
O8 Si2 1.651054 1_555
O9 S1 1.476535 1_555
O10 Si0 1.676611 1_455
O11 S0 1.506291 1_555
O12 Si3 1.594633 1_555
O13 S3 1.460479 1_555
O14 S4 1.483626 1_555
O15 Si4 1.593855 1_555
O16 S5 1.467426 1_555
O17 Si5 1.619815 1_555
O18 Si5 1.646513 1_555
O19 Si4 1.648353 1_555
O20 S5 1.486600 1_555
O21 S3 1.512690 1_555
O22 S4 1.474215 1_555
O23 Si3 1.673616 1_555
O24 Si6 1.627799 1_555
O25 S6 1.476615 1_555
O26 S7 1.474368 1_555
O27 Si7 1.634137 1_555
O28 Si8 1.636519 1_555
O29 S8 1.484946 1_555
O30 S8 1.505287 1_555
O31 Si7 1.641470 1_555
O32 Si8 1.651079 1_555
O33 S6 1.514432 1_555
O34 S7 1.488406 1_555
O35 Si6 1.650711 1_555
O36 S8 1.453493 1_555
O37 Si7 1.617351 1_555
O38 Si8 1.613866 1_555
O39 S6 1.474685 1_555
O40 S7 1.515935 1_555
O41 Si6 1.661557 1_555
O42 Si3 1.674888 1_555
O43 S3 1.501045 1_555
O44 S4 1.484311 1_555
O45 Si4 1.646089 1_555
O46 S5 1.491033 1_555
O47 Si5 1.629128 1_555
O48 S2 1.458441 1_555
O49 Si1 1.620177 1_555
O50 Si2 1.613730 1_655
O51 S1 1.478922 1_555
O52 Si0 1.609870 1_555
O53 S0 1.473175 1_545
O54 Si6 1.667076 1_555
O55 S6 1.485982 1_655
O56 S7 1.485078 1_545
O57 Si7 1.665880 1_545
O58 Si8 1.628910 1_555
O59 S8 1.491512 1_655
O60 Si5 1.632904 1_555
O61 Si4 1.642520 1_455
O62 S5 1.493023 1_565
O63 S3 1.470327 1_565
O64 S4 1.510165 1_555
O65 Si3 1.674921 1_455
O66 S0 1.484053 1_555
O67 S1 1.524681 1_555
O68 Si0 1.709995 1_455
O69 Si1 1.664582 1_555
O70 Si2 1.639348 1_555
O71 S2 1.492258 1_565
