# generated using pymatgen
data_SrLaMn2O6
_symmetry_space_group_name_H-M   'P 1'
_cell_length_a   5.39366105
_cell_length_b   5.39569501
_cell_length_c   5.60884928
_cell_angle_alpha   118.75859352
_cell_angle_beta   118.74828160
_cell_angle_gamma   89.98883764
_symmetry_Int_Tables_number   1
_chemical_formula_structural   SrLaMn2O6
_chemical_formula_sum   'Sr1 La1 Mn2 O6'
_cell_volume   119.64886807
_cell_formula_units_Z   1
loop_
 _symmetry_equiv_pos_site_id
 _symmetry_equiv_pos_as_xyz
  1  'x, y, z'
loop_
 _atom_site_type_symbol
 _atom_site_label
 _atom_site_symmetry_multiplicity
 _atom_site_fract_x
 _atom_site_fract_y
 _atom_site_fract_z
 _atom_site_occupancy
  Sr  Sr0  1  0.24986000  0.74984600  0.49973500  1
  La  La0  1  0.74986400  0.24983700  0.49978700  1
  Mn  Mn0  1  0.99997100  0.00029000  0.00024900  1
  Mn  Mn1  1  0.49993500  0.49966900  0.99951000  1
  O  O0  1  0.23347300  0.23340000  0.46685800  1
  O  O1  1  0.19358700  0.69539600  0.98563200  1
  O  O2  1  0.30453600  0.20770500  0.01444100  1
  O  O3  1  0.76671900  0.76683400  0.53353800  1
  O  O4  1  0.70991300  0.80673900  0.01444700  1
  O  O5  1  0.79214200  0.29028400  0.98580100  1
loop_
_geom_bond_atom_site_label_1
_geom_bond_atom_site_label_2
_geom_bond_distance
_geom_bond_site_symmetry_2
La0 O4 2.519173 1_545
La0 O2 2.519249 1_555
La0 O1 2.521552 1_655
La0 O5 2.521946 1_555
La0 O0 2.699821 1_555
La0 O0 2.700632 1_655
La0 O3 2.700764 1_545
La0 O3 2.702063 1_555
Mn0 O0 1.918363 1_655
Mn0 O3 1.918782 1_544
Mn0 O4 1.935220 1_545
Mn0 O5 1.935306 1_554
Mn0 O2 1.935606 1_655
Mn0 O1 1.937935 1_644
Mn1 O5 1.948995 1_555
Mn1 O1 1.950972 1_555
Mn1 O4 1.952115 1_556
Mn1 O2 1.952427 1_556
Mn1 O0 2.189884 1_555
Mn1 O3 2.195542 1_556
O0 Sr0 2.701196 1_545
O0 Sr0 2.701267 1_555
O1 Sr0 2.614601 1_556
O1 Sr0 3.028531 1_555
O2 Sr0 2.615921 1_544
O2 Sr0 3.027054 1_555
O3 Sr0 2.700170 1_555
O3 Sr0 2.700648 1_655
O4 Sr0 2.615833 1_554
O4 Sr0 3.027037 1_655
O5 Sr0 2.613772 1_656
O5 Sr0 3.028856 1_545
