# generated using pymatgen
data_MgMo2O7
_symmetry_space_group_name_H-M   'P 1'
_cell_length_a   5.69460526
_cell_length_b   8.14469699
_cell_length_c   15.01034251
_cell_angle_alpha   64.88196680
_cell_angle_beta   90.00000000
_cell_angle_gamma   90.00000000
_symmetry_Int_Tables_number   1
_chemical_formula_structural   MgMo2O7
_chemical_formula_sum   'Mg4 Mo8 O28'
_cell_volume   630.35696129
_cell_formula_units_Z   4
loop_
 _symmetry_equiv_pos_site_id
 _symmetry_equiv_pos_as_xyz
  1  'x, y, z'
loop_
 _atom_site_type_symbol
 _atom_site_label
 _atom_site_symmetry_multiplicity
 _atom_site_fract_x
 _atom_site_fract_y
 _atom_site_fract_z
 _atom_site_occupancy
  Mg  Mg0  1  0.12738175  0.98717352  0.90971273  1
  Mg  Mg1  1  0.62738175  0.01282648  0.59028727  1
  Mg  Mg2  1  0.87261825  0.01282648  0.09028727  1
  Mg  Mg3  1  0.37261825  0.98717352  0.40971273  1
  Mo  Mo0  1  0.36653068  0.70746071  0.12723501  1
  Mo  Mo1  1  0.13346932  0.70746071  0.62723501  1
  Mo  Mo2  1  0.63346932  0.29253929  0.87276499  1
  Mo  Mo3  1  0.86653068  0.29253929  0.37276499  1
  Mo  Mo4  1  0.62666201  0.75304563  0.86403260  1
  Mo  Mo5  1  0.12666201  0.24695437  0.63596740  1
  Mo  Mo6  1  0.37333799  0.24695437  0.13596740  1
  Mo  Mo7  1  0.87333799  0.75304563  0.36403260  1
  O  O0  1  0.67361862  0.35589425  0.75057177  1
  O  O1  1  0.17361862  0.64410575  0.74942823  1
  O  O2  1  0.32638138  0.64410575  0.24942823  1
  O  O3  1  0.82638138  0.35589425  0.25057177  1
  O  O4  1  0.86553954  0.13936794  0.93458181  1
  O  O5  1  0.36553954  0.86063206  0.56541819  1
  O  O6  1  0.13446046  0.86063206  0.06541819  1
  O  O7  1  0.63446046  0.13936794  0.43458181  1
  O  O8  1  0.36910098  0.17792822  0.90380887  1
  O  O9  1  0.86910098  0.82207178  0.59619113  1
  O  O10  1  0.63089902  0.82207178  0.09619113  1
  O  O11  1  0.13089902  0.17792822  0.40380887  1
  O  O12  1  0.10802173  0.80729402  0.42168161  1
  O  O13  1  0.60802173  0.19270598  0.07831839  1
  O  O14  1  0.89197827  0.19270598  0.57831839  1
  O  O15  1  0.39197827  0.80729402  0.92168161  1
  O  O16  1  0.88621274  0.88861162  0.23928288  1
  O  O17  1  0.38621274  0.11138838  0.26071712  1
  O  O18  1  0.11378726  0.11138838  0.76071712  1
  O  O19  1  0.61378726  0.88861162  0.73928288  1
  O  O20  1  0.62661759  0.50685845  0.89227247  1
  O  O21  1  0.11796391  0.19732270  0.09084672  1
  O  O22  1  0.38203609  0.19732270  0.59084672  1
  O  O23  1  0.88203609  0.80267730  0.90915328  1
  O  O24  1  0.87338241  0.50685845  0.39227247  1
  O  O25  1  0.37338241  0.49314155  0.10772753  1
  O  O26  1  0.12661759  0.49314155  0.60772753  1
  O  O27  1  0.61796391  0.80267730  0.40915328  1
loop_
_geom_bond_atom_site_label_1
_geom_bond_atom_site_label_2
_geom_bond_distance
_geom_bond_site_symmetry_2
Mg0 O18 2.027421 1_565
Mg0 O8 2.049268 1_565
Mg0 O23 2.054460 1_455
Mg0 O15 2.055626 1_555
Mg0 O4 2.071734 1_465
Mg0 O6 2.116911 1_556
Mg1 O19 2.027421 1_545
Mg1 O9 2.049268 1_545
Mg1 O22 2.054460 1_555
Mg1 O14 2.055626 1_555
Mg1 O5 2.071734 1_545
Mg1 O7 2.116911 1_555
Mg2 O16 2.027421 1_545
Mg2 O10 2.049268 1_545
Mg2 O21 2.054460 1_655
Mg2 O13 2.055626 1_555
Mg2 O6 2.071734 1_645
Mg2 O4 2.116911 1_554
Mg3 O17 2.027421 1_565
Mg3 O11 2.049268 1_565
Mg3 O27 2.054460 1_555
Mg3 O12 2.055626 1_555
Mg3 O7 2.071734 1_565
Mg3 O5 2.116911 1_555
Mo0 O2 1.696817 1_555
Mo0 O10 1.727910 1_555
Mo0 O6 1.783555 1_555
Mo0 O25 1.888965 1_555
Mo1 O1 1.696817 1_555
Mo1 O9 1.727910 1_455
Mo1 O5 1.783555 1_555
Mo1 O26 1.888965 1_555
Mo2 O0 1.696817 1_555
Mo2 O8 1.727910 1_555
Mo2 O4 1.783555 1_555
Mo2 O20 1.888965 1_555
Mo3 O3 1.696817 1_555
Mo3 O11 1.727910 1_655
Mo3 O7 1.783555 1_555
Mo3 O24 1.888965 1_555
Mo4 O23 1.723194 1_555
Mo4 O19 1.724997 1_555
Mo4 O15 1.747758 1_555
Mo4 O20 1.865103 1_555
Mo5 O22 1.723194 1_555
Mo5 O18 1.724997 1_555
Mo5 O14 1.747758 1_455
Mo5 O26 1.865103 1_555
Mo6 O21 1.723194 1_555
Mo6 O17 1.724997 1_555
Mo6 O13 1.747758 1_555
Mo6 O25 1.865103 1_555
Mo7 O27 1.723194 1_555
Mo7 O16 1.724997 1_555
Mo7 O12 1.747758 1_655
Mo7 O24 1.865103 1_555
