# generated using pymatgen
data_ZrO2F5
_symmetry_space_group_name_H-M   'P 1'
_cell_length_a   5.77539554
_cell_length_b   5.77038269
_cell_length_c   7.13837636
_cell_angle_alpha   90.00000000
_cell_angle_beta   90.00000000
_cell_angle_gamma   108.57530362
_symmetry_Int_Tables_number   1
_chemical_formula_structural   ZrO2F5
_chemical_formula_sum   'Zr2 O4 F10'
_cell_volume   225.50229912
_cell_formula_units_Z   2
loop_
 _symmetry_equiv_pos_site_id
 _symmetry_equiv_pos_as_xyz
  1  'x, y, z'
loop_
 _atom_site_type_symbol
 _atom_site_label
 _atom_site_symmetry_multiplicity
 _atom_site_fract_x
 _atom_site_fract_y
 _atom_site_fract_z
 _atom_site_occupancy
  Zr  Zr0  1  0.19226460  0.80788370  0.00000000  1
  Zr  Zr1  1  0.80773540  0.19211630  0.00000000  1
  O  O0  1  0.50000000  0.50000000  0.58204500  1
  O  O1  1  0.50000000  0.50000000  0.41795500  1
  O  O2  1  0.05967135  0.93511396  0.50000000  1
  O  O3  1  0.94032865  0.06488604  0.50000000  1
  F  F0  1  0.25318069  0.74720927  0.72306998  1
  F  F1  1  0.74681931  0.25279073  0.72306998  1
  F  F2  1  0.74681931  0.25279073  0.27693002  1
  F  F3  1  0.25318069  0.74720927  0.27693002  1
  F  F4  1  0.00000000  -0.00000000  0.83736462  1
  F  F5  1  0.00000000  -0.00000000  0.16263538  1
  F  F6  1  0.83008528  0.56643307  0.00000000  1
  F  F7  1  0.16991472  0.43356693  0.00000000  1
  F  F8  1  0.56621607  0.82974136  0.00000000  1
  F  F9  1  0.43378393  0.17025864  0.00000000  1
loop_
_geom_bond_atom_site_label_1
_geom_bond_atom_site_label_2
_geom_bond_distance
_geom_bond_site_symmetry_2
O0 O1 1.171336 1_555
O2 O3 1.168183 1_465
F0 Zr0 2.057350 1_556
F1 Zr1 2.057350 1_556
F2 Zr1 2.057350 1_555
F3 Zr0 2.057350 1_555
F4 Zr0 2.143368 1_546
F4 Zr1 2.143368 1_456
F5 Zr0 2.143368 1_545
F5 Zr1 2.143368 1_455
F6 Zr0 2.111821 1_655
F6 Zr1 2.122363 1_555
F7 Zr1 2.111821 1_455
F7 Zr0 2.122363 1_555
F8 Zr1 2.111839 1_565
F8 Zr0 2.122909 1_555
F9 Zr0 2.111839 1_545
F9 Zr1 2.122909 1_555
