# generated using pymatgen
data_MgFe4(CuO4)2
_symmetry_space_group_name_H-M   'P 1'
_cell_length_a   6.30089581
_cell_length_b   5.99867543
_cell_length_c   6.29981593
_cell_angle_alpha   118.26756612
_cell_angle_beta   123.15754259
_cell_angle_gamma   90.12738354
_symmetry_Int_Tables_number   1
_chemical_formula_structural   MgFe4(CuO4)2
_chemical_formula_sum   'Mg1 Fe4 Cu2 O8'
_cell_volume   164.17968227
_cell_formula_units_Z   1
loop_
 _symmetry_equiv_pos_site_id
 _symmetry_equiv_pos_as_xyz
  1  'x, y, z'
loop_
 _atom_site_type_symbol
 _atom_site_label
 _atom_site_symmetry_multiplicity
 _atom_site_fract_x
 _atom_site_fract_y
 _atom_site_fract_z
 _atom_site_occupancy
  Mg  Mg0  1  0.87500300  0.12498900  0.24998200  1
  Fe  Fe0  1  0.87502000  0.62500500  0.25001100  1
  Fe  Fe1  1  0.37498900  0.12497100  0.74998200  1
  Fe  Fe2  1  0.37501400  0.62496600  0.24995600  1
  Fe  Fe3  1  0.37499400  0.62500900  0.74998700  1
  Cu  Cu0  1  0.02828000  0.96993800  0.94171900  1
  Cu  Cu1  1  0.72175300  0.28013400  0.55833900  1
  O  O0  1  0.62928100  0.36985000  0.23023200  1
  O  O1  1  0.62938300  0.85938700  0.23000900  1
  O  O2  1  0.60347500  0.39715400  0.79365000  1
  O  O3  1  0.12061300  0.39062000  0.27000100  1
  O  O4  1  0.12071600  0.88014200  0.26978300  1
  O  O5  1  0.13966600  0.36987200  0.74062100  1
  O  O6  1  0.61030600  0.88012000  0.75937100  1
  O  O7  1  0.14650700  0.85284000  0.70635600  1
loop_
_geom_bond_atom_site_label_1
_geom_bond_atom_site_label_2
_geom_bond_distance
_geom_bond_site_symmetry_2
Mg0 O3 2.129574 1_655
Mg0 O1 2.129693 1_545
Mg0 O4 2.131234 1_645
Mg0 O6 2.131240 1_544
Mg0 O0 2.131338 1_555
Mg0 O5 2.131365 1_655
Fe0 O7 1.986844 1_655
Fe0 O2 1.986934 1_554
Fe0 O3 2.086031 1_655
Fe0 O1 2.086213 1_555
Fe0 O4 2.086261 1_655
Fe0 O0 2.086499 1_555
Fe1 O7 1.986127 1_545
Fe1 O2 1.986208 1_555
Fe1 O4 2.086848 1_545
Fe1 O6 2.086930 1_545
Fe1 O0 2.087073 1_556
Fe1 O5 2.087177 1_555
Fe2 O1 2.222547 1_555
Fe2 O3 2.222866 1_555
Fe2 O5 2.229509 1_554
Fe2 O6 2.229932 1_555
Fe2 O0 2.229965 1_555
Fe2 O4 2.230430 1_555
Fe3 O7 1.986889 1_555
Fe3 O2 1.986987 1_555
Fe3 O3 2.085844 1_555
Fe3 O1 2.086005 1_556
Fe3 O6 2.086161 1_555
Fe3 O5 2.086423 1_555
Cu0 O7 1.863044 1_555
Cu0 O4 2.154046 1_556
Cu0 O6 2.154963 1_455
Cu0 O3 2.172056 1_566
Cu1 O2 1.863039 1_555
Cu1 O0 2.153902 1_555
Cu1 O5 2.154714 1_655
Cu1 O1 2.172350 1_545
