# generated using pymatgen
data_LiCrPO5
_symmetry_space_group_name_H-M   'P 1'
_cell_length_a   6.37791900
_cell_length_b   7.01034400
_cell_length_c   7.46424900
_cell_angle_alpha   90.00000000
_cell_angle_beta   90.00000000
_cell_angle_gamma   90.00000000
_symmetry_Int_Tables_number   1
_chemical_formula_structural   LiCrPO5
_chemical_formula_sum   'Li4 Cr4 P4 O20'
_cell_volume   333.73706897
_cell_formula_units_Z   4
loop_
 _symmetry_equiv_pos_site_id
 _symmetry_equiv_pos_as_xyz
  1  'x, y, z'
loop_
 _atom_site_type_symbol
 _atom_site_label
 _atom_site_symmetry_multiplicity
 _atom_site_fract_x
 _atom_site_fract_y
 _atom_site_fract_z
 _atom_site_occupancy
  Li  Li0  1  0.00000000  0.00000000  0.00000000  1
  Li  Li1  1  0.50000000  0.50000000  0.50000000  1
  Li  Li2  1  0.00000000  0.50000000  0.50000000  1
  Li  Li3  1  0.50000000  0.00000000  0.00000000  1
  Cr  Cr0  1  0.75000000  0.86433800  0.27083200  1
  Cr  Cr1  1  0.25000000  0.63566200  0.77083200  1
  Cr  Cr2  1  0.75000000  0.36433800  0.22916800  1
  Cr  Cr3  1  0.25000000  0.13566200  0.72916800  1
  P  P0  1  0.75000000  0.12641500  0.62497200  1
  P  P1  1  0.25000000  0.37358500  0.12497200  1
  P  P2  1  0.75000000  0.62641500  0.87502800  1
  P  P3  1  0.25000000  0.87358500  0.37502800  1
  O  O0  1  0.25000000  0.38870100  0.68673800  1
  O  O1  1  0.05807400  0.87187000  0.24813800  1
  O  O2  1  0.44192600  0.87187000  0.24813800  1
  O  O3  1  0.25000000  0.88870100  0.81326200  1
  O  O4  1  0.25000000  0.05847600  0.48854600  1
  O  O5  1  0.75000000  0.11129900  0.18673800  1
  O  O6  1  0.55807400  0.12813000  0.75186200  1
  O  O7  1  0.94192600  0.12813000  0.75186200  1
  O  O8  1  0.25000000  0.19297600  0.00331700  1
  O  O9  1  0.75000000  0.80702400  0.99668300  1
  O  O10  1  0.05807400  0.37187000  0.25186200  1
  O  O11  1  0.44192600  0.37187000  0.25186200  1
  O  O12  1  0.75000000  0.30702400  0.50331700  1
  O  O13  1  0.75000000  0.44152400  0.98854600  1
  O  O14  1  0.25000000  0.55847600  0.01145400  1
  O  O15  1  0.75000000  0.61129900  0.31326200  1
  O  O16  1  0.55807400  0.62813000  0.74813800  1
  O  O17  1  0.94192600  0.62813000  0.74813800  1
  O  O18  1  0.25000000  0.69297600  0.49668300  1
  O  O19  1  0.75000000  0.94152400  0.51145400  1
loop_
_geom_bond_atom_site_label_1
_geom_bond_atom_site_label_2
_geom_bond_distance
_geom_bond_site_symmetry_2
Li0 O9 2.091201 1_444
Li0 O8 2.091201 1_555
Li0 O7 2.091537 1_454
Li0 O1 2.091537 1_545
Li0 O5 2.256987 1_455
Li0 O3 2.256987 1_544
Li1 O12 2.091201 1_555
Li1 O18 2.091201 1_555
Li1 O16 2.091537 1_555
Li1 O11 2.091537 1_555
Li1 O0 2.256987 1_555
Li1 O15 2.256987 1_555
Li2 O12 2.091201 1_455
Li2 O18 2.091201 1_555
Li2 O17 2.091537 1_455
Li2 O10 2.091537 1_555
Li2 O0 2.256987 1_555
Li2 O15 2.256987 1_455
Li3 O9 2.091201 1_544
Li3 O8 2.091201 1_555
Li3 O6 2.091537 1_554
Li3 O2 2.091537 1_545
Li3 O3 2.256987 1_544
Li3 O5 2.256987 1_555
Cr0 O15 1.801941 1_555
Cr0 O5 1.841559 1_565
Cr0 O19 1.875801 1_555
Cr0 O1 1.972866 1_655
Cr0 O2 1.972866 1_555
Cr0 O9 2.085389 1_554
Cr1 O3 1.801941 1_555
Cr1 O0 1.841559 1_555
Cr1 O14 1.875801 1_556
Cr1 O16 1.972866 1_555
Cr1 O17 1.972866 1_455
Cr1 O18 2.085389 1_555
Cr2 O5 1.801941 1_555
Cr2 O15 1.841559 1_555
Cr2 O13 1.875801 1_554
Cr2 O10 1.972866 1_655
Cr2 O11 1.972866 1_555
Cr2 O12 2.085389 1_555
Cr3 O0 1.801941 1_555
Cr3 O3 1.841559 1_545
Cr3 O4 1.875801 1_555
Cr3 O6 1.972866 1_555
Cr3 O7 1.972866 1_455
Cr3 O8 2.085389 1_556
O1 P3 1.547775 1_555
O2 P3 1.547775 1_555
O4 P3 1.548537 1_545
O6 P0 1.547775 1_555
O7 P0 1.547775 1_555
O8 P1 1.558097 1_555
O9 P2 1.558097 1_555
O10 P1 1.547775 1_555
O11 P1 1.547775 1_555
O12 P0 1.558097 1_555
O13 P2 1.548537 1_555
O14 P1 1.548537 1_555
O16 P2 1.547775 1_555
O17 P2 1.547775 1_555
O18 P3 1.558097 1_555
O19 P0 1.548537 1_565
