# generated using pymatgen
data_MgV2H2O5
_symmetry_space_group_name_H-M   'P 1'
_cell_length_a   3.07737400
_cell_length_b   4.83548019
_cell_length_c   6.50603164
_cell_angle_alpha   92.91021536
_cell_angle_beta   103.68016353
_cell_angle_gamma   90.00000000
_symmetry_Int_Tables_number   1
_chemical_formula_structural   MgV2H2O5
_chemical_formula_sum   'Mg1 V2 H2 O5'
_cell_volume   93.93852458
_cell_formula_units_Z   1
loop_
 _symmetry_equiv_pos_site_id
 _symmetry_equiv_pos_as_xyz
  1  'x, y, z'
loop_
 _atom_site_type_symbol
 _atom_site_label
 _atom_site_symmetry_multiplicity
 _atom_site_fract_x
 _atom_site_fract_y
 _atom_site_fract_z
 _atom_site_occupancy
  Mg  Mg0  1  0.00000000  0.00000000  0.00000000  1
  V  V0  1  0.85198900  0.55888600  0.70397500  1
  V  V1  1  0.14801100  0.44111400  0.29602500  1
  H  H0  1  0.65803000  0.95756100  0.31606000  1
  H  H1  1  0.34197000  0.04243900  0.68394000  1
  O  O0  1  0.00000000  0.50000000  0.00000000  1
  O  O1  1  0.69977800  0.68039200  0.39955700  1
  O  O2  1  0.30022200  0.31960800  0.60044300  1
  O  O3  1  0.39396400  0.87985300  0.78792700  1
  O  O4  1  0.60603600  0.12014700  0.21207300  1
loop_
_geom_bond_atom_site_label_1
_geom_bond_atom_site_label_2
_geom_bond_distance
_geom_bond_site_symmetry_2
Mg0 O4 2.102598 1_555
Mg0 O3 2.102598 1_444
Mg0 O4 2.102601 1_455
Mg0 O3 2.102601 1_544
Mg0 O0 2.417740 1_555
Mg0 O0 2.417740 1_545
H0 O4 1.050809 1_565
H0 O1 1.465873 1_555
H1 O3 1.050809 1_545
H1 O2 1.465873 1_555
O0 V1 1.907503 1_555
O0 V0 1.907503 1_454
O1 V1 2.013815 1_655
O1 V1 2.013820 1_555
O1 V0 2.041213 1_555
O2 V0 2.013815 1_455
O2 V0 2.013820 1_555
O2 V1 2.041213 1_555
O3 V0 2.229777 1_455
O3 V0 2.229782 1_555
O4 V1 2.229777 1_655
O4 V1 2.229782 1_555
