# generated using pymatgen
data_LiCuPO4
_symmetry_space_group_name_H-M   'P 1'
_cell_length_a   8.54455617
_cell_length_b   8.54455617
_cell_length_c   8.54455612
_cell_angle_alpha   107.73492463
_cell_angle_beta   107.73492463
_cell_angle_gamma   107.73492830
_symmetry_Int_Tables_number   1
_chemical_formula_structural   LiCuPO4
_chemical_formula_sum   'Li6 Cu6 P6 O24'
_cell_volume   508.75945905
_cell_formula_units_Z   6
loop_
 _symmetry_equiv_pos_site_id
 _symmetry_equiv_pos_as_xyz
  1  'x, y, z'
loop_
 _atom_site_type_symbol
 _atom_site_label
 _atom_site_symmetry_multiplicity
 _atom_site_fract_x
 _atom_site_fract_y
 _atom_site_fract_z
 _atom_site_occupancy
  Li  Li0  1  0.89883200  0.12427800  0.72719300  1
  Li  Li1  1  0.72719300  0.89883200  0.12427800  1
  Li  Li2  1  0.19892000  0.61154400  0.42049200  1
  Li  Li3  1  0.12427800  0.72719300  0.89883200  1
  Li  Li4  1  0.61154400  0.42049200  0.19892000  1
  Li  Li5  1  0.42049200  0.19892000  0.61154400  1
  Cu  Cu0  1  0.53585500  0.93187800  0.76487900  1
  Cu  Cu1  1  0.23358500  0.46072800  0.04214900  1
  Cu  Cu2  1  0.93187800  0.76487900  0.53585500  1
  Cu  Cu3  1  0.04214900  0.23358500  0.46072800  1
  Cu  Cu4  1  0.76487900  0.53585500  0.93187800  1
  Cu  Cu5  1  0.46072800  0.04214900  0.23358500  1
  P  P0  1  0.27906000  0.09556100  0.87673700  1
  P  P1  1  0.78571700  0.38868400  0.57304700  1
  P  P2  1  0.87673700  0.27906000  0.09556100  1
  P  P3  1  0.38868400  0.57304700  0.78571700  1
  P  P4  1  0.57304700  0.78571700  0.38868400  1
  P  P5  1  0.09556100  0.87673700  0.27906000  1
  O  O0  1  0.90486500  0.59839800  0.65599800  1
  O  O1  1  0.65599800  0.90486500  0.59839800  1
  O  O2  1  0.28956300  0.98630200  0.99234200  1
  O  O3  1  0.98630200  0.99234200  0.28956300  1
  O  O4  1  0.07423200  0.77313300  0.39835900  1
  O  O5  1  0.60421900  0.91684200  0.29546500  1
  O  O6  1  0.99234200  0.28956300  0.98630200  1
  O  O7  1  0.39835900  0.07423200  0.77313300  1
  O  O8  1  0.07785100  0.02007100  0.73723600  1
  O  O9  1  0.30100600  0.00506500  0.35691200  1
  O  O10  1  0.91684200  0.29546500  0.60421900  1
  O  O11  1  0.36856300  0.65451900  0.30881000  1
  O  O12  1  0.67343900  0.34853700  0.68154700  1
  O  O13  1  0.65451900  0.30881000  0.36856300  1
  O  O14  1  0.30881000  0.36856300  0.65451900  1
  O  O15  1  0.73723600  0.07785100  0.02007100  1
  O  O16  1  0.77313300  0.39835900  0.07423200  1
  O  O17  1  0.59839800  0.65599800  0.90486500  1
  O  O18  1  0.35691200  0.30100600  0.00506500  1
  O  O19  1  0.29546500  0.60421900  0.91684200  1
  O  O20  1  0.00506500  0.35691200  0.30100600  1
  O  O21  1  0.68154700  0.67343900  0.34853700  1
  O  O22  1  0.34853700  0.68154700  0.67343900  1
  O  O23  1  0.02007100  0.73723600  0.07785100  1
loop_
_geom_bond_atom_site_label_1
_geom_bond_atom_site_label_2
_geom_bond_distance
_geom_bond_site_symmetry_2
Li0 O6 1.965846 1_555
Li0 O8 1.984016 1_655
Li0 O1 2.003292 1_545
Li0 O10 2.040846 1_555
Li1 O3 1.965846 1_555
Li1 O15 1.984015 1_565
Li1 O17 2.003292 1_554
Li1 O5 2.040846 1_555
Li2 O22 1.930447 1_555
Li2 O11 1.969394 1_555
Li2 O20 1.985105 1_555
Li2 O4 2.002425 1_555
Li3 O2 1.965846 1_555
Li3 O23 1.984015 1_556
Li3 O0 2.003292 1_455
Li3 O19 2.040846 1_555
Li4 O21 1.930447 1_555
Li4 O13 1.969394 1_555
Li4 O18 1.985105 1_555
Li4 O16 2.002425 1_555
Li5 O12 1.930447 1_555
Li5 O14 1.969394 1_555
Li5 O9 1.985105 1_555
Li5 O7 2.002425 1_555
Cu0 O7 1.932241 1_565
Cu0 O22 1.970199 1_555
Cu0 O1 1.991136 1_555
Cu0 O15 2.005211 1_566
Cu1 O19 1.918044 1_554
Cu1 O6 1.937684 1_454
Cu1 O18 1.972187 1_555
Cu1 O11 2.049542 1_555
Cu2 O4 1.932241 1_655
Cu2 O21 1.970199 1_555
Cu2 O0 1.991136 1_555
Cu2 O8 2.005211 1_665
Cu3 O10 1.918044 1_455
Cu3 O3 1.937685 1_445
Cu3 O20 1.972187 1_555
Cu3 O14 2.049542 1_555
Cu4 O16 1.932241 1_556
Cu4 O12 1.970199 1_555
Cu4 O17 1.991136 1_555
Cu4 O23 2.005211 1_656
Cu5 O5 1.918044 1_545
Cu5 O2 1.937685 1_544
Cu5 O9 1.972187 1_555
Cu5 O13 2.049542 1_555
O0 P1 1.557242 1_555
O1 P4 1.557242 1_555
O2 P0 1.553767 1_565
O3 P5 1.553767 1_655
O4 P5 1.555834 1_555
O5 P4 1.565827 1_555
O6 P2 1.553767 1_556
O7 P0 1.555834 1_555
O8 P0 1.549243 1_555
O9 P5 1.548524 1_545
O10 P1 1.565827 1_555
O11 P4 1.545772 1_555
O12 P1 1.559696 1_555
O13 P1 1.545772 1_555
O14 P3 1.545772 1_555
O15 P2 1.549243 1_555
O16 P2 1.555834 1_555
O17 P3 1.557242 1_555
O18 P0 1.548524 1_554
O19 P3 1.565827 1_555
O20 P2 1.548524 1_455
O21 P4 1.559696 1_555
O22 P3 1.559696 1_555
O23 P5 1.549243 1_555
