# generated using pymatgen
data_InGa(SO4)3
_symmetry_space_group_name_H-M   'P 1'
_cell_length_a   8.66901931
_cell_length_b   8.66901905
_cell_length_c   22.65301893
_cell_angle_alpha   90.00000000
_cell_angle_beta   90.00000000
_cell_angle_gamma   120.00000105
_symmetry_Int_Tables_number   1
_chemical_formula_structural   InGa(SO4)3
_chemical_formula_sum   'In6 Ga6 S18 O72'
_cell_volume   1474.33658478
_cell_formula_units_Z   6
loop_
 _symmetry_equiv_pos_site_id
 _symmetry_equiv_pos_as_xyz
  1  'x, y, z'
loop_
 _atom_site_type_symbol
 _atom_site_label
 _atom_site_symmetry_multiplicity
 _atom_site_fract_x
 _atom_site_fract_y
 _atom_site_fract_z
 _atom_site_occupancy
  In  In0  1  -0.00000000  -0.00000000  0.85019236  1
  In  In1  1  0.66666700  0.33333300  0.98314064  1
  In  In2  1  0.33333300  0.66666700  0.02314218  1
  In  In3  1  0.33333300  0.66666700  0.52014302  1
  In  In4  1  0.33333300  0.66666700  0.31319098  1
  In  In5  1  0.33333300  0.66666700  0.81019182  1
  Ga  Ga0  1  -0.00000000  -0.00000000  0.35113595  1
  Ga  Ga1  1  -0.00000000  -0.00000000  0.64596099  1
  Ga  Ga2  1  -0.00000000  -0.00000000  0.14864996  1
  Ga  Ga3  1  0.66666700  0.33333300  0.68468304  1
  Ga  Ga4  1  0.66666700  0.33333300  0.18737201  1
  Ga  Ga5  1  0.66666700  0.33333300  0.48219705  1
  S  S0  1  0.28963157  0.00761016  0.24849791  1
  S  S1  1  0.71797858  0.71036843  0.24849791  1
  S  S2  1  0.99238984  0.28202142  0.24849791  1
  S  S3  1  0.29639359  0.28826939  0.74539110  1
  S  S4  1  0.99187580  0.70360641  0.74539110  1
  S  S5  1  0.71173061  0.00812420  0.74539110  1
  S  S6  1  0.94868842  0.32572284  0.58483509  1
  S  S7  1  0.37703543  0.05131158  0.58483509  1
  S  S8  1  0.67427716  0.62296457  0.58483509  1
  S  S9  1  0.95493639  0.62972659  0.08794190  1
  S  S10  1  0.67479120  0.04506361  0.08794190  1
  S  S11  1  0.37027341  0.32520880  0.08794190  1
  S  S12  1  0.62745524  0.66666700  0.91666700  1
  S  S13  1  0.03921076  0.37254476  0.91666700  1
  S  S14  1  0.33333300  0.96078924  0.91666700  1
  S  S15  1  0.63675457  0.97008857  0.41666700  1
  S  S16  1  0.33333300  0.36324543  0.41666700  1
  S  S17  1  0.02991143  0.66666700  0.41666700  1
  O  O0  1  0.21040508  0.03848646  0.30252226  1
  O  O1  1  0.82808138  0.78959492  0.30252226  1
  O  O2  1  0.96151354  0.17191862  0.30252226  1
  O  O3  1  0.22669105  0.18333872  0.80045823  1
  O  O4  1  0.95664767  0.77330895  0.80045823  1
  O  O5  1  0.81666128  0.04335233  0.80045823  1
  O  O6  1  0.79853599  0.97494142  0.69431935  1
  O  O7  1  0.17640542  0.20146401  0.69431935  1
  O  O8  1  0.02505858  0.82359458  0.69431935  1
  O  O9  1  0.79851309  0.82431811  0.19586271  1
  O  O10  1  0.02580503  0.20148691  0.19586271  1
  O  O11  1  0.17568189  0.97419497  0.19586271  1
  O  O12  1  0.86815391  0.35913803  0.63747029  1
  O  O13  1  0.49098511  0.13184609  0.63747029  1
  O  O14  1  0.64086197  0.50901489  0.63747029  1
  O  O15  1  0.86813101  0.50973842  0.13901365  1
  O  O16  1  0.64160842  0.13186899  0.13901365  1
  O  O17  1  0.49026158  0.35839158  0.13901365  1
  O  O18  1  0.43997595  0.28998067  0.03287477  1
  O  O19  1  0.85000572  0.56002405  0.03287477  1
  O  O20  1  0.71001933  0.14999428  0.03287477  1
  O  O21  1  0.45626192  0.16141438  0.53081074  1
  O  O22  1  0.70515346  0.54373808  0.53081074  1
  O  O23  1  0.83858562  0.29484654  0.53081074  1
  O  O24  1  0.54875669  0.69745586  0.97018691  1
  O  O25  1  0.14869817  0.45124331  0.97018691  1
  O  O26  1  0.30254414  0.85130183  0.97018691  1
  O  O27  1  0.56080466  0.85402183  0.46936870  1
  O  O28  1  0.29321617  0.43919534  0.46936870  1
  O  O29  1  0.14597817  0.70678383  0.46936870  1
  O  O30  1  0.10586134  0.62655017  0.36396530  1
  O  O31  1  0.52068783  0.89413866  0.36396530  1
  O  O32  1  0.37344982  0.47931217  0.36396530  1
  O  O33  1  0.11790931  0.48203217  0.86314709  1
  O  O34  1  0.36412186  0.88209069  0.86314709  1
  O  O35  1  0.51796783  0.63587814  0.86314709  1
  O  O36  1  0.01273255  0.82623858  0.40614458  1
  O  O37  1  0.81350603  0.98726745  0.40614458  1
  O  O38  1  0.17376142  0.18649397  0.40614458  1
  O  O39  1  0.02332952  0.19638076  0.91068125  1
  O  O40  1  0.17305124  0.97667048  0.91068125  1
  O  O41  1  0.80361924  0.82694876  0.91068125  1
  O  O42  1  0.96572774  0.16520610  0.59291240  1
  O  O43  1  0.19947836  0.03427226  0.59291240  1
  O  O44  1  0.83479390  0.80052164  0.59291240  1
  O  O45  1  0.97341791  0.80722963  0.09646920  1
  O  O46  1  0.83381172  0.02658209  0.09646920  1
  O  O47  1  0.19277037  0.16618828  0.09646920  1
  O  O48  1  0.69324909  0.16714472  0.73686380  1
  O  O49  1  0.47389663  0.30675091  0.73686380  1
  O  O50  1  0.83285528  0.52610337  0.73686380  1
  O  O51  1  0.70093926  0.53281136  0.24042060  1
  O  O52  1  0.83187310  0.29906074  0.24042060  1
  O  O53  1  0.46718864  0.16812690  0.24042060  1
  O  O54  1  0.64333748  0.50638424  0.92265175  1
  O  O55  1  0.86304776  0.35666252  0.92265175  1
  O  O56  1  0.49361576  0.13695224  0.92265175  1
  O  O57  1  0.65393445  0.14683903  0.42718842  1
  O  O58  1  0.49290558  0.34606555  0.42718842  1
  O  O59  1  0.85316097  0.50709442  0.42718842  1
  O  O60  1  0.35474270  0.48600684  0.08202626  1
  O  O61  1  0.13126315  0.64525730  0.08202626  1
  O  O62  1  0.51399316  0.86873685  0.08202626  1
  O  O63  1  0.35932564  0.87363093  0.57848370  1
  O  O64  1  0.51430429  0.64067436  0.57848370  1
  O  O65  1  0.12636907  0.48569571  0.57848370  1
  O  O66  1  0.30734036  0.84763829  0.25485030  1
  O  O67  1  0.54029693  0.69265964  0.25485030  1
  O  O68  1  0.15236171  0.45970307  0.25485030  1
  O  O69  1  0.31192330  0.46459715  0.75130774  1
  O  O70  1  0.15267284  0.68807670  0.75130774  1
  O  O71  1  0.53540285  0.84732716  0.75130774  1
loop_
_geom_bond_atom_site_label_1
_geom_bond_atom_site_label_2
_geom_bond_distance
_geom_bond_site_symmetry_2
In0 O39 2.114819 1_555
In0 O41 2.114819 1_445
In0 O40 2.114819 1_545
In0 O4 2.129305 1_445
In0 O3 2.129305 1_555
In0 O5 2.129305 1_455
In1 O56 2.114819 1_555
In1 O54 2.114819 1_555
In1 O55 2.114819 1_555
In1 O19 2.129305 1_556
In1 O20 2.129305 1_556
In1 O18 2.129305 1_556
In2 O25 2.121183 1_554
In2 O26 2.121183 1_554
In2 O24 2.121183 1_554
In2 O62 2.134768 1_555
In2 O61 2.134768 1_555
In2 O60 2.134768 1_555
In3 O63 2.147594 1_555
In3 O65 2.147594 1_555
In3 O64 2.147594 1_555
In3 O28 2.155622 1_555
In3 O27 2.155622 1_555
In3 O29 2.155622 1_555
In4 O68 2.147594 1_555
In4 O66 2.147594 1_555
In4 O67 2.147594 1_555
In4 O32 2.155621 1_555
In4 O31 2.155622 1_555
In4 O30 2.155622 1_555
In5 O34 2.121183 1_555
In5 O33 2.121183 1_555
In5 O35 2.121183 1_555
In5 O69 2.134768 1_555
In5 O71 2.134768 1_555
In5 O70 2.134768 1_555
Ga0 O38 2.000077 1_555
Ga0 O36 2.000077 1_545
Ga0 O37 2.000077 1_445
Ga0 O1 2.010596 1_445
Ga0 O2 2.010596 1_455
Ga0 O0 2.010596 1_555
Ga1 O8 1.979414 1_545
Ga1 O7 1.979414 1_555
Ga1 O6 1.979414 1_445
Ga1 O44 2.002252 1_445
Ga1 O42 2.002252 1_455
Ga1 O43 2.002252 1_555
Ga2 O10 1.963185 1_555
Ga2 O9 1.963185 1_445
Ga2 O11 1.963185 1_545
Ga2 O45 1.964161 1_445
Ga2 O47 1.964161 1_555
Ga2 O46 1.964161 1_455
Ga3 O13 1.963185 1_555
Ga3 O12 1.963185 1_555
Ga3 O14 1.963185 1_555
Ga3 O50 1.964161 1_555
Ga3 O48 1.964161 1_555
Ga3 O49 1.964161 1_555
Ga4 O17 1.979414 1_555
Ga4 O15 1.979414 1_555
Ga4 O16 1.979414 1_555
Ga4 O51 2.002252 1_555
Ga4 O53 2.002252 1_555
Ga4 O52 2.002252 1_555
Ga5 O57 2.000077 1_555
Ga5 O59 2.000077 1_555
Ga5 O58 2.000077 1_555
Ga5 O22 2.010596 1_555
Ga5 O21 2.010596 1_555
Ga5 O23 2.010596 1_555
O0 S0 1.491617 1_555
O1 S1 1.491617 1_555
O2 S2 1.491617 1_555
O3 S3 1.482909 1_555
O4 S4 1.482909 1_555
O5 S5 1.482909 1_555
O6 S5 1.484584 1_565
O7 S3 1.484584 1_555
O8 S4 1.484584 1_455
O9 S1 1.481642 1_555
O10 S2 1.481642 1_455
O11 S0 1.481642 1_565
O12 S6 1.481642 1_555
O13 S7 1.481642 1_555
O14 S8 1.481642 1_555
O15 S9 1.484584 1_555
O16 S10 1.484584 1_555
O17 S11 1.484584 1_555
O18 S11 1.482909 1_555
O19 S9 1.482909 1_555
O20 S10 1.482909 1_555
O21 S7 1.491617 1_555
O22 S8 1.491617 1_555
O23 S6 1.491617 1_555
O24 S12 1.479416 1_555
O25 S13 1.479416 1_555
O26 S14 1.479416 1_555
O27 S15 1.486174 1_555
O28 S16 1.486174 1_555
O29 S17 1.486174 1_555
O30 S17 1.486174 1_555
O31 S15 1.486174 1_555
O32 S16 1.486174 1_555
O33 S13 1.479416 1_555
O34 S14 1.479416 1_555
O35 S12 1.479416 1_555
O36 S17 1.482770 1_555
O37 S15 1.482778 1_555
O38 S16 1.482775 1_555
O39 S13 1.469467 1_555
O40 S14 1.469458 1_555
O41 S12 1.469463 1_555
O42 S6 1.482290 1_555
O43 S7 1.482298 1_555
O44 S8 1.482295 1_555
O45 S9 1.477931 1_555
O46 S10 1.477923 1_555
O47 S11 1.477928 1_555
O48 S5 1.477923 1_555
O49 S3 1.477931 1_555
O50 S4 1.477928 1_555
O51 S1 1.482298 1_555
O52 S2 1.482290 1_555
O53 S0 1.482295 1_555
O54 S12 1.469470 1_555
O55 S13 1.469453 1_655
O56 S14 1.469460 1_545
O57 S15 1.482763 1_545
O58 S16 1.482780 1_555
O59 S17 1.482770 1_655
O60 S11 1.472036 1_555
O61 S9 1.472019 1_455
O62 S10 1.472026 1_565
O63 S7 1.476607 1_565
O64 S8 1.476624 1_555
O65 S6 1.476614 1_455
O66 S0 1.476613 1_565
O67 S1 1.476621 1_555
O68 S2 1.476618 1_455
O69 S3 1.472033 1_555
O70 S4 1.472025 1_455
O71 S5 1.472030 1_565
