# generated using pymatgen
data_Na6MgSi4Ge3(SO12)2
_symmetry_space_group_name_H-M   'P 1'
_cell_length_a   8.80771265
_cell_length_b   8.79978163
_cell_length_c   21.89846508
_cell_angle_alpha   91.41767420
_cell_angle_beta   89.63196840
_cell_angle_gamma   120.29318181
_symmetry_Int_Tables_number   1
_chemical_formula_structural   Na6MgSi4Ge3(SO12)2
_chemical_formula_sum   'Na18 Mg3 Si12 Ge9 S6 O72'
_cell_volume   1465.02509504
_cell_formula_units_Z   3
loop_
 _symmetry_equiv_pos_site_id
 _symmetry_equiv_pos_as_xyz
  1  'x, y, z'
loop_
 _atom_site_type_symbol
 _atom_site_label
 _atom_site_symmetry_multiplicity
 _atom_site_fract_x
 _atom_site_fract_y
 _atom_site_fract_z
 _atom_site_occupancy
  Na  Na0  1  0.99234252  0.36159677  0.75372475  1
  Na  Na1  1  0.39231062  0.01369795  0.75147022  1
  Na  Na2  1  0.31433011  0.33640452  0.58731555  1
  Na  Na3  1  0.02810466  0.69782213  0.57495789  1
  Na  Na4  1  0.65831908  0.96847876  0.59257569  1
  Na  Na5  1  0.31423440  0.97555623  0.08550181  1
  Na  Na6  1  0.65758710  0.68188309  0.08589484  1
  Na  Na7  1  0.02451543  0.33724547  0.08576245  1
  Na  Na8  1  0.33699949  0.30177388  0.92511796  1
  Na  Na9  1  0.96407725  0.29053608  0.41322604  1
  Na  Na10  1  0.32288334  0.03611825  0.41274246  1
  Na  Na11  1  0.71365436  0.68041211  0.41348398  1
  Na  Na12  1  0.00002645  0.99870382  0.49464664  1
  Na  Na13  1  0.98916166  0.98812464  0.99756153  1
  Na  Na14  1  0.66640398  0.32897013  0.83455341  1
  Na  Na15  1  0.66842962  0.33531171  0.32705121  1
  Na  Na16  1  0.33451007  0.66751181  0.16636329  1
  Na  Na17  1  0.36277321  0.66994253  0.66933166  1
  Mg  Mg0  1  0.00098049  0.99963197  0.35490686  1
  Mg  Mg1  1  0.64879812  0.32745758  0.68829780  1
  Mg  Mg2  1  0.66198088  0.33239970  0.18036451  1
  Si  Si0  1  0.29027556  0.29469095  0.75249939  1
  Si  Si1  1  0.71450123  0.99064281  0.75392463  1
  Si  Si2  1  0.37452353  0.04082934  0.58405024  1
  Si  Si3  1  0.66504947  0.62484261  0.58315399  1
  Si  Si4  1  0.94848763  0.61255645  0.08455300  1
  Si  Si5  1  0.66066525  0.03546460  0.08460802  1
  Si  Si6  1  0.38051620  0.33897839  0.08192051  1
  Si  Si7  1  0.03965746  0.38806761  0.91512749  1
  Si  Si8  1  0.33151180  0.95317695  0.91583869  1
  Si  Si9  1  0.61788224  0.96161109  0.41685648  1
  Si  Si10  1  0.33665024  0.38891026  0.41733833  1
  Si  Si11  1  0.04281072  0.65596019  0.41817394  1
  Ge  Ge0  1  0.01680412  0.02823443  0.85683606  1
  Ge  Ge1  1  0.99543417  0.99401568  0.64981260  1
  Ge  Ge2  1  0.00271915  0.00098266  0.14163394  1
  Ge  Ge3  1  0.67272595  0.31095737  0.98409135  1
  Ge  Ge4  1  0.65043299  0.34032486  0.47623073  1
  Ge  Ge5  1  0.31708790  0.66677671  0.02012184  1
  Ge  Ge6  1  0.35091048  0.68334976  0.51586755  1
  Ge  Ge7  1  0.33074555  0.66393865  0.32040189  1
  Ge  Ge8  1  0.34254021  0.66794122  0.81513538  1
  S  S0  1  0.28872005  0.99099975  0.25072939  1
  S  S1  1  0.69911927  0.70933009  0.25118494  1
  S  S2  1  0.01121430  0.29903878  0.25147402  1
  S  S3  1  0.00091413  0.71418324  0.74928301  1
  S  S4  1  0.95615836  0.33107649  0.58487357  1
  S  S5  1  0.62979831  0.67221287  0.91470592  1
  O  O0  1  0.19767220  0.00029846  0.30555599  1
  O  O1  1  0.79926279  0.80284940  0.30618290  1
  O  O2  1  0.00477002  0.20122184  0.30530667  1
  O  O3  1  0.20462746  0.17384324  0.81303573  1
  O  O4  1  0.98175148  0.80093696  0.80391940  1
  O  O5  1  0.84460465  0.01587123  0.81062481  1
  O  O6  1  0.79562435  0.96018911  0.68804631  1
  O  O7  1  0.15554273  0.19919080  0.69152996  1
  O  O8  1  0.02763255  0.81849669  0.69143869  1
  O  O9  1  0.78559687  0.81164927  0.19398156  1
  O  O10  1  0.02833842  0.21072438  0.19278552  1
  O  O11  1  0.18365556  0.97333440  0.19260958  1
  O  O12  1  0.87337235  0.34768383  0.64030364  1
  O  O13  1  0.49642300  0.10465072  0.64365424  1
  O  O14  1  0.62052730  0.49432373  0.63777036  1
  O  O15  1  0.88639396  0.48952553  0.14179514  1
  O  O16  1  0.59483535  0.10367351  0.14046049  1
  O  O17  1  0.50585268  0.39795505  0.13983563  1
  O  O18  1  0.45913349  0.28376323  0.02102055  1
  O  O19  1  0.81303776  0.52873694  0.02499374  1
  O  O20  1  0.72634068  0.16748723  0.02557879  1
  O  O21  1  0.45842602  0.17409527  0.52452390  1
  O  O22  1  0.71336954  0.54747515  0.51989724  1
  O  O23  1  0.85309829  0.30959295  0.52842677  1
  O  O24  1  0.55041716  0.69648885  0.97110604  1
  O  O25  1  0.17517747  0.47433647  0.97318872  1
  O  O26  1  0.30529531  0.83904444  0.97638489  1
  O  O27  1  0.54552319  0.84254930  0.47815247  1
  O  O28  1  0.30036194  0.47313653  0.47988468  1
  O  O29  1  0.16650853  0.69090229  0.47877439  1
  O  O30  1  0.12467932  0.60445314  0.35783443  1
  O  O31  1  0.47438312  0.87352426  0.35953595  1
  O  O32  1  0.39111893  0.52385041  0.35944777  1
  O  O33  1  0.13313325  0.50185338  0.85326878  1
  O  O34  1  0.36060122  0.86434849  0.85300025  1
  O  O35  1  0.51329171  0.64145767  0.85973183  1
  O  O36  1  0.02129923  0.82606074  0.41245812  1
  O  O37  1  0.80986276  0.98688132  0.40918992  1
  O  O38  1  0.17048078  0.19423746  0.41171330  1
  O  O39  1  0.02749540  0.19154016  0.91343340  1
  O  O40  1  0.15387635  0.97738391  0.90994579  1
  O  O41  1  0.80583111  0.83043689  0.90960779  1
  O  O42  1  0.97416419  0.16861121  0.58438557  1
  O  O43  1  0.17627839  0.02251547  0.59162316  1
  O  O44  1  0.84547486  0.82499507  0.58856943  1
  O  O45  1  0.97204547  0.81466373  0.09227477  1
  O  O46  1  0.83924492  0.01656180  0.09426042  1
  O  O47  1  0.18018270  0.15665247  0.09068815  1
  O  O48  1  0.70202983  0.16766714  0.75175260  1
  O  O49  1  0.47763256  0.30911446  0.74986329  1
  O  O50  1  0.85099707  0.53614258  0.74303174  1
  O  O51  1  0.68006073  0.53402996  0.24885195  1
  O  O52  1  0.85526975  0.31679967  0.24913023  1
  O  O53  1  0.46343264  0.14913511  0.24904740  1
  O  O54  1  0.63931304  0.51017450  0.91540947  1
  O  O55  1  0.84592125  0.36672834  0.92328068  1
  O  O56  1  0.50683853  0.15423225  0.92233817  1
  O  O57  1  0.62738121  0.15264205  0.42590844  1
  O  O58  1  0.51678463  0.37538182  0.42000451  1
  O  O59  1  0.84915257  0.47464207  0.42393091  1
  O  O60  1  0.34243768  0.50162725  0.07009605  1
  O  O61  1  0.15333104  0.65596431  0.07479595  1
  O  O62  1  0.49872045  0.83363366  0.06951868  1
  O  O63  1  0.34178301  0.83749457  0.57424210  1
  O  O64  1  0.49133110  0.65127153  0.57576140  1
  O  O65  1  0.13599007  0.48935577  0.58314055  1
  O  O66  1  0.29806761  0.82387913  0.25043514  1
  O  O67  1  0.52072777  0.69944990  0.25228002  1
  O  O68  1  0.18085677  0.47802030  0.25188450  1
  O  O69  1  0.29276689  0.48489462  0.75716865  1
  O  O70  1  0.16742640  0.70578717  0.74961207  1
  O  O71  1  0.51348553  0.81587057  0.75816643  1
loop_
_geom_bond_atom_site_label_1
_geom_bond_atom_site_label_2
_geom_bond_distance
_geom_bond_site_symmetry_2
Na0 O48 2.246751 1_555
Na0 O69 2.299271 1_655
Na0 O50 2.431975 1_555
Na0 O33 2.484025 1_655
Na0 O70 2.619061 1_655
Na0 O12 2.677864 1_555
Na0 O7 2.813283 1_655
Na0 O5 2.945231 1_555
Na1 O49 2.314567 1_555
Na1 O48 2.355497 1_555
Na1 O70 2.418218 1_545
Na1 O71 2.465791 1_545
Na1 O13 2.526077 1_555
Na1 O34 2.552418 1_545
Na2 O43 2.395829 1_555
Na2 O64 2.417309 1_555
Na2 O65 2.535353 1_555
Na2 O14 2.570320 1_555
Na2 O42 2.587586 1_455
Na2 O7 2.648348 1_555
Na2 O21 2.692704 1_555
Na2 O28 2.700105 1_555
Na3 O63 2.391347 1_555
Na3 O44 2.392078 1_455
Na3 O29 2.441650 1_555
Na3 O65 2.465217 1_555
Na3 O43 2.488533 1_565
Na3 O22 2.674459 1_455
Na3 O8 2.739396 1_555
Na4 O64 2.429965 1_555
Na4 O42 2.437043 1_565
Na4 O6 2.442892 1_555
Na4 O63 2.451940 1_555
Na4 O13 2.521367 1_565
Na4 O44 2.532113 1_555
Na4 O27 2.697668 1_555
Na5 O47 2.415375 1_565
Na5 O61 2.433803 1_555
Na5 O16 2.446966 1_565
Na5 O62 2.518108 1_555
Na5 O11 2.601806 1_555
Na5 O45 2.609577 1_455
Na5 O26 2.631331 1_554
Na5 O18 2.766367 1_565
Na6 O62 2.405187 1_555
Na6 O45 2.405796 1_555
Na6 O60 2.425659 1_555
Na6 O17 2.486158 1_555
Na6 O46 2.547622 1_565
Na6 O9 2.603691 1_555
Na6 O19 2.686722 1_555
Na6 O24 2.719384 1_554
Na7 O60 2.444775 1_555
Na7 O61 2.455729 1_555
Na7 O46 2.457085 1_455
Na7 O15 2.515020 1_455
Na7 O47 2.574006 1_555
Na7 O20 2.618161 1_455
Na7 O10 2.627032 1_555
Na7 O25 2.789896 1_554
Na8 O54 2.363046 1_555
Na8 O39 2.401371 1_555
Na8 O18 2.410454 1_556
Na8 O56 2.425150 1_555
Na8 O40 2.485043 1_545
Na8 O3 2.688266 1_555
Na8 O25 2.744181 1_555
Na9 O37 2.306754 1_545
Na9 O59 2.310155 1_555
Na9 O38 2.361381 1_655
Na9 O2 2.551980 1_655
Na9 O57 2.592230 1_555
Na9 O30 2.702736 1_655
Na9 O23 2.731381 1_555
Na9 O28 2.936603 1_655
Na10 O36 2.349209 1_545
Na10 O57 2.355471 1_555
Na10 O38 2.371613 1_555
Na10 O0 2.543809 1_555
Na10 O58 2.586716 1_555
Na10 O31 2.647430 1_545
Na10 O21 2.705456 1_555
Na11 O36 2.341454 1_655
Na11 O58 2.356320 1_555
Na11 O37 2.388723 1_555
Na11 O1 2.556077 1_555
Na11 O22 2.632596 1_555
Na11 O59 2.638080 1_555
Na11 O32 2.717082 1_555
Na11 O27 2.870308 1_555
Na12 O36 2.393735 1_555
Na12 O38 2.454863 1_565
Na12 O37 2.484554 1_455
Na12 O42 2.518254 1_465
Na12 O44 2.537769 1_455
Na12 O43 2.579881 1_565
Na13 O40 2.426614 1_655
Na13 O41 2.426881 1_555
Na13 O39 2.501518 1_665
Na13 O46 2.561522 1_566
Na13 O47 2.562439 1_666
Na13 O45 2.564166 1_556
Na14 O48 2.390743 1_555
Na14 O55 2.421389 1_555
Na14 O49 2.442314 1_555
Na14 O56 2.442619 1_555
Na14 O54 2.444049 1_555
Na14 O50 2.670652 1_555
Na15 O53 2.403919 1_555
Na15 O52 2.422168 1_555
Na15 O51 2.442544 1_555
Na15 O58 2.540938 1_555
Na15 O59 2.546286 1_555
Na15 O57 2.641382 1_555
Na16 O66 2.387147 1_555
Na16 O67 2.420198 1_555
Na16 O68 2.442265 1_555
Na16 O61 2.538703 1_555
Na16 O60 2.555096 1_555
Na16 O62 2.589861 1_555
Na17 O71 2.320630 1_555
Na17 O64 2.376743 1_555
Na17 O69 2.420425 1_555
Na17 O70 2.575200 1_555
Na17 O65 2.602943 1_555
Na17 O63 2.641211 1_555
Mg0 O38 2.011988 1_565
Mg0 O37 2.012341 1_455
Mg0 O1 2.030453 1_455
Mg0 O0 2.033519 1_565
Mg0 O36 2.080185 1_555
Mg0 O2 2.088757 1_565
Mg1 O49 1.963572 1_555
Mg1 O13 1.966839 1_555
Mg1 O14 1.973636 1_555
Mg1 O50 2.144690 1_555
Mg1 O12 2.162425 1_555
Mg1 O48 2.213148 1_555
Mg2 O15 1.952222 1_555
Mg2 O17 1.962848 1_555
Mg2 O16 1.970587 1_555
Mg2 O51 2.238117 1_555
Mg2 O53 2.272037 1_555
Mg2 O52 2.337452 1_555
Ge0 O5 1.784383 1_455
Ge0 O3 1.788981 1_555
Ge0 O39 1.840365 1_555
Ge0 O40 1.897158 1_545
Ge0 O41 2.151030 1_445
Ge0 O4 2.169266 1_445
Ge1 O6 1.830753 1_555
Ge1 O7 1.857237 1_665
Ge1 O44 1.922894 1_555
Ge1 O43 1.952039 1_665
Ge1 O8 1.952382 1_655
Ge1 O42 2.202533 1_565
Ge2 O46 1.842144 1_455
Ge2 O45 1.843550 1_445
Ge2 O47 1.859406 1_555
Ge2 O10 2.047672 1_555
Ge2 O11 2.066984 1_545
Ge2 O9 2.144532 1_445
Ge3 O20 1.818251 1_556
Ge3 O19 1.882061 1_556
Ge3 O55 1.895298 1_555
Ge3 O56 1.940555 1_555
Ge3 O18 1.945829 1_556
Ge3 O54 2.465478 1_555
Ge4 O58 1.844073 1_555
Ge4 O22 1.856255 1_555
Ge4 O57 1.886210 1_555
Ge4 O21 1.917291 1_555
Ge4 O59 1.930367 1_555
Ge4 O23 2.257080 1_555
Ge5 O25 1.811435 1_554
Ge5 O61 1.835165 1_555
Ge5 O26 1.859594 1_554
Ge5 O62 1.859889 1_555
Ge5 O60 1.941308 1_555
Ge5 O24 2.210741 1_554
Ge6 O27 1.788662 1_555
Ge6 O28 1.828252 1_555
Ge6 O29 1.852197 1_555
Ge6 O63 1.871730 1_555
Ge6 O64 1.928974 1_555
Ge6 O65 2.344414 1_555
Ge7 O32 1.803562 1_555
Ge7 O30 1.812102 1_555
Ge7 O31 1.821595 1_555
Ge7 O68 2.096611 1_555
Ge7 O67 2.141600 1_555
Ge7 O66 2.220878 1_555
Ge8 O34 1.831235 1_555
Ge8 O33 1.885819 1_555
Ge8 O69 1.895173 1_555
Ge8 O71 1.896509 1_555
Ge8 O35 1.911433 1_555
Ge8 O70 2.262491 1_555
O0 S0 1.462953 1_545
O1 S1 1.462208 1_555
O2 S2 1.460786 1_555
O3 Si0 1.644659 1_555
O4 S3 1.457733 1_655
O5 Si1 1.628521 1_545
O6 Si1 1.680576 1_555
O7 Si0 1.689911 1_555
O8 S3 1.529149 1_555
O9 S1 1.520426 1_555
O10 S2 1.531259 1_555
O11 S0 1.536411 1_555
O12 S4 1.453881 1_555
O13 Si2 1.595369 1_555
O14 Si3 1.584593 1_555
O15 Si4 1.582253 1_555
O16 Si5 1.580520 1_555
O17 Si6 1.582369 1_555
O18 Si6 1.670203 1_555
O19 Si4 1.659227 1_555
O20 Si5 1.655895 1_555
O21 Si2 1.676167 1_555
O22 Si3 1.673787 1_555
O23 S4 1.489083 1_555
O24 S5 1.478652 1_555
O25 Si7 1.635607 1_555
O26 Si8 1.627250 1_555
O27 Si9 1.640300 1_555
O28 Si10 1.646395 1_555
O29 Si11 1.644093 1_555
O30 Si11 1.661077 1_555
O31 Si9 1.660650 1_555
O32 Si10 1.655065 1_555
O33 Si7 1.654240 1_555
O34 Si8 1.647575 1_555
O35 S5 1.514948 1_555
O36 Si11 1.608666 1_555
O37 Si9 1.598646 1_555
O38 Si10 1.598226 1_555
O39 Si7 1.677395 1_555
O40 Si8 1.688213 1_555
O41 S5 1.477352 1_555
O42 S4 1.515635 1_555
O43 Si2 1.678096 1_555
O44 Si3 1.676293 1_555
O45 Si4 1.687599 1_555
O46 Si5 1.678170 1_555
O47 Si6 1.696849 1_555
O48 Si1 1.617824 1_545
O49 Si0 1.590722 1_555
O50 S3 1.456550 1_655
O51 S1 1.464714 1_555
O52 S2 1.459958 1_655
O53 S0 1.465351 1_545
O54 S5 1.470413 1_555
O55 Si7 1.628905 1_655
O56 Si8 1.664088 1_545
O57 Si9 1.647421 1_545
O58 Si10 1.651325 1_555
O59 Si11 1.653073 1_655
O60 Si6 1.652818 1_555
O61 Si4 1.658470 1_455
O62 Si5 1.649059 1_565
O63 Si2 1.670965 1_565
O64 Si3 1.668958 1_555
O65 S4 1.492104 1_455
O66 S0 1.513681 1_555
O67 S1 1.529272 1_555
O68 S2 1.529236 1_555
O69 Si0 1.663396 1_555
O70 S3 1.505285 1_555
O71 Si1 1.663278 1_555
