# generated using pymatgen
data_Na12Ca10Nb2Si3(S5O24)3
_symmetry_space_group_name_H-M   'P 1'
_cell_length_a   9.25251021
_cell_length_b   9.27946055
_cell_length_c   23.60954346
_cell_angle_alpha   90.13172079
_cell_angle_beta   89.89447059
_cell_angle_gamma   119.84398493
_symmetry_Int_Tables_number   1
_chemical_formula_structural   Na12Ca10Nb2Si3(S5O24)3
_chemical_formula_sum   'Na12 Ca10 Nb2 Si3 S15 O72'
_cell_volume   1758.24685984
_cell_formula_units_Z   1
loop_
 _symmetry_equiv_pos_site_id
 _symmetry_equiv_pos_as_xyz
  1  'x, y, z'
loop_
 _atom_site_type_symbol
 _atom_site_label
 _atom_site_symmetry_multiplicity
 _atom_site_fract_x
 _atom_site_fract_y
 _atom_site_fract_z
 _atom_site_occupancy
  Na  Na0  1  0.30427933  0.33743380  0.57553129  1
  Na  Na1  1  0.66938601  0.97027011  0.59627222  1
  Na  Na2  1  0.30050573  0.96993366  0.09530259  1
  Na  Na3  1  0.02756194  0.33219987  0.08349032  1
  Na  Na4  1  0.33117761  0.05000075  0.40251296  1
  Na  Na5  1  0.68931896  0.65471680  0.41324255  1
  Na  Na6  1  0.02005913  0.02666596  0.49507845  1
  Na  Na7  1  0.98366000  0.98638582  0.99553507  1
  Na  Na8  1  0.67208674  0.31127275  0.82676812  1
  Na  Na9  1  0.63896258  0.31475039  0.32620085  1
  Na  Na10  1  0.34443153  0.68259709  0.16987853  1
  Na  Na11  1  0.32784197  0.67415690  0.66859579  1
  Ca  Ca0  1  0.01196927  0.01655779  0.34644918  1
  Ca  Ca1  1  0.99567485  0.00545023  0.84833633  1
  Ca  Ca2  1  0.98698187  0.98889044  0.66136556  1
  Ca  Ca3  1  0.00560714  0.98717039  0.16036406  1
  Ca  Ca4  1  0.66978843  0.33296316  0.68790131  1
  Ca  Ca5  1  0.65639719  0.32908884  0.18740948  1
  Ca  Ca6  1  0.66569799  0.33605903  0.97654453  1
  Ca  Ca7  1  0.66983650  0.33553458  0.47975101  1
  Ca  Ca8  1  0.33986857  0.66744689  0.01492809  1
  Ca  Ca9  1  0.32090605  0.65772580  0.51610294  1
  Nb  Nb0  1  0.32807642  0.65601308  0.31502981  1
  Nb  Nb1  1  0.34194654  0.67360724  0.81466846  1
  Si  Si0  1  0.31203230  0.99738752  0.25304929  1
  Si  Si1  1  0.69718155  0.00639819  0.74948056  1
  Si  Si2  1  0.33302883  0.36655039  0.41988676  1
  S  S0  1  0.68899521  0.69740864  0.25587151  1
  S  S1  1  0.00763469  0.31348553  0.25006130  1
  S  S2  1  0.30236729  0.31342584  0.75230580  1
  S  S3  1  0.01030722  0.69804905  0.75484251  1
  S  S4  1  0.96770783  0.32944818  0.58441681  1
  S  S5  1  0.36770707  0.03791236  0.58195447  1
  S  S6  1  0.66981333  0.63852015  0.58170312  1
  S  S7  1  0.96630746  0.63232341  0.08233333  1
  S  S8  1  0.67031162  0.03937148  0.08234533  1
  S  S9  1  0.36072911  0.32948702  0.08244525  1
  S  S10  1  0.62477695  0.66480228  0.91350780  1
  S  S11  1  0.04287463  0.37564990  0.91650947  1
  S  S12  1  0.33273101  0.95584416  0.91530495  1
  S  S13  1  0.61865967  0.95001892  0.41533976  1
  S  S14  1  0.03950958  0.66628632  0.41272753  1
  O  O0  1  0.21751841  0.00991897  0.30864772  1
  O  O1  1  0.78131110  0.77632180  0.30787830  1
  O  O2  1  0.98435666  0.20780588  0.29843448  1
  O  O3  1  0.21884198  0.20416970  0.80008617  1
  O  O4  1  0.99389960  0.78419161  0.80408211  1
  O  O5  1  0.81050634  0.01244653  0.80081480  1
  O  O6  1  0.74194357  0.95737226  0.68822850  1
  O  O7  1  0.20832064  0.25222166  0.69861354  1
  O  O8  1  0.05024786  0.79655956  0.70229249  1
  O  O9  1  0.76033407  0.80192665  0.20515937  1
  O  O10  1  0.03857100  0.24832664  0.19660738  1
  O  O11  1  0.21198289  0.95541966  0.19245632  1
  O  O12  1  0.88189137  0.34144827  0.63499132  1
  O  O13  1  0.47468402  0.12768287  0.63077822  1
  O  O14  1  0.65342781  0.53302730  0.63045669  1
  O  O15  1  0.88466605  0.53428123  0.13324022  1
  O  O16  1  0.65068916  0.12127096  0.13317920  1
  O  O17  1  0.45838999  0.34802858  0.13404390  1
  O  O18  1  0.44489285  0.31341130  0.03153378  1
  O  O19  1  0.87083550  0.54836945  0.03054694  1
  O  O20  1  0.68893119  0.13971811  0.03095157  1
  O  O21  1  0.44490171  0.13019089  0.52823843  1
  O  O22  1  0.68091594  0.56036278  0.52779035  1
  O  O23  1  0.87174488  0.31497743  0.53229891  1
  O  O24  1  0.54822523  0.67933609  0.96625409  1
  O  O25  1  0.12522089  0.45043051  0.97128755  1
  O  O26  1  0.32164356  0.87060159  0.96913925  1
  O  O27  1  0.54554773  0.86266588  0.46890168  1
  O  O28  1  0.32867940  0.45092537  0.47920283  1
  O  O29  1  0.13952451  0.69478881  0.46419308  1
  O  O30  1  0.13686009  0.65713862  0.36243897  1
  O  O31  1  0.50559622  0.85311054  0.36613528  1
  O  O32  1  0.33555141  0.49679541  0.36628130  1
  O  O33  1  0.14786887  0.48548835  0.86833758  1
  O  O34  1  0.33896134  0.84780722  0.86656889  1
  O  O35  1  0.51297213  0.65874917  0.86411991  1
  O  O36  1  0.01034002  0.80911552  0.40704847  1
  O  O37  1  0.78176170  0.95939550  0.40831982  1
  O  O38  1  0.17550261  0.17863254  0.41632562  1
  O  O39  1  0.02848845  0.21002241  0.91269236  1
  O  O40  1  0.18400904  0.97199548  0.90888442  1
  O  O41  1  0.79124373  0.81115393  0.90862160  1
  O  O42  1  0.98593264  0.17615139  0.58655663  1
  O  O43  1  0.20114854  0.02591057  0.58698869  1
  O  O44  1  0.81846897  0.80861481  0.58519251  1
  O  O45  1  0.99138619  0.80471398  0.08449291  1
  O  O46  1  0.82377632  0.02444933  0.08676142  1
  O  O47  1  0.19098971  0.17417729  0.08587471  1
  O  O48  1  0.65160344  0.15224095  0.74996620  1
  O  O49  1  0.47525045  0.35015465  0.74761755  1
  O  O50  1  0.86601743  0.53144531  0.74907435  1
  O  O51  1  0.66735450  0.53093548  0.24914947  1
  O  O52  1  0.87238336  0.35102621  0.24574167  1
  O  O53  1  0.50114897  0.15040886  0.25093525  1
  O  O54  1  0.62798573  0.50805323  0.91044480  1
  O  O55  1  0.87739630  0.36426877  0.91318654  1
  O  O56  1  0.48873503  0.11709604  0.91177105  1
  O  O57  1  0.63008643  0.11506508  0.41429673  1
  O  O58  1  0.51054071  0.36634005  0.41039508  1
  O  O59  1  0.87749488  0.51088516  0.41373731  1
  O  O60  1  0.33156786  0.47422417  0.07932291  1
  O  O61  1  0.13830239  0.64891155  0.07986509  1
  O  O62  1  0.51561512  0.87213518  0.07876583  1
  O  O63  1  0.35479905  0.87065689  0.58032151  1
  O  O64  1  0.51583466  0.65686948  0.58152472  1
  O  O65  1  0.13949705  0.47742703  0.58334911  1
  O  O66  1  0.32448365  0.81881209  0.26733576  1
  O  O67  1  0.51355905  0.67758040  0.26174837  1
  O  O68  1  0.16901412  0.48279695  0.25945494  1
  O  O69  1  0.31096145  0.48315309  0.76351052  1
  O  O70  1  0.16402658  0.67537741  0.76469695  1
  O  O71  1  0.50147422  0.82462077  0.76713902  1
loop_
_geom_bond_atom_site_label_1
_geom_bond_atom_site_label_2
_geom_bond_distance
_geom_bond_site_symmetry_2
Na0 O65 2.452613 1_555
Na0 O28 2.470803 1_555
Na0 O42 2.568094 1_455
Na0 O43 2.568557 1_555
Na0 O64 2.619590 1_555
Na1 O6 2.294558 1_555
Na1 O44 2.505526 1_555
Na1 O64 2.546013 1_555
Na1 O42 2.590588 1_565
Na1 O63 2.606364 1_555
Na1 O13 2.941228 1_565
Na2 O11 2.415578 1_555
Na2 O45 2.496520 1_455
Na2 O47 2.565648 1_565
Na2 O62 2.594328 1_555
Na2 O61 2.608933 1_555
Na3 O60 2.443061 1_555
Na3 O46 2.521472 1_455
Na3 O47 2.578262 1_555
Na3 O61 2.588080 1_555
Na3 O10 2.799628 1_555
Na3 O25 2.838225 1_554
Na4 O38 2.305097 1_555
Na4 O0 2.402277 1_555
Na4 O57 2.535928 1_555
Na4 O58 2.560417 1_555
Na4 O36 2.686254 1_545
Na5 O58 2.344271 1_555
Na5 O37 2.516503 1_555
Na5 O36 2.580770 1_655
Na5 O59 2.669443 1_555
Na5 O1 2.689824 1_555
Na5 O22 2.833531 1_555
Na6 O38 2.344738 1_555
Na6 O42 2.666096 1_455
Na6 O43 2.746148 1_555
Na6 O37 2.843871 1_445
Na6 O36 2.864208 1_545
Na6 O44 2.889387 1_445
Na7 O41 2.672294 1_555
Na7 O45 2.719362 1_556
Na7 O46 2.730728 1_566
Na7 O39 2.731858 1_665
Na7 O40 2.805445 1_655
Na7 O47 2.817211 1_666
Na8 O48 2.283024 1_555
Na8 O55 2.663295 1_555
Na8 O56 2.667203 1_555
Na8 O50 2.667393 1_555
Na8 O49 2.758400 1_555
Na8 O54 2.850567 1_555
Na9 O53 2.273708 1_555
Na9 O58 2.478997 1_555
Na9 O51 2.625488 1_555
Na9 O57 2.762586 1_555
Na9 O52 2.765951 1_555
Na9 O59 2.907972 1_555
Na10 O66 2.672687 1_555
Na10 O67 2.690909 1_555
Na10 O62 2.731610 1_555
Na10 O68 2.748593 1_555
Na10 O61 2.769489 1_555
Na10 O60 2.841963 1_555
Na11 O65 2.692569 1_555
Na11 O63 2.700647 1_555
Na11 O70 2.729416 1_555
Na11 O64 2.745947 1_555
Na11 O71 2.776620 1_555
Na11 O69 2.815829 1_555
Ca0 O0 2.127775 1_555
Ca0 O2 2.227420 1_455
Ca0 O38 2.237394 1_555
Ca0 O1 2.369853 1_445
Ca0 O36 2.395065 1_545
Ca0 O37 2.412388 1_445
Ca1 O5 2.077604 1_555
Ca1 O3 2.274434 1_655
Ca1 O4 2.294347 1_545
Ca1 O39 2.327925 1_655
Ca1 O41 2.337078 1_545
Ca1 O40 2.392914 1_645
Ca2 O6 2.227925 1_555
Ca2 O8 2.347633 1_655
Ca2 O44 2.421629 1_555
Ca2 O7 2.440193 1_665
Ca2 O42 2.483963 1_565
Ca2 O43 2.537846 1_665
Ca3 O11 2.207567 1_555
Ca3 O9 2.310933 1_455
Ca3 O45 2.420286 1_455
Ca3 O10 2.440046 1_565
Ca3 O47 2.467139 1_565
Ca3 O46 2.561751 1_465
Ca4 O48 2.171954 1_555
Ca4 O12 2.292516 1_555
Ca4 O13 2.298021 1_555
Ca4 O50 2.333198 1_555
Ca4 O49 2.351270 1_555
Ca4 O14 2.366619 1_555
Ca5 O53 2.166791 1_555
Ca5 O16 2.290959 1_555
Ca5 O17 2.303210 1_555
Ca5 O51 2.332865 1_555
Ca5 O52 2.352813 1_555
Ca5 O15 2.391782 1_555
Ca6 O19 2.320590 1_556
Ca6 O20 2.327500 1_556
Ca6 O18 2.338309 1_556
Ca6 O55 2.371382 1_555
Ca6 O54 2.381631 1_555
Ca6 O56 2.414915 1_555
Ca7 O21 2.308040 1_555
Ca7 O58 2.316401 1_555
Ca7 O22 2.329412 1_555
Ca7 O23 2.330212 1_555
Ca7 O59 2.378527 1_555
Ca7 O57 2.438747 1_555
Ca8 O24 2.197727 1_554
Ca8 O26 2.253307 1_554
Ca8 O25 2.253595 1_554
Ca8 O60 2.325342 1_555
Ca8 O62 2.333523 1_555
Ca8 O61 2.351531 1_555
Ca9 O28 2.139194 1_555
Ca9 O29 2.240703 1_555
Ca9 O27 2.290361 1_555
Ca9 O65 2.311830 1_555
Ca9 O64 2.379761 1_555
Ca9 O63 2.381704 1_555
Nb0 O66 1.899783 1_555
Nb0 O32 1.939599 1_555
Nb0 O68 2.028339 1_555
Nb0 O67 2.054052 1_555
Nb0 O30 2.096230 1_555
Nb0 O31 2.122733 1_555
Nb1 O71 1.828685 1_555
Nb1 O35 2.027525 1_555
Nb1 O70 2.033804 1_555
Nb1 O34 2.037266 1_555
Nb1 O69 2.037543 1_555
Nb1 O33 2.181582 1_555
O0 Si0 1.611706 1_545
O1 S0 1.466506 1_555
O2 S1 1.451348 1_655
O3 S2 1.455987 1_555
O4 S3 1.459225 1_655
O5 Si1 1.586591 1_555
O6 Si1 1.628524 1_565
O7 S2 1.481744 1_555
O8 S3 1.476072 1_555
O9 S0 1.474826 1_555
O10 S1 1.485812 1_555
O11 Si0 1.642756 1_555
O12 S4 1.467138 1_555
O13 S5 1.476998 1_555
O14 S6 1.470716 1_555
O15 S7 1.469876 1_555
O16 S8 1.477587 1_555
O17 S9 1.475983 1_555
O18 S9 1.478109 1_555
O19 S7 1.482155 1_555
O20 S8 1.487886 1_555
O21 S5 1.498227 1_555
O22 S6 1.492026 1_555
O23 S4 1.484950 1_555
O24 S10 1.470284 1_555
O25 S11 1.485906 1_555
O26 S12 1.474802 1_555
O27 S13 1.472963 1_555
O28 Si2 1.613053 1_555
O29 S14 1.470299 1_555
O30 S14 1.516537 1_555
O31 S13 1.521825 1_555
O32 Si2 1.744093 1_555
O33 S11 1.513888 1_555
O34 S12 1.544122 1_555
O35 S10 1.542472 1_555
O36 S14 1.484728 1_555
O37 S13 1.476784 1_555
O38 Si2 1.625536 1_555
O39 S11 1.477768 1_555
O40 S12 1.464614 1_555
O41 S10 1.465665 1_555
O42 S4 1.514472 1_555
O43 S5 1.493331 1_555
O44 S6 1.492988 1_555
O45 S7 1.498560 1_555
O46 S8 1.497517 1_555
O47 S9 1.515732 1_555
O48 Si1 1.605442 1_555
O49 S2 1.464259 1_555
O50 S3 1.461662 1_655
O51 S0 1.463819 1_555
O52 S1 1.460242 1_655
O53 Si0 1.614827 1_545
O54 S10 1.471158 1_555
O55 S11 1.483581 1_655
O56 S12 1.476459 1_545
O57 S13 1.482026 1_545
O58 Si2 1.658202 1_555
O59 S14 1.475034 1_655
O60 S9 1.497767 1_555
O61 S7 1.521674 1_455
O62 S8 1.501075 1_565
O63 S5 1.496608 1_565
O64 S6 1.516646 1_555
O65 S4 1.496784 1_455
O66 Si0 1.750910 1_555
O67 S0 1.545961 1_555
O68 S1 1.553027 1_555
O69 S2 1.558965 1_555
O70 S3 1.555813 1_555
O71 Si1 1.805126 1_565
