# generated using pymatgen
data_Li3Mn(BO3)2
_symmetry_space_group_name_H-M   'P 1'
_cell_length_a   7.85585829
_cell_length_b   6.03952000
_cell_length_c   10.55193512
_cell_angle_alpha   68.95371452
_cell_angle_beta   90.00000000
_cell_angle_gamma   90.00000000
_symmetry_Int_Tables_number   1
_chemical_formula_structural   Li3Mn(BO3)2
_chemical_formula_sum   'Li12 Mn4 B8 O24'
_cell_volume   467.24544694
_cell_formula_units_Z   4
loop_
 _symmetry_equiv_pos_site_id
 _symmetry_equiv_pos_as_xyz
  1  'x, y, z'
loop_
 _atom_site_type_symbol
 _atom_site_label
 _atom_site_symmetry_multiplicity
 _atom_site_fract_x
 _atom_site_fract_y
 _atom_site_fract_z
 _atom_site_occupancy
  Li  Li0  1  0.19619644  0.75634310  0.64827796  1
  Li  Li1  1  0.71681166  0.70035684  0.82821544  1
  Li  Li2  1  0.03595756  0.40662100  0.91025555  1
  Li  Li3  1  0.53595756  0.59337900  0.58974445  1
  Li  Li4  1  0.21681166  0.29964316  0.67178456  1
  Li  Li5  1  0.69619644  0.24365690  0.85172204  1
  Li  Li6  1  0.30380356  0.75634310  0.14827796  1
  Li  Li7  1  0.78318834  0.70035684  0.32821544  1
  Li  Li8  1  0.46404244  0.40662100  0.41025555  1
  Li  Li9  1  0.96404244  0.59337900  0.08974445  1
  Li  Li10  1  0.28318834  0.29964316  0.17178456  1
  Li  Li11  1  0.80380356  0.24365690  0.35172204  1
  Mn  Mn0  1  0.06986945  0.91861282  0.38120934  1
  Mn  Mn1  1  0.56986945  0.08138718  0.11879066  1
  Mn  Mn2  1  0.43013055  0.91861282  0.88120934  1
  Mn  Mn3  1  0.93013055  0.08138718  0.61879066  1
  B  B0  1  0.37737936  0.43735568  0.85847535  1
  B  B1  1  0.91055480  0.16059271  0.13264848  1
  B  B2  1  0.41055480  0.83940729  0.36735152  1
  B  B3  1  0.87737936  0.56264432  0.64152465  1
  B  B4  1  0.12262064  0.43735568  0.35847535  1
  B  B5  1  0.58944520  0.16059271  0.63264848  1
  B  B6  1  0.08944520  0.83940729  0.86735152  1
  B  B7  1  0.62262064  0.56264432  0.14152465  1
  O  O0  1  0.47108065  0.62837049  0.86070510  1
  O  O1  1  0.95307332  0.78760052  0.58165152  1
  O  O2  1  0.72655155  0.53644982  0.70549621  1
  O  O3  1  0.05876266  0.28066993  0.10239756  1
  O  O4  1  0.28921935  0.82498403  0.46657005  1
  O  O5  1  0.86735215  0.02130657  0.26642485  1
  O  O6  1  0.36735215  0.97869343  0.23357515  1
  O  O7  1  0.78921935  0.17501597  0.03342995  1
  O  O8  1  0.22655155  0.46355018  0.79450379  1
  O  O9  1  0.55876266  0.71933007  0.39760244  1
  O  O10  1  0.45307332  0.21239948  0.91834848  1
  O  O11  1  0.97108065  0.37162951  0.63929490  1
  O  O12  1  0.02891935  0.62837049  0.36070510  1
  O  O13  1  0.54692668  0.78760052  0.08165152  1
  O  O14  1  0.44123734  0.28066993  0.60239756  1
  O  O15  1  0.77344845  0.53644982  0.20549621  1
  O  O16  1  0.21078065  0.82498403  0.96657005  1
  O  O17  1  0.63264785  0.02130657  0.76642485  1
  O  O18  1  0.13264785  0.97869343  0.73357515  1
  O  O19  1  0.71078065  0.17501597  0.53342995  1
  O  O20  1  0.94123734  0.71933007  0.89760244  1
  O  O21  1  0.27344845  0.46355018  0.29450379  1
  O  O22  1  0.04692668  0.21239948  0.41834848  1
  O  O23  1  0.52891935  0.37162951  0.13929490  1
loop_
_geom_bond_atom_site_label_1
_geom_bond_atom_site_label_2
_geom_bond_distance
_geom_bond_site_symmetry_2
Li0 O8 1.898654 1_555
Li0 O18 1.931525 1_555
Li0 O4 1.952254 1_555
Li0 O1 2.020507 1_455
Li1 O2 1.892967 1_555
Li1 O17 1.926617 1_565
Li1 O20 1.928167 1_555
Li1 O0 1.981426 1_555
Li2 O8 1.884215 1_555
Li2 O3 1.900960 1_556
Li2 O20 1.989289 1_455
Li3 O2 1.884215 1_555
Li3 O9 1.900960 1_555
Li3 O14 1.989289 1_555
Li4 O8 1.892967 1_555
Li4 O18 1.926617 1_545
Li4 O14 1.928167 1_555
Li4 O11 1.981426 1_455
Li5 O2 1.898654 1_555
Li5 O17 1.931525 1_555
Li5 O7 1.952254 1_556
Li5 O10 2.020507 1_555
Li6 O21 1.898654 1_555
Li6 O6 1.931525 1_555
Li6 O16 1.952254 1_554
Li6 O13 2.020507 1_555
Li7 O15 1.892967 1_555
Li7 O5 1.926617 1_565
Li7 O9 1.928167 1_555
Li7 O12 1.981426 1_655
Li8 O21 1.884215 1_555
Li8 O14 1.900960 1_555
Li8 O9 1.989289 1_555
Li9 O15 1.884215 1_555
Li9 O20 1.900960 1_554
Li9 O3 1.989289 1_655
Li10 O21 1.892967 1_555
Li10 O6 1.926617 1_545
Li10 O3 1.928167 1_555
Li10 O23 1.981426 1_555
Li11 O15 1.898654 1_555
Li11 O5 1.931525 1_555
Li11 O19 1.952254 1_555
Li11 O22 2.020507 1_655
Mn0 O12 1.869612 1_555
Mn0 O4 1.932508 1_555
Mn0 O22 1.957993 1_565
Mn0 O5 1.960417 1_465
Mn0 O1 2.177013 1_455
Mn1 O23 1.869612 1_555
Mn1 O7 1.932508 1_555
Mn1 O13 1.957993 1_545
Mn1 O6 1.960417 1_545
Mn1 O10 2.177013 1_554
Mn2 O0 1.869612 1_555
Mn2 O16 1.932508 1_555
Mn2 O10 1.957993 1_565
Mn2 O17 1.960417 1_565
Mn2 O13 2.177013 1_556
Mn3 O11 1.869612 1_555
Mn3 O19 1.932508 1_555
Mn3 O1 1.957993 1_545
Mn3 O18 1.960417 1_645
Mn3 O22 2.177013 1_655
B0 O8 1.344592 1_555
B0 O0 1.375783 1_555
B0 O10 1.407872 1_555
B1 O3 1.348016 1_655
B1 O7 1.395264 1_555
B1 O5 1.400915 1_555
B2 O9 1.348016 1_555
B2 O4 1.395264 1_555
B2 O6 1.400915 1_555
B3 O2 1.344592 1_555
B3 O11 1.375783 1_555
B3 O1 1.407872 1_555
B4 O21 1.344592 1_555
B4 O12 1.375783 1_555
B4 O22 1.407872 1_555
B5 O14 1.348016 1_555
B5 O19 1.395264 1_555
B5 O17 1.400915 1_555
B6 O20 1.348016 1_455
B6 O16 1.395264 1_555
B6 O18 1.400915 1_555
B7 O15 1.344592 1_555
B7 O23 1.375783 1_555
B7 O13 1.407872 1_555
