# generated using pymatgen
data_Na30Nb4Zn20Si9(S3O16)9
_symmetry_space_group_name_H-M   'P 1'
_cell_length_a   17.90629078
_cell_length_b   9.03431062
_cell_length_c   22.41411933
_cell_angle_alpha   89.93235196
_cell_angle_beta   89.39142045
_cell_angle_gamma   120.27715324
_symmetry_Int_Tables_number   1
_chemical_formula_structural   Na30Nb4Zn20Si9(S3O16)9
_chemical_formula_sum   'Na30 Nb4 Zn20 Si9 S27 O144'
_cell_volume   3131.09574391
_cell_formula_units_Z   1
loop_
 _symmetry_equiv_pos_site_id
 _symmetry_equiv_pos_as_xyz
  1  'x, y, z'
loop_
 _atom_site_type_symbol
 _atom_site_label
 _atom_site_symmetry_multiplicity
 _atom_site_fract_x
 _atom_site_fract_y
 _atom_site_fract_z
 _atom_site_occupancy
  Na  Na0  1  0.81156326  0.00463762  0.24283643  1
  Na  Na1  1  0.00225896  0.63073607  0.24465060  1
  Na  Na2  1  0.50101737  0.62837278  0.24371154  1
  Na  Na3  1  0.00100073  0.37411102  0.74265308  1
  Na  Na4  1  0.50100678  0.37429322  0.74348338  1
  Na  Na5  1  0.18383145  0.00865969  0.75253703  1
  Na  Na6  1  0.65616993  0.34978899  0.58116540  1
  Na  Na7  1  0.65876987  0.95918818  0.08407976  1
  Na  Na8  1  0.83117457  0.68999679  0.07638802  1
  Na  Na9  1  0.01233581  0.33832257  0.08142610  1
  Na  Na10  1  0.48022115  0.66138067  0.92281621  1
  Na  Na11  1  0.84898593  0.03474019  0.92262903  1
  Na  Na12  1  0.16613106  0.29650749  0.91234134  1
  Na  Na13  1  0.66608116  0.29861000  0.91100641  1
  Na  Na14  1  0.47991239  0.29797214  0.42205810  1
  Na  Na15  1  0.98333138  0.30185423  0.42390516  1
  Na  Na16  1  0.16633735  0.03520312  0.41184465  1
  Na  Na17  1  0.66521180  0.03457677  0.41139249  1
  Na  Na18  1  0.99215229  0.98941411  0.49733766  1
  Na  Na19  1  0.48320135  0.97321178  0.49612419  1
  Na  Na20  1  0.00077883  0.97765938  0.99504152  1
  Na  Na21  1  0.48333929  0.99385284  0.99674564  1
  Na  Na22  1  0.32834892  0.33429884  0.83074927  1
  Na  Na23  1  0.82744739  0.34316588  0.82717071  1
  Na  Na24  1  0.32032370  0.32203686  0.32725601  1
  Na  Na25  1  0.82285499  0.33739638  0.32982252  1
  Na  Na26  1  0.17290123  0.69017612  0.16553062  1
  Na  Na27  1  0.65963127  0.66047054  0.16297232  1
  Na  Na28  1  0.16518303  0.64604940  0.66078079  1
  Na  Na29  1  0.66743200  0.67001467  0.66620666  1
  Nb  Nb0  1  0.00425172  0.02021844  0.64599599  1
  Nb  Nb1  1  0.50134948  0.01029381  0.64704771  1
  Nb  Nb2  1  0.00716078  0.99539484  0.14601410  1
  Nb  Nb3  1  0.49866084  0.98713193  0.14858778  1
  Zn  Zn0  1  0.00743784  0.00238538  0.34579508  1
  Zn  Zn1  1  0.50110905  0.00109284  0.34518936  1
  Zn  Zn2  1  0.00627342  0.99852222  0.84546950  1
  Zn  Zn3  1  0.50450421  0.00658310  0.84385968  1
  Zn  Zn4  1  0.33367986  0.34810087  0.67930210  1
  Zn  Zn5  1  0.83157405  0.33709485  0.68198457  1
  Zn  Zn6  1  0.33036855  0.32042145  0.18202591  1
  Zn  Zn7  1  0.82995656  0.31735896  0.17845558  1
  Zn  Zn8  1  0.33880085  0.33245315  0.99210286  1
  Zn  Zn9  1  0.84957211  0.34641384  0.99376776  1
  Zn  Zn10  1  0.33787391  0.34117061  0.49259202  1
  Zn  Zn11  1  0.84230661  0.34550907  0.49165233  1
  Zn  Zn12  1  0.16635343  0.68367612  0.01770449  1
  Zn  Zn13  1  0.66051540  0.66806169  0.02116528  1
  Zn  Zn14  1  0.16091353  0.65114237  0.51975930  1
  Zn  Zn15  1  0.66046620  0.66074638  0.51820925  1
  Zn  Zn16  1  0.17112621  0.68572582  0.31359852  1
  Zn  Zn17  1  0.66562992  0.67176484  0.31456422  1
  Zn  Zn18  1  0.16924006  0.65378198  0.81486836  1
  Zn  Zn19  1  0.67004022  0.65256889  0.81113564  1
  Si  Si0  1  0.15616568  0.00660102  0.25454396  1
  Si  Si1  1  0.65182414  0.00731521  0.25470310  1
  Si  Si2  1  0.15462382  0.30467209  0.75322079  1
  Si  Si3  1  0.65459528  0.30144879  0.75312398  1
  Si  Si4  1  0.48009777  0.34536620  0.58411673  1
  Si  Si5  1  0.98024965  0.34843811  0.58424831  1
  Si  Si6  1  0.47615945  0.61160554  0.08462338  1
  Si  Si7  1  0.98137554  0.61985664  0.08598642  1
  Si  Si8  1  0.83284064  0.03157736  0.08257529  1
  S  S0  1  0.35140257  0.70612954  0.25301315  1
  S  S1  1  0.85359540  0.70862630  0.25141110  1
  S  S2  1  0.00241116  0.29281440  0.25258761  1
  S  S3  1  0.50078773  0.29232709  0.25261824  1
  S  S4  1  0.99948637  0.70948982  0.75127916  1
  S  S5  1  0.50011736  0.70911910  0.75266313  1
  S  S6  1  0.35257154  0.99558758  0.75195920  1
  S  S7  1  0.85339861  0.99650223  0.75291537  1
  S  S8  1  0.18572664  0.03507359  0.58339315  1
  S  S9  1  0.68631692  0.03607325  0.58227938  1
  S  S10  1  0.33302678  0.63111464  0.58342709  1
  S  S11  1  0.83487761  0.63317778  0.58301824  1
  S  S12  1  0.33330524  0.03607562  0.08371470  1
  S  S13  1  0.18918614  0.33919175  0.08222177  1
  S  S14  1  0.68364119  0.32973457  0.08231704  1
  S  S15  1  0.31348343  0.66926743  0.91668259  1
  S  S16  1  0.81435897  0.66610136  0.91653357  1
  S  S17  1  0.01783239  0.37130624  0.91594943  1
  S  S18  1  0.51860364  0.37168915  0.91635003  1
  S  S19  1  0.16818090  0.96401089  0.91518591  1
  S  S20  1  0.66587180  0.95920583  0.91545082  1
  S  S21  1  0.31318036  0.95752824  0.41718972  1
  S  S22  1  0.81332201  0.95792264  0.41557533  1
  S  S23  1  0.16846963  0.37663278  0.41613492  1
  S  S24  1  0.66832402  0.37508592  0.41738647  1
  S  S25  1  0.01768283  0.66552541  0.41606393  1
  S  S26  1  0.51722206  0.66530028  0.41632537  1
  O  O0  1  0.11315311  0.02781841  0.31528588  1
  O  O1  1  0.60661336  0.02359096  0.31471855  1
  O  O2  1  0.40505765  0.79259388  0.30496916  1
  O  O3  1  0.90728120  0.79456021  0.30355464  1
  O  O4  1  0.48959007  0.19532425  0.30862109  1
  O  O5  1  0.98752385  0.18494870  0.30647423  1
  O  O6  1  0.11231298  0.18508452  0.81213495  1
  O  O7  1  0.61060000  0.19363935  0.81370946  1
  O  O8  1  0.48817394  0.78346289  0.80848874  1
  O  O9  1  0.98587473  0.78397998  0.80583256  1
  O  O10  1  0.40493683  0.01614121  0.80467804  1
  O  O11  1  0.90452418  0.01681199  0.80728875  1
  O  O12  1  0.39692043  0.97432583  0.69663104  1
  O  O13  1  0.90035815  0.97600910  0.69857938  1
  O  O14  1  0.08430049  0.18757603  0.69638656  1
  O  O15  1  0.58368672  0.18287991  0.69549735  1
  O  O16  1  0.00836734  0.81833661  0.69754935  1
  O  O17  1  0.50516175  0.81726950  0.69944329  1
  O  O18  1  0.39789696  0.81997433  0.19715215  1
  O  O19  1  0.89680630  0.81979974  0.19502844  1
  O  O20  1  0.00777692  0.20180572  0.19731261  1
  O  O21  1  0.50658454  0.19484502  0.19949870  1
  O  O22  1  0.08485806  0.98505858  0.19853663  1
  O  O23  1  0.58386383  0.98226534  0.19605176  1
  O  O24  1  0.43630953  0.35777073  0.64551487  1
  O  O25  1  0.93430781  0.35617030  0.64533852  1
  O  O26  1  0.23402795  0.11644347  0.63783184  1
  O  O27  1  0.73602116  0.11909846  0.63516197  1
  O  O28  1  0.31832681  0.52766158  0.63744474  1
  O  O29  1  0.81682649  0.52158290  0.63554480  1
  O  O30  1  0.43287992  0.51205742  0.14583030  1
  O  O31  1  0.93914641  0.51351552  0.14709404  1
  O  O32  1  0.31909779  0.11125548  0.13690400  1
  O  O33  1  0.80952369  0.10559167  0.14083957  1
  O  O34  1  0.23901868  0.35688046  0.13443840  1
  O  O35  1  0.73711219  0.35744400  0.13495756  1
  O  O36  1  0.22027607  0.30025156  0.02608515  1
  O  O37  1  0.71708107  0.28953663  0.02739482  1
  O  O38  1  0.42471418  0.55360571  0.02247843  1
  O  O39  1  0.91598004  0.56352420  0.03016092  1
  O  O40  1  0.34989876  0.13806509  0.02831930  1
  O  O41  1  0.85614410  0.14924604  0.02236733  1
  O  O42  1  0.21978023  0.14243247  0.52871695  1
  O  O43  1  0.71850441  0.14446588  0.52721880  1
  O  O44  1  0.35040322  0.56043617  0.52911901  1
  O  O45  1  0.84984386  0.56077004  0.52795272  1
  O  O46  1  0.42770316  0.30163093  0.52245912  1
  O  O47  1  0.92694761  0.29730077  0.52246037  1
  O  O48  1  0.27190918  0.68769916  0.97117091  1
  O  O49  1  0.77515734  0.69119525  0.97209641  1
  O  O50  1  0.07050427  0.45187519  0.96980886  1
  O  O51  1  0.57519864  0.45769992  0.96806229  1
  O  O52  1  0.15869168  0.85975583  0.96830073  1
  O  O53  1  0.65584027  0.86225649  0.97185535  1
  O  O54  1  0.27243422  0.85533648  0.47153465  1
  O  O55  1  0.77004561  0.85247481  0.46904715  1
  O  O56  1  0.15641871  0.45763604  0.46987805  1
  O  O57  1  0.65815662  0.45418406  0.47309114  1
  O  O58  1  0.07391855  0.69282783  0.46777334  1
  O  O59  1  0.57440521  0.69375895  0.46785314  1
  O  O60  1  0.05598682  0.63853234  0.36014452  1
  O  O61  1  0.55610838  0.63926613  0.36036503  1
  O  O62  1  0.26205289  0.87701459  0.36292945  1
  O  O63  1  0.76341918  0.87858303  0.35992721  1
  O  O64  1  0.17839461  0.47620082  0.36126774  1
  O  O65  1  0.67807620  0.47910047  0.36378746  1
  O  O66  1  0.06006295  0.47119968  0.86077604  1
  O  O67  1  0.55691100  0.47479032  0.86031220  1
  O  O68  1  0.17766764  0.88685953  0.85890455  1
  O  O69  1  0.67745558  0.87235232  0.86329892  1
  O  O70  1  0.26210808  0.64850132  0.86257499  1
  O  O71  1  0.75949658  0.64370448  0.86398651  1
  O  O72  1  0.00876493  0.82169611  0.41272115  1
  O  O73  1  0.50924349  0.82201520  0.41306876  1
  O  O74  1  0.40399395  0.98716921  0.41190913  1
  O  O75  1  0.90351173  0.98719169  0.41144031  1
  O  O76  1  0.08607399  0.20007372  0.41448639  1
  O  O77  1  0.58627105  0.20058747  0.41526962  1
  O  O78  1  0.00819123  0.19455044  0.91327174  1
  O  O79  1  0.51025880  0.19829173  0.91313095  1
  O  O80  1  0.08874905  0.98252243  0.91444127  1
  O  O81  1  0.58458530  0.97118959  0.91302515  1
  O  O82  1  0.40361390  0.82084575  0.91181071  1
  O  O83  1  0.90147075  0.82675280  0.91046121  1
  O  O84  1  0.49094743  0.16076065  0.59386496  1
  O  O85  1  0.98891037  0.16197883  0.59417382  1
  O  O86  1  0.09374359  0.01226923  0.59087111  1
  O  O87  1  0.59469777  0.01616654  0.59014079  1
  O  O88  1  0.41583685  0.80629347  0.59167433  1
  O  O89  1  0.91520860  0.80660361  0.59132338  1
  O  O90  1  0.48915821  0.82045476  0.09415057  1
  O  O91  1  0.99408701  0.81907965  0.09488357  1
  O  O92  1  0.41553289  0.02459696  0.09152655  1
  O  O93  1  0.92406112  0.02369053  0.09405691  1
  O  O94  1  0.09632950  0.17979570  0.09007820  1
  O  O95  1  0.59393140  0.16949812  0.09137260  1
  O  O96  1  0.34661211  0.15260494  0.74612628  1
  O  O97  1  0.84960773  0.15477219  0.74660427  1
  O  O98  1  0.24467049  0.30678000  0.74154338  1
  O  O99  1  0.74680182  0.31737864  0.74140641  1
  O  O100  1  0.42458444  0.53322096  0.74827264  1
  O  O101  1  0.92668261  0.53258877  0.74677115  1
  O  O102  1  0.34847413  0.54233755  0.24600241  1
  O  O103  1  0.84705695  0.54078162  0.24518830  1
  O  O104  1  0.42615249  0.31846839  0.24800446  1
  O  O105  1  0.92501154  0.31352126  0.24915588  1
  O  O106  1  0.24765126  0.17614781  0.24267224  1
  O  O107  1  0.74694891  0.17362283  0.24617891  1
  O  O108  1  0.32021573  0.50894134  0.91911633  1
  O  O109  1  0.82014130  0.50738786  0.92005166  1
  O  O110  1  0.43142214  0.35607068  0.92201006  1
  O  O111  1  0.92931029  0.34915447  0.91851498  1
  O  O112  1  0.24537170  0.14246060  0.91988591  1
  O  O113  1  0.74286689  0.13684880  0.91827199  1
  O  O114  1  0.32034739  0.13189569  0.42004949  1
  O  O115  1  0.81916953  0.13089772  0.41878075  1
  O  O116  1  0.24360339  0.34703559  0.42130180  1
  O  O117  1  0.74372923  0.34661792  0.42098453  1
  O  O118  1  0.43084966  0.50685834  0.42228127  1
  O  O119  1  0.93028909  0.50640930  0.42153454  1
  O  O120  1  0.17339167  0.48369774  0.07630926  1
  O  O121  1  0.67273573  0.47971882  0.07564808  1
  O  O122  1  0.07518122  0.63643909  0.07777431  1
  O  O123  1  0.57694594  0.66494509  0.08107244  1
  O  O124  1  0.26044036  0.85846852  0.07767463  1
  O  O125  1  0.75470659  0.83469013  0.07645532  1
  O  O126  1  0.17439482  0.86416558  0.57710453  1
  O  O127  1  0.67396390  0.86410883  0.57577277  1
  O  O128  1  0.26125102  0.66421979  0.57707473  1
  O  O129  1  0.75922088  0.65798198  0.57679533  1
  O  O130  1  0.07894537  0.50282482  0.58071726  1
  O  O131  1  0.58171924  0.49389444  0.58028031  1
  O  O132  1  0.14992720  0.81955887  0.25090636  1
  O  O133  1  0.65371841  0.82596718  0.25121947  1
  O  O134  1  0.26623414  0.69135381  0.25311158  1
  O  O135  1  0.76816146  0.69766429  0.25360217  1
  O  O136  1  0.08171875  0.46269836  0.25404050  1
  O  O137  1  0.58219716  0.46314625  0.25222215  1
  O  O138  1  0.15028136  0.48002570  0.75179033  1
  O  O139  1  0.64841034  0.47652201  0.74908955  1
  O  O140  1  0.08282757  0.70702022  0.75289705  1
  O  O141  1  0.58083693  0.70050325  0.75225370  1
  O  O142  1  0.26468232  0.84386585  0.75331530  1
  O  O143  1  0.76714790  0.84155910  0.75357615  1
loop_
_geom_bond_atom_site_label_1
_geom_bond_atom_site_label_2
_geom_bond_distance
_geom_bond_site_symmetry_2
Na0 O107 2.335495 1_555
Na0 O133 2.452955 1_545
Na0 O33 2.467829 1_555
Na0 O135 2.484846 1_545
Na0 O105 2.494948 1_555
Na0 O63 2.807656 1_545
Na1 O132 2.319798 1_555
Na1 O31 2.455853 1_455
Na1 O103 2.470993 1_455
Na1 O105 2.477001 1_455
Na1 O136 2.560677 1_555
Na1 O60 2.759870 1_555
Na2 O133 2.404164 1_555
Na2 O104 2.420133 1_555
Na2 O102 2.433896 1_555
Na2 O30 2.485081 1_555
Na2 O137 2.563361 1_555
Na2 O61 2.788710 1_555
Na2 O23 2.956256 1_555
Na3 O138 2.352813 1_555
Na3 O101 2.397554 1_455
Na3 O97 2.420972 1_455
Na3 O25 2.463970 1_455
Na3 O140 2.609671 1_555
Na3 O66 2.833251 1_555
Na3 O14 2.940434 1_555
Na4 O139 2.320492 1_555
Na4 O100 2.433963 1_555
Na4 O24 2.463066 1_555
Na4 O96 2.463906 1_555
Na4 O141 2.554731 1_555
Na4 O67 2.797923 1_555
Na5 O98 2.352770 1_555
Na5 O140 2.393131 1_545
Na5 O96 2.525126 1_555
Na5 O142 2.546895 1_545
Na5 O68 2.602473 1_545
Na5 O26 2.725555 1_555
Na5 O6 2.826985 1_555
Na6 O131 2.285431 1_555
Na6 O129 2.445756 1_555
Na6 O84 2.576152 1_555
Na6 O57 2.591850 1_555
Na6 O87 2.642918 1_555
Na6 O29 2.783339 1_555
Na6 O43 2.865867 1_555
Na6 O15 2.910712 1_555
Na7 O123 2.300616 1_555
Na7 O125 2.487553 1_555
Na7 O90 2.644288 1_555
Na7 O53 2.656802 1_554
Na7 O33 2.670501 1_565
Na7 O95 2.684361 1_565
Na7 O23 2.890172 1_555
Na7 O37 2.903819 1_565
Na8 O125 2.321312 1_555
Na8 O121 2.494884 1_555
Na8 O39 2.530627 1_555
Na8 O49 2.555650 1_554
Na8 O91 2.576448 1_555
Na8 O93 2.640509 1_565
Na8 O35 2.903049 1_555
Na8 O19 2.917506 1_555
Na9 O122 2.338408 1_555
Na9 O93 2.473127 1_455
Na9 O120 2.495663 1_555
Na9 O94 2.555073 1_555
Na9 O50 2.693962 1_554
Na9 O41 2.785483 1_455
Na9 O20 2.856775 1_555
Na9 O31 2.906069 1_455
Na10 O38 2.428541 1_556
Na10 O110 2.437619 1_555
Na10 O82 2.452989 1_555
Na10 O81 2.467777 1_555
Na10 O108 2.477673 1_555
Na10 O8 2.762352 1_555
Na11 O41 2.441739 1_556
Na11 O111 2.454101 1_555
Na11 O78 2.468131 1_655
Na11 O113 2.498510 1_555
Na11 O83 2.502960 1_545
Na11 O11 2.794199 1_555
Na11 O49 2.904011 1_545
Na11 O69 2.983672 1_545
Na12 O112 2.444280 1_555
Na12 O108 2.447239 1_555
Na12 O80 2.450222 1_545
Na12 O6 2.461667 1_555
Na12 O78 2.493796 1_555
Na12 O36 2.731405 1_556
Na13 O7 2.396497 1_555
Na13 O109 2.444348 1_555
Na13 O79 2.460898 1_555
Na13 O113 2.466384 1_555
Na13 O81 2.554800 1_545
Na13 O37 2.787798 1_556
Na13 O71 2.885282 1_555
Na13 O51 2.944182 1_555
Na14 O46 2.434343 1_555
Na14 O74 2.437839 1_545
Na14 O118 2.450483 1_555
Na14 O114 2.469205 1_555
Na14 O77 2.471445 1_555
Na14 O4 2.740992 1_555
Na15 O47 2.410677 1_555
Na15 O76 2.443921 1_655
Na15 O119 2.467961 1_555
Na15 O75 2.472942 1_545
Na15 O115 2.543424 1_555
Na15 O5 2.851567 1_555
Na15 O56 2.884670 1_655
Na15 O60 2.991094 1_655
Na16 O0 2.361261 1_555
Na16 O116 2.443975 1_555
Na16 O114 2.446232 1_555
Na16 O72 2.488541 1_545
Na16 O76 2.538647 1_555
Na16 O42 2.800166 1_555
Na16 O62 2.935238 1_545
Na16 O58 2.943253 1_545
Na17 O1 2.397900 1_555
Na17 O115 2.444520 1_555
Na17 O117 2.445674 1_555
Na17 O73 2.465464 1_545
Na17 O77 2.527936 1_555
Na17 O43 2.782016 1_555
Na17 O59 2.936773 1_545
Na17 O63 2.978085 1_545
Na18 O75 2.501877 1_555
Na18 O72 2.535899 1_655
Na18 O76 2.568433 1_665
Na18 O89 2.588307 1_555
Na18 O85 2.691002 1_565
Na18 O86 2.729526 1_665
Na19 O74 2.413962 1_555
Na19 O73 2.485712 1_555
Na19 O88 2.533594 1_555
Na19 O77 2.647170 1_565
Na19 O84 2.732740 1_565
Na19 O87 2.808437 1_565
Na20 O80 2.369930 1_555
Na20 O83 2.499590 1_455
Na20 O91 2.624608 1_456
Na20 O78 2.634455 1_565
Na20 O93 2.738435 1_466
Na20 O94 2.781335 1_566
Na21 O82 2.433100 1_555
Na21 O79 2.496190 1_565
Na21 O92 2.520158 1_566
Na21 O81 2.674499 1_555
Na21 O90 2.718968 1_556
Na21 O95 2.804754 1_566
Na22 O98 2.448263 1_555
Na22 O100 2.533446 1_555
Na22 O112 2.556397 1_555
Na22 O108 2.581974 1_555
Na22 O96 2.633350 1_555
Na22 O110 2.710060 1_555
Na23 O99 2.357062 1_555
Na23 O101 2.488363 1_555
Na23 O109 2.597996 1_555
Na23 O97 2.643549 1_555
Na23 O113 2.648836 1_555
Na23 O111 2.738940 1_555
Na24 O106 2.313802 1_555
Na24 O102 2.548024 1_555
Na24 O116 2.575694 1_555
Na24 O104 2.595714 1_555
Na24 O114 2.696118 1_555
Na24 O118 2.829683 1_555
Na25 O107 2.363103 1_555
Na25 O117 2.499494 1_555
Na25 O103 2.516740 1_555
Na25 O105 2.643919 1_555
Na25 O115 2.706421 1_555
Na25 O119 2.717975 1_555
Na26 O132 2.381367 1_555
Na26 O124 2.484085 1_555
Na26 O122 2.526912 1_555
Na26 O134 2.588157 1_555
Na26 O136 2.713499 1_555
Na26 O120 2.739340 1_555
Na27 O123 2.383597 1_555
Na27 O133 2.514210 1_555
Na27 O125 2.521276 1_555
Na27 O137 2.557835 1_555
Na27 O121 2.633786 1_555
Na27 O135 2.728213 1_555
Na28 O130 2.308414 1_555
Na28 O138 2.461657 1_555
Na28 O128 2.480361 1_555
Na28 O126 2.661719 1_555
Na28 O140 2.738284 1_555
Na28 O142 2.747093 1_555
Na29 O139 2.449795 1_555
Na29 O131 2.490815 1_555
Na29 O141 2.562885 1_555
Na29 O143 2.591536 1_555
Na29 O129 2.615389 1_555
Na29 O127 2.641390 1_555
Nb0 O85 1.850107 1_455
Nb0 O14 1.862621 1_555
Nb0 O86 2.043013 1_555
Nb0 O13 2.052464 1_445
Nb0 O89 2.170851 1_445
Nb0 O16 2.190778 1_545
Nb1 O15 1.871920 1_555
Nb1 O84 1.886728 1_555
Nb1 O12 2.044426 1_545
Nb1 O87 2.070959 1_555
Nb1 O88 2.117037 1_545
Nb1 O17 2.131142 1_545
Nb2 O22 1.869706 1_555
Nb2 O91 1.881357 1_455
Nb2 O93 2.013807 1_465
Nb2 O94 2.041311 1_565
Nb2 O19 2.101684 1_455
Nb2 O20 2.187276 1_565
Nb3 O90 1.880320 1_555
Nb3 O23 1.887701 1_555
Nb3 O18 1.981868 1_555
Nb3 O95 2.093724 1_565
Nb3 O92 2.124493 1_565
Nb3 O21 2.140965 1_565
O0 Si0 1.615789 1_555
O0 Zn0 1.907171 1_555
O1 Si1 1.607456 1_555
O1 Zn1 1.913602 1_555
O2 S0 1.469207 1_555
O2 Zn1 2.022146 1_565
O3 S1 1.471827 1_555
O3 Zn0 2.069503 1_665
O4 S3 1.482812 1_555
O4 Zn1 2.039279 1_555
O5 S2 1.485921 1_655
O5 Zn0 2.054389 1_655
O6 Si2 1.623264 1_555
O6 Zn2 1.934989 1_545
O7 Si3 1.616719 1_555
O7 Zn3 1.911646 1_555
O8 S5 1.484484 1_555
O8 Zn3 2.047336 1_565
O9 S4 1.472569 1_555
O9 Zn2 1.994133 1_655
O10 S6 1.469175 1_545
O10 Zn3 2.036105 1_555
O11 S7 1.487248 1_545
O11 Zn2 2.101319 1_645
O12 S6 1.529351 1_555
O13 S7 1.536348 1_555
O14 Si2 1.738265 1_555
O15 Si3 1.759146 1_555
O16 S4 1.509331 1_455
O17 S5 1.513847 1_555
O18 S0 1.558853 1_555
O19 S1 1.548276 1_555
O20 S2 1.516494 1_555
O21 S3 1.515256 1_555
O22 Si0 1.740172 1_565
O23 Si1 1.737040 1_565
O24 Si4 1.608503 1_555
O24 Zn4 1.940811 1_555
O25 Si5 1.609599 1_555
O25 Zn5 1.932959 1_555
O26 S8 1.469945 1_555
O26 Zn4 2.168465 1_555
O27 S9 1.452951 1_555
O27 Zn5 2.133723 1_555
O28 S10 1.466708 1_555
O28 Zn4 2.009710 1_555
O29 S11 1.472258 1_555
O29 Zn5 2.092068 1_555
O30 Si6 1.601006 1_555
O30 Zn6 1.945637 1_555
O31 Si7 1.616516 1_555
O31 Zn7 1.982767 1_555
O32 S12 1.455011 1_555
O32 Zn6 2.063671 1_555
O33 Si8 1.612118 1_555
O33 Zn7 1.951789 1_555
O34 S13 1.438894 1_555
O34 Zn6 2.121640 1_555
O35 S14 1.467841 1_555
O35 Zn7 2.118090 1_555
O36 S13 1.483420 1_555
O36 Zn8 2.124067 1_554
O37 S14 1.486789 1_555
O37 Zn9 2.278676 1_554
O38 Si6 1.614202 1_555
O38 Zn8 1.936011 1_554
O39 Si7 1.620994 1_555
O39 Zn9 1.897140 1_554
O40 S12 1.480653 1_555
O40 Zn8 2.033352 1_554
O41 Si8 1.631787 1_555
O41 Zn9 1.951408 1_554
O42 S8 1.483036 1_555
O42 Zn10 2.117224 1_555
O43 S9 1.492356 1_555
O43 Zn11 2.178926 1_555
O44 S10 1.476620 1_555
O44 Zn10 2.050425 1_555
O45 S11 1.481469 1_555
O45 Zn11 2.050274 1_555
O46 Si4 1.612850 1_555
O46 Zn10 1.940298 1_555
O47 Si5 1.620914 1_555
O47 Zn11 1.910686 1_555
O48 S15 1.476374 1_555
O48 Zn12 2.133184 1_556
O49 S16 1.495896 1_555
O49 Zn13 2.232987 1_556
O50 S17 1.486853 1_555
O50 Zn12 2.214465 1_556
O51 S18 1.485698 1_555
O51 Zn13 2.116296 1_556
O52 S19 1.471399 1_555
O52 Zn12 1.998669 1_556
O53 S20 1.493880 1_555
O53 Zn13 2.109981 1_556
O54 S21 1.472301 1_555
O54 Zn14 2.189514 1_555
O55 S22 1.475693 1_555
O55 Zn15 2.141729 1_555
O56 S23 1.479519 1_555
O56 Zn14 2.043853 1_555
O57 S24 1.493717 1_555
O57 Zn15 2.105810 1_555
O58 S25 1.480938 1_555
O58 Zn14 2.134304 1_555
O59 S26 1.486211 1_555
O59 Zn15 2.058464 1_555
O60 S25 1.500666 1_555
O60 Zn16 2.141912 1_555
O61 S26 1.503571 1_555
O61 Zn17 2.088540 1_555
O62 S21 1.483447 1_555
O62 Zn16 2.016316 1_555
O63 S22 1.499316 1_555
O63 Zn17 2.081898 1_555
O64 S23 1.478068 1_555
O64 Zn16 2.233446 1_555
O65 S24 1.477917 1_555
O65 Zn17 2.165280 1_555
O66 S17 1.484911 1_555
O66 Zn18 2.074390 1_555
O67 S18 1.500138 1_555
O67 Zn19 2.136757 1_555
O68 S19 1.490963 1_555
O68 Zn18 2.262434 1_555
O69 S20 1.478604 1_555
O69 Zn19 2.251698 1_555
O70 S15 1.484088 1_555
O70 Zn18 2.007148 1_555
O71 S16 1.489269 1_555
O71 Zn19 2.035929 1_555
O72 S25 1.499642 1_555
O72 Zn0 2.224783 1_565
O73 S26 1.494725 1_555
O73 Zn1 2.278153 1_565
O74 S21 1.512207 1_555
O74 Zn1 2.236067 1_565
O75 S22 1.500923 1_555
O75 Zn0 2.308819 1_665
O76 S23 1.533197 1_555
O76 Zn0 2.249367 1_555
O77 S24 1.520618 1_555
O77 Zn1 2.308086 1_555
O78 S17 1.518503 1_555
O78 Zn2 2.322339 1_545
O79 S18 1.498665 1_555
O79 Zn3 2.291465 1_555
O80 S19 1.513812 1_555
O80 Zn2 2.203428 1_555
O81 S20 1.514544 1_555
O81 Zn3 2.251723 1_565
O82 S15 1.503064 1_555
O82 Zn3 2.297355 1_565
O83 S16 1.506751 1_555
O83 Zn2 2.247660 1_655
O84 Si4 1.787107 1_555
O85 Si5 1.781702 1_555
O86 S8 1.560537 1_555
O87 S9 1.565599 1_555
O88 S10 1.541996 1_555
O89 S11 1.514053 1_555
O90 Si6 1.794153 1_555
O91 Si7 1.708720 1_555
O92 S12 1.539075 1_555
O93 Si8 1.692812 1_555
O94 S13 1.564646 1_555
O95 S14 1.537772 1_555
O96 S6 1.480961 1_545
O96 Zn4 2.414526 1_555
O97 S7 1.471977 1_545
O97 Zn5 2.335787 1_555
O98 Si2 1.621348 1_555
O98 Zn4 1.994361 1_555
O99 Si3 1.602137 1_555
O99 Zn5 1.947740 1_555
O100 S5 1.483302 1_555
O100 Zn4 2.269571 1_555
O101 S4 1.471790 1_555
O101 Zn5 2.270228 1_555
O102 S0 1.462729 1_555
O102 Zn6 2.354167 1_555
O103 S1 1.467767 1_555
O103 Zn7 2.408088 1_555
O104 S3 1.474343 1_555
O104 Zn6 2.283273 1_555
O105 S2 1.491782 1_655
O105 Zn7 2.350784 1_555
O106 Si0 1.600050 1_555
O106 Zn6 1.935675 1_555
O107 Si1 1.614639 1_555
O107 Zn7 2.049599 1_555
O108 S15 1.513769 1_555
O108 Zn8 2.422755 1_555
O109 S16 1.490813 1_555
O109 Zn9 2.430711 1_555
O110 S18 1.498887 1_555
O110 Zn8 2.202599 1_555
O111 S17 1.494680 1_655
O111 Zn9 2.190297 1_555
O112 S19 1.509032 1_545
O112 Zn8 2.352370 1_555
O113 S20 1.500461 1_545
O113 Zn9 2.554839 1_555
O114 S21 1.516138 1_545
O114 Zn10 2.395130 1_555
O115 S22 1.514470 1_545
O115 Zn11 2.410507 1_555
O116 S23 1.503631 1_555
O116 Zn10 2.356453 1_555
O117 S24 1.499399 1_555
O117 Zn11 2.387882 1_555
O118 S26 1.490493 1_555
O118 Zn10 2.218504 1_555
O119 S25 1.502497 1_655
O119 Zn11 2.167440 1_555
O120 S13 1.474657 1_555
O120 Zn12 2.287557 1_555
O121 S14 1.470874 1_555
O121 Zn13 2.193321 1_555
O122 Si7 1.617831 1_455
O122 Zn12 1.977272 1_555
O123 Si6 1.617236 1_555
O123 Zn13 1.989428 1_555
O124 S12 1.479358 1_565
O124 Zn12 2.123503 1_555
O125 Si8 1.623392 1_565
O125 Zn13 2.033521 1_555
O126 S8 1.459550 1_565
O126 Zn14 2.226683 1_555
O127 S9 1.462363 1_565
O127 Zn15 2.159405 1_555
O128 S10 1.467295 1_555
O128 Zn14 2.174333 1_555
O129 S11 1.488297 1_555
O129 Zn15 2.223910 1_555
O130 Si5 1.608141 1_455
O130 Zn14 1.945889 1_555
O131 Si4 1.628923 1_555
O131 Zn15 2.001552 1_555
O132 Si0 1.638510 1_565
O132 Zn16 2.012628 1_555
O133 Si1 1.657629 1_565
O133 Zn17 2.074493 1_555
O134 S0 1.462276 1_555
O134 Zn16 2.145801 1_555
O135 S1 1.482614 1_555
O135 Zn17 2.192110 1_555
O136 S2 1.475341 1_555
O136 Zn16 2.281215 1_555
O137 S3 1.495959 1_555
O137 Zn17 2.224407 1_555
O138 Si2 1.625087 1_555
O138 Zn18 2.014058 1_555
O139 Si3 1.642747 1_555
O139 Zn19 2.002288 1_555
O140 S4 1.504523 1_455
O140 Zn18 2.312897 1_555
O141 S5 1.486088 1_555
O141 Zn19 2.285099 1_555
O142 S6 1.476539 1_555
O142 Zn18 2.181316 1_555
O143 S7 1.471195 1_555
O143 Zn19 2.134632 1_555
