# generated using pymatgen
data_Na10Mg6Ti2Si3(S3O16)3
_symmetry_space_group_name_H-M   'P 1'
_cell_length_a   17.72433434
_cell_length_b   8.89530024
_cell_length_c   22.29064605
_cell_angle_alpha   90.12771870
_cell_angle_beta   89.95115670
_cell_angle_gamma   120.03289985
_symmetry_Int_Tables_number   1
_chemical_formula_structural   Na10Mg6Ti2Si3(S3O16)3
_chemical_formula_sum   'Na30 Mg18 Ti6 Si9 S27 O144'
_cell_volume   3042.55656254
_cell_formula_units_Z   3
loop_
 _symmetry_equiv_pos_site_id
 _symmetry_equiv_pos_as_xyz
  1  'x, y, z'
loop_
 _atom_site_type_symbol
 _atom_site_label
 _atom_site_symmetry_multiplicity
 _atom_site_fract_x
 _atom_site_fract_y
 _atom_site_fract_z
 _atom_site_occupancy
  Na  Na0  1  0.31587387  0.00069499  0.24865311  1
  Na  Na1  1  0.18662421  0.35908552  0.24964144  1
  Na  Na2  1  0.49698366  0.63567717  0.25261820  1
  Na  Na3  1  0.31092367  0.62040187  0.74231489  1
  Na  Na4  1  0.81559415  0.63213919  0.74752358  1
  Na  Na5  1  0.99989522  0.35560806  0.75291899  1
  Na  Na6  1  0.18317549  0.01352809  0.75298475  1
  Na  Na7  1  0.68777359  0.01548203  0.74963945  1
  Na  Na8  1  0.16114560  0.34777358  0.58617521  1
  Na  Na9  1  0.83008246  0.69857986  0.08359284  1
  Na  Na10  1  0.48343468  0.65808420  0.91819289  1
  Na  Na11  1  0.35238112  0.04012786  0.91678284  1
  Na  Na12  1  0.85344371  0.03881319  0.91939670  1
  Na  Na13  1  0.66015552  0.30070641  0.91649560  1
  Na  Na14  1  0.98172976  0.30601588  0.41711076  1
  Na  Na15  1  0.15975669  0.01872772  0.41560806  1
  Na  Na16  1  0.35341112  0.66800002  0.42056702  1
  Na  Na17  1  0.85167408  0.66427753  0.41610621  1
  Na  Na18  1  0.99547084  0.97733600  0.50031967  1
  Na  Na19  1  0.50348477  0.00211736  0.50029611  1
  Na  Na20  1  0.00828266  0.01590422  0.99975424  1
  Na  Na21  1  0.50155987  0.01346578  0.00111703  1
  Na  Na22  1  0.32915622  0.32884252  0.83374761  1
  Na  Na23  1  0.83461866  0.33356603  0.83001919  1
  Na  Na24  1  0.33450285  0.33364003  0.33018487  1
  Na  Na25  1  0.82981685  0.33139511  0.33302850  1
  Na  Na26  1  0.16291940  0.66592893  0.16312125  1
  Na  Na27  1  0.67487555  0.68503056  0.16266763  1
  Na  Na28  1  0.17354109  0.66893169  0.66172374  1
  Na  Na29  1  0.66432392  0.65953625  0.66224670  1
  Mg  Mg0  1  0.99979297  0.98934101  0.34867279  1
  Mg  Mg1  1  0.50449189  0.00313543  0.35135341  1
  Mg  Mg2  1  0.00495234  0.01073109  0.85061877  1
  Mg  Mg3  1  0.50205377  0.01173087  0.85001159  1
  Mg  Mg4  1  0.33273903  0.34012435  0.68108687  1
  Mg  Mg5  1  0.82932625  0.32769849  0.68337340  1
  Mg  Mg6  1  0.32957182  0.33152349  0.18379051  1
  Mg  Mg7  1  0.83176984  0.32453949  0.18206725  1
  Mg  Mg8  1  0.33104714  0.33021751  0.98194469  1
  Mg  Mg9  1  0.84014969  0.32931273  0.98883295  1
  Mg  Mg10  1  0.34258888  0.34954412  0.48825971  1
  Mg  Mg11  1  0.83037812  0.33262550  0.48167937  1
  Mg  Mg12  1  0.16422779  0.66278678  0.01720887  1
  Mg  Mg13  1  0.66486896  0.66588701  0.02101735  1
  Mg  Mg14  1  0.16986691  0.67942445  0.52017339  1
  Mg  Mg15  1  0.66475617  0.66404533  0.51733118  1
  Mg  Mg16  1  0.67090420  0.66769585  0.31674009  1
  Mg  Mg17  1  0.16479344  0.65635271  0.81706213  1
  Ti  Ti0  1  0.99520382  0.00803433  0.65288803  1
  Ti  Ti1  1  0.50192278  0.01179428  0.64241943  1
  Ti  Ti2  1  0.00034846  0.99796864  0.14570077  1
  Ti  Ti3  1  0.49467758  0.98893174  0.14989936  1
  Ti  Ti4  1  0.15723629  0.67161471  0.30990044  1
  Ti  Ti5  1  0.65887455  0.64385916  0.81069258  1
  Si  Si0  1  0.14507899  0.00421148  0.25114844  1
  Si  Si1  1  0.35272993  0.70350879  0.25466287  1
  Si  Si2  1  0.15079968  0.29646699  0.75196515  1
  Si  Si3  1  0.64491298  0.28598215  0.75112789  1
  Si  Si4  1  0.85132938  0.00137981  0.75528997  1
  Si  Si5  1  0.33309392  0.63317430  0.58319340  1
  Si  Si6  1  0.83033386  0.03599635  0.08306376  1
  Si  Si7  1  0.51816456  0.37004789  0.92010577  1
  Si  Si8  1  0.01773645  0.66641013  0.42020245  1
  S  S0  1  0.64661198  0.00429468  0.25020199  1
  S  S1  1  0.85184585  0.70314067  0.24912710  1
  S  S2  1  0.99663238  0.28744807  0.25180586  1
  S  S3  1  0.50370496  0.29217066  0.24930931  1
  S  S4  1  0.00076648  0.71300855  0.74982340  1
  S  S5  1  0.49965741  0.70967297  0.75118848  1
  S  S6  1  0.35509652  0.00275866  0.74969735  1
  S  S7  1  0.48116162  0.33657071  0.58409353  1
  S  S8  1  0.97784531  0.32957568  0.58353357  1
  S  S9  1  0.18451724  0.03659106  0.58393904  1
  S  S10  1  0.68669768  0.03764250  0.58328960  1
  S  S11  1  0.83435718  0.63073995  0.58342589  1
  S  S12  1  0.47927983  0.62840373  0.08483026  1
  S  S13  1  0.98147759  0.62664306  0.08463911  1
  S  S14  1  0.33425354  0.03746377  0.08381042  1
  S  S15  1  0.18649584  0.33559171  0.08362714  1
  S  S16  1  0.68440526  0.32743116  0.08404742  1
  S  S17  1  0.31206444  0.66475540  0.91661775  1
  S  S18  1  0.81442152  0.66560722  0.91654810  1
  S  S19  1  0.01935727  0.37472121  0.91682555  1
  S  S20  1  0.16418102  0.95503649  0.91703029  1
  S  S21  1  0.66642172  0.95738590  0.91596306  1
  S  S22  1  0.31389003  0.96140747  0.41596803  1
  S  S23  1  0.81087582  0.95808614  0.41679236  1
  S  S24  1  0.16611491  0.37421629  0.41629937  1
  S  S25  1  0.66443654  0.37280666  0.41707634  1
  S  S26  1  0.52119608  0.66601124  0.41550397  1
  O  O0  1  0.10938726  0.04765434  0.31080326  1
  O  O1  1  0.60560914  0.02667691  0.30396684  1
  O  O2  1  0.41424100  0.79596403  0.31092285  1
  O  O3  1  0.90321935  0.78479537  0.30396506  1
  O  O4  1  0.48852517  0.18422061  0.30245629  1
  O  O5  1  0.98600075  0.18920087  0.30720602  1
  O  O6  1  0.10458081  0.16232847  0.80506577  1
  O  O7  1  0.60932170  0.17090990  0.81059453  1
  O  O8  1  0.48450356  0.78343111  0.80668570  1
  O  O9  1  0.98254821  0.78490518  0.80333711  1
  O  O10  1  0.40397201  0.02167723  0.80551359  1
  O  O11  1  0.90958542  0.02959179  0.81325461  1
  O  O12  1  0.39718100  0.96972974  0.69721240  1
  O  O13  1  0.90070325  0.96259796  0.69579532  1
  O  O14  1  0.08215916  0.19147156  0.69097984  1
  O  O15  1  0.58076340  0.18714680  0.69329923  1
  O  O16  1  0.01571414  0.82570694  0.69581987  1
  O  O17  1  0.51453835  0.82354471  0.69877532  1
  O  O18  1  0.40571103  0.84299049  0.19542253  1
  O  O19  1  0.89558985  0.81484810  0.19465343  1
  O  O20  1  0.01262306  0.20353240  0.19894106  1
  O  O21  1  0.51581777  0.20630368  0.19481787  1
  O  O22  1  0.08128135  0.97570517  0.19334230  1
  O  O23  1  0.58726325  0.97620283  0.19621180  1
  O  O24  1  0.43965021  0.35535055  0.63833461  1
  O  O25  1  0.93736631  0.35023590  0.63791946  1
  O  O26  1  0.23706608  0.12009007  0.63835784  1
  O  O27  1  0.73683503  0.11392515  0.63901001  1
  O  O28  1  0.31728426  0.51580104  0.64241929  1
  O  O29  1  0.82416752  0.52772632  0.63797489  1
  O  O30  1  0.43725822  0.52376426  0.13866454  1
  O  O31  1  0.94072268  0.52567433  0.13850985  1
  O  O32  1  0.32453584  0.12044602  0.13832895  1
  O  O33  1  0.81935782  0.12860775  0.14057748  1
  O  O34  1  0.23735972  0.36031918  0.13908710  1
  O  O35  1  0.74171563  0.35887231  0.13575905  1
  O  O36  1  0.22731815  0.30599517  0.03093051  1
  O  O37  1  0.72231299  0.30175953  0.02762234  1
  O  O38  1  0.42583154  0.55469336  0.03004535  1
  O  O39  1  0.92586650  0.55340756  0.03064622  1
  O  O40  1  0.34782732  0.14273401  0.02930923  1
  O  O41  1  0.85324372  0.14098673  0.01997234  1
  O  O42  1  0.22521213  0.14610851  0.52945144  1
  O  O43  1  0.72717159  0.14748372  0.53086270  1
  O  O44  1  0.35275080  0.56069738  0.52151739  1
  O  O45  1  0.84619327  0.54926202  0.52882887  1
  O  O46  1  0.42823306  0.30282003  0.52989832  1
  O  O47  1  0.92562868  0.30284010  0.52912297  1
  O  O48  1  0.27108355  0.69738044  0.96874074  1
  O  O49  1  0.77478864  0.69544095  0.97021354  1
  O  O50  1  0.07326114  0.46363207  0.96922364  1
  O  O51  1  0.58587102  0.46823649  0.97276716  1
  O  O52  1  0.15603195  0.84793378  0.96960002  1
  O  O53  1  0.65583884  0.85095461  0.96873305  1
  O  O54  1  0.27418685  0.84988022  0.46804084  1
  O  O55  1  0.77168535  0.84572907  0.46988797  1
  O  O56  1  0.15582152  0.45734656  0.47031060  1
  O  O57  1  0.65297454  0.45551100  0.47094222  1
  O  O58  1  0.08591132  0.70397657  0.47256187  1
  O  O59  1  0.57391765  0.68401909  0.46823393  1
  O  O60  1  0.07169158  0.64028866  0.35922085  1
  O  O61  1  0.56142411  0.64773857  0.35910733  1
  O  O62  1  0.25890771  0.87829535  0.35996870  1
  O  O63  1  0.75949666  0.87804718  0.36234984  1
  O  O64  1  0.18167399  0.48450668  0.36161507  1
  O  O65  1  0.68048871  0.48333525  0.36324055  1
  O  O66  1  0.05901222  0.47274211  0.86050345  1
  O  O67  1  0.57167102  0.50381062  0.85954914  1
  O  O68  1  0.17985576  0.87917761  0.86111909  1
  O  O69  1  0.68166925  0.88015678  0.86046804  1
  O  O70  1  0.26265077  0.64370432  0.86067041  1
  O  O71  1  0.75833132  0.63994868  0.86136381  1
  O  O72  1  0.00509188  0.83488401  0.41238760  1
  O  O73  1  0.51006141  0.82244673  0.41307691  1
  O  O74  1  0.40180719  0.98253986  0.40869183  1
  O  O75  1  0.90111091  0.98199776  0.41080038  1
  O  O76  1  0.08476837  0.20228764  0.41102937  1
  O  O77  1  0.58647168  0.19787413  0.41015404  1
  O  O78  1  0.00877507  0.19717574  0.91464135  1
  O  O79  1  0.50507528  0.17563679  0.91272327  1
  O  O80  1  0.08540173  0.97042473  0.91257592  1
  O  O81  1  0.58460666  0.96669579  0.91119465  1
  O  O82  1  0.40211843  0.82055824  0.91127876  1
  O  O83  1  0.90166307  0.82029563  0.90943678  1
  O  O84  1  0.49005755  0.17445611  0.58969355  1
  O  O85  1  0.98787411  0.16759562  0.58850302  1
  O  O86  1  0.09648754  0.02635147  0.58923515  1
  O  O87  1  0.59706576  0.02020784  0.58955429  1
  O  O88  1  0.42278403  0.83158904  0.59663072  1
  O  O89  1  0.91556773  0.80703757  0.58908152  1
  O  O90  1  0.48859740  0.80928440  0.09242303  1
  O  O91  1  0.98849672  0.80540132  0.08993293  1
  O  O92  1  0.41666376  0.02371198  0.09012969  1
  O  O93  1  0.92181035  0.01211794  0.09683889  1
  O  O94  1  0.09712789  0.17549696  0.08997772  1
  O  O95  1  0.59610526  0.16772483  0.09213066  1
  O  O96  1  0.34577586  0.15723598  0.74184301  1
  O  O97  1  0.84486398  0.17318770  0.74273011  1
  O  O98  1  0.24669613  0.31575926  0.74489463  1
  O  O99  1  0.74445729  0.32915352  0.74178223  1
  O  O100  1  0.42539658  0.53335086  0.74404142  1
  O  O101  1  0.92508358  0.53617317  0.74037100  1
  O  O102  1  0.34555276  0.51794529  0.24269999  1
  O  O103  1  0.84404441  0.53101518  0.24156651  1
  O  O104  1  0.42433834  0.30884093  0.24125244  1
  O  O105  1  0.92398063  0.31887736  0.24480759  1
  O  O106  1  0.24475072  0.16033678  0.24191364  1
  O  O107  1  0.73243609  0.15734614  0.24307910  1
  O  O108  1  0.32183890  0.50933674  0.92388442  1
  O  O109  1  0.81825290  0.50260274  0.92134477  1
  O  O110  1  0.42298646  0.35879749  0.91986504  1
  O  O111  1  0.93056406  0.35672997  0.92005950  1
  O  O112  1  0.24460720  0.13063241  0.92316376  1
  O  O113  1  0.74286504  0.13754119  0.92021533  1
  O  O114  1  0.31792429  0.13258912  0.42163088  1
  O  O115  1  0.82133472  0.13374720  0.42406810  1
  O  O116  1  0.24317112  0.34755968  0.42019992  1
  O  O117  1  0.74459162  0.35733471  0.42298453  1
  O  O118  1  0.43170224  0.50721128  0.41870381  1
  O  O119  1  0.92307535  0.48772492  0.41939508  1
  O  O120  1  0.17544133  0.48922091  0.07678314  1
  O  O121  1  0.67449569  0.48298418  0.07919601  1
  O  O122  1  0.06959857  0.65070252  0.07722998  1
  O  O123  1  0.56695851  0.65299324  0.07915852  1
  O  O124  1  0.25783527  0.86108509  0.07812923  1
  O  O125  1  0.75262165  0.83321721  0.07825555  1
  O  O126  1  0.17320422  0.86304407  0.57933994  1
  O  O127  1  0.67466415  0.86103209  0.57662131  1
  O  O128  1  0.24525446  0.64801080  0.57778857  1
  O  O129  1  0.75649727  0.65163687  0.57805291  1
  O  O130  1  0.06763724  0.47950687  0.57844220  1
  O  O131  1  0.56951048  0.48948430  0.57823059  1
  O  O132  1  0.15336593  0.82364112  0.25667170  1
  O  O133  1  0.64956750  0.83903424  0.25303337  1
  O  O134  1  0.25585739  0.68661764  0.25612526  1
  O  O135  1  0.76481742  0.68898520  0.25348823  1
  O  O136  1  0.08245892  0.46158706  0.25539129  1
  O  O137  1  0.58016565  0.46991920  0.25414715  1
  O  O138  1  0.15419202  0.48400681  0.75172894  1
  O  O139  1  0.65309585  0.48275681  0.75681032  1
  O  O140  1  0.08134031  0.69994277  0.75537378  1
  O  O141  1  0.58348742  0.70448413  0.75622730  1
  O  O142  1  0.26565985  0.84507049  0.75425996  1
  O  O143  1  0.75395060  0.82429061  0.75722476  1
loop_
_geom_bond_atom_site_label_1
_geom_bond_atom_site_label_2
_geom_bond_distance
_geom_bond_site_symmetry_2
Na0 O106 2.328407 1_555
Na0 O104 2.441946 1_555
Na0 O134 2.447773 1_545
Na0 O132 2.503651 1_545
Na0 O32 2.655795 1_555
Na0 O62 2.696126 1_545
Na0 O18 2.852465 1_545
Na0 O4 2.909414 1_555
Na1 O136 2.437332 1_555
Na1 O102 2.443653 1_555
Na1 O106 2.457283 1_555
Na1 O134 2.536698 1_555
Na1 O34 2.620716 1_555
Na1 O64 2.750896 1_555
Na1 O0 2.761276 1_555
Na1 O20 2.903544 1_555
Na2 O102 2.352844 1_555
Na2 O133 2.385223 1_555
Na2 O104 2.534687 1_555
Na2 O137 2.554458 1_555
Na2 O61 2.613691 1_555
Na2 O30 2.739012 1_555
Na2 O2 2.820350 1_555
Na2 O23 2.911775 1_555
Na3 O98 2.356976 1_555
Na3 O138 2.420643 1_555
Na3 O28 2.435601 1_555
Na3 O100 2.508126 1_555
Na3 O142 2.512112 1_555
Na3 O70 2.811846 1_555
Na3 O12 2.873986 1_555
Na4 O99 2.338189 1_555
Na4 O143 2.455473 1_555
Na4 O101 2.485415 1_555
Na4 O139 2.504634 1_555
Na4 O29 2.641816 1_555
Na4 O71 2.745835 1_555
Na4 O13 2.796319 1_555
Na4 O9 2.850362 1_555
Na5 O138 2.378599 1_655
Na5 O97 2.402367 1_555
Na5 O101 2.559457 1_555
Na5 O66 2.614357 1_655
Na5 O140 2.653679 1_655
Na5 O25 2.784412 1_555
Na5 O11 2.854500 1_555
Na5 O14 2.877931 1_655
Na6 O98 2.345160 1_555
Na6 O140 2.449967 1_545
Na6 O96 2.512776 1_555
Na6 O142 2.564533 1_545
Na6 O6 2.622281 1_555
Na6 O68 2.680273 1_545
Na6 O26 2.727595 1_555
Na6 O16 2.873666 1_545
Na7 O97 2.415475 1_555
Na7 O141 2.444185 1_545
Na7 O99 2.453796 1_555
Na7 O143 2.509027 1_545
Na7 O27 2.616848 1_555
Na7 O69 2.728782 1_545
Na7 O7 2.757530 1_555
Na7 O17 2.894492 1_545
Na8 O128 2.325161 1_555
Na8 O130 2.468840 1_555
Na8 O86 2.492703 1_555
Na8 O85 2.660122 1_455
Na8 O28 2.705857 1_555
Na8 O14 2.722350 1_555
Na8 O56 2.780817 1_555
Na8 O42 2.851775 1_555
Na9 O125 2.231659 1_555
Na9 O93 2.442801 1_565
Na9 O121 2.449082 1_555
Na9 O91 2.477091 1_555
Na9 O49 2.706478 1_554
Na9 O19 2.708850 1_555
Na9 O39 2.850792 1_555
Na9 O35 2.865576 1_555
Na10 O110 2.319923 1_555
Na10 O81 2.418646 1_555
Na10 O108 2.485349 1_555
Na10 O82 2.505244 1_555
Na10 O38 2.677789 1_556
Na10 O8 2.722638 1_555
Na10 O67 2.859152 1_555
Na10 O53 2.880914 1_555
Na11 O79 2.349536 1_555
Na11 O112 2.419858 1_555
Na11 O110 2.460584 1_555
Na11 O82 2.515794 1_545
Na11 O10 2.675695 1_555
Na11 O40 2.682209 1_556
Na11 O48 2.885904 1_545
Na11 O68 2.925105 1_545
Na12 O78 2.386092 1_655
Na12 O41 2.417907 1_556
Na12 O111 2.448771 1_555
Na12 O83 2.493727 1_545
Na12 O113 2.517093 1_555
Na12 O11 2.582938 1_555
Na12 O49 2.882070 1_545
Na12 O69 2.946892 1_545
Na13 O79 2.395630 1_555
Na13 O109 2.459950 1_555
Na13 O113 2.528457 1_555
Na13 O81 2.578927 1_545
Na13 O7 2.582143 1_555
Na13 O37 2.709983 1_556
Na13 O51 2.735065 1_555
Na13 O71 2.898468 1_555
Na14 O119 2.318962 1_555
Na14 O76 2.427114 1_655
Na14 O115 2.468577 1_555
Na14 O75 2.498970 1_545
Na14 O5 2.674752 1_555
Na14 O47 2.681722 1_555
Na14 O60 2.883873 1_655
Na14 O56 2.929321 1_655
Na15 O72 2.388877 1_545
Na15 O114 2.461872 1_555
Na15 O116 2.534232 1_555
Na15 O0 2.560683 1_555
Na15 O76 2.572240 1_555
Na15 O58 2.740177 1_545
Na15 O42 2.783130 1_555
Na15 O62 2.893774 1_545
Na16 O73 2.409632 1_555
Na16 O118 2.441168 1_555
Na16 O44 2.444004 1_555
Na16 O74 2.496950 1_555
Na16 O116 2.523419 1_555
Na16 O2 2.685310 1_555
Na16 O54 2.823659 1_555
Na16 O64 2.946250 1_555
Na17 O72 2.360838 1_655
Na17 O117 2.427899 1_555
Na17 O119 2.462430 1_555
Na17 O75 2.508326 1_555
Na17 O3 2.694457 1_555
Na17 O45 2.698368 1_555
Na17 O65 2.880020 1_555
Na17 O55 2.886433 1_555
Na18 O72 2.383539 1_655
Na18 O89 2.465007 1_555
Na18 O86 2.558292 1_665
Na18 O75 2.618423 1_555
Na18 O85 2.638003 1_565
Na18 O76 2.704203 1_665
Na19 O87 2.544144 1_555
Na19 O73 2.553421 1_545
Na19 O77 2.584533 1_555
Na19 O84 2.593930 1_555
Na19 O88 2.606818 1_545
Na19 O74 2.671722 1_545
Na20 O78 2.489797 1_555
Na20 O94 2.508924 1_556
Na20 O80 2.520673 1_545
Na20 O93 2.641294 1_456
Na20 O91 2.651060 1_446
Na20 O83 2.711332 1_445
Na21 O79 2.426859 1_554
Na21 O92 2.518084 1_555
Na21 O95 2.549221 1_555
Na21 O81 2.638501 1_544
Na21 O82 2.650383 1_544
Na21 O90 2.663057 1_545
Na22 O98 2.430238 1_555
Na22 O110 2.466034 1_555
Na22 O112 2.587037 1_555
Na22 O108 2.612497 1_555
Na22 O96 2.654977 1_555
Na22 O100 2.668656 1_555
Na23 O97 2.469900 1_555
Na23 O99 2.523107 1_555
Na23 O111 2.572137 1_555
Na23 O113 2.626592 1_555
Na23 O109 2.628896 1_555
Na23 O101 2.632547 1_555
Na24 O102 2.494237 1_555
Na24 O106 2.513102 1_555
Na24 O118 2.564135 1_555
Na24 O116 2.618365 1_555
Na24 O104 2.618783 1_555
Na24 O114 2.632296 1_555
Na25 O119 2.462698 1_555
Na25 O117 2.587941 1_555
Na25 O107 2.591023 1_555
Na25 O105 2.616201 1_555
Na25 O103 2.634418 1_555
Na25 O115 2.642469 1_555
Na26 O122 2.489940 1_555
Na26 O124 2.553213 1_555
Na26 O120 2.561027 1_555
Na26 O132 2.563086 1_555
Na26 O134 2.597276 1_555
Na26 O136 2.642894 1_555
Na27 O125 2.316302 1_555
Na27 O135 2.567105 1_555
Na27 O123 2.581278 1_555
Na27 O121 2.581699 1_555
Na27 O133 2.595492 1_555
Na27 O137 2.726478 1_555
Na28 O128 2.319904 1_555
Na28 O138 2.509480 1_555
Na28 O126 2.525526 1_555
Na28 O130 2.575814 1_555
Na28 O142 2.608837 1_555
Na28 O140 2.747235 1_555
Na29 O131 2.463270 1_555
Na29 O129 2.511011 1_555
Na29 O127 2.564162 1_555
Na29 O139 2.579993 1_555
Na29 O143 2.610565 1_555
Na29 O141 2.676907 1_555
Mg0 O0 1.935314 1_665
Mg0 O72 2.012890 1_655
Mg0 O3 2.027541 1_555
Mg0 O5 2.125440 1_565
Mg0 O75 2.205286 1_555
Mg0 O76 2.219138 1_665
Mg1 O2 1.952274 1_545
Mg1 O1 1.998439 1_555
Mg1 O77 2.074504 1_555
Mg1 O4 2.080250 1_555
Mg1 O74 2.154741 1_545
Mg1 O73 2.157542 1_545
Mg2 O6 1.893980 1_555
Mg2 O11 1.966184 1_455
Mg2 O9 2.120496 1_445
Mg2 O80 2.141595 1_545
Mg2 O78 2.160766 1_555
Mg2 O83 2.200367 1_445
Mg3 O7 1.923437 1_555
Mg3 O79 1.998892 1_555
Mg3 O10 2.042332 1_555
Mg3 O8 2.124386 1_545
Mg3 O81 2.180361 1_545
Mg3 O82 2.210311 1_545
Mg4 O28 1.922204 1_555
Mg4 O98 2.015579 1_555
Mg4 O24 2.063457 1_555
Mg4 O26 2.070202 1_555
Mg4 O100 2.188208 1_555
Mg4 O96 2.218283 1_555
Mg5 O99 1.993521 1_555
Mg5 O97 2.025606 1_555
Mg5 O27 2.038453 1_555
Mg5 O25 2.084961 1_555
Mg5 O29 2.090311 1_555
Mg5 O101 2.185495 1_555
Mg6 O106 1.992854 1_555
Mg6 O102 2.018707 1_555
Mg6 O34 2.037840 1_555
Mg6 O30 2.077574 1_555
Mg6 O32 2.093840 1_555
Mg6 O104 2.201519 1_555
Mg7 O33 1.884323 1_555
Mg7 O35 2.049061 1_555
Mg7 O31 2.102147 1_555
Mg7 O107 2.131928 1_555
Mg7 O105 2.171680 1_555
Mg7 O103 2.183879 1_555
Mg8 O110 2.053784 1_555
Mg8 O36 2.054265 1_556
Mg8 O112 2.118101 1_555
Mg8 O40 2.118803 1_556
Mg8 O108 2.123704 1_555
Mg8 O38 2.143530 1_556
Mg9 O41 1.933040 1_556
Mg9 O39 2.028083 1_556
Mg9 O111 2.141018 1_555
Mg9 O37 2.157612 1_556
Mg9 O113 2.295905 1_555
Mg9 O109 2.323792 1_555
Mg10 O44 1.940439 1_555
Mg10 O46 1.993528 1_555
Mg10 O118 2.157250 1_555
Mg10 O42 2.163699 1_555
Mg10 O114 2.294599 1_555
Mg10 O116 2.319535 1_555
Mg11 O43 2.061416 1_555
Mg11 O119 2.065442 1_555
Mg11 O45 2.085049 1_555
Mg11 O117 2.100294 1_555
Mg11 O47 2.119162 1_555
Mg11 O115 2.123881 1_555
Mg12 O50 2.004343 1_554
Mg12 O52 2.026637 1_554
Mg12 O48 2.064841 1_554
Mg12 O122 2.105002 1_555
Mg12 O120 2.122120 1_555
Mg12 O124 2.184457 1_555
Mg13 O51 1.933481 1_554
Mg13 O125 1.984950 1_555
Mg13 O53 2.089639 1_554
Mg13 O123 2.121786 1_555
Mg13 O49 2.152237 1_554
Mg13 O121 2.155371 1_555
Mg14 O58 1.928053 1_555
Mg14 O128 1.972599 1_555
Mg14 O54 2.065450 1_555
Mg14 O126 2.074740 1_555
Mg14 O56 2.167525 1_555
Mg14 O130 2.216634 1_555
Mg15 O59 2.027754 1_555
Mg15 O57 2.039081 1_555
Mg15 O55 2.064079 1_555
Mg15 O131 2.117859 1_555
Mg15 O127 2.128369 1_555
Mg15 O129 2.161558 1_555
Mg16 O63 2.013360 1_555
Mg16 O65 2.019753 1_555
Mg16 O61 2.083647 1_555
Mg16 O135 2.115686 1_555
Mg16 O137 2.188373 1_555
Mg16 O133 2.251671 1_555
Mg17 O66 2.014744 1_555
Mg17 O70 2.040733 1_555
Mg17 O138 2.051495 1_555
Mg17 O68 2.103923 1_555
Mg17 O140 2.192946 1_555
Mg17 O142 2.230698 1_555
O0 Si0 1.599605 1_555
O1 S0 1.465053 1_555
O2 Si1 1.593079 1_555
O3 S1 1.478782 1_555
O4 S3 1.464189 1_555
O5 S2 1.470998 1_555
O6 Si2 1.588093 1_555
O7 Si3 1.600329 1_555
O8 S5 1.484979 1_555
O9 S4 1.462480 1_655
O10 S6 1.477068 1_555
O11 Si4 1.593747 1_555
O12 S6 1.492577 1_565
O12 Ti1 2.093107 1_565
O13 Si4 1.715155 1_565
O13 Ti0 1.790239 1_565
O14 Si2 1.749331 1_555
O14 Ti0 1.799323 1_455
O15 Si3 1.650508 1_555
O15 Ti1 1.866812 1_555
O16 S4 1.504399 1_555
O16 Ti0 2.067868 1_465
O17 S5 1.482525 1_555
O17 Ti1 2.194719 1_565
O18 Si1 1.733173 1_555
O18 Ti3 1.776388 1_555
O19 S1 1.515096 1_555
O19 Ti2 2.066059 1_655
O20 S2 1.494460 1_455
O20 Ti2 2.095682 1_545
O21 S3 1.504806 1_555
O21 Ti3 2.036779 1_545
O22 Si0 1.648417 1_565
O22 Ti2 1.874198 1_555
O23 S0 1.534609 1_565
O23 Ti3 1.990196 1_555
O24 S7 1.466873 1_555
O25 S8 1.465504 1_555
O26 S9 1.481905 1_555
O27 S10 1.478965 1_555
O28 Si5 1.619922 1_555
O29 S11 1.479769 1_555
O30 S12 1.473305 1_555
O31 S13 1.457505 1_555
O32 S14 1.474546 1_555
O33 Si6 1.585990 1_555
O34 S15 1.480410 1_555
O35 S16 1.467962 1_555
O36 S15 1.469853 1_555
O37 S16 1.495454 1_555
O38 S12 1.481655 1_555
O39 S13 1.483309 1_555
O40 S14 1.479767 1_555
O41 Si6 1.624865 1_555
O42 S9 1.498293 1_555
O43 S10 1.461857 1_555
O44 Si5 1.627013 1_555
O45 S11 1.482643 1_555
O46 S7 1.465597 1_555
O47 S8 1.471197 1_555
O48 S17 1.473021 1_555
O49 S18 1.476017 1_555
O50 S19 1.464212 1_555
O51 Si7 1.590460 1_555
O52 S20 1.472621 1_555
O53 S21 1.463541 1_555
O54 S22 1.460012 1_555
O55 S23 1.480236 1_555
O56 S24 1.469791 1_555
O57 S25 1.472903 1_555
O58 Si8 1.590736 1_555
O59 S26 1.459998 1_555
O60 Si8 1.742151 1_555
O60 Ti4 1.777871 1_555
O61 S26 1.492891 1_555
O62 S22 1.526827 1_555
O62 Ti4 2.133295 1_555
O63 S23 1.468998 1_555
O64 S24 1.502769 1_555
O64 Ti4 2.240012 1_555
O65 S25 1.487398 1_555
O66 S19 1.490087 1_555
O67 Si7 1.735708 1_555
O67 Ti5 1.789606 1_555
O68 S20 1.506353 1_555
O69 S21 1.502223 1_555
O69 Ti5 2.225472 1_555
O70 S17 1.481233 1_555
O71 S18 1.525543 1_555
O71 Ti5 2.109360 1_555
O72 Si8 1.632141 1_555
O73 S26 1.501171 1_555
O74 S22 1.482008 1_555
O75 S23 1.510054 1_555
O76 S24 1.491243 1_555
O77 S25 1.483784 1_555
O78 S19 1.494978 1_555
O79 Si7 1.633625 1_555
O80 S20 1.473057 1_555
O81 S21 1.497167 1_555
O82 S17 1.506219 1_555
O83 S18 1.476575 1_555
O84 S7 1.532453 1_555
O84 Ti1 1.957482 1_555
O85 S8 1.541774 1_555
O85 Ti0 2.070060 1_555
O86 S9 1.521232 1_555
O86 Ti0 2.228523 1_455
O87 S10 1.523320 1_555
O87 Ti1 2.026982 1_555
O88 Si5 1.709341 1_555
O88 Ti1 1.822978 1_565
O89 S11 1.512274 1_555
O89 Ti0 2.162830 1_565
O90 S12 1.541950 1_555
O90 Ti3 2.006347 1_555
O91 S13 1.535908 1_555
O91 Ti2 2.038227 1_655
O92 S14 1.532199 1_555
O92 Ti3 2.053273 1_545
O93 Si6 1.764674 1_555
O93 Ti2 1.821663 1_645
O94 S15 1.516450 1_555
O94 Ti2 2.067029 1_545
O95 S16 1.508360 1_555
O95 Ti3 2.136037 1_545
O96 S6 1.474623 1_555
O97 Si4 1.613825 1_555
O98 Si2 1.628177 1_555
O99 Si3 1.620287 1_555
O100 S5 1.466492 1_555
O101 S4 1.484924 1_655
O102 Si1 1.612396 1_555
O103 S1 1.476069 1_555
O104 S3 1.497485 1_555
O105 S2 1.456564 1_555
O106 Si0 1.623819 1_555
O107 S0 1.456092 1_555
O108 S17 1.486049 1_555
O109 S18 1.489206 1_555
O110 Si7 1.639185 1_555
O111 S19 1.501798 1_655
O112 S20 1.503691 1_545
O113 S21 1.496320 1_545
O114 S22 1.493274 1_545
O115 S23 1.487019 1_545
O116 S24 1.501192 1_555
O117 S25 1.500261 1_555
O118 S26 1.507952 1_555
O119 Si8 1.634687 1_655
O120 S15 1.482634 1_555
O121 S16 1.483616 1_555
O122 S13 1.475697 1_455
O123 S12 1.462333 1_555
O124 S14 1.477973 1_565
O125 Si6 1.635461 1_565
O126 S9 1.457176 1_565
O127 S10 1.482984 1_565
O128 Si5 1.631540 1_555
O129 S11 1.486774 1_555
O130 S8 1.483296 1_455
O131 S7 1.479092 1_555
O132 Si0 1.689310 1_565
O132 Ti4 1.827955 1_555
O133 S0 1.498417 1_565
O134 Si1 1.647246 1_555
O134 Ti4 2.067308 1_555
O135 S1 1.486624 1_555
O136 S2 1.536512 1_455
O136 Ti4 2.058486 1_555
O137 S3 1.484180 1_555
O138 Si2 1.638977 1_555
O139 Si3 1.686949 1_555
O139 Ti5 1.830933 1_555
O140 S4 1.494940 1_555
O141 S5 1.513736 1_555
O141 Ti5 2.068127 1_555
O142 S6 1.505108 1_565
O143 Si4 1.655569 1_565
O143 Ti5 2.033217 1_555
