# generated using pymatgen
data_Sr2GdMgCu2RuO8
_symmetry_space_group_name_H-M   'P 1'
_cell_length_a   3.97659400
_cell_length_b   3.97651300
_cell_length_c   12.94916100
_cell_angle_alpha   90.00000000
_cell_angle_beta   90.00000000
_cell_angle_gamma   90.00000000
_symmetry_Int_Tables_number   1
_chemical_formula_structural   Sr2GdMgCu2RuO8
_chemical_formula_sum   'Sr2 Gd1 Mg1 Cu2 Ru1 O8'
_cell_volume   204.76479460
_cell_formula_units_Z   1
loop_
 _symmetry_equiv_pos_site_id
 _symmetry_equiv_pos_as_xyz
  1  'x, y, z'
loop_
 _atom_site_type_symbol
 _atom_site_label
 _atom_site_symmetry_multiplicity
 _atom_site_fract_x
 _atom_site_fract_y
 _atom_site_fract_z
 _atom_site_occupancy
  Sr  Sr0  1  0.50000000  0.50000000  0.75552400  1
  Sr  Sr1  1  0.50000000  0.50000000  0.24447600  1
  Gd  Gd0  1  0.50000000  0.50000000  0.50000000  1
  Mg  Mg0  1  0.50000000  0.50000000  0.00000000  1
  Cu  Cu0  1  0.00000000  0.00000000  0.61494400  1
  Cu  Cu1  1  0.00000000  0.00000000  0.38505600  1
  Ru  Ru0  1  0.00000000  0.00000000  0.00000000  1
  O  O0  1  0.50000000  0.00000000  0.00000000  1
  O  O1  1  0.00000000  0.50000000  0.00000000  1
  O  O2  1  0.00000000  0.00000000  0.84249000  1
  O  O3  1  0.00000000  0.00000000  0.15751000  1
  O  O4  1  0.50000000  0.00000000  0.61678600  1
  O  O5  1  0.00000000  0.50000000  0.61678700  1
  O  O6  1  0.50000000  0.00000000  0.38321400  1
  O  O7  1  0.00000000  0.50000000  0.38321300  1
loop_
_geom_bond_atom_site_label_1
_geom_bond_atom_site_label_2
_geom_bond_distance
_geom_bond_site_symmetry_2
Gd0 O6 2.498031 1_555
Gd0 O6 2.498031 1_565
Gd0 O4 2.498031 1_555
Gd0 O4 2.498031 1_565
Gd0 O5 2.498071 1_555
Gd0 O5 2.498071 1_655
Gd0 O7 2.498071 1_555
Gd0 O7 2.498071 1_655
Mg0 O0 1.988256 1_555
Mg0 O0 1.988256 1_565
Mg0 O1 1.988297 1_555
Mg0 O1 1.988297 1_655
Cu0 O5 1.988400 1_545
Cu0 O5 1.988400 1_555
Cu0 O4 1.988440 1_555
Cu0 O4 1.988440 1_455
Cu1 O7 1.988400 1_555
Cu1 O7 1.988400 1_545
Cu1 O6 1.988440 1_555
Cu1 O6 1.988440 1_455
O0 Ru0 1.988297 1_555
O0 Ru0 1.988297 1_655
O1 Ru0 1.988256 1_555
O1 Ru0 1.988256 1_565
O2 Ru0 2.039622 1_556
O2 Sr0 3.028972 1_445
O2 Sr0 3.028972 1_455
O2 Sr0 3.028972 1_545
O2 Sr0 3.028972 1_555
O3 Ru0 2.039622 1_555
O3 Sr1 3.028972 1_555
O3 Sr1 3.028972 1_455
O3 Sr1 3.028972 1_445
O3 Sr1 3.028972 1_545
O4 Sr0 2.679687 1_545
O4 Sr0 2.679687 1_555
O5 Sr0 2.679708 1_455
O5 Sr0 2.679708 1_555
O6 Sr1 2.679687 1_555
O6 Sr1 2.679687 1_545
O7 Sr1 2.679708 1_555
O7 Sr1 2.679708 1_455
