# generated using pymatgen
data_Dy2MgNb2O8
_symmetry_space_group_name_H-M   'P 1'
_cell_length_a   6.20215627
_cell_length_b   6.20215627
_cell_length_c   6.11593844
_cell_angle_alpha   106.42750125
_cell_angle_beta   106.42750125
_cell_angle_gamma   113.62889974
_symmetry_Int_Tables_number   1
_chemical_formula_structural   Dy2MgNb2O8
_chemical_formula_sum   'Dy2 Mg1 Nb2 O8'
_cell_volume   184.53841449
_cell_formula_units_Z   1
loop_
 _symmetry_equiv_pos_site_id
 _symmetry_equiv_pos_as_xyz
  1  'x, y, z'
loop_
 _atom_site_type_symbol
 _atom_site_label
 _atom_site_symmetry_multiplicity
 _atom_site_fract_x
 _atom_site_fract_y
 _atom_site_fract_z
 _atom_site_occupancy
  Dy  Dy0  1  0.66482000  0.33518000  0.25000000  1
  Dy  Dy1  1  0.36684600  0.63315400  0.75000000  1
  Mg  Mg0  1  0.37431600  0.62568400  0.25000000  1
  Nb  Nb0  1  0.89795400  0.10204600  0.75000000  1
  Nb  Nb1  1  0.08677700  0.91322300  0.25000000  1
  O  O0  1  0.64894100  0.09201500  0.88405400  1
  O  O1  1  0.28128400  0.31681800  0.94348000  1
  O  O2  1  0.90798500  0.35105900  0.61594600  1
  O  O3  1  0.68318200  0.71871600  0.55652000  1
  O  O4  1  0.27021500  0.28274400  0.39812800  1
  O  O5  1  0.71725600  0.72978500  0.10187200  1
  O  O6  1  0.10933700  0.64433100  0.37063900  1
  O  O7  1  0.35566900  0.89066300  0.12936100  1
loop_
_geom_bond_atom_site_label_1
_geom_bond_atom_site_label_2
_geom_bond_distance
_geom_bond_site_symmetry_2
Dy0 O0 2.267256 1_554
Dy0 O2 2.267256 1_555
Dy0 O7 2.373487 1_545
Dy0 O6 2.373487 1_655
Dy0 O1 2.515080 1_554
Dy0 O3 2.515080 1_555
Dy0 O4 2.774695 1_555
Dy0 O5 2.774695 1_555
Dy1 O4 2.301021 1_555
Dy1 O5 2.301021 1_556
Dy1 O2 2.389578 1_455
Dy1 O0 2.389578 1_565
Dy1 O6 2.454081 1_555
Dy1 O7 2.454081 1_556
Dy1 O3 2.522859 1_555
Dy1 O1 2.522859 1_555
Mg0 O3 1.996974 1_555
Mg0 O1 1.996974 1_554
Mg0 O6 2.012109 1_555
Mg0 O7 2.012109 1_555
Mg0 O4 2.466057 1_555
Mg0 O5 2.466057 1_555
Nb0 O2 1.931134 1_555
Nb0 O0 1.931134 1_555
Nb0 O1 1.950785 1_655
Nb0 O3 1.950785 1_545
Nb1 O5 1.876193 1_455
Nb1 O4 1.876193 1_565
Nb1 O7 2.042018 1_555
Nb1 O6 2.042018 1_555
