# generated using pymatgen
data_MgCu2(IO3)4
_symmetry_space_group_name_H-M   'P 1'
_cell_length_a   6.25704786
_cell_length_b   5.65301697
_cell_length_c   9.49667162
_cell_angle_alpha   96.64990895
_cell_angle_beta   86.93899761
_cell_angle_gamma   86.34536167
_symmetry_Int_Tables_number   1
_chemical_formula_structural   MgCu2(IO3)4
_chemical_formula_sum   'Mg1 Cu2 I4 O12'
_cell_volume   332.34370089
_cell_formula_units_Z   1
loop_
 _symmetry_equiv_pos_site_id
 _symmetry_equiv_pos_as_xyz
  1  'x, y, z'
loop_
 _atom_site_type_symbol
 _atom_site_label
 _atom_site_symmetry_multiplicity
 _atom_site_fract_x
 _atom_site_fract_y
 _atom_site_fract_z
 _atom_site_occupancy
  Mg  Mg0  1  0.04110004  0.66933674  0.60031479  1
  Cu  Cu0  1  0.56216162  0.82666770  0.23739364  1
  Cu  Cu1  1  0.06828329  0.21306779  0.79339201  1
  I  I0  1  0.45590059  0.30422028  0.07253284  1
  I  I1  1  0.96533828  0.75923573  0.95152652  1
  I  I2  1  0.00130968  0.14673422  0.38420833  1
  I  I3  1  0.49124231  0.78617950  0.59533594  1
  O  O0  1  0.34283786  0.51827221  0.55308840  1
  O  O1  1  0.88413633  0.43840166  0.47059977  1
  O  O2  1  0.44212626  0.93595829  0.43702306  1
  O  O3  1  0.91164594  -0.04246601  0.52011377  1
  O  O4  1  0.25144616  0.92137023  0.72224283  1
  O  O5  1  0.80840718  0.06799020  0.25043001  1
  O  O6  1  0.74222923  0.65822164  0.05829581  1
  O  O7  1  0.26241629  0.39404977  0.94332181  1
  O  O8  1  0.93985424  0.54612392  0.78302717  1
  O  O9  1  0.38078803  0.53183635  0.22362130  1
  O  O10  1  0.83068674  0.01545390  0.87834791  1
  O  O11  1  0.32442891  0.04744088  0.13232511  1
loop_
_geom_bond_atom_site_label_1
_geom_bond_atom_site_label_2
_geom_bond_distance
_geom_bond_site_symmetry_2
Mg0 O3 2.018782 1_465
Mg0 O1 2.026460 1_455
Mg0 O0 2.027371 1_555
Mg0 O8 2.028797 1_455
Mg0 O4 2.263324 1_555
Cu0 O2 2.014304 1_555
Cu0 O9 2.071078 1_555
Cu0 O6 2.086258 1_555
Cu0 O5 2.121217 1_565
Cu0 O11 2.230724 1_565
Cu1 O4 1.976722 1_545
Cu1 O8 2.014636 1_455
Cu1 O10 2.097945 1_455
Cu1 O7 2.134310 1_555
I0 O9 1.832642 1_555
I0 O11 1.843763 1_555
I0 O7 1.858448 1_554
I1 O6 1.840533 1_556
I1 O10 1.852234 1_565
I1 O8 1.908567 1_555
I2 O5 1.835844 1_455
I2 O1 1.843239 1_455
I2 O3 1.855626 1_455
I3 O2 1.839211 1_555
I3 O0 1.842613 1_555
I3 O4 1.932659 1_555
