# generated using pymatgen
data_Na3TaZnSi(PO6)2
_symmetry_space_group_name_H-M   'P 1'
_cell_length_a   15.78268330
_cell_length_b   8.99448158
_cell_length_c   8.84641077
_cell_angle_alpha   90.00000000
_cell_angle_beta   124.60371525
_cell_angle_gamma   90.00000000
_symmetry_Int_Tables_number   1
_chemical_formula_structural   Na3TaZnSi(PO6)2
_chemical_formula_sum   'Na12 Ta4 Zn4 Si4 P8 O48'
_cell_volume   1033.65698086
_cell_formula_units_Z   4
loop_
 _symmetry_equiv_pos_site_id
 _symmetry_equiv_pos_as_xyz
  1  'x, y, z'
loop_
 _atom_site_type_symbol
 _atom_site_label
 _atom_site_symmetry_multiplicity
 _atom_site_fract_x
 _atom_site_fract_y
 _atom_site_fract_z
 _atom_site_occupancy
  Na  Na0  1  0.25232734  0.72360424  0.97766209  1
  Na  Na1  1  0.75232734  0.77639576  0.47766209  1
  Na  Na2  1  0.75232734  0.22360424  0.97766209  1
  Na  Na3  1  0.25232734  0.27639576  0.47766209  1
  Na  Na4  1  0.50911271  0.11433183  0.74998140  1
  Na  Na5  1  0.50911271  0.88566817  0.24998140  1
  Na  Na6  1  0.00911271  0.61433183  0.74998140  1
  Na  Na7  1  0.00911271  0.38566817  0.24998140  1
  Na  Na8  1  0.17992628  0.93602978  0.29074930  1
  Na  Na9  1  0.17992628  0.06397022  0.79074930  1
  Na  Na10  1  0.67992628  0.43602978  0.29074930  1
  Na  Na11  1  0.67992628  0.56397022  0.79074930  1
  Ta  Ta0  1  0.89452580  0.75597906  0.93630394  1
  Ta  Ta1  1  0.89452580  0.24402094  0.43630394  1
  Ta  Ta2  1  0.39452580  0.25597906  0.93630394  1
  Ta  Ta3  1  0.39452580  0.74402094  0.43630394  1
  Zn  Zn0  1  0.09938796  0.73945452  0.55285759  1
  Zn  Zn1  1  0.09938796  0.26054548  0.05285759  1
  Zn  Zn2  1  0.59938796  0.23945452  0.55285759  1
  Zn  Zn3  1  0.59938796  0.76054548  0.05285759  1
  Si  Si0  1  0.64744081  0.88852143  0.74506064  1
  Si  Si1  1  0.64744081  0.11147857  0.24506064  1
  Si  Si2  1  0.14744081  0.38852143  0.74506064  1
  Si  Si3  1  0.14744081  0.61147857  0.24506064  1
  P  P0  1  0.99949045  0.95927026  0.76533914  1
  P  P1  1  0.99949045  0.04072974  0.26533914  1
  P  P2  1  0.49949045  0.45927026  0.76533914  1
  P  P3  1  0.49949045  0.54072974  0.26533914  1
  P  P4  1  0.35440301  0.90246076  0.76167638  1
  P  P5  1  0.35440301  0.09753924  0.26167638  1
  P  P6  1  0.85440301  0.40246076  0.76167638  1
  P  P7  1  0.85440301  0.59753924  0.26167638  1
  O  O0  1  0.15044720  0.56687336  0.73924644  1
  O  O1  1  0.85567903  0.57968706  0.75219557  1
  O  O2  1  0.85567903  0.42031294  0.25219557  1
  O  O3  1  0.15044720  0.43312664  0.23924644  1
  O  O4  1  0.65044720  0.06687336  0.73924644  1
  O  O5  1  0.35567903  0.07968706  0.75219557  1
  O  O6  1  0.35567903  0.92031294  0.25219557  1
  O  O7  1  0.65044720  0.93312664  0.23924644  1
  O  O8  1  0.43857918  0.56900625  0.59309482  1
  O  O9  1  0.55987267  0.54658670  0.94110972  1
  O  O10  1  0.55987267  0.45341330  0.44110972  1
  O  O11  1  0.43857918  0.43099375  0.09309482  1
  O  O12  1  0.93857918  0.06900625  0.59309482  1
  O  O13  1  0.05987267  0.04658670  0.94110972  1
  O  O14  1  0.05987267  0.95341330  0.44110972  1
  O  O15  1  0.93857918  0.93099375  0.09309482  1
  O  O16  1  0.25758401  0.85838695  0.74781247  1
  O  O17  1  0.74612332  0.80467223  0.75357680  1
  O  O18  1  0.74612332  0.19532777  0.25357680  1
  O  O19  1  0.25758401  0.14161305  0.24781247  1
  O  O20  1  0.75758401  0.35838695  0.74781247  1
  O  O21  1  0.24612332  0.30467223  0.75357680  1
  O  O22  1  0.24612332  0.69532777  0.25357680  1
  O  O23  1  0.75758401  0.64161305  0.24781247  1
  O  O24  1  0.35658162  0.85609446  0.58770206  1
  O  O25  1  0.65120516  0.82083499  0.91382868  1
  O  O26  1  0.65120516  0.17916501  0.41382868  1
  O  O27  1  0.35658162  0.14390554  0.08770206  1
  O  O28  1  0.85658162  0.35609446  0.58770206  1
  O  O29  1  0.15120516  0.32083499  0.91382868  1
  O  O30  1  0.15120516  0.67916501  0.41382868  1
  O  O31  1  0.85658162  0.64390554  0.08770206  1
  O  O32  1  0.45141060  0.84719176  0.93662874  1
  O  O33  1  0.53493956  0.82057577  0.55533945  1
  O  O34  1  0.53493956  0.17942423  0.05533945  1
  O  O35  1  0.45141060  0.15280824  0.43662874  1
  O  O36  1  0.95141060  0.34719176  0.93662874  1
  O  O37  1  0.03493956  0.32057577  0.55533945  1
  O  O38  1  0.03493956  0.67942423  0.05533945  1
  O  O39  1  0.95141060  0.65280824  0.43662874  1
  O  O40  1  0.07002747  0.85505720  0.74768993  1
  O  O41  1  0.91093580  0.86548595  0.75214482  1
  O  O42  1  0.91093580  0.13451405  0.25214482  1
  O  O43  1  0.07002747  0.14494280  0.24768993  1
  O  O44  1  0.57002747  0.35505720  0.74768993  1
  O  O45  1  0.41093580  0.36548595  0.75214482  1
  O  O46  1  0.41093580  0.63451405  0.25214482  1
  O  O47  1  0.57002747  0.64494280  0.24768993  1
loop_
_geom_bond_atom_site_label_1
_geom_bond_atom_site_label_2
_geom_bond_distance
_geom_bond_site_symmetry_2
Na0 O0 2.273608 1_555
Na0 O16 2.408868 1_555
Na0 O46 2.429144 1_556
Na0 O22 2.510677 1_556
Na0 O40 2.677078 1_555
Na0 O6 2.681402 1_556
Na1 O7 2.273608 1_555
Na1 O23 2.408868 1_555
Na1 O41 2.429144 1_555
Na1 O17 2.510677 1_555
Na1 O47 2.677078 1_555
Na1 O1 2.681402 1_555
Na2 O4 2.273608 1_555
Na2 O20 2.408868 1_555
Na2 O42 2.429144 1_556
Na2 O18 2.510677 1_556
Na2 O44 2.677078 1_555
Na2 O2 2.681402 1_556
Na3 O3 2.273608 1_555
Na3 O19 2.408868 1_555
Na3 O45 2.429144 1_555
Na3 O21 2.510677 1_555
Na3 O43 2.677078 1_555
Na3 O5 2.681402 1_555
Na4 O4 2.325419 1_555
Na4 O44 2.373799 1_555
Na4 O35 2.401265 1_555
Na4 O5 2.452648 1_555
Na4 O34 2.560360 1_556
Na4 O45 2.745554 1_555
Na5 O7 2.325419 1_555
Na5 O47 2.373799 1_555
Na5 O32 2.401265 1_554
Na5 O6 2.452648 1_555
Na5 O33 2.560360 1_555
Na5 O46 2.745554 1_555
Na6 O0 2.325419 1_555
Na6 O40 2.373799 1_555
Na6 O39 2.401265 1_455
Na6 O1 2.452648 1_455
Na6 O38 2.560360 1_556
Na6 O41 2.745554 1_455
Na7 O3 2.325419 1_555
Na7 O43 2.373799 1_555
Na7 O36 2.401265 1_454
Na7 O2 2.452648 1_455
Na7 O37 2.560360 1_555
Na7 O42 2.745554 1_455
Na8 O19 2.365265 1_565
Na8 O43 2.435989 1_565
Na8 O22 2.505409 1_555
Na8 O24 2.621552 1_555
Na8 O30 2.699880 1_555
Na8 O13 2.736697 1_564
Na8 O14 2.871666 1_555
Na9 O16 2.365265 1_545
Na9 O40 2.435989 1_545
Na9 O21 2.505409 1_555
Na9 O27 2.621552 1_556
Na9 O29 2.699880 1_555
Na9 O14 2.736697 1_545
Na9 O13 2.871666 1_555
Na10 O23 2.365265 1_555
Na10 O47 2.435989 1_555
Na10 O18 2.505409 1_555
Na10 O28 2.621552 1_555
Na10 O26 2.699880 1_555
Na10 O9 2.736697 1_554
Na10 O10 2.871666 1_555
Na11 O20 2.365265 1_555
Na11 O44 2.435989 1_555
Na11 O17 2.505409 1_555
Na11 O31 2.621552 1_556
Na11 O25 2.699880 1_555
Na11 O10 2.736697 1_555
Na11 O9 2.871666 1_555
O0 Si2 1.606572 1_555
O0 Zn0 2.066050 1_555
O1 P6 1.596991 1_555
O1 Ta0 2.099689 1_555
O2 P7 1.596991 1_555
O2 Ta1 2.099689 1_555
O3 Si3 1.606572 1_555
O3 Zn1 2.066050 1_555
O4 Si0 1.606572 1_545
O4 Zn2 2.066050 1_555
O5 P4 1.596991 1_545
O5 Ta2 2.099689 1_555
O6 P5 1.596991 1_565
O6 Ta3 2.099689 1_555
O7 Si1 1.606572 1_565
O7 Zn3 2.066050 1_555
O8 P2 1.598882 1_555
O8 Ta3 1.946779 1_555
O9 P2 1.503249 1_555
O9 Zn3 2.090327 1_556
O10 P3 1.503249 1_555
O10 Zn2 2.090327 1_555
O11 P3 1.598882 1_555
O11 Ta2 1.946779 1_554
O12 P0 1.598882 1_545
O12 Ta1 1.946779 1_555
O13 P0 1.503249 1_445
O13 Zn1 2.090327 1_556
O14 P1 1.503249 1_465
O14 Zn0 2.090327 1_555
O15 P1 1.598882 1_565
O15 Ta0 1.946779 1_554
O16 P4 1.514698 1_555
O16 Zn0 2.337046 1_555
O17 Si0 1.693199 1_555
O17 Ta0 1.997609 1_555
O18 Si1 1.693199 1_555
O18 Ta1 1.997609 1_555
O19 P5 1.514698 1_555
O19 Zn1 2.337046 1_555
O20 P6 1.514698 1_555
O20 Zn2 2.337046 1_555
O21 Si2 1.693199 1_555
O21 Ta2 1.997609 1_555
O22 Si3 1.693199 1_555
O22 Ta3 1.997609 1_555
O23 P7 1.514698 1_555
O23 Zn3 2.337046 1_555
O24 P4 1.613654 1_555
O24 Ta3 2.019797 1_555
O25 Si0 1.581913 1_555
O25 Zn3 1.902097 1_556
O26 Si1 1.581913 1_555
O26 Zn2 1.902097 1_555
O27 P5 1.613654 1_555
O27 Ta2 2.019797 1_554
O28 P6 1.613654 1_555
O28 Ta1 2.019797 1_555
O29 Si2 1.581913 1_555
O29 Zn1 1.902097 1_556
O30 Si3 1.581913 1_555
O30 Zn0 1.902097 1_555
O31 P7 1.613654 1_555
O31 Ta0 2.019797 1_554
O32 P4 1.514997 1_555
O32 Zn3 2.095614 1_556
O33 Si0 1.719971 1_555
O33 Ta3 1.960512 1_555
O34 Si1 1.719971 1_555
O34 Ta2 1.960512 1_554
O35 P5 1.514997 1_555
O35 Zn2 2.095614 1_555
O36 P6 1.514997 1_555
O36 Zn1 2.095614 1_656
O37 Si2 1.719971 1_555
O37 Ta1 1.960512 1_455
O38 Si3 1.719971 1_555
O38 Ta0 1.960512 1_454
O39 P7 1.514997 1_555
O39 Zn0 2.095614 1_655
O40 P0 1.529628 1_455
O40 Zn0 2.274577 1_555
O41 P0 1.579009 1_555
O41 Ta0 2.042199 1_555
O42 P1 1.579009 1_555
O42 Ta1 2.042199 1_555
O43 P1 1.529628 1_455
O43 Zn1 2.274577 1_555
O44 P2 1.529628 1_555
O44 Zn2 2.274577 1_555
O45 P2 1.579009 1_555
O45 Ta2 2.042199 1_555
O46 P3 1.579009 1_555
O46 Ta3 2.042199 1_555
O47 P3 1.529628 1_555
O47 Zn3 2.274577 1_555
