# generated using pymatgen
data_K2TiCl6
_symmetry_space_group_name_H-M   'P 1'
_cell_length_a   6.93603498
_cell_length_b   6.93603448
_cell_length_c   6.93603395
_cell_angle_alpha   60.00000246
_cell_angle_beta   60.00000487
_cell_angle_gamma   59.99999530
_symmetry_Int_Tables_number   1
_chemical_formula_structural   K2TiCl6
_chemical_formula_sum   'K2 Ti1 Cl6'
_cell_volume   235.94932487
_cell_formula_units_Z   1
loop_
 _symmetry_equiv_pos_site_id
 _symmetry_equiv_pos_as_xyz
  1  'x, y, z'
loop_
 _atom_site_type_symbol
 _atom_site_label
 _atom_site_symmetry_multiplicity
 _atom_site_fract_x
 _atom_site_fract_y
 _atom_site_fract_z
 _atom_site_occupancy
  K  K0  1  0.25000000  0.25000000  0.25000000  1
  K  K1  1  0.75000000  0.75000000  0.75000000  1
  Ti  Ti0  1  -0.00000000  0.00000000  0.00000000  1
  Cl  Cl0  1  0.23918284  0.76081716  0.76081716  1
  Cl  Cl1  1  0.23918284  0.76081716  0.23918284  1
  Cl  Cl2  1  0.76081716  0.23918284  0.76081716  1
  Cl  Cl3  1  0.76081716  0.23918284  0.23918284  1
  Cl  Cl4  1  0.76081716  0.76081716  0.23918284  1
  Cl  Cl5  1  0.23918284  0.23918284  0.76081716  1
loop_
_geom_bond_atom_site_label_1
_geom_bond_atom_site_label_2
_geom_bond_distance
_geom_bond_site_symmetry_2
Cl0 Ti0 2.346152 1_566
Cl0 K0 3.469640 1_556
Cl0 K0 3.469640 1_565
Cl0 K1 3.469640 1_455
Cl0 K1 3.469640 1_555
Cl1 Ti0 2.346152 1_565
Cl1 K0 3.469640 1_555
Cl1 K0 3.469640 1_565
Cl1 K1 3.469640 1_455
Cl1 K1 3.469640 1_554
Cl2 Ti0 2.346152 1_656
Cl2 K1 3.469640 1_555
Cl2 K1 3.469640 1_545
Cl2 K0 3.469640 1_655
Cl2 K0 3.469640 1_556
Cl3 Ti0 2.346152 1_655
Cl3 K1 3.469640 1_554
Cl3 K1 3.469640 1_545
Cl3 K0 3.469640 1_655
Cl3 K0 3.469640 1_555
Cl4 Ti0 2.346153 1_665
Cl4 K1 3.469640 1_555
Cl4 K1 3.469640 1_554
Cl4 K0 3.469640 1_655
Cl4 K0 3.469640 1_565
Cl5 Ti0 2.346153 1_556
Cl5 K0 3.469640 1_555
Cl5 K0 3.469640 1_556
Cl5 K1 3.469640 1_455
Cl5 K1 3.469640 1_545
