# generated using pymatgen
data_W3O
_symmetry_space_group_name_H-M   'P 1'
_cell_length_a   4.98014100
_cell_length_b   4.98014100
_cell_length_c   4.98014100
_cell_angle_alpha   90.00000000
_cell_angle_beta   90.00000000
_cell_angle_gamma   90.00000000
_symmetry_Int_Tables_number   1
_chemical_formula_structural   W3O
_chemical_formula_sum   'W6 O2'
_cell_volume   123.51648287
_cell_formula_units_Z   2
loop_
 _symmetry_equiv_pos_site_id
 _symmetry_equiv_pos_as_xyz
  1  'x, y, z'
loop_
 _atom_site_type_symbol
 _atom_site_label
 _atom_site_symmetry_multiplicity
 _atom_site_fract_x
 _atom_site_fract_y
 _atom_site_fract_z
 _atom_site_occupancy
  W  W0  1  0.50000000  0.75000000  0.00000000  1
  W  W1  1  0.00000000  0.50000000  0.75000000  1
  W  W2  1  0.25000000  0.00000000  0.50000000  1
  W  W3  1  0.50000000  0.25000000  0.00000000  1
  W  W4  1  0.00000000  0.50000000  0.25000000  1
  W  W5  1  0.75000000  0.00000000  0.50000000  1
  O  O0  1  0.50000000  0.50000000  0.50000000  1
  O  O1  1  0.00000000  0.00000000  0.00000000  1
loop_
_geom_bond_atom_site_label_1
_geom_bond_atom_site_label_2
_geom_bond_distance
_geom_bond_site_symmetry_2
W0 W3 2.490070 1_555
W0 W3 2.490070 1_565
W1 W4 2.490070 1_555
W1 W4 2.490070 1_556
W2 W5 2.490070 1_555
W2 W5 2.490070 1_455
O0 W3 2.783983 1_555
O0 W0 2.783983 1_555
O0 W1 2.783983 1_555
O0 W5 2.783983 1_555
O0 W5 2.783983 1_565
O0 W3 2.783983 1_556
O0 W1 2.783983 1_655
O0 W4 2.783983 1_555
O0 W0 2.783983 1_556
O0 W4 2.783983 1_655
O0 W2 2.783983 1_555
O0 W2 2.783983 1_565
O1 W0 2.783983 1_545
O1 W1 2.783983 1_554
O1 W3 2.783983 1_555
O1 W5 2.783983 1_455
O1 W5 2.783983 1_454
O1 W4 2.783983 1_545
O1 W1 2.783983 1_544
O1 W4 2.783983 1_555
O1 W3 2.783983 1_455
O1 W0 2.783983 1_445
O1 W2 2.783983 1_555
O1 W2 2.783983 1_554
