# generated using pymatgen
data_Ni3N
_symmetry_space_group_name_H-M   'P 1'
_cell_length_a   4.57972487
_cell_length_b   4.57972424
_cell_length_c   4.22891415
_cell_angle_alpha   90.00000000
_cell_angle_beta   90.00000000
_cell_angle_gamma   119.99999728
_symmetry_Int_Tables_number   1
_chemical_formula_structural   Ni3N
_chemical_formula_sum   'Ni6 N2'
_cell_volume   76.81361933
_cell_formula_units_Z   2
loop_
 _symmetry_equiv_pos_site_id
 _symmetry_equiv_pos_as_xyz
  1  'x, y, z'
loop_
 _atom_site_type_symbol
 _atom_site_label
 _atom_site_symmetry_multiplicity
 _atom_site_fract_x
 _atom_site_fract_y
 _atom_site_fract_z
 _atom_site_occupancy
  Ni  Ni0  1  -0.00000000  0.67223490  0.50000000  1
  Ni  Ni1  1  0.00000000  0.32776510  0.00000000  1
  Ni  Ni2  1  0.67223490  0.67223490  -0.00000000  1
  Ni  Ni3  1  0.67223490  0.00000000  0.50000000  1
  Ni  Ni4  1  0.32776510  0.32776510  0.50000000  1
  Ni  Ni5  1  0.32776510  -0.00000000  0.00000000  1
  N  N0  1  0.66666700  0.33333300  0.75000000  1
  N  N1  1  0.33333300  0.66666700  0.25000000  1
loop_
_geom_bond_atom_site_label_1
_geom_bond_atom_site_label_2
_geom_bond_distance
_geom_bond_site_symmetry_2
N0 Ni3 1.867548 1_555
N0 Ni1 1.867548 1_656
N0 Ni0 1.867550 1_655
N0 Ni5 1.867550 1_556
N0 Ni2 1.867552 1_556
N0 Ni4 1.867552 1_555
N1 Ni5 1.867548 1_565
N1 Ni0 1.867548 1_555
N1 Ni1 1.867550 1_555
N1 Ni3 1.867550 1_565
N1 Ni4 1.867552 1_555
N1 Ni2 1.867552 1_555
