# generated using pymatgen
data_MgMn6(O5F)2
_symmetry_space_group_name_H-M   'P 1'
_cell_length_a   8.26764775
_cell_length_b   5.92837206
_cell_length_c   5.71463028
_cell_angle_alpha   66.81300822
_cell_angle_beta   64.99175633
_cell_angle_gamma   63.09725355
_symmetry_Int_Tables_number   1
_chemical_formula_structural   MgMn6(O5F)2
_chemical_formula_sum   'Mg1 Mn6 O10 F2'
_cell_volume   219.14679194
_cell_formula_units_Z   1
loop_
 _symmetry_equiv_pos_site_id
 _symmetry_equiv_pos_as_xyz
  1  'x, y, z'
loop_
 _atom_site_type_symbol
 _atom_site_label
 _atom_site_symmetry_multiplicity
 _atom_site_fract_x
 _atom_site_fract_y
 _atom_site_fract_z
 _atom_site_occupancy
  Mg  Mg0  1  0.83320119  0.19081531  0.65588878  1
  Mn  Mn0  1  0.85636767  0.68000404  0.69552506  1
  Mn  Mn1  1  0.65121268  0.33493753  0.30262217  1
  Mn  Mn2  1  0.30646572  0.66441070  0.65690418  1
  Mn  Mn3  1  0.19955774  0.34701438  0.34454141  1
  Mn  Mn4  1  0.47083279  0.99577979  0.99533183  1
  Mn  Mn5  1  0.99438826  -0.00090834  0.03817632  1
  O  O0  1  0.66362494  0.03618116  0.64327495  1
  O  O1  1  0.32469324  0.36396232  0.96859884  1
  O  O2  1  0.92122711  0.22175145  0.25360657  1
  O  O3  1  0.72905961  0.12197924  0.08076389  1
  O  O4  1  0.01860243  0.82662896  0.78852743  1
  O  O5  1  0.38215775  0.44582915  0.42183318  1
  O  O6  1  0.33459882  0.97500848  0.36887360  1
  O  O7  1  0.65417095  0.64075755  0.02218050  1
  O  O8  1  0.00507725  0.31009063  0.70629995  1
  O  O9  1  0.00264499  0.69608796  0.32384958  1
  F  F0  1  0.27443385  0.88701222  0.91852336  1
  F  F1  1  0.62768502  0.52456548  0.55277539  1
loop_
_geom_bond_atom_site_label_1
_geom_bond_atom_site_label_2
_geom_bond_distance
_geom_bond_site_symmetry_2
Mg0 O8 2.004520 1_655
Mg0 O0 2.027747 1_555
Mg0 O2 2.054849 1_555
Mg0 O4 2.069854 1_645
Mg0 O3 2.138517 1_556
Mn0 O7 1.924797 1_556
Mn0 O9 1.938052 1_655
Mn0 O8 1.960179 1_655
Mn0 O0 1.986942 1_565
Mn0 O4 2.204261 1_655
Mn1 O3 1.857619 1_555
Mn1 O7 1.890756 1_555
Mn1 O5 1.895387 1_555
Mn1 O2 1.943190 1_555
Mn1 O0 2.055835 1_555
Mn2 O5 1.949751 1_555
Mn2 O6 1.957324 1_555
Mn2 O1 1.963086 1_555
Mn2 O4 2.034603 1_555
Mn3 O1 1.934112 1_554
Mn3 O6 1.947083 1_545
Mn3 O9 1.966769 1_555
Mn3 O8 2.014632 1_555
Mn3 O5 2.094099 1_555
Mn4 O6 1.930337 1_556
Mn4 O1 1.937612 1_565
Mn4 O7 1.950947 1_556
Mn4 O0 1.974925 1_565
Mn5 O2 1.884528 1_555
Mn5 O9 1.889584 1_645
Mn5 O3 1.908941 1_555
Mn5 O4 1.960276 1_644
Mn5 O8 2.063059 1_654
F0 Mn5 1.974023 1_466
F0 Mn2 2.224740 1_555
F0 Mn4 2.240094 1_555
F1 Mg0 2.008776 1_555
F1 Mn1 2.043943 1_555
F1 Mn2 2.270281 1_555
