# generated using pymatgen
data_Na2ZrZn3(SO4)6
_symmetry_space_group_name_H-M   'P 1'
_cell_length_a   8.76167263
_cell_length_b   8.76167235
_cell_length_c   22.93451368
_cell_angle_alpha   90.00000000
_cell_angle_beta   90.00000000
_cell_angle_gamma   120.00000110
_symmetry_Int_Tables_number   1
_chemical_formula_structural   Na2ZrZn3(SO4)6
_chemical_formula_sum   'Na6 Zr3 Zn9 S18 O72'
_cell_volume   1524.73437972
_cell_formula_units_Z   3
loop_
 _symmetry_equiv_pos_site_id
 _symmetry_equiv_pos_as_xyz
  1  'x, y, z'
loop_
 _atom_site_type_symbol
 _atom_site_label
 _atom_site_symmetry_multiplicity
 _atom_site_fract_x
 _atom_site_fract_y
 _atom_site_fract_z
 _atom_site_occupancy
  Na  Na0  1  -0.00000000  -0.00000000  0.50790148  1
  Na  Na1  1  -0.00000000  -0.00000000  0.00575858  1
  Na  Na2  1  0.66666700  0.33333300  0.82839767  1
  Na  Na3  1  0.66666700  0.33333300  0.33633116  1
  Na  Na4  1  0.33333300  0.66666700  0.17620813  1
  Na  Na5  1  0.33333300  0.66666700  0.66022525  1
  Zr  Zr0  1  -0.00000000  -0.00000000  0.35414048  1
  Zr  Zr1  1  -0.00000000  -0.00000000  0.84840796  1
  Zr  Zr2  1  0.33333300  0.66666700  0.02181423  1
  Zn  Zn0  1  -0.00000000  -0.00000000  0.64352315  1
  Zn  Zn1  1  -0.00000000  -0.00000000  0.15430577  1
  Zn  Zn2  1  0.66666700  0.33333300  0.67435638  1
  Zn  Zn3  1  0.66666700  0.33333300  0.18716062  1
  Zn  Zn4  1  0.66666700  0.33333300  0.98597398  1
  Zn  Zn5  1  0.66666700  0.33333300  0.48867286  1
  Zn  Zn6  1  0.33333300  0.66666700  0.52029792  1
  Zn  Zn7  1  0.33333300  0.66666700  0.31998535  1
  Zn  Zn8  1  0.33333300  0.66666700  0.81209569  1
  S  S0  1  0.29572008  0.99865262  0.24803697  1
  S  S1  1  0.70293254  0.70427992  0.24803697  1
  S  S2  1  0.00134738  0.29706746  0.24803697  1
  S  S3  1  0.29812826  0.29791669  0.74760617  1
  S  S4  1  -0.00021158  0.70187174  0.74760617  1
  S  S5  1  0.70208331  0.00021157  0.74760617  1
  S  S6  1  0.96183794  0.33429636  0.58338253  1
  S  S7  1  0.37245942  0.03816206  0.58338253  1
  S  S8  1  0.66570364  0.62754058  0.58338253  1
  S  S9  1  0.95167435  0.62636007  0.08371538  1
  S  S10  1  0.67468671  0.04832565  0.08371538  1
  S  S11  1  0.37363993  0.32531329  0.08371538  1
  S  S12  1  0.62372756  0.66137354  0.91554513  1
  S  S13  1  0.03764499  0.37627244  0.91554513  1
  S  S14  1  0.33862646  0.96235501  0.91554513  1
  S  S15  1  0.61861994  0.95987209  0.41695906  1
  S  S16  1  0.34125114  0.38138006  0.41695906  1
  S  S17  1  0.04012791  0.65874886  0.41695906  1
  O  O0  1  0.20671750  0.02273141  0.30082082  1
  O  O1  1  0.81601390  0.79328250  0.30082082  1
  O  O2  1  0.97726859  0.18398610  0.30082082  1
  O  O3  1  0.20760482  0.18500690  0.80306082  1
  O  O4  1  0.97740208  0.79239518  0.80306082  1
  O  O5  1  0.81499310  0.02259792  0.80306082  1
  O  O6  1  0.78809823  0.97393127  0.69761579  1
  O  O7  1  0.18583304  0.21190177  0.69761579  1
  O  O8  1  0.02606873  0.81416696  0.69761579  1
  O  O9  1  0.78372109  0.81103356  0.19527477  1
  O  O10  1  0.02731247  0.21627891  0.19527477  1
  O  O11  1  0.18896644  0.97268753  0.19527477  1
  O  O12  1  0.88437958  0.36122213  0.63736341  1
  O  O13  1  0.47684355  0.11562042  0.63736341  1
  O  O14  1  0.63877787  0.52315645  0.63736341  1
  O  O15  1  0.87926834  0.51750350  0.13562483  1
  O  O16  1  0.63823616  0.12073166  0.13562483  1
  O  O17  1  0.48249650  0.36176384  0.13562483  1
  O  O18  1  0.45178805  0.30485100  0.02943576  1
  O  O19  1  0.85306395  0.54821195  0.02943576  1
  O  O20  1  0.69514900  0.14693605  0.02943576  1
  O  O21  1  0.45196241  0.14547922  0.53052946  1
  O  O22  1  0.69351781  0.54803759  0.53052946  1
  O  O23  1  0.85452078  0.30648219  0.53052946  1
  O  O24  1  0.54115220  0.69000221  0.96908766  1
  O  O25  1  0.14884901  0.45884780  0.96908766  1
  O  O26  1  0.30999779  0.85115099  0.96908766  1
  O  O27  1  0.54631915  0.85081246  0.46881242  1
  O  O28  1  0.30449231  0.45368085  0.46881242  1
  O  O29  1  0.14918754  0.69550769  0.46881242  1
  O  O30  1  0.11827217  0.63788201  0.36267733  1
  O  O31  1  0.51960884  0.88172783  0.36267733  1
  O  O32  1  0.36211799  0.48039116  0.36267733  1
  O  O33  1  0.12172226  0.48055562  0.86380771  1
  O  O34  1  0.35883236  0.87827774  0.86380771  1
  O  O35  1  0.51944438  0.64116764  0.86380771  1
  O  O36  1  0.02210885  0.82428728  0.40901450  1
  O  O37  1  0.80217843  0.97789115  0.40901450  1
  O  O38  1  0.17571272  0.19782157  0.40901450  1
  O  O39  1  0.02374778  0.19781115  0.91210929  1
  O  O40  1  0.17406337  0.97625222  0.91210929  1
  O  O41  1  0.80218885  0.82593663  0.91210929  1
  O  O42  1  0.97793770  0.17326250  0.58876308  1
  O  O43  1  0.19532479  0.02206230  0.58876308  1
  O  O44  1  0.82673750  0.80467521  0.58876308  1
  O  O45  1  0.97915123  0.80609815  0.08893543  1
  O  O46  1  0.82694692  0.02084877  0.08893543  1
  O  O47  1  0.19390185  0.17305308  0.08893543  1
  O  O48  1  0.69010526  0.16153292  0.74607523  1
  O  O49  1  0.47142866  0.30989474  0.74607523  1
  O  O50  1  0.83846708  0.52857134  0.74607523  1
  O  O51  1  0.69175106  0.53033385  0.24470501  1
  O  O52  1  0.83858380  0.30824894  0.24470501  1
  O  O53  1  0.46966615  0.16141620  0.24470501  1
  O  O54  1  0.64533066  0.50687158  0.92346617  1
  O  O55  1  0.86154191  0.35466934  0.92346617  1
  O  O56  1  0.49312842  0.13845809  0.92346617  1
  O  O57  1  0.64591255  0.13944412  0.42236134  1
  O  O58  1  0.49353256  0.35408745  0.42236134  1
  O  O59  1  0.86055588  0.50646744  0.42236134  1
  O  O60  1  0.35531772  0.49055237  0.07620054  1
  O  O61  1  0.13523366  0.64468228  0.07620054  1
  O  O62  1  0.50944763  0.86476634  0.07620054  1
  O  O63  1  0.35496581  0.86098190  0.57801380  1
  O  O64  1  0.50601510  0.64503419  0.57801380  1
  O  O65  1  0.13901810  0.49398490  0.57801380  1
  O  O66  1  0.31211489  0.84017889  0.25552641  1
  O  O67  1  0.52806300  0.68788511  0.25552641  1
  O  O68  1  0.15982111  0.47193700  0.25552641  1
  O  O69  1  0.31137512  0.47077460  0.75695430  1
  O  O70  1  0.15939848  0.68862488  0.75695430  1
  O  O71  1  0.52922540  0.84060152  0.75695430  1
loop_
_geom_bond_atom_site_label_1
_geom_bond_atom_site_label_2
_geom_bond_distance
_geom_bond_site_symmetry_2
Na0 O44 2.464670 1_445
Na0 O43 2.464670 1_555
Na0 O42 2.464670 1_455
Na0 O38 2.801679 1_555
Na0 O36 2.801679 1_545
Na0 O37 2.801679 1_445
Na1 O45 2.499664 1_445
Na1 O47 2.499664 1_555
Na1 O46 2.499664 1_455
Na1 O39 2.701769 1_554
Na1 O41 2.701769 1_444
Na1 O40 2.701769 1_544
Na2 O50 2.486307 1_555
Na2 O48 2.486307 1_555
Na2 O49 2.486307 1_555
Na2 O56 2.717536 1_555
Na2 O55 2.717536 1_555
Na2 O54 2.717536 1_555
Na3 O57 2.550100 1_555
Na3 O59 2.550100 1_555
Na3 O58 2.550100 1_555
Na3 O51 2.657840 1_555
Na3 O53 2.657840 1_555
Na3 O52 2.657840 1_555
Na4 O68 2.436715 1_555
Na4 O66 2.436715 1_555
Na4 O67 2.436715 1_555
Na4 O62 2.824195 1_555
Na4 O61 2.824195 1_555
Na4 O60 2.824195 1_555
Na5 O63 2.483314 1_555
Na5 O65 2.483314 1_555
Na5 O64 2.483314 1_555
Na5 O69 2.752108 1_555
Na5 O71 2.752108 1_555
Na5 O70 2.752108 1_555
O0 S0 1.510833 1_545
O0 Zr0 2.110626 1_555
O1 S1 1.510833 1_555
O1 Zr0 2.110626 1_665
O2 S2 1.510833 1_655
O2 Zr0 2.110626 1_655
O3 S3 1.562256 1_555
O3 Zr1 2.017256 1_555
O4 S4 1.562256 1_655
O4 Zr1 2.017256 1_665
O5 S5 1.562256 1_555
O5 Zr1 2.017256 1_655
O6 S5 1.452236 1_565
O6 Zn0 2.148065 1_665
O7 S3 1.452236 1_555
O7 Zn0 2.148065 1_555
O8 S4 1.452236 1_555
O8 Zn0 2.148065 1_565
O9 S1 1.475843 1_555
O9 Zn1 2.019293 1_665
O10 S2 1.475843 1_555
O10 Zn1 2.019293 1_555
O11 S0 1.475843 1_555
O11 Zn1 2.019293 1_565
O12 S6 1.486289 1_555
O12 Zn2 1.987979 1_555
O13 S7 1.486289 1_555
O13 Zn2 1.987979 1_555
O14 S8 1.486289 1_555
O14 Zn2 1.987979 1_555
O15 S9 1.457531 1_555
O15 Zn3 2.113020 1_555
O16 S10 1.457531 1_555
O16 Zn3 2.113020 1_555
O17 S11 1.457531 1_555
O17 Zn3 2.113020 1_555
O18 S11 1.474260 1_555
O18 Zn4 2.032379 1_554
O19 S9 1.474260 1_555
O19 Zn4 2.032379 1_554
O20 S10 1.474260 1_555
O20 Zn4 2.032379 1_554
O21 S7 1.477734 1_555
O21 Zn5 2.018196 1_555
O22 S8 1.477734 1_555
O22 Zn5 2.018196 1_555
O23 S6 1.477734 1_555
O23 Zn5 2.018196 1_555
O24 S12 1.508563 1_555
O24 Zr2 2.108862 1_556
O25 S13 1.508563 1_555
O25 Zr2 2.108862 1_556
O26 S14 1.508563 1_555
O26 Zr2 2.108862 1_556
O27 S15 1.457160 1_555
O27 Zn6 2.113992 1_555
O28 S16 1.457160 1_555
O28 Zn6 2.113992 1_555
O29 S17 1.457160 1_555
O29 Zn6 2.113992 1_555
O30 S17 1.475541 1_555
O30 Zn7 2.024256 1_555
O31 S15 1.475541 1_555
O31 Zn7 2.024256 1_555
O32 S16 1.475541 1_555
O32 Zn7 2.024256 1_555
O33 S13 1.453402 1_555
O33 Zn8 2.116556 1_555
O34 S14 1.453402 1_555
O34 Zn8 2.116556 1_555
O35 S12 1.453402 1_555
O35 Zn8 2.116557 1_555
O36 S17 1.546205 1_555
O36 Zr0 2.071176 1_565
O37 S15 1.546213 1_555
O37 Zr0 2.071176 1_665
O38 S16 1.546210 1_555
O38 Zr0 2.071176 1_555
O39 S13 1.508493 1_555
O39 Zr1 2.195657 1_555
O40 S14 1.508484 1_555
O40 Zr1 2.195657 1_565
O41 S12 1.508489 1_555
O41 Zr1 2.195657 1_665
O42 S6 1.491598 1_555
O42 Zn0 2.052467 1_655
O43 S7 1.491607 1_555
O43 Zn0 2.052467 1_555
O44 S8 1.491603 1_555
O44 Zn0 2.052467 1_665
O45 S9 1.474171 1_555
O45 Zn1 2.203864 1_665
O46 S10 1.474163 1_555
O46 Zn1 2.203864 1_655
O47 S11 1.474168 1_555
O47 Zn1 2.203864 1_555
O48 S5 1.469153 1_555
O48 Zn2 2.307070 1_555
O49 S3 1.469162 1_555
O49 Zn2 2.307070 1_555
O50 S4 1.469158 1_655
O50 Zn2 2.307070 1_555
O51 S1 1.479487 1_555
O51 Zn3 2.095226 1_555
O52 S2 1.479478 1_655
O52 Zn3 2.095226 1_555
O53 S0 1.479483 1_545
O53 Zn3 2.095226 1_555
O54 S12 1.468859 1_555
O54 Zn4 2.164773 1_555
O55 S13 1.468842 1_655
O55 Zn4 2.164773 1_555
O56 S14 1.468849 1_545
O56 Zn4 2.164773 1_555
O57 S15 1.473680 1_545
O57 Zn5 2.218771 1_555
O58 S16 1.473698 1_555
O58 Zn5 2.218771 1_555
O59 S17 1.473687 1_655
O59 Zn5 2.218771 1_555
O60 S11 1.543998 1_555
O60 Zr2 2.066683 1_555
O61 S9 1.543981 1_455
O61 Zr2 2.066683 1_555
O62 S10 1.543988 1_565
O62 Zr2 2.066683 1_555
O63 S7 1.486823 1_565
O63 Zn6 2.089009 1_555
O64 S8 1.486840 1_555
O64 Zn6 2.089009 1_555
O65 S6 1.486830 1_455
O65 Zn6 2.089009 1_555
O66 S0 1.475638 1_555
O66 Zn7 2.194045 1_555
O67 S1 1.475647 1_555
O67 Zn7 2.194045 1_555
O68 S2 1.475643 1_555
O68 Zn7 2.194045 1_555
O69 S3 1.475614 1_555
O69 Zn8 2.062030 1_555
O70 S4 1.475606 1_555
O70 Zn8 2.062030 1_555
O71 S5 1.475610 1_565
O71 Zn8 2.062030 1_555
