# generated using pymatgen
data_Sn5(BIr3)2
_symmetry_space_group_name_H-M   'P 1'
_cell_length_a   6.65414310
_cell_length_b   6.65414415
_cell_length_c   5.62227658
_cell_angle_alpha   90.00000000
_cell_angle_beta   90.00000000
_cell_angle_gamma   119.99999975
_symmetry_Int_Tables_number   1
_chemical_formula_structural   Sn5(BIr3)2
_chemical_formula_sum   'Sn5 B2 Ir6'
_cell_volume   215.58928904
_cell_formula_units_Z   1
loop_
 _symmetry_equiv_pos_site_id
 _symmetry_equiv_pos_as_xyz
  1  'x, y, z'
loop_
 _atom_site_type_symbol
 _atom_site_label
 _atom_site_symmetry_multiplicity
 _atom_site_fract_x
 _atom_site_fract_y
 _atom_site_fract_z
 _atom_site_occupancy
  Sn  Sn0  1  0.66666700  0.33333300  0.50000000  1
  Sn  Sn1  1  0.00000000  0.59666777  -0.00000000  1
  Sn  Sn2  1  0.40333223  0.40333223  -0.00000000  1
  Sn  Sn3  1  0.59666777  -0.00000000  -0.00000000  1
  Sn  Sn4  1  0.33333300  0.66666700  0.50000000  1
  B  B0  1  -0.00000000  0.00000000  0.50000000  1
  B  B1  1  -0.00000000  0.00000000  -0.00000000  1
  Ir  Ir0  1  0.00000000  0.25392474  0.74586410  1
  Ir  Ir1  1  0.00000000  0.25392474  0.25413590  1
  Ir  Ir2  1  0.74607526  0.74607526  0.25413590  1
  Ir  Ir3  1  0.25392474  -0.00000000  0.74586410  1
  Ir  Ir4  1  0.25392474  -0.00000000  0.25413590  1
  Ir  Ir5  1  0.74607526  0.74607526  0.74586410  1
loop_
_geom_bond_atom_site_label_1
_geom_bond_atom_site_label_2
_geom_bond_distance
_geom_bond_site_symmetry_2
B0 Ir4 2.183053 1_555
B0 Ir3 2.183053 1_555
B0 Ir5 2.183053 1_445
B0 Ir2 2.183053 1_445
B0 Ir0 2.183053 1_555
B0 Ir1 2.183053 1_555
B1 Ir4 2.212794 1_555
B1 Ir3 2.212794 1_554
B1 Ir5 2.212794 1_444
B1 Ir2 2.212794 1_445
B1 Ir1 2.212794 1_555
B1 Ir0 2.212794 1_554
B1 Sn3 2.683830 1_455
B1 Sn2 2.683831 1_555
B1 Sn1 2.683831 1_545
Ir0 Sn1 2.691273 1_556
Ir0 Sn2 2.750393 1_556
Ir0 Sn3 2.750393 1_456
Ir0 Sn0 2.877799 1_455
Ir0 Sn4 2.877803 1_555
Ir1 Sn1 2.691273 1_555
Ir1 Sn2 2.750393 1_555
Ir1 Sn3 2.750393 1_455
Ir1 Sn0 2.877799 1_455
Ir1 Sn4 2.877803 1_555
Ir2 Sn2 2.691273 1_555
Ir2 Sn1 2.750393 1_655
Ir2 Sn3 2.750393 1_565
Ir2 Sn4 2.877804 1_555
Ir2 Sn0 2.877805 1_555
Ir3 Sn3 2.691273 1_556
Ir3 Sn1 2.750394 1_546
Ir3 Sn2 2.750394 1_556
Ir3 Sn4 2.877799 1_545
Ir3 Sn0 2.877803 1_555
Ir4 Sn3 2.691273 1_555
Ir4 Sn1 2.750394 1_545
Ir4 Sn2 2.750394 1_555
Ir4 Sn4 2.877799 1_545
Ir4 Sn0 2.877803 1_555
Ir5 Sn2 2.691273 1_556
Ir5 Sn1 2.750393 1_656
Ir5 Sn3 2.750393 1_566
Ir5 Sn4 2.877804 1_555
Ir5 Sn0 2.877805 1_555
