# generated using pymatgen
data_Na3Zn2P(SO6)2
_symmetry_space_group_name_H-M   'P 1'
_cell_length_a   8.97990190
_cell_length_b   8.97243607
_cell_length_c   22.12218444
_cell_angle_alpha   89.77552423
_cell_angle_beta   90.00000000
_cell_angle_gamma   120.02752899
_symmetry_Int_Tables_number   1
_chemical_formula_structural   Na3Zn2P(SO6)2
_chemical_formula_sum   'Na18 Zn12 P6 S12 O72'
_cell_volume   1543.17656132
_cell_formula_units_Z   6
loop_
 _symmetry_equiv_pos_site_id
 _symmetry_equiv_pos_as_xyz
  1  'x, y, z'
loop_
 _atom_site_type_symbol
 _atom_site_label
 _atom_site_symmetry_multiplicity
 _atom_site_fract_x
 _atom_site_fract_y
 _atom_site_fract_z
 _atom_site_occupancy
  Na  Na0  1  0.62919698  0.00075174  0.25306283  1
  Na  Na1  1  0.00778157  0.64063403  0.24554063  1
  Na  Na2  1  0.63285246  0.64063403  0.74554063  1
  Na  Na3  1  0.37155476  0.00075174  0.75306283  1
  Na  Na4  1  0.30835378  0.33894301  0.58490312  1
  Na  Na5  1  0.66622516  0.95923669  0.58334929  1
  Na  Na6  1  0.29301253  0.95923669  0.08334929  1
  Na  Na7  1  0.03059024  0.33894301  0.08490312  1
  Na  Na8  1  0.97343489  0.67117605  0.92185590  1
  Na  Na9  1  0.69335265  0.03127236  0.91138490  1
  Na  Na10  1  0.33791871  0.03127236  0.41138490  1
  Na  Na11  1  0.69774016  0.67117605  0.42185590  1
  Na  Na12  1  0.98667608  0.99241624  0.49985235  1
  Na  Na13  1  0.00574016  0.99241624  0.99985235  1
  Na  Na14  1  0.66164508  0.32075093  0.83325244  1
  Na  Na15  1  0.65910685  0.32075093  0.33325244  1
  Na  Na16  1  0.33922060  0.65967337  0.16678127  1
  Na  Na17  1  0.32045177  0.65967337  0.66678127  1
  Zn  Zn0  1  0.00514969  0.01176071  0.34668202  1
  Zn  Zn1  1  0.00661101  0.01176071  0.84668202  1
  Zn  Zn2  1  0.98045622  0.97984883  0.65251675  1
  Zn  Zn3  1  0.99939261  0.97984883  0.15251675  1
  Zn  Zn4  1  0.67927870  0.33569440  0.67997260  1
  Zn  Zn5  1  0.65641671  0.33569440  0.17997260  1
  Zn  Zn6  1  0.65688814  0.33606686  0.98665230  1
  Zn  Zn7  1  0.67917972  0.33606686  0.48665230  1
  Zn  Zn8  1  0.32496624  0.67031930  0.01280348  1
  Zn  Zn9  1  0.34535206  0.67031930  0.51280348  1
  Zn  Zn10  1  0.33771922  0.67923626  0.32100702  1
  Zn  Zn11  1  0.34151604  0.67923626  0.82100702  1
  P  P0  1  0.30129436  0.00247443  0.25087838  1
  P  P1  1  0.70118007  0.00247443  0.75087838  1
  P  P2  1  0.66685709  0.62742774  0.58277191  1
  P  P3  1  0.96057165  0.62742774  0.08277191  1
  P  P4  1  0.33328871  0.97236052  0.91686637  1
  P  P5  1  0.63907081  0.97236052  0.41686637  1
  S  S0  1  0.70139586  0.70207559  0.25167554  1
  S  S1  1  0.00207741  0.29850860  0.24787224  1
  S  S2  1  0.29643119  0.29850860  0.74787224  1
  S  S3  1  0.00067973  0.70207559  0.75167554  1
  S  S4  1  0.96885532  0.33595378  0.58323965  1
  S  S5  1  0.36526478  0.03435723  0.58364571  1
  S  S6  1  0.66909345  0.03435723  0.08364571  1
  S  S7  1  0.36709946  0.33595378  0.08323965  1
  S  S8  1  0.62697522  0.66365959  0.91615658  1
  S  S9  1  0.03950482  0.36967660  0.91703278  1
  S  S10  1  0.33017078  0.36967660  0.41703278  1
  S  S11  1  0.03668337  0.66365959  0.41615658  1
  O  O0  1  0.21600596  0.02101499  0.30896049  1
  O  O1  1  0.80494183  0.77956411  0.30742422  1
  O  O2  1  0.97298376  0.18682018  0.30110453  1
  O  O3  1  0.21383642  0.18682018  0.80110453  1
  O  O4  1  0.97462228  0.77956411  0.80742422  1
  O  O5  1  0.80500904  0.02101499  0.80896049  1
  O  O6  1  0.78229541  0.97360018  0.69348170  1
  O  O7  1  0.19973150  0.21926927  0.69145512  1
  O  O8  1  0.03404657  0.81670340  0.69855058  1
  O  O9  1  0.78265682  0.81670340  0.19855058  1
  O  O10  1  0.01953777  0.21926927  0.19145512  1
  O  O11  1  0.19130476  0.97360018  0.19348170  1
  O  O12  1  0.89044790  0.35739255  0.63864995  1
  O  O13  1  0.47466412  0.11480910  0.63811104  1
  O  O14  1  0.64109824  0.51709755  0.64020826  1
  O  O15  1  0.87600032  0.51709755  0.14020826  1
  O  O16  1  0.64014597  0.11480910  0.13811104  1
  O  O17  1  0.46694565  0.35739255  0.13864995  1
  O  O18  1  0.44511449  0.30341902  0.02959214  1
  O  O19  1  0.85900722  0.54192784  0.02447017  1
  O  O20  1  0.69420140  0.14090464  0.02847754  1
  O  O21  1  0.44670424  0.14090464  0.52847754  1
  O  O22  1  0.68292162  0.54192784  0.52447017  1
  O  O23  1  0.85830553  0.30341902  0.52959214  1
  O  O24  1  0.53685372  0.68366022  0.96860260  1
  O  O25  1  0.13426165  0.44325317  0.97432835  1
  O  O26  1  0.30052944  0.85727517  0.97398205  1
  O  O27  1  0.55674473  0.85727517  0.47398205  1
  O  O28  1  0.30899052  0.44325317  0.47432835  1
  O  O29  1  0.14680550  0.68366022  0.46860260  1
  O  O30  1  0.11059887  0.64253424  0.35883421  1
  O  O31  1  0.52487760  0.89109790  0.35985704  1
  O  O32  1  0.35044331  0.48049780  0.36449626  1
  O  O33  1  0.13005349  0.48049780  0.86449626  1
  O  O34  1  0.36621930  0.89109790  0.85985704  1
  O  O35  1  0.53193437  0.64253424  0.85883421  1
  O  O36  1  0.02338333  0.82445696  0.41401278  1
  O  O37  1  0.81556302  0.98072144  0.41024375  1
  O  O38  1  0.18025609  0.19167807  0.41271058  1
  O  O39  1  0.01142197  0.19167807  0.91271058  1
  O  O40  1  0.16515842  0.98072144  0.91024375  1
  O  O41  1  0.80107363  0.82445696  0.91401278  1
  O  O42  1  0.98965947  0.17959005  0.58750829  1
  O  O43  1  0.19542267  0.02470465  0.58961290  1
  O  O44  1  0.82469964  0.81320199  0.58597582  1
  O  O45  1  0.98850235  0.81320199  0.08597582  1
  O  O46  1  0.82928198  0.02470465  0.08961290  1
  O  O47  1  0.18993058  0.17959005  0.08750829  1
  O  O48  1  0.67273402  0.15962676  0.74554805  1
  O  O49  1  0.47310287  0.31762794  0.74571922  1
  O  O50  1  0.84001343  0.53289663  0.74503971  1
  O  O51  1  0.69288420  0.53289663  0.24503971  1
  O  O52  1  0.84452607  0.31762794  0.24571922  1
  O  O53  1  0.48689375  0.15962676  0.24554805  1
  O  O54  1  0.65551853  0.51406380  0.92066064  1
  O  O55  1  0.86554756  0.35603351  0.91900246  1
  O  O56  1  0.50208043  0.14885957  0.92335884  1
  O  O57  1  0.64678014  0.14885957  0.42335884  1
  O  O58  1  0.49048695  0.35603351  0.41900246  1
  O  O59  1  0.85854627  0.51406380  0.42066064  1
  O  O60  1  0.34718648  0.49034842  0.07696915  1
  O  O61  1  0.14448861  0.64444152  0.08062532  1
  O  O62  1  0.51315971  0.86086650  0.07866655  1
  O  O63  1  0.34770579  0.86086650  0.57866655  1
  O  O64  1  0.49995191  0.64444152  0.58062532  1
  O  O65  1  0.14316094  0.49034842  0.57696915  1
  O  O66  1  0.31626003  0.83434852  0.25404014  1
  O  O67  1  0.52727138  0.68274380  0.25615395  1
  O  O68  1  0.15574991  0.47337370  0.25380957  1
  O  O69  1  0.31762280  0.47337370  0.75380957  1
  O  O70  1  0.15547141  0.68274380  0.75615395  1
  O  O71  1  0.51808749  0.83434852  0.75404014  1
loop_
_geom_bond_atom_site_label_1
_geom_bond_atom_site_label_2
_geom_bond_distance
_geom_bond_site_symmetry_2
Na0 O53 2.348165 1_555
Na0 O66 2.434572 1_545
Na0 O52 2.518538 1_555
Na0 O67 2.523587 1_545
Na0 O31 2.546842 1_545
Na0 O16 2.720778 1_555
Na0 O2 2.881485 1_555
Na0 O9 2.893693 1_545
Na1 O66 2.431802 1_555
Na1 O68 2.458619 1_555
Na1 O51 2.488984 1_455
Na1 O52 2.509211 1_455
Na1 O15 2.601193 1_455
Na1 O30 2.668123 1_555
Na1 O11 2.830724 1_555
Na2 O71 2.431809 1_555
Na2 O69 2.458626 1_555
Na2 O50 2.488993 1_555
Na2 O49 2.509211 1_555
Na2 O14 2.601195 1_555
Na2 O35 2.668126 1_555
Na2 O6 2.830724 1_555
Na3 O48 2.348173 1_555
Na3 O71 2.434564 1_545
Na3 O49 2.518536 1_555
Na3 O70 2.523589 1_545
Na3 O34 2.546840 1_545
Na3 O13 2.720780 1_555
Na3 O3 2.881485 1_555
Na3 O8 2.893693 1_545
Na4 O64 2.400121 1_555
Na4 O65 2.468152 1_555
Na4 O43 2.474836 1_555
Na4 O42 2.478282 1_455
Na4 O7 2.567597 1_555
Na4 O28 2.614642 1_555
Na4 O14 2.866236 1_555
Na4 O21 2.913029 1_555
Na5 O44 2.368756 1_555
Na5 O64 2.447705 1_555
Na5 O63 2.538699 1_555
Na5 O42 2.570472 1_565
Na5 O27 2.602760 1_555
Na5 O6 2.628101 1_555
Na5 O23 2.926816 1_565
Na5 O13 2.965054 1_565
Na6 O45 2.368764 1_455
Na6 O61 2.447705 1_555
Na6 O62 2.538682 1_555
Na6 O47 2.570479 1_565
Na6 O26 2.602757 1_554
Na6 O11 2.628104 1_555
Na6 O18 2.926816 1_565
Na6 O16 2.965053 1_565
Na7 O61 2.400123 1_555
Na7 O60 2.468136 1_555
Na7 O46 2.474838 1_455
Na7 O47 2.478275 1_555
Na7 O10 2.567596 1_555
Na7 O25 2.614639 1_554
Na7 O15 2.866236 1_455
Na7 O20 2.913029 1_455
Na8 O40 2.439806 1_655
Na8 O54 2.471966 1_555
Na8 O55 2.489495 1_555
Na8 O19 2.518053 1_556
Na8 O41 2.538855 1_555
Na8 O4 2.706399 1_555
Na8 O26 2.802123 1_655
Na8 O33 2.990044 1_655
Na9 O56 2.439119 1_555
Na9 O39 2.473143 1_655
Na9 O41 2.485586 1_545
Na9 O5 2.498375 1_555
Na9 O55 2.530728 1_555
Na9 O20 2.773087 1_556
Na9 O34 2.797204 1_545
Na9 O24 2.981133 1_545
Na10 O57 2.439135 1_555
Na10 O38 2.473135 1_555
Na10 O36 2.485579 1_545
Na10 O0 2.498371 1_555
Na10 O58 2.530727 1_555
Na10 O21 2.773090 1_555
Na10 O31 2.797204 1_545
Na10 O29 2.981133 1_545
Na11 O37 2.439805 1_555
Na11 O59 2.471982 1_555
Na11 O58 2.489492 1_555
Na11 O22 2.518056 1_555
Na11 O36 2.538863 1_655
Na11 O1 2.706401 1_555
Na11 O27 2.802123 1_555
Na11 O32 2.990044 1_555
Na12 O44 2.442623 1_555
Na12 O37 2.478308 1_555
Na12 O36 2.550558 1_655
Na12 O42 2.561616 1_565
Na12 O38 2.607114 1_665
Na12 O43 2.646085 1_665
Na13 O45 2.442623 1_456
Na13 O40 2.478308 1_555
Na13 O41 2.550558 1_455
Na13 O47 2.561616 1_566
Na13 O39 2.607114 1_565
Na13 O46 2.646085 1_466
Na14 O48 2.455682 1_555
Na14 O56 2.483825 1_555
Na14 O55 2.544792 1_555
Na14 O49 2.563207 1_555
Na14 O54 2.621507 1_555
Na14 O50 2.629910 1_555
Na15 O53 2.455682 1_555
Na15 O57 2.483825 1_555
Na15 O58 2.544792 1_555
Na15 O52 2.563207 1_555
Na15 O59 2.621507 1_555
Na15 O51 2.629910 1_555
Na16 O60 2.528480 1_555
Na16 O68 2.536466 1_555
Na16 O67 2.541032 1_555
Na16 O61 2.544027 1_555
Na16 O66 2.563633 1_555
Na16 O62 2.578490 1_555
Na17 O65 2.528480 1_555
Na17 O69 2.536466 1_555
Na17 O70 2.541032 1_555
Na17 O64 2.544027 1_555
Na17 O71 2.563633 1_555
Na17 O63 2.578490 1_555
O0 P0 1.547389 1_555
O0 Zn0 2.032384 1_555
O1 S0 1.492872 1_555
O1 Zn0 2.142988 1_665
O2 S1 1.479187 1_655
O2 Zn0 2.002209 1_655
O3 S2 1.479187 1_555
O3 Zn1 2.002209 1_555
O4 S3 1.492872 1_655
O4 Zn1 2.142989 1_665
O5 P1 1.547389 1_555
O5 Zn1 2.032384 1_655
O6 P1 1.549639 1_565
O6 Zn2 1.972473 1_555
O7 S2 1.485349 1_555
O7 Zn2 2.239420 1_445
O8 S3 1.486898 1_555
O8 Zn2 2.026019 1_455
O9 S0 1.486898 1_555
O9 Zn3 2.026019 1_555
O10 S1 1.485349 1_555
O10 Zn3 2.239420 1_445
O11 P0 1.549639 1_565
O11 Zn3 1.972473 1_455
O12 S4 1.474015 1_555
O12 Zn4 2.024490 1_555
O13 S5 1.494997 1_555
O13 Zn4 2.128701 1_555
O14 P2 1.552066 1_555
O14 Zn4 2.021841 1_555
O15 P3 1.552066 1_555
O15 Zn5 2.021841 1_555
O16 S6 1.494997 1_555
O16 Zn5 2.128701 1_555
O17 S7 1.474015 1_555
O17 Zn5 2.024490 1_555
O18 S7 1.480505 1_555
O18 Zn6 2.011203 1_554
O19 P3 1.546388 1_555
O19 Zn6 2.015621 1_554
O20 S6 1.493105 1_555
O20 Zn6 2.146904 1_554
O21 S5 1.493105 1_555
O21 Zn7 2.146904 1_555
O22 P2 1.546388 1_555
O22 Zn7 2.015621 1_555
O23 S4 1.480505 1_555
O23 Zn7 2.011203 1_555
O24 S8 1.476562 1_555
O24 Zn8 2.088534 1_556
O25 S9 1.486867 1_555
O25 Zn8 2.080773 1_556
O26 P4 1.560463 1_555
O26 Zn8 1.989138 1_556
O27 P5 1.560463 1_555
O27 Zn9 1.989138 1_555
O28 S10 1.486867 1_555
O28 Zn9 2.080773 1_555
O29 S11 1.476562 1_555
O29 Zn9 2.088534 1_555
O30 S11 1.487402 1_555
O30 Zn10 2.072197 1_555
O31 P5 1.559685 1_555
O31 Zn10 1.998025 1_555
O32 S10 1.477290 1_555
O32 Zn10 2.075767 1_555
O33 S9 1.477290 1_555
O33 Zn11 2.075767 1_555
O34 P4 1.559685 1_555
O34 Zn11 1.998025 1_555
O35 S8 1.487402 1_555
O35 Zn11 2.072197 1_555
O36 S11 1.506633 1_555
O36 Zn0 2.307712 1_565
O37 P5 1.555592 1_555
O37 Zn0 2.115550 1_665
O38 S10 1.490470 1_555
O38 Zn0 2.165671 1_555
O39 S9 1.490474 1_555
O39 Zn1 2.165671 1_555
O40 P4 1.555583 1_555
O40 Zn1 2.115550 1_565
O41 S8 1.506638 1_555
O41 Zn1 2.307712 1_665
O42 S4 1.507782 1_555
O42 Zn2 2.262404 1_545
O43 S5 1.489553 1_555
O43 Zn2 2.245631 1_445
O44 P2 1.558464 1_555
O44 Zn2 2.069552 1_555
O45 P3 1.558467 1_555
O45 Zn3 2.069552 1_555
O46 S6 1.489544 1_555
O46 Zn3 2.245631 1_545
O47 S7 1.507787 1_555
O47 Zn3 2.262404 1_445
O48 P1 1.557738 1_555
O48 Zn4 2.119588 1_555
O49 S2 1.508712 1_555
O49 Zn4 2.295068 1_555
O50 S3 1.489017 1_655
O50 Zn4 2.179439 1_555
O51 S0 1.489021 1_555
O51 Zn5 2.179439 1_555
O52 S1 1.508703 1_655
O52 Zn5 2.295068 1_555
O53 P0 1.557744 1_555
O53 Zn5 2.119588 1_555
O54 S8 1.490136 1_555
O54 Zn6 2.164119 1_555
O55 S9 1.505217 1_655
O55 Zn6 2.333375 1_555
O56 P4 1.557363 1_545
O56 Zn6 2.096643 1_555
O57 P5 1.557354 1_545
O57 Zn7 2.096643 1_555
O58 S10 1.505234 1_555
O58 Zn7 2.333375 1_555
O59 S11 1.490125 1_655
O59 Zn7 2.164119 1_555
O60 S7 1.488851 1_555
O60 Zn8 2.228625 1_555
O61 P3 1.581395 1_455
O61 Zn8 2.133600 1_555
O62 S6 1.488563 1_565
O62 Zn8 2.242706 1_555
O63 S5 1.488556 1_565
O63 Zn9 2.242706 1_555
O64 P2 1.581413 1_555
O64 Zn9 2.133600 1_555
O65 S4 1.488840 1_455
O65 Zn9 2.228625 1_555
O66 P0 1.581326 1_565
O66 Zn10 2.102623 1_555
O67 S0 1.487695 1_555
O67 Zn10 2.214207 1_555
O68 S1 1.489263 1_555
O68 Zn10 2.300542 1_555
O69 S2 1.489266 1_555
O69 Zn11 2.300542 1_555
O70 S3 1.487686 1_555
O70 Zn11 2.214207 1_555
O71 P1 1.581331 1_565
O71 Zn11 2.102623 1_555
