# generated using pymatgen
data_Na6Hf4Zn4Si3(S3O16)3
_symmetry_space_group_name_H-M   'P 1'
_cell_length_a   17.88956421
_cell_length_b   8.88787804
_cell_length_c   23.03558912
_cell_angle_alpha   90.19466687
_cell_angle_beta   90.19570452
_cell_angle_gamma   119.85200929
_symmetry_Int_Tables_number   1
_chemical_formula_structural   Na6Hf4Zn4Si3(S3O16)3
_chemical_formula_sum   'Na18 Hf12 Zn12 Si9 S27 O144'
_cell_volume   3176.60694457
_cell_formula_units_Z   3
loop_
 _symmetry_equiv_pos_site_id
 _symmetry_equiv_pos_as_xyz
  1  'x, y, z'
loop_
 _atom_site_type_symbol
 _atom_site_label
 _atom_site_symmetry_multiplicity
 _atom_site_fract_x
 _atom_site_fract_y
 _atom_site_fract_z
 _atom_site_occupancy
  Na  Na0  1  -0.00005819  0.63352410  0.25195020  1
  Na  Na1  1  0.49773832  0.62281895  0.24447746  1
  Na  Na2  1  0.00282381  0.37125177  0.74456267  1
  Na  Na3  1  0.49961096  0.36840010  0.75138645  1
  Na  Na4  1  0.67202107  0.31365442  0.91139904  1
  Na  Na5  1  0.17098077  0.03297668  0.41460136  1
  Na  Na6  1  0.99370250  0.00941461  0.50110506  1
  Na  Na7  1  0.50421962  0.00965390  0.49955976  1
  Na  Na8  1  0.00311937  0.99598307  0.99329406  1
  Na  Na9  1  0.49365684  0.97787238  0.99565944  1
  Na  Na10  1  0.31462861  0.31197864  0.83000322  1
  Na  Na11  1  0.83478569  0.34893966  0.83430244  1
  Na  Na12  1  0.33142473  0.31784079  0.33673259  1
  Na  Na13  1  0.82249432  0.32942513  0.33629137  1
  Na  Na14  1  0.17393571  0.65648804  0.16615399  1
  Na  Na15  1  0.66534849  0.66315372  0.16635051  1
  Na  Na16  1  0.16432573  0.65643890  0.67321215  1
  Na  Na17  1  0.67549435  0.69306938  0.66852971  1
  Hf  Hf0  1  0.49996944  0.01224222  0.35940371  1
  Hf  Hf1  1  0.00735097  0.99644357  0.85633736  1
  Hf  Hf2  1  0.00361098  0.02003817  0.64854384  1
  Hf  Hf3  1  0.50402350  0.99733575  0.64685030  1
  Hf  Hf4  1  0.00435637  0.01036096  0.14578877  1
  Hf  Hf5  1  0.49861519  0.99198405  0.14471870  1
  Hf  Hf6  1  0.32583964  0.33334796  0.98242544  1
  Hf  Hf7  1  0.82620037  0.31937500  0.48477715  1
  Hf  Hf8  1  0.16548393  0.66385376  0.01604106  1
  Hf  Hf9  1  0.66819392  0.67276083  0.01710722  1
  Hf  Hf10  1  0.16840112  0.66403925  0.51943843  1
  Hf  Hf11  1  0.66531050  0.66250458  0.51881503  1
  Zn  Zn0  1  0.99511553  0.00096324  0.34943284  1
  Zn  Zn1  1  0.49421902  0.98833673  0.84805256  1
  Zn  Zn2  1  0.31841491  0.32638304  0.68706001  1
  Zn  Zn3  1  0.83592371  0.31934829  0.67331054  1
  Zn  Zn4  1  0.33411089  0.35046241  0.17091623  1
  Zn  Zn5  1  0.83017191  0.32962306  0.18064418  1
  Zn  Zn6  1  0.83974328  0.35069848  0.97918482  1
  Zn  Zn7  1  0.33751506  0.32618918  0.48267707  1
  Zn  Zn8  1  0.17654881  0.67685653  0.32200440  1
  Zn  Zn9  1  0.67325545  0.66142635  0.32226544  1
  Zn  Zn10  1  0.17082137  0.67252446  0.81434727  1
  Zn  Zn11  1  0.68116518  0.68154367  0.81925815  1
  Si  Si0  1  0.15151055  0.30620986  0.75322857  1
  Si  Si1  1  0.98031808  0.33699892  0.58506123  1
  Si  Si2  1  0.68648599  0.03730299  0.58663848  1
  Si  Si3  1  0.48136881  0.61886488  0.08604520  1
  Si  Si4  1  0.18719714  0.33912885  0.08650936  1
  Si  Si5  1  0.81341559  0.66361859  0.91592512  1
  Si  Si6  1  0.17154141  0.95619979  0.91361273  1
  Si  Si7  1  0.31060347  0.96375322  0.41645994  1
  Si  Si8  1  0.67267300  0.38091967  0.41442861  1
  S  S0  1  0.14742069  0.00168306  0.25184782  1
  S  S1  1  0.64732206  0.00131281  0.25037271  1
  S  S2  1  0.35372167  0.70844744  0.25099105  1
  S  S3  1  0.85345051  0.70753454  0.24912622  1
  S  S4  1  0.99933286  0.29490532  0.25126542  1
  S  S5  1  0.49905623  0.29244044  0.24985970  1
  S  S6  1  0.64736247  0.29333656  0.75211521  1
  S  S7  1  0.99615726  0.70442108  0.74851628  1
  S  S8  1  0.50206697  0.70679525  0.75156389  1
  S  S9  1  0.35618062  0.00207227  0.74920698  1
  S  S10  1  0.85264787  0.99829495  0.75134099  1
  S  S11  1  0.47782200  0.33369734  0.58586395  1
  S  S12  1  0.18718326  0.04129564  0.58234747  1
  S  S13  1  0.33428554  0.62058169  0.58246937  1
  S  S14  1  0.83344966  0.62512871  0.58445617  1
  S  S15  1  0.97880482  0.62278520  0.08585443  1
  S  S16  1  0.33263007  0.04171838  0.08472542  1
  S  S17  1  0.83316426  0.04682074  0.08377213  1
  S  S18  1  0.68783864  0.33371997  0.08385092  1
  S  S19  1  0.31563737  0.67201802  0.91523470  1
  S  S20  1  0.01761494  0.37206218  0.91515277  1
  S  S21  1  0.51920023  0.37199258  0.91445229  1
  S  S22  1  0.66482945  0.95990825  0.91507847  1
  S  S23  1  0.81397792  0.95792530  0.41466321  1
  S  S24  1  0.16499653  0.37062591  0.41471586  1
  S  S25  1  0.01948685  0.66653915  0.41410914  1
  S  S26  1  0.51968835  0.66341829  0.41386029  1
  O  O0  1  0.10590372  0.02120760  0.30519420  1
  O  O1  1  0.60413592  0.02255800  0.30190067  1
  O  O2  1  0.41057587  0.80241292  0.30158231  1
  O  O3  1  0.90814185  0.78546713  0.30164942  1
  O  O4  1  0.49328505  0.18622978  0.30182179  1
  O  O5  1  0.98701582  0.18921433  0.30302494  1
  O  O6  1  0.09717150  0.17716874  0.80695599  1
  O  O7  1  0.60622925  0.19148731  0.80542620  1
  O  O8  1  0.48957994  0.78772991  0.80345081  1
  O  O9  1  0.98762987  0.79247127  0.80147266  1
  O  O10  1  0.41023690  0.03162644  0.80190049  1
  O  O11  1  0.90664283  0.01474933  0.80244013  1
  O  O12  1  0.40248884  0.98247868  0.69742385  1
  O  O13  1  0.89480426  0.97631255  0.69757050  1
  O  O14  1  0.08736492  0.20636345  0.69511578  1
  O  O15  1  0.58809615  0.19535965  0.70049811  1
  O  O16  1  0.00373900  0.81173408  0.69665883  1
  O  O17  1  0.51128782  0.81606164  0.69875502  1
  O  O18  1  0.39875511  0.81664507  0.19789163  1
  O  O19  1  0.89939469  0.81610217  0.19718888  1
  O  O20  1  0.00873353  0.20510150  0.19842599  1
  O  O21  1  0.50844729  0.20211403  0.19783383  1
  O  O22  1  0.08775733  0.98046919  0.20036563  1
  O  O23  1  0.59085601  0.97781135  0.19779995  1
  O  O24  1  0.44134705  0.36192848  0.63913527  1
  O  O25  1  0.94843592  0.37338463  0.64626380  1
  O  O26  1  0.24171330  0.11836437  0.63368106  1
  O  O27  1  0.73957749  0.11454565  0.64500335  1
  O  O28  1  0.32239295  0.52014661  0.63521712  1
  O  O29  1  0.81695072  0.52249801  0.63661863  1
  O  O30  1  0.44897964  0.52291835  0.14812672  1
  O  O31  1  0.94302519  0.52367418  0.14010518  1
  O  O32  1  0.31862927  0.11276497  0.13758721  1
  O  O33  1  0.81999504  0.12176436  0.13726999  1
  O  O34  1  0.23894175  0.36682296  0.14564361  1
  O  O35  1  0.74023602  0.36165740  0.13634102  1
  O  O36  1  0.22906362  0.30276098  0.02843457  1
  O  O37  1  0.72133401  0.29726966  0.03108924  1
  O  O38  1  0.41980716  0.52706556  0.02980693  1
  O  O39  1  0.92567498  0.54481430  0.03457355  1
  O  O40  1  0.34759143  0.14845477  0.03233054  1
  O  O41  1  0.84735344  0.15077919  0.03178571  1
  O  O42  1  0.22095956  0.14299331  0.52894931  1
  O  O43  1  0.72744697  0.15428218  0.52782164  1
  O  O44  1  0.34820787  0.54615657  0.52965949  1
  O  O45  1  0.84511060  0.54292226  0.53141950  1
  O  O46  1  0.42687821  0.30622671  0.53334704  1
  O  O47  1  0.91995130  0.31186713  0.52816034  1
  O  O48  1  0.27176559  0.68969910  0.96855304  1
  O  O49  1  0.76519460  0.69001044  0.97390248  1
  O  O50  1  0.07444186  0.45833943  0.96786671  1
  O  O51  1  0.57756240  0.46349678  0.96601561  1
  O  O52  1  0.15757879  0.84261730  0.97368209  1
  O  O53  1  0.65163762  0.84894354  0.96803070  1
  O  O54  1  0.26486242  0.83963338  0.47297140  1
  O  O55  1  0.76971837  0.85089166  0.46687792  1
  O  O56  1  0.15216945  0.45556322  0.46717611  1
  O  O57  1  0.65555926  0.46899754  0.47211178  1
  O  O58  1  0.07783851  0.69257908  0.46492308  1
  O  O59  1  0.57620232  0.69262683  0.46570896  1
  O  O60  1  0.05437550  0.63718636  0.35981780  1
  O  O61  1  0.55768058  0.64154060  0.35994658  1
  O  O62  1  0.24961667  0.88735567  0.35953287  1
  O  O63  1  0.76251388  0.88769278  0.36154925  1
  O  O64  1  0.17412423  0.46993980  0.36186065  1
  O  O65  1  0.68476559  0.48513908  0.35582348  1
  O  O66  1  0.05477212  0.47197827  0.86252917  1
  O  O67  1  0.55432463  0.47138370  0.86091509  1
  O  O68  1  0.18298194  0.86494320  0.85753640  1
  O  O69  1  0.67363582  0.87723578  0.86267288  1
  O  O70  1  0.26467537  0.64128944  0.86297768  1
  O  O71  1  0.74703514  0.60936565  0.86144098  1
  O  O72  1  0.01592377  0.83151337  0.41133819  1
  O  O73  1  0.51334005  0.82582118  0.40938534  1
  O  O74  1  0.40588138  0.97617121  0.40968818  1
  O  O75  1  0.90013015  0.97169938  0.41151980  1
  O  O76  1  0.08728325  0.19160872  0.41169131  1
  O  O77  1  0.58572876  0.18436551  0.41035153  1
  O  O78  1  0.01108991  0.19812744  0.91252260  1
  O  O79  1  0.51594243  0.20037428  0.91222944  1
  O  O80  1  0.08520203  0.97949232  0.91240694  1
  O  O81  1  0.58750115  0.98370206  0.91252794  1
  O  O82  1  0.40218816  0.82988162  0.91322989  1
  O  O83  1  0.90653812  0.84012026  0.90958663  1
  O  O84  1  0.48873309  0.17613595  0.59249206  1
  O  O85  1  0.98767531  0.15686687  0.58752547  1
  O  O86  1  0.09786006  0.01401498  0.59099750  1
  O  O87  1  0.58817783  0.01470217  0.59053143  1
  O  O88  1  0.41042377  0.80151600  0.59042513  1
  O  O89  1  0.91164428  0.79967405  0.58890085  1
  O  O90  1  0.49066496  0.81743536  0.09132449  1
  O  O91  1  0.98824961  0.80073646  0.09315350  1
  O  O92  1  0.41234603  0.02306467  0.09038703  1
  O  O93  1  0.90958702  0.02011197  0.09240395  1
  O  O94  1  0.08878558  0.16357613  0.09127309  1
  O  O95  1  0.59814232  0.18012099  0.09341419  1
  O  O96  1  0.35325778  0.16585876  0.74219852  1
  O  O97  1  0.84927035  0.16100926  0.74821488  1
  O  O98  1  0.24395506  0.31702125  0.74777084  1
  O  O99  1  0.73282698  0.31517162  0.74500179  1
  O  O100  1  0.42646317  0.53154076  0.74356991  1
  O  O101  1  0.91817410  0.53071441  0.74617538  1
  O  O102  1  0.35015241  0.53937435  0.24817678  1
  O  O103  1  0.84766276  0.53324839  0.24245585  1
  O  O104  1  0.42000279  0.30440558  0.24787457  1
  O  O105  1  0.92219967  0.31688615  0.24385827  1
  O  O106  1  0.23286900  0.15085213  0.24493853  1
  O  O107  1  0.73304893  0.15600712  0.24360994  1
  O  O108  1  0.32655550  0.51614466  0.92354013  1
  O  O109  1  0.81919588  0.48614070  0.92350893  1
  O  O110  1  0.43313865  0.35007440  0.92506252  1
  O  O111  1  0.93166029  0.35025158  0.92471555  1
  O  O112  1  0.25672342  0.15092843  0.92269684  1
  O  O113  1  0.74262192  0.13142434  0.92349279  1
  O  O114  1  0.31982872  0.15523630  0.42356531  1
  O  O115  1  0.82510554  0.13538707  0.42231275  1
  O  O116  1  0.24264851  0.35396190  0.42233284  1
  O  O117  1  0.75723174  0.35750784  0.42218448  1
  O  O118  1  0.43350968  0.51431559  0.42238266  1
  O  O119  1  0.93300666  0.51566982  0.42342474  1
  O  O120  1  0.17308790  0.50603018  0.07626592  1
  O  O121  1  0.67649649  0.48893199  0.07760445  1
  O  O122  1  0.06728382  0.64712492  0.07889441  1
  O  O123  1  0.57933276  0.65216038  0.07584554  1
  O  O124  1  0.25811792  0.86315159  0.07581580  1
  O  O125  1  0.75553822  0.86890877  0.07762486  1
  O  O126  1  0.17646321  0.86310526  0.57525743  1
  O  O127  1  0.67252445  0.84206571  0.57466483  1
  O  O128  1  0.25633404  0.64263869  0.57625091  1
  O  O129  1  0.75704654  0.65134165  0.57485391  1
  O  O130  1  0.07776721  0.50197756  0.57327578  1
  O  O131  1  0.56708987  0.48789950  0.57827623  1
  O  O132  1  0.14657289  0.83249184  0.25160082  1
  O  O133  1  0.65088045  0.83802763  0.25400569  1
  O  O134  1  0.26840269  0.69391465  0.25359833  1
  O  O135  1  0.76855106  0.69503040  0.25181493  1
  O  O136  1  0.07758027  0.46950549  0.25451315  1
  O  O137  1  0.57620196  0.46826719  0.25285078  1
  O  O138  1  0.15105920  0.48947271  0.75677598  1
  O  O139  1  0.64629862  0.46060111  0.75192681  1
  O  O140  1  0.07434136  0.68912346  0.75137880  1
  O  O141  1  0.58116053  0.69166531  0.75466981  1
  O  O142  1  0.27134095  0.84752462  0.75090952  1
  O  O143  1  0.76574654  0.84301707  0.75345284  1
loop_
_geom_bond_atom_site_label_1
_geom_bond_atom_site_label_2
_geom_bond_distance
_geom_bond_site_symmetry_2
Na0 O132 2.321747 1_555
Na0 O103 2.416815 1_455
Na0 O105 2.446867 1_455
Na0 O136 2.464424 1_555
Na0 O60 2.659869 1_555
Na0 O31 2.757395 1_455
Na0 O3 2.835776 1_455
Na0 O22 2.933201 1_555
Na1 O102 2.362374 1_555
Na1 O30 2.382803 1_555
Na1 O137 2.411196 1_555
Na1 O133 2.447180 1_555
Na1 O104 2.456286 1_555
Na1 O61 2.837700 1_555
Na2 O138 2.331213 1_555
Na2 O97 2.436670 1_455
Na2 O140 2.457748 1_555
Na2 O25 2.465365 1_455
Na2 O101 2.537715 1_455
Na2 O14 2.817699 1_555
Na2 O66 2.861380 1_555
Na3 O139 2.327423 1_555
Na3 O96 2.332783 1_555
Na3 O100 2.395060 1_555
Na3 O141 2.492782 1_555
Na3 O67 2.690204 1_555
Na3 O24 2.774318 1_555
Na3 O10 2.853370 1_555
Na3 O15 2.944369 1_555
Na4 O109 2.309539 1_555
Na4 O79 2.451974 1_555
Na4 O113 2.516584 1_555
Na4 O81 2.544290 1_545
Na4 O71 2.559843 1_555
Na4 O7 2.685810 1_555
Na4 O51 2.907845 1_555
Na4 O37 2.918091 1_556
Na5 O114 2.329852 1_555
Na5 O72 2.441181 1_545
Na5 O116 2.483565 1_555
Na5 O76 2.517108 1_555
Na5 O62 2.660240 1_545
Na5 O0 2.752261 1_555
Na5 O42 2.791045 1_555
Na5 O58 2.879538 1_545
Na6 O85 2.411766 1_555
Na6 O75 2.566373 1_545
Na6 O76 2.648518 1_655
Na6 O89 2.653649 1_545
Na6 O72 2.746486 1_645
Na6 O86 2.767455 1_655
Na7 O77 2.558981 1_555
Na7 O87 2.561288 1_555
Na7 O74 2.630419 1_545
Na7 O84 2.690656 1_555
Na7 O73 2.693638 1_545
Na7 O88 2.753010 1_545
Na8 O80 2.425008 1_555
Na8 O83 2.489731 1_455
Na8 O78 2.545510 1_565
Na8 O94 2.709694 1_566
Na8 O91 2.818751 1_456
Na8 O93 2.904842 1_466
Na9 O82 2.415013 1_555
Na9 O81 2.534634 1_555
Na9 O90 2.615083 1_556
Na9 O79 2.647535 1_565
Na9 O92 2.763368 1_566
Na9 O95 2.897359 1_566
Na10 O98 2.286789 1_555
Na10 O112 2.498203 1_555
Na10 O96 2.672148 1_555
Na10 O108 2.750599 1_555
Na10 O100 2.818148 1_555
Na10 O110 2.941606 1_555
Na11 O109 2.472438 1_555
Na11 O101 2.569113 1_555
Na11 O99 2.659674 1_555
Na11 O97 2.683567 1_555
Na11 O111 2.701177 1_555
Na11 O113 2.748454 1_555
Na12 O114 2.420052 1_555
Na12 O104 2.631339 1_555
Na12 O116 2.652964 1_555
Na12 O118 2.656025 1_555
Na12 O106 2.670346 1_555
Na12 O102 2.743292 1_555
Na13 O117 2.375453 1_555
Na13 O107 2.644472 1_555
Na13 O115 2.646833 1_555
Na13 O119 2.714734 1_555
Na13 O103 2.716255 1_555
Na13 O105 2.819555 1_555
Na14 O120 2.456977 1_555
Na14 O134 2.537074 1_555
Na14 O136 2.659165 1_555
Na14 O124 2.695539 1_555
Na14 O132 2.703498 1_555
Na14 O122 2.739019 1_555
Na15 O123 2.559485 1_555
Na15 O137 2.609438 1_555
Na15 O135 2.610637 1_555
Na15 O121 2.627822 1_555
Na15 O133 2.634874 1_555
Na15 O125 2.689862 1_555
Na16 O138 2.373989 1_555
Na16 O140 2.529780 1_555
Na16 O142 2.544014 1_555
Na16 O130 2.723968 1_555
Na16 O128 2.817330 1_555
Na16 O126 2.854308 1_555
Na17 O143 2.455297 1_555
Na17 O127 2.553519 1_555
Na17 O141 2.605302 1_555
Na17 O139 2.681774 1_555
Na17 O129 2.734445 1_555
Na17 O131 2.799058 1_555
Hf0 O77 1.926246 1_555
Hf0 O74 1.938116 1_545
Hf0 O4 2.088531 1_555
Hf0 O73 2.129257 1_545
Hf0 O2 2.192955 1_545
Hf0 O1 2.254599 1_555
Hf1 O80 1.956659 1_555
Hf1 O6 1.977740 1_565
Hf1 O83 2.054208 1_455
Hf1 O9 2.086375 1_455
Hf1 O78 2.181071 1_565
Hf1 O11 2.256476 1_465
Hf2 O14 1.909222 1_555
Hf2 O85 1.972289 1_455
Hf2 O13 2.116668 1_445
Hf2 O16 2.161995 1_545
Hf2 O86 2.169703 1_555
Hf2 O89 2.277900 1_445
Hf3 O87 1.938238 1_565
Hf3 O15 2.055293 1_565
Hf3 O17 2.064638 1_555
Hf3 O12 2.109671 1_555
Hf3 O88 2.142631 1_555
Hf3 O84 2.147581 1_565
Hf4 O94 1.920864 1_555
Hf4 O22 2.064295 1_545
Hf4 O20 2.079013 1_555
Hf4 O91 2.114751 1_445
Hf4 O93 2.127645 1_455
Hf4 O19 2.170334 1_445
Hf5 O90 1.925090 1_555
Hf5 O18 2.092055 1_555
Hf5 O95 2.104004 1_565
Hf5 O23 2.104326 1_555
Hf5 O92 2.106684 1_565
Hf5 O21 2.161464 1_565
Hf6 O36 1.934027 1_556
Hf6 O112 2.007005 1_555
Hf6 O38 2.018639 1_556
Hf6 O108 2.115205 1_555
Hf6 O40 2.195411 1_556
Hf6 O110 2.277576 1_555
Hf7 O43 1.923148 1_555
Hf7 O47 1.979005 1_555
Hf7 O117 2.030664 1_555
Hf7 O45 2.128460 1_555
Hf7 O115 2.167221 1_555
Hf7 O119 2.325643 1_555
Hf8 O52 1.931261 1_554
Hf8 O120 2.027968 1_555
Hf8 O50 2.057380 1_554
Hf8 O48 2.108458 1_554
Hf8 O124 2.196683 1_555
Hf8 O122 2.227873 1_555
Hf9 O49 1.942490 1_554
Hf9 O123 2.029298 1_555
Hf9 O53 2.071049 1_554
Hf9 O51 2.107899 1_554
Hf9 O125 2.163549 1_555
Hf9 O121 2.211167 1_555
Hf10 O54 1.975386 1_555
Hf10 O130 1.985591 1_555
Hf10 O56 2.100898 1_555
Hf10 O128 2.123436 1_555
Hf10 O126 2.129252 1_555
Hf10 O58 2.159526 1_555
Hf11 O57 1.957872 1_555
Hf11 O127 1.999663 1_555
Hf11 O129 2.125558 1_555
Hf11 O59 2.126772 1_555
Hf11 O55 2.153850 1_555
Hf11 O131 2.165224 1_555
O0 S0 1.491627 1_555
O0 Zn0 2.158478 1_455
O1 S1 1.480345 1_555
O2 S2 1.493246 1_555
O3 S3 1.487436 1_555
O3 Zn0 2.075600 1_565
O4 S5 1.498674 1_555
O5 S4 1.468304 1_555
O5 Zn0 2.053222 1_555
O6 Si0 1.643191 1_555
O7 S6 1.489837 1_555
O7 Zn1 2.159444 1_545
O8 S8 1.466940 1_555
O8 Zn1 2.020182 1_555
O9 S7 1.495810 1_555
O10 S9 1.488113 1_555
O10 Zn1 2.025550 1_545
O11 S10 1.480011 1_545
O12 S9 1.512777 1_565
O13 S10 1.514123 1_555
O14 Si0 1.692342 1_555
O15 S6 1.536697 1_555
O16 S7 1.495043 1_455
O17 S8 1.516604 1_555
O18 S2 1.520995 1_555
O19 S3 1.504346 1_555
O20 S4 1.508417 1_455
O21 S5 1.496032 1_555
O22 S0 1.539705 1_565
O23 S1 1.520045 1_565
O24 S11 1.470026 1_555
O24 Zn2 2.341441 1_555
O25 Si1 1.613552 1_555
O25 Zn3 1.928321 1_555
O26 S12 1.463057 1_555
O26 Zn2 2.064092 1_555
O27 Si2 1.586467 1_555
O27 Zn3 1.889506 1_555
O28 S13 1.462387 1_555
O28 Zn2 2.071133 1_555
O29 S14 1.450806 1_555
O29 Zn3 2.169837 1_555
O30 Si3 1.621766 1_555
O30 Zn4 1.930019 1_555
O31 S15 1.482916 1_555
O31 Zn5 2.116604 1_555
O32 S16 1.448646 1_555
O32 Zn4 2.129407 1_555
O33 S17 1.473263 1_555
O33 Zn5 2.023807 1_555
O34 Si4 1.592272 1_555
O34 Zn4 1.870548 1_555
O35 S18 1.469979 1_555
O35 Zn5 2.039113 1_555
O36 Si4 1.643177 1_555
O37 S18 1.461766 1_555
O37 Zn6 2.272000 1_554
O38 Si3 1.626464 1_555
O39 S15 1.452624 1_555
O39 Zn6 2.073414 1_554
O40 S16 1.478353 1_555
O41 S17 1.458889 1_555
O41 Zn6 2.213207 1_554
O42 S12 1.471075 1_555
O42 Zn7 2.186813 1_555
O43 Si2 1.646673 1_555
O44 S13 1.462906 1_555
O44 Zn7 2.154528 1_555
O45 S14 1.489091 1_555
O46 S11 1.456932 1_555
O46 Zn7 2.054419 1_555
O47 Si1 1.637805 1_555
O48 S19 1.509060 1_555
O49 Si5 1.670345 1_555
O50 S20 1.518288 1_555
O51 S21 1.517235 1_555
O52 Si6 1.660433 1_555
O53 S22 1.514819 1_555
O54 Si7 1.643031 1_555
O55 S23 1.497680 1_555
O56 S24 1.500353 1_555
O57 Si8 1.645136 1_555
O58 S25 1.504226 1_555
O59 S26 1.498132 1_555
O60 S25 1.478821 1_555
O60 Zn8 2.215388 1_555
O61 S26 1.475752 1_555
O61 Zn9 2.170043 1_555
O62 Si7 1.617932 1_555
O62 Zn8 1.871610 1_555
O63 S23 1.466032 1_555
O63 Zn9 2.047882 1_555
O64 S24 1.467449 1_555
O64 Zn8 2.039425 1_555
O65 Si8 1.593212 1_555
O65 Zn9 1.850195 1_555
O66 S20 1.457774 1_555
O66 Zn10 2.250400 1_555
O67 S21 1.468409 1_555
O67 Zn11 2.316524 1_555
O68 Si6 1.590063 1_555
O68 Zn10 1.891684 1_555
O69 S22 1.460327 1_555
O69 Zn11 2.065372 1_555
O70 S19 1.448179 1_555
O70 Zn10 2.145773 1_555
O71 Si5 1.622830 1_555
O71 Zn11 1.869041 1_555
O72 S25 1.500580 1_555
O72 Zn0 2.238167 1_465
O73 S26 1.507017 1_555
O74 Si7 1.660247 1_555
O75 S23 1.486134 1_555
O75 Zn0 2.140031 1_565
O76 S24 1.505220 1_555
O76 Zn0 2.198315 1_455
O77 Si8 1.665161 1_555
O78 S20 1.492249 1_555
O79 S21 1.497858 1_555
O79 Zn1 2.266313 1_545
O80 Si6 1.657532 1_555
O81 S22 1.500885 1_555
O81 Zn1 2.245959 1_555
O82 S19 1.485379 1_555
O82 Zn1 2.161289 1_555
O83 Si5 1.630662 1_555
O84 S11 1.515212 1_555
O85 Si1 1.671545 1_555
O86 S12 1.506232 1_555
O87 Si2 1.670596 1_555
O88 S13 1.513477 1_555
O89 S14 1.487113 1_555
O90 Si3 1.692166 1_555
O91 S15 1.513363 1_555
O92 S16 1.520678 1_555
O93 S17 1.512150 1_555
O94 Si4 1.677462 1_555
O95 S18 1.520107 1_555
O96 S9 1.491716 1_555
O96 Zn2 2.220264 1_555
O97 S10 1.479174 1_545
O97 Zn3 2.315799 1_555
O98 Si0 1.613496 1_555
O98 Zn2 1.907957 1_555
O99 S6 1.452123 1_555
O99 Zn3 2.466450 1_555
O100 S8 1.479360 1_555
O100 Zn2 2.283315 1_555
O101 S7 1.479007 1_555
O101 Zn3 2.391942 1_555
O102 S2 1.473152 1_555
O102 Zn4 2.359129 1_555
O103 S3 1.507462 1_555
O103 Zn5 2.194622 1_555
O104 S5 1.470634 1_555
O104 Zn4 2.506762 1_555
O105 S4 1.496107 1_555
O105 Zn5 2.239188 1_555
O106 S0 1.450965 1_555
O106 Zn4 2.485591 1_555
O107 S1 1.473283 1_555
O107 Zn5 2.206154 1_555
O108 S19 1.504981 1_555
O109 Si5 1.641201 1_555
O109 Zn6 1.917524 1_555
O110 S21 1.473900 1_555
O111 S20 1.468487 1_655
O111 Zn6 2.073363 1_555
O112 Si6 1.652617 1_545
O113 S22 1.477269 1_545
O113 Zn6 2.249350 1_555
O114 Si7 1.633624 1_545
O114 Zn7 1.940947 1_555
O115 S23 1.497905 1_545
O116 S24 1.478453 1_555
O116 Zn7 2.297105 1_555
O117 Si8 1.635635 1_555
O118 S26 1.463373 1_555
O118 Zn7 2.201698 1_555
O119 S25 1.475324 1_655
O120 Si4 1.641517 1_555
O121 S18 1.498238 1_555
O122 S15 1.496331 1_455
O123 Si3 1.643512 1_555
O124 S16 1.492526 1_565
O125 S17 1.503326 1_565
O126 S12 1.505766 1_565
O127 Si2 1.647528 1_565
O128 S13 1.508183 1_555
O129 S14 1.512182 1_555
O130 Si1 1.650477 1_455
O131 S11 1.511239 1_555
O132 S0 1.496251 1_565
O132 Zn8 2.361983 1_555
O133 S1 1.486596 1_565
O133 Zn9 2.394639 1_555
O134 S2 1.467772 1_555
O134 Zn8 2.231040 1_555
O135 S3 1.468208 1_555
O135 Zn9 2.268159 1_555
O136 S4 1.486334 1_455
O136 Zn8 2.379402 1_555
O137 S5 1.484284 1_555
O137 Zn9 2.348121 1_555
O138 Si0 1.634620 1_555
O138 Zn10 1.985001 1_555
O139 S6 1.496212 1_555
O139 Zn11 2.324692 1_555
O140 S7 1.472375 1_455
O140 Zn10 2.311413 1_555
O141 S8 1.487978 1_555
O141 Zn11 2.359098 1_555
O142 S9 1.455059 1_565
O142 Zn10 2.244403 1_555
O143 S10 1.479505 1_555
O143 Zn11 2.125010 1_555
