# generated using pymatgen
data_Na2NbZn(PO4)3
_symmetry_space_group_name_H-M   'P 1'
_cell_length_a   8.89806641
_cell_length_b   8.83915259
_cell_length_c   22.46598150
_cell_angle_alpha   89.99999999
_cell_angle_beta   90.29148510
_cell_angle_gamma   119.78122286
_symmetry_Int_Tables_number   1
_chemical_formula_structural   Na2NbZn(PO4)3
_chemical_formula_sum   'Na12 Nb6 Zn6 P18 O72'
_cell_volume   1533.58569222
_cell_formula_units_Z   6
loop_
 _symmetry_equiv_pos_site_id
 _symmetry_equiv_pos_as_xyz
  1  'x, y, z'
loop_
 _atom_site_type_symbol
 _atom_site_label
 _atom_site_symmetry_multiplicity
 _atom_site_fract_x
 _atom_site_fract_y
 _atom_site_fract_z
 _atom_site_occupancy
  Na  Na0  1  0.98686758  0.63067569  0.24692774  1
  Na  Na1  1  0.98686758  0.35619189  0.74692774  1
  Na  Na2  1  0.65353458  0.96400869  0.58026074  1
  Na  Na3  1  0.65353458  0.68952489  0.08026074  1
  Na  Na4  1  0.32020058  0.29734269  0.91359474  1
  Na  Na5  1  0.32020058  0.02285889  0.41359474  1
  Na  Na6  1  0.99766098  0.00062817  0.49164104  1
  Na  Na7  1  0.99766098  0.99703281  0.99164104  1
  Na  Na8  1  0.66432798  0.33396117  0.82497404  1
  Na  Na9  1  0.66432798  0.33036581  0.32497404  1
  Na  Na10  1  0.33099398  0.66729517  0.15830804  1
  Na  Na11  1  0.33099398  0.66369981  0.65830804  1
  Nb  Nb0  1  0.00565372  0.99812122  0.64634560  1
  Nb  Nb1  1  0.00565372  0.00753249  0.14634560  1
  Nb  Nb2  1  0.67232072  0.33145422  0.97967860  1
  Nb  Nb3  1  0.67232072  0.34086549  0.47967860  1
  Nb  Nb4  1  0.33898672  0.66478822  0.31301260  1
  Nb  Nb5  1  0.33898672  0.67419949  0.81301260  1
  Zn  Zn0  1  0.99241364  0.99990956  0.35052363  1
  Zn  Zn1  1  0.99241364  0.99250409  0.85052363  1
  Zn  Zn2  1  0.65908064  0.33324256  0.68385663  1
  Zn  Zn3  1  0.65908064  0.32583709  0.18385663  1
  Zn  Zn4  1  0.32574664  0.66657656  0.01719063  1
  Zn  Zn5  1  0.32574664  0.65917109  0.51719063  1
  P  P0  1  0.29559637  0.00530327  0.25363059  1
  P  P1  1  0.71108689  0.70966287  0.25053793  1
  P  P2  1  0.99747738  0.29047616  0.25281130  1
  P  P3  1  0.29559637  0.29029310  0.75363059  1
  P  P4  1  0.99747738  0.70700122  0.75281130  1
  P  P5  1  0.71108689  0.00142402  0.75053793  1
  P  P6  1  0.96226337  0.33863627  0.58696359  1
  P  P7  1  0.37775389  0.04299587  0.58387093  1
  P  P8  1  0.66414438  0.62380916  0.58614430  1
  P  P9  1  0.96226337  0.62362610  0.08696359  1
  P  P10  1  0.66414438  0.04033422  0.08614430  1
  P  P11  1  0.37775389  0.33475702  0.08387093  1
  P  P12  1  0.62892937  0.67197027  0.92029759  1
  P  P13  1  0.04441989  0.37632987  0.91720493  1
  P  P14  1  0.33081038  0.95714316  0.91947830  1
  P  P15  1  0.62892937  0.95696010  0.42029759  1
  P  P16  1  0.33081038  0.37366822  0.41947830  1
  P  P17  1  0.04441989  0.66809102  0.41720493  1
  O  O0  1  0.21372490  0.02160655  0.31005874  1
  O  O1  1  0.82442148  0.79193713  0.30414532  1
  O  O2  1  0.97651104  0.18506859  0.30686202  1
  O  O3  1  0.21372490  0.19211835  0.81005874  1
  O  O4  1  0.97651104  0.79144245  0.80686202  1
  O  O5  1  0.82442148  0.03248435  0.80414532  1
  O  O6  1  0.79576923  0.96938578  0.69283261  1
  O  O7  1  0.16740647  0.19628517  0.69798265  1
  O  O8  1  0.02637049  0.82667258  0.69568073  1
  O  O9  1  0.79576923  0.82638345  0.19283261  1
  O  O10  1  0.02637049  0.19969791  0.19568073  1
  O  O11  1  0.16740647  0.97112130  0.19798265  1
  O  O12  1  0.88039190  0.35493955  0.64339174  1
  O  O13  1  0.49108848  0.12527013  0.63747832  1
  O  O14  1  0.64317804  0.51840159  0.64019502  1
  O  O15  1  0.88039190  0.52545135  0.14339174  1
  O  O16  1  0.64317804  0.12477545  0.14019502  1
  O  O17  1  0.49108848  0.36581735  0.13747832  1
  O  O18  1  0.46243623  0.30271878  0.02616561  1
  O  O19  1  0.83407347  0.52961817  0.03131565  1
  O  O20  1  0.69303749  0.16000558  0.02901373  1
  O  O21  1  0.46243623  0.15971645  0.52616561  1
  O  O22  1  0.69303749  0.53303091  0.52901373  1
  O  O23  1  0.83407347  0.30445430  0.53131565  1
  O  O24  1  0.54705790  0.68827355  0.97672574  1
  O  O25  1  0.15775448  0.45860413  0.97081232  1
  O  O26  1  0.30984404  0.85173559  0.97352902  1
  O  O27  1  0.54705790  0.85878535  0.47672574  1
  O  O28  1  0.30984404  0.45810945  0.47352902  1
  O  O29  1  0.15775448  0.69915135  0.47081232  1
  O  O30  1  0.12910223  0.63605278  0.35949961  1
  O  O31  1  0.50073947  0.86295217  0.36464965  1
  O  O32  1  0.35970349  0.49333958  0.36234773  1
  O  O33  1  0.12910223  0.49305045  0.85949961  1
  O  O34  1  0.35970349  0.86636491  0.86234773  1
  O  O35  1  0.50073947  0.63778830  0.86464965  1
  O  O36  1  0.01997012  0.82527235  0.40933909  1
  O  O37  1  0.80834373  0.98523093  0.41106250  1
  O  O38  1  0.18398431  0.18779577  0.41098673  1
  O  O39  1  0.01997012  0.19469776  0.90933909  1
  O  O40  1  0.18398431  0.99618853  0.91098673  1
  O  O41  1  0.80834373  0.82311281  0.91106250  1
  O  O42  1  0.96395597  0.15819400  0.58904920  1
  O  O43  1  0.19489079  0.03216625  0.59024170  1
  O  O44  1  0.83789490  0.80943568  0.58934088  1
  O  O45  1  0.96395597  0.80576197  0.08904920  1
  O  O46  1  0.83789490  0.02845922  0.08934088  1
  O  O47  1  0.19489079  0.16272454  0.09024170  1
  O  O48  1  0.68663712  0.15860535  0.74267209  1
  O  O49  1  0.47501073  0.31856393  0.74439550  1
  O  O50  1  0.85065131  0.52112877  0.74431973  1
  O  O51  1  0.68663712  0.52803076  0.24267209  1
  O  O52  1  0.85065131  0.32952153  0.24431973  1
  O  O53  1  0.47501073  0.15644581  0.24439550  1
  O  O54  1  0.63062297  0.49152700  0.92238220  1
  O  O55  1  0.86155779  0.36549925  0.92357470  1
  O  O56  1  0.50456190  0.14276868  0.92267388  1
  O  O57  1  0.63062297  0.13909497  0.42238220  1
  O  O58  1  0.50456190  0.36179222  0.42267388  1
  O  O59  1  0.86155779  0.49605754  0.42357470  1
  O  O60  1  0.35330312  0.49193935  0.07600609  1
  O  O61  1  0.14167673  0.65189793  0.07772950  1
  O  O62  1  0.51731731  0.85446277  0.07765373  1
  O  O63  1  0.35330312  0.86136476  0.57600609  1
  O  O64  1  0.51731731  0.66285553  0.57765373  1
  O  O65  1  0.14167673  0.48977981  0.57772950  1
  O  O66  1  0.29728897  0.82486100  0.25571620  1
  O  O67  1  0.52822379  0.69883325  0.25690870  1
  O  O68  1  0.17122790  0.47610268  0.25600788  1
  O  O69  1  0.29728897  0.47242897  0.75571620  1
  O  O70  1  0.17122790  0.69512622  0.75600788  1
  O  O71  1  0.52822379  0.82939154  0.75690870  1
loop_
_geom_bond_atom_site_label_1
_geom_bond_atom_site_label_2
_geom_bond_distance
_geom_bond_site_symmetry_2
Na0 O52 2.313587 1_555
Na0 O51 2.357693 1_555
Na0 O66 2.428867 1_655
Na0 O15 2.505067 1_555
Na0 O68 2.612000 1_655
Na0 O1 2.799851 1_555
Na0 O30 2.812071 1_655
Na0 O11 2.839218 1_655
Na1 O50 2.313579 1_555
Na1 O48 2.357695 1_555
Na1 O69 2.428866 1_655
Na1 O12 2.505065 1_555
Na1 O70 2.612008 1_655
Na1 O5 2.799851 1_555
Na1 O33 2.812073 1_655
Na1 O7 2.839218 1_655
Na2 O64 2.313578 1_555
Na2 O63 2.357703 1_555
Na2 O42 2.428867 1_565
Na2 O27 2.505046 1_555
Na2 O44 2.612000 1_555
Na2 O13 2.799851 1_565
Na2 O6 2.812071 1_555
Na2 O23 2.839218 1_565
Na3 O62 2.313594 1_555
Na3 O60 2.357699 1_555
Na3 O45 2.428866 1_555
Na3 O24 2.505050 1_554
Na3 O46 2.612008 1_565
Na3 O17 2.799851 1_555
Na3 O9 2.812073 1_555
Na3 O19 2.839218 1_555
Na4 O40 2.313587 1_545
Na4 O39 2.357693 1_555
Na4 O54 2.428871 1_555
Na4 O3 2.505067 1_555
Na4 O56 2.612014 1_555
Na4 O25 2.799851 1_555
Na4 O18 2.812057 1_556
Na4 O35 2.839218 1_555
Na5 O38 2.313579 1_555
Na5 O36 2.357695 1_545
Na5 O57 2.428874 1_555
Na5 O0 2.505065 1_555
Na5 O58 2.611999 1_555
Na5 O29 2.799851 1_545
Na5 O21 2.812053 1_555
Na5 O31 2.839218 1_545
Na6 O37 2.423753 1_545
Na6 O38 2.464725 1_655
Na6 O36 2.483960 1_645
Na6 O42 2.690774 1_555
Na6 O44 2.709217 1_545
Na6 O43 2.745724 1_655
Na7 O41 2.423753 1_555
Na7 O40 2.464725 1_655
Na7 O39 2.483960 1_665
Na7 O45 2.690774 1_556
Na7 O46 2.709217 1_566
Na7 O47 2.745724 1_666
Na8 O49 2.423753 1_555
Na8 O50 2.464725 1_555
Na8 O48 2.483960 1_555
Na8 O54 2.690774 1_555
Na8 O56 2.709217 1_555
Na8 O55 2.745724 1_555
Na9 O53 2.423753 1_555
Na9 O52 2.464725 1_555
Na9 O51 2.483960 1_555
Na9 O57 2.690774 1_555
Na9 O58 2.709217 1_555
Na9 O59 2.745724 1_555
Na10 O61 2.423753 1_555
Na10 O62 2.464725 1_555
Na10 O60 2.483960 1_555
Na10 O66 2.690774 1_555
Na10 O68 2.709217 1_555
Na10 O67 2.745724 1_555
Na11 O65 2.423753 1_555
Na11 O64 2.464725 1_555
Na11 O63 2.483960 1_555
Na11 O69 2.690774 1_555
Na11 O70 2.709217 1_555
Na11 O71 2.745724 1_555
Nb0 O8 1.958188 1_555
Nb0 O7 1.990999 1_565
Nb0 O43 2.008184 1_565
Nb0 O44 2.038971 1_455
Nb0 O6 2.047357 1_455
Nb0 O42 2.076824 1_465
Nb1 O10 1.958188 1_555
Nb1 O11 1.990999 1_545
Nb1 O47 2.008184 1_555
Nb1 O46 2.038971 1_455
Nb1 O9 2.047357 1_445
Nb1 O45 2.076824 1_445
Nb2 O20 1.958188 1_556
Nb2 O19 1.990999 1_556
Nb2 O55 2.008184 1_555
Nb2 O56 2.038971 1_555
Nb2 O18 2.047357 1_556
Nb2 O54 2.076824 1_555
Nb3 O22 1.958188 1_555
Nb3 O23 1.990999 1_555
Nb3 O59 2.008184 1_555
Nb3 O58 2.038971 1_555
Nb3 O21 2.047357 1_555
Nb3 O57 2.076824 1_555
Nb4 O32 1.958188 1_555
Nb4 O31 1.990999 1_555
Nb4 O67 2.008184 1_555
Nb4 O68 2.038971 1_555
Nb4 O30 2.047357 1_555
Nb4 O66 2.076824 1_555
Nb5 O34 1.958188 1_555
Nb5 O35 1.990999 1_555
Nb5 O71 2.008184 1_555
Nb5 O70 2.038971 1_555
Nb5 O33 2.047357 1_555
Nb5 O69 2.076824 1_555
O0 P0 1.507401 1_555
O0 Zn0 2.093843 1_445
O1 P1 1.501803 1_555
O1 Zn0 1.988432 1_555
O2 P2 1.485618 1_555
O2 Zn0 1.972170 1_545
O3 P3 1.507401 1_555
O3 Zn1 2.093843 1_445
O4 P4 1.485618 1_555
O4 Zn1 1.972170 1_555
O5 P5 1.501803 1_555
O5 Zn1 1.988432 1_545
O6 P5 1.597046 1_565
O7 P3 1.611973 1_555
O8 P4 1.601745 1_455
O9 P1 1.597046 1_555
O10 P2 1.601745 1_455
O11 P0 1.611973 1_565
O12 P6 1.507401 1_555
O12 Zn2 2.093843 1_555
O13 P7 1.501803 1_555
O13 Zn2 1.988432 1_555
O14 P8 1.485618 1_555
O14 Zn2 1.972170 1_555
O15 P9 1.507401 1_555
O15 Zn3 2.093843 1_555
O16 P10 1.485618 1_555
O16 Zn3 1.972170 1_555
O17 P11 1.501803 1_555
O17 Zn3 1.988432 1_555
O18 P11 1.597046 1_555
O19 P9 1.611973 1_555
O20 P10 1.601745 1_555
O21 P7 1.597046 1_555
O22 P8 1.601745 1_555
O23 P6 1.611973 1_555
O24 P12 1.507401 1_555
O24 Zn4 2.093843 1_556
O25 P13 1.501803 1_555
O25 Zn4 1.988432 1_556
O26 P14 1.485618 1_555
O26 Zn4 1.972170 1_556
O27 P15 1.507401 1_555
O27 Zn5 2.093843 1_555
O28 P16 1.485618 1_555
O28 Zn5 1.972170 1_555
O29 P17 1.501803 1_555
O29 Zn5 1.988432 1_555
O30 P17 1.597046 1_555
O31 P15 1.611973 1_555
O32 P16 1.601745 1_555
O33 P13 1.597046 1_555
O34 P14 1.601745 1_555
O35 P12 1.611973 1_555
O36 P17 1.519447 1_555
O36 Zn0 2.135795 1_455
O37 P15 1.503726 1_555
O37 Zn0 2.088249 1_555
O38 P16 1.519132 1_555
O38 Zn0 2.161757 1_445
O39 P13 1.519456 1_555
O39 Zn1 2.135794 1_445
O40 P14 1.519126 1_555
O40 Zn1 2.161757 1_455
O41 P12 1.503723 1_555
O41 Zn1 2.088248 1_555
O42 P6 1.603173 1_555
O43 P7 1.588974 1_555
O44 P8 1.602035 1_555
O45 P9 1.603182 1_555
O46 P10 1.602031 1_555
O47 P11 1.588970 1_555
O48 P5 1.519447 1_555
O48 Zn2 2.135795 1_555
O49 P3 1.503726 1_555
O49 Zn2 2.088249 1_555
O50 P4 1.519132 1_555
O50 Zn2 2.161757 1_555
O51 P1 1.519456 1_555
O51 Zn3 2.135794 1_555
O52 P2 1.519126 1_555
O52 Zn3 2.161757 1_555
O53 P0 1.503723 1_555
O53 Zn3 2.088248 1_555
O54 P12 1.603186 1_555
O55 P13 1.588959 1_655
O56 P14 1.602034 1_545
O57 P15 1.603168 1_545
O58 P16 1.602043 1_555
O59 P17 1.588967 1_655
O60 P11 1.519459 1_555
O60 Zn4 2.135795 1_555
O61 P9 1.503711 1_455
O61 Zn4 2.088249 1_555
O62 P10 1.519126 1_565
O62 Zn4 2.161757 1_555
O63 P7 1.519441 1_565
O63 Zn5 2.135794 1_555
O64 P8 1.519138 1_555
O64 Zn5 2.161757 1_555
O65 P6 1.503717 1_455
O65 Zn5 2.088248 1_555
O66 P0 1.603173 1_565
O67 P1 1.588974 1_555
O68 P2 1.602035 1_455
O69 P3 1.603182 1_555
O70 P4 1.602031 1_455
O71 P5 1.588970 1_565
