# generated using pymatgen
data_Li3V2P5O16
_symmetry_space_group_name_H-M   'P 1'
_cell_length_a   7.00792700
_cell_length_b   5.05024900
_cell_length_c   18.35524097
_cell_angle_alpha   86.88099847
_cell_angle_beta   90.00000000
_cell_angle_gamma   90.00000000
_symmetry_Int_Tables_number   1
_chemical_formula_structural   Li3V2P5O16
_chemical_formula_sum   'Li6 V4 P10 O32'
_cell_volume   648.66228144
_cell_formula_units_Z   2
loop_
 _symmetry_equiv_pos_site_id
 _symmetry_equiv_pos_as_xyz
  1  'x, y, z'
loop_
 _atom_site_type_symbol
 _atom_site_label
 _atom_site_symmetry_multiplicity
 _atom_site_fract_x
 _atom_site_fract_y
 _atom_site_fract_z
 _atom_site_occupancy
  Li  Li0  1  0.32225700  0.73907200  0.03360600  1
  Li  Li1  1  0.98448200  0.50000000  0.25000000  1
  Li  Li2  1  0.32225700  0.26092800  0.46639400  1
  Li  Li3  1  0.67774300  0.73907200  0.53360600  1
  Li  Li4  1  0.01551800  0.50000000  0.75000000  1
  Li  Li5  1  0.67774300  0.26092800  0.96639400  1
  V  V0  1  0.82170300  0.73335200  0.09048100  1
  V  V1  1  0.82170300  0.26664800  0.40951900  1
  V  V2  1  0.17829700  0.73335200  0.59048100  1
  V  V3  1  0.17829700  0.26664800  0.90951900  1
  P  P0  1  0.13020500  0.22707500  0.08668900  1
  P  P1  1  0.53164600  0.25736600  0.12419700  1
  P  P2  1  0.75608100  0.00000000  0.25000000  1
  P  P3  1  0.53164600  0.74263400  0.37580300  1
  P  P4  1  0.13020500  0.77292500  0.41331100  1
  P  P5  1  0.86979500  0.22707500  0.58668900  1
  P  P6  1  0.46835400  0.25736600  0.62419700  1
  P  P7  1  0.24391900  0.00000000  0.75000000  1
  P  P8  1  0.46835400  0.74263400  0.87580300  1
  P  P9  1  0.86979500  0.77292500  0.91331100  1
  O  O0  1  0.20891000  0.38294900  0.01900900  1
  O  O1  1  0.62170800  0.08012200  0.06943200  1
  O  O2  1  0.08213500  0.94045700  0.07165400  1
  O  O3  1  0.54672700  0.55263200  0.10664100  1
  O  O4  1  0.98630600  0.38342700  0.12984700  1
  O  O5  1  0.31533900  0.18702100  0.14269000  1
  O  O6  1  0.61504900  0.19253900  0.20451900  1
  O  O7  1  0.86665300  0.82213900  0.20219200  1
  O  O8  1  0.86665300  0.17786100  0.29780800  1
  O  O9  1  0.61504900  0.80746100  0.29548100  1
  O  O10  1  0.31533900  0.81297900  0.35731000  1
  O  O11  1  0.98630600  0.61657300  0.37015300  1
  O  O12  1  0.54672700  0.44736800  0.39335900  1
  O  O13  1  0.08213500  0.05954300  0.42834600  1
  O  O14  1  0.62170800  0.91987800  0.43056800  1
  O  O15  1  0.20891000  0.61705100  0.48099100  1
  O  O16  1  0.79109000  0.38294900  0.51900900  1
  O  O17  1  0.37829200  0.08012200  0.56943200  1
  O  O18  1  0.91786500  0.94045700  0.57165400  1
  O  O19  1  0.45327300  0.55263200  0.60664100  1
  O  O20  1  0.01369400  0.38342700  0.62984700  1
  O  O21  1  0.68466100  0.18702100  0.64269000  1
  O  O22  1  0.38495100  0.19253900  0.70451900  1
  O  O23  1  0.13334700  0.82213900  0.70219200  1
  O  O24  1  0.13334700  0.17786100  0.79780800  1
  O  O25  1  0.38495100  0.80746100  0.79548100  1
  O  O26  1  0.68466100  0.81297900  0.85731000  1
  O  O27  1  0.01369400  0.61657300  0.87015300  1
  O  O28  1  0.45327300  0.44736800  0.89335900  1
  O  O29  1  0.91786500  0.05954300  0.92834600  1
  O  O30  1  0.37829200  0.91987800  0.93056800  1
  O  O31  1  0.79109000  0.61705100  0.98099100  1
loop_
_geom_bond_atom_site_label_1
_geom_bond_atom_site_label_2
_geom_bond_distance
_geom_bond_site_symmetry_2
Li0 O0 1.997453 1_555
Li0 O30 2.092134 1_554
Li0 O2 2.105013 1_555
Li0 O3 2.240733 1_555
Li1 O7 1.985771 1_555
Li1 O8 1.985771 1_555
Li1 O4 2.313439 1_555
Li1 O11 2.313439 1_555
Li2 O15 1.997453 1_555
Li2 O17 2.092134 1_555
Li2 O13 2.105013 1_555
Li2 O12 2.240733 1_555
Li3 O16 1.997453 1_555
Li3 O14 2.092134 1_555
Li3 O18 2.105013 1_555
Li3 O19 2.240733 1_555
Li4 O23 1.985771 1_555
Li4 O24 1.985771 1_555
Li4 O20 2.313439 1_555
Li4 O27 2.313439 1_555
Li5 O31 1.997453 1_555
Li5 O1 2.092134 1_556
Li5 O29 2.105013 1_555
Li5 O28 2.240733 1_555
O0 P0 1.536474 1_555
O0 V3 2.135044 1_554
O1 P1 1.519208 1_555
O1 V0 2.259856 1_545
O2 P0 1.525892 1_565
O2 V0 2.122501 1_455
O3 P1 1.512051 1_555
O3 V0 2.145900 1_555
O4 P0 1.528412 1_655
O4 V0 2.199273 1_555
O5 P1 1.589387 1_555
O5 P0 1.660770 1_555
O6 P2 1.590882 1_555
O6 P1 1.603099 1_555
O7 P2 1.504363 1_565
O7 V0 2.145884 1_555
O8 P2 1.504363 1_555
O8 V1 2.145884 1_555
O9 P2 1.590882 1_565
O9 P3 1.603099 1_555
O10 P3 1.589387 1_555
O10 P4 1.660770 1_555
O11 P4 1.528412 1_655
O11 V1 2.199273 1_555
O12 P3 1.512051 1_555
O12 V1 2.145900 1_555
O13 P4 1.525892 1_545
O13 V1 2.122501 1_455
O14 P3 1.519208 1_555
O14 V1 2.259856 1_565
O15 P4 1.536474 1_555
O15 V2 2.135044 1_555
O16 P5 1.536474 1_555
O16 V1 2.135044 1_555
O17 P6 1.519208 1_555
O17 V2 2.259856 1_545
O18 P5 1.525892 1_565
O18 V2 2.122501 1_655
O19 P6 1.512051 1_555
O19 V2 2.145900 1_555
O20 P5 1.528412 1_455
O20 V2 2.199273 1_555
O21 P6 1.589387 1_555
O21 P5 1.660770 1_555
O22 P7 1.590882 1_555
O22 P6 1.603099 1_555
O23 P7 1.504363 1_565
O23 V2 2.145884 1_555
O24 P7 1.504363 1_555
O24 V3 2.145884 1_555
O25 P7 1.590882 1_565
O25 P8 1.603099 1_555
O26 P8 1.589387 1_555
O26 P9 1.660770 1_555
O27 P9 1.528412 1_455
O27 V3 2.199273 1_555
O28 P8 1.512051 1_555
O28 V3 2.145900 1_555
O29 P9 1.525892 1_545
O29 V3 2.122501 1_655
O30 P8 1.519208 1_555
O30 V3 2.259856 1_565
O31 P9 1.536474 1_555
O31 V0 2.135044 1_556
