# generated using pymatgen
data_Na6MgV2O8
_symmetry_space_group_name_H-M   'P 1'
_cell_length_a   6.79563236
_cell_length_b   6.12357742
_cell_length_c   6.18983362
_cell_angle_alpha   85.92847599
_cell_angle_beta   89.94245560
_cell_angle_gamma   90.04812072
_symmetry_Int_Tables_number   1
_chemical_formula_structural   Na6MgV2O8
_chemical_formula_sum   'Na6 Mg1 V2 O8'
_cell_volume   256.93082060
_cell_formula_units_Z   1
loop_
 _symmetry_equiv_pos_site_id
 _symmetry_equiv_pos_as_xyz
  1  'x, y, z'
loop_
 _atom_site_type_symbol
 _atom_site_label
 _atom_site_symmetry_multiplicity
 _atom_site_fract_x
 _atom_site_fract_y
 _atom_site_fract_z
 _atom_site_occupancy
  Na  Na0  1  0.99992036  0.09177364  0.49193275  1
  Na  Na1  1  0.22838731  0.32845555  0.97868187  1
  Na  Na2  1  0.26421392  0.60984947  0.38192868  1
  Na  Na3  1  0.49930079  0.96101229  0.12388107  1
  Na  Na4  1  0.73388988  0.61014838  0.37796810  1
  Na  Na5  1  0.77215371  0.32821325  0.97738658  1
  Mg  Mg0  1  0.50043219  0.66991760  0.79113213  1
  V  V0  1  0.00023170  0.82880742  0.01149462  1
  V  V1  1  0.50018763  0.16529016  0.50903232  1
  O  O0  1  0.00051086  0.09340205  0.87066624  1
  O  O1  1  0.00000706  0.79680728  0.29858772  1
  O  O2  1  0.25641565  0.71141594  0.96252848  1
  O  O3  1  0.28996131  0.24187587  0.34502984  1
  O  O4  1  0.50022924  0.34859492  0.73927338  1
  O  O5  1  0.50007188  0.85533010  0.51683347  1
  O  O6  1  0.71045477  0.24139583  0.34419362  1
  O  O7  1  0.74363175  0.71146026  0.96320614  1
loop_
_geom_bond_atom_site_label_1
_geom_bond_atom_site_label_2
_geom_bond_distance
_geom_bond_site_symmetry_2
Na0 O1 2.236464 1_645
Na0 O3 2.330505 1_655
Na0 O6 2.330856 1_555
Na0 O0 2.345034 1_655
Na1 O0 2.247632 1_555
Na1 O3 2.330212 1_556
Na1 O2 2.347685 1_555
Na1 O4 2.364753 1_555
Na2 O1 2.172993 1_555
Na2 O3 2.287766 1_555
Na2 O5 2.388060 1_555
Na2 O2 2.626783 1_554
Na3 O5 2.472139 1_555
Na3 O2 2.504746 1_554
Na3 O7 2.509585 1_554
Na3 O3 2.681442 1_565
Na3 O6 2.683073 1_565
Na4 O1 2.175626 1_655
Na4 O6 2.287906 1_555
Na4 O5 2.387940 1_555
Na4 O7 2.598798 1_554
Na5 O0 2.246915 1_655
Na5 O6 2.332337 1_556
Na5 O7 2.350423 1_555
Na5 O4 2.362704 1_555
Mg0 O5 1.974365 1_555
Mg0 O7 1.992957 1_555
Mg0 O2 1.993830 1_555
Mg0 O4 2.016024 1_555
O0 V0 1.784533 1_546
O1 V0 1.773946 1_555
O2 V0 1.916101 1_556
O3 V1 1.796624 1_555
O4 V1 1.875684 1_555
O5 V1 1.895248 1_565
O6 V1 1.796784 1_555
O7 V0 1.917248 1_656
