# generated using pymatgen
data_NaLaSnP2SO12
_symmetry_space_group_name_H-M   'P 1'
_cell_length_a   9.16137524
_cell_length_b   9.21764020
_cell_length_c   23.34786223
_cell_angle_alpha   88.57712687
_cell_angle_beta   90.00000000
_cell_angle_gamma   119.79828415
_symmetry_Int_Tables_number   1
_chemical_formula_structural   NaLaSnP2SO12
_chemical_formula_sum   'Na6 La6 Sn6 P12 S6 O72'
_cell_volume   1710.24951995
_cell_formula_units_Z   6
loop_
 _symmetry_equiv_pos_site_id
 _symmetry_equiv_pos_as_xyz
  1  'x, y, z'
loop_
 _atom_site_type_symbol
 _atom_site_label
 _atom_site_symmetry_multiplicity
 _atom_site_fract_x
 _atom_site_fract_y
 _atom_site_fract_z
 _atom_site_occupancy
  Na  Na0  1  0.97010248  0.97778086  0.49305123  1
  Na  Na1  1  0.00767839  0.97778086  0.99305123  1
  Na  Na2  1  0.63676948  0.31111386  0.82638423  1
  Na  Na3  1  0.67434539  0.31111386  0.32638423  1
  Na  Na4  1  0.30343548  0.64444786  0.15971823  1
  Na  Na5  1  0.34101139  0.64444786  0.65971823  1
  La  La0  1  0.99366962  0.00434586  0.64034592  1
  La  La1  1  0.01067623  0.00434586  0.14034592  1
  La  La2  1  0.66033662  0.33767886  0.97367892  1
  La  La3  1  0.67734323  0.33767886  0.47367892  1
  La  La4  1  0.32700262  0.67101286  0.30701292  1
  La  La5  1  0.34400923  0.67101286  0.80701292  1
  Sn  Sn0  1  0.00280285  0.00472550  0.35049292  1
  Sn  Sn1  1  0.00192265  0.00472550  0.85049292  1
  Sn  Sn2  1  0.66946985  0.33805850  0.68382592  1
  Sn  Sn3  1  0.66858965  0.33805850  0.18382592  1
  Sn  Sn4  1  0.33613585  0.67139250  0.01715992  1
  Sn  Sn5  1  0.33525565  0.67139250  0.51715992  1
  P  P0  1  0.31246699  0.03757443  0.25074322  1
  P  P1  1  0.97204195  0.27650992  0.24873621  1
  P  P2  1  0.30446796  0.27650992  0.74873621  1
  P  P3  1  0.72510744  0.03757443  0.75074322  1
  P  P4  1  0.97913399  0.37090743  0.58407622  1
  P  P5  1  0.63870895  0.60984292  0.58206921  1
  P  P6  1  0.97113496  0.60984292  0.08206921  1
  P  P7  1  0.39177444  0.37090743  0.08407622  1
  P  P8  1  0.64579999  0.70424143  0.91741022  1
  P  P9  1  0.30537495  0.94317692  0.91540321  1
  P  P10  1  0.63780096  0.94317692  0.41540321  1
  P  P11  1  0.05844044  0.70424143  0.41741022  1
  S  S0  1  0.72152302  0.68886128  0.25156235  1
  S  S1  1  0.96733825  0.68886128  0.75156235  1
  S  S2  1  0.38819002  0.02219428  0.58489535  1
  S  S3  1  0.63400525  0.02219428  0.08489535  1
  S  S4  1  0.05485602  0.35552828  0.91822935  1
  S  S5  1  0.30067125  0.35552828  0.41822935  1
  O  O0  1  0.21897199  0.04749649  0.30634484  1
  O  O1  1  0.81923159  0.77680019  0.30403710  1
  O  O2  1  0.95407643  0.17504977  0.30639036  1
  O  O3  1  0.22097333  0.17504977  0.80639036  1
  O  O4  1  0.95756860  0.77680019  0.80403710  1
  O  O5  1  0.82852450  0.04749649  0.80634484  1
  O  O6  1  0.80276652  0.01285970  0.69737294  1
  O  O7  1  0.20411795  0.18777725  0.69703268  1
  O  O8  1  0.98883597  0.78548962  0.69863532  1
  O  O9  1  0.79665365  0.78548962  0.19863532  1
  O  O10  1  0.98365931  0.18777725  0.19703268  1
  O  O11  1  0.21009318  0.01285970  0.19737294  1
  O  O12  1  0.88563899  0.38082949  0.63967784  1
  O  O13  1  0.48589859  0.11013319  0.63737010  1
  O  O14  1  0.62074343  0.50838277  0.63972336  1
  O  O15  1  0.88764033  0.50838277  0.13972336  1
  O  O16  1  0.62423560  0.11013319  0.13737010  1
  O  O17  1  0.49519150  0.38082949  0.13967784  1
  O  O18  1  0.46943352  0.34619270  0.03070594  1
  O  O19  1  0.87078495  0.52111025  0.03036568  1
  O  O20  1  0.65550297  0.11882262  0.03196832  1
  O  O21  1  0.46332065  0.11882262  0.53196832  1
  O  O22  1  0.65032631  0.52111025  0.53036568  1
  O  O23  1  0.87676018  0.34619270  0.53070594  1
  O  O24  1  0.55230499  0.71416349  0.97301184  1
  O  O25  1  0.15256459  0.44346719  0.97070410  1
  O  O26  1  0.28740943  0.84171677  0.97305736  1
  O  O27  1  0.55430633  0.84171677  0.47305736  1
  O  O28  1  0.29090160  0.44346719  0.47070410  1
  O  O29  1  0.16185750  0.71416349  0.47301184  1
  O  O30  1  0.13609952  0.67952670  0.36403994  1
  O  O31  1  0.53745095  0.85444425  0.36369968  1
  O  O32  1  0.32216897  0.45215662  0.36530232  1
  O  O33  1  0.12998665  0.45215662  0.86530232  1
  O  O34  1  0.31699231  0.85444425  0.86369968  1
  O  O35  1  0.54342618  0.67952670  0.86403994  1
  O  O36  1  0.06168058  0.87744117  0.41364585  1
  O  O37  1  0.81474627  0.95191505  0.41252786  1
  O  O38  1  0.13419138  0.19354492  0.41670288  1
  O  O39  1  0.05935354  0.19354492  0.91670288  1
  O  O40  1  0.13716878  0.95191505  0.91252786  1
  O  O41  1  0.81576058  0.87744117  0.91364585  1
  O  O42  1  0.02231039  0.23082388  0.58886267  1
  O  O43  1  0.21201083  0.98302621  0.58919266  1
  O  O44  1  0.78899306  0.78797791  0.58432299  1
  O  O45  1  0.99898485  0.78797791  0.08432299  1
  O  O46  1  0.77101538  0.98302621  0.08919266  1
  O  O47  1  0.20851350  0.23082388  0.08886267  1
  O  O48  1  0.72834758  0.21077417  0.74697885  1
  O  O49  1  0.48141327  0.28524805  0.74586086  1
  O  O50  1  0.80085838  0.52687792  0.75003588  1
  O  O51  1  0.72602054  0.52687792  0.25003588  1
  O  O52  1  0.80383578  0.28524805  0.24586086  1
  O  O53  1  0.48242758  0.21077417  0.24697885  1
  O  O54  1  0.68897739  0.56415688  0.92219567  1
  O  O55  1  0.87867783  0.31635921  0.92252566  1
  O  O56  1  0.45566006  0.12131091  0.91765599  1
  O  O57  1  0.66565185  0.12131091  0.41765599  1
  O  O58  1  0.43768238  0.31635921  0.42252566  1
  O  O59  1  0.87518050  0.56415688  0.42219567  1
  O  O60  1  0.39501358  0.54410817  0.08031285  1
  O  O61  1  0.14807927  0.61858205  0.07919486  1
  O  O62  1  0.46752438  0.86021192  0.08336988  1
  O  O63  1  0.39268654  0.86021192  0.58336988  1
  O  O64  1  0.47050178  0.61858205  0.57919486  1
  O  O65  1  0.14909358  0.54410817  0.58031285  1
  O  O66  1  0.35564339  0.89749088  0.25552967  1
  O  O67  1  0.54534383  0.64969321  0.25585966  1
  O  O68  1  0.12232606  0.45464491  0.25098999  1
  O  O69  1  0.33231785  0.45464491  0.75098999  1
  O  O70  1  0.10434838  0.64969321  0.75585966  1
  O  O71  1  0.54184650  0.89749088  0.75552967  1
loop_
_geom_bond_atom_site_label_1
_geom_bond_atom_site_label_2
_geom_bond_distance
_geom_bond_site_symmetry_2
Na0 O37 2.302637 1_555
Na0 O36 2.419261 1_655
Na0 O38 2.499056 1_665
Na0 O44 2.699025 1_555
Na1 O40 2.302637 1_555
Na1 O41 2.419262 1_455
Na1 O39 2.499057 1_565
Na1 O45 2.699025 1_456
Na2 O49 2.302637 1_555
Na2 O48 2.419261 1_555
Na2 O50 2.499056 1_555
Na2 O56 2.699025 1_555
Na3 O52 2.302637 1_555
Na3 O53 2.419262 1_555
Na3 O51 2.499057 1_555
Na3 O57 2.699025 1_555
Na4 O61 2.302637 1_555
Na4 O60 2.419261 1_555
Na4 O62 2.499056 1_555
Na4 O68 2.699025 1_555
Na5 O64 2.302637 1_555
Na5 O65 2.419262 1_555
Na5 O63 2.499057 1_555
Na5 O69 2.699025 1_555
La0 O6 2.231439 1_555
La0 O7 2.280098 1_655
La0 O42 2.280946 1_655
La0 O44 2.370075 1_545
La0 O8 2.387178 1_545
La0 O43 2.422517 1_645
La1 O11 2.231439 1_555
La1 O10 2.280098 1_455
La1 O47 2.280946 1_555
La1 O45 2.370075 1_445
La1 O9 2.387178 1_445
La1 O46 2.422517 1_445
La2 O18 2.231439 1_556
La2 O19 2.280098 1_556
La2 O54 2.280946 1_555
La2 O56 2.370075 1_555
La2 O20 2.387178 1_556
La2 O55 2.422517 1_555
La3 O23 2.231439 1_555
La3 O22 2.280098 1_555
La3 O59 2.280946 1_555
La3 O57 2.370075 1_555
La3 O21 2.387178 1_555
La3 O58 2.422517 1_555
La4 O30 2.231439 1_555
La4 O31 2.280098 1_555
La4 O66 2.280946 1_555
La4 O68 2.370075 1_555
La4 O32 2.387178 1_555
La4 O67 2.422517 1_555
La5 O35 2.231439 1_555
La5 O34 2.280098 1_555
La5 O71 2.280946 1_555
La5 O69 2.370075 1_555
La5 O33 2.387178 1_555
La5 O70 2.422517 1_555
O0 P0 1.584631 1_555
O0 Sn0 2.084161 1_555
O1 S0 1.512463 1_555
O1 Sn0 2.240573 1_665
O2 P1 1.580573 1_555
O2 Sn0 2.083435 1_655
O3 P2 1.580573 1_555
O3 Sn1 2.083435 1_555
O4 S1 1.512463 1_555
O4 Sn1 2.240573 1_665
O5 P3 1.584631 1_555
O5 Sn1 2.084161 1_655
O6 P3 1.511948 1_555
O7 P2 1.507681 1_555
O8 S1 1.459498 1_555
O9 S0 1.459498 1_555
O10 P1 1.507681 1_555
O11 P0 1.511948 1_555
O12 P4 1.584631 1_555
O12 Sn2 2.084161 1_555
O13 S2 1.512463 1_555
O13 Sn2 2.240573 1_555
O14 P5 1.580573 1_555
O14 Sn2 2.083435 1_555
O15 P6 1.580573 1_555
O15 Sn3 2.083435 1_555
O16 S3 1.512463 1_555
O16 Sn3 2.240573 1_555
O17 P7 1.584631 1_555
O17 Sn3 2.084161 1_555
O18 P7 1.511948 1_555
O19 P6 1.507681 1_555
O20 S3 1.459498 1_555
O21 S2 1.459498 1_555
O22 P5 1.507681 1_555
O23 P4 1.511948 1_555
O24 P8 1.584631 1_555
O24 Sn4 2.084161 1_556
O25 S4 1.512463 1_555
O25 Sn4 2.240573 1_556
O26 P9 1.580573 1_555
O26 Sn4 2.083435 1_556
O27 P10 1.580573 1_555
O27 Sn5 2.083435 1_555
O28 S5 1.512463 1_555
O28 Sn5 2.240573 1_555
O29 P11 1.584631 1_555
O29 Sn5 2.084161 1_555
O30 P11 1.511948 1_555
O31 P10 1.507681 1_555
O32 S5 1.459498 1_555
O33 S4 1.459498 1_555
O34 P9 1.507681 1_555
O35 P8 1.511948 1_555
O36 P11 1.582190 1_555
O36 Sn0 2.093964 1_565
O37 P10 1.583918 1_555
O37 Sn0 2.105814 1_665
O38 S5 1.515289 1_555
O38 Sn0 2.217931 1_555
O39 S4 1.515294 1_555
O39 Sn1 2.217931 1_555
O40 P9 1.583909 1_555
O40 Sn1 2.105814 1_565
O41 P8 1.582195 1_555
O41 Sn1 2.093964 1_665
O42 P4 1.528635 1_455
O43 S2 1.471251 1_565
O44 P5 1.533583 1_555
O45 P6 1.533586 1_555
O46 S3 1.471242 1_565
O47 P7 1.528641 1_555
O48 P3 1.582190 1_555
O48 Sn2 2.093964 1_555
O49 P2 1.583918 1_555
O49 Sn2 2.105814 1_555
O50 S1 1.515289 1_555
O50 Sn2 2.217931 1_555
O51 S0 1.515294 1_555
O51 Sn3 2.217931 1_555
O52 P1 1.583909 1_555
O52 Sn3 2.105814 1_555
O53 P0 1.582195 1_555
O53 Sn3 2.093964 1_555
O54 P8 1.528649 1_555
O55 S4 1.471238 1_655
O56 P9 1.533579 1_545
O57 P10 1.533572 1_545
O58 S5 1.471256 1_555
O59 P11 1.528637 1_655
O60 P7 1.582203 1_555
O60 Sn4 2.093964 1_555
O61 P6 1.583904 1_455
O61 Sn4 2.105814 1_555
O62 S3 1.515289 1_565
O62 Sn4 2.217931 1_555
O63 S2 1.515279 1_565
O63 Sn5 2.217931 1_555
O64 P5 1.583922 1_555
O64 Sn5 2.105814 1_555
O65 P4 1.582194 1_455
O65 Sn5 2.093964 1_555
O66 P0 1.528635 1_565
O67 S0 1.471251 1_555
O68 P1 1.533583 1_455
O69 P2 1.533586 1_555
O70 S1 1.471242 1_455
O71 P3 1.528641 1_565
