# generated using pymatgen
data_MgTl4(WO4)2
_symmetry_space_group_name_H-M   'P 1'
_cell_length_a   6.58459859
_cell_length_b   7.13270326
_cell_length_c   8.21387226
_cell_angle_alpha   89.99999986
_cell_angle_beta   91.23001044
_cell_angle_gamma   122.79400584
_symmetry_Int_Tables_number   1
_chemical_formula_structural   MgTl4(WO4)2
_chemical_formula_sum   'Mg1 Tl4 W2 O8'
_cell_volume   324.18369672
_cell_formula_units_Z   1
loop_
 _symmetry_equiv_pos_site_id
 _symmetry_equiv_pos_as_xyz
  1  'x, y, z'
loop_
 _atom_site_type_symbol
 _atom_site_label
 _atom_site_symmetry_multiplicity
 _atom_site_fract_x
 _atom_site_fract_y
 _atom_site_fract_z
 _atom_site_occupancy
  Mg  Mg0  1  0.00000000  0.33148698  0.50000000  1
  Tl  Tl0  1  0.35909306  0.70749866  0.82980362  1
  Tl  Tl1  1  0.64090694  0.34840460  0.17019638  1
  Tl  Tl2  1  0.00000000  0.89262844  0.50000000  1
  Tl  Tl3  1  1.00000000  0.03935900  0.00000000  1
  W  W0  1  0.35816100  0.69291186  0.28656428  1
  W  W1  1  0.64183900  0.33474986  0.71343572  1
  O  O0  1  0.90192466  0.30274926  0.75665497  1
  O  O1  1  0.70084522  0.59844771  0.79071474  1
  O  O2  1  0.35596504  0.09863161  0.78179377  1
  O  O3  1  0.64403496  0.74266757  0.21820623  1
  O  O4  1  0.09807534  0.40082560  0.24334503  1
  O  O5  1  0.29915478  0.89760350  0.20928526  1
  O  O6  1  0.67826078  0.32743907  0.48939676  1
  O  O7  1  0.32173922  0.64917929  0.51060324  1
loop_
_geom_bond_atom_site_label_1
_geom_bond_atom_site_label_2
_geom_bond_distance
_geom_bond_site_symmetry_2
Mg0 O6 2.102946 1_455
Mg0 O7 2.102949 1_555
Mg0 O0 2.195070 1_455
Mg0 O4 2.195070 1_555
Mg0 Tl2 3.130248 1_545
O0 W1 1.873049 1_555
O0 Tl0 2.875009 1_655
O1 W1 1.813665 1_555
O1 Tl0 2.774711 1_555
O2 W1 1.818308 1_555
O2 Tl3 2.826992 1_456
O2 Tl0 2.828606 1_545
O3 W0 1.818308 1_555
O3 Tl3 2.826990 1_565
O3 Tl1 2.828620 1_555
O4 W0 1.873049 1_555
O4 Tl1 2.875003 1_455
O5 W0 1.813665 1_555
O5 Tl1 2.774701 1_565
O6 W1 1.865252 1_555
O6 Tl1 2.639929 1_555
O7 W0 1.865252 1_555
O7 Tl0 2.639929 1_555
