# generated using pymatgen
data_Ca5Zn3
_symmetry_space_group_name_H-M   'P 1'
_cell_length_a   7.86218061
_cell_length_b   7.86216695
_cell_length_c   9.44537455
_cell_angle_alpha   114.62565990
_cell_angle_beta   114.62550993
_cell_angle_gamma   89.96592164
_symmetry_Int_Tables_number   1
_chemical_formula_structural   Ca5Zn3
_chemical_formula_sum   'Ca10 Zn6'
_cell_volume   471.78549181
_cell_formula_units_Z   2
loop_
 _symmetry_equiv_pos_site_id
 _symmetry_equiv_pos_as_xyz
  1  'x, y, z'
loop_
 _atom_site_type_symbol
 _atom_site_label
 _atom_site_symmetry_multiplicity
 _atom_site_fract_x
 _atom_site_fract_y
 _atom_site_fract_z
 _atom_site_occupancy
  Ca  Ca0  1  0.00000038  0.00000041  0.99999931  1
  Ca  Ca1  1  0.49999979  0.49999940  0.99999936  1
  Ca  Ca2  1  0.31785699  0.81785657  0.29332139  1
  Ca  Ca3  1  0.47554629  0.31784063  0.29327807  1
  Ca  Ca4  1  0.81784037  0.97554669  0.29327710  1
  Ca  Ca5  1  0.52445439  0.68216012  0.70672359  1
  Ca  Ca6  1  0.18216064  0.02445243  0.70672150  1
  Ca  Ca7  1  0.02459308  0.52459255  0.70692894  1
  Ca  Ca8  1  0.68214364  0.18214357  0.70667860  1
  Ca  Ca9  1  0.97540648  0.47540738  0.29307065  1
  Zn  Zn0  1  0.25000887  0.24999058  0.49999942  1
  Zn  Zn1  1  0.74999245  0.75001061  0.50000192  1
  Zn  Zn2  1  0.38510427  0.88510397  0.99966263  1
  Zn  Zn3  1  0.11487770  0.38511742  -0.00000255  1
  Zn  Zn4  1  0.88511959  0.61488236  0.00000058  1
  Zn  Zn5  1  0.61489608  0.11489632  0.00033850  1
loop_
_geom_bond_atom_site_label_1
_geom_bond_atom_site_label_2
_geom_bond_distance
_geom_bond_site_symmetry_2
Ca0 Zn2 3.160017 1_545
Ca0 Zn5 3.160026 1_456
Ca0 Zn3 3.160215 1_556
Ca0 Zn4 3.160228 1_446
Ca0 Ca7 3.673323 1_545
Ca0 Ca9 3.673324 1_456
Ca0 Ca8 3.674773 1_455
Ca0 Ca2 3.674784 1_546
Ca0 Ca5 3.675320 1_445
Ca0 Ca3 3.675321 1_556
Ca0 Ca6 3.675870 1_555
Ca0 Ca4 3.675873 1_446
Ca1 Zn5 3.160013 1_556
Ca1 Zn2 3.160016 1_555
Ca1 Zn4 3.160238 1_556
Ca1 Zn3 3.160250 1_556
Ca1 Ca9 3.673329 1_556
Ca1 Ca7 3.673329 1_555
Ca1 Ca8 3.674767 1_555
Ca1 Ca2 3.674773 1_556
Ca1 Ca6 3.675318 1_555
Ca1 Ca4 3.675324 1_556
Ca1 Ca5 3.675862 1_555
Ca1 Ca3 3.675874 1_556
Ca2 Zn4 3.203796 1_455
Ca2 Zn3 3.203810 1_555
Ca2 Zn2 3.270654 1_554
Ca2 Zn0 3.313135 1_565
Ca2 Zn1 3.313152 1_555
Ca2 Ca8 3.608511 1_565
Ca2 Ca9 3.807366 1_455
Ca2 Ca3 4.121255 1_555
Ca2 Ca4 4.121266 1_455
Ca2 Ca3 4.122748 1_565
Ca2 Ca4 4.122756 1_555
Ca2 Ca6 4.148177 1_565
Ca2 Ca5 4.148200 1_555
Ca3 Zn5 3.201103 1_555
Ca3 Zn2 3.204419 1_544
Ca3 Zn3 3.266101 1_555
Ca3 Zn1 3.313912 1_555
Ca3 Zn0 3.316008 1_555
Ca3 Ca5 3.609780 1_555
Ca3 Ca4 3.804764 1_545
Ca3 Ca9 4.121479 1_455
Ca3 Ca9 4.122345 1_555
Ca3 Ca7 4.147493 1_655
Ca3 Ca8 4.148189 1_555
Ca4 Zn5 3.201100 1_565
Ca4 Zn2 3.204422 1_554
Ca4 Zn4 3.266063 1_555
Ca4 Zn0 3.313902 1_665
Ca4 Zn1 3.316021 1_555
Ca4 Ca6 3.609790 1_665
Ca4 Ca9 4.121471 1_555
Ca4 Ca9 4.122337 1_565
Ca4 Ca7 4.147481 1_665
Ca4 Ca8 4.148191 1_565
Ca5 Zn2 3.201101 1_555
Ca5 Zn5 3.204415 1_566
Ca5 Zn4 3.266072 1_556
Ca5 Zn0 3.313907 1_555
Ca5 Zn1 3.316016 1_555
Ca5 Ca6 3.804753 1_565
Ca5 Ca8 4.121256 1_555
Ca5 Ca7 4.121478 1_655
Ca5 Ca7 4.122345 1_555
Ca5 Ca8 4.122752 1_565
Ca5 Ca9 4.147506 1_455
Ca6 Zn2 3.201112 1_545
Ca6 Zn5 3.204425 1_556
Ca6 Zn3 3.266078 1_556
Ca6 Zn1 3.313896 1_445
Ca6 Zn0 3.316012 1_555
Ca6 Ca8 4.121275 1_455
Ca6 Ca7 4.121478 1_555
Ca6 Ca7 4.122339 1_545
Ca6 Ca8 4.122748 1_555
Ca6 Ca9 4.147474 1_445
Ca7 Zn3 3.203157 1_556
Ca7 Zn4 3.203167 1_456
Ca7 Zn2 3.264956 1_555
Ca7 Zn0 3.314779 1_555
Ca7 Zn1 3.314780 1_455
Ca7 Ca9 3.613911 1_455
Ca7 Ca8 3.807361 1_455
Ca8 Zn3 3.203774 1_656
Ca8 Zn4 3.203801 1_556
Ca8 Zn5 3.270665 1_556
Ca8 Zn1 3.313128 1_545
Ca8 Zn0 3.313148 1_555
Ca9 Zn4 3.203167 1_555
Ca9 Zn3 3.203168 1_655
Ca9 Zn5 3.264950 1_555
Ca9 Zn1 3.314781 1_555
Ca9 Zn0 3.314787 1_655
Zn2 Zn5 2.552015 1_566
Zn3 Zn4 2.553911 1_455
