# generated using pymatgen
data_Na8Mg(NiO4)2
_symmetry_space_group_name_H-M   'P 1'
_cell_length_a   8.83536640
_cell_length_b   5.74774608
_cell_length_c   5.87331409
_cell_angle_alpha   68.26907827
_cell_angle_beta   109.38679625
_cell_angle_gamma   99.00632027
_symmetry_Int_Tables_number   1
_chemical_formula_structural   Na8Mg(NiO4)2
_chemical_formula_sum   'Na8 Mg1 Ni2 O8'
_cell_volume   261.16733230
_cell_formula_units_Z   1
loop_
 _symmetry_equiv_pos_site_id
 _symmetry_equiv_pos_as_xyz
  1  'x, y, z'
loop_
 _atom_site_type_symbol
 _atom_site_label
 _atom_site_symmetry_multiplicity
 _atom_site_fract_x
 _atom_site_fract_y
 _atom_site_fract_z
 _atom_site_occupancy
  Na  Na0  1  0.17399235  0.03666107  0.68662544  1
  Na  Na1  1  0.14722363  0.56947275  0.14509897  1
  Na  Na2  1  0.30387321  0.55578940  0.74506425  1
  Na  Na3  1  0.30936093  0.06666522  0.25311611  1
  Na  Na4  1  0.63915512  0.05228282  0.57103290  1
  Na  Na5  1  0.73625931  0.55167693  0.93255587  1
  Na  Na6  1  0.84689024  0.98535862  0.37648810  1
  Na  Na7  1  0.91716013  0.53179573  0.61943607  1
  Mg  Mg0  1  0.52707073  0.11886682  0.93857751  1
  Ni  Ni0  1  0.49803385  0.54148688  0.30780205  1
  Ni  Ni1  1  0.97181643  0.02266532  0.00838612  1
  O  O0  1  0.11394005  0.28636060  0.90758445  1
  O  O1  1  0.07536752  0.83144029  0.35570376  1
  O  O2  1  0.38069269  0.80907890  0.02675786  1
  O  O3  1  0.39622717  0.29707551  0.55533538  1
  O  O4  1  0.65713410  0.69656502  0.48587769  1
  O  O5  1  0.54738698  0.32877632  0.15375347  1
  O  O6  1  0.94700114  0.82524250  0.81500654  1
  O  O7  1  0.75939840  0.12829831  0.94658745  1
loop_
_geom_bond_atom_site_label_1
_geom_bond_atom_site_label_2
_geom_bond_distance
_geom_bond_site_symmetry_2
Na0 O2 2.329804 1_546
Na0 O6 2.372736 1_445
Na0 O3 2.433267 1_555
Na0 O0 2.469878 1_555
Na0 O1 2.485910 1_545
Na1 O6 2.340123 1_454
Na1 O0 2.437054 1_554
Na1 O2 2.447129 1_555
Na1 O1 2.529848 1_555
Na1 O3 2.804056 1_555
Na2 O0 2.297963 1_555
Na2 O2 2.458896 1_556
Na2 O3 2.515829 1_555
Na2 O1 2.658817 1_555
Na2 O5 2.687832 1_556
Na3 O0 2.270019 1_554
Na3 O1 2.411188 1_545
Na3 O3 2.451878 1_555
Na3 O5 2.490955 1_555
Na3 O2 2.581213 1_545
Na4 O7 2.279799 1_555
Na4 O4 2.316746 1_545
Na4 O5 2.321541 1_555
Na4 O3 2.704272 1_555
Na5 O4 2.326317 1_555
Na5 O6 2.355623 1_555
Na5 O5 2.377265 1_556
Na5 O7 2.442632 1_555
Na6 O7 2.239378 1_564
Na6 O4 2.243447 1_555
Na6 O6 2.291303 1_555
Na6 O1 2.382299 1_655
Na7 O0 2.218923 1_655
Na7 O6 2.308257 1_555
Na7 O4 2.392710 1_555
Na7 O1 2.455143 1_655
Mg0 O5 1.998935 1_556
Mg0 O7 2.030189 1_555
Mg0 O2 2.037685 1_546
Mg0 O3 2.094782 1_555
Ni0 O4 1.785048 1_555
Ni0 O2 1.910047 1_555
Ni0 O5 1.936876 1_555
Ni0 O3 1.963783 1_555
Ni1 O6 1.826700 1_544
Ni1 O0 1.859502 1_654
Ni1 O1 1.903122 1_645
Ni1 O7 1.940116 1_554
