# generated using pymatgen
data_MgZn(ReO4)2
_symmetry_space_group_name_H-M   'P 1'
_cell_length_a   5.48045000
_cell_length_b   5.48045007
_cell_length_c   7.37441100
_cell_angle_alpha   90.00000000
_cell_angle_beta   90.00000000
_cell_angle_gamma   119.99998915
_symmetry_Int_Tables_number   1
_chemical_formula_structural   MgZn(ReO4)2
_chemical_formula_sum   'Mg1 Zn1 Re2 O8'
_cell_volume   191.81848773
_cell_formula_units_Z   1
loop_
 _symmetry_equiv_pos_site_id
 _symmetry_equiv_pos_as_xyz
  1  'x, y, z'
loop_
 _atom_site_type_symbol
 _atom_site_label
 _atom_site_symmetry_multiplicity
 _atom_site_fract_x
 _atom_site_fract_y
 _atom_site_fract_z
 _atom_site_occupancy
  Mg  Mg0  1  0.33333300  0.66666700  0.78145000  1
  Zn  Zn0  1  0.00000000  0.00000000  0.97942000  1
  Re  Re0  1  0.33333300  0.66666700  0.27042400  1
  Re  Re1  1  0.66666700  0.33333300  0.73430900  1
  O  O0  1  0.66666700  0.33333300  0.49943900  1
  O  O1  1  0.33333300  0.66666700  0.51072500  1
  O  O2  1  0.67806600  0.02152300  0.84439300  1
  O  O3  1  0.08894700  0.33582400  0.18368500  1
  O  O4  1  0.66417600  0.75312500  0.18368500  1
  O  O5  1  0.24687500  0.91105300  0.18368500  1
  O  O6  1  0.97847700  0.65654100  0.84439300  1
  O  O7  1  0.34345900  0.32193400  0.84439300  1
loop_
_geom_bond_atom_site_label_1
_geom_bond_atom_site_label_2
_geom_bond_distance
_geom_bond_site_symmetry_2
Mg0 O6 1.973002 1_455
Mg0 O2 1.973010 1_565
Mg0 O7 1.973018 1_555
Mg0 O1 1.996437 1_555
O0 Re1 1.732028 1_555
O1 Re0 1.772078 1_555
O2 Re1 1.920907 1_555
O2 Zn0 2.080010 1_655
O3 Re0 1.749891 1_555
O3 Zn0 2.235356 1_554
O4 Re0 1.749890 1_555
O4 Zn0 2.235354 1_664
O5 Re0 1.749894 1_555
O5 Zn0 2.235348 1_564
O6 Re1 1.920905 1_555
O6 Zn0 2.080020 1_665
O7 Re1 1.920902 1_555
O7 Zn0 2.080016 1_555
