# generated using pymatgen
data_MgTe4Mo3W(SeS)2
_symmetry_space_group_name_H-M   'P 1'
_cell_length_a   6.77984400
_cell_length_b   6.77932761
_cell_length_c   92.86846015
_cell_angle_alpha   90.00584795
_cell_angle_beta   90.00000000
_cell_angle_gamma   120.00250023
_symmetry_Int_Tables_number   1
_chemical_formula_structural   MgTe4Mo3W(SeS)2
_chemical_formula_sum   'Mg8 Te32 Mo24 W8 Se16 S16'
_cell_volume   3696.53016007
_cell_formula_units_Z   8
loop_
 _symmetry_equiv_pos_site_id
 _symmetry_equiv_pos_as_xyz
  1  'x, y, z'
loop_
 _atom_site_type_symbol
 _atom_site_label
 _atom_site_symmetry_multiplicity
 _atom_site_fract_x
 _atom_site_fract_y
 _atom_site_fract_z
 _atom_site_occupancy
  Mg  Mg0_0  1  0.49999600  0.49999200  0.18916300  1
  Mg  Mg0_1  1  0.49999600  0.49999200  0.68916300  1
  Mg  Mg0_2  1  0.49999600  0.99999200  0.18916300  1
  Mg  Mg0_3  1  0.49999600  0.99999200  0.68916300  1
  Mg  Mg0_4  1  0.99999600  0.49999200  0.18916300  1
  Mg  Mg0_5  1  0.99999600  0.49999200  0.68916300  1
  Mg  Mg0_6  1  0.99999600  0.99999200  0.18916300  1
  Mg  Mg0_7  1  0.99999600  0.99999200  0.68916300  1
  Te  Te0_0  1  0.16670100  0.33340200  0.15801550  1
  Te  Te0_1  1  0.16670100  0.33340200  0.65801550  1
  Te  Te0_2  1  0.16670100  0.83340200  0.15801550  1
  Te  Te0_3  1  0.16670100  0.83340200  0.65801550  1
  Te  Te0_4  1  0.66670100  0.33340200  0.15801550  1
  Te  Te0_5  1  0.66670100  0.33340200  0.65801550  1
  Te  Te0_6  1  0.66670100  0.83340200  0.15801550  1
  Te  Te0_7  1  0.66670100  0.83340200  0.65801550  1
  Te  Te1_0  1  0.16665650  0.33331300  0.34897550  1
  Te  Te1_1  1  0.16665650  0.33331300  0.84897550  1
  Te  Te1_2  1  0.16665650  0.83331300  0.34897550  1
  Te  Te1_3  1  0.16665650  0.83331300  0.84897550  1
  Te  Te1_4  1  0.66665650  0.33331300  0.34897550  1
  Te  Te1_5  1  0.66665650  0.33331300  0.84897550  1
  Te  Te1_6  1  0.66665650  0.83331300  0.34897550  1
  Te  Te1_7  1  0.66665650  0.83331300  0.84897550  1
  Te  Te2_0  1  0.16669400  0.33338850  0.11741000  1
  Te  Te2_1  1  0.16669400  0.33338850  0.61741000  1
  Te  Te2_2  1  0.16669400  0.83338850  0.11741000  1
  Te  Te2_3  1  0.16669400  0.83338850  0.61741000  1
  Te  Te2_4  1  0.66669400  0.33338850  0.11741000  1
  Te  Te2_5  1  0.66669400  0.33338850  0.61741000  1
  Te  Te2_6  1  0.66669400  0.83338850  0.11741000  1
  Te  Te2_7  1  0.66669400  0.83338850  0.61741000  1
  Te  Te3_0  1  0.16661250  0.33322550  0.30857350  1
  Te  Te3_1  1  0.16661250  0.33322550  0.80857350  1
  Te  Te3_2  1  0.16661250  0.83322550  0.30857350  1
  Te  Te3_3  1  0.16661250  0.83322550  0.80857350  1
  Te  Te3_4  1  0.66661250  0.33322550  0.30857350  1
  Te  Te3_5  1  0.66661250  0.33322550  0.80857350  1
  Te  Te3_6  1  0.66661250  0.83322550  0.30857350  1
  Te  Te3_7  1  0.66661250  0.83322550  0.80857350  1
  Mo  Mo0_0  1  0.16668800  0.33337600  0.04694700  1
  Mo  Mo0_1  1  0.16668800  0.33337600  0.54694700  1
  Mo  Mo0_2  1  0.16668800  0.83337600  0.04694700  1
  Mo  Mo0_3  1  0.16668800  0.83337600  0.54694700  1
  Mo  Mo0_4  1  0.66668800  0.33337600  0.04694700  1
  Mo  Mo0_5  1  0.66668800  0.33337600  0.54694700  1
  Mo  Mo0_6  1  0.66668800  0.83337600  0.04694700  1
  Mo  Mo0_7  1  0.66668800  0.83337600  0.54694700  1
  Mo  Mo1_0  1  0.33336600  0.16673300  0.13759400  1
  Mo  Mo1_1  1  0.33336600  0.16673300  0.63759400  1
  Mo  Mo1_2  1  0.33336600  0.66673300  0.13759400  1
  Mo  Mo1_3  1  0.33336600  0.66673300  0.63759400  1
  Mo  Mo1_4  1  0.83336600  0.16673300  0.13759400  1
  Mo  Mo1_5  1  0.83336600  0.16673300  0.63759400  1
  Mo  Mo1_6  1  0.83336600  0.66673300  0.13759400  1
  Mo  Mo1_7  1  0.83336600  0.66673300  0.63759400  1
  Mo  Mo2_0  1  0.33330700  0.16661350  0.32877600  1
  Mo  Mo2_1  1  0.33330700  0.16661350  0.82877600  1
  Mo  Mo2_2  1  0.33330700  0.66661350  0.32877600  1
  Mo  Mo2_3  1  0.33330700  0.66661350  0.82877600  1
  Mo  Mo2_4  1  0.83330700  0.16661350  0.32877600  1
  Mo  Mo2_5  1  0.83330700  0.16661350  0.82877600  1
  Mo  Mo2_6  1  0.83330700  0.66661350  0.32877600  1
  Mo  Mo2_7  1  0.83330700  0.66661350  0.82877600  1
  W  W0_0  1  0.16664500  0.33329050  0.23957450  1
  W  W0_1  1  0.16664500  0.33329050  0.73957450  1
  W  W0_2  1  0.16664500  0.83329050  0.23957450  1
  W  W0_3  1  0.16664500  0.83329050  0.73957450  1
  W  W0_4  1  0.66664500  0.33329050  0.23957450  1
  W  W0_5  1  0.66664500  0.33329050  0.73957450  1
  W  W0_6  1  0.66664500  0.83329050  0.23957450  1
  W  W0_7  1  0.66664500  0.83329050  0.73957450  1
  Se  Se0_0  1  0.33333400  0.16666800  0.02915800  1
  Se  Se0_1  1  0.33333400  0.16666800  0.52915800  1
  Se  Se0_2  1  0.33333400  0.66666800  0.02915800  1
  Se  Se0_3  1  0.33333400  0.66666800  0.52915800  1
  Se  Se0_4  1  0.83333400  0.16666800  0.02915800  1
  Se  Se0_5  1  0.83333400  0.16666800  0.52915800  1
  Se  Se0_6  1  0.83333400  0.66666800  0.02915800  1
  Se  Se0_7  1  0.83333400  0.66666800  0.52915800  1
  Se  Se1_0  1  0.33337500  0.16674900  0.06472450  1
  Se  Se1_1  1  0.33337500  0.16674900  0.56472450  1
  Se  Se1_2  1  0.33337500  0.66674900  0.06472450  1
  Se  Se1_3  1  0.33337500  0.66674900  0.56472450  1
  Se  Se1_4  1  0.83337500  0.16674900  0.06472450  1
  Se  Se1_5  1  0.83337500  0.16674900  0.56472450  1
  Se  Se1_6  1  0.83337500  0.66674900  0.06472450  1
  Se  Se1_7  1  0.83337500  0.66674900  0.56472450  1
  S  S0_0  1  0.33329500  0.16658900  0.22329500  1
  S  S0_1  1  0.33329500  0.16658900  0.72329500  1
  S  S0_2  1  0.33329500  0.66658900  0.22329500  1
  S  S0_3  1  0.33329500  0.66658900  0.72329500  1
  S  S0_4  1  0.83329500  0.16658900  0.22329500  1
  S  S0_5  1  0.83329500  0.16658900  0.72329500  1
  S  S0_6  1  0.83329500  0.66658900  0.22329500  1
  S  S0_7  1  0.83329500  0.66658900  0.72329500  1
  S  S1_0  1  0.33333050  0.16666050  0.25574350  1
  S  S1_1  1  0.33333050  0.16666050  0.75574350  1
  S  S1_2  1  0.33333050  0.66666050  0.25574350  1
  S  S1_3  1  0.33333050  0.66666050  0.75574350  1
  S  S1_4  1  0.83333050  0.16666050  0.25574350  1
  S  S1_5  1  0.83333050  0.16666050  0.75574350  1
  S  S1_6  1  0.83333050  0.66666050  0.25574350  1
  S  S1_7  1  0.83333050  0.66666050  0.75574350  1
loop_
_geom_bond_atom_site_label_1
_geom_bond_atom_site_label_2
_geom_bond_distance
_geom_bond_site_symmetry_2
Mg0_0 Mg0_2 3.389664 1_545
Mg0_0 Mg0_2 3.389664 1_555
Mg0_0 Mg0_6 3.389665 1_445
Mg0_0 Mg0_6 3.389665 1_555
Mg0_0 Mg0_4 3.389922 1_555
Mg0_0 Mg0_4 3.389922 1_455
Mg0_0 Te0_4 3.492282 1_555
Mg0_0 Te0_0 3.492282 1_555
Mg0_0 Te0_6 3.492864 1_555
Mg0_1 Mg0_3 3.389664 1_545
Mg0_1 Mg0_3 3.389664 1_555
Mg0_1 Mg0_7 3.389665 1_445
Mg0_1 Mg0_7 3.389665 1_555
Mg0_1 Mg0_5 3.389922 1_455
Mg0_1 Mg0_5 3.389922 1_555
Mg0_1 Te0_5 3.492282 1_555
Mg0_1 Te0_1 3.492282 1_555
Mg0_1 Te0_7 3.492864 1_555
Mg0_2 Mg0_4 3.389665 1_565
Mg0_2 Mg0_4 3.389665 1_455
Mg0_2 Mg0_6 3.389922 1_455
Mg0_2 Mg0_6 3.389922 1_555
Mg0_2 Te0_6 3.492282 1_555
Mg0_2 Te0_2 3.492282 1_555
Mg0_2 Te0_4 3.492864 1_565
Mg0_3 Mg0_5 3.389665 1_565
Mg0_3 Mg0_5 3.389665 1_455
Mg0_3 Mg0_7 3.389922 1_455
Mg0_3 Mg0_7 3.389922 1_555
Mg0_3 Te0_7 3.492282 1_555
Mg0_3 Te0_3 3.492282 1_555
Mg0_3 Te0_5 3.492864 1_565
Mg0_4 Mg0_6 3.389664 1_555
Mg0_4 Mg0_6 3.389664 1_545
Mg0_4 Te0_0 3.492282 1_655
Mg0_4 Te0_4 3.492282 1_555
Mg0_4 Te0_2 3.492864 1_655
Mg0_5 Mg0_7 3.389664 1_555
Mg0_5 Mg0_7 3.389664 1_545
Mg0_5 Te0_1 3.492282 1_655
Mg0_5 Te0_5 3.492282 1_555
Mg0_5 Te0_3 3.492864 1_655
Mg0_6 Te0_2 3.492282 1_655
Mg0_6 Te0_6 3.492282 1_555
Mg0_6 Te0_0 3.492864 1_665
Mg0_7 Te0_3 3.492282 1_655
Mg0_7 Te0_7 3.492282 1_555
Mg0_7 Te0_1 3.492864 1_665
Mo0_0 Se1_2 2.560390 1_555
Mo0_0 Se1_4 2.560458 1_455
Mo0_0 Se1_0 2.560462 1_555
Mo0_0 Se0_2 2.561013 1_555
Mo0_0 Se0_0 2.561181 1_555
Mo0_0 Se0_4 2.561182 1_455
Mo0_1 Se1_3 2.560390 1_555
Mo0_1 Se1_5 2.560458 1_455
Mo0_1 Se1_1 2.560462 1_555
Mo0_1 Se0_3 2.561013 1_555
Mo0_1 Se0_1 2.561181 1_555
Mo0_1 Se0_5 2.561182 1_455
Mo0_2 Se1_0 2.560390 1_565
Mo0_2 Se1_6 2.560458 1_455
Mo0_2 Se1_2 2.560462 1_555
Mo0_2 Se0_0 2.561013 1_565
Mo0_2 Se0_2 2.561181 1_555
Mo0_2 Se0_6 2.561182 1_455
Mo0_3 Se1_1 2.560390 1_565
Mo0_3 Se1_7 2.560458 1_455
Mo0_3 Se1_3 2.560462 1_555
Mo0_3 Se0_1 2.561013 1_565
Mo0_3 Se0_3 2.561181 1_555
Mo0_3 Se0_7 2.561182 1_455
Mo0_4 Se1_6 2.560390 1_555
Mo0_4 Se1_0 2.560458 1_555
Mo0_4 Se1_4 2.560462 1_555
Mo0_4 Se0_6 2.561013 1_555
Mo0_4 Se0_4 2.561181 1_555
Mo0_4 Se0_0 2.561182 1_555
Mo0_5 Se1_7 2.560390 1_555
Mo0_5 Se1_1 2.560458 1_555
Mo0_5 Se1_5 2.560462 1_555
Mo0_5 Se0_7 2.561013 1_555
Mo0_5 Se0_5 2.561181 1_555
Mo0_5 Se0_1 2.561182 1_555
Mo0_6 Se1_4 2.560390 1_565
Mo0_6 Se1_2 2.560458 1_555
Mo0_6 Se1_6 2.560462 1_555
Mo0_6 Se0_4 2.561013 1_565
Mo0_6 Se0_6 2.561181 1_555
Mo0_6 Se0_2 2.561182 1_555
Mo0_7 Se1_5 2.560390 1_565
Mo0_7 Se1_3 2.560458 1_555
Mo0_7 Se1_7 2.560462 1_555
Mo0_7 Se0_5 2.561013 1_565
Mo0_7 Se0_7 2.561181 1_555
Mo0_7 Se0_3 2.561182 1_555
Mo1_0 Te2_2 2.709747 1_545
Mo1_0 Te2_0 2.710021 1_555
Mo1_0 Te2_4 2.710024 1_555
Mo1_0 Te0_0 2.725192 1_555
Mo1_0 Te0_4 2.725196 1_555
Mo1_0 Te0_2 2.725313 1_545
Mo1_1 Te2_3 2.709747 1_545
Mo1_1 Te2_1 2.710021 1_555
Mo1_1 Te2_5 2.710024 1_555
Mo1_1 Te0_1 2.725192 1_555
Mo1_1 Te0_5 2.725196 1_555
Mo1_1 Te0_3 2.725313 1_545
Mo1_2 Te2_0 2.709747 1_555
Mo1_2 Te2_2 2.710021 1_555
Mo1_2 Te2_6 2.710024 1_555
Mo1_2 Te0_2 2.725192 1_555
Mo1_2 Te0_6 2.725196 1_555
Mo1_2 Te0_0 2.725313 1_555
Mo1_3 Te2_1 2.709747 1_555
Mo1_3 Te2_3 2.710021 1_555
Mo1_3 Te2_7 2.710024 1_555
Mo1_3 Te0_3 2.725192 1_555
Mo1_3 Te0_7 2.725196 1_555
Mo1_3 Te0_1 2.725313 1_555
Mo1_4 Te2_6 2.709747 1_545
Mo1_4 Te2_4 2.710021 1_555
Mo1_4 Te2_0 2.710024 1_655
Mo1_4 Te0_4 2.725192 1_555
Mo1_4 Te0_0 2.725196 1_655
Mo1_4 Te0_6 2.725313 1_545
Mo1_5 Te2_7 2.709747 1_545
Mo1_5 Te2_5 2.710021 1_555
Mo1_5 Te2_1 2.710024 1_655
Mo1_5 Te0_5 2.725192 1_555
Mo1_5 Te0_1 2.725196 1_655
Mo1_5 Te0_7 2.725313 1_545
Mo1_6 Te2_4 2.709747 1_555
Mo1_6 Te2_6 2.710021 1_555
Mo1_6 Te2_2 2.710024 1_655
Mo1_6 Te0_6 2.725192 1_555
Mo1_6 Te0_2 2.725196 1_655
Mo1_6 Te0_4 2.725313 1_555
Mo1_7 Te2_5 2.709747 1_555
Mo1_7 Te2_7 2.710021 1_555
Mo1_7 Te2_3 2.710024 1_655
Mo1_7 Te0_7 2.725192 1_555
Mo1_7 Te0_3 2.725196 1_655
Mo1_7 Te0_5 2.725313 1_555
Mo2_0 Te1_2 2.710875 1_545
Mo2_0 Te1_4 2.710951 1_555
Mo2_0 Te1_0 2.710953 1_555
Mo2_0 Te3_4 2.711117 1_555
Mo2_0 Te3_2 2.711120 1_545
Mo2_0 Te3_0 2.711121 1_555
Mo2_1 Te1_3 2.710875 1_545
Mo2_1 Te1_5 2.710951 1_555
Mo2_1 Te1_1 2.710953 1_555
Mo2_1 Te3_5 2.711117 1_555
Mo2_1 Te3_3 2.711120 1_545
Mo2_1 Te3_1 2.711121 1_555
Mo2_2 Te1_0 2.710875 1_555
Mo2_2 Te1_6 2.710951 1_555
Mo2_2 Te1_2 2.710953 1_555
Mo2_2 Te3_6 2.711117 1_555
Mo2_2 Te3_0 2.711120 1_555
Mo2_2 Te3_2 2.711121 1_555
Mo2_3 Te1_1 2.710875 1_555
Mo2_3 Te1_7 2.710951 1_555
Mo2_3 Te1_3 2.710953 1_555
Mo2_3 Te3_7 2.711117 1_555
Mo2_3 Te3_1 2.711120 1_555
Mo2_3 Te3_3 2.711121 1_555
Mo2_4 Te1_6 2.710875 1_545
Mo2_4 Te1_0 2.710951 1_655
Mo2_4 Te1_4 2.710953 1_555
Mo2_4 Te3_0 2.711117 1_655
Mo2_4 Te3_6 2.711120 1_545
Mo2_4 Te3_4 2.711121 1_555
Mo2_5 Te1_7 2.710875 1_545
Mo2_5 Te1_1 2.710951 1_655
Mo2_5 Te1_5 2.710953 1_555
Mo2_5 Te3_1 2.711117 1_655
Mo2_5 Te3_7 2.711120 1_545
Mo2_5 Te3_5 2.711121 1_555
Mo2_6 Te1_4 2.710875 1_555
Mo2_6 Te1_2 2.710951 1_655
Mo2_6 Te1_6 2.710953 1_555
Mo2_6 Te3_2 2.711117 1_655
Mo2_6 Te3_4 2.711120 1_555
Mo2_6 Te3_6 2.711121 1_555
Mo2_7 Te1_5 2.710875 1_555
Mo2_7 Te1_3 2.710951 1_655
Mo2_7 Te1_7 2.710953 1_555
Mo2_7 Te3_3 2.711117 1_655
Mo2_7 Te3_5 2.711120 1_555
Mo2_7 Te3_7 2.711121 1_555
S0_0 W0_2 2.472922 1_545
S0_0 W0_4 2.473067 1_555
S0_0 W0_0 2.473074 1_555
S0_1 W0_3 2.472922 1_545
S0_1 W0_5 2.473067 1_555
S0_1 W0_1 2.473074 1_555
S0_2 W0_0 2.472922 1_555
S0_2 W0_6 2.473067 1_555
S0_2 W0_2 2.473074 1_555
S0_3 W0_1 2.472922 1_555
S0_3 W0_7 2.473067 1_555
S0_3 W0_3 2.473074 1_555
S0_4 W0_6 2.472922 1_545
S0_4 W0_0 2.473067 1_655
S0_4 W0_4 2.473074 1_555
S0_5 W0_7 2.472922 1_545
S0_5 W0_1 2.473067 1_655
S0_5 W0_5 2.473074 1_555
S0_6 W0_4 2.472922 1_555
S0_6 W0_2 2.473067 1_655
S0_6 W0_6 2.473074 1_555
S0_7 W0_5 2.472922 1_555
S0_7 W0_3 2.473067 1_655
S0_7 W0_7 2.473074 1_555
S1_0 W0_2 2.466712 1_545
S1_0 W0_4 2.466783 1_555
S1_0 W0_0 2.466787 1_555
S1_1 W0_3 2.466712 1_545
S1_1 W0_5 2.466783 1_555
S1_1 W0_1 2.466787 1_555
S1_2 W0_0 2.466712 1_555
S1_2 W0_6 2.466783 1_555
S1_2 W0_2 2.466787 1_555
S1_3 W0_1 2.466712 1_555
S1_3 W0_7 2.466783 1_555
S1_3 W0_3 2.466787 1_555
S1_4 W0_6 2.466712 1_545
S1_4 W0_0 2.466783 1_655
S1_4 W0_4 2.466787 1_555
S1_5 W0_7 2.466712 1_545
S1_5 W0_1 2.466783 1_655
S1_5 W0_5 2.466787 1_555
S1_6 W0_4 2.466712 1_555
S1_6 W0_2 2.466783 1_655
S1_6 W0_6 2.466787 1_555
S1_7 W0_5 2.466712 1_555
S1_7 W0_3 2.466783 1_655
S1_7 W0_7 2.466787 1_555
