# generated using pymatgen
data_MgTi2(FeO2)4
_symmetry_space_group_name_H-M   'P 1'
_cell_length_a   6.53794268
_cell_length_b   6.53388183
_cell_length_c   6.31218886
_cell_angle_alpha   55.82404908
_cell_angle_beta   55.80428686
_cell_angle_gamma   54.35100611
_symmetry_Int_Tables_number   1
_chemical_formula_structural   MgTi2(FeO2)4
_chemical_formula_sum   'Mg1 Ti2 Fe4 O8'
_cell_volume   169.87802862
_cell_formula_units_Z   1
loop_
 _symmetry_equiv_pos_site_id
 _symmetry_equiv_pos_as_xyz
  1  'x, y, z'
loop_
 _atom_site_type_symbol
 _atom_site_label
 _atom_site_symmetry_multiplicity
 _atom_site_fract_x
 _atom_site_fract_y
 _atom_site_fract_z
 _atom_site_occupancy
  Mg  Mg0  1  0.00000000  0.00000000  0.00000000  1
  Ti  Ti0  1  0.00000000  0.50000000  0.50000000  1
  Ti  Ti1  1  0.50000000  0.00000000  0.50000000  1
  Fe  Fe0  1  0.14958800  0.14959700  0.16081600  1
  Fe  Fe1  1  0.50000000  0.50000000  0.00000000  1
  Fe  Fe2  1  0.50000000  0.50000000  0.50000000  1
  Fe  Fe3  1  0.85041200  0.85040300  0.83918400  1
  O  O0  1  0.26809200  0.26778700  0.27102400  1
  O  O1  1  0.23072900  0.23100100  0.75600300  1
  O  O2  1  0.22453600  0.73673700  0.26619700  1
  O  O3  1  0.73660900  0.22474500  0.26670600  1
  O  O4  1  0.26339100  0.77525500  0.73329400  1
  O  O5  1  0.77546400  0.26326300  0.73380300  1
  O  O6  1  0.76927100  0.76899900  0.24399700  1
  O  O7  1  0.73190800  0.73221300  0.72897600  1
loop_
_geom_bond_atom_site_label_1
_geom_bond_atom_site_label_2
_geom_bond_distance
_geom_bond_site_symmetry_2
Mg0 O6 2.087228 1_445
Mg0 O1 2.087228 1_554
Mg0 O5 2.125860 1_454
Mg0 O2 2.125860 1_545
Mg0 O4 2.127696 1_544
Mg0 O3 2.127696 1_455
Fe0 O0 1.894028 1_555
Fe0 O1 2.090921 1_554
Fe0 O2 2.183842 1_545
Fe0 O3 2.184685 1_455
Fe1 O0 2.092216 1_555
Fe1 O7 2.092216 1_554
Fe1 O2 2.175036 1_555
Fe1 O5 2.175036 1_554
Fe1 O3 2.178182 1_555
Fe1 O4 2.178182 1_554
Fe2 O3 2.228900 1_555
Fe2 O4 2.228900 1_555
Fe2 O2 2.233799 1_555
Fe2 O5 2.233799 1_555
Fe2 O6 2.453140 1_555
Fe2 O1 2.453140 1_555
Fe3 O7 1.894028 1_555
Fe3 O6 2.090921 1_556
Fe3 O5 2.183842 1_565
Fe3 O4 2.184685 1_655
O0 Ti1 1.994769 1_555
O0 Ti0 1.994868 1_555
O1 Ti1 2.105658 1_555
O1 Ti0 2.105857 1_555
O2 Ti0 2.091081 1_555
O3 Ti1 2.091831 1_555
O4 Ti1 2.091831 1_565
O5 Ti0 2.091081 1_655
O6 Ti1 2.105658 1_565
O6 Ti0 2.105857 1_655
O7 Ti1 1.994769 1_565
O7 Ti0 1.994868 1_655
