# generated using pymatgen
data_Zn3Mo2O9
_symmetry_space_group_name_H-M   'P 1'
_cell_length_a   7.10299985
_cell_length_b   7.75846075
_cell_length_c   8.40562321
_cell_angle_alpha   62.24655411
_cell_angle_beta   90.00000000
_cell_angle_gamma   90.00000000
_symmetry_Int_Tables_number   1
_chemical_formula_structural   Zn3Mo2O9
_chemical_formula_sum   'Zn6 Mo4 O18'
_cell_volume   409.93099081
_cell_formula_units_Z   2
loop_
 _symmetry_equiv_pos_site_id
 _symmetry_equiv_pos_as_xyz
  1  'x, y, z'
loop_
 _atom_site_type_symbol
 _atom_site_label
 _atom_site_symmetry_multiplicity
 _atom_site_fract_x
 _atom_site_fract_y
 _atom_site_fract_z
 _atom_site_occupancy
  Zn  Zn0  1  0.00000000  0.50000000  0.50000000  1
  Zn  Zn1  1  0.50000000  0.50000000  0.50000000  1
  Zn  Zn2  1  0.25000000  0.64741452  0.70473224  1
  Zn  Zn3  1  0.75000000  0.35258548  0.29526776  1
  Zn  Zn4  1  0.25000000  0.84263105  0.26307611  1
  Zn  Zn5  1  0.75000000  0.15736895  0.73692389  1
  Mo  Mo0  1  0.25000000  0.34789337  0.19892195  1
  Mo  Mo1  1  0.75000000  0.65210663  0.80107805  1
  Mo  Mo2  1  0.25000000  0.05327179  0.78091004  1
  Mo  Mo3  1  0.75000000  0.94672821  0.21908996  1
  O  O0  1  0.25000000  0.10619801  0.23471611  1
  O  O1  1  0.75000000  0.89380199  0.76528389  1
  O  O2  1  0.25000000  0.50202490  0.96662719  1
  O  O3  1  0.75000000  0.49797510  0.03337281  1
  O  O4  1  0.04834633  0.20605029  0.72060393  1
  O  O5  1  0.54834633  0.79394971  0.27939607  1
  O  O6  1  0.95165367  0.79394971  0.27939607  1
  O  O7  1  0.45165367  0.20605029  0.72060393  1
  O  O8  1  0.25000000  0.91816529  0.66124864  1
  O  O9  1  0.75000000  0.08183471  0.33875136  1
  O  O10  1  0.25000000  0.89280369  0.01185482  1
  O  O11  1  0.75000000  0.10719631  0.98814518  1
  O  O12  1  0.04878095  0.39228911  0.29980325  1
  O  O13  1  0.54878095  0.60771089  0.70019675  1
  O  O14  1  0.95121905  0.60771089  0.70019675  1
  O  O15  1  0.45121905  0.39228911  0.29980325  1
  O  O16  1  0.25000000  0.60390937  0.49329394  1
  O  O17  1  0.75000000  0.39609063  0.50670606  1
loop_
_geom_bond_atom_site_label_1
_geom_bond_atom_site_label_2
_geom_bond_distance
_geom_bond_site_symmetry_2
Mo0 O2 1.751558 1_554
Mo0 O0 1.755388 1_555
Mo0 O12 1.775527 1_555
Mo0 O15 1.775527 1_555
Mo1 O3 1.751558 1_556
Mo1 O1 1.755388 1_555
Mo1 O13 1.775527 1_555
Mo1 O14 1.775527 1_555
Mo2 O10 1.751434 1_546
Mo2 O8 1.758518 1_545
Mo2 O7 1.775943 1_555
Mo2 O4 1.775943 1_555
Mo3 O11 1.751434 1_564
Mo3 O9 1.758518 1_565
Mo3 O5 1.775943 1_555
Mo3 O6 1.775943 1_555
O0 Zn4 1.945339 1_545
O1 Zn5 1.945339 1_565
O2 Zn2 1.950856 1_555
O3 Zn3 1.950856 1_555
O4 Zn5 2.145700 1_455
O4 Zn0 2.195214 1_555
O5 Zn4 2.145700 1_555
O5 Zn1 2.195214 1_555
O6 Zn4 2.145700 1_655
O6 Zn0 2.195214 1_655
O7 Zn5 2.145700 1_555
O7 Zn1 2.195214 1_555
O8 Zn2 1.957316 1_555
O9 Zn3 1.957316 1_555
O10 Zn4 1.960900 1_555
O11 Zn5 1.960900 1_555
O12 Zn3 2.147367 1_455
O12 Zn0 2.227069 1_555
O13 Zn2 2.147367 1_555
O13 Zn1 2.227069 1_555
O14 Zn2 2.147367 1_655
O14 Zn0 2.227069 1_655
O15 Zn3 2.147367 1_555
O15 Zn1 2.227069 1_555
O16 Zn0 1.940119 1_555
O16 Zn1 1.940119 1_555
O16 Zn2 1.957375 1_555
O16 Zn4 1.958841 1_555
O17 Zn0 1.940119 1_655
O17 Zn1 1.940119 1_555
O17 Zn3 1.957375 1_555
O17 Zn5 1.958841 1_555
