# generated using pymatgen
data_Na2Zr2Si2SO12
_symmetry_space_group_name_H-M   'P 1'
_cell_length_a   9.12367475
_cell_length_b   9.12367444
_cell_length_c   23.20553309
_cell_angle_alpha   89.87978808
_cell_angle_beta   90.12021192
_cell_angle_gamma   119.86444223
_symmetry_Int_Tables_number   1
_chemical_formula_structural   Na2Zr2Si2SO12
_chemical_formula_sum   'Na12 Zr12 Si12 S6 O72'
_cell_volume   1675.14379888
_cell_formula_units_Z   6
loop_
 _symmetry_equiv_pos_site_id
 _symmetry_equiv_pos_as_xyz
  1  'x, y, z'
loop_
 _atom_site_type_symbol
 _atom_site_label
 _atom_site_symmetry_multiplicity
 _atom_site_fract_x
 _atom_site_fract_y
 _atom_site_fract_z
 _atom_site_occupancy
  Na  Na0  1  0.99288807  0.62467148  0.25446556  1
  Na  Na1  1  0.37532852  0.00711193  0.75446556  1
  Na  Na2  1  0.65955507  0.95800448  0.58779856  1
  Na  Na3  1  0.04199552  0.34044493  0.08779856  1
  Na  Na4  1  0.32622107  0.29133848  0.92113256  1
  Na  Na5  1  0.70866152  0.67377893  0.42113256  1
  Na  Na6  1  0.01614188  0.98562130  0.50109876  1
  Na  Na7  1  0.01437870  0.98385812  0.00109876  1
  Na  Na8  1  0.68280888  0.31895430  0.83443176  1
  Na  Na9  1  0.68104570  0.31719112  0.33443176  1
  Na  Na10  1  0.34947488  0.65228830  0.16776576  1
  Na  Na11  1  0.34771170  0.65052512  0.66776576  1
  Zr  Zr0  1  0.98466701  0.99697882  0.35297294  1
  Zr  Zr1  1  0.00302118  0.01533299  0.85297294  1
  Zr  Zr2  1  0.99915572  0.99935800  0.64717647  1
  Zr  Zr3  1  0.00064200  0.00084428  0.14717647  1
  Zr  Zr4  1  0.65133401  0.33031182  0.68630594  1
  Zr  Zr5  1  0.66968818  0.34866599  0.18630594  1
  Zr  Zr6  1  0.66582272  0.33269100  0.98050947  1
  Zr  Zr7  1  0.66730900  0.33417728  0.48050947  1
  Zr  Zr8  1  0.31800001  0.66364582  0.01963994  1
  Zr  Zr9  1  0.33635418  0.68199999  0.51963994  1
  Zr  Zr10  1  0.33248872  0.66602500  0.31384347  1
  Zr  Zr11  1  0.33397500  0.66751128  0.81384347  1
  Si  Si0  1  0.70370710  0.71027630  0.25019344  1
  Si  Si1  1  0.99867008  0.29404378  0.24802545  1
  Si  Si2  1  0.28972370  0.29629290  0.75019344  1
  Si  Si3  1  0.70595622  0.00132992  0.74802545  1
  Si  Si4  1  0.37037410  0.04360930  0.58352644  1
  Si  Si5  1  0.66533708  0.62737678  0.58135845  1
  Si  Si6  1  0.95639070  0.62962590  0.08352644  1
  Si  Si7  1  0.37262322  0.33466292  0.08135845  1
  Si  Si8  1  0.03704010  0.37694330  0.91686044  1
  Si  Si9  1  0.33200308  0.96071078  0.91469245  1
  Si  Si10  1  0.62305670  0.96295990  0.41686044  1
  Si  Si11  1  0.03928922  0.66799692  0.41469245  1
  S  S0  1  0.29217688  0.00252929  0.25083422  1
  S  S1  1  0.99747071  0.70782312  0.75083422  1
  S  S2  1  0.95884388  0.33586229  0.58416722  1
  S  S3  1  0.66413771  0.04115612  0.08416722  1
  S  S4  1  0.62550988  0.66919629  0.91750122  1
  S  S5  1  0.33080371  0.37449012  0.41750122  1
  O  O0  1  0.21326202  0.02433717  0.30243389  1
  O  O1  1  0.82250964  0.79121435  0.30807490  1
  O  O2  1  0.98662565  0.17734592  0.30370353  1
  O  O3  1  0.20878565  0.17749036  0.80807490  1
  O  O4  1  0.97566283  0.78673798  0.80243389  1
  O  O5  1  0.82265408  0.01337435  0.80370353  1
  O  O6  1  0.79142498  0.97614298  0.68907916  1
  O  O7  1  0.17200073  0.19183450  0.69537042  1
  O  O8  1  0.02255893  0.81357457  0.69878025  1
  O  O9  1  0.80816550  0.82799927  0.19537042  1
  O  O10  1  0.02385702  0.20857502  0.18907916  1
  O  O11  1  0.18642543  0.97744107  0.19878025  1
  O  O12  1  0.87992902  0.35767017  0.63576689  1
  O  O13  1  0.48917664  0.12454735  0.64140790  1
  O  O14  1  0.65329265  0.51067892  0.63703653  1
  O  O15  1  0.87545265  0.51082336  0.14140790  1
  O  O16  1  0.64232983  0.12007098  0.13576689  1
  O  O17  1  0.48932108  0.34670735  0.13703653  1
  O  O18  1  0.45809198  0.30947598  0.02241216  1
  O  O19  1  0.83866773  0.52516750  0.02870342  1
  O  O20  1  0.68922593  0.14690757  0.03211325  1
  O  O21  1  0.47483250  0.16133227  0.52870342  1
  O  O22  1  0.69052402  0.54190802  0.52241216  1
  O  O23  1  0.85309243  0.31077407  0.53211325  1
  O  O24  1  0.54659502  0.69100417  0.96910089  1
  O  O25  1  0.15584264  0.45788135  0.97474190  1
  O  O26  1  0.31995865  0.84401292  0.97037053  1
  O  O27  1  0.54211865  0.84415736  0.47474190  1
  O  O28  1  0.30899583  0.45340498  0.46910089  1
  O  O29  1  0.15598708  0.68004135  0.47037053  1
  O  O30  1  0.12475798  0.64280998  0.35574616  1
  O  O31  1  0.50533373  0.85850150  0.36203742  1
  O  O32  1  0.35589193  0.48024157  0.36544725  1
  O  O33  1  0.14149850  0.49466627  0.86203742  1
  O  O34  1  0.35719002  0.87524202  0.85574616  1
  O  O35  1  0.51975843  0.64410807  0.86544725  1
  O  O36  1  0.02271477  0.83975615  0.41150875  1
  O  O37  1  0.80901744  0.97385955  0.41140938  1
  O  O38  1  0.18607132  0.20406340  0.41082071  1
  O  O39  1  0.02614045  0.19098256  0.91140938  1
  O  O40  1  0.16024385  0.97728523  0.91150875  1
  O  O41  1  0.79593660  0.81392868  0.91082071  1
  O  O42  1  0.96723304  0.17638518  0.58787330  1
  O  O43  1  0.18320267  0.02135480  0.58876140  1
  O  O44  1  0.82713608  0.82251646  0.58741747  1
  O  O45  1  0.97864520  0.81679733  0.08876140  1
  O  O46  1  0.82361482  0.03276696  0.08787330  1
  O  O47  1  0.17748354  0.17286392  0.08741747  1
  O  O48  1  0.68938177  0.17308915  0.74484175  1
  O  O49  1  0.47568444  0.30719255  0.74474238  1
  O  O50  1  0.85273832  0.53739640  0.74415371  1
  O  O51  1  0.69280745  0.52431556  0.24474238  1
  O  O52  1  0.82691085  0.31061823  0.24484175  1
  O  O53  1  0.46260360  0.14726168  0.24415371  1
  O  O54  1  0.63390004  0.50971818  0.92120630  1
  O  O55  1  0.84986967  0.35468780  0.92209440  1
  O  O56  1  0.49380308  0.15584946  0.92075047  1
  O  O57  1  0.64531220  0.15013033  0.42209440  1
  O  O58  1  0.49028182  0.36609996  0.42120630  1
  O  O59  1  0.84415054  0.50619692  0.42075047  1
  O  O60  1  0.35604777  0.50642315  0.07817575  1
  O  O61  1  0.14235044  0.64052655  0.07807638  1
  O  O62  1  0.51940432  0.87073040  0.07748771  1
  O  O63  1  0.35947345  0.85764956  0.57807638  1
  O  O64  1  0.49357685  0.64395223  0.57817575  1
  O  O65  1  0.12926960  0.48059568  0.57748771  1
  O  O66  1  0.30056604  0.84305218  0.25454030  1
  O  O67  1  0.51653567  0.68802180  0.25542840  1
  O  O68  1  0.16046908  0.48918346  0.25408447  1
  O  O69  1  0.31197820  0.48346433  0.75542840  1
  O  O70  1  0.15694782  0.69943396  0.75454030  1
  O  O71  1  0.51081654  0.83953092  0.75408447  1
loop_
_geom_bond_atom_site_label_1
_geom_bond_atom_site_label_2
_geom_bond_distance
_geom_bond_site_symmetry_2
Na0 O68 2.397543 1_655
Na0 O51 2.426266 1_555
Na0 O52 2.496627 1_555
Na0 O66 2.505947 1_655
Na0 O30 2.605796 1_655
Na0 O15 2.828653 1_555
Na0 O1 2.939593 1_555
Na1 O71 2.397543 1_545
Na1 O49 2.426266 1_555
Na1 O48 2.496627 1_555
Na1 O70 2.505947 1_545
Na1 O34 2.605796 1_545
Na1 O13 2.828653 1_555
Na1 O3 2.939593 1_555
Na2 O44 2.397543 1_555
Na2 O63 2.426274 1_555
Na2 O64 2.496617 1_555
Na2 O42 2.505947 1_565
Na2 O6 2.605796 1_555
Na2 O27 2.828632 1_555
Na2 O13 2.939593 1_565
Na3 O47 2.397543 1_555
Na3 O61 2.426274 1_555
Na3 O60 2.496617 1_555
Na3 O46 2.505947 1_455
Na3 O10 2.605796 1_555
Na3 O25 2.828632 1_554
Na3 O15 2.939593 1_455
Na4 O56 2.397559 1_555
Na4 O39 2.426266 1_555
Na4 O40 2.496627 1_545
Na4 O54 2.505951 1_555
Na4 O18 2.605781 1_556
Na4 O3 2.828653 1_555
Na4 O25 2.939593 1_555
Na5 O59 2.397559 1_555
Na5 O37 2.426266 1_555
Na5 O36 2.496627 1_655
Na5 O58 2.505951 1_555
Na5 O22 2.605781 1_555
Na5 O1 2.828653 1_555
Na5 O27 2.939593 1_555
Na6 O43 2.462233 1_565
Na6 O36 2.487666 1_555
Na6 O44 2.578138 1_455
Na6 O38 2.771895 1_565
Na6 O37 2.774322 1_455
Na6 O42 2.841667 1_465
Na7 O45 2.462233 1_455
Na7 O40 2.487666 1_554
Na7 O47 2.578138 1_565
Na7 O41 2.771895 1_454
Na7 O39 2.774322 1_564
Na7 O46 2.841667 1_465
Na8 O55 2.462233 1_555
Na8 O48 2.487666 1_555
Na8 O56 2.578138 1_555
Na8 O50 2.771895 1_555
Na8 O49 2.774322 1_555
Na8 O54 2.841667 1_555
Na9 O57 2.462233 1_555
Na9 O52 2.487666 1_555
Na9 O59 2.578138 1_555
Na9 O53 2.771895 1_555
Na9 O51 2.774322 1_555
Na9 O58 2.841667 1_555
Na10 O67 2.462233 1_555
Na10 O60 2.487666 1_555
Na10 O68 2.578138 1_555
Na10 O62 2.771895 1_555
Na10 O61 2.774322 1_555
Na10 O66 2.841667 1_555
Na11 O69 2.462233 1_555
Na11 O64 2.487666 1_555
Na11 O71 2.578138 1_555
Na11 O65 2.771895 1_555
Na11 O63 2.774322 1_555
Na11 O70 2.841667 1_555
O0 S0 1.462541 1_555
O0 Zr0 2.297422 1_445
O1 Si0 1.650820 1_555
O1 Zr0 2.008580 1_555
O2 Si1 1.641145 1_555
O2 Zr0 1.994604 1_545
O3 Si2 1.650820 1_555
O3 Zr1 2.008580 1_555
O4 S1 1.462541 1_555
O4 Zr1 2.297422 1_665
O5 Si3 1.641146 1_555
O5 Zr1 1.994604 1_655
O6 Si3 1.648098 1_565
O6 Zr2 2.046827 1_555
O7 Si2 1.631048 1_555
O7 Zr2 2.016023 1_445
O8 S1 1.489550 1_455
O8 Zr2 2.168768 1_455
O9 Si0 1.631048 1_555
O9 Zr3 2.016023 1_665
O10 Si1 1.648098 1_455
O10 Zr3 2.046826 1_555
O11 S0 1.489550 1_565
O11 Zr3 2.168768 1_565
O12 S2 1.462541 1_555
O12 Zr4 2.297422 1_555
O13 Si4 1.650820 1_555
O13 Zr4 2.008580 1_555
O14 Si5 1.641145 1_555
O14 Zr4 1.994604 1_555
O15 Si6 1.650820 1_555
O15 Zr5 2.008580 1_555
O16 S3 1.462541 1_555
O16 Zr5 2.297422 1_555
O17 Si7 1.641146 1_555
O17 Zr5 1.994604 1_555
O18 Si7 1.648098 1_555
O18 Zr6 2.046827 1_554
O19 Si6 1.631048 1_555
O19 Zr6 2.016023 1_554
O20 S3 1.489550 1_555
O20 Zr6 2.168768 1_554
O21 Si4 1.631048 1_555
O21 Zr7 2.016023 1_555
O22 Si5 1.648098 1_555
O22 Zr7 2.046826 1_555
O23 S2 1.489550 1_555
O23 Zr7 2.168768 1_555
O24 S4 1.462541 1_555
O24 Zr8 2.297422 1_556
O25 Si8 1.650820 1_555
O25 Zr8 2.008580 1_556
O26 Si9 1.641145 1_555
O26 Zr8 1.994604 1_556
O27 Si10 1.650820 1_555
O27 Zr9 2.008580 1_555
O28 S5 1.462541 1_555
O28 Zr9 2.297422 1_555
O29 Si11 1.641146 1_555
O29 Zr9 1.994604 1_555
O30 Si11 1.648098 1_555
O30 Zr10 2.046827 1_555
O31 Si10 1.631048 1_555
O31 Zr10 2.016023 1_555
O32 S5 1.489550 1_555
O32 Zr10 2.168768 1_555
O33 Si8 1.631048 1_555
O33 Zr11 2.016023 1_555
O34 Si9 1.648098 1_555
O34 Zr11 2.046826 1_555
O35 S4 1.489550 1_555
O35 Zr11 2.168768 1_555
O36 Si11 1.649096 1_555
O36 Zr0 2.123446 1_455
O37 Si10 1.654483 1_555
O37 Zr0 2.030483 1_555
O38 S5 1.463153 1_555
O38 Zr0 2.300224 1_445
O39 Si8 1.654482 1_555
O39 Zr1 2.030483 1_555
O40 Si9 1.649097 1_555
O40 Zr1 2.123446 1_565
O41 S4 1.463153 1_555
O41 Zr1 2.300224 1_665
O42 S2 1.496893 1_555
O42 Zr2 2.246062 1_545
O43 Si4 1.621002 1_555
O43 Zr2 2.090515 1_445
O44 Si5 1.658756 1_555
O44 Zr2 2.113728 1_555
O45 Si6 1.621002 1_555
O45 Zr3 2.090515 1_665
O46 S3 1.496893 1_555
O46 Zr3 2.246062 1_655
O47 Si7 1.658756 1_555
O47 Zr3 2.113728 1_555
O48 Si3 1.649096 1_555
O48 Zr4 2.123446 1_555
O49 Si2 1.654483 1_555
O49 Zr4 2.030483 1_555
O50 S1 1.463153 1_555
O50 Zr4 2.300224 1_555
O51 Si0 1.654482 1_555
O51 Zr5 2.030483 1_555
O52 Si1 1.649097 1_555
O52 Zr5 2.123446 1_555
O53 S0 1.463153 1_555
O53 Zr5 2.300224 1_555
O54 S4 1.496905 1_555
O54 Zr6 2.246062 1_555
O55 Si8 1.620988 1_655
O55 Zr6 2.090515 1_555
O56 Si9 1.658752 1_545
O56 Zr6 2.113728 1_555
O57 Si10 1.620988 1_545
O57 Zr7 2.090515 1_555
O58 S5 1.496905 1_555
O58 Zr7 2.246062 1_555
O59 Si11 1.658752 1_655
O59 Zr7 2.113728 1_555
O60 Si7 1.649110 1_555
O60 Zr8 2.123446 1_555
O61 Si6 1.654468 1_455
O61 Zr8 2.030483 1_555
O62 S3 1.463148 1_565
O62 Zr8 2.300224 1_555
O63 Si4 1.654467 1_565
O63 Zr9 2.030483 1_555
O64 Si5 1.649110 1_555
O64 Zr9 2.123446 1_555
O65 S2 1.463148 1_455
O65 Zr9 2.300224 1_555
O66 S0 1.496893 1_565
O66 Zr10 2.246062 1_555
O67 Si0 1.621002 1_555
O67 Zr10 2.090515 1_555
O68 Si1 1.658756 1_455
O68 Zr10 2.113728 1_555
O69 Si2 1.621002 1_555
O69 Zr11 2.090515 1_555
O70 S1 1.496893 1_455
O70 Zr11 2.246062 1_555
O71 Si3 1.658756 1_565
O71 Zr11 2.113728 1_555
