# generated using pymatgen
data_MgTi8(NiO3)8
_symmetry_space_group_name_H-M   'P 1'
_cell_length_a   5.57414646
_cell_length_b   11.08749660
_cell_length_c   11.20461076
_cell_angle_alpha   54.36444412
_cell_angle_beta   54.30652536
_cell_angle_gamma   54.34573127
_symmetry_Int_Tables_number   1
_chemical_formula_structural   MgTi8(NiO3)8
_chemical_formula_sum   'Mg1 Ti8 Ni8 O24'
_cell_volume   424.99350782
_cell_formula_units_Z   1
loop_
 _symmetry_equiv_pos_site_id
 _symmetry_equiv_pos_as_xyz
  1  'x, y, z'
loop_
 _atom_site_type_symbol
 _atom_site_label
 _atom_site_symmetry_multiplicity
 _atom_site_fract_x
 _atom_site_fract_y
 _atom_site_fract_z
 _atom_site_occupancy
  Mg  Mg0  1  0.61478900  0.80953500  0.84450800  1
  Ti  Ti0  1  0.34869200  0.17301200  0.17333400  1
  Ti  Ti1  1  0.17167600  0.06435800  0.59975100  1
  Ti  Ti2  1  0.12755500  0.57242600  0.07745800  1
  Ti  Ti3  1  0.12238500  0.56894400  0.58309000  1
  Ti  Ti4  1  0.83697900  0.41265100  0.44676800  1
  Ti  Ti5  1  0.84632200  0.41628600  0.94144500  1
  Ti  Ti6  1  0.84214500  0.92208700  0.40377600  1
  Ti  Ti7  1  0.81616500  0.92573300  0.93837500  1
  Ni  Ni0  1  0.14036500  0.06597800  0.07909100  1
  Ni  Ni1  1  0.33537700  0.65939800  0.18979900  1
  Ni  Ni2  1  0.35098500  0.17152100  0.69283200  1
  Ni  Ni3  1  0.63668200  0.31909400  0.33542900  1
  Ni  Ni4  1  0.34057500  0.66172200  0.68969100  1
  Ni  Ni5  1  0.64336300  0.32160400  0.83340500  1
  Ni  Ni6  1  0.64473500  0.80524100  0.32981500  1
  Ni  Ni7  1  0.99340800  0.97828100  0.52236900  1
  O  O0  1  0.05852600  0.36454000  0.22650200  1
  O  O1  1  0.41512200  0.02656000  0.38433600  1
  O  O2  1  0.72393600  0.21720900  0.04036700  1
  O  O3  1  0.22287200  0.27483400  0.48756900  1
  O  O4  1  0.55656400  0.46323400  0.12486900  1
  O  O5  1  0.04301400  0.37665600  0.73389400  1
  O  O6  1  0.04256500  0.86076600  0.23316600  1
  O  O7  1  0.92344600  0.11527800  0.28341500  1
  O  O8  1  0.45931500  0.01096000  0.88532800  1
  O  O9  1  0.42695400  0.51381200  0.40099500  1
  O  O10  1  0.77433900  0.20587500  0.53811400  1
  O  O11  1  0.75253400  0.70646100  0.04021000  1
  O  O12  1  0.22541000  0.27799100  0.98423100  1
  O  O13  1  0.21431000  0.77285300  0.47993400  1
  O  O14  1  0.55517700  0.46417000  0.62590500  1
  O  O15  1  0.55333500  0.97007300  0.12758900  1
  O  O16  1  0.07316700  0.87185700  0.73533900  1
  O  O17  1  0.94431500  0.10670100  0.79667300  1
  O  O18  1  0.93689700  0.59679900  0.29254700  1
  O  O19  1  0.42615100  0.52161200  0.89522900  1
  O  O20  1  0.75298000  0.70662100  0.53643600  1
  O  O21  1  0.20290200  0.76685400  0.99199100  1
  O  O22  1  0.57373400  0.95814400  0.62392700  1
  O  O23  1  0.93740700  0.60644200  0.79099100  1
loop_
_geom_bond_atom_site_label_1
_geom_bond_atom_site_label_2
_geom_bond_distance
_geom_bond_site_symmetry_2
Mg0 O21 2.038161 1_555
Mg0 O23 2.063587 1_555
Mg0 O22 2.085864 1_555
Mg0 O8 2.102205 1_565
Mg0 O11 2.173799 1_556
Mg0 O16 2.434836 1_655
Ni0 O8 2.005299 1_554
Ni0 O2 2.044015 1_455
Ni0 O6 2.055523 1_545
Ni0 O7 2.111765 1_455
Ni0 O15 2.158182 1_545
Ni0 O12 2.163322 1_554
Ni1 O6 1.993832 1_555
Ni1 O11 2.082325 1_555
Ni1 O4 2.109706 1_555
Ni1 O9 2.112780 1_555
Ni1 O18 2.150115 1_455
Ni1 O21 2.164298 1_554
Ni2 O8 1.994538 1_555
Ni2 O5 2.019321 1_555
Ni2 O10 2.055215 1_555
Ni2 O17 2.203638 1_455
Ni2 O3 2.237105 1_555
Ni2 O22 2.306539 1_545
Ni3 O3 2.055192 1_555
Ni3 O7 2.058638 1_555
Ni3 O4 2.079294 1_555
Ni3 O9 2.114478 1_555
Ni3 O0 2.142071 1_655
Ni3 O10 2.215994 1_555
Ni4 O19 2.047852 1_555
Ni4 O20 2.052498 1_555
Ni4 O16 2.088559 1_555
Ni4 O14 2.124001 1_555
Ni4 O23 2.129094 1_455
Ni4 O13 2.254335 1_555
Ni5 O12 2.069849 1_555
Ni5 O14 2.071487 1_555
Ni5 O17 2.082840 1_555
Ni5 O2 2.097737 1_556
Ni5 O5 2.114762 1_655
Ni5 O19 2.131831 1_555
Ni6 O18 2.027562 1_555
Ni6 O15 2.042051 1_555
Ni6 O13 2.075094 1_555
Ni6 O6 2.117016 1_655
Ni6 O20 2.197840 1_555
Ni6 O1 2.281627 1_565
Ni7 O22 2.005929 1_555
Ni7 O13 2.058955 1_655
Ni7 O1 2.112853 1_665
Ni7 O10 2.136614 1_565
Ni7 O16 2.151635 1_655
Ni7 O7 2.327366 1_565
O0 Ti0 1.956047 1_555
O0 Ti2 2.012070 1_555
O0 Ti4 2.260580 1_455
O1 Ti6 2.037567 1_545
O1 Ti0 2.051940 1_555
O1 Ti1 2.129904 1_555
O2 Ti0 1.882199 1_555
O2 Ti5 2.142016 1_554
O3 Ti4 1.916383 1_455
O3 Ti1 2.011733 1_555
O4 Ti5 1.869894 1_554
O4 Ti2 2.196439 1_555
O5 Ti3 1.904144 1_555
O5 Ti5 2.111179 1_455
O6 Ti6 1.871252 1_455
O7 Ti6 1.914338 1_545
O7 Ti0 2.233171 1_655
O8 Ti7 1.933067 1_545
O9 Ti3 1.902693 1_555
O9 Ti4 2.110394 1_555
O10 Ti4 2.051229 1_555
O10 Ti1 2.077300 1_655
O11 Ti2 1.851017 1_655
O11 Ti7 2.153817 1_554
O12 Ti5 1.895888 1_455
O12 Ti0 2.051647 1_556
O13 Ti6 2.046538 1_455
O13 Ti3 2.079506 1_555
O14 Ti4 1.852921 1_555
O14 Ti3 2.198525 1_555
O15 Ti7 1.906100 1_554
O15 Ti0 2.072733 1_565
O16 Ti1 1.944082 1_565
O16 Ti7 2.089831 1_455
O17 Ti7 1.921552 1_545
O17 Ti1 1.986288 1_655
O18 Ti4 1.885830 1_555
O18 Ti2 2.108533 1_655
O19 Ti2 1.881045 1_556
O19 Ti5 2.153914 1_555
O20 Ti3 1.872238 1_655
O20 Ti6 2.132600 1_555
O21 Ti2 1.980207 1_556
O21 Ti7 1.990529 1_455
O22 Ti1 1.934623 1_565
O22 Ti6 2.151333 1_555
O23 Ti5 1.911121 1_555
O23 Ti3 2.118579 1_655
