# generated using pymatgen
data_NaHf3NbSi3(SO8)3
_symmetry_space_group_name_H-M   'P 1'
_cell_length_a   8.91403483
_cell_length_b   8.91754647
_cell_length_c   23.24391459
_cell_angle_alpha   90.02201963
_cell_angle_beta   90.59129227
_cell_angle_gamma   119.77304563
_symmetry_Int_Tables_number   1
_chemical_formula_structural   NaHf3NbSi3(SO8)3
_chemical_formula_sum   'Na3 Hf9 Nb3 Si9 S9 O72'
_cell_volume   1603.67517658
_cell_formula_units_Z   3
loop_
 _symmetry_equiv_pos_site_id
 _symmetry_equiv_pos_as_xyz
  1  'x, y, z'
loop_
 _atom_site_type_symbol
 _atom_site_label
 _atom_site_symmetry_multiplicity
 _atom_site_fract_x
 _atom_site_fract_y
 _atom_site_fract_z
 _atom_site_occupancy
  Na  Na0  1  0.01672093  0.99095796  0.99290922  1
  Na  Na1  1  0.64719219  0.30542367  0.82907853  1
  Na  Na2  1  0.69080414  0.34060704  0.33512694  1
  Hf  Hf0  1  0.99509549  -0.00252567  0.35916926  1
  Hf  Hf1  1  0.01295572  0.00804121  0.85208838  1
  Hf  Hf2  1  0.64882352  0.32583985  0.68873188  1
  Hf  Hf3  1  0.67710923  0.34459566  0.18581512  1
  Hf  Hf4  1  0.65438304  0.33315756  0.97923374  1
  Hf  Hf5  1  0.66724906  0.34440733  0.48256237  1
  Hf  Hf6  1  0.32018627  0.66771870  0.02342654  1
  Hf  Hf7  1  0.31581748  0.65425844  0.30891488  1
  Hf  Hf8  1  0.34873144  0.68476520  0.80551690  1
  Nb  Nb0  1  0.99875671  0.00377769  0.64529689  1
  Nb  Nb1  1  0.01199802  0.01341147  0.14268081  1
  Nb  Nb2  1  0.32788027  0.67566388  0.52629642  1
  Si  Si0  1  0.99030842  0.27930851  0.25215841  1
  Si  Si1  1  0.28724483  0.29071939  0.75104172  1
  Si  Si2  1  0.72157270  0.01118178  0.75047561  1
  Si  Si3  1  0.37702635  0.05480580  0.58269454  1
  Si  Si4  1  0.66812532  0.62373408  0.58401731  1
  Si  Si5  1  0.95048501  0.62218067  0.08297745  1
  Si  Si6  1  0.38505790  0.34057859  0.08363442  1
  Si  Si7  1  0.33348777  0.95673800  0.91638288  1
  Si  Si8  1  0.04016033  0.65684043  0.41549882  1
  S  S0  1  0.28673584  0.00296661  0.25122727  1
  S  S1  1  0.71429361  0.71522346  0.25108209  1
  S  S2  1  0.99767596  0.71283753  0.74947502  1
  S  S3  1  0.95660659  0.33492675  0.58325490  1
  S  S4  1  0.66940619  0.04626609  0.08353759  1
  S  S5  1  0.62140428  0.66890954  0.91702211  1
  S  S6  1  0.04306342  0.37807480  0.91656125  1
  S  S7  1  0.61476830  0.95042049  0.41633853  1
  S  S8  1  0.33595733  0.38204607  0.41542941  1
  O  O0  1  0.20152207  0.02570151  0.30191563  1
  O  O1  1  0.82518651  0.79294627  0.30317199  1
  O  O2  1  0.97106153  0.16045058  0.30737820  1
  O  O3  1  0.20456076  0.16473708  0.80696011  1
  O  O4  1  0.96901838  0.79084748  0.80181565  1
  O  O5  1  0.83188502  0.02545510  0.80840722  1
  O  O6  1  0.81723517  0.98558569  0.69341816  1
  O  O7  1  0.16992950  0.18932933  0.69342320  1
  O  O8  1  0.02336749  0.81903260  0.69758237  1
  O  O9  1  0.79372270  0.81623731  0.19913254  1
  O  O10  1  0.01114157  0.17891625  0.19470508  1
  O  O11  1  0.17922087  0.97282101  0.19793780  1
  O  O12  1  0.88551608  0.37099405  0.63393796  1
  O  O13  1  0.50216366  0.13056373  0.63812189  1
  O  O14  1  0.63393906  0.50202772  0.63854681  1
  O  O15  1  0.86526566  0.50608840  0.14054422  1
  O  O16  1  0.64533245  0.12604115  0.13599094  1
  O  O17  1  0.48939903  0.35122586  0.14230213  1
  O  O18  1  0.46020018  0.28898118  0.02816022  1
  O  O19  1  0.82988693  0.53718144  0.02660146  1
  O  O20  1  0.70363059  0.15623373  0.03240063  1
  O  O21  1  0.46548930  0.16435780  0.52482878  1
  O  O22  1  0.70536648  0.54119634  0.52632896  1
  O  O23  1  0.84888056  0.30747986  0.53070739  1
  O  O24  1  0.53954598  0.68702920  0.96902053  1
  O  O25  1  0.14939870  0.45787644  0.96965648  1
  O  O26  1  0.31904111  0.84474020  0.97381078  1
  O  O27  1  0.53609109  0.84564807  0.46827964  1
  O  O28  1  0.31186694  0.46007520  0.46724524  1
  O  O29  1  0.16276185  0.67837894  0.47220069  1
  O  O30  1  0.13903433  0.63511683  0.35943208  1
  O  O31  1  0.51023843  0.86733918  0.36405631  1
  O  O32  1  0.36547577  0.49053585  0.36345578  1
  O  O33  1  0.12286852  0.47903552  0.86515559  1
  O  O34  1  0.34806483  0.85770176  0.85983046  1
  O  O35  1  0.51601611  0.64327256  0.86455871  1
  O  O36  1  0.02686168  0.83055122  0.40593095  1
  O  O37  1  0.78883321  0.96571270  0.41023222  1
  O  O38  1  0.18134894  0.20859913  0.40672914  1
  O  O39  1  0.02288835  0.20106541  0.91340491  1
  O  O40  1  0.15854381  0.97475092  0.91450605  1
  O  O41  1  0.79590586  0.82241973  0.91231506  1
  O  O42  1  0.97616628  0.18104576  0.58889778  1
  O  O43  1  0.18453008  0.02218569  0.59474296  1
  O  O44  1  0.82998066  0.81675238  0.59645517  1
  O  O45  1  0.96833003  0.81494460  0.09675892  1
  O  O46  1  0.82631873  0.02533732  0.09139342  1
  O  O47  1  0.18508588  0.16498778  0.09419191  1
  O  O48  1  0.71306314  0.18769373  0.74349641  1
  O  O49  1  0.48089163  0.31503791  0.74530760  1
  O  O50  1  0.84506627  0.54084648  0.74261166  1
  O  O51  1  0.69197891  0.53744650  0.24660352  1
  O  O52  1  0.81918470  0.29974150  0.24609384  1
  O  O53  1  0.45854811  0.15721521  0.24546346  1
  O  O54  1  0.64087994  0.51060132  0.92111129  1
  O  O55  1  0.86849475  0.35866806  0.92397204  1
  O  O56  1  0.50820244  0.15006082  0.92125771  1
  O  O57  1  0.63603295  0.12496116  0.42159322  1
  O  O58  1  0.48994001  0.35902854  0.41973980  1
  O  O59  1  0.85074620  0.48533514  0.42143241  1
  O  O60  1  0.36151019  0.50303359  0.07153532  1
  O  O61  1  0.14372758  0.65551520  0.07504585  1
  O  O62  1  0.52141944  0.87378465  0.07584715  1
  O  O63  1  0.35245421  0.85645268  0.57042868  1
  O  O64  1  0.49735337  0.64393923  0.56624497  1
  O  O65  1  0.13452190  0.48676803  0.57335817  1
  O  O66  1  0.30635095  0.84823225  0.25793723  1
  O  O67  1  0.54465913  0.70163075  0.26006057  1
  O  O68  1  0.16683812  0.46665443  0.25762656  1
  O  O69  1  0.29209077  0.47141560  0.76124200  1
  O  O70  1  0.15274696  0.69613282  0.75683572  1
  O  O71  1  0.53142989  0.83907795  0.75558354  1
loop_
_geom_bond_atom_site_label_1
_geom_bond_atom_site_label_2
_geom_bond_distance
_geom_bond_site_symmetry_2
Na0 O40 2.273557 1_555
Na0 O41 2.574165 1_455
Na0 O39 2.613636 1_565
Na0 O47 2.795407 1_566
Na0 O45 2.797948 1_456
Na0 O46 2.968387 1_466
Na1 O48 2.457413 1_555
Na1 O49 2.462338 1_555
Na1 O56 2.529348 1_555
Na1 O50 2.820793 1_555
Na1 O55 2.821568 1_555
Na1 O54 2.833514 1_555
Na2 O59 2.415428 1_555
Na2 O52 2.487497 1_555
Na2 O57 2.658301 1_555
Na2 O51 2.701867 1_555
Na2 O58 2.732307 1_555
Na2 O53 2.801819 1_555
Hf0 O36 1.972524 1_645
Hf0 O2 1.978021 1_555
Hf0 O38 2.092694 1_655
Hf0 O37 2.097053 1_545
Hf0 O1 2.128075 1_545
Hf0 O0 2.193429 1_655
Hf1 O3 1.907335 1_555
Hf1 O5 1.968613 1_455
Hf1 O40 2.054594 1_545
Hf1 O4 2.122651 1_445
Hf1 O39 2.201402 1_555
Hf1 O41 2.306549 1_445
Hf2 O13 1.957331 1_555
Hf2 O49 1.969009 1_555
Hf2 O14 2.012988 1_555
Hf2 O48 2.037814 1_555
Hf2 O50 2.219610 1_555
Hf2 O12 2.334094 1_555
Hf3 O15 1.906069 1_555
Hf3 O17 1.972207 1_555
Hf3 O52 2.047912 1_555
Hf3 O16 2.159435 1_555
Hf3 O51 2.177032 1_555
Hf3 O53 2.309664 1_555
Hf4 O18 1.951530 1_556
Hf4 O56 2.007234 1_555
Hf4 O19 2.026333 1_556
Hf4 O54 2.128611 1_555
Hf4 O20 2.210727 1_556
Hf4 O55 2.228016 1_555
Hf5 O22 1.905064 1_555
Hf5 O21 1.986848 1_555
Hf5 O59 2.069219 1_555
Hf5 O23 2.115314 1_555
Hf5 O58 2.191937 1_555
Hf5 O57 2.316085 1_555
Hf6 O61 1.947998 1_555
Hf6 O26 1.959401 1_554
Hf6 O60 2.018145 1_555
Hf6 O25 2.123940 1_554
Hf6 O62 2.181436 1_555
Hf6 O24 2.273587 1_554
Hf7 O30 1.913748 1_555
Hf7 O68 1.934674 1_555
Hf7 O66 2.132543 1_555
Hf7 O32 2.136916 1_555
Hf7 O67 2.195797 1_555
Hf7 O31 2.222317 1_555
Hf8 O71 1.925503 1_555
Hf8 O69 1.991859 1_555
Hf8 O34 1.994965 1_555
Hf8 O70 2.116101 1_555
Hf8 O35 2.179456 1_555
Hf8 O33 2.394208 1_555
Nb0 O6 1.916359 1_545
Nb0 O7 1.942525 1_655
Nb0 O44 1.950698 1_545
Nb0 O43 1.979996 1_655
Nb0 O42 2.137828 1_555
Nb0 O8 2.143426 1_645
Nb1 O47 1.855743 1_555
Nb1 O10 1.910659 1_555
Nb1 O45 1.931057 1_445
Nb1 O46 2.075132 1_455
Nb1 O11 2.121167 1_545
Nb1 O9 2.292600 1_445
Nb2 O63 1.828330 1_555
Nb2 O64 1.902666 1_555
Nb2 O29 1.935266 1_555
Nb2 O65 2.040051 1_555
Nb2 O27 2.195498 1_555
Nb2 O28 2.306909 1_555
O0 S0 1.475625 1_555
O1 S1 1.489202 1_555
O2 Si0 1.620276 1_555
O3 Si1 1.641131 1_555
O4 S2 1.487134 1_555
O5 Si2 1.626219 1_555
O6 Si2 1.659694 1_565
O7 Si1 1.654055 1_555
O8 S2 1.481667 1_455
O9 S1 1.468297 1_555
O10 Si0 1.669934 1_455
O11 S0 1.498140 1_565
O12 S3 1.452728 1_555
O13 Si3 1.606795 1_555
O14 Si4 1.599330 1_555
O15 Si5 1.637159 1_555
O16 S4 1.481548 1_555
O17 Si6 1.618551 1_555
O18 Si6 1.626799 1_555
O19 Si5 1.615010 1_555
O20 S4 1.476082 1_555
O21 Si3 1.625776 1_555
O22 Si4 1.643491 1_555
O23 S3 1.488629 1_555
O24 S5 1.467831 1_555
O25 S6 1.494413 1_555
O26 Si7 1.634851 1_555
O27 S7 1.479864 1_555
O28 S8 1.460811 1_555
O29 Si8 1.652249 1_555
O30 Si8 1.644923 1_555
O31 S7 1.477931 1_555
O32 S8 1.489730 1_555
O33 S6 1.458305 1_555
O34 Si7 1.625229 1_555
O35 S5 1.478079 1_555
O36 Si8 1.626418 1_555
O37 S7 1.496893 1_555
O38 S8 1.486478 1_555
O39 S6 1.499021 1_555
O40 Si7 1.645293 1_555
O41 S5 1.481361 1_555
O42 S3 1.472389 1_555
O43 Si3 1.619162 1_555
O44 Si4 1.628675 1_555
O45 Si5 1.676239 1_555
O46 S4 1.509508 1_555
O47 Si6 1.710813 1_555
O48 Si2 1.621184 1_555
O49 Si1 1.636298 1_555
O50 S2 1.466840 1_555
O51 S1 1.499985 1_555
O52 Si0 1.628357 1_555
O53 S0 1.472346 1_555
O54 S5 1.508407 1_555
O55 S6 1.489701 1_655
O56 Si7 1.655341 1_545
O57 S7 1.476424 1_545
O58 S8 1.487684 1_555
O59 Si8 1.627679 1_655
O60 Si6 1.588389 1_555
O61 Si5 1.608622 1_455
O62 S4 1.455254 1_565
O63 Si3 1.694563 1_565
O64 Si4 1.667300 1_555
O65 S3 1.508861 1_455
O66 S0 1.482598 1_565
O67 S1 1.472847 1_555
O68 Si0 1.633490 1_455
O69 Si1 1.607778 1_555
O70 S2 1.470333 1_455
O71 Si2 1.631937 1_565
