# generated using pymatgen
data_Sm10Se19
_symmetry_space_group_name_H-M   'P 1'
_cell_length_a   9.21974370
_cell_length_b   9.21974370
_cell_length_c   16.81143208
_cell_angle_alpha   90.00000000
_cell_angle_beta   90.00000000
_cell_angle_gamma   90.00000000
_symmetry_Int_Tables_number   1
_chemical_formula_structural   Sm10Se19
_chemical_formula_sum   'Sm20 Se38'
_cell_volume   1429.03349040
_cell_formula_units_Z   2
loop_
 _symmetry_equiv_pos_site_id
 _symmetry_equiv_pos_as_xyz
  1  'x, y, z'
loop_
 _atom_site_type_symbol
 _atom_site_label
 _atom_site_symmetry_multiplicity
 _atom_site_fract_x
 _atom_site_fract_y
 _atom_site_fract_z
 _atom_site_occupancy
  Sm  Sm0  1  0.55313035  0.85205258  0.39406315  1
  Sm  Sm1  1  0.14794742  0.05313035  0.89406315  1
  Sm  Sm2  1  0.35205258  0.44686965  0.89406315  1
  Sm  Sm3  1  0.94686965  0.64794742  0.39406315  1
  Sm  Sm4  1  0.44686965  0.14794742  0.60593685  1
  Sm  Sm5  1  0.85205258  0.94686965  0.10593685  1
  Sm  Sm6  1  0.64794742  0.55313035  0.10593685  1
  Sm  Sm7  1  0.05313035  0.35205258  0.60593685  1
  Sm  Sm8  1  0.54367441  0.84751104  0.88012761  1
  Sm  Sm9  1  0.15248896  0.04367441  0.38012761  1
  Sm  Sm10  1  0.34751104  0.45632559  0.38012761  1
  Sm  Sm11  1  0.95632559  0.65248896  0.88012761  1
  Sm  Sm12  1  0.45632559  0.15248896  0.11987239  1
  Sm  Sm13  1  0.84751104  0.95632559  0.61987239  1
  Sm  Sm14  1  0.65248896  0.54367441  0.61987239  1
  Sm  Sm15  1  0.04367441  0.34751104  0.11987239  1
  Sm  Sm16  1  0.25000000  0.75000000  0.11634426  1
  Sm  Sm17  1  0.25000000  0.75000000  0.61634426  1
  Sm  Sm18  1  0.75000000  0.25000000  0.88365574  1
  Sm  Sm19  1  0.75000000  0.25000000  0.38365474  1
  Se  Se0  1  0.75000000  0.75000000  0.75000000  1
  Se  Se1  1  0.25000000  0.25000000  0.25000000  1
  Se  Se2  1  0.17357072  0.52820196  0.75006043  1
  Se  Se3  1  0.47179804  0.67357072  0.25006043  1
  Se  Se4  1  0.02820196  0.82642928  0.25006043  1
  Se  Se5  1  0.32642828  0.97179804  0.75006043  1
  Se  Se6  1  0.82642928  0.47179804  0.24993957  1
  Se  Se7  1  0.52820196  0.32642828  0.74993957  1
  Se  Se8  1  0.97179804  0.17357072  0.74993957  1
  Se  Se9  1  0.67357072  0.02820196  0.24993957  1
  Se  Se10  1  0.65169242  0.54870464  0.92936027  1
  Se  Se11  1  0.45129536  0.15169242  0.42936027  1
  Se  Se12  1  0.04870464  0.34830758  0.42936027  1
  Se  Se13  1  0.84830758  0.95129536  0.92936027  1
  Se  Se14  1  0.34830758  0.45129536  0.07063973  1
  Se  Se15  1  0.54870464  0.84830758  0.57063973  1
  Se  Se16  1  0.95129536  0.65169242  0.57063973  1
  Se  Se17  1  0.15169242  0.04870464  0.07063973  1
  Se  Se18  1  0.64984191  0.55235774  0.43708101  1
  Se  Se19  1  0.44764226  0.14984191  0.93708101  1
  Se  Se20  1  0.11948652  0.56693340  0.25060413  1
  Se  Se21  1  0.43306660  0.61948652  0.75060413  1
  Se  Se22  1  0.06693340  0.88051348  0.75060413  1
  Se  Se23  1  0.38051348  0.93306660  0.25060413  1
  Se  Se24  1  0.88051348  0.43306660  0.74939587  1
  Se  Se25  1  0.56693340  0.38051348  0.24939587  1
  Se  Se26  1  0.93306660  0.11948652  0.24939587  1
  Se  Se27  1  0.61948652  0.06693340  0.74939587  1
  Se  Se28  1  0.75000000  0.25000000  0.06419250  1
  Se  Se29  1  0.75000000  0.25000000  0.56419250  1
  Se  Se30  1  0.25000000  0.75000000  0.93580750  1
  Se  Se31  1  0.25000000  0.75000000  0.43580750  1
  Se  Se32  1  0.14984191  0.05235774  0.56291899  1
  Se  Se33  1  0.94764226  0.64984191  0.06291899  1
  Se  Se34  1  0.55235774  0.85015809  0.06291899  1
  Se  Se35  1  0.35015809  0.44764226  0.56291899  1
  Se  Se36  1  0.85015809  0.94764226  0.43708101  1
  Se  Se37  1  0.05235774  0.35015809  0.93708101  1
loop_
_geom_bond_atom_site_label_1
_geom_bond_atom_site_label_2
_geom_bond_distance
_geom_bond_site_symmetry_2
Se0 Sm14 3.035228 1_555
Se0 Sm13 3.035228 1_555
Se0 Sm8 3.035228 1_555
Se0 Sm11 3.035228 1_555
Se1 Sm9 3.035228 1_555
Se1 Sm15 3.035228 1_555
Se1 Sm10 3.035228 1_555
Se1 Sm12 3.035228 1_555
Se2 Se21 2.536217 1_555
Se2 Se24 2.840740 1_455
Se2 Sm2 3.021733 1_555
Se2 Sm17 3.119547 1_555
Se2 Sm7 3.121083 1_555
Se2 Sm11 3.179017 1_455
Se3 Sm0 3.021733 1_555
Se3 Sm16 3.119547 1_555
Se3 Sm6 3.121083 1_555
Se3 Sm10 3.179017 1_555
Se4 Sm3 3.021733 1_455
Se4 Sm16 3.119547 1_555
Se4 Sm5 3.121083 1_455
Se4 Sm9 3.179017 1_565
Se5 Sm1 3.021728 1_565
Se5 Sm17 3.119545 1_555
Se5 Sm4 3.121086 1_565
Se5 Sm8 3.179023 1_555
Se6 Sm6 3.021733 1_555
Se6 Sm19 3.119535 1_555
Se6 Sm3 3.121083 1_555
Se6 Sm15 3.179017 1_655
Se7 Sm4 3.021728 1_555
Se7 Sm18 3.119545 1_555
Se7 Sm2 3.121086 1_555
Se7 Sm14 3.179023 1_555
Se8 Sm7 3.021733 1_655
Se8 Sm18 3.119547 1_555
Se8 Sm1 3.121083 1_655
Se8 Sm13 3.179017 1_545
Se9 Sm5 3.021733 1_545
Se9 Sm19 3.119535 1_555
Se9 Sm0 3.121083 1_545
Se9 Sm12 3.179017 1_555
Se10 Sm6 2.968986 1_556
Se10 Sm2 2.977517 1_555
Se10 Sm18 2.999382 1_555
Se10 Sm8 3.044081 1_555
Se10 Sm11 3.080436 1_555
Se11 Sm4 2.968986 1_555
Se11 Sm0 2.977517 1_545
Se11 Sm19 2.999386 1_555
Se11 Sm9 3.044081 1_555
Se11 Sm10 3.080436 1_555
Se12 Sm7 2.968986 1_555
Se12 Sm3 2.977517 1_455
Se12 Sm19 2.999386 1_455
Se12 Sm10 3.044081 1_555
Se12 Sm9 3.080436 1_555
Se13 Sm5 2.968986 1_556
Se13 Sm1 2.977517 1_665
Se13 Sm18 2.999382 1_565
Se13 Sm11 3.044081 1_555
Se13 Sm8 3.080436 1_555
Se14 Sm2 2.968986 1_554
Se14 Sm6 2.977517 1_555
Se14 Sm16 2.999382 1_555
Se14 Sm12 3.044081 1_555
Se14 Sm15 3.080436 1_555
Se15 Sm0 2.968986 1_555
Se15 Sm4 2.977517 1_565
Se15 Sm17 2.999382 1_555
Se15 Sm13 3.044081 1_555
Se15 Sm14 3.080436 1_555
Se16 Sm3 2.968986 1_555
Se16 Sm7 2.977517 1_655
Se16 Sm17 2.999382 1_655
Se16 Sm14 3.044081 1_555
Se16 Sm13 3.080436 1_555
Se17 Sm1 2.968986 1_554
Se17 Sm5 2.977517 1_445
Se17 Sm16 2.999382 1_545
Se17 Sm15 3.044081 1_555
Se17 Sm12 3.080436 1_555
Se18 Sm3 2.966346 1_555
Se18 Sm0 2.992128 1_555
Se18 Sm19 3.070911 1_555
Se18 Sm14 3.074124 1_555
Se18 Sm10 3.077391 1_555
Se19 Sm2 2.966346 1_555
Se19 Sm1 2.992128 1_555
Se19 Sm18 3.070906 1_555
Se19 Sm12 3.074124 1_556
Se19 Sm8 3.077391 1_545
Se20 Se4 2.536217 1_555
Se20 Se6 2.840740 1_455
Se20 Sm3 2.984504 1_455
Se20 Sm16 3.064506 1_555
Se20 Sm15 3.067805 1_555
Se20 Sm10 3.193920 1_555
Se21 Se7 2.840749 1_555
Se21 Sm2 2.984504 1_555
Se21 Sm17 3.064506 1_555
Se21 Sm14 3.067805 1_555
Se21 Sm8 3.193920 1_555
Se22 Se5 2.536208 1_555
Se22 Se8 2.840740 1_465
Se22 Sm1 2.984504 1_565
Se22 Sm17 3.064506 1_555
Se22 Sm13 3.067805 1_455
Se22 Sm11 3.193920 1_455
Se23 Se3 2.536217 1_555
Se23 Se9 2.840740 1_565
Se23 Sm0 2.984504 1_555
Se23 Sm16 3.064506 1_555
Se23 Sm12 3.067805 1_565
Se23 Sm9 3.193920 1_565
Se24 Se8 2.536217 1_555
Se24 Sm7 2.984504 1_655
Se24 Sm18 3.064506 1_555
Se24 Sm11 3.067805 1_555
Se24 Sm14 3.193920 1_555
Se25 Se6 2.536217 1_555
Se25 Se3 2.840740 1_555
Se25 Sm6 2.984504 1_555
Se25 Sm19 3.064494 1_555
Se25 Sm10 3.067805 1_555
Se25 Sm12 3.193920 1_555
Se26 Se9 2.536217 1_555
Se26 Se4 2.840740 1_645
Se26 Sm5 2.984504 1_545
Se26 Sm19 3.064494 1_555
Se26 Sm9 3.067805 1_655
Se26 Sm15 3.193920 1_655
Se27 Se7 2.536208 1_555
Se27 Se5 2.840749 1_545
Se27 Sm4 2.984504 1_555
Se27 Sm18 3.064506 1_555
Se27 Sm8 3.067805 1_545
Se27 Sm13 3.193920 1_545
Se28 Sm15 3.002594 1_655
Se28 Sm12 3.002594 1_555
Se28 Sm5 3.031272 1_545
Se28 Sm6 3.031272 1_555
Se28 Sm18 3.035081 1_554
Se29 Sm13 3.002594 1_545
Se29 Sm14 3.002594 1_555
Se29 Sm4 3.031272 1_555
Se29 Sm7 3.031272 1_655
Se29 Sm19 3.035098 1_555
Se30 Sm8 3.002594 1_555
Se30 Sm11 3.002594 1_455
Se30 Sm1 3.031272 1_565
Se30 Sm2 3.031272 1_555
Se30 Sm16 3.035081 1_556
Se31 Sm9 3.002594 1_565
Se31 Sm10 3.002594 1_555
Se31 Sm3 3.031272 1_455
Se31 Sm0 3.031272 1_555
Se31 Sm17 3.035081 1_555
Se32 Sm4 2.966346 1_555
Se32 Sm7 2.992128 1_555
Se32 Sm17 3.070906 1_545
Se32 Sm9 3.074124 1_555
Se32 Sm13 3.077391 1_445
Se33 Sm5 2.966346 1_555
Se33 Sm6 2.992128 1_555
Se33 Sm16 3.070906 1_655
Se33 Sm11 3.074124 1_554
Se33 Sm15 3.077391 1_655
Se34 Sm6 2.966346 1_555
Se34 Sm5 2.992128 1_555
Se34 Sm16 3.070906 1_555
Se34 Sm8 3.074124 1_554
Se34 Sm12 3.077391 1_565
Se35 Sm7 2.966346 1_555
Se35 Sm4 2.992128 1_555
Se35 Sm17 3.070906 1_555
Se35 Sm10 3.074124 1_555
Se35 Sm14 3.077391 1_555
Se36 Sm0 2.966346 1_555
Se36 Sm3 2.992128 1_555
Se36 Sm19 3.070911 1_565
Se36 Sm13 3.074124 1_555
Se36 Sm9 3.077391 1_665
Se37 Sm1 2.966346 1_555
Se37 Sm2 2.992128 1_555
Se37 Sm18 3.070906 1_455
Se37 Sm15 3.074124 1_556
Se37 Sm11 3.077391 1_455
