# generated using pymatgen
data_MgTi2(Fe2O5)2
_symmetry_space_group_name_H-M   'P 1'
_cell_length_a   5.12870938
_cell_length_b   5.62310693
_cell_length_c   7.80558799
_cell_angle_alpha   109.48262905
_cell_angle_beta   90.57038370
_cell_angle_gamma   116.22199981
_symmetry_Int_Tables_number   1
_chemical_formula_structural   MgTi2(Fe2O5)2
_chemical_formula_sum   'Mg1 Ti2 Fe4 O10'
_cell_volume   187.05595305
_cell_formula_units_Z   1
loop_
 _symmetry_equiv_pos_site_id
 _symmetry_equiv_pos_as_xyz
  1  'x, y, z'
loop_
 _atom_site_type_symbol
 _atom_site_label
 _atom_site_symmetry_multiplicity
 _atom_site_fract_x
 _atom_site_fract_y
 _atom_site_fract_z
 _atom_site_occupancy
  Mg  Mg0  1  0.42875351  0.87215466  0.77246880  1
  Ti  Ti0  1  0.01711286  0.06011853  0.51723116  1
  Ti  Ti1  1  0.00896421  0.96302255  0.03336478  1
  Fe  Fe0  1  0.21520954  0.42502082  0.90122740  1
  Fe  Fe1  1  0.76682252  0.54904450  0.59491535  1
  Fe  Fe2  1  0.64443459  0.26351406  0.19727462  1
  Fe  Fe3  1  0.37134618  0.75430139  0.31488074  1
  O  O0  1  0.19378800  0.99162060  0.24988100  1
  O  O1  1  0.84917897  0.01274431  0.72505503  1
  O  O2  1  0.60236529  0.85089246  0.03209202  1
  O  O3  1  0.74724736  0.15780242  0.41558360  1
  O  O4  1  0.39700538  0.19937494  0.97117346  1
  O  O5  1  0.20318136  0.82232574  0.53681089  1
  O  O6  1  0.04693279  0.38419093  0.14491851  1
  O  O7  1  0.65841538  0.62642079  0.35344367  1
  O  O8  1  0.00693060  0.64847897  0.85181358  1
  O  O9  1  0.34231145  0.41897335  0.63786440  1
loop_
_geom_bond_atom_site_label_1
_geom_bond_atom_site_label_2
_geom_bond_distance
_geom_bond_site_symmetry_2
Mg0 O1 2.028790 1_565
Mg0 O5 2.031715 1_555
Mg0 O4 2.045450 1_565
Mg0 O8 2.188047 1_555
Mg0 O9 2.236212 1_555
Mg0 O2 2.265752 1_556
Fe0 O4 2.067545 1_555
Fe0 O8 2.090429 1_555
Fe0 O6 2.136499 1_556
Fe0 O9 2.156767 1_555
Fe0 O1 2.183058 1_455
Fe0 O2 2.201522 1_556
Fe1 O9 2.039213 1_555
Fe1 O8 2.108215 1_655
Fe1 O3 2.134787 1_555
Fe1 O7 2.188823 1_555
Fe1 O5 2.240889 1_655
Fe1 O1 2.293563 1_565
Fe2 O6 1.962830 1_655
Fe2 O7 1.965971 1_555
Fe2 O4 1.995370 1_554
Fe2 O3 2.114205 1_555
Fe2 O2 2.156140 1_545
Fe2 O0 2.272205 1_545
Fe3 O5 1.941726 1_555
Fe3 O7 1.961244 1_555
Fe3 O6 1.978371 1_555
Fe3 O0 2.093759 1_555
Fe3 O3 2.096977 1_565
Fe3 O2 2.618060 1_555
O0 Ti1 1.852762 1_555
O0 Ti0 2.265866 1_565
O1 Ti0 1.886155 1_655
O1 Ti1 2.674546 1_646
O2 Ti1 1.892017 1_655
O3 Ti0 1.946158 1_655
O4 Ti1 2.018639 1_546
O5 Ti0 1.995741 1_565
O6 Ti1 2.149041 1_545
O7 Ti0 2.207939 1_665
O8 Ti1 1.856919 1_556
O9 Ti0 1.862094 1_555
