# generated using pymatgen
data_EuAgAs
_symmetry_space_group_name_H-M   'P 1'
_cell_length_a   4.51296459
_cell_length_b   4.51296449
_cell_length_c   8.08687198
_cell_angle_alpha   90.00000000
_cell_angle_beta   90.00000000
_cell_angle_gamma   119.99999319
_symmetry_Int_Tables_number   1
_chemical_formula_structural   EuAgAs
_chemical_formula_sum   'Eu2 Ag2 As2'
_cell_volume   142.63794458
_cell_formula_units_Z   2
loop_
 _symmetry_equiv_pos_site_id
 _symmetry_equiv_pos_as_xyz
  1  'x, y, z'
loop_
 _atom_site_type_symbol
 _atom_site_label
 _atom_site_symmetry_multiplicity
 _atom_site_fract_x
 _atom_site_fract_y
 _atom_site_fract_z
 _atom_site_occupancy
  Eu  Eu0  1  0.00000000  -0.00000000  0.50000000  1
  Eu  Eu1  1  0.00000000  -0.00000000  -0.00000000  1
  Ag  Ag0  1  0.33333300  0.66666700  0.75000167  1
  Ag  Ag1  1  0.66666700  0.33333300  0.24999833  1
  As  As0  1  0.66666700  0.33333300  0.75001462  1
  As  As1  1  0.33333300  0.66666700  0.24998538  1
loop_
_geom_bond_atom_site_label_1
_geom_bond_atom_site_label_2
_geom_bond_distance
_geom_bond_site_symmetry_2
Ag0 As0 2.605559 1_565
Ag0 As0 2.605559 1_455
Ag0 As0 2.605566 1_555
Ag0 Eu1 3.297912 1_566
Ag0 Eu1 3.297915 1_556
Ag0 Eu1 3.297915 1_666
Ag0 Eu0 3.297929 1_565
Ag0 Eu0 3.297932 1_555
Ag0 Eu0 3.297932 1_665
Ag1 As1 2.605559 1_545
Ag1 As1 2.605559 1_655
Ag1 As1 2.605566 1_555
Ag1 Eu1 3.297912 1_655
Ag1 Eu1 3.297915 1_665
Ag1 Eu1 3.297915 1_555
Ag1 Eu0 3.297929 1_655
Ag1 Eu0 3.297932 1_665
Ag1 Eu0 3.297932 1_555
As0 Eu1 3.297848 1_656
As0 Eu1 3.297851 1_666
As0 Eu1 3.297851 1_556
As0 Eu0 3.297993 1_655
As0 Eu0 3.297996 1_665
As0 Eu0 3.297996 1_555
As1 Eu1 3.297848 1_565
As1 Eu1 3.297851 1_555
As1 Eu1 3.297851 1_665
As1 Eu0 3.297993 1_565
As1 Eu0 3.297996 1_555
As1 Eu0 3.297996 1_665
