# generated using pymatgen
data_Na6Y2Ga2Si3(SO8)3
_symmetry_space_group_name_H-M   'P 1'
_cell_length_a   9.22923560
_cell_length_b   9.08903519
_cell_length_c   22.85914847
_cell_angle_alpha   91.00648101
_cell_angle_beta   89.89662048
_cell_angle_gamma   119.61041731
_symmetry_Int_Tables_number   1
_chemical_formula_structural   Na6Y2Ga2Si3(SO8)3
_chemical_formula_sum   'Na18 Y6 Ga6 Si9 S9 O72'
_cell_volume   1666.80640513
_cell_formula_units_Z   3
loop_
 _symmetry_equiv_pos_site_id
 _symmetry_equiv_pos_as_xyz
  1  'x, y, z'
loop_
 _atom_site_type_symbol
 _atom_site_label
 _atom_site_symmetry_multiplicity
 _atom_site_fract_x
 _atom_site_fract_y
 _atom_site_fract_z
 _atom_site_occupancy
  Na  Na0  1  0.63602475  0.99894829  0.26613990  1
  Na  Na1  1  0.35580517  0.36269945  0.25664300  1
  Na  Na2  1  0.64245079  0.64403563  0.73257922  1
  Na  Na3  1  0.98237200  0.36028828  0.74054679  1
  Na  Na4  1  0.02807569  0.68928677  0.59311772  1
  Na  Na5  1  0.67671281  0.96381216  0.58277322  1
  Na  Na6  1  0.31654234  0.97356657  0.10052028  1
  Na  Na7  1  0.01997480  0.32608164  0.08392728  1
  Na  Na8  1  0.97144763  0.64941090  0.89551345  1
  Na  Na9  1  0.70823728  0.04431718  0.90802793  1
  Na  Na10  1  0.95696175  0.29400604  0.42160084  1
  Na  Na11  1  0.34507218  0.03392356  0.41501275  1
  Na  Na12  1  0.97546510  0.98890549  0.50479226  1
  Na  Na13  1  0.98699238  0.01554418  0.00018901  1
  Na  Na14  1  0.66653757  0.32427242  0.81783734  1
  Na  Na15  1  0.67868646  0.34801945  0.34021006  1
  Na  Na16  1  0.32808156  0.67431061  0.17771109  1
  Na  Na17  1  0.33289917  0.66354445  0.66355002  1
  Y  Y0  1  0.00003798  0.01773831  0.84106353  1
  Y  Y1  1  0.99561406  0.00605345  0.15845343  1
  Y  Y2  1  0.67435965  0.33291767  0.98429671  1
  Y  Y3  1  0.33926857  0.66145362  0.01957194  1
  Y  Y4  1  0.34903719  0.65755651  0.51961391  1
  Y  Y5  1  0.31800524  0.66822418  0.80658500  1
  Ga  Ga0  1  0.99429271  0.01679688  0.34489013  1
  Ga  Ga1  1  0.96197753  0.97358207  0.64661474  1
  Ga  Ga2  1  0.69418763  0.34949198  0.68074930  1
  Ga  Ga3  1  0.66265107  0.29583905  0.19961476  1
  Ga  Ga4  1  0.67974003  0.30792332  0.49602452  1
  Ga  Ga5  1  0.31979670  0.69321106  0.31654812  1
  Si  Si0  1  0.29423978  0.00145274  0.25259125  1
  Si  Si1  1  0.01039856  0.32086718  0.25307436  1
  Si  Si2  1  0.99205494  0.70406563  0.74374944  1
  Si  Si3  1  0.69540702  0.00864808  0.74364085  1
  Si  Si4  1  0.96398605  0.32109332  0.58572794  1
  Si  Si5  1  0.67215891  0.60787348  0.58420429  1
  Si  Si6  1  0.66469181  0.03424352  0.08717279  1
  Si  Si7  1  0.03136092  0.36255727  0.91943739  1
  Si  Si8  1  0.63844646  0.96712005  0.41499465  1
  S  S0  1  0.70005678  0.69492505  0.25261031  1
  S  S1  1  0.30268868  0.28989102  0.74378477  1
  S  S2  1  0.37738939  0.05072659  0.58232533  1
  S  S3  1  0.96229073  0.63361098  0.08639591  1
  S  S4  1  0.37284830  0.33271406  0.08949299  1
  S  S5  1  0.63608223  0.67012708  0.91329871  1
  S  S6  1  0.32756113  0.96675650  0.91998665  1
  S  S7  1  0.32837484  0.36038887  0.40932745  1
  S  S8  1  0.03910487  0.67360415  0.41540065  1
  O  O0  1  0.18652650  0.02741557  0.30573558  1
  O  O1  1  0.80795916  0.77938083  0.30415226  1
  O  O2  1  0.96377132  0.17691145  0.30362915  1
  O  O3  1  0.23349962  0.20632575  0.80084276  1
  O  O4  1  0.97974935  0.78209118  0.80824888  1
  O  O5  1  0.80446790  0.05173571  0.80590204  1
  O  O6  1  0.79374306  0.97422070  0.69012249  1
  O  O7  1  0.18817833  0.19998472  0.69529827  1
  O  O8  1  0.01430408  0.82966294  0.68930016  1
  O  O9  1  0.77294404  0.79914539  0.19961046  1
  O  O10  1  0.05391822  0.25496297  0.19174621  1
  O  O11  1  0.20378253  0.97585036  0.18958973  1
  O  O12  1  0.87576812  0.35893825  0.64138630  1
  O  O13  1  0.48905908  0.14006354  0.63152020  1
  O  O14  1  0.64673153  0.50433598  0.64458329  1
  O  O15  1  0.86638376  0.52779315  0.13494757  1
  O  O16  1  0.64139917  0.13987513  0.14346051  1
  O  O17  1  0.46710312  0.34507867  0.14258412  1
  O  O18  1  0.46061865  0.33043651  0.03549066  1
  O  O19  1  0.87848587  0.56215677  0.02891421  1
  O  O20  1  0.68069787  0.13315203  0.02598484  1
  O  O21  1  0.45081578  0.13584726  0.52447329  1
  O  O22  1  0.69199602  0.50421109  0.52638872  1
  O  O23  1  0.84663971  0.27567740  0.52488130  1
  O  O24  1  0.55240786  0.68931984  0.96649902  1
  O  O25  1  0.12363356  0.44872949  0.98241231  1
  O  O26  1  0.31779295  0.87376655  0.97436218  1
  O  O27  1  0.56300988  0.86331347  0.47417325  1
  O  O28  1  0.29995211  0.44110357  0.46199834  1
  O  O29  1  0.14200162  0.69911090  0.46879923  1
  O  O30  1  0.12246649  0.63964715  0.36411767  1
  O  O31  1  0.50461807  0.87196054  0.35919668  1
  O  O32  1  0.34754764  0.46084274  0.35727799  1
  O  O33  1  0.13125056  0.48387097  0.86465327  1
  O  O34  1  0.35536949  0.88088052  0.86941790  1
  O  O35  1  0.54248525  0.66058154  0.86038639  1
  O  O36  1  0.03104426  0.83096992  0.40714958  1
  O  O37  1  0.82952865  0.99574091  0.40274809  1
  O  O38  1  0.17061837  0.18756208  0.40651553  1
  O  O39  1  0.00114602  0.16919733  0.91813920  1
  O  O40  1  0.16907354  0.96799588  0.91508898  1
  O  O41  1  0.80627444  0.82236450  0.91370884  1
  O  O42  1  0.97836239  0.14778515  0.59240548  1
  O  O43  1  0.20882623  0.02849606  0.58492737  1
  O  O44  1  0.84701718  0.79956928  0.58473399  1
  O  O45  1  0.99534132  0.81049556  0.08882696  1
  O  O46  1  0.83792124  0.02650904  0.08997215  1
  O  O47  1  0.20611386  0.17298749  0.08730334  1
  O  O48  1  0.67675028  0.17741126  0.73513917  1
  O  O49  1  0.47063667  0.31281893  0.74017079  1
  O  O50  1  0.81634932  0.51784784  0.74317171  1
  O  O51  1  0.67735012  0.52211746  0.24524825  1
  O  O52  1  0.83386925  0.32792466  0.24862191  1
  O  O53  1  0.48184232  0.18067616  0.25216560  1
  O  O54  1  0.65376624  0.51751546  0.91706150  1
  O  O55  1  0.84287345  0.34866012  0.91614022  1
  O  O56  1  0.47325994  0.13999801  0.92229586  1
  O  O57  1  0.65142222  0.16089251  0.42338136  1
  O  O58  1  0.47253623  0.33462216  0.41578922  1
  O  O59  1  0.87416041  0.51875381  0.41830213  1
  O  O60  1  0.34169248  0.47932777  0.08917894  1
  O  O61  1  0.12999044  0.64140797  0.08646515  1
  O  O62  1  0.49040378  0.85214910  0.08793182  1
  O  O63  1  0.36079585  0.87590763  0.57907057  1
  O  O64  1  0.52027898  0.65414072  0.58259235  1
  O  O65  1  0.13924136  0.49825981  0.57823934  1
  O  O66  1  0.33414840  0.84437842  0.25915183  1
  O  O67  1  0.53175820  0.67875470  0.25890610  1
  O  O68  1  0.18534580  0.50075227  0.26605788  1
  O  O69  1  0.31878248  0.46450687  0.74795937  1
  O  O70  1  0.14742511  0.66239278  0.74233023  1
  O  O71  1  0.52122575  0.82960306  0.74908797  1
loop_
_geom_bond_atom_site_label_1
_geom_bond_atom_site_label_2
_geom_bond_distance
_geom_bond_site_symmetry_2
Na0 O66 2.426372 1_555
Na0 O31 2.453907 1_555
Na0 O67 2.576646 1_555
Na0 O52 2.660665 1_565
Na0 O53 2.682905 1_565
Na0 O2 2.761544 1_565
Na1 O53 2.448681 1_555
Na1 O68 2.456778 1_555
Na1 O32 2.467379 1_555
Na1 O67 2.505400 1_555
Na1 O51 2.595250 1_555
Na1 O17 2.831426 1_555
Na1 O10 2.861856 1_555
Na1 O0 2.897563 1_555
Na2 O14 2.370554 1_555
Na2 O50 2.404190 1_555
Na2 O71 2.465715 1_555
Na2 O49 2.628183 1_555
Na2 O69 2.628525 1_555
Na2 O6 2.802579 1_555
Na3 O70 2.392624 1_655
Na3 O48 2.468834 1_555
Na3 O12 2.470088 1_555
Na3 O50 2.562673 1_555
Na3 O69 2.766909 1_655
Na3 O5 2.894952 1_555
Na4 O44 2.344551 1_455
Na4 O65 2.433349 1_555
Na4 O8 2.557105 1_555
Na4 O43 2.694438 1_565
Na4 O63 2.697806 1_555
Na4 O12 2.854585 1_455
Na5 O42 2.446250 1_565
Na5 O64 2.447540 1_555
Na5 O63 2.615938 1_555
Na5 O44 2.649955 1_555
Na5 O27 2.660997 1_555
Na5 O6 2.664148 1_555
Na5 O23 2.824333 1_565
Na6 O11 2.289363 1_555
Na6 O62 2.369074 1_555
Na6 O47 2.502228 1_565
Na6 O45 2.589047 1_455
Na6 O61 2.648264 1_555
Na6 O16 2.778027 1_565
Na6 O26 3.009643 1_554
Na7 O46 2.397380 1_455
Na7 O61 2.523296 1_555
Na7 O25 2.563560 1_554
Na7 O60 2.584413 1_555
Na7 O10 2.617123 1_555
Na7 O47 2.694423 1_555
Na8 O4 2.330666 1_555
Na8 O55 2.437306 1_555
Na8 O40 2.578751 1_655
Na8 O54 2.611186 1_555
Na8 O33 2.662425 1_655
Na8 O41 2.703852 1_555
Na9 O39 2.368663 1_655
Na9 O55 2.411707 1_555
Na9 O5 2.486391 1_555
Na9 O41 2.592021 1_545
Na9 O56 2.723408 1_555
Na9 O20 2.847967 1_556
Na9 O34 2.962322 1_545
Na10 O37 2.393368 1_545
Na10 O57 2.459090 1_555
Na10 O59 2.512113 1_555
Na10 O23 2.544769 1_555
Na10 O38 2.610425 1_655
Na10 O2 2.893727 1_555
Na10 O28 2.906161 1_655
Na11 O58 2.382224 1_555
Na11 O57 2.476341 1_555
Na11 O36 2.557716 1_545
Na11 O38 2.610087 1_555
Na11 O21 2.665609 1_555
Na11 O31 2.834164 1_545
Na11 O0 2.882187 1_555
Na11 O29 2.961744 1_545
Na12 O44 2.406834 1_555
Na12 O42 2.440804 1_565
Na12 O43 2.710883 1_665
Na12 O37 2.712617 1_555
Na12 O36 2.813651 1_655
Na12 O38 2.909510 1_665
Na13 O39 2.322958 1_654
Na13 O46 2.496622 1_555
Na13 O41 2.601680 1_544
Na13 O47 2.675388 1_655
Na13 O40 2.733375 1_644
Na13 O45 2.803545 1_545
Na14 O48 2.323646 1_555
Na14 O50 2.369268 1_555
Na14 O49 2.500173 1_555
Na14 O55 2.717807 1_555
Na14 O54 2.882206 1_555
Na14 O56 2.976852 1_555
Na15 O59 2.448919 1_555
Na15 O57 2.501931 1_555
Na15 O58 2.527092 1_555
Na15 O52 2.588846 1_555
Na15 O53 2.615258 1_555
Na15 O51 2.712247 1_555
Na16 O66 2.381604 1_555
Na16 O68 2.520139 1_555
Na16 O62 2.604105 1_555
Na16 O67 2.629647 1_555
Na16 O61 2.689609 1_555
Na16 O60 2.710206 1_555
Na17 O70 2.478951 1_555
Na17 O71 2.537427 1_555
Na17 O65 2.551594 1_555
Na17 O64 2.559649 1_555
Na17 O69 2.627080 1_555
Na17 O63 2.675666 1_555
Ga0 O2 1.881781 1_555
Ga0 O0 1.945813 1_655
Ga0 O37 1.952503 1_545
Ga0 O38 2.115933 1_655
Ga0 O1 2.179244 1_545
Ga0 O36 2.376034 1_645
Ga1 O6 1.844748 1_555
Ga1 O8 1.888707 1_655
Ga1 O44 1.973997 1_555
Ga1 O42 1.974090 1_565
Ga1 O7 2.348177 1_665
Ga1 O43 2.513428 1_665
Ga2 O12 1.865630 1_555
Ga2 O14 1.872791 1_555
Ga2 O48 1.958778 1_555
Ga2 O50 1.967991 1_555
Ga2 O13 2.201163 1_555
Ga2 O49 2.353542 1_555
Ga3 O16 1.832458 1_555
Ga3 O52 1.837559 1_555
Ga3 O53 1.906351 1_555
Ga3 O51 2.232890 1_555
Ga3 O17 2.446255 1_555
Ga3 O15 2.519422 1_555
Ga4 O23 1.830385 1_555
Ga4 O22 1.853327 1_555
Ga4 O21 2.024418 1_555
Ga4 O57 2.046976 1_555
Ga5 O66 1.873395 1_555
Ga5 O31 1.926490 1_555
Ga5 O68 1.928997 1_555
Ga5 O30 1.967618 1_555
Ga5 O67 2.412253 1_555
Ga5 O32 2.448979 1_555
O0 Si0 1.654435 1_555
O1 S0 1.478574 1_555
O2 Si1 1.651533 1_655
O3 S1 1.496111 1_555
O3 Y0 2.196478 1_555
O4 Si2 1.652860 1_555
O4 Y0 2.175503 1_665
O5 Si3 1.669780 1_555
O5 Y0 2.136475 1_655
O6 Si3 1.637511 1_565
O7 S1 1.460178 1_555
O8 Si2 1.646772 1_455
O9 S0 1.491747 1_555
O9 Y1 2.209326 1_565
O10 Si1 1.640641 1_555
O10 Y1 2.173693 1_455
O11 Si0 1.620425 1_565
O11 Y1 2.192278 1_465
O12 Si4 1.630217 1_555
O13 S2 1.459882 1_555
O14 Si5 1.634586 1_555
O15 S3 1.460465 1_555
O16 Si6 1.668267 1_555
O17 S4 1.464457 1_555
O18 S4 1.480723 1_555
O18 Y2 2.282551 1_554
O19 S3 1.491262 1_555
O19 Y2 2.232480 1_554
O20 Si6 1.642730 1_555
O20 Y2 2.091452 1_554
O21 S2 1.523571 1_555
O22 Si5 1.671452 1_555
O23 Si4 1.679707 1_555
O24 S5 1.492654 1_555
O24 Y3 2.217065 1_556
O25 Si7 1.648233 1_555
O25 Y3 2.136920 1_556
O26 S6 1.492874 1_555
O26 Y3 2.297803 1_556
O27 Si8 1.611589 1_555
O27 Y4 2.210768 1_555
O28 S7 1.488171 1_555
O28 Y4 2.200156 1_555
O29 S8 1.490722 1_555
O29 Y4 2.424786 1_555
O30 S8 1.510005 1_555
O31 Si8 1.676832 1_555
O32 S7 1.469123 1_555
O33 Si7 1.635180 1_555
O33 Y5 2.180892 1_555
O34 S6 1.475306 1_555
O34 Y5 2.272304 1_555
O35 S5 1.463801 1_555
O35 Y5 2.442140 1_555
O36 S8 1.483763 1_555
O37 Si8 1.674381 1_555
O38 S7 1.525839 1_555
O39 Si7 1.637434 1_555
O39 Y0 2.213675 1_555
O40 S6 1.472796 1_555
O40 Y0 2.497003 1_565
O41 S5 1.494572 1_555
O41 Y0 2.462459 1_665
O42 Si4 1.654457 1_555
O43 S2 1.467670 1_555
O44 Si5 1.691437 1_555
O45 S3 1.480936 1_555
O45 Y1 2.364038 1_565
O46 Si6 1.636066 1_555
O46 Y1 2.211131 1_555
O47 S4 1.506050 1_555
O47 Y1 2.425709 1_455
O48 Si3 1.640684 1_555
O49 S1 1.460750 1_555
O50 Si2 1.667799 1_555
O51 S0 1.484845 1_555
O52 Si1 1.665223 1_655
O53 Si0 1.692575 1_555
O54 S5 1.478519 1_555
O54 Y2 2.370684 1_555
O55 Si7 1.682506 1_655
O55 Y2 2.155419 1_555
O56 S6 1.481658 1_545
O56 Y2 2.287839 1_555
O57 Si8 1.712522 1_545
O58 S7 1.468584 1_555
O59 S8 1.479309 1_655
O60 S4 1.495825 1_555
O60 Y3 2.324159 1_555
O61 S3 1.513981 1_455
O61 Y3 2.398622 1_555
O62 Si6 1.642264 1_565
O62 Y3 2.217034 1_555
O63 S2 1.519581 1_565
O63 Y4 2.343200 1_555
O64 Si5 1.651151 1_555
O64 Y4 2.151636 1_555
O65 Si4 1.635037 1_455
O65 Y4 2.220309 1_555
O66 Si0 1.650366 1_565
O67 S0 1.493082 1_555
O68 Si1 1.656569 1_555
O69 S1 1.520460 1_555
O69 Y5 2.269432 1_555
O70 Si2 1.654341 1_455
O70 Y5 2.135851 1_555
O71 Si3 1.633774 1_565
O71 Y5 2.176447 1_555
