# generated using pymatgen
data_Mo2PO8
_symmetry_space_group_name_H-M   'P 1'
_cell_length_a   5.37262200
_cell_length_b   6.66591700
_cell_length_c   17.62394947
_cell_angle_alpha   89.81948042
_cell_angle_beta   90.00000000
_cell_angle_gamma   90.00000000
_symmetry_Int_Tables_number   1
_chemical_formula_structural   Mo2PO8
_chemical_formula_sum   'Mo8 P4 O32'
_cell_volume   631.17134151
_cell_formula_units_Z   4
loop_
 _symmetry_equiv_pos_site_id
 _symmetry_equiv_pos_as_xyz
  1  'x, y, z'
loop_
 _atom_site_type_symbol
 _atom_site_label
 _atom_site_symmetry_multiplicity
 _atom_site_fract_x
 _atom_site_fract_y
 _atom_site_fract_z
 _atom_site_occupancy
  Mo  Mo0  1  0.22691900  0.66283100  0.95658700  1
  Mo  Mo1  1  0.22997400  0.83668400  0.45678900  1
  Mo  Mo2  1  0.22716500  0.00371100  0.12738300  1
  Mo  Mo3  1  0.23016400  0.49562400  0.62844400  1
  Mo  Mo4  1  0.73016400  0.50437600  0.37155600  1
  Mo  Mo5  1  0.72691900  0.33716900  0.04341300  1
  Mo  Mo6  1  0.72997400  0.16331600  0.54321100  1
  Mo  Mo7  1  0.72716500  0.99628900  0.87261700  1
  P  P0  1  0.23260100  0.19573500  0.31241000  1
  P  P1  1  0.21622600  0.30370800  0.81358900  1
  P  P2  1  0.71622600  0.69629200  0.18641100  1
  P  P3  1  0.73260100  0.80426500  0.68759000  1
  O  O0  1  0.45582800  0.48670800  0.00390200  1
  O  O1  1  0.50181100  0.81705000  0.91199400  1
  O  O2  1  0.22677400  0.84088000  0.03989800  1
  O  O3  1  0.46222200  0.79791200  0.17489100  1
  O  O4  1  0.73412700  0.99548600  0.63790600  1
  O  O5  1  0.48585800  0.99539700  0.49961500  1
  O  O6  1  0.72162300  0.86573700  0.77170200  1
  O  O7  1  0.99310000  0.84712200  0.90402700  1
  O  O8  1  0.23412700  0.00451400  0.36209400  1
  O  O9  1  0.98585800  0.00460300  0.50038500  1
  O  O10  1  0.22162300  0.13426300  0.22829800  1
  O  O11  1  0.49310000  0.15287800  0.09597300  1
  O  O12  1  0.43331900  0.16516900  0.83436400  1
  O  O13  1  0.00181100  0.18295000  0.08800600  1
  O  O14  1  0.72677400  0.15912000  0.96010200  1
  O  O15  1  0.96222200  0.20208800  0.82510900  1
  O  O16  1  0.00018600  0.32036900  0.32997400  1
  O  O17  1  0.50018600  0.67963100  0.67002600  1
  O  O18  1  0.47075600  0.32833900  0.59103700  1
  O  O19  1  0.72753100  0.34022800  0.45917600  1
  O  O20  1  0.97832000  0.33614100  0.59341900  1
  O  O21  1  0.23932300  0.36072200  0.72906700  1
  O  O22  1  0.47344500  0.31451100  0.32520500  1
  O  O23  1  0.72809500  0.50337400  0.13803900  1
  O  O24  1  0.22809500  0.49662600  0.86196100  1
  O  O25  1  0.95582800  0.51329200  0.99609800  1
  O  O26  1  0.73932300  0.63927800  0.27093300  1
  O  O27  1  0.47832000  0.66385900  0.40658100  1
  O  O28  1  0.22753100  0.65977200  0.54082400  1
  O  O29  1  0.97075600  0.67166100  0.40896300  1
  O  O30  1  0.97344500  0.68548900  0.67479500  1
  O  O31  1  0.93331900  0.83483100  0.16563600  1
loop_
_geom_bond_atom_site_label_1
_geom_bond_atom_site_label_2
_geom_bond_distance
_geom_bond_site_symmetry_2
Mo0 O2 1.890881 1_556
Mo0 O0 1.892094 1_556
Mo0 O25 1.896169 1_455
Mo0 O1 1.962287 1_555
Mo0 O7 1.984468 1_455
Mo0 O24 2.005072 1_555
Mo1 O9 1.889129 1_465
Mo1 O28 1.890322 1_555
Mo1 O5 1.893141 1_555
Mo1 O29 1.966194 1_455
Mo1 O27 1.974049 1_555
Mo1 O8 2.006375 1_565
Mo2 O11 1.825664 1_555
Mo2 O13 1.835703 1_555
Mo2 O2 1.888366 1_545
Mo2 O10 1.982702 1_555
Mo2 O3 2.042201 1_545
Mo2 O31 2.051677 1_445
Mo3 O20 1.829243 1_455
Mo3 O18 1.831273 1_555
Mo3 O28 1.889816 1_555
Mo3 O21 1.986422 1_555
Mo3 O17 2.037599 1_555
Mo3 O30 2.044008 1_455
Mo4 O27 1.829243 1_555
Mo4 O29 1.831273 1_555
Mo4 O19 1.889816 1_555
Mo4 O26 1.986422 1_555
Mo4 O16 2.037599 1_655
Mo4 O22 2.044008 1_555
Mo5 O14 1.890881 1_554
Mo5 O25 1.892094 1_554
Mo5 O0 1.896169 1_555
Mo5 O13 1.962287 1_655
Mo5 O11 1.984468 1_555
Mo5 O23 2.005072 1_555
Mo6 O5 1.889129 1_545
Mo6 O19 1.890322 1_555
Mo6 O9 1.893141 1_555
Mo6 O18 1.966194 1_555
Mo6 O20 1.974049 1_555
Mo6 O4 2.006375 1_545
Mo7 O7 1.825664 1_555
Mo7 O1 1.835703 1_555
Mo7 O14 1.888366 1_565
Mo7 O6 1.982702 1_555
Mo7 O15 2.042201 1_565
Mo7 O12 2.051677 1_565
O3 P2 1.536727 1_555
O4 P3 1.544191 1_555
O6 P3 1.540351 1_555
O8 P0 1.544191 1_555
O10 P0 1.540351 1_555
O12 P1 1.531389 1_555
O15 P1 1.536727 1_655
O16 P0 1.531948 1_555
O17 P3 1.531948 1_555
O21 P1 1.541172 1_555
O22 P0 1.534010 1_555
O23 P2 1.546439 1_555
O24 P1 1.546439 1_555
O26 P2 1.541172 1_555
O30 P3 1.534010 1_555
O31 P2 1.531389 1_555
