# generated using pymatgen
data_KNb8O14
_symmetry_space_group_name_H-M   'P 1'
_cell_length_a   5.96689641
_cell_length_b   9.39381215
_cell_length_c   10.37234490
_cell_angle_alpha   89.99962447
_cell_angle_beta   89.99998632
_cell_angle_gamma   90.00000286
_symmetry_Int_Tables_number   1
_chemical_formula_structural   KNb8O14
_chemical_formula_sum   'K2 Nb16 O28'
_cell_volume   581.38968052
_cell_formula_units_Z   2
loop_
 _symmetry_equiv_pos_site_id
 _symmetry_equiv_pos_as_xyz
  1  'x, y, z'
loop_
 _atom_site_type_symbol
 _atom_site_label
 _atom_site_symmetry_multiplicity
 _atom_site_fract_x
 _atom_site_fract_y
 _atom_site_fract_z
 _atom_site_occupancy
  K  K0  1  0.49999941  0.00000283  0.49999442  1
  K  K1  1  0.49999946  0.49999214  0.00000553  1
  Nb  Nb0  1  0.49999993  0.62097586  0.33469366  1
  Nb  Nb1  1  0.50000037  0.12095777  0.16529040  1
  Nb  Nb2  1  -0.00000072  0.38831362  0.16218951  1
  Nb  Nb3  1  0.49999996  0.37902179  0.66529777  1
  Nb  Nb4  1  0.49999951  0.87903304  0.83471597  1
  Nb  Nb5  1  0.26420045  0.12807638  0.92422435  1
  Nb  Nb6  1  0.26421888  0.37192042  0.42421055  1
  Nb  Nb7  1  0.73579905  0.12807597  0.92422461  1
  Nb  Nb8  1  0.26420456  0.62808471  0.57578119  1
  Nb  Nb9  1  0.73579600  0.62808490  0.57578087  1
  Nb  Nb10  1  0.73578115  0.37192087  0.42421056  1
  Nb  Nb11  1  0.26421754  0.87193303  0.07578785  1
  Nb  Nb12  1  -0.00000037  0.88832376  0.33780490  1
  Nb  Nb13  1  0.73578326  0.87193282  0.07578797  1
  Nb  Nb14  1  -0.00000091  0.11167461  0.66219121  1
  Nb  Nb15  1  -0.00000089  0.61168324  0.83782056  1
  O  O0  1  0.74980042  0.49529287  0.24848408  1
  O  O1  1  0.74980235  0.99528902  0.25150202  1
  O  O2  1  -0.00000028  -0.00000002  0.49999166  1
  O  O3  1  0.25019899  0.00471653  0.74850317  1
  O  O4  1  0.49999997  0.25382394  0.84246816  1
  O  O5  1  0.74980113  0.00471597  0.74850311  1
  O  O6  1  0.24609978  0.25453303  0.08917159  1
  O  O7  1  0.50000022  0.75383332  0.65754223  1
  O  O8  1  0.25019828  0.99528880  0.25150203  1
  O  O9  1  0.24609809  0.74547271  0.91084935  1
  O  O10  1  0.74980963  0.50471319  0.75150626  1
  O  O11  1  0.50000054  0.74617350  0.15754877  1
  O  O12  1  0.24609522  0.75454183  0.41082154  1
  O  O13  1  0.24609706  0.24545852  0.58915802  1
  O  O14  1  0.00000018  0.76584302  0.17832700  1
  O  O15  1  0.50000050  0.24615418  0.34243772  1
  O  O16  1  -0.00000021  0.49999844  0.00000501  1
  O  O17  1  0.75390012  0.25453278  0.08917179  1
  O  O18  1  0.75390172  0.74547278  0.91084925  1
  O  O19  1  0.75390272  0.24545865  0.58915803  1
  O  O20  1  0.25020051  0.49529265  0.24848419  1
  O  O21  1  0.25019079  0.50471355  0.75150628  1
  O  O22  1  -0.00000051  0.23415558  0.82167916  1
  O  O23  1  0.00000033  0.73415180  0.67832796  1
  O  O24  1  0.75390477  0.75454165  0.41082131  1
  O  O25  1  0.00000013  0.50000048  0.49999208  1
  O  O26  1  0.00000005  -0.00000123  0.00001309  1
  O  O27  1  -0.00000016  0.26582769  0.32166129  1
loop_
_geom_bond_atom_site_label_1
_geom_bond_atom_site_label_2
_geom_bond_distance
_geom_bond_site_symmetry_2
K0 O15 2.831501 1_555
K0 O7 2.831587 1_545
K0 O13 2.909837 1_555
K0 O19 2.909841 1_555
K0 O12 2.909913 1_545
K0 O24 2.909919 1_545
K0 O8 2.977735 1_545
K0 O1 2.977740 1_545
K0 O3 2.977880 1_555
K0 O5 2.977883 1_555
K0 O2 2.983446 1_555
K0 O2 2.983450 1_655
K1 O4 2.831532 1_554
K1 O11 2.831668 1_555
K1 O6 2.909853 1_555
K1 O17 2.909858 1_555
K1 O9 2.909985 1_554
K1 O18 2.909989 1_554
K1 O20 2.977603 1_555
K1 O0 2.977608 1_555
K1 O21 2.977820 1_554
K1 O10 2.977824 1_554
K1 O16 2.983446 1_555
K1 O16 2.983450 1_655
Nb0 O20 2.101236 1_555
Nb0 O0 2.101239 1_555
Nb0 O24 2.119685 1_555
Nb0 O12 2.119686 1_555
Nb0 O11 2.181562 1_555
Nb1 O1 2.101173 1_545
Nb1 O8 2.101174 1_545
Nb1 O17 2.119674 1_555
Nb1 O6 2.119680 1_555
Nb1 O15 2.181590 1_555
Nb2 O16 1.982573 1_555
Nb2 O0 2.009942 1_455
Nb2 O20 2.009952 1_555
Nb2 O27 2.014922 1_555
Nb2 O17 2.075881 1_455
Nb2 O6 2.075885 1_555
Nb3 O21 2.101317 1_555
Nb3 O10 2.101318 1_555
Nb3 O19 2.119708 1_555
Nb3 O13 2.119710 1_555
Nb3 O4 2.181785 1_555
Nb4 O3 2.101250 1_565
Nb4 O5 2.101251 1_565
Nb4 O9 2.119656 1_555
Nb4 O18 2.119659 1_555
Nb4 O7 2.181837 1_555
Nb5 O4 2.023381 1_555
Nb5 O6 2.085657 1_556
Nb5 O26 2.133238 1_556
Nb5 O22 2.146979 1_555
Nb5 O3 2.161455 1_555
Nb6 O15 2.023488 1_555
Nb6 O13 2.085681 1_555
Nb6 O25 2.133310 1_555
Nb6 O27 2.147144 1_555
Nb6 O20 2.161554 1_555
Nb7 O4 2.023383 1_555
Nb7 O17 2.085658 1_556
Nb7 O26 2.133238 1_656
Nb7 O22 2.146979 1_655
Nb7 O5 2.161459 1_555
Nb8 O7 2.023398 1_555
Nb8 O12 2.085755 1_555
Nb8 O25 2.133298 1_555
Nb8 O23 2.146955 1_555
Nb8 O21 2.161536 1_555
Nb9 O7 2.023399 1_555
Nb9 O24 2.085752 1_555
Nb9 O25 2.133297 1_655
Nb9 O23 2.146956 1_655
Nb9 O10 2.161542 1_555
Nb10 O15 2.023487 1_555
Nb10 O19 2.085683 1_555
Nb10 O25 2.133309 1_655
Nb10 O27 2.147145 1_655
Nb10 O0 2.161554 1_555
Nb11 O11 2.023399 1_555
Nb11 O9 2.085608 1_554
Nb11 O26 2.133197 1_565
Nb11 O14 2.147066 1_555
Nb11 O8 2.161378 1_555
Nb12 O2 1.982561 1_565
Nb12 O1 2.009902 1_455
Nb12 O8 2.009907 1_555
Nb12 O14 2.014959 1_555
Nb12 O24 2.075858 1_455
Nb12 O12 2.075862 1_555
Nb13 O11 2.023396 1_555
Nb13 O18 2.085608 1_554
Nb13 O26 2.133196 1_665
Nb13 O14 2.147063 1_655
Nb13 O1 2.161379 1_555
Nb14 O2 1.982666 1_555
Nb14 O5 2.009915 1_455
Nb14 O3 2.009922 1_555
Nb14 O22 2.015046 1_555
Nb14 O19 2.075940 1_455
Nb14 O13 2.075945 1_555
Nb15 O16 1.982572 1_556
Nb15 O10 2.009949 1_455
Nb15 O21 2.009956 1_555
Nb15 O23 2.015007 1_555
Nb15 O18 2.075964 1_455
Nb15 O9 2.075971 1_555
