# generated using pymatgen
data_P3BrCl14
_symmetry_space_group_name_H-M   'P 1'
_cell_length_a   9.01997727
_cell_length_b   9.01997727
_cell_length_c   9.01997727
_cell_angle_alpha   119.74741490
_cell_angle_beta   119.74741490
_cell_angle_gamma   90.43804982
_symmetry_Int_Tables_number   1
_chemical_formula_structural   P3BrCl14
_chemical_formula_sum   'P3 Br1 Cl14'
_cell_volume   520.88576420
_cell_formula_units_Z   1
loop_
 _symmetry_equiv_pos_site_id
 _symmetry_equiv_pos_as_xyz
  1  'x, y, z'
loop_
 _atom_site_type_symbol
 _atom_site_label
 _atom_site_symmetry_multiplicity
 _atom_site_fract_x
 _atom_site_fract_y
 _atom_site_fract_z
 _atom_site_occupancy
  P  P0  1  0.24894400  0.74894400  0.50000000  1
  P  P1  1  0.49640400  0.49640400  0.00000000  1
  P  P2  1  0.74894400  0.24894400  0.50000000  1
  Br  Br0  1  0.00054300  0.00054300  0.00000000  1
  Cl  Cl0  1  0.32633300  0.32633300  0.00000000  1
  Cl  Cl1  1  0.51265100  0.87402400  0.70991800  1
  Cl  Cl2  1  0.87402400  0.16410500  0.36137300  1
  Cl  Cl3  1  0.80273200  0.51265100  0.63862700  1
  Cl  Cl4  1  0.16410500  0.80273200  0.29008200  1
  Cl  Cl5  1  0.19554800  0.48527900  0.36170900  1
  Cl  Cl6  1  0.48527900  0.12357000  0.28973100  1
  Cl  Cl7  1  0.83383800  0.19554800  0.71026900  1
  Cl  Cl8  1  0.12357000  0.83383800  0.63829100  1
  Cl  Cl9  1  0.38375700  0.28471300  0.67557100  1
  Cl  Cl10  1  0.28471300  0.60914300  0.90095600  1
  Cl  Cl11  1  0.70818600  0.38375700  0.09904400  1
  Cl  Cl12  1  0.60914300  0.70818600  0.32442900  1
  Cl  Cl13  1  0.66658700  0.66658700  0.00000000  1
loop_
_geom_bond_atom_site_label_1
_geom_bond_atom_site_label_2
_geom_bond_distance
_geom_bond_site_symmetry_2
Cl0 P1 2.161146 1_555
Cl1 P0 1.971194 1_555
Cl2 P2 1.971194 1_555
Cl3 P2 1.971194 1_555
Cl4 P0 1.971186 1_555
Cl5 P0 1.971397 1_555
Cl6 P2 1.971397 1_555
Cl7 P2 1.971398 1_555
Cl8 P0 1.971396 1_555
Cl9 P1 2.171770 1_556
Cl10 P1 2.171776 1_556
Cl11 P1 2.171770 1_555
Cl12 P1 2.171768 1_555
Cl13 P1 2.162569 1_555
