# generated using pymatgen
data_Na4AlGaSi(PO6)2
_symmetry_space_group_name_H-M   'P 1'
_cell_length_a   8.82280506
_cell_length_b   8.81434812
_cell_length_c   21.46474877
_cell_angle_alpha   90.02106817
_cell_angle_beta   89.93473885
_cell_angle_gamma   119.99621738
_symmetry_Int_Tables_number   1
_chemical_formula_structural   Na4AlGaSi(PO6)2
_chemical_formula_sum   'Na24 Al6 Ga6 Si6 P12 O72'
_cell_volume   1445.67137834
_cell_formula_units_Z   6
loop_
 _symmetry_equiv_pos_site_id
 _symmetry_equiv_pos_as_xyz
  1  'x, y, z'
loop_
 _atom_site_type_symbol
 _atom_site_label
 _atom_site_symmetry_multiplicity
 _atom_site_fract_x
 _atom_site_fract_y
 _atom_site_fract_z
 _atom_site_occupancy
  Na  Na0  1  0.63715225  0.00068994  0.25135338  1
  Na  Na1  1  0.36130137  0.36513398  0.24829149  1
  Na  Na2  1  0.00045012  0.62829882  0.24942005  1
  Na  Na3  1  0.63422723  0.63642308  0.74904922  1
  Na  Na4  1  0.99769977  0.36344628  0.75209694  1
  Na  Na5  1  0.37322895  0.99994400  0.75068344  1
  Na  Na6  1  0.30119593  0.32798640  0.58219644  1
  Na  Na7  1  0.03627415  0.70342534  0.58155107  1
  Na  Na8  1  0.66550054  0.96767952  0.58700881  1
  Na  Na9  1  0.29370994  0.96031778  0.08083865  1
  Na  Na10  1  0.67150766  0.70134129  0.08167586  1
  Na  Na11  1  0.03499152  0.33477535  0.08655212  1
  Na  Na12  1  0.96990131  0.67066996  0.92042405  1
  Na  Na13  1  0.69657651  0.03461119  0.91356605  1
  Na  Na14  1  0.33371374  0.29645200  0.91721541  1
  Na  Na15  1  0.96338041  0.30164613  0.41332024  1
  Na  Na16  1  0.32998644  0.03221853  0.41978374  1
  Na  Na17  1  0.70378745  0.66574669  0.41669517  1
  Na  Na18  1  0.00274753  0.99833174  0.50022714  1
  Na  Na19  1  0.00253643  0.99707571  0.99987906  1
  Na  Na20  1  0.66436723  0.32773172  0.83427802  1
  Na  Na21  1  0.67295024  0.33547166  0.33337822  1
  Na  Na22  1  0.32706699  0.66249162  0.16597243  1
  Na  Na23  1  0.33834327  0.67395671  0.66721380  1
  Al  Al0  1  0.00224094  0.00135318  0.85287446  1
  Al  Al1  1  0.67440156  0.33447649  0.18446015  1
  Al  Al2  1  0.66618666  0.33491566  0.98109384  1
  Al  Al3  1  0.32580411  0.67031876  0.01813271  1
  Al  Al4  1  0.32952752  0.67285245  0.51841784  1
  Al  Al5  1  0.34062992  0.67712002  0.81604524  1
  Ga  Ga0  1  0.99894271  0.99759046  0.35083700  1
  Ga  Ga1  1  0.00163296  0.99888085  0.65052033  1
  Ga  Ga2  1  0.00109076  0.99760083  0.14784046  1
  Ga  Ga3  1  0.66570401  0.32297835  0.68495750  1
  Ga  Ga4  1  0.66446091  0.33253463  0.48270729  1
  Ga  Ga5  1  0.32039093  0.65767519  0.31592930  1
  Si  Si0  1  0.99703382  0.28859977  0.24913995  1
  Si  Si1  1  0.71047963  0.99702770  0.75184591  1
  Si  Si2  1  0.37227365  0.03738050  0.58317618  1
  Si  Si3  1  0.95645109  0.62089308  0.08230395  1
  Si  Si4  1  0.33361075  0.96071284  0.91677319  1
  Si  Si5  1  0.03824137  0.66616044  0.41730865  1
  P  P0  1  0.29686705  0.00440417  0.24893811  1
  P  P1  1  0.70577752  0.70427466  0.24928482  1
  P  P2  1  0.28932868  0.29434742  0.75210271  1
  P  P3  1  0.00206422  0.70961717  0.75181319  1
  P  P4  1  0.96249142  0.33629397  0.58259405  1
  P  P5  1  0.66383566  0.62367493  0.58324731  1
  P  P6  1  0.66368748  0.04484305  0.08188611  1
  P  P7  1  0.38323909  0.33678682  0.08233498  1
  P  P8  1  0.61881505  0.66604194  0.91739260  1
  P  P9  1  0.04815592  0.38027956  0.91678664  1
  P  P10  1  0.61955221  0.95203066  0.41716822  1
  P  P11  1  0.33474251  0.38075789  0.41788799  1
  O  O0  1  0.21838939  0.04005023  0.30788778  1
  O  O1  1  0.82316353  0.78074234  0.30755791  1
  O  O2  1  0.95819680  0.16529848  0.31117315  1
  O  O3  1  0.20167849  0.17206223  0.80822466  1
  O  O4  1  0.97234395  0.79920467  0.80850053  1
  O  O5  1  0.83817661  0.03034316  0.81116158  1
  O  O6  1  0.79178779  0.95909033  0.68882699  1
  O  O7  1  0.17984070  0.21891813  0.69194263  1
  O  O8  1  0.04248055  0.82228360  0.69208747  1
  O  O9  1  0.78676975  0.82085816  0.19128705  1
  O  O10  1  0.03808551  0.20310608  0.18831829  1
  O  O11  1  0.17741871  0.96226884  0.19151734  1
  O  O12  1  0.88622167  0.37805884  0.64119217  1
  O  O13  1  0.49619348  0.11998262  0.64475851  1
  O  O14  1  0.63144519  0.50879142  0.64216833  1
  O  O15  1  0.86744025  0.49942938  0.14374254  1
  O  O16  1  0.63029663  0.12631950  0.14076492  1
  O  O17  1  0.49560524  0.36287014  0.14119893  1
  O  O18  1  0.46850324  0.30657037  0.02450802  1
  O  O19  1  0.83210289  0.53276437  0.02141597  1
  O  O20  1  0.69296892  0.16130590  0.02433970  1
  O  O21  1  0.45523510  0.16422280  0.52242442  1
  O  O22  1  0.70065727  0.54397221  0.52537395  1
  O  O23  1  0.84497669  0.30054261  0.52516629  1
  O  O24  1  0.53161107  0.69567909  0.97512749  1
  O  O25  1  0.16481673  0.46304585  0.97479036  1
  O  O26  1  0.29415721  0.83439809  0.97732860  1
  O  O27  1  0.53122250  0.83582654  0.47465832  1
  O  O28  1  0.31123781  0.47378398  0.47498048  1
  O  O29  1  0.16451187  0.70070399  0.47700255  1
  O  O30  1  0.11500388  0.62450067  0.35429653  1
  O  O31  1  0.50942027  0.87090798  0.35751808  1
  O  O32  1  0.36914464  0.49133136  0.35799844  1
  O  O33  1  0.13498005  0.49701556  0.85896003  1
  O  O34  1  0.37231089  0.87356899  0.85607327  1
  O  O35  1  0.50270244  0.63294391  0.85919755  1
  O  O36  1  0.02201735  0.84457811  0.41197307  1
  O  O37  1  0.80400347  0.97138236  0.41462615  1
  O  O38  1  0.16668621  0.19821666  0.41485578  1
  O  O39  1  0.02612617  0.19381630  0.91155525  1
  O  O40  1  0.15745783  0.98110012  0.90960439  1
  O  O41  1  0.80422702  0.83187280  0.91194186  1
  O  O42  1  0.97976962  0.17053292  0.58836754  1
  O  O43  1  0.17625090  0.01656982  0.58901231  1
  O  O44  1  0.82718882  0.80914660  0.58724250  1
  O  O45  1  0.97900420  0.81939481  0.08713492  1
  O  O46  1  0.82997017  0.02712975  0.08598572  1
  O  O47  1  0.19758660  0.17219149  0.08531187  1
  O  O48  1  0.69375154  0.17591860  0.74835712  1
  O  O49  1  0.47579589  0.31734173  0.74779160  1
  O  O50  1  0.83270439  0.52749318  0.74633817  1
  O  O51  1  0.68070632  0.51721397  0.24254621  1
  O  O52  1  0.82082093  0.30716453  0.24379217  1
  O  O53  1  0.47887426  0.17196667  0.24097784  1
  O  O54  1  0.64085231  0.50161831  0.92179702  1
  O  O55  1  0.86270823  0.36062175  0.92186471  1
  O  O56  1  0.50909715  0.15738436  0.92370756  1
  O  O57  1  0.63918721  0.13692520  0.42128234  1
  O  O58  1  0.49704954  0.35727423  0.42114130  1
  O  O59  1  0.84234297  0.49140597  0.42280436  1
  O  O60  1  0.36617125  0.50402349  0.07692425  1
  O  O61  1  0.15175334  0.63884451  0.07732606  1
  O  O62  1  0.50086882  0.85747243  0.07654824  1
  O  O63  1  0.35611419  0.84390638  0.57735818  1
  O  O64  1  0.49703855  0.64007248  0.57654453  1
  O  O65  1  0.14922943  0.49802528  0.57577753  1
  O  O66  1  0.32374284  0.84352752  0.25446938  1
  O  O67  1  0.52334487  0.68872004  0.25557022  1
  O  O68  1  0.17360533  0.48441302  0.25253466  1
  O  O69  1  0.30622329  0.47747392  0.75969968  1
  O  O70  1  0.16223094  0.68237823  0.75864611  1
  O  O71  1  0.51414323  0.82183124  0.75664712  1
loop_
_geom_bond_atom_site_label_1
_geom_bond_atom_site_label_2
_geom_bond_distance
_geom_bond_site_symmetry_2
Na0 O52 2.360596 1_555
Na0 O66 2.395643 1_545
Na0 O67 2.411862 1_545
Na0 O53 2.527409 1_555
Na0 O31 2.545309 1_545
Na0 O16 2.633212 1_555
Na0 O2 2.770313 1_555
Na0 O9 2.829163 1_545
Na1 O68 2.365688 1_555
Na1 O53 2.401062 1_555
Na1 O51 2.444527 1_555
Na1 O67 2.475147 1_555
Na1 O17 2.589588 1_555
Na1 O32 2.590139 1_555
Na1 O10 2.786336 1_555
Na1 O0 2.797008 1_555
Na2 O68 2.425794 1_555
Na2 O52 2.460327 1_455
Na2 O30 2.475751 1_555
Na2 O51 2.485498 1_455
Na2 O66 2.517262 1_555
Na2 O15 2.546392 1_455
Na2 O1 2.811626 1_455
Na2 O11 2.837371 1_555
Na3 O71 2.355958 1_555
Na3 O50 2.381717 1_555
Na3 O49 2.435954 1_555
Na3 O69 2.516867 1_555
Na3 O14 2.549519 1_555
Na3 O35 2.625962 1_555
Na3 O6 2.781676 1_555
Na3 O4 2.883370 1_555
Na4 O48 2.344843 1_555
Na4 O69 2.389910 1_655
Na4 O70 2.439172 1_655
Na4 O50 2.516039 1_555
Na4 O33 2.587102 1_655
Na4 O12 2.604452 1_555
Na4 O7 2.813096 1_655
Na4 O5 2.841762 1_555
Na5 O71 2.445190 1_555
Na5 O48 2.453434 1_565
Na5 O49 2.473506 1_565
Na5 O70 2.473716 1_555
Na5 O13 2.512843 1_565
Na5 O34 2.520130 1_555
Na5 O8 2.826198 1_555
Na5 O3 2.899707 1_565
Na6 O43 2.397004 1_555
Na6 O64 2.411344 1_555
Na6 O42 2.459644 1_455
Na6 O65 2.464318 1_555
Na6 O7 2.566422 1_555
Na6 O28 2.616008 1_555
Na6 O21 2.744614 1_555
Na6 O14 2.837380 1_555
Na7 O43 2.400229 1_565
Na7 O44 2.450412 1_455
Na7 O63 2.451552 1_555
Na7 O65 2.467783 1_555
Na7 O29 2.517541 1_555
Na7 O8 2.582846 1_555
Na7 O12 2.796223 1_455
Na7 O22 2.836023 1_455
Na8 O63 2.389065 1_555
Na8 O42 2.434940 1_565
Na8 O44 2.445583 1_555
Na8 O6 2.472574 1_555
Na8 O64 2.511352 1_555
Na8 O27 2.682848 1_555
Na8 O13 2.751310 1_565
Na8 O23 2.868867 1_565
Na9 O47 2.408200 1_565
Na9 O45 2.412751 1_455
Na9 O62 2.413927 1_555
Na9 O61 2.460696 1_555
Na9 O26 2.484132 1_554
Na9 O11 2.590167 1_555
Na9 O16 2.876964 1_565
Na9 O18 2.906412 1_565
Na10 O60 2.368169 1_555
Na10 O45 2.373752 1_555
Na10 O46 2.489008 1_565
Na10 O62 2.498945 1_555
Na10 O9 2.571370 1_555
Na10 O24 2.588671 1_554
Na10 O19 2.826319 1_555
Na10 O17 2.882767 1_555
Na11 O61 2.350106 1_555
Na11 O46 2.391846 1_455
Na11 O10 2.480505 1_555
Na11 O47 2.483500 1_555
Na11 O60 2.538953 1_555
Na11 O25 2.654439 1_554
Na11 O15 2.817501 1_455
Na11 O20 2.936199 1_455
Na12 O40 2.398223 1_655
Na12 O55 2.404096 1_555
Na12 O19 2.484580 1_556
Na12 O41 2.503239 1_555
Na12 O54 2.514722 1_555
Na12 O4 2.651996 1_555
Na12 O26 2.763612 1_655
Na12 O33 2.903093 1_655
Na13 O56 2.396518 1_555
Na13 O41 2.406997 1_545
Na13 O55 2.495260 1_555
Na13 O39 2.518935 1_655
Na13 O5 2.536622 1_555
Na13 O20 2.633460 1_556
Na13 O34 2.769289 1_545
Na13 O24 2.905219 1_545
Na14 O54 2.392431 1_555
Na14 O39 2.396600 1_555
Na14 O56 2.411121 1_555
Na14 O40 2.418566 1_545
Na14 O18 2.574119 1_556
Na14 O3 2.599897 1_555
Na14 O25 2.843665 1_555
Na14 O35 2.854400 1_555
Na15 O38 2.384307 1_655
Na15 O59 2.400972 1_555
Na15 O57 2.482979 1_555
Na15 O2 2.489400 1_555
Na15 O37 2.521778 1_545
Na15 O23 2.615172 1_555
Na15 O30 2.772240 1_655
Na16 O36 2.377787 1_545
Na16 O57 2.403668 1_555
Na16 O21 2.479290 1_555
Na16 O58 2.481917 1_555
Na16 O38 2.517171 1_555
Na16 O0 2.610824 1_555
Na16 O29 2.812725 1_545
Na16 O31 2.925513 1_545
Na17 O37 2.378986 1_555
Na17 O59 2.398303 1_555
Na17 O58 2.402061 1_555
Na17 O36 2.439731 1_655
Na17 O1 2.559918 1_555
Na17 O22 2.562559 1_555
Na17 O32 2.852467 1_555
Na17 O27 2.896534 1_555
Na18 O36 2.383674 1_555
Na18 O43 2.400292 1_565
Na18 O38 2.449990 1_565
Na18 O44 2.466069 1_455
Na18 O37 2.469355 1_455
Na18 O42 2.495789 1_465
Na19 O45 2.383254 1_456
Na19 O40 2.414347 1_555
Na19 O47 2.460877 1_566
Na19 O46 2.490141 1_466
Na19 O41 2.490488 1_455
Na19 O39 2.507078 1_565
Na20 O48 2.367090 1_555
Na20 O56 2.399043 1_555
Na20 O49 2.465197 1_555
Na20 O55 2.486085 1_555
Na20 O54 2.497235 1_555
Na20 O50 2.500090 1_555
Na21 O59 2.399566 1_555
Na21 O52 2.404463 1_555
Na21 O57 2.488271 1_555
Na21 O51 2.502909 1_555
Na21 O58 2.507085 1_555
Na21 O53 2.545749 1_555
Na22 O68 2.370806 1_555
Na22 O61 2.395934 1_555
Na22 O66 2.489969 1_555
Na22 O60 2.490359 1_555
Na22 O62 2.519933 1_555
Na22 O67 2.521495 1_555
Na23 O63 2.398991 1_555
Na23 O71 2.402763 1_555
Na23 O64 2.499749 1_555
Na23 O70 2.525822 1_555
Na23 O65 2.541420 1_555
Na23 O69 2.555612 1_555
Al0 O5 1.826251 1_455
Al0 O3 1.904908 1_555
Al0 O40 1.907469 1_545
Al0 O4 1.918595 1_445
Al0 O39 2.037252 1_555
Al0 O41 2.068347 1_445
Al1 O15 1.816611 1_555
Al1 O52 1.914061 1_555
Al1 O16 1.919154 1_555
Al1 O17 1.952342 1_555
Al1 O53 2.006296 1_555
Al1 O51 2.015217 1_555
Al2 O19 1.839134 1_556
Al2 O18 1.879769 1_556
Al2 O20 1.903230 1_556
Al2 O56 1.928936 1_555
Al2 O54 2.039471 1_555
Al2 O55 2.067927 1_555
Al3 O26 1.828107 1_554
Al3 O61 1.902439 1_555
Al3 O25 1.904698 1_554
Al3 O24 1.946708 1_554
Al3 O62 2.033320 1_555
Al3 O60 2.095767 1_555
Al4 O29 1.825010 1_555
Al4 O27 1.885121 1_555
Al4 O63 1.890633 1_555
Al4 O28 1.920993 1_555
Al4 O65 1.991701 1_555
Al4 O64 2.062972 1_555
Al5 O34 1.824878 1_555
Al5 O35 1.901128 1_555
Al5 O71 1.907981 1_555
Al5 O33 1.943705 1_555
Al5 O70 2.018645 1_555
Al5 O69 2.028980 1_555
Ga0 O2 1.890036 1_565
Ga0 O36 1.964422 1_655
Ga0 O1 1.989865 1_555
Ga0 O0 2.002558 1_665
Ga0 O37 2.117503 1_555
Ga0 O38 2.142842 1_665
Ga1 O6 1.890591 1_455
Ga1 O43 1.973887 1_565
Ga1 O8 1.977775 1_555
Ga1 O7 1.994258 1_565
Ga1 O42 2.097636 1_465
Ga1 O44 2.107112 1_455
Ga2 O10 1.884384 1_565
Ga2 O11 1.970816 1_555
Ga2 O45 1.973878 1_455
Ga2 O9 1.980856 1_455
Ga2 O47 2.122205 1_565
Ga2 O46 2.123121 1_465
Ga3 O13 1.873199 1_555
Ga3 O48 1.978936 1_555
Ga3 O12 1.988769 1_555
Ga3 O14 2.028328 1_555
Ga3 O50 2.122102 1_555
Ga3 O49 2.130857 1_555
Ga4 O21 1.895882 1_555
Ga4 O22 1.954061 1_555
Ga4 O59 1.968903 1_555
Ga4 O23 1.974645 1_555
Ga4 O58 2.074189 1_555
Ga4 O57 2.091752 1_555
Ga5 O30 1.874662 1_555
Ga5 O32 1.944913 1_555
Ga5 O68 1.971306 1_555
Ga5 O31 1.994702 1_555
Ga5 O66 2.092337 1_555
Ga5 O67 2.113011 1_555
O0 P0 1.547400 1_555
O1 P1 1.547841 1_555
O2 Si0 1.642930 1_555
O3 P2 1.541550 1_555
O4 P3 1.542228 1_655
O5 Si1 1.627507 1_545
O6 Si1 1.641189 1_555
O7 P2 1.550072 1_555
O8 P3 1.550064 1_555
O9 P1 1.543077 1_555
O10 Si0 1.635403 1_455
O11 P0 1.542385 1_565
O12 P4 1.554284 1_555
O13 Si2 1.636884 1_555
O14 P5 1.554790 1_555
O15 Si3 1.630980 1_555
O16 P6 1.552358 1_555
O17 P7 1.551410 1_555
O18 P7 1.541262 1_555
O19 Si3 1.632648 1_555
O20 P6 1.543158 1_555
O21 Si2 1.633054 1_555
O22 P5 1.539117 1_555
O23 P4 1.539382 1_555
O24 P8 1.547426 1_555
O25 P9 1.546992 1_555
O26 Si4 1.631810 1_555
O27 P10 1.542672 1_555
O28 P11 1.544617 1_555
O29 Si5 1.624623 1_555
O30 Si5 1.633737 1_555
O31 P10 1.549919 1_555
O32 P11 1.548814 1_555
O33 P9 1.548180 1_555
O34 Si4 1.632374 1_555
O35 P8 1.548792 1_555
O36 Si5 1.652889 1_555
O37 P10 1.550058 1_555
O38 P11 1.551217 1_555
O39 P9 1.559536 1_555
O40 Si4 1.658677 1_555
O41 P8 1.560480 1_555
O42 P4 1.547972 1_555
O43 Si2 1.650069 1_555
O44 P5 1.549651 1_555
O45 Si3 1.662369 1_555
O46 P6 1.553634 1_555
O47 P7 1.554218 1_555
O48 Si1 1.657261 1_545
O49 P2 1.556429 1_555
O50 P3 1.557362 1_655
O51 P1 1.556816 1_555
O52 Si0 1.646759 1_555
O53 P0 1.554781 1_555
O54 P8 1.558547 1_555
O55 P9 1.560478 1_655
O56 Si4 1.655630 1_545
O57 P10 1.552883 1_545
O58 P11 1.547571 1_555
O59 Si5 1.646675 1_655
O60 P7 1.559231 1_555
O61 Si3 1.653043 1_455
O62 P6 1.559600 1_565
O63 Si2 1.643445 1_565
O64 P5 1.555771 1_555
O65 P4 1.555392 1_455
O66 P0 1.554832 1_565
O67 P1 1.551314 1_555
O68 Si0 1.650106 1_455
O69 P2 1.553560 1_555
O70 P3 1.554286 1_555
O71 Si1 1.649538 1_555
