# generated using pymatgen
data_Ho2Si3Pd
_symmetry_space_group_name_H-M   'P 1'
_cell_length_a   8.09909508
_cell_length_b   8.09915026
_cell_length_c   8.06652770
_cell_angle_alpha   90.00004641
_cell_angle_beta   90.00022925
_cell_angle_gamma   120.00010766
_symmetry_Int_Tables_number   1
_chemical_formula_structural   Ho2Si3Pd
_chemical_formula_sum   'Ho8 Si12 Pd4'
_cell_volume   458.23973353
_cell_formula_units_Z   4
loop_
 _symmetry_equiv_pos_site_id
 _symmetry_equiv_pos_as_xyz
  1  'x, y, z'
loop_
 _atom_site_type_symbol
 _atom_site_label
 _atom_site_symmetry_multiplicity
 _atom_site_fract_x
 _atom_site_fract_y
 _atom_site_fract_z
 _atom_site_occupancy
  Ho  Ho0  1  0.50022241  0.00044900  0.25000034  1
  Ho  Ho1  1  0.49977448  -0.00044686  0.75000281  1
  Ho  Ho2  1  -0.00044791  0.49977353  0.24999836  1
  Ho  Ho3  1  0.00044650  0.50022399  0.74999986  1
  Ho  Ho4  1  0.50021919  0.49977326  0.25000116  1
  Ho  Ho5  1  0.49976731  0.50022039  0.74999967  1
  Ho  Ho6  1  0.00002752  0.00001606  0.24998155  1
  Ho  Ho7  1  0.00000788  0.00000433  0.75001555  1
  Si  Si0  1  0.16583308  0.33166687  0.00017282  1
  Si  Si1  1  0.83416227  0.66832851  -0.00017524  1
  Si  Si2  1  0.66832942  0.83416258  0.00017133  1
  Si  Si3  1  0.83416542  0.66833460  0.50017741  1
  Si  Si4  1  0.33166795  0.16583307  -0.00017090  1
  Si  Si5  1  0.16583019  0.33166349  0.49982749  1
  Si  Si6  1  0.16583038  0.83416277  0.00017432  1
  Si  Si7  1  0.33166617  0.16583373  0.50017084  1
  Si  Si8  1  0.83416489  0.16583257  -0.00017435  1
  Si  Si9  1  0.66833181  0.83416535  0.49982764  1
  Si  Si10  1  0.83416532  0.16583203  0.50017621  1
  Si  Si11  1  0.16583145  0.83416604  0.49982501  1
  Pd  Pd0  1  0.33332990  0.66666528  0.00122384  1
  Pd  Pd1  1  0.66666838  0.33333490  0.99877598  1
  Pd  Pd2  1  0.66666455  0.33333192  0.50122065  1
  Pd  Pd3  1  0.33334144  0.66667160  0.49877665  1
loop_
_geom_bond_atom_site_label_1
_geom_bond_atom_site_label_2
_geom_bond_distance
_geom_bond_site_symmetry_2
Ho0 Pd3 3.083510 1_545
Ho0 Pd0 3.083535 1_545
Ho0 Pd2 3.091626 1_555
Ho0 Pd1 3.091673 1_554
Ho0 Si4 3.091717 1_555
Ho0 Si7 3.091732 1_555
Ho0 Si10 3.091751 1_555
Ho0 Si8 3.091758 1_555
Ho0 Si6 3.092280 1_545
Ho0 Si11 3.092283 1_545
Ho0 Si9 3.092306 1_545
Ho0 Si2 3.092323 1_545
Ho1 Pd1 3.083507 1_555
Ho1 Pd2 3.083548 1_555
Ho1 Pd3 3.091650 1_545
Ho1 Pd0 3.091666 1_546
Ho1 Si2 3.091739 1_546
Ho1 Si6 3.091749 1_546
Ho1 Si11 3.091761 1_545
Ho1 Si9 3.091778 1_545
Ho1 Si8 3.092255 1_556
Ho1 Si4 3.092272 1_556
Ho1 Si10 3.092293 1_555
Ho1 Si7 3.092309 1_555
Ho2 Pd0 3.083494 1_555
Ho2 Pd3 3.083559 1_555
Ho2 Pd1 3.091626 1_454
Ho2 Pd2 3.091662 1_455
Ho2 Si8 3.091739 1_455
Ho2 Si1 3.091763 1_455
Ho2 Si10 3.091778 1_455
Ho2 Si3 3.091813 1_455
Ho2 Si0 3.092274 1_555
Ho2 Si6 3.092280 1_555
Ho2 Si5 3.092290 1_555
Ho2 Si11 3.092301 1_555
Ho3 Pd1 3.083504 1_455
Ho3 Pd2 3.083525 1_455
Ho3 Pd0 3.091633 1_556
Ho3 Pd3 3.091706 1_555
Ho3 Si6 3.091736 1_556
Ho3 Si0 3.091754 1_556
Ho3 Si5 3.091759 1_555
Ho3 Si11 3.091766 1_555
Ho3 Si3 3.092274 1_455
Ho3 Si1 3.092276 1_456
Ho3 Si10 3.092282 1_455
Ho3 Si8 3.092301 1_456
Ho4 Pd3 3.083494 1_555
Ho4 Pd0 3.083525 1_555
Ho4 Pd2 3.091641 1_555
Ho4 Pd1 3.091681 1_554
Ho4 Si7 3.091725 1_555
Ho4 Si4 3.091731 1_555
Ho4 Si1 3.091770 1_555
Ho4 Si3 3.091770 1_555
Ho4 Si0 3.092261 1_555
Ho4 Si5 3.092281 1_555
Ho4 Si9 3.092298 1_555
Ho4 Si2 3.092311 1_555
Ho5 Pd1 3.083548 1_555
Ho5 Pd2 3.083563 1_555
Ho5 Pd3 3.091608 1_555
Ho5 Pd0 3.091648 1_556
Ho5 Si5 3.091701 1_555
Ho5 Si0 3.091706 1_556
Ho5 Si2 3.091740 1_556
Ho5 Si9 3.091766 1_555
Ho5 Si7 3.092281 1_555
Ho5 Si1 3.092291 1_556
Ho5 Si4 3.092298 1_556
Ho5 Si3 3.092308 1_555
Ho6 Si0 3.077647 1_555
Ho6 Si6 3.077662 1_545
Ho6 Si5 3.077816 1_555
Ho6 Si11 3.077836 1_545
Ho6 Si2 3.077881 1_445
Ho6 Si9 3.078073 1_445
Ho6 Si4 3.079399 1_555
Ho6 Si7 3.079569 1_555
Ho6 Si8 3.079621 1_455
Ho6 Si1 3.079671 1_445
Ho6 Si10 3.079826 1_455
Ho6 Si3 3.079855 1_445
Ho7 Si4 3.077697 1_556
Ho7 Si8 3.077757 1_456
Ho7 Si1 3.077782 1_446
Ho7 Si7 3.077868 1_555
Ho7 Si3 3.077893 1_445
Ho7 Si10 3.077901 1_455
Ho7 Si0 3.079541 1_556
Ho7 Si6 3.079556 1_546
Ho7 Si2 3.079618 1_446
Ho7 Si5 3.079696 1_555
Ho7 Si11 3.079718 1_545
Ho7 Si9 3.079760 1_445
Si0 Si8 2.326327 1_455
Si0 Si4 2.326342 1_555
Si1 Si6 2.326327 1_655
Si1 Si2 2.326330 1_555
Si2 Si8 2.326356 1_565
Si3 Si9 2.326312 1_555
Si4 Si6 2.326358 1_545
Si5 Si7 2.326322 1_555
Si10 Si5 2.326304 1_655
Si10 Si9 2.326332 1_545
Si11 Si3 2.326312 1_455
Si11 Si7 2.326339 1_565
Pd0 Si6 2.349701 1_555
Pd0 Si2 2.349707 1_555
Pd0 Si0 2.349715 1_555
Pd1 Si1 2.349681 1_556
Pd1 Si4 2.349713 1_556
Pd1 Si8 2.349714 1_556
Pd2 Si7 2.349699 1_555
Pd2 Si10 2.349726 1_555
Pd2 Si3 2.349745 1_555
Pd3 Si9 2.349643 1_555
Pd3 Si11 2.349753 1_555
Pd3 Si5 2.349783 1_555
