# generated using pymatgen
data_MgV4As2O13
_symmetry_space_group_name_H-M   'P 1'
_cell_length_a   5.39787067
_cell_length_b   5.18610409
_cell_length_c   9.14779660
_cell_angle_alpha   86.93211876
_cell_angle_beta   79.87887555
_cell_angle_gamma   81.90266852
_symmetry_Int_Tables_number   1
_chemical_formula_structural   MgV4As2O13
_chemical_formula_sum   'Mg1 V4 As2 O13'
_cell_volume   249.47553960
_cell_formula_units_Z   1
loop_
 _symmetry_equiv_pos_site_id
 _symmetry_equiv_pos_as_xyz
  1  'x, y, z'
loop_
 _atom_site_type_symbol
 _atom_site_label
 _atom_site_symmetry_multiplicity
 _atom_site_fract_x
 _atom_site_fract_y
 _atom_site_fract_z
 _atom_site_occupancy
  Mg  Mg0  1  0.74623100  0.56619100  0.54170400  1
  V  V0  1  0.96745200  0.11582200  0.34539100  1
  V  V1  1  0.60044300  0.73838000  0.27529500  1
  V  V2  1  0.73064800  0.98911800  0.69387000  1
  V  V3  1  0.43924600  0.49732400  0.93322400  1
  As  As0  1  0.22769700  0.41916100  0.60454100  1
  As  As1  1  0.00275400  0.03598900  0.99566400  1
  O  O0  1  0.88192300  0.46954400  0.31645900  1
  O  O1  1  0.26895400  0.93941500  0.31143200  1
  O  O2  1  0.71320900  0.93332800  0.46398500  1
  O  O3  1  0.58047500  0.68757600  0.75671500  1
  O  O4  1  0.54498100  0.58894300  0.08372600  1
  O  O5  1  0.39394000  0.25354500  0.73453000  1
  O  O6  1  0.78331100  0.16614300  0.88403600  1
  O  O7  1  0.11431500  0.72506500  0.94335000  1
  O  O8  1  0.82037900  0.00114700  0.17559800  1
  O  O9  1  0.99170100  0.23514300  0.56973100  1
  O  O10  1  0.05235300  0.71210600  0.63939000  1
  O  O11  1  0.45260600  0.46206900  0.45388300  1
  O  O12  1  0.22249900  0.21919100  0.02787800  1
loop_
_geom_bond_atom_site_label_1
_geom_bond_atom_site_label_2
_geom_bond_distance
_geom_bond_site_symmetry_2
Mg0 O2 1.991614 1_555
Mg0 O11 2.045508 1_555
Mg0 O9 2.049488 1_555
Mg0 O3 2.102567 1_555
Mg0 O0 2.123686 1_555
Mg0 O10 2.246161 1_655
As0 O10 1.687090 1_555
As0 O11 1.696473 1_555
As0 O5 1.733648 1_555
As0 O9 1.775526 1_455
As1 O12 1.693163 1_556
As1 O7 1.702799 1_545
As1 O6 1.739989 1_455
As1 O8 1.777599 1_456
O0 V0 1.844112 1_555
O0 V1 1.985524 1_555
O1 V0 1.736498 1_465
O1 V1 1.923915 1_555
O2 V0 1.920629 1_565
O2 V2 2.158080 1_555
O2 V1 2.258653 1_555
O3 V2 1.878897 1_555
O3 V3 1.941796 1_555
O4 V3 1.693981 1_554
O4 V1 2.038723 1_555
O5 V2 2.106449 1_545
O5 V3 2.334776 1_555
O6 V2 2.090009 1_545
O6 V3 2.343517 1_555
O7 V3 1.962364 1_555
O8 V1 2.010078 1_545
O8 V0 2.015371 1_555
O9 V2 2.166144 1_545
O9 V0 2.205632 1_555
O10 V2 2.097004 1_455
O11 V1 2.229919 1_555
O12 V3 2.045691 1_554
