# generated using pymatgen
data_Sr2CoO4
_symmetry_space_group_name_H-M   'P 1'
_cell_length_a   5.39381359
_cell_length_b   6.83085370
_cell_length_c   10.24209688
_cell_angle_alpha   75.46373024
_cell_angle_beta   89.99665181
_cell_angle_gamma   89.99599342
_symmetry_Int_Tables_number   1
_chemical_formula_structural   Sr2CoO4
_chemical_formula_sum   'Sr8 Co4 O16'
_cell_volume   365.28361729
_cell_formula_units_Z   4
loop_
 _symmetry_equiv_pos_site_id
 _symmetry_equiv_pos_as_xyz
  1  'x, y, z'
loop_
 _atom_site_type_symbol
 _atom_site_label
 _atom_site_symmetry_multiplicity
 _atom_site_fract_x
 _atom_site_fract_y
 _atom_site_fract_z
 _atom_site_occupancy
  Sr  Sr0  1  0.00027016  0.46696344  0.82305129  1
  Sr  Sr1  1  0.50091832  0.21799126  0.07194193  1
  Sr  Sr2  1  0.00026949  0.96712680  0.32285946  1
  Sr  Sr3  1  0.49982440  0.71783720  0.57217364  1
  Sr  Sr4  1  0.50065822  0.78292881  0.92711634  1
  Sr  Sr5  1  0.00079486  0.53201086  0.17809490  1
  Sr  Sr6  1  0.49997348  0.28301358  0.42698988  1
  Sr  Sr7  1  0.00002251  0.03207653  0.67783828  1
  Co  Co0  1  0.50088313  0.25074324  0.74925100  1
  Co  Co1  1  0.00073606  0.49925280  0.50079591  1
  Co  Co2  1  0.00165081  0.99918190  0.00071907  1
  Co  Co3  1  0.50145334  0.75085574  0.24923881  1
  O  O0  1  -0.00010293  0.76231369  0.92169306  1
  O  O1  1  0.49937095  0.51364600  0.17047789  1
  O  O2  1  0.99917577  0.26246770  0.42156288  1
  O  O3  1  0.49846732  0.01380955  0.67035329  1
  O  O4  1  0.49948177  0.48748452  0.82840236  1
  O  O5  1  -0.00054003  0.23631710  0.07955874  1
  O  O6  1  0.49957833  0.98777969  0.32816566  1
  O  O7  1  0.99848684  0.73615026  0.57979453  1
  O  O8  1  0.23208153  0.11502661  0.88509103  1
  O  O9  1  0.76827604  0.88389168  0.11600969  1
  O  O10  1  0.23141966  0.61516340  0.38524414  1
  O  O11  1  0.76753171  0.38374013  0.61592380  1
  O  O12  1  0.26753734  0.36625081  0.63413096  1
  O  O13  1  0.73181139  0.13480171  0.86463685  1
  O  O14  1  0.26837736  0.86610658  0.13394321  1
  O  O15  1  0.73159314  0.63506741  0.36494138  1
loop_
_geom_bond_atom_site_label_1
_geom_bond_atom_site_label_2
_geom_bond_distance
_geom_bond_site_symmetry_2
Co0 O13 1.762255 1_555
Co0 O12 1.769158 1_555
Co0 O3 1.982194 1_555
Co0 O4 1.982549 1_555
Co0 O11 2.033676 1_555
Co0 O8 2.061484 1_555
Co1 O10 1.762193 1_555
Co1 O11 1.768650 1_455
Co1 O7 1.982592 1_455
Co1 O2 1.983342 1_455
Co1 O12 2.034336 1_555
Co1 O15 2.063074 1_455
Co2 O8 1.761541 1_564
Co2 O9 1.769807 1_455
Co2 O0 1.982568 1_554
Co2 O5 1.983085 1_565
Co2 O14 2.033556 1_555
Co2 O13 2.066656 1_464
Co3 O15 1.760773 1_555
Co3 O14 1.768634 1_555
Co3 O6 1.982297 1_555
Co3 O1 1.983058 1_555
Co3 O9 2.033853 1_555
Co3 O10 2.067067 1_555
O0 Sr0 2.472685 1_555
O0 Sr4 2.697768 1_455
O0 Sr5 2.701369 1_556
O0 Sr4 2.705990 1_555
O0 Sr7 2.706143 1_565
O1 Sr1 2.473944 1_555
O1 Sr5 2.694180 1_555
O1 Sr4 2.700879 1_554
O1 Sr6 2.703060 1_555
O1 Sr5 2.709539 1_655
O2 Sr2 2.473020 1_645
O2 Sr6 2.697545 1_555
O2 Sr7 2.700503 1_655
O2 Sr5 2.702504 1_655
O2 Sr6 2.706161 1_655
O3 Sr3 2.473701 1_545
O3 Sr7 2.693382 1_555
O3 Sr6 2.700655 1_555
O3 Sr4 2.705782 1_545
O3 Sr7 2.710155 1_655
O4 Sr4 2.473737 1_555
O4 Sr0 2.697585 1_555
O4 Sr3 2.700016 1_555
O4 Sr1 2.702899 1_556
O4 Sr0 2.706049 1_655
O5 Sr5 2.474188 1_555
O5 Sr1 2.694006 1_455
O5 Sr2 2.700122 1_545
O5 Sr0 2.703055 1_554
O5 Sr1 2.709683 1_555
O6 Sr6 2.473103 1_565
O6 Sr2 2.698145 1_555
O6 Sr1 2.699656 1_565
O6 Sr2 2.705561 1_655
O6 Sr3 2.707874 1_555
O7 Sr7 2.472565 1_665
O7 Sr3 2.694654 1_555
O7 Sr0 2.699786 1_655
O7 Sr2 2.707449 1_655
O7 Sr3 2.709030 1_655
O8 Sr1 2.633611 1_556
O8 Sr4 2.634287 1_545
O8 Sr0 2.641844 1_555
O8 Sr7 2.645339 1_555
O9 Sr4 2.640538 1_554
O9 Sr1 2.640874 1_565
O9 Sr2 2.642448 1_655
O9 Sr5 2.643332 1_655
O10 Sr3 2.632075 1_555
O10 Sr6 2.634663 1_555
O10 Sr2 2.640357 1_555
O10 Sr5 2.641354 1_555
O11 Sr6 2.639976 1_555
O11 Sr7 2.641980 1_655
O11 Sr3 2.642041 1_555
O11 Sr0 2.646753 1_655
O12 Sr0 2.638789 1_555
O12 Sr3 2.641140 1_555
O12 Sr7 2.642074 1_555
O12 Sr6 2.645983 1_555
O13 Sr7 2.630416 1_655
O13 Sr0 2.634684 1_655
O13 Sr4 2.639976 1_545
O13 Sr1 2.643354 1_556
O14 Sr5 2.641620 1_555
O14 Sr2 2.642169 1_555
O14 Sr4 2.642664 1_554
O14 Sr1 2.643525 1_565
O15 Sr2 2.634483 1_655
O15 Sr5 2.634764 1_655
O15 Sr6 2.642159 1_555
O15 Sr3 2.643752 1_555
