# generated using pymatgen
data_Na6Ca8Nb4Si3(S5O24)3
_symmetry_space_group_name_H-M   'P 1'
_cell_length_a   9.11424058
_cell_length_b   9.10658357
_cell_length_c   23.76516703
_cell_angle_alpha   89.90529194
_cell_angle_beta   90.06008004
_cell_angle_gamma   119.85182350
_symmetry_Int_Tables_number   1
_chemical_formula_structural   Na6Ca8Nb4Si3(S5O24)3
_chemical_formula_sum   'Na6 Ca8 Nb4 Si3 S15 O72'
_cell_volume   1710.77691533
_cell_formula_units_Z   1
loop_
 _symmetry_equiv_pos_site_id
 _symmetry_equiv_pos_as_xyz
  1  'x, y, z'
loop_
 _atom_site_type_symbol
 _atom_site_label
 _atom_site_symmetry_multiplicity
 _atom_site_fract_x
 _atom_site_fract_y
 _atom_site_fract_z
 _atom_site_occupancy
  Na  Na0  1  0.98832268  0.98457872  0.49207868  1
  Na  Na1  1  0.00410926  0.01626616  0.99780641  1
  Na  Na2  1  0.66438284  0.33001042  0.83006542  1
  Na  Na3  1  0.66830820  0.33630507  0.33223238  1
  Na  Na4  1  0.33332393  0.66134965  0.16989625  1
  Na  Na5  1  0.33845352  0.67166387  0.65873491  1
  Ca  Ca0  1  0.99570503  0.99791989  0.35202584  1
  Ca  Ca1  1  0.99814369  0.00244743  0.85128817  1
  Ca  Ca2  1  0.99778087  0.99829937  0.64423778  1
  Ca  Ca3  1  0.00015157  0.00122490  0.15211537  1
  Ca  Ca4  1  0.66550655  0.33103053  0.68346709  1
  Ca  Ca5  1  0.66696584  0.33467336  0.18855830  1
  Ca  Ca6  1  0.33261420  0.66360351  0.01884478  1
  Ca  Ca7  1  0.33554151  0.66885359  0.51877900  1
  Nb  Nb0  1  0.67543601  0.33503929  0.98121707  1
  Nb  Nb1  1  0.67364233  0.33284547  0.47628931  1
  Nb  Nb2  1  0.33072022  0.67500980  0.32217666  1
  Nb  Nb3  1  0.32097104  0.65685953  0.81648108  1
  Si  Si0  1  0.03761385  0.36949702  0.92017893  1
  Si  Si1  1  0.62839918  0.96245816  0.41997550  1
  Si  Si2  1  0.03949511  0.67003523  0.42058862  1
  S  S0  1  0.29802899  0.99110954  0.25209207  1
  S  S1  1  0.69132988  0.70129575  0.25190374  1
  S  S2  1  0.01077812  0.30857373  0.25185869  1
  S  S3  1  0.29878694  0.30400696  0.75270949  1
  S  S4  1  0.00508919  0.70173993  0.75271360  1
  S  S5  1  0.69291781  0.99183256  0.75288267  1
  S  S6  1  0.95364541  0.33171176  0.58133273  1
  S  S7  1  0.37810431  0.04607560  0.58169344  1
  S  S8  1  0.66715924  0.61984268  0.58161991  1
  S  S9  1  0.95494967  0.62436062  0.08200210  1
  S  S10  1  0.66897540  0.04615803  0.08195645  1
  S  S11  1  0.37876473  0.33131502  0.08144642  1
  S  S12  1  0.62099501  0.65828045  0.91699504  1
  S  S13  1  0.34067870  0.96222090  0.91703667  1
  S  S14  1  0.34066104  0.37917097  0.41735499  1
  O  O0  1  0.21858038  0.01429873  0.30150267  1
  O  O1  1  0.79670845  0.78221419  0.30076188  1
  O  O2  1  0.98752032  0.20503528  0.30122606  1
  O  O3  1  0.21888221  0.20328512  0.80248958  1
  O  O4  1  0.98611800  0.78094408  0.80294613  1
  O  O5  1  0.79677115  0.01424699  0.80220313  1
  O  O6  1  0.76044802  0.95938352  0.70121892  1
  O  O7  1  0.19843038  0.23973336  0.70131068  1
  O  O8  1  0.03816640  0.80230073  0.70140578  1
  O  O9  1  0.76282805  0.80034849  0.19940967  1
  O  O10  1  0.03538443  0.23440559  0.19955290  1
  O  O11  1  0.19933759  0.96278851  0.19988716  1
  O  O12  1  0.87426082  0.34831148  0.63272741  1
  O  O13  1  0.47154920  0.12504505  0.63386490  1
  O  O14  1  0.65475308  0.52752579  0.63390117  1
  O  O15  1  0.87303115  0.52402288  0.13182052  1
  O  O16  1  0.65214856  0.12804615  0.13195024  1
  O  O17  1  0.47480124  0.34539863  0.13222758  1
  O  O18  1  0.47930847  0.32101954  0.02972818  1
  O  O19  1  0.84173050  0.52221499  0.02936514  1
  O  O20  1  0.68051696  0.15917012  0.02906341  1
  O  O21  1  0.47488760  0.15472932  0.53141424  1
  O  O22  1  0.67801706  0.52290586  0.53105278  1
  O  O23  1  0.84334753  0.31988523  0.53011974  1
  O  O24  1  0.54965026  0.68619906  0.96740721  1
  O  O25  1  0.14540740  0.46427788  0.97258296  1
  O  O26  1  0.32081472  0.86572432  0.96759282  1
  O  O27  1  0.54415416  0.85122310  0.47345460  1
  O  O28  1  0.31579332  0.45094043  0.46779397  1
  O  O29  1  0.14347562  0.67994958  0.47374052  1
  O  O30  1  0.13883982  0.63598346  0.36212603  1
  O  O31  1  0.49427971  0.85863297  0.36254126  1
  O  O32  1  0.36769404  0.49272016  0.36562860  1
  O  O33  1  0.14312421  0.50390478  0.86211592  1
  O  O34  1  0.36679826  0.87699420  0.86559020  1
  O  O35  1  0.51015818  0.63446252  0.86587953  1
  O  O36  1  0.00727135  0.82157515  0.40969002  1
  O  O37  1  0.81709570  0.00782079  0.40926606  1
  O  O38  1  0.19997375  0.21029292  0.40697712  1
  O  O39  1  0.99923095  0.18247135  0.91054692  1
  O  O40  1  0.19469201  0.98497361  0.90845618  1
  O  O41  1  0.79221079  0.79816406  0.90793274  1
  O  O42  1  0.96062568  0.17308309  0.58120947  1
  O  O43  1  0.21069927  0.03677870  0.58215783  1
  O  O44  1  0.82390604  0.78770382  0.58173579  1
  O  O45  1  0.95951834  0.78748873  0.08002488  1
  O  O46  1  0.82590093  0.03858514  0.08023262  1
  O  O47  1  0.21248273  0.17500071  0.08011448  1
  O  O48  1  0.66578468  0.13817999  0.74805138  1
  O  O49  1  0.47251402  0.33495102  0.74793085  1
  O  O50  1  0.86379869  0.52748224  0.74788601  1
  O  O51  1  0.66834988  0.52869743  0.24662386  1
  O  O52  1  0.86269443  0.33404141  0.24645905  1
  O  O53  1  0.47170853  0.13599441  0.24658304  1
  O  O54  1  0.62949468  0.49487861  0.92270948  1
  O  O55  1  0.84335907  0.36185600  0.92860071  1
  O  O56  1  0.49992418  0.13628932  0.92207729  1
  O  O57  1  0.62989598  0.15140063  0.42775718  1
  O  O58  1  0.50300516  0.36970841  0.42205580  1
  O  O59  1  0.84619027  0.48703995  0.42791140  1
  O  O60  1  0.36451774  0.48401941  0.07627589  1
  O  O61  1  0.12204397  0.64229800  0.07585059  1
  O  O62  1  0.51852990  0.88124367  0.07474260  1
  O  O63  1  0.35943867  0.87658775  0.57902655  1
  O  O64  1  0.51525924  0.63624959  0.57857029  1
  O  O65  1  0.12219270  0.48012327  0.57719072  1
  O  O66  1  0.31271786  0.82955246  0.25922568  1
  O  O67  1  0.51647608  0.68269355  0.25947786  1
  O  O68  1  0.16989542  0.48158000  0.25859804  1
  O  O69  1  0.31698427  0.48420699  0.76257659  1
  O  O70  1  0.17035778  0.68819904  0.76159268  1
  O  O71  1  0.51709013  0.83285125  0.76364324  1
loop_
_geom_bond_atom_site_label_1
_geom_bond_atom_site_label_2
_geom_bond_distance
_geom_bond_site_symmetry_2
Na0 O36 2.516446 1_655
Na0 O37 2.583513 1_565
Na0 O44 2.705429 1_555
Na0 O42 2.818136 1_565
Na0 O43 2.819890 1_665
Na0 O38 2.843172 1_665
Na1 O39 2.578692 1_455
Na1 O47 2.605982 1_556
Na1 O46 2.617873 1_456
Na1 O45 2.732911 1_446
Na1 O40 2.847784 1_545
Na1 O41 2.902302 1_445
Na2 O48 2.623799 1_555
Na2 O49 2.634590 1_555
Na2 O50 2.663369 1_555
Na2 O56 2.739009 1_555
Na2 O54 2.773162 1_555
Na2 O55 2.784225 1_555
Na3 O51 2.682607 1_555
Na3 O52 2.708967 1_555
Na3 O58 2.717417 1_555
Na3 O53 2.726182 1_555
Na3 O59 2.733152 1_555
Na3 O57 2.741115 1_555
Na4 O68 2.628704 1_555
Na4 O67 2.650950 1_555
Na4 O66 2.680735 1_555
Na4 O60 2.847650 1_555
Na4 O61 2.897100 1_555
Na4 O62 2.932740 1_555
Na5 O63 2.596377 1_555
Na5 O64 2.618419 1_555
Na5 O65 2.695101 1_555
Na5 O70 2.929826 1_555
Na5 O71 2.940364 1_555
Na5 O69 2.949086 1_555
Ca0 O36 2.151504 1_655
Ca0 O37 2.158656 1_565
Ca0 O1 2.255863 1_555
Ca0 O2 2.269985 1_565
Ca0 O0 2.300683 1_665
Ca0 O38 2.308825 1_665
Ca1 O39 2.159274 1_555
Ca1 O5 2.220871 1_555
Ca1 O3 2.252186 1_655
Ca1 O4 2.277725 1_545
Ca1 O41 2.305818 1_545
Ca1 O40 2.314772 1_645
Ca2 O44 2.318315 1_555
Ca2 O43 2.322206 1_665
Ca2 O42 2.327964 1_565
Ca2 O8 2.410822 1_655
Ca2 O6 2.424831 1_555
Ca2 O7 2.453561 1_665
Ca3 O10 2.282881 1_555
Ca3 O11 2.309584 1_545
Ca3 O9 2.312467 1_445
Ca3 O46 2.467107 1_455
Ca3 O47 2.475191 1_555
Ca3 O45 2.480512 1_445
Ca4 O13 2.176027 1_555
Ca4 O14 2.183229 1_555
Ca4 O12 2.192018 1_555
Ca4 O48 2.331432 1_555
Ca4 O49 2.347474 1_555
Ca4 O50 2.365386 1_555
Ca5 O51 2.238782 1_555
Ca5 O17 2.243691 1_555
Ca5 O52 2.254080 1_555
Ca5 O15 2.256644 1_555
Ca5 O16 2.263571 1_555
Ca5 O53 2.265747 1_555
Ca6 O25 2.081892 1_554
Ca6 O24 2.246918 1_554
Ca6 O26 2.252201 1_554
Ca6 O60 2.255462 1_555
Ca6 O61 2.278195 1_555
Ca6 O62 2.285776 1_555
Ca7 O27 2.094836 1_555
Ca7 O29 2.095717 1_555
Ca7 O28 2.256207 1_555
Ca7 O64 2.295245 1_555
Ca7 O63 2.296584 1_555
Ca7 O65 2.309277 1_555
Nb0 O55 1.896458 1_555
Nb0 O20 1.981870 1_556
Nb0 O19 1.985658 1_556
Nb0 O18 2.077837 1_556
Nb0 O54 2.196871 1_555
Nb0 O56 2.220698 1_555
Nb1 O59 1.888609 1_555
Nb1 O57 1.889168 1_555
Nb1 O23 2.054259 1_555
Nb1 O22 2.151675 1_555
Nb1 O21 2.168309 1_555
Nb1 O58 2.169497 1_555
Nb2 O31 1.859936 1_555
Nb2 O30 1.862726 1_555
Nb2 O66 2.113791 1_555
Nb2 O32 2.118051 1_555
Nb2 O68 2.228930 1_555
Nb2 O67 2.231250 1_555
Nb3 O33 1.869438 1_555
Nb3 O70 2.013057 1_555
Nb3 O69 2.015972 1_555
Nb3 O71 2.118156 1_555
Nb3 O34 2.174493 1_555
Nb3 O35 2.176709 1_555
O0 S0 1.450046 1_545
O1 S1 1.452442 1_555
O2 S2 1.452000 1_655
O3 S3 1.450682 1_555
O4 S4 1.450068 1_655
O5 S5 1.455188 1_545
O6 S5 1.468835 1_555
O7 S3 1.462305 1_555
O8 S4 1.462374 1_555
O9 S1 1.485750 1_555
O10 S2 1.485204 1_555
O11 S0 1.477368 1_555
O12 S6 1.466124 1_555
O13 S7 1.473358 1_555
O14 S8 1.471562 1_555
O15 S9 1.453685 1_555
O16 S10 1.452031 1_555
O17 S11 1.457930 1_555
O18 S11 1.564444 1_555
O19 S9 1.593889 1_555
O20 S10 1.593276 1_555
O21 S7 1.521290 1_555
O22 S8 1.524453 1_555
O23 S6 1.547117 1_555
O24 S12 1.445691 1_555
O25 Si0 1.554996 1_555
O26 S13 1.444685 1_555
O27 Si1 1.566668 1_555
O28 S14 1.437365 1_555
O29 Si2 1.553886 1_555
O30 Si2 1.769164 1_555
O31 Si1 1.761090 1_555
O32 S14 1.543989 1_555
O33 Si0 1.775504 1_555
O34 S13 1.530215 1_555
O35 S12 1.524260 1_555
O36 Si2 1.568412 1_555
O37 Si1 1.576872 1_545
O38 S14 1.451757 1_555
O39 Si0 1.575920 1_655
O40 S13 1.458987 1_555
O41 S12 1.457778 1_555
O42 S6 1.477271 1_555
O43 S7 1.485496 1_555
O44 S8 1.484475 1_555
O45 S9 1.465934 1_555
O46 S10 1.466422 1_555
O47 S11 1.475310 1_555
O48 S5 1.475816 1_545
O49 S3 1.468166 1_555
O50 S4 1.468205 1_655
O51 S1 1.484243 1_555
O52 S2 1.484258 1_655
O53 S0 1.477968 1_545
O54 S12 1.533869 1_555
O55 Si0 1.748591 1_655
O56 S13 1.530861 1_545
O57 Si1 1.724123 1_545
O58 S14 1.528334 1_555
O59 Si2 1.728653 1_655
O60 S11 1.464560 1_555
O61 S9 1.456066 1_455
O62 S10 1.454411 1_565
O63 S7 1.467690 1_565
O64 S8 1.466276 1_555
O65 S6 1.459162 1_455
O66 S0 1.551258 1_555
O67 S1 1.527282 1_555
O68 S2 1.528649 1_555
O69 S3 1.582921 1_555
O70 S4 1.585189 1_555
O71 S5 1.555473 1_555
