# generated using pymatgen
data_Nd3Ge5
_symmetry_space_group_name_H-M   'P 1'
_cell_length_a   5.94741169
_cell_length_b   7.66584366
_cell_length_c   9.39232160
_cell_angle_alpha   82.98657825
_cell_angle_beta   71.63620066
_cell_angle_gamma   67.19172538
_symmetry_Int_Tables_number   1
_chemical_formula_structural   Nd3Ge5
_chemical_formula_sum   'Nd6 Ge10'
_cell_volume   374.62922193
_cell_formula_units_Z   2
loop_
 _symmetry_equiv_pos_site_id
 _symmetry_equiv_pos_as_xyz
  1  'x, y, z'
loop_
 _atom_site_type_symbol
 _atom_site_label
 _atom_site_symmetry_multiplicity
 _atom_site_fract_x
 _atom_site_fract_y
 _atom_site_fract_z
 _atom_site_occupancy
  Nd  Nd0  1  0.67110810  0.99066003  0.66385022  1
  Nd  Nd1  1  0.33808270  0.99052855  0.33632342  1
  Nd  Nd2  1  0.92456450  0.49051860  0.16331328  1
  Nd  Nd3  1  0.58503148  0.49056071  0.83647036  1
  Nd  Nd4  1  0.24880658  0.50229572  0.49995561  1
  Nd  Nd5  1  0.99862340  0.00256255  0.00014035  1
  Ge  Ge0  1  0.26292695  0.82923729  0.67455568  1
  Ge  Ge1  1  0.90784598  0.82923584  0.32563359  1
  Ge  Ge2  1  0.48380372  0.32939466  0.17456872  1
  Ge  Ge3  1  0.18701940  0.32937782  0.82523226  1
  Ge  Ge4  1  0.05199180  0.18169784  0.64547474  1
  Ge  Ge5  1  0.76628860  0.18176121  0.35469674  1
  Ge  Ge6  1  0.43959086  0.12063319  0.00003382  1
  Ge  Ge7  1  0.69000106  0.61962404  0.49997055  1
  Ge  Ge8  1  0.94895605  0.68170223  0.85400596  1
  Ge  Ge9  1  0.36956481  0.68180074  0.14577170  1
loop_
_geom_bond_atom_site_label_1
_geom_bond_atom_site_label_2
_geom_bond_distance
_geom_bond_site_symmetry_2
Ge0 Ge4 2.521204 1_565
Ge0 Ge7 2.564594 1_555
Ge0 Ge8 2.606815 1_455
Ge0 Nd0 3.095085 1_555
Ge0 Nd3 3.120657 1_555
Ge0 Nd5 3.151474 1_466
Ge0 Nd4 3.198660 1_555
Ge0 Nd1 3.224141 1_555
Ge0 Nd0 3.278121 1_455
Ge1 Ge5 2.521451 1_565
Ge1 Ge7 2.564479 1_555
Ge1 Ge9 2.609394 1_655
Ge1 Nd1 3.096639 1_555
Ge1 Nd2 3.122066 1_555
Ge1 Nd5 3.150748 1_565
Ge1 Nd4 3.197477 1_655
Ge1 Nd0 3.224232 1_555
Ge1 Nd1 3.275881 1_655
Ge2 Ge9 2.519355 1_555
Ge2 Ge6 2.560465 1_555
Ge2 Ge5 2.610539 1_555
Ge2 Nd2 3.099008 1_455
Ge2 Nd1 3.123987 1_545
Ge2 Nd4 3.148291 1_555
Ge2 Nd5 3.198481 1_555
Ge2 Nd3 3.222856 1_554
Ge2 Nd2 3.272950 1_555
Ge3 Ge8 2.518876 1_455
Ge3 Ge6 2.561513 1_556
Ge3 Ge4 2.608251 1_555
Ge3 Nd3 3.098084 1_555
Ge3 Nd0 3.121570 1_545
Ge3 Nd4 3.147556 1_555
Ge3 Nd5 3.200357 1_456
Ge3 Nd2 3.222612 1_456
Ge3 Nd3 3.274167 1_455
Ge4 Nd3 3.055641 1_455
Ge4 Nd1 3.076814 1_545
Ge4 Nd0 3.093513 1_445
Ge4 Nd4 3.111313 1_555
Ge4 Nd5 3.411388 1_456
Ge4 Nd0 3.448277 1_545
Ge5 Nd2 3.056405 1_555
Ge5 Nd0 3.076733 1_545
Ge5 Nd1 3.093618 1_645
Ge5 Nd4 3.111426 1_555
Ge5 Nd5 3.410588 1_555
Ge5 Nd1 3.449313 1_545
Ge6 Nd5 3.088014 1_455
Ge6 Nd5 3.089056 1_555
Ge6 Nd0 3.134308 1_544
Ge6 Nd1 3.135538 1_545
Ge6 Nd2 3.338052 1_455
Ge6 Nd3 3.339259 1_554
Ge7 Nd4 3.086123 1_555
Ge7 Nd4 3.088121 1_655
Ge7 Nd3 3.135201 1_555
Ge7 Nd2 3.136591 1_555
Ge7 Nd1 3.342669 1_555
Ge7 Nd0 3.344281 1_555
Ge8 Nd0 3.053232 1_555
Ge8 Nd2 3.077046 1_556
Ge8 Nd3 3.098569 1_555
Ge8 Nd5 3.108742 1_566
Ge8 Nd4 3.407113 1_655
Ge8 Nd3 3.442968 1_655
Ge9 Nd1 3.052688 1_555
Ge9 Nd3 3.077100 1_554
Ge9 Nd2 3.098999 1_555
Ge9 Nd5 3.107814 1_465
Ge9 Nd4 3.408608 1_555
Ge9 Nd2 3.443374 1_455
