# generated using pymatgen
data_Ba2PdO3
_symmetry_space_group_name_H-M   'P 1'
_cell_length_a   3.87948070
_cell_length_b   4.11501516
_cell_length_c   7.25913813
_cell_angle_alpha   106.46543703
_cell_angle_beta   105.49852122
_cell_angle_gamma   89.99999638
_symmetry_Int_Tables_number   1
_chemical_formula_structural   Ba2PdO3
_chemical_formula_sum   'Ba2 Pd1 O3'
_cell_volume   106.73201586
_cell_formula_units_Z   1
loop_
 _symmetry_equiv_pos_site_id
 _symmetry_equiv_pos_as_xyz
  1  'x, y, z'
loop_
 _atom_site_type_symbol
 _atom_site_label
 _atom_site_symmetry_multiplicity
 _atom_site_fract_x
 _atom_site_fract_y
 _atom_site_fract_z
 _atom_site_occupancy
  Ba  Ba0  1  0.64529001  0.64529001  0.29058102  1
  Ba  Ba1  1  0.35470999  0.35470999  0.70941898  1
  Pd  Pd0  1  0.00000000  0.00000000  0.00000000  1
  O  O0  1  0.84578506  0.84578506  0.69157111  1
  O  O1  1  0.15421494  0.15421494  0.30842889  1
  O  O2  1  0.00000000  0.50000000  0.00000000  1
loop_
_geom_bond_atom_site_label_1
_geom_bond_atom_site_label_2
_geom_bond_distance
_geom_bond_site_symmetry_2
Ba0 O0 2.680917 1_555
Ba0 O2 2.745335 1_555
Ba0 O2 2.745337 1_655
Ba0 O1 2.830219 1_555
Ba0 O1 2.830224 1_655
Ba0 O1 2.830224 1_565
Ba0 O1 2.830230 1_665
Ba1 O1 2.680917 1_555
Ba1 O2 2.745335 1_656
Ba1 O2 2.745337 1_556
Ba1 O0 2.830219 1_555
Ba1 O0 2.830224 1_455
Ba1 O0 2.830224 1_545
Ba1 O0 2.830230 1_445
O0 Pd0 2.062076 1_666
O1 Pd0 2.062076 1_555
O2 Pd0 2.057508 1_565
O2 Pd0 2.057508 1_555
