# generated using pymatgen
data_CaGe3P2(SO6)4
_symmetry_space_group_name_H-M   'P 1'
_cell_length_a   8.53013906
_cell_length_b   8.55123483
_cell_length_c   22.07221903
_cell_angle_alpha   89.82513221
_cell_angle_beta   90.01261301
_cell_angle_gamma   119.99081711
_symmetry_Int_Tables_number   1
_chemical_formula_structural   CaGe3P2(SO6)4
_chemical_formula_sum   'Ca3 Ge9 P6 S12 O72'
_cell_volume   1394.43808652
_cell_formula_units_Z   3
loop_
 _symmetry_equiv_pos_site_id
 _symmetry_equiv_pos_as_xyz
  1  'x, y, z'
loop_
 _atom_site_type_symbol
 _atom_site_label
 _atom_site_symmetry_multiplicity
 _atom_site_fract_x
 _atom_site_fract_y
 _atom_site_fract_z
 _atom_site_occupancy
  Ca  Ca0  1  0.99738480  0.00319378  0.36784294  1
  Ca  Ca1  1  0.67203206  0.33479392  0.69400261  1
  Ca  Ca2  1  0.66473770  0.33328124  0.18374808  1
  Ge  Ge0  1  0.00078584  0.00128651  0.86403434  1
  Ge  Ge1  1  0.99654592  0.00571903  0.64647532  1
  Ge  Ge2  1  0.01010841  0.00936730  0.14333940  1
  Ge  Ge3  1  0.65329624  0.32874070  0.97743950  1
  Ge  Ge4  1  0.67145631  0.31790226  0.48034619  1
  Ge  Ge5  1  0.33207419  0.66052586  0.01255549  1
  Ge  Ge6  1  0.33164239  0.66202560  0.52181071  1
  Ge  Ge7  1  0.34303406  0.67851337  0.30942065  1
  Ge  Ge8  1  0.32849721  0.66368626  0.82006339  1
  P  P0  1  0.96727365  0.33322361  0.58326592  1
  P  P1  1  0.36614269  0.33742948  0.07949119  1
  P  P2  1  0.61807620  0.65993041  0.91521548  1
  P  P3  1  0.03409739  0.37945700  0.91576151  1
  P  P4  1  0.33888234  0.95606223  0.91565801  1
  P  P5  1  0.59183306  0.95430937  0.42015863  1
  S  S0  1  0.27665878  0.97612913  0.25004286  1
  S  S1  1  0.70482346  0.72713938  0.24869040  1
  S  S2  1  0.02779425  0.30700409  0.25057643  1
  S  S3  1  0.26529429  0.29285256  0.75507986  1
  S  S4  1  0.02709223  0.73934849  0.75444166  1
  S  S5  1  0.70603386  0.97096268  0.75491348  1
  S  S6  1  0.36013460  0.03079312  0.58324211  1
  S  S7  1  0.67132473  0.63613914  0.58256725  1
  S  S8  1  0.97316555  0.63976354  0.07870810  1
  S  S9  1  0.66564405  0.02603997  0.07877589  1
  S  S10  1  0.37096396  0.40210754  0.42059877  1
  S  S11  1  0.03809838  0.63370102  0.41937630  1
  O  O0  1  0.19459755  0.99960426  0.30345669  1
  O  O1  1  0.80755291  0.80874865  0.30259163  1
  O  O2  1  -0.00066503  0.19974622  0.30410274  1
  O  O3  1  0.18231009  0.17826682  0.80920316  1
  O  O4  1  0.00078138  0.82532782  0.80843684  1
  O  O5  1  0.82467940  0.00309966  0.80756986  1
  O  O6  1  0.78645893  0.94306843  0.69698277  1
  O  O7  1  0.15413176  0.21118656  0.69820278  1
  O  O8  1  0.05628318  0.85021862  0.69712514  1
  O  O9  1  0.79075109  0.83794766  0.19097326  1
  O  O10  1  0.05477007  0.22263323  0.19322714  1
  O  O11  1  0.16860518  0.95390390  0.19201461  1
  O  O12  1  0.90148811  0.38215724  0.63837731  1
  O  O13  1  0.47012530  0.09943576  0.63681793  1
  O  O14  1  0.62740820  0.52698193  0.63665190  1
  O  O15  1  0.91221212  0.53546674  0.13376161  1
  O  O16  1  0.62779328  0.08903868  0.13424936  1
  O  O17  1  0.47296824  0.38250476  0.13628891  1
  O  O18  1  0.45629425  0.29011322  0.02455257  1
  O  O19  1  0.84839535  0.55421507  0.02576920  1
  O  O20  1  0.70926583  0.15448445  0.02611912  1
  O  O21  1  0.44112989  0.15400873  0.52911536  1
  O  O22  1  0.70902907  0.55479977  0.52876826  1
  O  O23  1  0.83437056  0.28652411  0.52696228  1
  O  O24  1  0.53813563  0.70978213  0.96871089  1
  O  O25  1  0.16646189  0.46239417  0.96828962  1
  O  O26  1  0.29337828  0.82716101  0.96928703  1
  O  O27  1  0.49613730  0.84202997  0.47708173  1
  O  O28  1  0.33619774  0.48113050  0.47547868  1
  O  O29  1  0.13955536  0.65025673  0.47587347  1
  O  O30  1  0.12117646  0.60512579  0.36406064  1
  O  O31  1  0.47772507  0.86853586  0.36097760  1
  O  O32  1  0.39426266  0.50984908  0.36476784  1
  O  O33  1  0.11100131  0.50401893  0.85826483  1
  O  O34  1  0.38381764  0.87799954  0.85832165  1
  O  O35  1  0.49080977  0.61092920  0.85873432  1
  O  O36  1  0.01523416  0.78857377  0.41728069  1
  O  O37  1  0.77772471  0.98268582  0.42035376  1
  O  O38  1  0.22518989  0.21879038  0.41824273  1
  O  O39  1  0.01284776  0.19011064  0.90630013  1
  O  O40  1  0.17189815  0.98061078  0.90741991  1
  O  O41  1  0.80812777  0.82676669  0.90580121  1
  O  O42  1  0.98008869  0.15762599  0.59158585  1
  O  O43  1  0.17858322  0.01724466  0.59044764  1
  O  O44  1  0.84034314  0.81714746  0.59031029  1
  O  O45  1  0.98925136  0.82219642  0.08579506  1
  O  O46  1  0.82923417  0.00382877  0.08519074  1
  O  O47  1  0.17366455  0.16353264  0.08685722  1
  O  O48  1  0.67932578  0.12402068  0.75036799  1
  O  O49  1  0.44462565  0.31835245  0.74948279  1
  O  O50  1  0.87007163  0.56210045  0.75038096  1
  O  O51  1  0.66749248  0.54429390  0.24244806  1
  O  O52  1  0.88577945  0.34958640  0.24231889  1
  O  O53  1  0.46236365  0.11707263  0.24349116  1
  O  O54  1  0.63918992  0.49440309  0.92590502  1
  O  O55  1  0.84855127  0.35943796  0.92831382  1
  O  O56  1  0.50738605  0.14140987  0.92520803  1
  O  O57  1  0.58966313  0.13579556  0.42577468  1
  O  O58  1  0.54972001  0.41077922  0.42859234  1
  O  O59  1  0.85970594  0.46177315  0.42376140  1
  O  O60  1  0.33730676  0.49656071  0.06329687  1
  O  O61  1  0.15724416  0.66851619  0.06594344  1
  O  O62  1  0.50622604  0.84685184  0.06559689  1
  O  O63  1  0.32344204  0.84337598  0.57255025  1
  O  O64  1  0.52011252  0.67447177  0.57219098  1
  O  O65  1  0.16364923  0.48622115  0.56953163  1
  O  O66  1  0.26533645  0.79196934  0.25335305  1
  O  O67  1  0.52780956  0.73147344  0.25191831  1
  O  O68  1  0.21170361  0.47971932  0.25632139  1
  O  O69  1  0.26498399  0.46719582  0.76004428  1
  O  O70  1  0.19978650  0.73466179  0.75881450  1
  O  O71  1  0.53201216  0.79671946  0.75999681  1
loop_
_geom_bond_atom_site_label_1
_geom_bond_atom_site_label_2
_geom_bond_distance
_geom_bond_site_symmetry_2
Ca0 O37 2.134523 1_545
Ca0 O2 2.182248 1_655
Ca0 O1 2.187006 1_545
Ca0 O38 2.200574 1_655
Ca0 O36 2.202081 1_645
Ca0 O0 2.214388 1_645
Ca1 O12 2.169785 1_555
Ca1 O48 2.213279 1_555
Ca1 O50 2.216214 1_555
Ca1 O49 2.238200 1_555
Ca1 O14 2.249597 1_555
Ca1 O13 2.271390 1_555
Ca2 O17 2.152978 1_555
Ca2 O51 2.215181 1_555
Ca2 O53 2.220931 1_555
Ca2 O52 2.232290 1_555
Ca2 O15 2.236834 1_555
Ca2 O16 2.238500 1_555
Ge0 O41 1.821588 1_445
Ge0 O39 1.825142 1_555
Ge0 O40 1.826225 1_545
Ge0 O4 1.944518 1_545
Ge0 O3 1.949258 1_555
Ge0 O5 1.957672 1_455
Ge1 O42 1.829624 1_555
Ge1 O44 1.943172 1_545
Ge1 O6 1.943903 1_545
Ge1 O43 1.948674 1_655
Ge1 O7 1.961629 1_655
Ge1 O8 1.986380 1_645
Ge2 O47 1.841364 1_555
Ge2 O11 1.960718 1_545
Ge2 O45 1.983495 1_445
Ge2 O46 1.989088 1_455
Ge2 O10 2.000241 1_555
Ge2 O9 2.001180 1_445
Ge3 O18 1.859612 1_556
Ge3 O56 1.860572 1_555
Ge3 O54 1.864313 1_555
Ge3 O55 1.892268 1_555
Ge3 O20 2.074622 1_556
Ge3 O19 2.104517 1_556
Ge4 O57 1.813153 1_555
Ge4 O23 1.852661 1_555
Ge4 O59 1.915338 1_555
Ge4 O58 1.957664 1_555
Ge4 O21 2.054744 1_555
Ge4 O22 2.170883 1_555
Ge5 O60 1.809749 1_555
Ge5 O25 1.854064 1_554
Ge5 O24 1.860558 1_554
Ge5 O26 1.874367 1_554
Ge5 O61 1.928848 1_555
Ge5 O62 1.939192 1_555
Ge6 O27 1.773411 1_555
Ge6 O65 1.805630 1_555
Ge6 O28 1.873477 1_555
Ge6 O29 1.886269 1_555
Ge6 O64 1.913474 1_555
Ge6 O63 1.945023 1_555
Ge7 O31 1.843834 1_555
Ge7 O66 1.883394 1_555
Ge7 O67 1.893152 1_555
Ge7 O68 1.904241 1_555
Ge7 O30 2.058852 1_555
Ge7 O32 2.093476 1_555
Ge8 O34 1.854468 1_555
Ge8 O35 1.862963 1_555
Ge8 O33 1.865061 1_555
Ge8 O69 1.993715 1_555
Ge8 O70 2.015424 1_555
Ge8 O71 2.020665 1_555
O0 S0 1.436150 1_555
O1 S1 1.436518 1_555
O2 S2 1.437669 1_555
O3 S3 1.479229 1_555
O4 S4 1.477070 1_555
O5 S5 1.474444 1_545
O6 S5 1.525895 1_555
O7 S3 1.518448 1_555
O8 S4 1.522546 1_555
O9 S1 1.535168 1_555
O10 S2 1.532144 1_555
O11 S0 1.533621 1_555
O12 P0 1.485885 1_555
O13 S6 1.440973 1_555
O14 S7 1.442402 1_555
O15 S8 1.439596 1_555
O16 S9 1.439362 1_555
O17 P1 1.483872 1_555
O18 P1 1.593734 1_555
O19 S8 1.503180 1_555
O20 S9 1.509799 1_555
O21 S6 1.509878 1_555
O22 S7 1.492031 1_555
O23 P0 1.593404 1_555
O24 P2 1.528057 1_555
O25 P3 1.525110 1_555
O26 P4 1.526870 1_555
O27 P5 1.541536 1_555
O28 S10 1.489085 1_555
O29 S11 1.483981 1_555
O30 S11 1.492625 1_555
O31 P5 1.575838 1_555
O32 S10 1.488977 1_555
O33 P3 1.571314 1_555
O34 P4 1.566934 1_555
O35 P2 1.567198 1_555
O36 S11 1.432458 1_555
O37 P5 1.479400 1_555
O38 S10 1.434580 1_555
O39 P3 1.551366 1_555
O40 P4 1.550684 1_555
O41 P2 1.546881 1_555
O42 P0 1.569334 1_555
O43 S6 1.502559 1_555
O44 S7 1.508044 1_555
O45 S8 1.504812 1_555
O46 S9 1.506025 1_555
O47 P1 1.578364 1_555
O48 S5 1.439551 1_545
O49 S3 1.438508 1_555
O50 S4 1.438949 1_655
O51 S1 1.438273 1_555
O52 S2 1.440070 1_655
O53 S0 1.439866 1_545
O54 P2 1.531157 1_555
O55 P3 1.529754 1_655
O56 P4 1.531959 1_545
O57 P5 1.566554 1_545
O58 S10 1.499536 1_555
O59 S11 1.499685 1_655
O60 P1 1.539992 1_555
O61 S8 1.489705 1_455
O62 S9 1.483629 1_565
O63 S6 1.490951 1_565
O64 S7 1.498580 1_555
O65 P0 1.554485 1_455
O66 S0 1.530323 1_555
O67 S1 1.530496 1_555
O68 S2 1.530744 1_555
O69 S3 1.496526 1_555
O70 S4 1.496629 1_555
O71 S5 1.491334 1_555
