# generated using pymatgen
data_Na4MgCr2O8
_symmetry_space_group_name_H-M   'P 1'
_cell_length_a   5.82261625
_cell_length_b   5.82261573
_cell_length_c   7.30562800
_cell_angle_alpha   90.00000000
_cell_angle_beta   90.00000000
_cell_angle_gamma   119.26246998
_symmetry_Int_Tables_number   1
_chemical_formula_structural   Na4MgCr2O8
_chemical_formula_sum   'Na4 Mg1 Cr2 O8'
_cell_volume   216.07491571
_cell_formula_units_Z   1
loop_
 _symmetry_equiv_pos_site_id
 _symmetry_equiv_pos_as_xyz
  1  'x, y, z'
loop_
 _atom_site_type_symbol
 _atom_site_label
 _atom_site_symmetry_multiplicity
 _atom_site_fract_x
 _atom_site_fract_y
 _atom_site_fract_z
 _atom_site_occupancy
  Na  Na0  1  0.19800200  0.80199800  0.75000000  1
  Na  Na1  1  0.80061900  0.19938100  0.25000000  1
  Na  Na2  1  0.44132900  0.55867100  0.47119300  1
  Na  Na3  1  0.44132900  0.55867100  0.02880700  1
  Mg  Mg0  1  0.63877100  0.36122900  0.75000000  1
  Cr  Cr0  1  0.90754400  0.09245600  0.75000000  1
  Cr  Cr1  1  0.11370600  0.88629400  0.25000000  1
  O  O0  1  0.21168600  0.78831400  0.06737600  1
  O  O1  1  0.78535200  0.21464800  0.56803800  1
  O  O2  1  0.78535200  0.21464800  0.93196200  1
  O  O3  1  0.21168600  0.78831400  0.43262400  1
  O  O4  1  0.26379100  0.24851900  0.75000000  1
  O  O5  1  0.78478000  0.75209500  0.25000000  1
  O  O6  1  0.75148200  0.73620900  0.75000000  1
  O  O7  1  0.24790500  0.21522000  0.25000000  1
loop_
_geom_bond_atom_site_label_1
_geom_bond_atom_site_label_2
_geom_bond_distance
_geom_bond_site_symmetry_2
Na0 O0 2.322704 1_556
Na0 O3 2.322704 1_555
Na0 O6 2.435703 1_455
Na0 O4 2.435708 1_565
Na1 O1 2.328525 1_555
Na1 O2 2.328525 1_554
Na1 O5 2.560558 1_545
Na1 O7 2.560559 1_655
Na2 O3 2.324452 1_555
Na2 O7 2.382649 1_555
Na2 O5 2.382650 1_555
Na2 O4 2.579462 1_555
Na2 O6 2.579465 1_555
Na3 O0 2.324452 1_555
Na3 O7 2.382649 1_555
Na3 O5 2.382650 1_555
Na3 O4 2.579462 1_554
Na3 O6 2.579465 1_554
Mg0 O6 1.948578 1_555
Mg0 O4 1.948579 1_555
Mg0 O2 1.983979 1_555
Mg0 O1 1.983979 1_555
Cr0 O2 1.809540 1_555
Cr0 O1 1.809540 1_555
Cr0 O4 1.812646 1_655
Cr0 O6 1.812647 1_545
Cr1 O3 1.658063 1_555
Cr1 O0 1.658063 1_555
Cr1 O7 1.677964 1_565
Cr1 O5 1.677964 1_455
