# generated using pymatgen
data_Bi2O3
_symmetry_space_group_name_H-M   'P 1'
_cell_length_a   5.87198750
_cell_length_b   7.51669711
_cell_length_c   8.11531262
_cell_angle_alpha   89.99998564
_cell_angle_beta   89.99999998
_cell_angle_gamma   113.72528117
_symmetry_Int_Tables_number   1
_chemical_formula_structural   Bi2O3
_chemical_formula_sum   'Bi8 O12'
_cell_volume   327.92062332
_cell_formula_units_Z   4
loop_
 _symmetry_equiv_pos_site_id
 _symmetry_equiv_pos_as_xyz
  1  'x, y, z'
loop_
 _atom_site_type_symbol
 _atom_site_label
 _atom_site_symmetry_multiplicity
 _atom_site_fract_x
 _atom_site_fract_y
 _atom_site_fract_z
 _atom_site_occupancy
  Bi  Bi0  1  0.23654822  0.27620881  0.45665825  1
  Bi  Bi1  1  0.26345178  0.22379019  0.95665825  1
  Bi  Bi2  1  0.76345178  0.72379019  0.54334175  1
  Bi  Bi3  1  0.73654822  0.77620981  0.04334175  1
  Bi  Bi4  1  0.34423372  0.86696377  0.31327522  1
  Bi  Bi5  1  0.15576628  0.63303623  0.81327522  1
  Bi  Bi6  1  0.65576628  0.13303623  0.68672478  1
  Bi  Bi7  1  0.84423372  0.36696377  0.18672478  1
  O  O0  1  0.74120999  0.01149175  0.46821123  1
  O  O1  1  0.75879101  0.48850925  0.96821223  1
  O  O2  1  0.25879001  0.98850925  0.53178777  1
  O  O3  1  0.24120999  0.51149075  0.03178877  1
  O  O4  1  0.38856728  0.62434405  0.44939327  1
  O  O5  1  0.11143372  0.87565595  0.94939327  1
  O  O6  1  0.61143372  0.37565595  0.55060673  1
  O  O7  1  0.88856728  0.12434405  0.05060673  1
  O  O8  1  0.93045863  0.70812522  0.29685600  1
  O  O9  1  0.56954137  0.79187478  0.79685600  1
  O  O10  1  0.06954037  0.29187478  0.70314400  1
  O  O11  1  0.43045863  0.20812522  0.20314400  1
loop_
_geom_bond_atom_site_label_1
_geom_bond_atom_site_label_2
_geom_bond_distance
_geom_bond_site_symmetry_2
Bi0 O6 2.159104 1_555
Bi0 O10 2.251608 1_555
Bi0 O2 2.300585 1_545
Bi0 O4 2.401743 1_555
Bi0 O11 2.501998 1_555
Bi0 O0 2.787630 1_455
Bi1 O7 2.159099 1_456
Bi1 O11 2.251604 1_556
Bi1 O3 2.300595 1_556
Bi1 O5 2.401736 1_545
Bi1 O10 2.502004 1_555
Bi1 O1 2.787639 1_555
Bi2 O4 2.159100 1_555
Bi2 O8 2.251604 1_555
Bi2 O0 2.300602 1_565
Bi2 O6 2.401736 1_555
Bi2 O9 2.502001 1_555
Bi2 O2 2.787635 1_655
Bi3 O5 2.159105 1_654
Bi3 O9 2.251604 1_554
Bi3 O1 2.300595 1_554
Bi3 O7 2.401736 1_565
Bi3 O8 2.502001 1_555
Bi3 O3 2.787634 1_555
Bi4 O2 2.144733 1_555
Bi4 O4 2.235154 1_555
Bi4 O8 2.238804 1_455
Bi4 O0 2.481346 1_565
Bi4 O11 2.566419 1_565
Bi5 O3 2.144739 1_556
Bi5 O5 2.235152 1_555
Bi5 O9 2.238804 1_555
Bi5 O1 2.481345 1_455
Bi5 O10 2.566418 1_555
Bi6 O0 2.144736 1_555
Bi6 O6 2.235152 1_555
Bi6 O10 2.238799 1_655
Bi6 O2 2.481350 1_545
Bi6 O9 2.566419 1_545
Bi7 O1 2.144730 1_554
Bi7 O7 2.235155 1_555
Bi7 O11 2.238804 1_555
Bi7 O3 2.481345 1_655
Bi7 O8 2.566419 1_555
