# generated using pymatgen
data_K2CdO2
_symmetry_space_group_name_H-M   'P 1'
_cell_length_a   6.21240872
_cell_length_b   6.18587238
_cell_length_c   9.98436720
_cell_angle_alpha   90.00000000
_cell_angle_beta   90.00000000
_cell_angle_gamma   90.00000000
_symmetry_Int_Tables_number   1
_chemical_formula_structural   K2CdO2
_chemical_formula_sum   'K8 Cd4 O8'
_cell_volume   383.69091965
_cell_formula_units_Z   4
loop_
 _symmetry_equiv_pos_site_id
 _symmetry_equiv_pos_as_xyz
  1  'x, y, z'
loop_
 _atom_site_type_symbol
 _atom_site_label
 _atom_site_symmetry_multiplicity
 _atom_site_fract_x
 _atom_site_fract_y
 _atom_site_fract_z
 _atom_site_occupancy
  K  K0  1  0.39145055  0.10247882  0.65548631  1
  K  K1  1  0.60854945  0.39752118  0.15548631  1
  K  K2  1  0.89145055  0.89752118  0.65548631  1
  K  K3  1  0.10854945  0.60247882  0.15548631  1
  K  K4  1  0.60854945  0.89752118  0.34451369  1
  K  K5  1  0.39145055  0.60247882  0.84451369  1
  K  K6  1  0.89145055  0.39752118  0.84451369  1
  K  K7  1  0.10854945  0.10247882  0.34451369  1
  Cd  Cd0  1  0.75000000  0.46129000  0.50000000  1
  Cd  Cd1  1  0.25000000  0.53871100  0.50000000  1
  Cd  Cd2  1  0.75000000  0.96128900  -0.00000000  1
  Cd  Cd3  1  0.25000000  0.03871000  -0.00000000  1
  O  O0  1  0.52077777  0.20116838  0.90068623  1
  O  O1  1  0.02077777  0.79883162  0.90068623  1
  O  O2  1  0.52077777  0.70116838  0.59931377  1
  O  O3  1  0.47922223  0.29883162  0.40068623  1
  O  O4  1  0.47922223  0.79883162  0.09931377  1
  O  O5  1  0.97922223  0.20116838  0.09931377  1
  O  O6  1  0.02077777  0.29883162  0.59931377  1
  O  O7  1  0.97922223  0.70116838  0.40068623  1
loop_
_geom_bond_atom_site_label_1
_geom_bond_atom_site_label_2
_geom_bond_distance
_geom_bond_site_symmetry_2
K0 O0 2.647963 1_555
K0 O6 2.663191 1_555
K0 O2 2.668827 1_545
K0 O3 2.871347 1_555
K1 O3 2.647963 1_555
K1 O5 2.663191 1_555
K1 O4 2.668827 1_555
K1 O0 2.871347 1_554
K2 O1 2.647963 1_655
K2 O2 2.663191 1_555
K2 O6 2.668827 1_665
K2 O7 2.871347 1_555
K3 O7 2.647963 1_455
K3 O4 2.663191 1_555
K3 O5 2.668827 1_455
K3 O1 2.871347 1_554
K4 O4 2.647963 1_555
K4 O7 2.663191 1_555
K4 O3 2.668827 1_565
K4 O2 2.871347 1_555
K5 O2 2.647963 1_555
K5 O1 2.663191 1_555
K5 O0 2.668827 1_555
K5 O4 2.871347 1_556
K6 O6 2.647963 1_655
K6 O0 2.663191 1_555
K6 O1 2.668827 1_655
K6 O5 2.871347 1_556
K7 O5 2.647963 1_455
K7 O3 2.663191 1_555
K7 O7 2.668827 1_445
K7 O6 2.871347 1_555
Cd0 O3 2.196109 1_555
Cd0 O6 2.196109 1_655
Cd0 O7 2.283180 1_555
Cd0 O2 2.283180 1_555
Cd1 O7 2.196106 1_455
Cd1 O2 2.196106 1_555
Cd1 O6 2.283184 1_555
Cd1 O3 2.283184 1_555
Cd2 O4 2.196106 1_555
Cd2 O1 2.196106 1_654
Cd2 O5 2.283184 1_565
Cd2 O0 2.283184 1_564
Cd3 O5 2.196109 1_455
Cd3 O0 2.196109 1_554
Cd3 O4 2.283180 1_545
Cd3 O1 2.283180 1_544
