# generated using pymatgen
data_MgTi2Nb2(CuO4)3
_symmetry_space_group_name_H-M   'P 1'
_cell_length_a   6.59843370
_cell_length_b   7.00400328
_cell_length_c   6.48200410
_cell_angle_alpha   109.86870249
_cell_angle_beta   108.87802358
_cell_angle_gamma   108.95211812
_symmetry_Int_Tables_number   1
_chemical_formula_structural   MgTi2Nb2(CuO4)3
_chemical_formula_sum   'Mg1 Ti2 Nb2 Cu3 O12'
_cell_volume   232.60399245
_cell_formula_units_Z   1
loop_
 _symmetry_equiv_pos_site_id
 _symmetry_equiv_pos_as_xyz
  1  'x, y, z'
loop_
 _atom_site_type_symbol
 _atom_site_label
 _atom_site_symmetry_multiplicity
 _atom_site_fract_x
 _atom_site_fract_y
 _atom_site_fract_z
 _atom_site_occupancy
  Mg  Mg0  1  0.14679612  0.71291882  0.56421478  1
  Ti  Ti0  1  0.57360734  0.06759056  0.03112268  1
  Ti  Ti1  1  0.00376994  0.53499406  0.00081197  1
  Nb  Nb0  1  0.01886202  0.04689953  0.51213671  1
  Nb  Nb1  1  0.52575962  0.52778152  0.49175564  1
  Cu  Cu0  1  0.51020725  0.54682695  0.00449187  1
  Cu  Cu1  1  0.50247919  0.00648601  0.49718943  1
  Cu  Cu2  1  0.86781719  0.35977135  0.51013263  1
  O  O0  1  0.83917645  0.33564925  0.14821436  1
  O  O1  1  0.50343611  0.19948835  0.30528758  1
  O  O2  1  0.87621129  0.17850731  0.70405997  1
  O  O3  1  0.31679414  0.50335496  0.18365525  1
  O  O4  1  0.71263641  0.90991826  0.18848789  1
  O  O5  1  0.82181210  0.71816855  0.50830598  1
  O  O6  1  0.21242126  0.30847806  0.50582202  1
  O  O7  1  0.30426104  0.07663099  0.79419912  1
  O  O8  1  0.69820325  0.52030079  0.82785599  1
  O  O9  1  0.13189377  0.81443567  0.30529127  1
  O  O10  1  0.50337576  0.80722855  0.68974849  1
  O  O11  1  0.15047976  0.64457046  0.84179835  1
loop_
_geom_bond_atom_site_label_1
_geom_bond_atom_site_label_2
_geom_bond_distance
_geom_bond_site_symmetry_2
Mg0 O10 2.005151 1_555
Mg0 O11 2.007977 1_555
Mg0 O9 2.020355 1_555
Mg0 O5 2.070860 1_455
Mg0 O7 2.118589 1_565
Mg0 O0 2.550390 1_455
Nb0 O6 1.885298 1_555
Nb0 O2 1.955810 1_455
Nb0 O4 2.008488 1_445
Nb0 O7 2.047187 1_555
Nb0 O9 2.226415 1_545
Nb0 O5 2.233401 1_445
Nb1 O5 1.918557 1_555
Nb1 O3 1.936880 1_555
Nb1 O10 2.025521 1_555
Nb1 O1 2.131988 1_555
Nb1 O8 2.134467 1_555
Nb1 O6 2.190139 1_555
Cu0 O8 1.951517 1_554
Cu0 O3 2.004297 1_555
Cu0 O4 2.091630 1_555
Cu1 O9 2.023339 1_545
Cu1 O2 2.040375 1_555
Cu1 O1 2.125368 1_555
Cu1 O10 2.165710 1_545
Cu2 O1 1.992947 1_555
Cu2 O11 2.037945 1_655
Cu2 O2 2.068922 1_555
Cu2 O0 2.233992 1_555
Cu2 O6 2.421805 1_655
O0 Ti0 1.790364 1_555
O0 Ti1 2.152941 1_655
O1 Ti0 1.980003 1_555
O2 Ti1 2.228293 1_656
O3 Ti1 2.147480 1_555
O4 Ti0 1.979858 1_565
O7 Ti0 1.973357 1_556
O8 Ti1 1.912281 1_656
O9 Ti1 1.913226 1_555
O10 Ti0 2.116902 1_566
O11 Ti1 1.813655 1_556
