# generated using pymatgen
data_Na2ZnSiGe(SO6)2
_symmetry_space_group_name_H-M   'P 1'
_cell_length_a   8.77060111
_cell_length_b   8.77469148
_cell_length_c   22.04053539
_cell_angle_alpha   90.49628151
_cell_angle_beta   90.00000000
_cell_angle_gamma   119.98458093
_symmetry_Int_Tables_number   1
_chemical_formula_structural   Na2ZnSiGe(SO6)2
_chemical_formula_sum   'Na12 Zn6 Si6 Ge6 S12 O72'
_cell_volume   1469.12830878
_cell_formula_units_Z   6
loop_
 _symmetry_equiv_pos_site_id
 _symmetry_equiv_pos_as_xyz
  1  'x, y, z'
loop_
 _atom_site_type_symbol
 _atom_site_label
 _atom_site_symmetry_multiplicity
 _atom_site_fract_x
 _atom_site_fract_y
 _atom_site_fract_z
 _atom_site_occupancy
  Na  Na0  1  0.99612649  0.63256713  0.24149850  1
  Na  Na1  1  0.63644064  0.63256713  0.74149850  1
  Na  Na2  1  0.65785372  0.95889490  0.57996639  1
  Na  Na3  1  0.30104218  0.95889490  0.07996639  1
  Na  Na4  1  0.69847949  0.03047021  0.91024775  1
  Na  Na5  1  0.33198973  0.03047021  0.41024775  1
  Na  Na6  1  0.98358638  0.99363711  0.49582291  1
  Na  Na7  1  0.01005073  0.99363711  0.99582291  1
  Na  Na8  1  0.66272639  0.31746545  0.82877664  1
  Na  Na9  1  0.65474006  0.31746545  0.32877664  1
  Na  Na10  1  0.33013037  0.65418206  0.16221555  1
  Na  Na11  1  0.32405069  0.65418206  0.66221555  1
  Zn  Zn0  1  0.99938520  0.00753426  0.35180720  1
  Zn  Zn1  1  0.00814907  0.00753426  0.85180720  1
  Zn  Zn2  1  0.66492260  0.32239525  0.68455824  1
  Zn  Zn3  1  0.65747365  0.32239525  0.18455824  1
  Zn  Zn4  1  0.31030965  0.66963267  0.01867826  1
  Zn  Zn5  1  0.35932202  0.66963267  0.51867826  1
  Si  Si0  1  0.29649347  0.00371708  0.25428293  1
  Si  Si1  1  0.70722361  0.00371708  0.75428293  1
  Si  Si2  1  0.66997024  0.61784077  0.58811846  1
  Si  Si3  1  0.94787153  0.61784077  0.08811846  1
  Si  Si4  1  0.33364501  0.97445894  0.92237898  1
  Si  Si5  1  0.64081292  0.97445894  0.42237898  1
  Ge  Ge0  1  0.98426382  0.97824272  0.65018965  1
  Ge  Ge1  1  0.99397890  0.97824272  0.15018965  1
  Ge  Ge2  1  0.65947991  0.34273845  0.98228807  1
  Ge  Ge3  1  0.68325953  0.34273845  0.48228807  1
  Ge  Ge4  1  0.35087516  0.69906210  0.31662572  1
  Ge  Ge5  1  0.34818595  0.69906210  0.81662572  1
  S  S0  1  0.69935696  0.71159932  0.25204279  1
  S  S1  1  0.01058081  0.29243559  0.24977484  1
  S  S2  1  0.28185478  0.29243559  0.74977484  1
  S  S3  1  0.01224236  0.71159932  0.75204279  1
  S  S4  1  0.96362239  0.33201677  0.58378380  1
  S  S5  1  0.35901494  0.03962264  0.58337834  1
  S  S6  1  0.68060870  0.03962264  0.08337834  1
  S  S7  1  0.36839538  0.33201677  0.08378380  1
  S  S8  1  0.61508479  0.65593317  0.91776112  1
  S  S9  1  0.04464200  0.38657071  0.91530662  1
  S  S10  1  0.34192771  0.38657071  0.41530662  1
  S  S11  1  0.04084738  0.65593317  0.41776112  1
  O  O0  1  0.20575032  0.01454548  0.31541794  1
  O  O1  1  0.80769461  0.79552437  0.30483448  1
  O  O2  1  0.98638281  0.19282140  0.30397495  1
  O  O3  1  0.20643859  0.19282140  0.80397495  1
  O  O4  1  0.98782977  0.79552437  0.80483448  1
  O  O5  1  0.80879516  0.01454548  0.81541794  1
  O  O6  1  0.79682535  0.95494673  0.69254388  1
  O  O7  1  0.17271035  0.20354835  0.69294184  1
  O  O8  1  0.04728874  0.82063992  0.69468447  1
  O  O9  1  0.77335118  0.82063992  0.19468447  1
  O  O10  1  0.03083800  0.20354835  0.19294184  1
  O  O11  1  0.15812138  0.95494673  0.19254388  1
  O  O12  1  0.88559951  0.35539773  0.63853668  1
  O  O13  1  0.47692042  0.11752307  0.63533181  1
  O  O14  1  0.65623639  0.51735184  0.64917534  1
  O  O15  1  0.86111645  0.51735184  0.14917534  1
  O  O16  1  0.64060365  0.11752307  0.13533181  1
  O  O17  1  0.46979922  0.35539773  0.13853668  1
  O  O18  1  0.44776359  0.28665896  0.02838644  1
  O  O19  1  0.81999775  0.52196179  0.02535490  1
  O  O20  1  0.70679869  0.14324208  0.02609169  1
  O  O21  1  0.43644439  0.14324208  0.52609169  1
  O  O22  1  0.70196504  0.52196179  0.52535490  1
  O  O23  1  0.83889637  0.28665896  0.52838644  1
  O  O24  1  0.52480480  0.67406017  0.96979723  1
  O  O25  1  0.14575707  0.46081607  0.97033148  1
  O  O26  1  0.31877095  0.87331069  0.98327661  1
  O  O27  1  0.55453873  0.87331069  0.48327661  1
  O  O28  1  0.31505800  0.46081607  0.47033148  1
  O  O29  1  0.14925437  0.67406017  0.46979723  1
  O  O30  1  0.11418004  0.62665343  0.35818770  1
  O  O31  1  0.49404437  0.88168140  0.36303775  1
  O  O32  1  0.36331876  0.49564904  0.35901677  1
  O  O33  1  0.13232928  0.49564904  0.85901677  1
  O  O34  1  0.38763603  0.88168140  0.86303775  1
  O  O35  1  0.51247240  0.62665343  0.85818770  1
  O  O36  1  0.02062199  0.81179128  0.41407185  1
  O  O37  1  0.82979929  0.99818232  0.41099543  1
  O  O38  1  0.19249630  0.20620816  0.41063016  1
  O  O39  1  0.01371186  0.20620816  0.91063016  1
  O  O40  1  0.16838303  0.99818232  0.91099543  1
  O  O41  1  0.79116929  0.81179128  0.91407185  1
  O  O42  1  0.97417024  0.16504045  0.58679798  1
  O  O43  1  0.18755007  0.04050491  0.59089401  1
  O  O44  1  0.85449817  0.82368876  0.58905679  1
  O  O45  1  0.96919059  0.82368876  0.08905679  1
  O  O46  1  0.85295484  0.04050491  0.09089401  1
  O  O47  1  0.19087021  0.16504045  0.08679798  1
  O  O48  1  0.67641614  0.16593646  0.74409130  1
  O  O49  1  0.46237802  0.32184204  0.74476820  1
  O  O50  1  0.85685947  0.53684793  0.74551360  1
  O  O51  1  0.67998945  0.53684793  0.24551360  1
  O  O52  1  0.85946502  0.32184204  0.24476820  1
  O  O53  1  0.48952133  0.16593646  0.24409130  1
  O  O54  1  0.63104102  0.49193990  0.91993561  1
  O  O55  1  0.86635326  0.37472511  0.91749449  1
  O  O56  1  0.53114627  0.16811293  0.92687602  1
  O  O57  1  0.63696766  0.16811293  0.42687602  1
  O  O58  1  0.50837285  0.37472511  0.41749449  1
  O  O59  1  0.86089988  0.49193990  0.41993561  1
  O  O60  1  0.35235122  0.48610168  0.07367556  1
  O  O61  1  0.14760318  0.65509485  0.08375655  1
  O  O62  1  0.53401956  0.85807352  0.07737432  1
  O  O63  1  0.32405296  0.85807352  0.57737432  1
  O  O64  1  0.50749067  0.65509485  0.58375655  1
  O  O65  1  0.13374946  0.48610168  0.57367556  1
  O  O66  1  0.29801018  0.80775956  0.25579676  1
  O  O67  1  0.51911913  0.69523684  0.25584627  1
  O  O68  1  0.17710088  0.47026347  0.25200036  1
  O  O69  1  0.29316160  0.47026347  0.75200036  1
  O  O70  1  0.17611671  0.69523684  0.75584627  1
  O  O71  1  0.50974838  0.80775956  0.75579676  1
loop_
_geom_bond_atom_site_label_1
_geom_bond_atom_site_label_2
_geom_bond_distance
_geom_bond_site_symmetry_2
Na0 O15 2.309251 1_555
Na0 O66 2.322952 1_655
Na0 O52 2.369104 1_555
Na0 O51 2.464703 1_555
Na0 O68 2.620375 1_655
Na0 O11 2.687099 1_655
Na0 O30 2.783055 1_655
Na1 O14 2.309253 1_555
Na1 O71 2.322959 1_555
Na1 O49 2.369103 1_555
Na1 O50 2.464711 1_555
Na1 O69 2.620383 1_555
Na1 O6 2.687099 1_555
Na1 O35 2.783058 1_555
Na2 O27 2.284451 1_555
Na2 O64 2.311352 1_555
Na2 O42 2.443489 1_565
Na2 O44 2.543924 1_555
Na2 O63 2.601399 1_555
Na2 O23 2.752690 1_565
Na2 O6 2.772583 1_555
Na2 O13 2.850107 1_565
Na3 O26 2.284447 1_554
Na3 O61 2.311352 1_555
Na3 O47 2.443496 1_565
Na3 O45 2.543932 1_455
Na3 O62 2.601382 1_555
Na3 O18 2.752690 1_565
Na3 O11 2.772587 1_555
Na3 O16 2.850107 1_565
Na4 O5 2.335432 1_555
Na4 O56 2.347545 1_555
Na4 O39 2.400067 1_655
Na4 O41 2.431444 1_545
Na4 O34 2.576552 1_545
Na4 O55 2.619977 1_555
Na4 O20 2.718037 1_556
Na5 O0 2.335428 1_555
Na5 O57 2.347561 1_555
Na5 O38 2.400059 1_555
Na5 O36 2.431437 1_545
Na5 O31 2.576552 1_545
Na5 O58 2.619978 1_555
Na5 O21 2.718039 1_555
Na6 O37 2.317648 1_555
Na6 O44 2.468577 1_555
Na6 O42 2.522174 1_565
Na6 O36 2.523183 1_655
Na6 O38 2.647019 1_665
Na6 O43 2.647592 1_665
Na7 O40 2.317648 1_555
Na7 O45 2.468577 1_456
Na7 O47 2.522174 1_566
Na7 O41 2.523183 1_455
Na7 O39 2.647019 1_565
Na7 O46 2.647592 1_466
Na8 O48 2.320074 1_555
Na8 O56 2.502323 1_555
Na8 O55 2.520242 1_555
Na8 O49 2.566362 1_555
Na8 O50 2.599545 1_555
Na8 O54 2.613406 1_555
Na9 O53 2.320074 1_555
Na9 O57 2.502323 1_555
Na9 O58 2.520242 1_555
Na9 O52 2.566362 1_555
Na9 O51 2.599545 1_555
Na9 O59 2.613406 1_555
Na10 O61 2.359305 1_555
Na10 O68 2.492433 1_555
Na10 O60 2.501769 1_555
Na10 O66 2.545765 1_555
Na10 O67 2.554653 1_555
Na10 O62 2.599123 1_555
Na11 O64 2.359305 1_555
Na11 O69 2.492433 1_555
Na11 O65 2.501769 1_555
Na11 O71 2.545765 1_555
Na11 O70 2.554653 1_555
Na11 O63 2.599123 1_555
Ge0 O6 1.811962 1_555
Ge0 O44 1.837274 1_555
Ge0 O8 1.991815 1_655
Ge0 O43 2.055265 1_665
Ge0 O7 2.056646 1_665
Ge0 O42 2.198022 1_565
Ge1 O11 1.811962 1_655
Ge1 O45 1.837274 1_555
Ge1 O9 1.991815 1_555
Ge1 O46 2.055265 1_565
Ge1 O10 2.056646 1_665
Ge1 O47 2.198022 1_665
Ge2 O19 1.765601 1_556
Ge2 O56 1.830326 1_555
Ge2 O18 1.953924 1_556
Ge2 O54 2.005598 1_555
Ge2 O55 2.215444 1_555
Ge2 O20 2.219028 1_556
Ge3 O22 1.765601 1_555
Ge3 O57 1.830326 1_555
Ge3 O23 1.953924 1_555
Ge3 O59 2.005598 1_555
Ge3 O58 2.215444 1_555
Ge3 O21 2.219028 1_555
Ge4 O31 1.775199 1_555
Ge4 O66 1.840203 1_555
Ge4 O67 2.005445 1_555
Ge4 O30 2.060132 1_555
Ge4 O32 2.072266 1_555
Ge4 O68 2.296605 1_555
Ge5 O34 1.775199 1_555
Ge5 O71 1.840203 1_555
Ge5 O70 2.005445 1_555
Ge5 O35 2.060132 1_555
Ge5 O33 2.072266 1_555
Ge5 O69 2.296605 1_555
O0 Si0 1.591045 1_555
O0 Zn0 1.952566 1_455
O1 S0 1.443876 1_555
O1 Zn0 2.049309 1_565
O2 S1 1.438332 1_655
O2 Zn0 1.995697 1_555
O3 S2 1.438332 1_555
O3 Zn1 1.995697 1_555
O4 S3 1.443876 1_655
O4 Zn1 2.049309 1_665
O5 Si1 1.591045 1_555
O5 Zn1 1.952566 1_655
O6 Si1 1.725818 1_565
O7 S2 1.526619 1_555
O8 S3 1.528122 1_555
O9 S0 1.528122 1_555
O10 S1 1.526619 1_555
O11 Si0 1.725818 1_565
O12 S4 1.450080 1_555
O12 Zn2 2.074524 1_555
O13 S5 1.458675 1_555
O13 Zn2 2.032512 1_555
O14 Si2 1.586626 1_555
O14 Zn2 1.921925 1_555
O15 Si3 1.586626 1_555
O15 Zn3 1.921925 1_555
O16 S6 1.458675 1_555
O16 Zn3 2.032512 1_555
O17 S7 1.450080 1_555
O17 Zn3 2.074524 1_555
O18 S7 1.549930 1_555
O19 Si3 1.707628 1_555
O20 S6 1.511563 1_555
O21 S5 1.511563 1_555
O22 Si2 1.707628 1_555
O23 S4 1.549930 1_555
O24 S8 1.445813 1_555
O24 Zn4 2.151512 1_556
O25 S9 1.445878 1_555
O25 Zn4 1.974511 1_556
O26 Si4 1.584678 1_555
O26 Zn4 1.923550 1_556
O27 Si5 1.584678 1_555
O27 Zn5 1.923550 1_555
O28 S10 1.445878 1_555
O28 Zn5 1.974511 1_555
O29 S11 1.445813 1_555
O29 Zn5 2.151512 1_555
O30 S11 1.537221 1_555
O31 Si5 1.721771 1_555
O32 S10 1.526962 1_555
O33 S9 1.526962 1_555
O34 Si4 1.721771 1_555
O35 S8 1.537221 1_555
O36 S11 1.467255 1_555
O36 Zn0 2.286640 1_465
O37 Si5 1.584202 1_555
O37 Zn0 1.949535 1_565
O38 S10 1.468658 1_555
O38 Zn0 2.144341 1_455
O39 S9 1.468661 1_555
O39 Zn1 2.144341 1_555
O40 Si4 1.584193 1_555
O40 Zn1 1.949535 1_565
O41 S8 1.467261 1_555
O41 Zn1 2.286640 1_665
O42 S4 1.515536 1_555
O43 S5 1.516799 1_555
O44 Si2 1.720378 1_555
O45 Si3 1.720382 1_555
O46 S6 1.516790 1_555
O47 S7 1.515541 1_555
O48 Si1 1.593604 1_555
O48 Zn2 1.945817 1_555
O49 S2 1.475713 1_555
O49 Zn2 2.215476 1_555
O50 S3 1.461734 1_655
O50 Zn2 2.229291 1_555
O51 S0 1.461738 1_555
O51 Zn3 2.229291 1_555
O52 S1 1.475705 1_655
O52 Zn3 2.215476 1_555
O53 Si0 1.593610 1_555
O53 Zn3 1.945817 1_555
O54 S8 1.514944 1_555
O55 S9 1.515228 1_655
O56 Si4 1.718377 1_545
O57 Si5 1.718368 1_545
O58 S10 1.515245 1_555
O59 S11 1.514934 1_655
O60 S7 1.446670 1_555
O60 Zn4 2.196850 1_555
O61 Si3 1.616465 1_455
O61 Zn4 1.982751 1_555
O62 S6 1.468814 1_565
O62 Zn4 2.231056 1_555
O63 S5 1.468808 1_565
O63 Zn5 2.231056 1_555
O64 Si2 1.616482 1_555
O64 Zn5 1.982751 1_555
O65 S4 1.446660 1_455
O65 Zn5 2.196850 1_555
O66 Si0 1.726764 1_565
O67 S0 1.516543 1_555
O68 S1 1.513617 1_555
O69 S2 1.513621 1_555
O70 S3 1.516534 1_555
O71 Si1 1.726768 1_565
