# generated using pymatgen
data_Na3NbZn5(SO4)9
_symmetry_space_group_name_H-M   'P 1'
_cell_length_a   8.71070054
_cell_length_b   8.71070027
_cell_length_c   22.68130913
_cell_angle_alpha   90.00000000
_cell_angle_beta   90.00000000
_cell_angle_gamma   120.00000103
_symmetry_Int_Tables_number   1
_chemical_formula_structural   Na3NbZn5(SO4)9
_chemical_formula_sum   'Na6 Nb2 Zn10 S18 O72'
_cell_volume   1490.40705869
_cell_formula_units_Z   2
loop_
 _symmetry_equiv_pos_site_id
 _symmetry_equiv_pos_as_xyz
  1  'x, y, z'
loop_
 _atom_site_type_symbol
 _atom_site_label
 _atom_site_symmetry_multiplicity
 _atom_site_fract_x
 _atom_site_fract_y
 _atom_site_fract_z
 _atom_site_occupancy
  Na  Na0  1  0.00000000  -0.00000000  0.50320177  1
  Na  Na1  1  0.00000000  -0.00000000  0.00320177  1
  Na  Na2  1  0.66666700  0.33333300  0.83335808  1
  Na  Na3  1  0.66666700  0.33333300  0.33335808  1
  Na  Na4  1  0.33333300  0.66666700  0.15995737  1
  Na  Na5  1  0.33333300  0.66666700  0.65995737  1
  Nb  Nb0  1  0.33333300  0.66666700  0.31376735  1
  Nb  Nb1  1  0.33333300  0.66666700  0.81376735  1
  Zn  Zn0  1  0.00000000  -0.00000000  0.35023510  1
  Zn  Zn1  1  0.00000000  -0.00000000  0.85023510  1
  Zn  Zn2  1  0.00000000  -0.00000000  0.64540735  1
  Zn  Zn3  1  0.00000000  -0.00000000  0.14540735  1
  Zn  Zn4  1  0.66666700  0.33333300  0.67844524  1
  Zn  Zn5  1  0.66666700  0.33333300  0.17844524  1
  Zn  Zn6  1  0.66666700  0.33333300  0.98762909  1
  Zn  Zn7  1  0.66666700  0.33333300  0.48762909  1
  Zn  Zn8  1  0.33333300  0.66666700  0.02170135  1
  Zn  Zn9  1  0.33333300  0.66666700  0.52170135  1
  S  S0  1  0.29229660  0.00628356  0.25033302  1
  S  S1  1  0.71398696  0.70770340  0.25033302  1
  S  S2  1  0.99371644  0.28601304  0.25033302  1
  S  S3  1  0.29229660  0.28601304  0.75033302  1
  S  S4  1  0.99371644  0.70770340  0.75033302  1
  S  S5  1  0.71398696  0.00628356  0.75033302  1
  S  S6  1  0.95946734  0.33295071  0.58330233  1
  S  S7  1  0.37348436  0.04053266  0.58330233  1
  S  S8  1  0.66704929  0.62651564  0.58330233  1
  S  S9  1  0.95946734  0.62651564  0.08330233  1
  S  S10  1  0.66704929  0.04053266  0.08330233  1
  S  S11  1  0.37348436  0.33295071  0.08330233  1
  S  S12  1  0.62792350  0.66753073  0.91836592  1
  S  S13  1  0.03960623  0.37207650  0.91836592  1
  S  S14  1  0.33246927  0.96039377  0.91836592  1
  S  S15  1  0.62792350  0.96039377  0.41836592  1
  S  S16  1  0.33246927  0.37207650  0.41836592  1
  S  S17  1  0.03960623  0.66753073  0.41836592  1
  O  O0  1  0.21379726  0.02832448  0.30439804  1
  O  O1  1  0.81452722  0.78620274  0.30439804  1
  O  O2  1  0.97167552  0.18547278  0.30439804  1
  O  O3  1  0.21379726  0.18547278  0.80439804  1
  O  O4  1  0.97167552  0.78620274  0.80439804  1
  O  O5  1  0.81452722  0.02832448  0.80439804  1
  O  O6  1  0.78160427  0.96403838  0.69762657  1
  O  O7  1  0.18243411  0.21839574  0.69762657  1
  O  O8  1  0.03596162  0.81756589  0.69762657  1
  O  O9  1  0.78160427  0.81756589  0.19762657  1
  O  O10  1  0.03596162  0.21839574  0.19762657  1
  O  O11  1  0.18243411  0.96403838  0.19762657  1
  O  O12  1  0.88217344  0.36286164  0.63721242  1
  O  O13  1  0.48068919  0.11782655  0.63721242  1
  O  O14  1  0.63713836  0.51931081  0.63721242  1
  O  O15  1  0.88217345  0.51931081  0.13721242  1
  O  O16  1  0.63713836  0.11782655  0.13721242  1
  O  O17  1  0.48068919  0.36286164  0.13721242  1
  O  O18  1  0.45113966  0.30346601  0.02939135  1
  O  O19  1  0.85232735  0.54886034  0.02939135  1
  O  O20  1  0.69653399  0.14767265  0.02939135  1
  O  O21  1  0.45113966  0.14767265  0.52939135  1
  O  O22  1  0.69653399  0.54886034  0.52939135  1
  O  O23  1  0.85232735  0.30346601  0.52939135  1
  O  O24  1  0.54335383  0.69549090  0.96938912  1
  O  O25  1  0.15213607  0.45664617  0.96938912  1
  O  O26  1  0.30450910  0.84786393  0.96938912  1
  O  O27  1  0.54335383  0.84786393  0.46938912  1
  O  O28  1  0.30450910  0.45664617  0.46938912  1
  O  O29  1  0.15213607  0.69549090  0.46938912  1
  O  O30  1  0.13386490  0.64342756  0.36288043  1
  O  O31  1  0.50956166  0.86613510  0.36288043  1
  O  O32  1  0.35657244  0.49043834  0.36288043  1
  O  O33  1  0.13386490  0.49043834  0.86288043  1
  O  O34  1  0.35657244  0.86613510  0.86288043  1
  O  O35  1  0.50956166  0.64342756  0.86288043  1
  O  O36  1  0.02527486  0.82645119  0.40867237  1
  O  O37  1  0.80117634  0.97472514  0.40867237  1
  O  O38  1  0.17354881  0.19882366  0.40867237  1
  O  O39  1  0.02527486  0.19882366  0.90867237  1
  O  O40  1  0.17354881  0.97472514  0.90867237  1
  O  O41  1  0.80117634  0.82645119  0.90867237  1
  O  O42  1  0.97707119  0.17231276  0.58916520  1
  O  O43  1  0.19524157  0.02292881  0.58916520  1
  O  O44  1  0.82768724  0.80475843  0.58916520  1
  O  O45  1  0.97707119  0.80475843  0.08916520  1
  O  O46  1  0.82768724  0.02292881  0.08916520  1
  O  O47  1  0.19524157  0.17231276  0.08916520  1
  O  O48  1  0.68331047  0.15647657  0.74446098  1
  O  O49  1  0.47316711  0.31668953  0.74446098  1
  O  O50  1  0.84352343  0.52683289  0.74446098  1
  O  O51  1  0.68331047  0.52683289  0.24446098  1
  O  O52  1  0.84352343  0.31668953  0.24446098  1
  O  O53  1  0.47316711  0.15647657  0.24446098  1
  O  O54  1  0.63755082  0.50426354  0.91972300  1
  O  O55  1  0.86671372  0.36244918  0.91972300  1
  O  O56  1  0.49573646  0.13328628  0.91972300  1
  O  O57  1  0.63755082  0.13328628  0.41972300  1
  O  O58  1  0.49573646  0.36244918  0.41972300  1
  O  O59  1  0.86671372  0.50426354  0.41972300  1
  O  O60  1  0.35581371  0.49369230  0.07761721  1
  O  O61  1  0.13787759  0.64418629  0.07761721  1
  O  O62  1  0.50630770  0.86212241  0.07761721  1
  O  O63  1  0.35581371  0.86212241  0.57761721  1
  O  O64  1  0.50630770  0.64418629  0.57761721  1
  O  O65  1  0.13787759  0.49369230  0.57761721  1
  O  O66  1  0.31111002  0.83729844  0.25956115  1
  O  O67  1  0.52618741  0.68888998  0.25956115  1
  O  O68  1  0.16270156  0.47381259  0.25956115  1
  O  O69  1  0.31111002  0.47381259  0.75956115  1
  O  O70  1  0.16270156  0.68888998  0.75956115  1
  O  O71  1  0.52618741  0.83729844  0.75956115  1
loop_
_geom_bond_atom_site_label_1
_geom_bond_atom_site_label_2
_geom_bond_distance
_geom_bond_site_symmetry_2
Na0 O44 2.528664 1_445
Na0 O42 2.528664 1_455
Na0 O43 2.528664 1_555
Na0 O38 2.695103 1_555
Na0 O37 2.695103 1_445
Na0 O36 2.695103 1_545
Na1 O45 2.528664 1_445
Na1 O47 2.528664 1_555
Na1 O46 2.528664 1_455
Na1 O39 2.695103 1_554
Na1 O41 2.695103 1_444
Na1 O40 2.695103 1_544
Na2 O56 2.548728 1_555
Na2 O54 2.548728 1_555
Na2 O55 2.548728 1_555
Na2 O50 2.585171 1_555
Na2 O49 2.585171 1_555
Na2 O48 2.585171 1_555
Na3 O57 2.548728 1_555
Na3 O59 2.548728 1_555
Na3 O58 2.548728 1_555
Na3 O51 2.585171 1_555
Na3 O53 2.585171 1_555
Na3 O52 2.585171 1_555
Na4 O62 2.468097 1_555
Na4 O60 2.468097 1_555
Na4 O61 2.468097 1_555
Na4 O68 2.763705 1_555
Na4 O67 2.763705 1_555
Na4 O66 2.763705 1_555
Na5 O63 2.468097 1_555
Na5 O65 2.468097 1_555
Na5 O64 2.468097 1_555
Na5 O69 2.763705 1_555
Na5 O71 2.763705 1_555
Na5 O70 2.763706 1_555
Nb0 O31 1.987225 1_555
Nb0 O32 1.987225 1_555
Nb0 O30 1.987225 1_555
Nb0 O68 2.011449 1_555
Nb0 O67 2.011449 1_555
Nb0 O66 2.011449 1_555
Nb1 O34 1.987225 1_555
Nb1 O33 1.987225 1_555
Nb1 O35 1.987225 1_555
Nb1 O69 2.011449 1_555
Nb1 O71 2.011449 1_555
Nb1 O70 2.011449 1_555
O0 S0 1.462679 1_555
O0 Zn0 2.037278 1_555
O1 S1 1.462679 1_555
O1 Zn0 2.037278 1_665
O2 S2 1.462679 1_555
O2 Zn0 2.037278 1_655
O3 S3 1.462679 1_555
O3 Zn1 2.037278 1_555
O4 S4 1.462679 1_555
O4 Zn1 2.037278 1_665
O5 S5 1.462679 1_555
O5 Zn1 2.037278 1_655
O6 S5 1.458826 1_565
O6 Zn2 2.126983 1_665
O7 S3 1.458826 1_555
O7 Zn2 2.126983 1_555
O8 S4 1.458826 1_455
O8 Zn2 2.126983 1_565
O9 S1 1.458826 1_555
O9 Zn3 2.126983 1_665
O10 S2 1.458825 1_455
O10 Zn3 2.126983 1_555
O11 S0 1.458826 1_565
O11 Zn3 2.126983 1_565
O12 S6 1.480452 1_555
O12 Zn4 1.995461 1_555
O13 S7 1.480452 1_555
O13 Zn4 1.995461 1_555
O14 S8 1.480452 1_555
O14 Zn4 1.995461 1_555
O15 S9 1.480452 1_555
O15 Zn5 1.995461 1_555
O16 S10 1.480452 1_555
O16 Zn5 1.995461 1_555
O17 S11 1.480452 1_555
O17 Zn5 1.995461 1_555
O18 S11 1.480683 1_555
O18 Zn6 2.000274 1_554
O19 S9 1.480683 1_555
O19 Zn6 2.000274 1_554
O20 S10 1.480683 1_555
O20 Zn6 2.000274 1_554
O21 S7 1.480683 1_555
O21 Zn7 2.000274 1_555
O22 S8 1.480683 1_555
O22 Zn7 2.000274 1_555
O23 S6 1.480683 1_555
O23 Zn7 2.000274 1_555
O24 S12 1.456257 1_555
O24 Zn8 2.087661 1_556
O25 S13 1.456257 1_555
O25 Zn8 2.087661 1_556
O26 S14 1.456257 1_555
O26 Zn8 2.087661 1_556
O27 S15 1.456257 1_555
O27 Zn9 2.087661 1_555
O28 S16 1.456257 1_555
O28 Zn9 2.087661 1_555
O29 S17 1.456257 1_555
O29 Zn9 2.087661 1_555
O30 S17 1.573018 1_555
O31 S15 1.573018 1_555
O32 S16 1.573018 1_555
O33 S13 1.573018 1_555
O34 S14 1.573018 1_555
O35 S12 1.573018 1_555
O36 S17 1.467326 1_555
O36 Zn0 2.103189 1_565
O37 S15 1.467335 1_555
O37 Zn0 2.103189 1_665
O38 S16 1.467331 1_555
O38 Zn0 2.103189 1_555
O39 S13 1.467335 1_555
O39 Zn1 2.103189 1_555
O40 S14 1.467326 1_555
O40 Zn1 2.103189 1_565
O41 S12 1.467331 1_555
O41 Zn1 2.103189 1_665
O42 S6 1.487857 1_555
O42 Zn2 2.054225 1_655
O43 S7 1.487865 1_555
O43 Zn2 2.054225 1_555
O44 S8 1.487861 1_555
O44 Zn2 2.054225 1_665
O45 S9 1.487865 1_555
O45 Zn3 2.054225 1_665
O46 S10 1.487857 1_555
O46 Zn3 2.054225 1_655
O47 S11 1.487861 1_555
O47 Zn3 2.054225 1_555
O48 S5 1.466406 1_555
O48 Zn4 2.204453 1_555
O49 S3 1.466415 1_555
O49 Zn4 2.204453 1_555
O50 S4 1.466412 1_555
O50 Zn4 2.204453 1_555
O51 S1 1.466415 1_555
O51 Zn5 2.204453 1_555
O52 S2 1.466406 1_555
O52 Zn5 2.204453 1_555
O53 S0 1.466412 1_555
O53 Zn5 2.204453 1_555
O54 S12 1.466225 1_555
O54 Zn6 2.243002 1_555
O55 S13 1.466208 1_655
O55 Zn6 2.243002 1_555
O56 S14 1.466216 1_545
O56 Zn6 2.243002 1_555
O57 S15 1.466208 1_545
O57 Zn7 2.243002 1_555
O58 S16 1.466225 1_555
O58 Zn7 2.243002 1_555
O59 S17 1.466216 1_655
O59 Zn7 2.243002 1_555
O60 S11 1.488731 1_555
O60 Zn8 2.052336 1_555
O61 S9 1.488714 1_455
O61 Zn8 2.052336 1_555
O62 S10 1.488721 1_565
O62 Zn8 2.052336 1_555
O63 S7 1.488714 1_565
O63 Zn9 2.052336 1_555
O64 S8 1.488731 1_555
O64 Zn9 2.052336 1_555
O65 S6 1.488721 1_455
O65 Zn9 2.052336 1_555
O66 S0 1.574361 1_565
O67 S1 1.574369 1_555
O68 S2 1.574366 1_455
O69 S3 1.574369 1_555
O70 S4 1.574361 1_455
O71 S5 1.574366 1_565
