# generated using pymatgen
data_OsSe2
_symmetry_space_group_name_H-M   'P 1'
_cell_length_a   5.97938628
_cell_length_b   5.97938628
_cell_length_c   5.97938628
_cell_angle_alpha   90.00000000
_cell_angle_beta   90.00000000
_cell_angle_gamma   90.00000000
_symmetry_Int_Tables_number   1
_chemical_formula_structural   OsSe2
_chemical_formula_sum   'Os4 Se8'
_cell_volume   213.78135814
_cell_formula_units_Z   4
loop_
 _symmetry_equiv_pos_site_id
 _symmetry_equiv_pos_as_xyz
  1  'x, y, z'
loop_
 _atom_site_type_symbol
 _atom_site_label
 _atom_site_symmetry_multiplicity
 _atom_site_fract_x
 _atom_site_fract_y
 _atom_site_fract_z
 _atom_site_occupancy
  Os  Os0  1  -0.00000000  0.50000000  0.50000000  1
  Os  Os1  1  0.50000000  0.50000000  0.00000000  1
  Os  Os2  1  0.50000000  -0.00000000  0.50000000  1
  Os  Os3  1  -0.00000000  -0.00000000  0.00000000  1
  Se  Se0  1  0.37820283  0.12179717  0.87820283  1
  Se  Se1  1  0.12179717  0.87820283  0.37820283  1
  Se  Se2  1  0.87820283  0.37820283  0.12179717  1
  Se  Se3  1  0.62179717  0.62179717  0.62179717  1
  Se  Se4  1  0.37820283  0.37820283  0.37820283  1
  Se  Se5  1  0.12179717  0.62179717  0.87820283  1
  Se  Se6  1  0.87820283  0.12179717  0.62179717  1
  Se  Se7  1  0.62179717  0.87820283  0.12179717  1
loop_
_geom_bond_atom_site_label_1
_geom_bond_atom_site_label_2
_geom_bond_distance
_geom_bond_site_symmetry_2
Os0 Se4 2.484912 1_555
Os0 Se1 2.484912 1_555
Os0 Se5 2.484912 1_555
Os0 Se3 2.484912 1_455
Os0 Se2 2.484912 1_455
Os0 Se6 2.484912 1_455
Os1 Se7 2.484912 1_555
Os1 Se0 2.484912 1_554
Os1 Se4 2.484912 1_555
Os1 Se3 2.484912 1_554
Os1 Se2 2.484912 1_555
Os1 Se5 2.484912 1_554
Os2 Se3 2.484912 1_545
Os2 Se6 2.484912 1_555
Os2 Se4 2.484912 1_555
Os2 Se7 2.484912 1_545
Os2 Se1 2.484912 1_545
Os2 Se0 2.484912 1_555
Os3 Se7 2.484912 1_445
Os3 Se0 2.484912 1_554
Os3 Se5 2.484912 1_544
Os3 Se1 2.484912 1_545
Os3 Se2 2.484912 1_455
Os3 Se6 2.484912 1_454
Se0 Se7 2.522809 1_546
Se1 Se6 2.522809 1_465
Se2 Se5 2.522809 1_654
Se3 Se4 2.522809 1_555
