# generated using pymatgen
data_BaNb2O6
_symmetry_space_group_name_H-M   'P 1'
_cell_length_a   6.14093100
_cell_length_b   4.01042900
_cell_length_c   10.67622780
_cell_angle_alpha   89.65566709
_cell_angle_beta   90.00000000
_cell_angle_gamma   90.00000000
_symmetry_Int_Tables_number   1
_chemical_formula_structural   BaNb2O6
_chemical_formula_sum   'Ba2 Nb4 O12'
_cell_volume   262.92691068
_cell_formula_units_Z   2
loop_
 _symmetry_equiv_pos_site_id
 _symmetry_equiv_pos_as_xyz
  1  'x, y, z'
loop_
 _atom_site_type_symbol
 _atom_site_label
 _atom_site_symmetry_multiplicity
 _atom_site_fract_x
 _atom_site_fract_y
 _atom_site_fract_z
 _atom_site_occupancy
  Ba  Ba0  1  0.00000000  0.00000000  0.00000000  1
  Ba  Ba1  1  0.50000000  0.00000000  0.50000000  1
  Nb  Nb0  1  0.54486500  0.46695600  0.15016100  1
  Nb  Nb1  1  0.04486500  0.53304400  0.34983900  1
  Nb  Nb2  1  0.45513500  0.53304400  0.84983900  1
  Nb  Nb3  1  0.95513500  0.46695600  0.65016100  1
  O  O0  1  0.58516100  0.99788100  0.15032900  1
  O  O1  1  0.08516100  0.00211900  0.34967100  1
  O  O2  1  0.41483900  0.00211900  0.84967100  1
  O  O3  1  0.91483900  0.99788100  0.65032900  1
  O  O4  1  0.88307900  0.50219300  0.19718400  1
  O  O5  1  0.38307900  0.49780700  0.30281600  1
  O  O6  1  0.80077300  0.50352000  0.46281100  1
  O  O7  1  0.30077300  0.49648000  0.03718900  1
  O  O8  1  0.19922700  0.49648000  0.53718900  1
  O  O9  1  0.69922700  0.50352000  0.96281100  1
  O  O10  1  0.61692100  0.50219300  0.69718400  1
  O  O11  1  0.11692100  0.49780700  0.80281600  1
loop_
_geom_bond_atom_site_label_1
_geom_bond_atom_site_label_2
_geom_bond_distance
_geom_bond_site_symmetry_2
Ba0 O7 2.746474 1_555
Ba0 O9 2.746474 1_444
Ba0 O7 2.763550 1_545
Ba0 O9 2.763550 1_454
Ba0 O11 2.980351 1_554
Ba0 O4 2.980351 1_445
Ba0 O4 3.009072 1_455
Ba0 O11 3.009072 1_544
Ba0 O2 3.010898 1_554
Ba0 O0 3.010898 1_445
Ba1 O6 2.746474 1_545
Ba1 O8 2.746474 1_555
Ba1 O8 2.763550 1_545
Ba1 O6 2.763550 1_555
Ba1 O10 2.980351 1_545
Ba1 O5 2.980351 1_555
Ba1 O10 3.009072 1_555
Ba1 O5 3.009072 1_545
Ba1 O3 3.010898 1_545
Ba1 O1 3.010898 1_555
Nb0 O0 1.897388 1_545
Nb0 O5 1.913371 1_555
Nb0 O7 1.927141 1_555
Nb0 O4 2.141628 1_555
Nb0 O0 2.143580 1_555
Nb0 O9 2.217500 1_554
Nb1 O1 1.897388 1_565
Nb1 O4 1.913371 1_455
Nb1 O6 1.927141 1_455
Nb1 O5 2.141628 1_555
Nb1 O1 2.143580 1_555
Nb1 O8 2.217500 1_555
Nb2 O2 1.897388 1_565
Nb2 O10 1.913371 1_555
Nb2 O9 1.927141 1_555
Nb2 O11 2.141628 1_555
Nb2 O2 2.143580 1_555
Nb2 O7 2.217500 1_556
Nb3 O3 1.897388 1_545
Nb3 O11 1.913371 1_655
Nb3 O8 1.927141 1_655
Nb3 O10 2.141628 1_555
Nb3 O3 2.143580 1_555
Nb3 O6 2.217500 1_555
