# generated using pymatgen
data_MgCo4(NiO4)2
_symmetry_space_group_name_H-M   'P 1'
_cell_length_a   6.15270174
_cell_length_b   5.89745848
_cell_length_c   5.83356172
_cell_angle_alpha   59.63700770
_cell_angle_beta   62.78988471
_cell_angle_gamma   61.36307701
_symmetry_Int_Tables_number   1
_chemical_formula_structural   MgCo4(NiO4)2
_chemical_formula_sum   'Mg1 Co4 Ni2 O8'
_cell_volume   153.70207971
_cell_formula_units_Z   1
loop_
 _symmetry_equiv_pos_site_id
 _symmetry_equiv_pos_as_xyz
  1  'x, y, z'
loop_
 _atom_site_type_symbol
 _atom_site_label
 _atom_site_symmetry_multiplicity
 _atom_site_fract_x
 _atom_site_fract_y
 _atom_site_fract_z
 _atom_site_occupancy
  Mg  Mg0  1  0.50000000  0.00000000  0.00000000  1
  Co  Co0  1  0.03481100  0.14552400  0.17414100  1
  Co  Co1  1  0.50000000  0.00000000  0.50000000  1
  Co  Co2  1  0.50000000  0.50000000  0.50000000  1
  Co  Co3  1  0.96518900  0.85447600  0.82585900  1
  Ni  Ni0  1  0.00000000  0.50000000  0.50000000  1
  Ni  Ni1  1  0.50000000  0.50000000  0.00000000  1
  O  O0  1  0.26896200  0.23601000  0.25829100  1
  O  O1  1  0.23857700  0.24681600  0.76779000  1
  O  O2  1  0.26896200  0.73673700  0.25829100  1
  O  O3  1  0.67209300  0.26583800  0.29623100  1
  O  O4  1  0.32790700  0.73416200  0.70376900  1
  O  O5  1  0.73103800  0.26326300  0.74170900  1
  O  O6  1  0.76142300  0.75318400  0.23221000  1
  O  O7  1  0.73103800  0.76399000  0.74170900  1
loop_
_geom_bond_atom_site_label_1
_geom_bond_atom_site_label_2
_geom_bond_distance
_geom_bond_site_symmetry_2
Mg0 O1 2.072663 1_554
Mg0 O6 2.072663 1_545
Mg0 O0 2.119721 1_555
Mg0 O7 2.119721 1_544
Mg0 O2 2.119721 1_545
Mg0 O5 2.119721 1_554
Co0 O3 1.879013 1_455
Co0 O1 2.028858 1_554
Co0 O0 2.061487 1_555
Co0 O2 2.061488 1_545
Co1 O4 1.883648 1_545
Co1 O3 1.883648 1_555
Co1 O7 1.974493 1_545
Co1 O0 1.974493 1_555
Co1 O6 2.214278 1_545
Co1 O1 2.214278 1_555
Co2 O3 1.883648 1_555
Co2 O4 1.883648 1_555
Co2 O5 1.974493 1_555
Co2 O2 1.974493 1_555
Co2 O1 2.214282 1_555
Co2 O6 2.214282 1_555
Co3 O4 1.879013 1_655
Co3 O6 2.028858 1_556
Co3 O7 2.061487 1_555
Co3 O5 2.061488 1_565
Ni0 O1 2.112506 1_555
Ni0 O6 2.112506 1_455
Ni0 O7 2.183210 1_455
Ni0 O0 2.183210 1_555
Ni0 O2 2.183210 1_555
Ni0 O5 2.183210 1_455
Ni1 O4 1.968167 1_554
Ni1 O3 1.968167 1_555
Ni1 O2 2.122701 1_555
Ni1 O5 2.122701 1_554
Ni1 O7 2.122701 1_554
Ni1 O0 2.122701 1_555
