# generated using pymatgen
data_La2NiO3F2
_symmetry_space_group_name_H-M   'P 1'
_cell_length_a   13.25830400
_cell_length_b   5.82416200
_cell_length_c   5.70322300
_cell_angle_alpha   90.00000000
_cell_angle_beta   90.00000000
_cell_angle_gamma   90.00000000
_symmetry_Int_Tables_number   1
_chemical_formula_structural   La2NiO3F2
_chemical_formula_sum   'La8 Ni4 O12 F8'
_cell_volume   440.39438420
_cell_formula_units_Z   4
loop_
 _symmetry_equiv_pos_site_id
 _symmetry_equiv_pos_as_xyz
  1  'x, y, z'
loop_
 _atom_site_type_symbol
 _atom_site_label
 _atom_site_symmetry_multiplicity
 _atom_site_fract_x
 _atom_site_fract_y
 _atom_site_fract_z
 _atom_site_occupancy
  La  La0  1  0.39231800  0.78906100  0.00000000  1
  La  La1  1  0.39231800  0.21093900  0.50000000  1
  La  La2  1  0.60768200  0.78906100  0.50000000  1
  La  La3  1  0.60768200  0.21093900  0.00000000  1
  La  La4  1  0.89231800  0.28906100  0.00000000  1
  La  La5  1  0.89231800  0.71093900  0.50000000  1
  La  La6  1  0.10768200  0.28906100  0.50000000  1
  La  La7  1  0.10768200  0.71093900  0.00000000  1
  Ni  Ni0  1  0.25000000  0.25000000  0.00000000  1
  Ni  Ni1  1  0.25000000  0.75000000  0.50000000  1
  Ni  Ni2  1  0.75000000  0.25000000  0.50000000  1
  Ni  Ni3  1  0.75000000  0.75000000  0.00000000  1
  O  O0  1  0.27932000  0.00000000  0.25000000  1
  O  O1  1  0.72068000  0.00000000  0.25000000  1
  O  O2  1  0.72068000  0.00000000  0.75000000  1
  O  O3  1  0.27932000  0.00000000  0.75000000  1
  O  O4  1  0.77932000  0.50000000  0.25000000  1
  O  O5  1  0.22068000  0.50000000  0.25000000  1
  O  O6  1  0.22068000  0.50000000  0.75000000  1
  O  O7  1  0.77932000  0.50000000  0.75000000  1
  O  O8  1  0.00000000  0.50000000  0.25000000  1
  O  O9  1  0.00000000  0.50000000  0.75000000  1
  O  O10  1  0.50000000  0.00000000  0.25000000  1
  O  O11  1  0.50000000  0.00000000  0.75000000  1
  F  F0  1  0.59282000  0.63240500  0.00000000  1
  F  F1  1  0.59282000  0.36759500  0.50000000  1
  F  F2  1  0.40718000  0.63240500  0.50000000  1
  F  F3  1  0.40718000  0.36759500  0.00000000  1
  F  F4  1  0.09282000  0.13240500  0.00000000  1
  F  F5  1  0.09282000  0.86759500  0.50000000  1
  F  F6  1  0.90718000  0.13240500  0.50000000  1
  F  F7  1  0.90718000  0.86759500  0.00000000  1
loop_
_geom_bond_atom_site_label_1
_geom_bond_atom_site_label_2
_geom_bond_distance
_geom_bond_site_symmetry_2
La0 O10 2.362311 1_565
La0 O11 2.362311 1_564
La0 O0 2.405562 1_565
La0 O3 2.405562 1_564
La1 O10 2.362311 1_555
La1 O11 2.362311 1_555
La1 O3 2.405562 1_555
La1 O0 2.405562 1_555
La2 O10 2.362311 1_565
La2 O11 2.362311 1_565
La2 O2 2.405562 1_565
La2 O1 2.405562 1_565
La3 O10 2.362311 1_555
La3 O11 2.362311 1_554
La3 O2 2.405562 1_554
La3 O1 2.405562 1_555
La4 O8 2.362311 1_655
La4 O9 2.362311 1_654
La4 O7 2.405562 1_554
La4 O4 2.405562 1_555
La5 O8 2.362311 1_655
La5 O9 2.362311 1_655
La5 O4 2.405562 1_555
La5 O7 2.405562 1_555
La6 O8 2.362311 1_555
La6 O9 2.362311 1_555
La6 O6 2.405562 1_555
La6 O5 2.405562 1_555
La7 O8 2.362311 1_555
La7 O9 2.362311 1_554
La7 O6 2.405562 1_554
La7 O5 2.405562 1_555
Ni0 O6 2.074630 1_554
Ni0 O5 2.074630 1_555
Ni0 O3 2.074630 1_554
Ni0 O0 2.074630 1_555
Ni1 O6 2.074630 1_555
Ni1 O5 2.074630 1_555
Ni1 O3 2.074630 1_565
Ni1 O0 2.074630 1_565
Ni2 O1 2.074630 1_555
Ni2 O2 2.074630 1_555
Ni2 O7 2.074630 1_555
Ni2 O4 2.074630 1_555
Ni3 O2 2.074630 1_564
Ni3 O1 2.074630 1_565
Ni3 O7 2.074630 1_554
Ni3 O4 2.074630 1_555
F0 Ni3 2.193601 1_555
F0 La3 2.462582 1_555
F1 Ni2 2.193601 1_555
F1 La2 2.462582 1_555
F2 Ni1 2.193601 1_555
F2 La1 2.462582 1_555
F3 Ni0 2.193601 1_555
F3 La0 2.462582 1_555
F4 Ni0 2.193601 1_555
F4 La7 2.462582 1_545
F5 Ni1 2.193601 1_555
F5 La6 2.462582 1_565
F6 Ni2 2.193601 1_555
F6 La5 2.462582 1_545
F7 Ni3 2.193601 1_555
F7 La4 2.462582 1_565
