# generated using pymatgen
data_Li2Mn3(P2O7)2
_symmetry_space_group_name_H-M   'P 1'
_cell_length_a   7.99928800
_cell_length_b   7.47053200
_cell_length_c   9.83755703
_cell_angle_alpha   70.09852728
_cell_angle_beta   90.00000000
_cell_angle_gamma   90.00000000
_symmetry_Int_Tables_number   1
_chemical_formula_structural   Li2Mn3(P2O7)2
_chemical_formula_sum   'Li4 Mn6 P8 O28'
_cell_volume   552.77327454
_cell_formula_units_Z   2
loop_
 _symmetry_equiv_pos_site_id
 _symmetry_equiv_pos_as_xyz
  1  'x, y, z'
loop_
 _atom_site_type_symbol
 _atom_site_label
 _atom_site_symmetry_multiplicity
 _atom_site_fract_x
 _atom_site_fract_y
 _atom_site_fract_z
 _atom_site_occupancy
  Li  Li0  1  0.58015000  0.70880900  0.85337200  1
  Li  Li1  1  0.91985000  0.70880900  0.35337200  1
  Li  Li2  1  0.08015000  0.29119100  0.64662800  1
  Li  Li3  1  0.41985000  0.29119100  0.14662800  1
  Mn  Mn0  1  0.00000000  0.00000000  0.50000000  1
  Mn  Mn1  1  0.62200800  0.80174900  0.52103500  1
  Mn  Mn2  1  0.50000000  0.00000000  0.00000000  1
  Mn  Mn3  1  0.87799200  0.80174900  0.02103500  1
  Mn  Mn4  1  0.12200800  0.19825100  0.97896500  1
  Mn  Mn5  1  0.37799200  0.19825100  0.47896500  1
  P  P0  1  0.79538300  0.11624000  0.19470400  1
  P  P1  1  0.70461700  0.11624000  0.69470400  1
  P  P2  1  0.05041400  0.39899600  0.22057200  1
  P  P3  1  0.55041400  0.60100400  0.27942800  1
  P  P4  1  0.44958600  0.39899600  0.72057200  1
  P  P5  1  0.94958600  0.60100400  0.77942800  1
  P  P6  1  0.20461700  0.88376000  0.80529600  1
  P  P7  1  0.29538300  0.88376000  0.30529600  1
  O  O0  1  0.29597800  0.01141400  0.14409100  1
  O  O1  1  0.91576700  0.03429400  0.10792300  1
  O  O2  1  0.62451000  0.15593300  0.12375700  1
  O  O3  1  0.20402200  0.01141400  0.64409100  1
  O  O4  1  0.58423300  0.03429400  0.60792300  1
  O  O5  1  0.86935700  0.31719700  0.19198100  1
  O  O6  1  0.70402200  0.98858600  0.85590900  1
  O  O7  1  0.08423300  0.96570600  0.89207700  1
  O  O8  1  0.37549000  0.84406700  0.87624300  1
  O  O9  1  0.79597800  0.98858600  0.35590900  1
  O  O10  1  0.41576700  0.96570600  0.39207700  1
  O  O11  1  0.13064300  0.68280300  0.80801900  1
  O  O12  1  0.82873000  0.62280800  0.89356200  1
  O  O13  1  0.12451000  0.84406700  0.37624300  1
  O  O14  1  0.89146300  0.72056400  0.62480300  1
  O  O15  1  0.49528800  0.60455700  0.70364700  1
  O  O16  1  0.36935700  0.68280300  0.30801900  1
  O  O17  1  0.67127000  0.62280800  0.39356200  1
  O  O18  1  0.60853700  0.72056400  0.12480300  1
  O  O19  1  0.99528800  0.39544300  0.79635300  1
  O  O20  1  0.00471200  0.60455700  0.20364700  1
  O  O21  1  0.39146300  0.27943600  0.87519700  1
  O  O22  1  0.32873000  0.37719200  0.60643800  1
  O  O23  1  0.63064300  0.31719700  0.69198100  1
  O  O24  1  0.50471200  0.39544300  0.29635300  1
  O  O25  1  0.10853700  0.27943600  0.37519700  1
  O  O26  1  0.87549000  0.15593300  0.62375700  1
  O  O27  1  0.17127000  0.37719200  0.10643800  1
loop_
_geom_bond_atom_site_label_1
_geom_bond_atom_site_label_2
_geom_bond_distance
_geom_bond_site_symmetry_2
Li0 O8 1.976517 1_555
Li0 O15 2.004464 1_555
Li0 O12 2.085699 1_555
Li0 O6 2.320871 1_555
Li1 O13 1.976517 1_655
Li1 O20 2.004464 1_655
Li1 O17 2.085699 1_555
Li1 O9 2.320871 1_555
Li2 O26 1.976517 1_455
Li2 O19 2.004464 1_455
Li2 O22 2.085699 1_555
Li2 O3 2.320871 1_555
Li3 O2 1.976517 1_555
Li3 O24 2.004464 1_555
Li3 O27 2.085699 1_555
Li3 O0 2.320871 1_555
Mn0 O3 2.182292 1_555
Mn0 O9 2.182292 1_445
Mn0 O13 2.190151 1_545
Mn0 O26 2.190151 1_455
Mn0 O25 2.207735 1_555
Mn0 O14 2.207735 1_445
Mn1 O15 2.150161 1_555
Mn1 O17 2.157806 1_555
Mn1 O10 2.184848 1_555
Mn1 O4 2.202469 1_565
Mn1 O9 2.231591 1_555
Mn1 O14 2.373683 1_555
Mn2 O0 2.182292 1_555
Mn2 O6 2.182292 1_544
Mn2 O8 2.190151 1_544
Mn2 O2 2.190151 1_555
Mn2 O18 2.207735 1_545
Mn2 O21 2.207735 1_554
Mn3 O20 2.150161 1_655
Mn3 O12 2.157806 1_554
Mn3 O7 2.184848 1_654
Mn3 O1 2.202469 1_565
Mn3 O6 2.231591 1_554
Mn3 O18 2.373683 1_555
Mn4 O19 2.150161 1_455
Mn4 O27 2.157806 1_556
Mn4 O1 2.184848 1_456
Mn4 O7 2.202469 1_545
Mn4 O0 2.231591 1_556
Mn4 O21 2.373683 1_555
Mn5 O24 2.150161 1_555
Mn5 O22 2.157806 1_555
Mn5 O4 2.184848 1_555
Mn5 O10 2.202469 1_545
Mn5 O3 2.231591 1_555
Mn5 O25 2.373683 1_555
O0 P7 1.547515 1_545
O1 P0 1.544908 1_555
O2 P0 1.517389 1_555
O3 P6 1.547515 1_545
O4 P1 1.544908 1_555
O5 P0 1.605386 1_555
O5 P2 1.633156 1_655
O6 P1 1.547515 1_565
O7 P6 1.544908 1_555
O8 P6 1.517389 1_555
O9 P0 1.547515 1_565
O10 P7 1.544908 1_555
O11 P6 1.605386 1_555
O11 P5 1.633156 1_455
O12 P5 1.531781 1_555
O13 P7 1.517389 1_555
O14 P5 1.550099 1_555
O15 P4 1.531509 1_555
O16 P7 1.605386 1_555
O16 P3 1.633156 1_555
O17 P3 1.531781 1_555
O18 P3 1.550099 1_555
O19 P5 1.531509 1_555
O20 P2 1.531509 1_555
O21 P4 1.550099 1_555
O22 P4 1.531781 1_555
O23 P1 1.605386 1_555
O23 P4 1.633156 1_555
O24 P3 1.531509 1_555
O25 P2 1.550099 1_555
O26 P1 1.517389 1_555
O27 P2 1.531781 1_555
