# generated using pymatgen
data_TbGaPt
_symmetry_space_group_name_H-M   'P 1'
_cell_length_a   4.42139036
_cell_length_b   6.95396772
_cell_length_c   7.60412314
_cell_angle_alpha   90.00000000
_cell_angle_beta   90.00000000
_cell_angle_gamma   90.00000000
_symmetry_Int_Tables_number   1
_chemical_formula_structural   TbGaPt
_chemical_formula_sum   'Tb4 Ga4 Pt4'
_cell_volume   233.79793530
_cell_formula_units_Z   4
loop_
 _symmetry_equiv_pos_site_id
 _symmetry_equiv_pos_as_xyz
  1  'x, y, z'
loop_
 _atom_site_type_symbol
 _atom_site_label
 _atom_site_symmetry_multiplicity
 _atom_site_fract_x
 _atom_site_fract_y
 _atom_site_fract_z
 _atom_site_occupancy
  Tb  Tb0  1  0.75000000  0.51430430  0.19967563  1
  Tb  Tb1  1  0.25000000  0.98569570  0.69967563  1
  Tb  Tb2  1  0.25000000  0.48569570  0.80032437  1
  Tb  Tb3  1  0.75000000  0.01430430  0.30032437  1
  Ga  Ga0  1  0.75000000  0.67418301  0.57762453  1
  Ga  Ga1  1  0.25000000  0.32581699  0.42237547  1
  Ga  Ga2  1  0.75000000  0.17418301  0.92237547  1
  Ga  Ga3  1  0.25000000  0.82581699  0.07762453  1
  Pt  Pt0  1  0.25000000  0.71997783  0.40475684  1
  Pt  Pt1  1  0.25000000  0.21997783  0.09524316  1
  Pt  Pt2  1  0.75000000  0.78002217  0.90475684  1
  Pt  Pt3  1  0.75000000  0.28002217  0.59524316  1
loop_
_geom_bond_atom_site_label_1
_geom_bond_atom_site_label_2
_geom_bond_distance
_geom_bond_site_symmetry_2
Ga0 Pt0 2.591624 1_555
Ga0 Pt0 2.591624 1_655
Ga0 Pt2 2.594152 1_555
Ga0 Pt3 2.744254 1_555
Ga0 Tb2 3.077812 1_655
Ga0 Tb2 3.077812 1_555
Ga0 Tb0 3.081523 1_555
Ga0 Tb3 3.168664 1_565
Ga0 Tb1 3.231279 1_555
Ga0 Tb1 3.231279 1_655
Ga1 Pt3 2.591624 1_455
Ga1 Pt3 2.591624 1_555
Ga1 Pt1 2.594152 1_555
Ga1 Pt0 2.744254 1_555
Ga1 Tb0 3.077812 1_555
Ga1 Tb0 3.077812 1_455
Ga1 Tb2 3.081523 1_555
Ga1 Tb1 3.168664 1_545
Ga1 Tb3 3.231279 1_455
Ga1 Tb3 3.231279 1_555
Ga2 Pt1 2.591624 1_556
Ga2 Pt1 2.591624 1_656
Ga2 Pt3 2.594152 1_555
Ga2 Pt2 2.744254 1_545
Ga2 Tb1 3.077812 1_645
Ga2 Tb1 3.077812 1_545
Ga2 Tb3 3.081523 1_556
Ga2 Tb0 3.168664 1_556
Ga2 Tb2 3.231279 1_655
Ga2 Tb2 3.231279 1_555
Ga3 Pt2 2.591624 1_454
Ga3 Pt2 2.591624 1_554
Ga3 Pt0 2.594152 1_555
Ga3 Pt1 2.744254 1_565
Ga3 Tb3 3.077812 1_565
Ga3 Tb3 3.077812 1_465
Ga3 Tb1 3.081523 1_554
Ga3 Tb2 3.168664 1_554
Ga3 Tb0 3.231279 1_555
Ga3 Tb0 3.231279 1_455
Pt0 Tb1 2.905786 1_555
Pt0 Tb0 3.060180 1_555
Pt0 Tb0 3.060180 1_455
Pt0 Tb3 3.115594 1_565
Pt0 Tb3 3.115594 1_465
Pt0 Tb2 3.420817 1_555
Pt1 Tb2 2.905786 1_554
Pt1 Tb3 3.060180 1_555
Pt1 Tb3 3.060180 1_455
Pt1 Tb0 3.115594 1_555
Pt1 Tb0 3.115594 1_455
Pt1 Tb1 3.420817 1_544
Pt2 Tb0 2.905786 1_556
Pt2 Tb1 3.060180 1_555
Pt2 Tb1 3.060180 1_655
Pt2 Tb2 3.115594 1_555
Pt2 Tb2 3.115594 1_655
Pt2 Tb3 3.420817 1_566
Pt3 Tb3 2.905786 1_555
Pt3 Tb2 3.060180 1_555
Pt3 Tb2 3.060180 1_655
Pt3 Tb1 3.115594 1_545
Pt3 Tb1 3.115594 1_645
Pt3 Tb0 3.420817 1_555
