# generated using pymatgen
data_Sr4Bi6Se13
_symmetry_space_group_name_H-M   'P 1'
_cell_length_a   4.27493000
_cell_length_b   17.27204800
_cell_length_c   18.73284480
_cell_angle_alpha   89.58482562
_cell_angle_beta   90.00000000
_cell_angle_gamma   90.00000000
_symmetry_Int_Tables_number   1
_chemical_formula_structural   Sr4Bi6Se13
_chemical_formula_sum   'Sr8 Bi12 Se26'
_cell_volume   1383.13693000
_cell_formula_units_Z   2
loop_
 _symmetry_equiv_pos_site_id
 _symmetry_equiv_pos_as_xyz
  1  'x, y, z'
loop_
 _atom_site_type_symbol
 _atom_site_label
 _atom_site_symmetry_multiplicity
 _atom_site_fract_x
 _atom_site_fract_y
 _atom_site_fract_z
 _atom_site_occupancy
  Sr  Sr0  1  0.25000000  0.51159500  0.24628900  1
  Sr  Sr1  1  0.75000000  0.48840500  0.75371100  1
  Sr  Sr2  1  0.25000000  0.77079200  0.18002100  1
  Sr  Sr3  1  0.75000000  0.22920800  0.81997900  1
  Sr  Sr4  1  0.25000000  0.98681500  0.34033300  1
  Sr  Sr5  1  0.75000000  0.01318500  0.65966700  1
  Sr  Sr6  1  0.25000000  0.24293300  0.27101900  1
  Sr  Sr7  1  0.75000000  0.75706700  0.72898100  1
  Bi  Bi0  1  0.75000000  0.17063000  0.47790500  1
  Bi  Bi1  1  0.25000000  0.82937000  0.52209500  1
  Bi  Bi2  1  0.25000000  0.32684900  0.61985300  1
  Bi  Bi3  1  0.75000000  0.67315100  0.38014700  1
  Bi  Bi4  1  0.25000000  0.58319100  0.57823900  1
  Bi  Bi5  1  0.75000000  0.41680900  0.42176100  1
  Bi  Bi6  1  0.75000000  0.81287800  0.95557600  1
  Bi  Bi7  1  0.25000000  0.18712200  0.04442400  1
  Bi  Bi8  1  0.25000000  0.01020000  0.88031600  1
  Bi  Bi9  1  0.75000000  0.98980000  0.11968400  1
  Bi  Bi10  1  0.25000000  0.60651900  0.98115700  1
  Bi  Bi11  1  0.75000000  0.39348100  0.01884300  1
  Se  Se0  1  0.75000000  0.38348100  0.27734500  1
  Se  Se1  1  0.25000000  0.61651900  0.72265500  1
  Se  Se2  1  0.75000000  0.12381900  0.33482300  1
  Se  Se3  1  0.25000000  0.87618100  0.66517700  1
  Se  Se4  1  0.75000000  0.93043600  0.48535300  1
  Se  Se5  1  0.25000000  0.06956400  0.51464700  1
  Se  Se6  1  0.75000000  0.26466400  0.12602500  1
  Se  Se7  1  0.25000000  0.73533600  0.87397500  1
  Se  Se8  1  0.75000000  0.89424100  0.23752800  1
  Se  Se9  1  0.25000000  0.10575900  0.76247200  1
  Se  Se10  1  0.25000000  0.89448000  0.03928200  1
  Se  Se11  1  0.75000000  0.10552000  0.96071800  1
  Se  Se12  1  0.75000000  0.64244200  0.23588500  1
  Se  Se13  1  0.25000000  0.35755800  0.76411500  1
  Se  Se14  1  0.75000000  0.92010900  0.82240100  1
  Se  Se15  1  0.25000000  0.07989100  0.17759900  1
  Se  Se16  1  0.75000000  0.69528900  0.06129800  1
  Se  Se17  1  0.25000000  0.30471100  0.93870200  1
  Se  Se18  1  0.75000000  0.52120600  0.91285700  1
  Se  Se19  1  0.25000000  0.47879400  0.08714300  1
  Se  Se20  1  0.25000000  0.30159000  0.44433900  1
  Se  Se21  1  0.75000000  0.69841000  0.55566100  1
  Se  Se22  1  0.25000000  0.54015000  0.41012800  1
  Se  Se23  1  0.75000000  0.45985000  0.58987200  1
  Se  Se24  1  0.25000000  0.78021700  0.36120600  1
  Se  Se25  1  0.75000000  0.21978300  0.63879400  1
loop_
_geom_bond_atom_site_label_1
_geom_bond_atom_site_label_2
_geom_bond_distance
_geom_bond_site_symmetry_2
Bi0 Se2 2.805227 1_555
Bi0 Se5 2.841171 1_655
Bi0 Se5 2.841171 1_555
Bi0 Se25 3.137114 1_555
Bi0 Se20 3.171738 1_655
Bi0 Se20 3.171738 1_555
Bi1 Se3 2.805227 1_555
Bi1 Se4 2.841171 1_555
Bi1 Se4 2.841171 1_455
Bi1 Se24 3.137114 1_555
Bi1 Se21 3.171738 1_555
Bi1 Se21 3.171738 1_455
Bi2 Se13 2.757766 1_555
Bi2 Se25 2.846905 1_555
Bi2 Se25 2.846905 1_455
Bi2 Se23 3.184747 1_555
Bi2 Se23 3.184747 1_455
Bi2 Se20 3.319828 1_555
Bi3 Se12 2.757766 1_555
Bi3 Se24 2.846905 1_555
Bi3 Se24 2.846905 1_655
Bi3 Se22 3.184747 1_555
Bi3 Se22 3.184747 1_655
Bi3 Se21 3.319828 1_555
Bi4 Se1 2.769964 1_555
Bi4 Se21 2.948867 1_455
Bi4 Se21 2.948867 1_555
Bi4 Se23 3.024552 1_555
Bi4 Se23 3.024552 1_455
Bi4 Se22 3.240991 1_555
Bi5 Se0 2.769964 1_555
Bi5 Se20 2.948867 1_555
Bi5 Se20 2.948867 1_655
Bi5 Se22 3.024552 1_555
Bi5 Se22 3.024552 1_655
Bi5 Se23 3.240991 1_555
Bi6 Se16 2.826474 1_556
Bi6 Se7 2.954463 1_655
Bi6 Se7 2.954463 1_555
Bi6 Se10 3.007669 1_656
Bi6 Se10 3.007669 1_556
Bi6 Se14 3.096299 1_555
Bi7 Se17 2.826474 1_554
Bi7 Se6 2.954463 1_455
Bi7 Se6 2.954463 1_555
Bi7 Se11 3.007669 1_554
Bi7 Se11 3.007669 1_454
Bi7 Se15 3.096299 1_555
Bi8 Se9 2.746750 1_555
Bi8 Se14 2.862092 1_545
Bi8 Se14 2.862092 1_445
Bi8 Se11 3.095762 1_455
Bi8 Se11 3.095762 1_555
Bi9 Se8 2.746750 1_555
Bi9 Se15 2.862092 1_665
Bi9 Se15 2.862092 1_565
Bi9 Se10 3.095762 1_655
Bi9 Se10 3.095762 1_555
Bi10 Se18 2.899029 1_455
Bi10 Se18 2.899029 1_555
Bi10 Se19 2.957223 1_556
Bi10 Se7 2.986125 1_555
Bi10 Se16 3.034262 1_556
Bi10 Se16 3.034262 1_456
Bi11 Se19 2.899029 1_655
Bi11 Se19 2.899029 1_555
Bi11 Se18 2.957223 1_554
Bi11 Se6 2.986125 1_555
Bi11 Se17 3.034262 1_554
Bi11 Se17 3.034262 1_654
Se0 Sr0 3.128098 1_655
Se0 Sr0 3.128098 1_555
Se0 Sr6 3.237279 1_655
Se0 Sr6 3.237279 1_555
Se1 Sr1 3.128098 1_555
Se1 Sr1 3.128098 1_455
Se1 Sr7 3.237279 1_455
Se1 Sr7 3.237279 1_555
Se2 Sr4 3.189896 1_545
Se2 Sr4 3.189896 1_645
Se2 Sr6 3.192860 1_555
Se2 Sr6 3.192860 1_655
Se3 Sr5 3.189896 1_565
Se3 Sr5 3.189896 1_465
Se3 Sr7 3.192860 1_455
Se3 Sr7 3.192860 1_555
Se4 Sr5 3.573961 1_565
Se4 Sr4 3.585915 1_655
Se4 Sr4 3.585915 1_555
Se5 Sr4 3.573961 1_545
Se5 Sr5 3.585915 1_455
Se5 Sr5 3.585915 1_555
Se6 Sr6 3.474526 1_655
Se6 Sr6 3.474526 1_555
Se7 Sr7 3.474526 1_555
Se7 Sr7 3.474526 1_455
Se8 Sr2 3.210748 1_555
Se8 Sr2 3.210748 1_655
Se8 Sr4 3.298306 1_555
Se8 Sr4 3.298306 1_655
Se9 Sr3 3.210748 1_555
Se9 Sr3 3.210748 1_455
Se9 Sr5 3.298306 1_455
Se9 Sr5 3.298306 1_555
Se10 Sr2 3.381297 1_555
Se11 Sr3 3.381297 1_555
Se12 Sr0 3.115756 1_655
Se12 Sr0 3.115756 1_555
Se12 Sr2 3.247273 1_555
Se12 Sr2 3.247273 1_655
Se13 Sr1 3.115756 1_555
Se13 Sr1 3.115756 1_455
Se13 Sr3 3.247273 1_555
Se13 Sr3 3.247273 1_455
Se14 Sr7 3.326296 1_555
Se14 Sr5 3.436069 1_565
Se15 Sr6 3.326296 1_555
Se15 Sr4 3.436069 1_545
Se16 Sr2 3.355251 1_555
Se16 Sr2 3.355251 1_655
Se17 Sr3 3.355251 1_455
Se17 Sr3 3.355251 1_555
Se18 Sr1 3.038641 1_555
Se19 Sr0 3.038641 1_555
Se20 Sr6 3.408175 1_555
Se21 Sr7 3.408175 1_555
Se22 Sr0 3.112072 1_555
Se23 Sr1 3.112072 1_555
Se24 Sr2 3.399190 1_555
Se24 Sr4 3.586912 1_555
Se25 Sr3 3.399190 1_555
Se25 Sr5 3.586912 1_555
