# generated using pymatgen
data_MgFe12(OF)12
_symmetry_space_group_name_H-M   'P 1'
_cell_length_a   9.66672160
_cell_length_b   14.57194273
_cell_length_c   3.07717363
_cell_angle_alpha   90.00258252
_cell_angle_beta   90.07308427
_cell_angle_gamma   90.15615745
_symmetry_Int_Tables_number   1
_chemical_formula_structural   MgFe12(OF)12
_chemical_formula_sum   'Mg1 Fe12 O12 F12'
_cell_volume   433.45767951
_cell_formula_units_Z   1
loop_
 _symmetry_equiv_pos_site_id
 _symmetry_equiv_pos_as_xyz
  1  'x, y, z'
loop_
 _atom_site_type_symbol
 _atom_site_label
 _atom_site_symmetry_multiplicity
 _atom_site_fract_x
 _atom_site_fract_y
 _atom_site_fract_z
 _atom_site_occupancy
  Mg  Mg0  1  0.26305900  0.00374500  0.47955100  1
  Fe  Fe0  1  0.98723400  0.99715200  0.98941100  1
  Fe  Fe1  1  0.00849400  0.33714900  0.99983900  1
  Fe  Fe2  1  0.99964300  0.66276200  0.00133900  1
  Fe  Fe3  1  0.22867000  0.18476300  0.49768500  1
  Fe  Fe4  1  0.24524500  0.48565400  0.50136100  1
  Fe  Fe5  1  0.25014200  0.83254300  0.50429600  1
  Fe  Fe6  1  0.49969400  0.34919400  0.00031000  1
  Fe  Fe7  1  0.53443700  0.99288600  0.98515600  1
  Fe  Fe8  1  0.51738500  0.66016700  0.99903900  1
  Fe  Fe9  1  0.75342900  0.15073100  0.48964300  1
  Fe  Fe10  1  0.72618000  0.49672100  0.50046100  1
  Fe  Fe11  1  0.72751100  0.82372400  0.49343800  1
  O  O0  1  0.08567100  0.27178100  0.49974400  1
  O  O1  1  0.08843800  0.93573000  0.49068600  1
  O  O2  1  0.18376800  0.10068000  0.99434000  1
  O  O3  1  0.14688500  0.43460400  0.00140500  1
  O  O4  1  0.34698500  0.92722100  0.98327000  1
  O  O5  1  0.40318200  0.40149500  0.50019900  1
  O  O6  1  0.61175300  0.93294300  0.48661000  1
  O  O7  1  0.59433000  0.59699100  0.49932800  1
  O  O8  1  0.65677700  0.10363000  0.98952700  1
  O  O9  1  0.65908000  0.43101600  0.00035500  1
  O  O10  1  0.64567800  0.76297900  0.99441500  1
  O  O11  1  0.90735600  0.06655900  0.48967200  1
  F  F0  1  0.10614700  0.59422400  0.50177600  1
  F  F1  1  0.15244300  0.75903300  0.00606700  1
  F  F2  1  0.34331900  0.24293100  0.99791200  1
  F  F3  1  0.34315200  0.56496800  0.00058800  1
  F  F4  1  0.42437500  0.08189900  0.48999000  1
  F  F5  1  0.40258200  0.72571400  0.49970300  1
  F  F6  1  0.58895400  0.27105600  0.49805500  1
  F  F7  1  0.84171400  0.23986100  0.99710400  1
  F  F8  1  0.84461800  0.88826100  0.99150300  1
  F  F9  1  0.84644500  0.56033300  0.00095200  1
  F  F10  1  0.89993300  0.40208500  0.50000200  1
  F  F11  1  0.89243800  0.73144100  0.49943700  1
loop_
_geom_bond_atom_site_label_1
_geom_bond_atom_site_label_2
_geom_bond_distance
_geom_bond_site_symmetry_2
Mg0 O1 1.955477 1_545
Mg0 O4 2.059551 1_544
Mg0 O4 2.075119 1_545
Mg0 O2 2.194356 1_554
Mg0 O2 2.258517 1_555
Fe0 O11 1.996320 1_565
Fe0 O11 1.999004 1_566
Fe0 O1 2.030235 1_655
Fe0 O1 2.034348 1_656
Fe0 O2 2.422769 1_665
Fe1 O3 1.948341 1_556
Fe1 O0 1.957383 1_556
Fe1 O0 1.959270 1_555
Fe3 O0 1.878386 1_555
Fe3 O2 2.006064 1_555
Fe3 O2 2.020864 1_554
Fe4 O3 1.953608 1_555
Fe4 O3 1.955783 1_556
Fe4 O5 1.960894 1_555
Fe5 O1 2.172269 1_555
Fe5 O4 2.222925 1_555
Fe5 O4 2.312427 1_554
Fe6 O9 1.945625 1_555
Fe6 O5 1.954447 1_554
Fe6 O5 1.955728 1_555
Fe7 O6 1.918707 1_555
Fe7 O6 1.924409 1_556
Fe7 O8 1.998136 1_565
Fe7 O4 2.046866 1_555
Fe8 O7 1.942079 1_556
Fe8 O7 1.942108 1_555
Fe8 O10 1.942335 1_555
Fe9 O8 1.924864 1_554
Fe9 O8 1.926247 1_555
Fe9 O11 1.930913 1_555
Fe10 O9 1.923442 1_555
Fe10 O9 1.924312 1_556
Fe10 O7 1.941532 1_555
Fe11 O10 1.939142 1_554
Fe11 O10 1.945566 1_555
Fe11 O6 1.948135 1_555
F0 Fe4 2.079080 1_555
F0 Fe2 2.104767 1_456
F0 Fe2 2.104879 1_455
F1 Fe2 2.034358 1_455
F1 Fe5 2.092972 1_555
F1 Fe5 2.102804 1_554
F2 Fe3 2.075224 1_555
F2 Fe3 2.076341 1_556
F2 Fe6 2.161024 1_556
F3 Fe4 2.140474 1_554
F3 Fe4 2.145698 1_555
F3 Fe8 2.179097 1_554
F4 Mg0 1.928712 1_555
F4 Fe7 2.267085 1_545
F4 Fe7 2.288933 1_544
F4 Fe3 2.417006 1_555
F5 Fe8 2.122833 1_555
F5 Fe8 2.127778 1_554
F5 Fe5 2.146525 1_555
F6 Fe6 2.095008 1_555
F6 Fe6 2.106709 1_556
F6 Fe9 2.370266 1_555
F7 Fe1 2.143973 1_655
F7 Fe9 2.170202 1_556
F7 Fe9 2.200911 1_555
F8 Fe0 2.099177 1_555
F8 Fe11 2.122387 1_555
F8 Fe11 2.133148 1_556
F9 Fe2 2.099739 1_555
F9 Fe10 2.138255 1_554
F9 Fe10 2.138274 1_555
F10 Fe1 2.088974 1_655
F10 Fe1 2.091620 1_654
F10 Fe10 2.176118 1_555
F11 Fe11 2.088562 1_555
F11 Fe2 2.105796 1_555
F11 Fe2 2.112472 1_556
