# generated using pymatgen
data_Na8Y2Si5Ge2SO24
_symmetry_space_group_name_H-M   'P 1'
_cell_length_a   9.19349453
_cell_length_b   9.17561831
_cell_length_c   22.35589695
_cell_angle_alpha   90.62432991
_cell_angle_beta   88.79181501
_cell_angle_gamma   120.39590824
_symmetry_Int_Tables_number   1
_chemical_formula_structural   Na8Y2Si5Ge2SO24
_chemical_formula_sum   'Na24 Y6 Si15 Ge6 S3 O72'
_cell_volume   1626.28128583
_cell_formula_units_Z   3
loop_
 _symmetry_equiv_pos_site_id
 _symmetry_equiv_pos_as_xyz
  1  'x, y, z'
loop_
 _atom_site_type_symbol
 _atom_site_label
 _atom_site_symmetry_multiplicity
 _atom_site_fract_x
 _atom_site_fract_y
 _atom_site_fract_z
 _atom_site_occupancy
  Na  Na0  1  0.64934171  0.00716416  0.25236767  1
  Na  Na1  1  0.34937397  0.35862236  0.24929646  1
  Na  Na2  1  0.99925442  0.64628193  0.24962241  1
  Na  Na3  1  0.63564045  0.63520732  0.74596481  1
  Na  Na4  1  0.99083838  0.35759697  0.74748734  1
  Na  Na5  1  0.36891664  0.01156564  0.74767500  1
  Na  Na6  1  0.29432825  0.33653564  0.58994441  1
  Na  Na7  1  0.04428084  0.70833458  0.58498849  1
  Na  Na8  1  0.66514557  0.95323043  0.58514446  1
  Na  Na9  1  0.28319864  0.96467006  0.08091474  1
  Na  Na10  1  0.67033365  0.68872215  0.09010376  1
  Na  Na11  1  0.04665923  0.33693571  0.09059386  1
  Na  Na12  1  0.97752766  0.66835195  0.91470635  1
  Na  Na13  1  0.70591934  0.04434501  0.90313592  1
  Na  Na14  1  0.31977325  0.28125341  0.91743965  1
  Na  Na15  1  0.95796323  0.29701686  0.41207601  1
  Na  Na16  1  0.33051128  0.02502625  0.41744849  1
  Na  Na17  1  0.70735659  0.67326578  0.42070183  1
  Na  Na18  1  0.98889430  0.98766300  0.50361969  1
  Na  Na19  1  0.02613862  0.00985067  0.99966563  1
  Na  Na20  1  0.66849058  0.32458707  0.82652507  1
  Na  Na21  1  0.66959202  0.33100077  0.33415598  1
  Na  Na22  1  0.32425256  0.65412428  0.17100626  1
  Na  Na23  1  0.33595111  0.66605137  0.66640723  1
  Y  Y0  1  0.99808157  0.99909336  0.34514631  1
  Y  Y1  1  0.00582887  0.00273599  0.84128632  1
  Y  Y2  1  0.00233813  0.00029023  0.15830963  1
  Y  Y3  1  0.66709455  0.32911573  0.97803970  1
  Y  Y4  1  0.31897570  0.65630919  0.02072749  1
  Y  Y5  1  0.33487931  0.67155392  0.52382648  1
  Si  Si0  1  0.31960386  0.00886591  0.24906105  1
  Si  Si1  1  0.67738508  0.68932836  0.25275058  1
  Si  Si2  1  0.99936217  0.32203775  0.25068420  1
  Si  Si3  1  0.30340455  0.30396886  0.74588446  1
  Si  Si4  1  0.99083651  0.69723629  0.74496126  1
  Si  Si5  1  0.69665816  0.99918047  0.74679060  1
  Si  Si6  1  0.94721769  0.31678861  0.58859313  1
  Si  Si7  1  0.38199245  0.06173518  0.58666549  1
  Si  Si8  1  0.68042543  0.61747119  0.58563073  1
  Si  Si9  1  0.95385069  0.62484567  0.08651056  1
  Si  Si10  1  0.37671676  0.33310976  0.08699268  1
  Si  Si11  1  0.04431281  0.37410402  0.90988554  1
  Si  Si12  1  0.33233773  0.95355769  0.91154260  1
  Si  Si13  1  0.62565421  0.96891499  0.41819871  1
  Si  Si14  1  0.03189485  0.65924821  0.41975700  1
  Ge  Ge0  1  0.99921063  0.99964052  0.64851465  1
  Ge  Ge1  1  0.66611546  0.33405101  0.68441434  1
  Ge  Ge2  1  0.66631298  0.35340508  0.19021265  1
  Ge  Ge3  1  0.68748720  0.32729368  0.48934992  1
  Ge  Ge4  1  0.32700955  0.68880802  0.31344109  1
  Ge  Ge5  1  0.31066275  0.66962873  0.80340652  1
  S  S0  1  0.67073095  0.04053804  0.08610282  1
  S  S1  1  0.62629354  0.66796614  0.91387558  1
  S  S2  1  0.33842192  0.37316658  0.41605160  1
  O  O0  1  0.24902215  0.06123584  0.30766272  1
  O  O1  1  0.80854033  0.76591355  0.30730914  1
  O  O2  1  0.95213533  0.19462637  0.30717608  1
  O  O3  1  0.24354924  0.19480554  0.80680926  1
  O  O4  1  0.94542734  0.75565731  0.80730293  1
  O  O5  1  0.80572320  0.04324761  0.80684737  1
  O  O6  1  0.79468725  0.95552819  0.69127528  1
  O  O7  1  0.16231909  0.20526195  0.69164559  1
  O  O8  1  0.03604571  0.83891839  0.69067959  1
  O  O9  1  0.74639416  0.80866961  0.19367927  1
  O  O10  1  0.04802670  0.24776911  0.19211374  1
  O  O11  1  0.19223169  0.95463030  0.19347083  1
  O  O12  1  0.85251195  0.35124681  0.64398711  1
  O  O13  1  0.50080339  0.14873587  0.64429697  1
  O  O14  1  0.65123288  0.50088941  0.64376268  1
  O  O15  1  0.84782281  0.50002506  0.14451732  1
  O  O16  1  0.65339855  0.12814014  0.13924542  1
  O  O17  1  0.49649476  0.34474323  0.14413405  1
  O  O18  1  0.44991332  0.30464171  0.02379184  1
  O  O19  1  0.85993065  0.54398721  0.02404449  1
  O  O20  1  0.68861680  0.13275072  0.02966744  1
  O  O21  1  0.47422995  0.18017937  0.52519615  1
  O  O22  1  0.71150795  0.52788885  0.52378616  1
  O  O23  1  0.83749213  0.28338390  0.52563161  1
  O  O24  1  0.54885577  0.68222844  0.97043475  1
  O  O25  1  0.14599802  0.44689183  0.97189029  1
  O  O26  1  0.32205194  0.86164509  0.97475153  1
  O  O27  1  0.55550156  0.85214505  0.47690088  1
  O  O28  1  0.31608226  0.44821359  0.47145508  1
  O  O29  1  0.14052597  0.68830429  0.47865174  1
  O  O30  1  0.13124316  0.63567777  0.35919406  1
  O  O31  1  0.49746671  0.87374488  0.35974569  1
  O  O32  1  0.35198365  0.47465183  0.36240497  1
  O  O33  1  0.15080666  0.49966297  0.85116824  1
  O  O34  1  0.35180679  0.85028202  0.85160627  1
  O  O35  1  0.52465231  0.65232574  0.86047211  1
  O  O36  1  0.01004494  0.82409305  0.41314037  1
  O  O37  1  0.81691351  0.00299375  0.41072981  1
  O  O38  1  0.18656913  0.20007730  0.41376487  1
  O  O39  1  0.01375147  0.18276327  0.90950475  1
  O  O40  1  0.16093040  0.96586583  0.91116004  1
  O  O41  1  0.79613517  0.81954137  0.91176447  1
  O  O42  1  0.96004766  0.14187920  0.59291100  1
  O  O43  1  0.19119445  0.04419781  0.59093673  1
  O  O44  1  0.85377804  0.80969772  0.58993540  1
  O  O45  1  0.96826298  0.80971733  0.08932708  1
  O  O46  1  0.82401626  0.02561551  0.08817154  1
  O  O47  1  0.18477908  0.17044193  0.08965837  1
  O  O48  1  0.67201348  0.16481923  0.73819185  1
  O  O49  1  0.49410378  0.32829451  0.73719917  1
  O  O50  1  0.82815958  0.50424186  0.73723788  1
  O  O51  1  0.65569889  0.49944538  0.24507534  1
  O  O52  1  0.82995563  0.34028228  0.24198153  1
  O  O53  1  0.51204674  0.16914589  0.23721475  1
  O  O54  1  0.64062125  0.51272330  0.91437623  1
  O  O55  1  0.86353295  0.36782791  0.90793559  1
  O  O56  1  0.50273178  0.14073705  0.90716038  1
  O  O57  1  0.63117066  0.15552022  0.42552049  1
  O  O58  1  0.49453123  0.36193900  0.41721372  1
  O  O59  1  0.84272079  0.47833931  0.42412393  1
  O  O60  1  0.37414249  0.51044924  0.09041551  1
  O  O61  1  0.14070600  0.64425873  0.09169002  1
  O  O62  1  0.51881621  0.86972624  0.08468859  1
  O  O63  1  0.35758559  0.87240636  0.58536443  1
  O  O64  1  0.51335013  0.63656711  0.58355542  1
  O  O65  1  0.13608262  0.48104578  0.58647813  1
  O  O66  1  0.33511011  0.83822069  0.25792424  1
  O  O67  1  0.48978497  0.66648366  0.26725946  1
  O  O68  1  0.17172193  0.50927478  0.26119012  1
  O  O69  1  0.31952556  0.49452177  0.75210321  1
  O  O70  1  0.16756959  0.68507061  0.74805949  1
  O  O71  1  0.50608450  0.82173292  0.75272221  1
loop_
_geom_bond_atom_site_label_1
_geom_bond_atom_site_label_2
_geom_bond_distance
_geom_bond_site_symmetry_2
Na0 O53 2.417524 1_555
Na0 O66 2.494279 1_545
Na0 O52 2.648946 1_555
Na0 O9 2.716200 1_545
Na0 O67 2.719573 1_545
Na0 O31 2.720983 1_545
Na0 O2 2.731602 1_555
Na0 O16 2.764859 1_555
Na1 O51 2.432809 1_555
Na1 O67 2.472715 1_555
Na1 O68 2.628182 1_555
Na1 O17 2.721490 1_555
Na1 O32 2.728756 1_555
Na1 O0 2.734753 1_555
Na1 O10 2.759265 1_555
Na1 O53 2.817097 1_555
Na2 O52 2.431781 1_555
Na2 O68 2.490534 1_655
Na2 O66 2.680321 1_655
Na2 O15 2.727438 1_555
Na2 O51 2.739676 1_555
Na2 O11 2.762650 1_655
Na2 O30 2.780706 1_655
Na2 O1 2.786335 1_555
Na3 O49 2.439806 1_555
Na3 O69 2.514335 1_555
Na3 O71 2.533830 1_555
Na3 O50 2.597572 1_555
Na3 O14 2.619826 1_555
Na3 O35 2.768077 1_555
Na3 O6 2.815208 1_555
Na3 O4 2.856487 1_555
Na4 O50 2.481414 1_555
Na4 O48 2.556266 1_555
Na4 O70 2.593909 1_655
Na4 O69 2.624651 1_655
Na4 O12 2.649651 1_555
Na4 O33 2.715250 1_655
Na4 O5 2.828009 1_555
Na4 O7 2.847192 1_655
Na5 O48 2.409027 1_555
Na5 O49 2.538524 1_555
Na5 O70 2.605677 1_545
Na5 O13 2.606995 1_555
Na5 O71 2.621073 1_545
Na5 O34 2.727138 1_545
Na5 O3 2.784115 1_555
Na5 O8 2.951752 1_545
Na6 O43 2.349759 1_555
Na6 O65 2.416574 1_555
Na6 O64 2.457776 1_555
Na6 O7 2.560689 1_555
Na6 O42 2.660548 1_455
Na6 O28 2.817148 1_555
Na7 O44 2.362747 1_455
Na7 O63 2.485088 1_555
Na7 O29 2.556242 1_555
Na7 O65 2.616608 1_555
Na7 O8 2.654592 1_555
Na7 O43 2.669400 1_565
Na8 O42 2.375117 1_565
Na8 O64 2.507539 1_555
Na8 O63 2.534277 1_555
Na8 O27 2.615348 1_555
Na8 O44 2.659982 1_555
Na8 O6 2.672249 1_555
Na8 O23 2.932471 1_565
Na9 O47 2.476903 1_565
Na9 O45 2.501412 1_455
Na9 O61 2.553884 1_555
Na9 O11 2.622588 1_555
Na9 O26 2.628911 1_554
Na9 O62 2.716097 1_555
Na10 O60 2.362770 1_555
Na10 O45 2.378291 1_555
Na10 O9 2.509157 1_555
Na10 O62 2.658192 1_555
Na10 O46 2.671013 1_565
Na10 O24 2.909169 1_554
Na11 O10 2.423336 1_555
Na11 O47 2.430611 1_555
Na11 O61 2.496403 1_555
Na11 O46 2.537121 1_455
Na11 O60 2.597734 1_555
Na11 O25 2.813886 1_554
Na12 O40 2.375436 1_655
Na12 O55 2.407946 1_555
Na12 O4 2.608666 1_555
Na12 O41 2.656591 1_555
Na12 O19 2.673344 1_556
Na12 O54 2.675387 1_555
Na13 O5 2.324078 1_555
Na13 O56 2.437802 1_555
Na13 O39 2.453223 1_655
Na13 O55 2.562898 1_555
Na13 O41 2.593561 1_545
Na14 O39 2.491608 1_555
Na14 O40 2.500018 1_545
Na14 O3 2.589406 1_555
Na14 O56 2.591566 1_555
Na14 O54 2.621327 1_555
Na14 O18 2.641878 1_556
Na14 O25 2.945979 1_555
Na15 O37 2.328195 1_555
Na15 O59 2.392709 1_555
Na15 O2 2.508289 1_555
Na15 O57 2.612545 1_555
Na15 O38 2.665616 1_655
Na15 O23 2.726747 1_555
Na15 O30 2.929636 1_655
Na16 O57 2.402852 1_555
Na16 O38 2.548779 1_555
Na16 O36 2.569031 1_545
Na16 O0 2.653811 1_555
Na16 O58 2.667073 1_555
Na16 O21 2.780430 1_555
Na16 O31 2.824955 1_545
Na16 O29 2.999851 1_545
Na17 O36 2.403273 1_655
Na17 O58 2.517974 1_555
Na17 O59 2.648198 1_555
Na17 O37 2.671914 1_565
Na17 O1 2.676096 1_555
Na17 O22 2.685879 1_555
Na17 O27 2.901959 1_555
Na18 O44 2.418280 1_555
Na18 O42 2.520570 1_565
Na18 O36 2.567968 1_655
Na18 O43 2.587151 1_665
Na18 O37 2.683653 1_565
Na18 O38 2.735627 1_665
Na19 O40 2.449238 1_545
Na19 O47 2.496073 1_556
Na19 O45 2.592226 1_446
Na19 O39 2.618238 1_555
Na19 O46 2.738533 1_456
Na19 O41 2.783178 1_445
Na20 O56 2.401388 1_555
Na20 O48 2.456030 1_555
Na20 O55 2.467199 1_555
Na20 O50 2.521112 1_555
Na20 O49 2.598272 1_555
Na20 O54 2.693581 1_555
Na21 O52 2.485100 1_555
Na21 O59 2.510916 1_555
Na21 O57 2.520910 1_555
Na21 O58 2.538398 1_555
Na21 O51 2.578507 1_555
Na21 O53 2.624064 1_555
Na22 O60 2.391573 1_555
Na22 O68 2.418854 1_555
Na22 O61 2.442933 1_555
Na22 O66 2.530835 1_555
Na22 O67 2.630075 1_555
Na22 O62 2.682102 1_555
Na23 O70 2.430266 1_555
Na23 O69 2.446071 1_555
Na23 O71 2.452911 1_555
Na23 O65 2.523265 1_555
Na23 O64 2.544014 1_555
Na23 O63 2.566259 1_555
Ge0 O8 1.930591 1_655
Ge0 O6 1.943097 1_555
Ge0 O7 1.973919 1_665
Ge0 O42 1.976856 1_565
Ge0 O43 2.030941 1_665
Ge0 O44 2.050906 1_555
Ge1 O13 1.847858 1_555
Ge1 O14 1.853551 1_555
Ge1 O12 1.855386 1_555
Ge1 O50 1.931929 1_555
Ge1 O49 1.932418 1_555
Ge1 O48 1.997042 1_555
Ge2 O15 1.823286 1_555
Ge2 O51 1.844158 1_555
Ge2 O17 1.856171 1_555
Ge2 O53 1.877072 1_555
Ge2 O52 1.969029 1_555
Ge2 O16 2.300147 1_555
Ge3 O23 1.827188 1_555
Ge3 O21 1.894043 1_555
Ge3 O22 1.895828 1_555
Ge3 O57 1.986159 1_555
Ge3 O59 2.009624 1_555
Ge4 O66 1.831755 1_555
Ge4 O30 1.889030 1_555
Ge4 O67 1.894135 1_555
Ge4 O31 1.935469 1_555
Ge4 O68 1.940322 1_555
Ge4 O32 2.371971 1_555
Ge5 O33 1.839261 1_555
Ge5 O34 1.842720 1_555
Ge5 O70 1.882223 1_555
Ge5 O71 1.967428 1_555
Ge5 O69 1.997999 1_555
Ge5 O35 2.439138 1_555
O0 Si0 1.623045 1_555
O0 Y0 2.224275 1_445
O1 Si1 1.619039 1_555
O1 Y0 2.140007 1_555
O2 Si2 1.626542 1_555
O2 Y0 2.221065 1_545
O3 Si3 1.612939 1_555
O3 Y1 2.130088 1_555
O4 Si4 1.609248 1_555
O4 Y1 2.175220 1_665
O5 Si5 1.614367 1_545
O5 Y1 2.207556 1_655
O6 Si5 1.679359 1_555
O7 Si3 1.681244 1_555
O8 Si4 1.673843 1_455
O9 Si1 1.624414 1_555
O9 Y2 2.240221 1_665
O10 Si2 1.625867 1_455
O10 Y2 2.216921 1_555
O11 Si0 1.619119 1_565
O11 Y2 2.155546 1_565
O12 Si6 1.617469 1_555
O13 Si7 1.626314 1_555
O14 Si8 1.621825 1_555
O15 Si9 1.671194 1_555
O16 S0 1.477759 1_555
O17 Si10 1.671305 1_555
O18 Si10 1.626999 1_555
O18 Y3 2.132696 1_554
O19 Si9 1.620548 1_555
O19 Y3 2.140913 1_554
O20 S0 1.486088 1_555
O20 Y3 2.243520 1_554
O21 Si7 1.685067 1_555
O22 Si8 1.692666 1_555
O23 Si6 1.682369 1_555
O24 S1 1.474944 1_555
O24 Y4 2.276876 1_556
O25 Si11 1.626073 1_555
O25 Y4 2.085310 1_556
O26 Si12 1.629924 1_555
O26 Y4 2.143378 1_556
O27 Si13 1.606812 1_555
O27 Y5 2.123045 1_555
O28 S2 1.471146 1_555
O28 Y5 2.279936 1_555
O29 Si14 1.606361 1_555
O29 Y5 2.143257 1_555
O30 Si14 1.689826 1_555
O31 Si13 1.690478 1_555
O32 S2 1.490493 1_555
O33 Si11 1.687097 1_555
O34 Si12 1.690942 1_555
O35 S1 1.492224 1_555
O36 Si14 1.632068 1_555
O36 Y0 2.267168 1_455
O37 Si13 1.627817 1_545
O37 Y0 2.209360 1_545
O38 S2 1.493824 1_555
O38 Y0 2.360840 1_445
O39 Si11 1.631561 1_555
O39 Y1 2.210851 1_555
O40 Si12 1.636080 1_555
O40 Y1 2.276279 1_565
O41 S1 1.474914 1_555
O41 Y1 2.382208 1_665
O42 Si6 1.671634 1_555
O43 Si7 1.679142 1_555
O44 Si8 1.678801 1_555
O45 Si9 1.633883 1_555
O45 Y2 2.222920 1_665
O46 S0 1.484910 1_555
O46 Y2 2.387909 1_655
O47 Si10 1.636261 1_555
O47 Y2 2.213587 1_555
O48 Si5 1.659778 1_545
O49 Si3 1.658855 1_555
O50 Si4 1.651242 1_555
O51 Si1 1.657767 1_555
O52 Si2 1.663976 1_555
O53 Si0 1.648897 1_555
O54 S1 1.495598 1_555
O54 Y3 2.324851 1_555
O55 Si11 1.635116 1_655
O55 Y3 2.255551 1_555
O56 Si12 1.639488 1_545
O56 Y3 2.275982 1_555
O57 Si13 1.693348 1_545
O58 S2 1.490741 1_555
O59 Si14 1.692523 1_655
O60 Si10 1.640236 1_555
O60 Y4 2.289376 1_555
O61 Si9 1.641476 1_455
O61 Y4 2.219426 1_555
O62 S0 1.481117 1_565
O62 Y4 2.379874 1_555
O63 Si7 1.635177 1_565
O63 Y5 2.213644 1_555
O64 Si8 1.633309 1_555
O64 Y5 2.283189 1_555
O65 Si6 1.624350 1_455
O65 Y5 2.251693 1_555
O66 Si0 1.656824 1_565
O67 Si1 1.654022 1_555
O68 Si2 1.664241 1_455
O69 Si3 1.682760 1_555
O70 Si4 1.686911 1_455
O71 Si5 1.687131 1_555
