# generated using pymatgen
data_BaNd2O4
_symmetry_space_group_name_H-M   'P 1'
_cell_length_a   3.61864619
_cell_length_b   10.66522781
_cell_length_c   12.52631118
_cell_angle_alpha   90.00000000
_cell_angle_beta   90.00000000
_cell_angle_gamma   90.00000000
_symmetry_Int_Tables_number   1
_chemical_formula_structural   BaNd2O4
_chemical_formula_sum   'Ba4 Nd8 O16'
_cell_volume   483.43652017
_cell_formula_units_Z   4
loop_
 _symmetry_equiv_pos_site_id
 _symmetry_equiv_pos_as_xyz
  1  'x, y, z'
loop_
 _atom_site_type_symbol
 _atom_site_label
 _atom_site_symmetry_multiplicity
 _atom_site_fract_x
 _atom_site_fract_y
 _atom_site_fract_z
 _atom_site_occupancy
  Ba  Ba0  1  0.75000000  0.74881305  0.85230203  1
  Ba  Ba1  1  0.25000000  0.25118695  0.14769797  1
  Ba  Ba2  1  0.75000000  0.24881305  0.64769797  1
  Ba  Ba3  1  0.25000000  0.75118695  0.35230203  1
  Nd  Nd0  1  0.25000000  0.42414879  0.88773966  1
  Nd  Nd1  1  0.75000000  0.57585121  0.11226034  1
  Nd  Nd2  1  0.25000000  0.92414879  0.61226034  1
  Nd  Nd3  1  0.75000000  0.07585121  0.38773966  1
  Nd  Nd4  1  0.75000000  0.07957057  0.88887557  1
  Nd  Nd5  1  0.25000000  0.92042943  0.11112443  1
  Nd  Nd6  1  0.75000000  0.57957057  0.61112443  1
  Nd  Nd7  1  0.25000000  0.42042943  0.38887557  1
  O  O0  1  0.25000000  0.42943286  0.57656666  1
  O  O1  1  0.75000000  0.57056714  0.42343334  1
  O  O2  1  0.25000000  0.92943286  0.92343334  1
  O  O3  1  0.75000000  0.07056714  0.07656666  1
  O  O4  1  0.25000000  0.51528085  0.21746117  1
  O  O5  1  0.75000000  0.48471915  0.78253883  1
  O  O6  1  0.25000000  0.01528085  0.28253883  1
  O  O7  1  0.75000000  0.98471915  0.71746117  1
  O  O8  1  0.25000000  0.12236977  0.51811185  1
  O  O9  1  0.75000000  0.87763023  0.48188815  1
  O  O10  1  0.25000000  0.62236977  0.98188815  1
  O  O11  1  0.75000000  0.37763023  0.01811185  1
  O  O12  1  0.75000000  0.28842276  0.32987799  1
  O  O13  1  0.25000000  0.71157724  0.67012201  1
  O  O14  1  0.75000000  0.78842276  0.17012201  1
  O  O15  1  0.25000000  0.21157724  0.82987799  1
loop_
_geom_bond_atom_site_label_1
_geom_bond_atom_site_label_2
_geom_bond_distance
_geom_bond_site_symmetry_2
Ba0 O10 2.779770 1_555
Ba0 O10 2.779770 1_655
Ba0 O2 2.788975 1_655
Ba0 O2 2.788975 1_555
Ba0 O13 2.939232 1_555
Ba0 O13 2.939232 1_655
Ba0 O5 2.949070 1_555
Ba0 O7 3.030369 1_555
Ba1 O11 2.779770 1_555
Ba1 O11 2.779770 1_455
Ba1 O3 2.788975 1_455
Ba1 O3 2.788975 1_555
Ba1 O12 2.939232 1_455
Ba1 O12 2.939232 1_555
Ba1 O4 2.949070 1_555
Ba1 O6 3.030369 1_555
Ba2 O8 2.779770 1_555
Ba2 O8 2.779770 1_655
Ba2 O0 2.788975 1_555
Ba2 O0 2.788975 1_655
Ba2 O15 2.939232 1_555
Ba2 O15 2.939232 1_655
Ba2 O7 2.949070 1_545
Ba2 O5 3.030369 1_555
Ba3 O9 2.779770 1_555
Ba3 O9 2.779770 1_455
Ba3 O1 2.788975 1_455
Ba3 O1 2.788975 1_555
Ba3 O14 2.939232 1_555
Ba3 O14 2.939232 1_455
Ba3 O6 2.949070 1_565
Ba3 O4 3.030369 1_555
Nd0 O5 2.329700 1_555
Nd0 O5 2.329700 1_455
Nd0 O15 2.380163 1_555
Nd0 O10 2.420770 1_555
Nd0 O11 2.487319 1_556
Nd0 O11 2.487319 1_456
Nd1 O4 2.329700 1_655
Nd1 O4 2.329700 1_555
Nd1 O14 2.380163 1_555
Nd1 O11 2.420770 1_555
Nd1 O10 2.487319 1_554
Nd1 O10 2.487319 1_654
Nd2 O7 2.329700 1_455
Nd2 O7 2.329700 1_555
Nd2 O13 2.380163 1_555
Nd2 O8 2.420770 1_565
Nd2 O9 2.487319 1_555
Nd2 O9 2.487319 1_455
Nd3 O6 2.329700 1_655
Nd3 O6 2.329700 1_555
Nd3 O12 2.380163 1_555
Nd3 O9 2.420770 1_545
Nd3 O8 2.487319 1_555
Nd3 O8 2.487319 1_655
Nd4 O3 2.353037 1_556
Nd4 O7 2.373559 1_545
Nd4 O15 2.408720 1_555
Nd4 O15 2.408720 1_655
Nd4 O2 2.454597 1_545
Nd4 O2 2.454597 1_645
Nd5 O2 2.353037 1_554
Nd5 O6 2.373559 1_565
Nd5 O14 2.408720 1_455
Nd5 O14 2.408720 1_555
Nd5 O3 2.454597 1_465
Nd5 O3 2.454597 1_565
Nd6 O1 2.353037 1_555
Nd6 O5 2.373559 1_555
Nd6 O13 2.408720 1_555
Nd6 O13 2.408720 1_655
Nd6 O0 2.454597 1_555
Nd6 O0 2.454597 1_655
Nd7 O0 2.353037 1_555
Nd7 O4 2.373559 1_555
Nd7 O12 2.408720 1_555
Nd7 O12 2.408720 1_455
Nd7 O1 2.454597 1_555
Nd7 O1 2.454597 1_455
