# generated using pymatgen
data_Y2MgBi2O7
_symmetry_space_group_name_H-M   'P 1'
_cell_length_a   6.54882137
_cell_length_b   6.31650117
_cell_length_c   5.69786096
_cell_angle_alpha   71.88636126
_cell_angle_beta   103.32184592
_cell_angle_gamma   67.49855725
_symmetry_Int_Tables_number   1
_chemical_formula_structural   Y2MgBi2O7
_chemical_formula_sum   'Y2 Mg1 Bi2 O7'
_cell_volume   189.87012668
_cell_formula_units_Z   1
loop_
 _symmetry_equiv_pos_site_id
 _symmetry_equiv_pos_as_xyz
  1  'x, y, z'
loop_
 _atom_site_type_symbol
 _atom_site_label
 _atom_site_symmetry_multiplicity
 _atom_site_fract_x
 _atom_site_fract_y
 _atom_site_fract_z
 _atom_site_occupancy
  Y  Y0  1  0.66580551  0.66751248  0.98127795  1
  Y  Y1  1  0.30929394  0.33361232  0.09471476  1
  Mg  Mg0  1  0.79929425  0.77106370  0.46884650  1
  Bi  Bi0  1  0.23029599  0.80233525  0.36999035  1
  Bi  Bi1  1  0.75409432  0.17895137  0.71283032  1
  O  O0  1  0.02570170  0.61842031  0.25226689  1
  O  O1  1  0.52937338  0.97445955  0.10027924  1
  O  O2  1  0.44176113  0.51153246  0.78033227  1
  O  O3  1  0.97228354  0.96149412  0.53624936  1
  O  O4  1  0.54203314  0.48073059  0.30735428  1
  O  O5  1  0.93517322  0.45372073  0.82345823  1
  O  O6  1  0.53447289  0.99616711  0.57239984  1
loop_
_geom_bond_atom_site_label_1
_geom_bond_atom_site_label_2
_geom_bond_distance
_geom_bond_site_symmetry_2
Mg0 O3 2.001880 1_555
Mg0 O1 2.014640 1_555
Mg0 O5 2.044537 1_555
Mg0 O6 2.117386 1_555
Mg0 O0 2.267095 1_655
Bi0 O2 2.156102 1_555
Bi0 O3 2.189237 1_455
Bi0 O0 2.203726 1_555
Bi0 O4 2.456435 1_555
Bi1 O4 2.157928 1_555
Bi1 O3 2.227175 1_545
Bi1 O6 2.314507 1_545
Bi1 O2 2.514128 1_555
Bi1 O5 2.593634 1_555
O0 Y0 2.345425 1_454
O0 Y1 2.589718 1_555
O1 Y1 2.157854 1_565
O1 Y0 2.188110 1_554
O2 Y1 2.331293 1_556
O2 Y0 2.338404 1_555
O4 Y0 2.358787 1_554
O4 Y1 2.363844 1_555
O5 Y1 2.251712 1_656
O5 Y0 2.325261 1_555
O6 Y0 2.275874 1_555
O6 Y1 2.502604 1_565
