# generated using pymatgen
data_Na2MgV2Cd2O8
_symmetry_space_group_name_H-M   'P 1'
_cell_length_a   5.86273512
_cell_length_b   5.86273464
_cell_length_c   7.58967646
_cell_angle_alpha   88.45215251
_cell_angle_beta   91.54784783
_cell_angle_gamma   116.17796806
_symmetry_Int_Tables_number   1
_chemical_formula_structural   Na2MgV2Cd2O8
_chemical_formula_sum   'Na2 Mg1 V2 Cd2 O8'
_cell_volume   233.99330884
_cell_formula_units_Z   1
loop_
 _symmetry_equiv_pos_site_id
 _symmetry_equiv_pos_as_xyz
  1  'x, y, z'
loop_
 _atom_site_type_symbol
 _atom_site_label
 _atom_site_symmetry_multiplicity
 _atom_site_fract_x
 _atom_site_fract_y
 _atom_site_fract_z
 _atom_site_occupancy
  Na  Na0  1  0.27951000  0.72049000  0.26215700  1
  Na  Na1  1  0.72049000  0.27951000  0.73784300  1
  Mg  Mg0  1  0.50000000  0.50000000  0.00000000  1
  V  V0  1  0.35514400  0.64485600  0.71070200  1
  V  V1  1  0.64485600  0.35514400  0.28929800  1
  Cd  Cd0  1  0.00000000  0.00000000  0.50000000  1
  Cd  Cd1  1  0.00000000  0.00000000  0.00000000  1
  O  O0  1  0.75602000  0.68684700  0.29068200  1
  O  O1  1  0.24398000  0.31315300  0.70931800  1
  O  O2  1  0.68684700  0.75602000  0.70931800  1
  O  O3  1  0.31315300  0.24398000  0.29068200  1
  O  O4  1  0.22546900  0.77453100  0.55479600  1
  O  O5  1  0.69207600  0.30792400  0.06465300  1
  O  O6  1  0.30792400  0.69207600  0.93534700  1
  O  O7  1  0.77453100  0.22546900  0.44520400  1
loop_
_geom_bond_atom_site_label_1
_geom_bond_atom_site_label_2
_geom_bond_distance
_geom_bond_site_symmetry_2
Na0 O4 2.301816 1_555
Na0 O6 2.505379 1_554
Na1 O7 2.301816 1_555
Na1 O5 2.505379 1_556
Mg0 O6 1.958595 1_554
Mg0 O5 1.958595 1_555
Cd0 O4 2.269343 1_545
Cd0 O7 2.269343 1_455
Cd0 O0 2.378704 1_445
Cd0 O1 2.378704 1_555
Cd0 O2 2.378704 1_445
Cd0 O3 2.378704 1_555
Cd1 O0 2.813984 1_445
Cd1 O1 2.813984 1_554
Cd1 O3 2.813984 1_555
Cd1 O2 2.813984 1_444
O0 V1 1.757595 1_555
O1 V0 1.757595 1_555
O2 V0 1.757595 1_555
O3 V1 1.757595 1_555
O4 V0 1.723041 1_555
O5 V1 1.782937 1_555
O6 V0 1.782937 1_555
O7 V1 1.723041 1_555
