# generated using pymatgen
data_Sm2MgTi2(ClO3)2
_symmetry_space_group_name_H-M   'P 1'
_cell_length_a   3.83999346
_cell_length_b   5.88583653
_cell_length_c   10.07995969
_cell_angle_alpha   69.61021756
_cell_angle_beta   79.01939738
_cell_angle_gamma   70.96133041
_symmetry_Int_Tables_number   1
_chemical_formula_structural   Sm2MgTi2(ClO3)2
_chemical_formula_sum   'Sm2 Mg1 Ti2 Cl2 O6'
_cell_volume   201.10692483
_cell_formula_units_Z   1
loop_
 _symmetry_equiv_pos_site_id
 _symmetry_equiv_pos_as_xyz
  1  'x, y, z'
loop_
 _atom_site_type_symbol
 _atom_site_label
 _atom_site_symmetry_multiplicity
 _atom_site_fract_x
 _atom_site_fract_y
 _atom_site_fract_z
 _atom_site_occupancy
  Sm  Sm0  1  0.23267500  0.76417400  0.77047400  1
  Sm  Sm1  1  0.76732500  0.23582600  0.22952600  1
  Mg  Mg0  1  0.50000000  0.00000000  0.00000000  1
  Ti  Ti0  1  0.60415900  0.22652100  0.56516100  1
  Ti  Ti1  1  0.39584100  0.77347900  0.43483900  1
  Cl  Cl0  1  0.87943000  0.32294900  0.91819200  1
  Cl  Cl1  1  0.12057000  0.67705100  0.08180800  1
  O  O0  1  0.16124500  0.10628700  0.57122300  1
  O  O1  1  0.62250400  0.94722800  0.80776500  1
  O  O2  1  0.83875500  0.89371300  0.42877700  1
  O  O3  1  0.42464400  0.52229700  0.62841500  1
  O  O4  1  0.37749600  0.05277200  0.19223500  1
  O  O5  1  0.57535600  0.47770300  0.37158500  1
loop_
_geom_bond_atom_site_label_1
_geom_bond_atom_site_label_2
_geom_bond_distance
_geom_bond_site_symmetry_2
Mg0 O4 2.012297 1_555
Mg0 O1 2.012297 1_544
Cl0 Mg0 2.583202 1_656
Cl0 Mg0 2.583205 1_556
Cl0 Sm1 2.967289 1_556
Cl0 Sm0 3.104144 1_655
Cl0 Sm0 3.104151 1_555
Cl1 Mg0 2.583202 1_465
Cl1 Mg0 2.583205 1_565
Cl1 Sm0 2.967289 1_554
Cl1 Sm1 3.104144 1_455
Cl1 Sm1 3.104151 1_555
O0 Ti0 2.027990 1_555
O0 Ti0 2.027990 1_455
O0 Sm0 2.279299 1_545
O0 Ti1 2.606139 1_545
O1 Sm0 2.256486 1_655
O1 Sm0 2.256496 1_555
O1 Ti0 2.424120 1_565
O2 Ti1 2.027990 1_555
O2 Ti1 2.027990 1_655
O2 Sm1 2.279299 1_565
O2 Ti0 2.606139 1_565
O3 Ti0 1.932742 1_555
O3 Ti1 1.992660 1_555
O3 Sm0 2.225840 1_555
O4 Sm1 2.256486 1_455
O4 Sm1 2.256496 1_555
O4 Ti1 2.424120 1_545
O5 Ti1 1.932742 1_555
O5 Ti0 1.992660 1_555
O5 Sm1 2.225840 1_555
