# generated using pymatgen
data_MgFe12(OF)12
_symmetry_space_group_name_H-M   'P 1'
_cell_length_a   9.68585300
_cell_length_b   14.67435808
_cell_length_c   3.06883515
_cell_angle_alpha   89.94192080
_cell_angle_beta   89.92622162
_cell_angle_gamma   90.48169105
_symmetry_Int_Tables_number   1
_chemical_formula_structural   MgFe12(OF)12
_chemical_formula_sum   'Mg1 Fe12 O12 F12'
_cell_volume   436.16881315
_cell_formula_units_Z   1
loop_
 _symmetry_equiv_pos_site_id
 _symmetry_equiv_pos_as_xyz
  1  'x, y, z'
loop_
 _atom_site_type_symbol
 _atom_site_label
 _atom_site_symmetry_multiplicity
 _atom_site_fract_x
 _atom_site_fract_y
 _atom_site_fract_z
 _atom_site_occupancy
  Mg  Mg0  1  0.48568400  0.82693200  0.48373400  1
  Fe  Fe0  1  0.99640500  0.02011700  0.00273500  1
  Fe  Fe1  1  0.02562600  0.33343200  0.99578000  1
  Fe  Fe2  1  0.00123600  0.65651200  0.99919900  1
  Fe  Fe3  1  0.23009200  0.16842100  0.49844000  1
  Fe  Fe4  1  0.25267600  0.48423900  0.49344900  1
  Fe  Fe5  1  0.20909000  0.85835600  0.49591900  1
  Fe  Fe6  1  0.49656500  0.34331700  0.99236700  1
  Fe  Fe7  1  0.52645200  0.01455000  0.99365200  1
  Fe  Fe8  1  0.53447200  0.64936500  0.98579300  1
  Fe  Fe9  1  0.75310900  0.16265900  0.49717400  1
  Fe  Fe10  1  0.73720300  0.48597500  0.48847100  1
  Fe  Fe11  1  0.75589700  0.83434500  0.50476000  1
  O  O0  1  0.10209000  0.27215200  0.49592400  1
  O  O1  1  0.08354600  0.94849500  0.50251200  1
  O  O2  1  0.15722600  0.10703800  0.99894900  1
  O  O3  1  0.15059200  0.43918200  0.99384400  1
  O  O4  1  0.34443700  0.87441400  0.99273600  1
  O  O5  1  0.40251700  0.39481300  0.49249400  1
  O  O6  1  0.59027800  0.94375400  0.49367900  1
  O  O7  1  0.62037500  0.59440500  0.48595000  1
  O  O8  1  0.64963500  0.11565700  0.99696800  1
  O  O9  1  0.65851000  0.42615800  0.98901200  1
  O  O10  1  0.61193900  0.77447800  0.98810000  1
  O  O11  1  0.89931300  0.07738200  0.50223300  1
  F  F0  1  0.12244700  0.60085200  0.49750900  1
  F  F1  1  0.12581500  0.77429300  0.99939000  1
  F  F2  1  0.35559900  0.23027900  0.99563900  1
  F  F3  1  0.36111600  0.55597500  0.99078700  1
  F  F4  1  0.40091900  0.06811300  0.49621000  1
  F  F5  1  0.40157200  0.70400300  0.48804200  1
  F  F6  1  0.59601500  0.27053900  0.49381300  1
  F  F7  1  0.84494100  0.24324300  0.99705300  1
  F  F8  1  0.85296700  0.90508500  0.00789300  1
  F  F9  1  0.85967000  0.55028300  0.98870600  1
  F  F10  1  0.90726800  0.39678400  0.49288400  1
  F  F11  1  0.88956400  0.72310200  0.50070100  1
loop_
_geom_bond_atom_site_label_1
_geom_bond_atom_site_label_2
_geom_bond_distance
_geom_bond_site_symmetry_2
Mg0 O6 1.984196 1_555
Mg0 O10 2.101153 1_554
Mg0 O10 2.121782 1_555
Mg0 O4 2.155645 1_554
Mg0 O4 2.193145 1_555
Fe0 O11 1.988073 1_555
Fe0 O11 1.991004 1_554
Fe0 O2 2.004986 1_654
Fe0 O1 2.045563 1_645
Fe0 O1 2.046558 1_644
Fe1 O0 1.929069 1_555
Fe1 O0 1.929839 1_556
Fe1 O3 1.960004 1_555
Fe3 O2 1.911130 1_555
Fe3 O2 1.911548 1_554
Fe3 O0 1.971286 1_555
Fe4 O3 1.938047 1_555
Fe4 O3 1.939205 1_554
Fe4 O5 1.964805 1_555
Fe5 O1 1.804362 1_555
Fe5 O4 2.024687 1_555
Fe5 O4 2.036537 1_554
Fe6 O5 1.940824 1_556
Fe6 O5 1.940852 1_555
Fe6 O9 1.976407 1_555
Fe7 O8 1.896121 1_555
Fe7 O6 1.956059 1_546
Fe7 O6 1.956333 1_545
Fe8 O7 1.925151 1_555
Fe8 O7 1.926323 1_556
Fe8 O10 1.977537 1_555
Fe9 O11 1.897732 1_555
Fe9 O8 1.953193 1_555
Fe9 O8 1.957308 1_554
Fe10 O9 1.921976 1_555
Fe10 O9 1.922312 1_554
Fe10 O7 1.960237 1_555
Fe11 O10 2.210791 1_555
Fe11 O6 2.279359 1_555
Fe11 O10 2.284268 1_554
F0 Fe2 2.098150 1_554
F0 Fe2 2.104726 1_555
F0 Fe4 2.134433 1_555
F1 Fe2 2.099567 1_555
F1 Fe5 2.117638 1_556
F1 Fe5 2.129723 1_555
F2 Fe6 2.139553 1_555
F2 Fe3 2.149167 1_555
F2 Fe3 2.157874 1_556
F3 Fe4 2.128277 1_555
F3 Fe4 2.136552 1_556
F3 Fe8 2.158452 1_555
F4 Fe7 2.108323 1_555
F4 Fe7 2.118605 1_554
F4 Fe3 2.223817 1_555
F5 Mg0 1.973117 1_555
F5 Fe8 2.157104 1_555
F5 Fe8 2.165704 1_554
F6 Fe6 2.103825 1_555
F6 Fe6 2.110518 1_554
F6 Fe9 2.204985 1_555
F7 Fe9 2.126078 1_556
F7 Fe9 2.128923 1_555
F7 Fe1 2.185272 1_655
F8 Fe11 2.064770 1_555
F8 Fe11 2.082349 1_554
F8 Fe0 2.177230 1_565
F9 Fe2 2.067718 1_655
F9 Fe10 2.150204 1_556
F9 Fe10 2.154774 1_555
F10 Fe10 2.112538 1_555
F10 Fe1 2.126502 1_654
F10 Fe1 2.140055 1_655
F11 Fe11 2.092051 1_555
F11 Fe2 2.117572 1_655
F11 Fe2 2.123660 1_654
