# generated using pymatgen
data_Na2Ca4Zr4SiS11O48
_symmetry_space_group_name_H-M   'P 1'
_cell_length_a   18.21897483
_cell_length_b   9.11255035
_cell_length_c   23.72391271
_cell_angle_alpha   89.96983156
_cell_angle_beta   89.99651178
_cell_angle_gamma   120.00055348
_symmetry_Int_Tables_number   1
_chemical_formula_structural   Na2Ca4Zr4SiS11O48
_chemical_formula_sum   'Na6 Ca12 Zr12 Si3 S33 O144'
_cell_volume   3410.97324457
_cell_formula_units_Z   3
loop_
 _symmetry_equiv_pos_site_id
 _symmetry_equiv_pos_as_xyz
  1  'x, y, z'
loop_
 _atom_site_type_symbol
 _atom_site_label
 _atom_site_symmetry_multiplicity
 _atom_site_fract_x
 _atom_site_fract_y
 _atom_site_fract_z
 _atom_site_occupancy
  Na  Na0  1  0.99702425  0.98423086  0.49267103  1
  Na  Na1  1  0.49850812  0.00139509  0.00030738  1
  Na  Na2  1  0.33451202  0.32828406  0.83755253  1
  Na  Na3  1  0.83943615  0.34061126  0.83189171  1
  Na  Na4  1  0.33869390  0.33330226  0.32971754  1
  Na  Na5  1  0.84085194  0.34249509  0.34116552  1
  Ca  Ca0  1  0.00078347  0.99387031  0.35641112  1
  Ca  Ca1  1  0.00249428  0.00227143  0.85769810  1
  Ca  Ca2  1  0.33250323  0.33342759  0.68410895  1
  Ca  Ca3  1  0.83504769  0.33459123  0.68268966  1
  Ca  Ca4  1  0.33771552  0.33436999  0.18524133  1
  Ca  Ca5  1  0.83277837  0.33126053  0.18382513  1
  Ca  Ca6  1  0.33666279  0.33271246  0.98148435  1
  Ca  Ca7  1  0.83436980  0.33474412  0.98312245  1
  Ca  Ca8  1  0.33576188  0.33662414  0.48226296  1
  Ca  Ca9  1  0.83560637  0.33764982  0.48028621  1
  Ca  Ca10  1  0.66637002  0.66682440  0.52064783  1
  Ca  Ca11  1  0.16388584  0.66392108  0.80816355  1
  Zr  Zr0  1  0.49813999  0.00613390  0.35539838  1
  Zr  Zr1  1  0.49773451  0.00554945  0.85531190  1
  Zr  Zr2  1  0.99898427  0.99683569  0.64997967  1
  Zr  Zr3  1  0.49980336  0.00029372  0.64273596  1
  Zr  Zr4  1  0.00010612  0.00100903  0.14781415  1
  Zr  Zr5  1  0.49995822  0.00925398  0.15237417  1
  Zr  Zr6  1  0.16446184  0.66587484  0.01849880  1
  Zr  Zr7  1  0.66249516  0.65398117  0.01931802  1
  Zr  Zr8  1  0.16172284  0.66671167  0.51964543  1
  Zr  Zr9  1  0.15876946  0.66230992  0.31270391  1
  Zr  Zr10  1  0.66631539  0.66339326  0.31083582  1
  Zr  Zr11  1  0.66410738  0.66006615  0.81122407  1
  Si  Si0  1  0.49862532  0.29318157  0.25338287  1
  Si  Si1  1  0.52049795  0.37755369  0.91451506  1
  Si  Si2  1  0.01772095  0.66578410  0.41715865  1
  S  S0  1  0.14479519  0.99851517  0.25020705  1
  S  S1  1  0.64276867  0.99820993  0.25243039  1
  S  S2  1  0.35534308  0.71446226  0.25247148  1
  S  S3  1  0.85418292  0.71002411  0.25022626  1
  S  S4  1  0.00077559  0.29065251  0.25055596  1
  S  S5  1  0.14548180  0.28741664  0.75008850  1
  S  S6  1  0.64272326  0.28584548  0.75134947  1
  S  S7  1  0.99777375  0.70850716  0.75068133  1
  S  S8  1  0.50150529  0.71686488  0.75178796  1
  S  S9  1  0.35887174  0.00214112  0.74955389  1
  S  S10  1  0.85390184  0.99871455  0.75194800  1
  S  S11  1  0.48019191  0.33099846  0.58492874  1
  S  S12  1  0.98331854  0.32951385  0.58346305  1
  S  S13  1  0.18320310  0.03540227  0.58337058  1
  S  S14  1  0.68511716  0.03938072  0.58475333  1
  S  S15  1  0.33242760  0.63096918  0.58327998  1
  S  S16  1  0.83603922  0.63433710  0.58497045  1
  S  S17  1  0.48383005  0.63787645  0.08266614  1
  S  S18  1  0.98307092  0.63422136  0.08374665  1
  S  S19  1  0.33351959  0.03045399  0.08269382  1
  S  S20  1  0.83297054  0.03243280  0.08352897  1
  S  S21  1  0.18365035  0.33411193  0.08351073  1
  S  S22  1  0.68278734  0.32964401  0.08306640  1
  S  S23  1  0.31198599  0.66832871  0.91594683  1
  S  S24  1  0.80781349  0.66538258  0.91597633  1
  S  S25  1  0.02122010  0.37849120  0.91673562  1
  S  S26  1  0.16736030  0.95509859  0.91668377  1
  S  S27  1  0.66536571  0.95152148  0.91466987  1
  S  S28  1  0.30931222  0.95058070  0.41486771  1
  S  S29  1  0.81023601  0.95616588  0.41527758  1
  S  S30  1  0.16857366  0.38533835  0.41650897  1
  S  S31  1  0.66567534  0.37459350  0.41386039  1
  S  S32  1  0.52152281  0.66845121  0.41295333  1
  O  O0  1  0.10596802  0.02281296  0.30008631  1
  O  O1  1  0.59851712  0.01699390  0.30185976  1
  O  O2  1  0.41053648  0.80016108  0.30200717  1
  O  O3  1  0.90600607  0.78662783  0.29984932  1
  O  O4  1  0.49125380  0.16589547  0.30543629  1
  O  O5  1  0.98913477  0.18940649  0.30045443  1
  O  O6  1  0.10603359  0.18549069  0.80034662  1
  O  O7  1  0.59806452  0.17819576  0.80187204  1
  O  O8  1  0.49213737  0.80489025  0.80215325  1
  O  O9  1  0.98613749  0.78795099  0.80067597  1
  O  O10  1  0.41331810  0.02009975  0.80119969  1
  O  O11  1  0.90557819  0.02331804  0.80156368  1
  O  O12  1  0.40456204  0.98649971  0.69963275  1
  O  O13  1  0.89495449  0.97495520  0.69997529  1
  O  O14  1  0.09063161  0.19254457  0.69871306  1
  O  O15  1  0.59066160  0.20676495  0.70057559  1
  O  O16  1  0.00431479  0.81613401  0.69897919  1
  O  O17  1  0.51310346  0.82060431  0.70066823  1
  O  O18  1  0.39801588  0.81984105  0.20067792  1
  O  O19  1  0.89700011  0.81935136  0.19860156  1
  O  O20  1  0.01182384  0.20459745  0.19889998  1
  O  O21  1  0.51250979  0.19684829  0.19677927  1
  O  O22  1  0.08936349  0.97294220  0.19888169  1
  O  O23  1  0.59019556  0.97205897  0.20028153  1
  O  O24  1  0.44048641  0.35484928  0.63482053  1
  O  O25  1  0.94903033  0.36293940  0.63408069  1
  O  O26  1  0.23415566  0.10695107  0.63386535  1
  O  O27  1  0.73602378  0.11779892  0.63507243  1
  O  O28  1  0.31655651  0.52743306  0.63358419  1
  O  O29  1  0.82523161  0.53372409  0.63546852  1
  O  O30  1  0.44955710  0.53454971  0.13301334  1
  O  O31  1  0.94815060  0.52784082  0.13344637  1
  O  O32  1  0.31719170  0.09977630  0.13310815  1
  O  O33  1  0.81527542  0.10303501  0.13350407  1
  O  O34  1  0.23627500  0.37147909  0.13363195  1
  O  O35  1  0.73312755  0.35776601  0.13346254  1
  O  O36  1  0.21735688  0.29570516  0.03354942  1
  O  O37  1  0.71861880  0.29857513  0.03233046  1
  O  O38  1  0.43132622  0.56639383  0.03247683  1
  O  O39  1  0.93014945  0.56614766  0.03359351  1
  O  O40  1  0.35267603  0.13643104  0.03258523  1
  O  O41  1  0.85219132  0.14023704  0.03371916  1
  O  O42  1  0.21836447  0.13989030  0.53287662  1
  O  O43  1  0.71795684  0.14447629  0.53450686  1
  O  O44  1  0.35180372  0.56279692  0.53334477  1
  O  O45  1  0.85535752  0.56733482  0.53450048  1
  O  O46  1  0.42740101  0.29183861  0.53441103  1
  O  O47  1  0.93093017  0.29383050  0.53338433  1
  O  O48  1  0.27240200  0.69543749  0.96765879  1
  O  O49  1  0.76375017  0.68225225  0.96741562  1
  O  O50  1  0.07572268  0.47380620  0.96849536  1
  O  O51  1  0.58096060  0.47015605  0.97083126  1
  O  O52  1  0.16144208  0.84627340  0.96855717  1
  O  O53  1  0.65359868  0.84909285  0.96623230  1
  O  O54  1  0.27111095  0.84917869  0.46655084  1
  O  O55  1  0.77092548  0.85613251  0.46617867  1
  O  O56  1  0.16305457  0.47552346  0.46770251  1
  O  O57  1  0.64961046  0.44209403  0.46503889  1
  O  O58  1  0.08099403  0.67650981  0.47112862  1
  O  O59  1  0.56963034  0.69698597  0.46476100  1
  O  O60  1  0.07407541  0.65366026  0.36111898  1
  O  O61  1  0.56779377  0.64920749  0.36329285  1
  O  O62  1  0.25721180  0.86357639  0.36422708  1
  O  O63  1  0.75722807  0.86055062  0.36396579  1
  O  O64  1  0.17761069  0.48997623  0.36475644  1
  O  O65  1  0.67505052  0.48484695  0.36389525  1
  O  O66  1  0.06098899  0.48143724  0.86668396  1
  O  O67  1  0.57578532  0.49688952  0.86027064  1
  O  O68  1  0.17974297  0.87587691  0.86672864  1
  O  O69  1  0.67546930  0.86712913  0.86397518  1
  O  O70  1  0.26367822  0.65136636  0.86530513  1
  O  O71  1  0.75424128  0.64875558  0.86509235  1
  O  O72  1  0.01814685  0.84145291  0.41903339  1
  O  O73  1  0.51254461  0.82018275  0.40145341  1
  O  O74  1  0.39417293  0.96347168  0.40751805  1
  O  O75  1  0.89544797  0.97779197  0.40992364  1
  O  O76  1  0.09075510  0.22124510  0.41365913  1
  O  O77  1  0.58874283  0.20207175  0.40363954  1
  O  O78  1  0.01634162  0.21461855  0.91590196  1
  O  O79  1  0.51682558  0.18994560  0.90745444  1
  O  O80  1  0.08895068  0.96053948  0.91604404  1
  O  O81  1  0.58635175  0.96388187  0.90799102  1
  O  O82  1  0.39996206  0.82861849  0.91117647  1
  O  O83  1  0.88976171  0.81654011  0.91165649  1
  O  O84  1  0.48927834  0.17366280  0.59608678  1
  O  O85  1  0.99529538  0.17792625  0.59352393  1
  O  O86  1  0.09495585  0.00946742  0.59252597  1
  O  O87  1  0.59681585  0.02114933  0.59692247  1
  O  O88  1  0.40915901  0.80537583  0.59488299  1
  O  O89  1  0.91499503  0.81224141  0.59470267  1
  O  O90  1  0.49655408  0.81310127  0.09166952  1
  O  O91  1  0.99539400  0.80814564  0.09565529  1
  O  O92  1  0.40946005  0.00427478  0.09202541  1
  O  O93  1  0.90878377  0.01061321  0.09590516  1
  O  O94  1  0.09592418  0.18435030  0.09610168  1
  O  O95  1  0.59477884  0.17666161  0.09066040  1
  O  O96  1  0.35404441  0.15740612  0.74704513  1
  O  O97  1  0.84105184  0.14424839  0.74438176  1
  O  O98  1  0.22995668  0.30484962  0.74303233  1
  O  O99  1  0.72677399  0.30409883  0.74844207  1
  O  O100  1  0.42743431  0.54764616  0.74772812  1
  O  O101  1  0.92214669  0.53872790  0.74422870  1
  O  O102  1  0.34628865  0.54685754  0.24673042  1
  O  O103  1  0.84116883  0.53963253  0.24139963  1
  O  O104  1  0.41625886  0.31054115  0.25049340  1
  O  O105  1  0.92851700  0.31677672  0.24207427  1
  O  O106  1  0.22891937  0.14502260  0.24156862  1
  O  O107  1  0.72646507  0.14840300  0.24668088  1
  O  O108  1  0.32432503  0.52345508  0.92323471  1
  O  O109  1  0.81199021  0.50832132  0.91959235  1
  O  O110  1  0.42864815  0.35596340  0.91582487  1
  O  O111  1  0.93657232  0.36187118  0.92374280  1
  O  O112  1  0.24214618  0.12407598  0.92420614  1
  O  O113  1  0.73935533  0.12155437  0.91915069  1
  O  O114  1  0.31997431  0.12059148  0.41882804  1
  O  O115  1  0.81346990  0.12068408  0.41588604  1
  O  O116  1  0.24506134  0.36998797  0.41958544  1
  O  O117  1  0.74010010  0.35475344  0.41566961  1
  O  O118  1  0.43652347  0.51654431  0.41490557  1
  O  O119  1  0.92925154  0.49242005  0.41566184  1
  O  O120  1  0.17047929  0.48241682  0.07116400  1
  O  O121  1  0.67240298  0.48194727  0.07405548  1
  O  O122  1  0.07010746  0.65887961  0.07229748  1
  O  O123  1  0.57093913  0.66062018  0.07160042  1
  O  O124  1  0.25900004  0.85753333  0.07137165  1
  O  O125  1  0.75932351  0.85989177  0.07156100  1
  O  O126  1  0.17326815  0.86330529  0.57358227  1
  O  O127  1  0.66996651  0.86738247  0.57815566  1
  O  O128  1  0.25981277  0.65802314  0.57255188  1
  O  O129  1  0.76394557  0.66080650  0.57787310  1
  O  O130  1  0.07089317  0.47814442  0.57332716  1
  O  O131  1  0.56552294  0.47413301  0.57764584  1
  O  O132  1  0.15167616  0.84124321  0.25588493  1
  O  O133  1  0.65006619  0.84415167  0.25965775  1
  O  O134  1  0.27281681  0.70555865  0.25960984  1
  O  O135  1  0.76993580  0.70049464  0.25622426  1
  O  O136  1  0.08102620  0.46030024  0.25528920  1
  O  O137  1  0.58665016  0.47433896  0.26347727  1
  O  O138  1  0.15051231  0.45222424  0.75119365  1
  O  O139  1  0.65010693  0.45578290  0.75916540  1
  O  O140  1  0.07570743  0.70043689  0.75110841  1
  O  O141  1  0.58019794  0.70568185  0.75973160  1
  O  O142  1  0.27754729  0.84930181  0.75481735  1
  O  O143  1  0.76872751  0.84030311  0.75850465  1
loop_
_geom_bond_atom_site_label_1
_geom_bond_atom_site_label_2
_geom_bond_distance
_geom_bond_site_symmetry_2
Na0 O72 2.322888 1_655
Na0 O75 2.678419 1_555
Na0 O76 2.720588 1_665
Na0 O89 2.863971 1_555
Na0 O86 2.904995 1_665
Na0 O85 2.983474 1_565
Na1 O79 2.708967 1_554
Na1 O82 2.711228 1_544
Na1 O92 2.722048 1_555
Na1 O95 2.724813 1_555
Na1 O90 2.752865 1_545
Na1 O81 2.832353 1_544
Na2 O110 2.453879 1_555
Na2 O112 2.717504 1_555
Na2 O108 2.768270 1_555
Na2 O96 2.778360 1_555
Na2 O100 2.830879 1_555
Na2 O98 2.880409 1_555
Na3 O101 2.670274 1_555
Na3 O99 2.749815 1_555
Na3 O97 2.751250 1_555
Na3 O111 2.752424 1_555
Na3 O109 2.771636 1_555
Na3 O113 2.819601 1_555
Na4 O104 2.421934 1_555
Na4 O118 2.660302 1_555
Na4 O102 2.721937 1_555
Na4 O114 2.770774 1_555
Na4 O106 2.808860 1_555
Na4 O116 2.852703 1_555
Na5 O119 2.320861 1_555
Na5 O115 2.542531 1_555
Na5 O117 2.590542 1_555
Na5 O105 2.916629 1_555
Na5 O103 2.968879 1_555
Na5 O107 2.968936 1_555
Ca0 O72 2.161840 1_555
Ca0 O0 2.240851 1_565
Ca0 O75 2.243759 1_455
Ca0 O3 2.256246 1_455
Ca0 O5 2.314727 1_465
Ca0 O76 2.330532 1_565
Ca1 O6 2.246100 1_555
Ca1 O80 2.267250 1_545
Ca1 O9 2.270218 1_445
Ca1 O78 2.286768 1_555
Ca1 O83 2.289706 1_445
Ca1 O11 2.294926 1_455
Ca2 O24 2.211623 1_555
Ca2 O98 2.241695 1_555
Ca2 O28 2.271128 1_555
Ca2 O26 2.279349 1_555
Ca2 O96 2.362889 1_555
Ca2 O100 2.388947 1_555
Ca3 O27 2.207295 1_555
Ca3 O29 2.214092 1_555
Ca3 O101 2.271813 1_555
Ca3 O25 2.274201 1_555
Ca3 O97 2.312927 1_555
Ca3 O99 2.419264 1_555
Ca4 O104 2.191326 1_555
Ca4 O106 2.295406 1_555
Ca4 O30 2.301094 1_555
Ca4 O32 2.333010 1_555
Ca4 O102 2.366899 1_555
Ca4 O34 2.377792 1_555
Ca5 O33 2.278498 1_555
Ca5 O105 2.280312 1_555
Ca5 O103 2.281877 1_555
Ca5 O35 2.284848 1_555
Ca5 O31 2.299492 1_555
Ca5 O107 2.349751 1_555
Ca6 O110 2.219041 1_555
Ca6 O112 2.270563 1_555
Ca6 O40 2.296429 1_556
Ca6 O38 2.302777 1_556
Ca6 O108 2.317238 1_555
Ca6 O36 2.372824 1_556
Ca7 O111 2.247610 1_555
Ca7 O37 2.285388 1_556
Ca7 O39 2.290952 1_556
Ca7 O41 2.293727 1_556
Ca7 O109 2.362672 1_555
Ca7 O113 2.390481 1_555
Ca8 O46 2.272813 1_555
Ca8 O44 2.280809 1_555
Ca8 O42 2.322369 1_555
Ca8 O116 2.352948 1_555
Ca8 O118 2.366156 1_555
Ca8 O114 2.379049 1_555
Ca9 O119 2.200363 1_555
Ca9 O45 2.326836 1_555
Ca9 O47 2.335730 1_555
Ca9 O43 2.360463 1_555
Ca9 O115 2.368910 1_555
Ca9 O117 2.381852 1_555
Ca10 O55 2.232837 1_555
Ca10 O131 2.249099 1_555
Ca10 O127 2.255798 1_555
Ca10 O129 2.259230 1_555
Ca10 O57 2.324871 1_555
Ca10 O59 2.328982 1_555
Ca11 O140 2.249035 1_555
Ca11 O66 2.255417 1_555
Ca11 O138 2.267205 1_555
Ca11 O68 2.277998 1_555
Ca11 O142 2.289713 1_555
Ca11 O70 2.316135 1_555
O0 S0 1.451380 1_545
O1 S1 1.480713 1_545
O1 Zr0 2.187707 1_555
O2 S2 1.489258 1_555
O2 Zr0 2.163718 1_565
O3 S3 1.451401 1_555
O4 Si0 1.652605 1_555
O4 Zr0 1.928983 1_555
O5 S4 1.449374 1_655
O6 S5 1.460145 1_555
O7 S6 1.503796 1_555
O7 Zr1 2.132018 1_555
O8 S8 1.496040 1_555
O8 Zr1 2.181812 1_565
O9 S7 1.459499 1_555
O10 S9 1.532970 1_555
O10 Zr1 2.057905 1_555
O11 S10 1.453103 1_545
O12 S9 1.494854 1_565
O12 Zr3 2.151775 1_565
O13 S10 1.512835 1_555
O13 Zr2 2.158787 1_555
O14 S5 1.539118 1_555
O14 Zr2 2.080805 1_445
O15 S6 1.479002 1_555
O15 Zr3 2.247545 1_555
O16 S7 1.537013 1_455
O16 Zr2 2.056728 1_455
O17 S8 1.485965 1_555
O17 Zr3 2.241263 1_565
O18 S2 1.512757 1_555
O18 Zr5 2.129267 1_565
O19 S3 1.523962 1_555
O19 Zr4 2.146779 1_665
O20 S4 1.521872 1_555
O20 Zr4 2.136012 1_555
O21 Si0 1.691487 1_555
O21 Zr5 1.922328 1_555
O22 S0 1.523799 1_555
O22 Zr4 2.143242 1_565
O23 S1 1.508981 1_555
O23 Zr5 2.160215 1_565
O24 S11 1.459077 1_555
O25 S12 1.454522 1_555
O26 S13 1.455193 1_555
O27 S14 1.460881 1_555
O28 S15 1.457378 1_555
O29 S16 1.460439 1_555
O30 S17 1.453927 1_555
O31 S18 1.454875 1_555
O32 S19 1.451444 1_555
O33 S20 1.460029 1_555
O34 S21 1.457108 1_555
O35 S22 1.449722 1_555
O36 S21 1.455941 1_555
O37 S22 1.462940 1_555
O38 S17 1.461133 1_555
O39 S18 1.460457 1_555
O40 S19 1.459209 1_555
O41 S20 1.462453 1_555
O42 S13 1.463116 1_555
O43 S14 1.456645 1_555
O44 S15 1.460815 1_555
O45 S16 1.464893 1_555
O46 S11 1.464961 1_555
O47 S12 1.455475 1_555
O48 S23 1.504844 1_555
O48 Zr6 2.205504 1_556
O49 S24 1.510239 1_555
O49 Zr7 2.123633 1_556
O50 S25 1.545008 1_555
O50 Zr6 2.063278 1_556
O51 Si1 1.668031 1_555
O51 Zr7 1.962061 1_556
O52 S26 1.549610 1_555
O52 Zr6 2.048800 1_556
O53 S27 1.487347 1_555
O53 Zr7 2.249305 1_556
O54 S28 1.482294 1_555
O54 Zr8 2.237594 1_555
O55 S29 1.465599 1_555
O56 S30 1.498066 1_555
O56 Zr8 2.144518 1_555
O57 S31 1.455666 1_555
O58 Si2 1.692762 1_555
O58 Zr8 1.904588 1_555
O59 S32 1.455683 1_555
O60 Si2 1.716770 1_555
O60 Zr9 1.893282 1_555
O61 S32 1.509093 1_555
O61 Zr10 2.134214 1_555
O62 S28 1.490470 1_555
O62 Zr9 2.188084 1_555
O63 S29 1.527574 1_555
O63 Zr10 2.141678 1_555
O64 S30 1.511780 1_555
O64 Zr9 2.155464 1_555
O65 S31 1.506913 1_555
O65 Zr10 2.124575 1_555
O66 S25 1.460816 1_555
O67 Si1 1.660191 1_555
O67 Zr11 1.938934 1_555
O68 S26 1.462984 1_555
O69 S27 1.488029 1_555
O69 Zr11 2.186600 1_555
O70 S23 1.451272 1_555
O71 S24 1.511720 1_555
O71 Zr11 2.123639 1_555
O72 Si2 1.597568 1_555
O73 S32 1.496235 1_555
O73 Zr0 2.139333 1_565
O74 S28 1.500958 1_555
O74 Zr0 2.128551 1_565
O75 S29 1.469404 1_555
O76 S30 1.459683 1_555
O77 S31 1.513866 1_555
O77 Zr0 2.068239 1_555
O78 S25 1.451045 1_555
O79 Si1 1.685569 1_555
O79 Zr1 1.972933 1_555
O80 S26 1.454047 1_555
O81 S27 1.507402 1_555
O81 Zr1 2.219347 1_565
O82 S23 1.540768 1_555
O82 Zr1 2.157422 1_565
O83 S24 1.442283 1_555
O84 S11 1.545967 1_555
O84 Zr3 2.014588 1_555
O85 S12 1.521116 1_555
O85 Zr2 2.151771 1_545
O86 S13 1.519176 1_555
O86 Zr2 2.174082 1_445
O87 S14 1.559382 1_555
O87 Zr3 2.001249 1_555
O88 S15 1.527947 1_555
O88 Zr3 2.059121 1_565
O89 S16 1.555347 1_555
O89 Zr2 2.078299 1_555
O90 S17 1.509689 1_555
O90 Zr5 2.272604 1_565
O91 S18 1.512202 1_555
O91 Zr4 2.116296 1_665
O92 S19 1.533036 1_555
O92 Zr5 2.166998 1_555
O93 S20 1.519273 1_555
O93 Zr4 2.106702 1_655
O94 S21 1.524614 1_555
O94 Zr4 2.103524 1_555
O95 S22 1.520271 1_555
O95 Zr5 2.194777 1_555
O96 S9 1.462004 1_555
O97 S10 1.468344 1_545
O98 S5 1.475590 1_555
O99 S6 1.456921 1_555
O100 S8 1.458568 1_555
O101 S7 1.477845 1_555
O102 S2 1.458320 1_555
O103 S3 1.463947 1_555
O104 Si0 1.587139 1_555
O105 S4 1.464124 1_655
O106 S0 1.458378 1_545
O107 S1 1.459364 1_545
O108 S23 1.455962 1_555
O109 S24 1.473210 1_555
O110 Si1 1.584526 1_555
O111 S25 1.481658 1_655
O112 S26 1.470237 1_545
O113 S27 1.463108 1_545
O114 S28 1.464885 1_545
O115 S29 1.470685 1_545
O116 S30 1.470287 1_555
O117 S31 1.455424 1_555
O118 S32 1.474010 1_555
O119 Si2 1.596449 1_655
O120 S21 1.514480 1_555
O120 Zr6 2.132838 1_555
O121 S22 1.506636 1_555
O121 Zr7 2.111247 1_555
O122 S18 1.510739 1_455
O122 Zr6 2.116178 1_555
O123 S17 1.517079 1_555
O123 Zr7 2.103632 1_555
O124 S19 1.503166 1_565
O124 Zr6 2.141179 1_555
O125 S20 1.497961 1_565
O125 Zr7 2.204886 1_555
O126 S13 1.504193 1_565
O126 Zr8 2.125225 1_555
O127 S14 1.457696 1_565
O128 S15 1.483890 1_555
O128 Zr8 2.217442 1_555
O129 S16 1.458953 1_555
O130 S12 1.508811 1_455
O130 Zr8 2.113495 1_555
O131 S11 1.456010 1_555
O132 S0 1.505737 1_555
O132 Zr9 2.168134 1_555
O133 S1 1.484692 1_555
O133 Zr10 2.181866 1_555
O134 S2 1.474405 1_555
O134 Zr9 2.289002 1_555
O135 S3 1.500122 1_555
O135 Zr10 2.172063 1_555
O136 S4 1.509991 1_555
O136 Zr9 2.155373 1_555
O137 Si0 1.645424 1_555
O137 Zr10 1.959235 1_555
O138 S5 1.458403 1_555
O139 S6 1.497502 1_555
O139 Zr11 2.140872 1_555
O140 S7 1.458070 1_455
O141 S8 1.499170 1_555
O141 Zr11 2.153444 1_555
O142 S9 1.444586 1_565
O143 S10 1.508532 1_555
O143 Zr11 2.182167 1_555
