# generated using pymatgen
data_CsCuBr3
_symmetry_space_group_name_H-M   'P 1'
_cell_length_a   7.46993065
_cell_length_b   7.46993065
_cell_length_c   12.73041553
_cell_angle_alpha   90.00000000
_cell_angle_beta   90.00000000
_cell_angle_gamma   117.96976666
_symmetry_Int_Tables_number   1
_chemical_formula_structural   CsCuBr3
_chemical_formula_sum   'Cs4 Cu4 Br12'
_cell_volume   627.38252421
_cell_formula_units_Z   4
loop_
 _symmetry_equiv_pos_site_id
 _symmetry_equiv_pos_as_xyz
  1  'x, y, z'
loop_
 _atom_site_type_symbol
 _atom_site_label
 _atom_site_symmetry_multiplicity
 _atom_site_fract_x
 _atom_site_fract_y
 _atom_site_fract_z
 _atom_site_occupancy
  Cs  Cs0  1  0.01705943  0.01705943  -0.00000000  1
  Cs  Cs1  1  0.98294057  0.98294057  0.50000000  1
  Cs  Cs2  1  0.68000252  0.31999748  0.75000000  1
  Cs  Cs3  1  0.31999748  0.68000252  0.25000000  1
  Cu  Cu0  1  0.66125097  0.35610106  0.12245390  1
  Cu  Cu1  1  0.33874903  0.64389894  0.62245390  1
  Cu  Cu2  1  0.35610106  0.66125097  0.87754610  1
  Cu  Cu3  1  0.64389894  0.33874903  0.37754610  1
  Br  Br0  1  0.93549910  0.46822642  0.48562224  1
  Br  Br1  1  0.06450090  0.53177358  0.98562224  1
  Br  Br2  1  0.49149398  0.49149398  0.50000000  1
  Br  Br3  1  0.50850602  0.50850602  -0.00000000  1
  Br  Br4  1  0.80322370  0.19677630  0.25000000  1
  Br  Br5  1  0.19677630  0.80322370  0.75000000  1
  Br  Br6  1  0.33178895  0.18740445  0.28118596  1
  Br  Br7  1  0.66821105  0.81259555  0.78118596  1
  Br  Br8  1  0.18740445  0.33178895  0.71881404  1
  Br  Br9  1  0.81259555  0.66821105  0.21881404  1
  Br  Br10  1  0.46822642  0.93549910  0.51437776  1
  Br  Br11  1  0.53177358  0.06450090  0.01437776  1
loop_
_geom_bond_atom_site_label_1
_geom_bond_atom_site_label_2
_geom_bond_distance
_geom_bond_site_symmetry_2
Br0 Cu3 2.365790 1_555
Br0 Cu1 3.181532 1_655
Br0 Cs1 3.696496 1_555
Br0 Cs2 3.770123 1_555
Br0 Cs1 3.808558 1_545
Br0 Cs3 3.935403 1_655
Br1 Cu2 2.365790 1_555
Br1 Cu0 3.181532 1_456
Br1 Cs0 3.696496 1_556
Br1 Cs3 3.770123 1_556
Br1 Cs0 3.808558 1_566
Br1 Cs2 3.935403 1_455
Br2 Cu1 2.499306 1_555
Br2 Cu3 2.499306 1_555
Br2 Cs1 3.783144 1_555
Br2 Cs1 3.914832 1_445
Br2 Cs2 3.930023 1_555
Br2 Cs3 3.930023 1_555
Br3 Cu2 2.499306 1_554
Br3 Cu0 2.499306 1_555
Br3 Cs0 3.783144 1_555
Br3 Cs0 3.914832 1_665
Br3 Cs3 3.930023 1_555
Br3 Cs2 3.930023 1_554
Br4 Cu3 2.522211 1_555
Br4 Cu0 2.522211 1_555
Br4 Cs3 3.854975 1_545
Br4 Cs3 3.854975 1_655
Br4 Cs1 4.061298 1_545
Br4 Cs0 4.061298 1_655
Br5 Cu1 2.522211 1_555
Br5 Cu2 2.522211 1_555
Br5 Cs2 3.854975 1_455
Br5 Cs2 3.854975 1_565
Br5 Cs1 4.061298 1_455
Br5 Cs0 4.061298 1_566
Br6 Cu3 2.397111 1_555
Br6 Cu0 2.969690 1_555
Br6 Cs1 3.626229 1_445
Br6 Cs3 3.742912 1_555
Br6 Cs3 3.770712 1_545
Br6 Cs0 4.141728 1_555
Br7 Cu2 2.397111 1_555
Br7 Cu1 2.969690 1_555
Br7 Cs0 3.626229 1_666
Br7 Cs2 3.742912 1_555
Br7 Cs2 3.770712 1_565
Br7 Cs1 4.141728 1_555
Br8 Cu1 2.397111 1_555
Br8 Cu2 2.969690 1_555
Br8 Cs1 3.626229 1_445
Br8 Cs2 3.742912 1_555
Br8 Cs2 3.770712 1_455
Br8 Cs0 4.141728 1_556
Br9 Cu0 2.397111 1_555
Br9 Cu3 2.969690 1_555
Br9 Cs0 3.626229 1_665
Br9 Cs3 3.742912 1_555
Br9 Cs3 3.770712 1_655
Br9 Cs1 4.141728 1_555
Br10 Cu1 2.365790 1_555
Br10 Cu3 3.181532 1_565
Br10 Cs1 3.696496 1_555
Br10 Cs3 3.770123 1_555
Br10 Cs1 3.808558 1_455
Br10 Cs2 3.935403 1_565
Br11 Cu0 2.365790 1_555
Br11 Cu2 3.181532 1_544
Br11 Cs0 3.696496 1_555
Br11 Cs2 3.770123 1_554
Br11 Cs0 3.808558 1_655
Br11 Cs3 3.935403 1_545
