# generated using pymatgen
data_AlZnH4O2F5
_symmetry_space_group_name_H-M   'P 1'
_cell_length_a   7.20733739
_cell_length_b   7.20733739
_cell_length_c   7.20733739
_cell_angle_alpha   126.44364666
_cell_angle_beta   119.27228476
_cell_angle_gamma   85.23940895
_symmetry_Int_Tables_number   1
_chemical_formula_structural   AlZnH4O2F5
_chemical_formula_sum   'Al2 Zn2 H8 O4 F10'
_cell_volume   250.97210281
_cell_formula_units_Z   2
loop_
 _symmetry_equiv_pos_site_id
 _symmetry_equiv_pos_as_xyz
  1  'x, y, z'
loop_
 _atom_site_type_symbol
 _atom_site_label
 _atom_site_symmetry_multiplicity
 _atom_site_fract_x
 _atom_site_fract_y
 _atom_site_fract_z
 _atom_site_occupancy
  Al  Al0  1  0.50000000  0.00000000  0.00000000  1
  Al  Al1  1  0.00000000  0.00000000  0.50000000  1
  Zn  Zn0  1  0.50000000  0.00000000  0.50000000  1
  Zn  Zn1  1  0.00000000  0.50000000  0.50000000  1
  H  H0  1  0.19882200  0.21512600  0.23307400  1
  H  H1  1  0.30117800  0.53425300  0.01630400  1
  H  H2  1  0.01794800  0.78487400  0.98369600  1
  H  H3  1  0.48205200  0.46574700  0.76692600  1
  H  H4  1  0.98205200  0.21512600  0.01630400  1
  H  H5  1  0.69882200  0.46574700  0.98369600  1
  H  H6  1  0.80117800  0.78487400  0.76692600  1
  H  H7  1  0.51794800  0.53425300  0.23307400  1
  O  O0  1  0.06964600  0.27815800  0.20851200  1
  O  O1  1  0.56964600  0.36113300  0.79148800  1
  O  O2  1  0.43035400  0.63886700  0.20851200  1
  O  O3  1  0.93035400  0.72184200  0.79148800  1
  F  F0  1  0.58848500  0.92723200  0.77221900  1
  F  F1  1  0.25000000  0.05785700  0.80785700  1
  F  F2  1  0.75000000  0.94214300  0.19214300  1
  F  F3  1  0.65501200  0.31626600  0.22778100  1
  F  F4  1  0.34498800  0.68373400  0.77221900  1
  F  F5  1  0.91151500  0.68373400  0.33874700  1
  F  F6  1  0.08848500  0.31626600  0.66125300  1
  F  F7  1  0.41151500  0.07276800  0.22778100  1
  F  F8  1  0.84498800  0.07276800  0.66125300  1
  F  F9  1  0.15501200  0.92723200  0.33874700  1
loop_
_geom_bond_atom_site_label_1
_geom_bond_atom_site_label_2
_geom_bond_distance
_geom_bond_site_symmetry_2
Al0 F3 1.822728 1_555
Al0 F4 1.822728 1_544
Al0 F0 1.822730 1_544
Al0 F7 1.822730 1_555
Al0 F2 1.859966 1_545
Al0 F1 1.859966 1_554
Al1 F9 1.822724 1_545
Al1 F8 1.822724 1_455
Al1 F5 1.822730 1_445
Al1 F6 1.822730 1_555
Al1 F1 1.859966 1_555
Al1 F2 1.859966 1_445
H0 O0 0.984214 1_555
H1 O2 0.984214 1_555
H2 O3 0.984214 1_455
H3 O1 0.984214 1_555
H4 O0 0.984214 1_655
H5 O1 0.984214 1_555
H6 O3 0.984214 1_555
H7 O2 0.984214 1_555
O0 Zn1 2.032068 1_555
O1 Zn0 2.032063 1_555
O2 Zn0 2.032063 1_565
O3 Zn1 2.032068 1_655
F0 Zn0 2.115300 1_565
F3 Zn1 2.115305 1_655
F4 Zn1 2.115305 1_555
F5 Zn1 2.115300 1_655
F6 Zn1 2.115300 1_555
F7 Zn0 2.115300 1_555
F8 Zn0 2.115307 1_555
F9 Zn0 2.115307 1_565
