# generated using pymatgen
data_BaPrMgMn2O5
_symmetry_space_group_name_H-M   'P 1'
_cell_length_a   4.11282257
_cell_length_b   4.07937253
_cell_length_c   10.81371069
_cell_angle_alpha   90.00000000
_cell_angle_beta   90.00000000
_cell_angle_gamma   90.00000000
_symmetry_Int_Tables_number   1
_chemical_formula_structural   BaPrMgMn2O5
_chemical_formula_sum   'Ba1 Pr1 Mg1 Mn2 O5'
_cell_volume   181.42957679
_cell_formula_units_Z   1
loop_
 _symmetry_equiv_pos_site_id
 _symmetry_equiv_pos_as_xyz
  1  'x, y, z'
loop_
 _atom_site_type_symbol
 _atom_site_label
 _atom_site_symmetry_multiplicity
 _atom_site_fract_x
 _atom_site_fract_y
 _atom_site_fract_z
 _atom_site_occupancy
  Ba  Ba0  1  0.00000000  0.00000000  0.65782136  1
  Pr  Pr0  1  0.00000000  0.00000000  0.01867974  1
  Mg  Mg0  1  0.50000000  0.00000000  0.36471126  1
  Mn  Mn0  1  0.50000000  0.50000000  0.83680904  1
  Mn  Mn1  1  0.50000000  0.50000000  0.19090424  1
  O  O0  1  0.50000000  0.00000000  0.18031279  1
  O  O1  1  0.00000000  0.50000000  0.80531539  1
  O  O2  1  0.50000000  0.00000000  0.89333816  1
  O  O3  1  0.00000000  0.50000000  0.11086867  1
  O  O4  1  0.50000000  0.50000000  0.39123735  1
loop_
_geom_bond_atom_site_label_1
_geom_bond_atom_site_label_2
_geom_bond_distance
_geom_bond_site_symmetry_2
Ba0 O1 2.589249 1_545
Ba0 O1 2.589249 1_555
Mg0 O0 1.994032 1_555
Mg0 O4 2.059757 1_545
Mg0 O4 2.059757 1_555
Mn0 O1 2.084421 1_555
Mn0 O1 2.084421 1_655
Mn0 O2 2.129318 1_555
Mn0 O2 2.129318 1_565
Mn1 O0 2.042899 1_565
Mn1 O0 2.042899 1_555
Mn1 O4 2.166344 1_555
Mn1 O3 2.231118 1_555
Mn1 O3 2.231118 1_655
O0 Pr0 2.698855 1_655
O0 Pr0 2.698855 1_555
O1 Pr0 3.079573 1_566
O1 Pr0 3.079573 1_556
O2 Pr0 2.462916 1_556
O2 Pr0 2.462916 1_656
O3 Pr0 2.270273 1_555
O3 Pr0 2.270273 1_565
