# generated using pymatgen
data_Na2Hf3Zn5(SO4)12
_symmetry_space_group_name_H-M   'P 1'
_cell_length_a   17.52726427
_cell_length_b   8.75872954
_cell_length_c   22.80064455
_cell_angle_alpha   90.04033258
_cell_angle_beta   89.99380492
_cell_angle_gamma   120.02387353
_symmetry_Int_Tables_number   1
_chemical_formula_structural   Na2Hf3Zn5(SO4)12
_chemical_formula_sum   'Na6 Hf9 Zn15 S36 O144'
_cell_volume   3030.59816000
_cell_formula_units_Z   3
loop_
 _symmetry_equiv_pos_site_id
 _symmetry_equiv_pos_as_xyz
  1  'x, y, z'
loop_
 _atom_site_type_symbol
 _atom_site_label
 _atom_site_symmetry_multiplicity
 _atom_site_fract_x
 _atom_site_fract_y
 _atom_site_fract_z
 _atom_site_occupancy
  Na  Na0  1  0.00033829  0.00033732  0.50134666  1
  Na  Na1  1  0.50318279  0.00470861  0.99692652  1
  Na  Na2  1  0.33533239  0.33649763  0.82988425  1
  Na  Na3  1  0.83119442  0.32995853  0.83047526  1
  Na  Na4  1  0.33092020  0.33248271  0.34170910  1
  Na  Na5  1  0.83567467  0.33356657  0.33352279  1
  Hf  Hf0  1  0.50166870  -0.00039736  0.35616734  1
  Hf  Hf1  1  0.99937330  0.99980611  0.85218160  1
  Hf  Hf2  1  0.50006621  0.00052894  0.64870063  1
  Hf  Hf3  1  0.99602322  0.99699673  0.14798908  1
  Hf  Hf4  1  0.33497488  0.33418925  0.18695800  1
  Hf  Hf5  1  0.16646334  0.66779117  0.01920909  1
  Hf  Hf6  1  0.66677027  0.66507482  0.01961789  1
  Hf  Hf7  1  0.16451754  0.66482772  0.52227694  1
  Hf  Hf8  1  0.66898883  0.66882516  0.52270426  1
  Zn  Zn0  1  0.99835642  0.00069589  0.35251973  1
  Zn  Zn1  1  0.50089796  0.00059983  0.84861971  1
  Zn  Zn2  1  0.00020102  0.00010025  0.65119273  1
  Zn  Zn3  1  0.50591276  0.00568107  0.15037906  1
  Zn  Zn4  1  0.33138183  0.32998898  0.68493369  1
  Zn  Zn5  1  0.83522967  0.33692084  0.68499854  1
  Zn  Zn6  1  0.83163185  0.33327042  0.18467582  1
  Zn  Zn7  1  0.33571660  0.33623112  0.97938598  1
  Zn  Zn8  1  0.83074937  0.33073798  0.98285651  1
  Zn  Zn9  1  0.33077266  0.33171093  0.48582583  1
  Zn  Zn10  1  0.83611920  0.33517877  0.48484386  1
  Zn  Zn11  1  0.16167703  0.65674450  0.31475059  1
  Zn  Zn12  1  0.67180803  0.67592963  0.31281278  1
  Zn  Zn13  1  0.16882785  0.66796736  0.80921923  1
  Zn  Zn14  1  0.66449075  0.66573006  0.80988015  1
  S  S0  1  0.14469923  0.99649921  0.25131098  1
  S  S1  1  0.64677113  0.99921943  0.24969253  1
  S  S2  1  0.35350959  0.71270382  0.24928065  1
  S  S3  1  0.85316236  0.70357659  0.25241984  1
  S  S4  1  -0.00105292  0.29309394  0.25180688  1
  S  S5  1  0.50269999  0.29359174  0.24995954  1
  S  S6  1  0.14727956  0.29409098  0.74928465  1
  S  S7  1  0.64820696  0.29384767  0.75186742  1
  S  S8  1  0.00023023  0.70550820  0.74924057  1
  S  S9  1  0.49834578  0.70385461  0.75181278  1
  S  S10  1  0.35356604  0.00283569  0.75203120  1
  S  S11  1  0.85243397  0.99986777  0.74904521  1
  S  S12  1  0.47659129  0.33211415  0.58311884  1
  S  S13  1  0.97655832  0.32549020  0.58353630  1
  S  S14  1  0.18635264  0.04592685  0.58308299  1
  S  S15  1  0.68936661  0.04788013  0.58354306  1
  S  S16  1  0.33401619  0.62183104  0.58354387  1
  S  S17  1  0.83714413  0.62649099  0.58306063  1
  S  S18  1  0.47783283  0.62805519  0.08174913  1
  S  S19  1  0.97700060  0.62100419  0.08336312  1
  S  S20  1  0.33627988  0.04446464  0.08168080  1
  S  S21  1  0.83279579  0.04638160  0.08329485  1
  S  S22  1  0.18848113  0.33150553  0.08219021  1
  S  S23  1  0.68654316  0.32793065  0.08301417  1
  S  S24  1  0.31339840  0.66621763  0.91552749  1
  S  S25  1  0.81096941  0.66130759  0.91477383  1
  S  S26  1  0.01981618  0.37839491  0.91505791  1
  S  S27  1  0.51950172  0.37270409  0.91516764  1
  S  S28  1  0.16908189  0.96054518  0.91475419  1
  S  S29  1  0.66704358  0.96046340  0.91561662  1
  S  S30  1  0.31000358  0.95930514  0.41466853  1
  S  S31  1  0.81320712  0.96201657  0.41594402  1
  S  S32  1  0.16760755  0.37361295  0.41569031  1
  S  S33  1  0.67017867  0.38099936  0.41509582  1
  S  S34  1  0.01914936  0.66608880  0.41537624  1
  S  S35  1  0.52017895  0.65849746  0.41538128  1
  O  O0  1  0.10890168  0.03546245  0.30307512  1
  O  O1  1  0.60001325  0.02568294  0.30259407  1
  O  O2  1  0.41119530  0.79253022  0.30225729  1
  O  O3  1  0.90944788  0.78652559  0.30374533  1
  O  O4  1  0.48448519  0.17660404  0.30244825  1
  O  O5  1  0.98463658  0.18209020  0.30351023  1
  O  O6  1  0.10171546  0.17671099  0.80305381  1
  O  O7  1  0.60804844  0.18307331  0.80407078  1
  O  O8  1  0.48325130  0.78408499  0.80414204  1
  O  O9  1  0.98684406  0.79687477  0.80303692  1
  O  O10  1  0.40867154  0.03250804  0.80430036  1
  O  O11  1  0.91159891  0.02682995  0.80293094  1
  O  O12  1  0.39914584  0.98089371  0.69841792  1
  O  O13  1  0.89368517  0.97526592  0.69696116  1
  O  O14  1  0.09405397  0.21222471  0.69702730  1
  O  O15  1  0.59123580  0.20175291  0.69833727  1
  O  O16  1  0.01238836  0.81193943  0.69703104  1
  O  O17  1  0.50943913  0.81769264  0.69834682  1
  O  O18  1  0.39476289  0.81514951  0.19659003  1
  O  O19  1  0.89868862  0.81688877  0.19812846  1
  O  O20  1  0.01022953  0.20135842  0.19787174  1
  O  O21  1  0.51189584  0.21225930  0.19675450  1
  O  O22  1  0.09140109  0.97856892  0.19759704  1
  O  O23  1  0.59343098  0.97265568  0.19705219  1
  O  O24  1  0.44043264  0.36771374  0.63524967  1
  O  O25  1  0.94023493  0.36088129  0.63590132  1
  O  O26  1  0.24046294  0.11878801  0.63541026  1
  O  O27  1  0.74323355  0.11996448  0.63571058  1
  O  O28  1  0.31642108  0.51373687  0.63560188  1
  O  O29  1  0.81918187  0.51867358  0.63543719  1
  O  O30  1  0.43579648  0.51487536  0.13551534  1
  O  O31  1  0.94098048  0.51420944  0.13585188  1
  O  O32  1  0.32145673  0.12839680  0.13538404  1
  O  O33  1  0.81634016  0.11884111  0.13605573  1
  O  O34  1  0.24493658  0.36199487  0.13542226  1
  O  O35  1  0.73937506  0.36148506  0.13604721  1
  O  O36  1  0.22659194  0.30003885  0.03051194  1
  O  O37  1  0.72586447  0.29987481  0.03015801  1
  O  O38  1  0.42334873  0.54510157  0.03030390  1
  O  O39  1  0.92417971  0.54973277  0.03049139  1
  O  O40  1  0.34859938  0.15206755  0.03003226  1
  O  O41  1  0.85071914  0.15328984  0.03072413  1
  O  O42  1  0.22535321  0.15118793  0.52961733  1
  O  O43  1  0.72501930  0.15205712  0.53028462  1
  O  O44  1  0.35182706  0.55136305  0.53038318  1
  O  O45  1  0.84938082  0.54752450  0.52949991  1
  O  O46  1  0.42407311  0.29842324  0.52986247  1
  O  O47  1  0.92415744  0.29858125  0.53012772  1
  O  O48  1  0.26720575  0.68675998  0.97014513  1
  O  O49  1  0.77009771  0.68995486  0.96909772  1
  O  O50  1  0.07564490  0.46117392  0.96957276  1
  O  O51  1  0.57512256  0.46394996  0.96964436  1
  O  O52  1  0.15495681  0.84935285  0.96921472  1
  O  O53  1  0.65671734  0.84844870  0.96999534  1
  O  O54  1  0.27040538  0.84992699  0.46790402  1
  O  O55  1  0.76703557  0.84794300  0.46904830  1
  O  O56  1  0.15745334  0.46509469  0.46881516  1
  O  O57  1  0.65465967  0.46144151  0.46820080  1
  O  O58  1  0.07579467  0.68734153  0.46854340  1
  O  O59  1  0.57513387  0.68892027  0.46853578  1
  O  O60  1  0.05966490  0.64118269  0.36259030  1
  O  O61  1  0.56072363  0.63430611  0.36303737  1
  O  O62  1  0.25700371  0.87828313  0.36222698  1
  O  O63  1  0.76016828  0.88077282  0.36337779  1
  O  O64  1  0.18092050  0.48016669  0.36292105  1
  O  O65  1  0.68158411  0.48563935  0.36275639  1
  O  O66  1  0.06178357  0.48717959  0.86403014  1
  O  O67  1  0.56094778  0.48039461  0.86357325  1
  O  O68  1  0.18186145  0.87739044  0.86360479  1
  O  O69  1  0.67918671  0.87701962  0.86397301  1
  O  O70  1  0.25919213  0.64135614  0.86416904  1
  O  O71  1  0.75689968  0.63607976  0.86346422  1
  O  O72  1  0.01351808  0.82874741  0.41297788  1
  O  O73  1  0.51289179  0.82289012  0.40864071  1
  O  O74  1  0.39904753  0.97331662  0.40732841  1
  O  O75  1  0.90011308  0.97333704  0.41387978  1
  O  O76  1  0.08669521  0.19921397  0.41311089  1
  O  O77  1  0.58742012  0.20256288  0.40855653  1
  O  O78  1  0.01347602  0.20245037  0.90947410  1
  O  O79  1  0.51297499  0.19826480  0.91368036  1
  O  O80  1  0.08776706  0.97360665  0.90944962  1
  O  O81  1  0.58618599  0.97315376  0.91401715  1
  O  O82  1  0.40032888  0.82760586  0.91418729  1
  O  O83  1  0.89917687  0.82461978  0.90908325  1
  O  O84  1  0.48954452  0.17764891  0.59274066  1
  O  O85  1  0.98971474  0.17282947  0.58915354  1
  O  O86  1  0.09691843  0.01951952  0.58886687  1
  O  O87  1  0.59910853  0.02176046  0.59296359  1
  O  O88  1  0.41146619  0.80205349  0.59320549  1
  O  O89  1  0.91321057  0.80565475  0.58873658  1
  O  O90  1  0.48844934  0.80324009  0.08998913  1
  O  O91  1  0.99048096  0.80245889  0.09342726  1
  O  O92  1  0.41215349  0.02042528  0.09028509  1
  O  O93  1  0.91098003  0.02101021  0.09266000  1
  O  O94  1  0.10049547  0.17784259  0.09376213  1
  O  O95  1  0.59633868  0.17397654  0.08853279  1
  O  O96  1  0.34524747  0.16114843  0.74398484  1
  O  O97  1  0.84658574  0.16224825  0.74648969  1
  O  O98  1  0.23447390  0.30653277  0.74685782  1
  O  O99  1  0.73549859  0.31006046  0.74347880  1
  O  O100  1  0.41929817  0.52883386  0.74359039  1
  O  O101  1  0.91899953  0.53121355  0.74680157  1
  O  O102  1  0.34635682  0.53140112  0.24338638  1
  O  O103  1  0.84500898  0.52899827  0.24403154  1
  O  O104  1  0.41918229  0.30788192  0.24419569  1
  O  O105  1  0.91990976  0.30947225  0.24335340  1
  O  O106  1  0.23535771  0.16040088  0.24075370  1
  O  O107  1  0.73351128  0.16155863  0.24697635  1
  O  O108  1  0.32103763  0.50706707  0.92356095  1
  O  O109  1  0.82334236  0.50884401  0.92303659  1
  O  O110  1  0.43180002  0.35590924  0.92279990  1
  O  O111  1  0.93173909  0.35505462  0.92377125  1
  O  O112  1  0.24564478  0.13684573  0.92333411  1
  O  O113  1  0.74639629  0.13593573  0.92333228  1
  O  O114  1  0.32362688  0.13777427  0.42224011  1
  O  O115  1  0.82135924  0.13676475  0.42345103  1
  O  O116  1  0.24692508  0.35597865  0.42270564  1
  O  O117  1  0.74561687  0.35507201  0.42295115  1
  O  O118  1  0.43124438  0.50684737  0.42294105  1
  O  O119  1  0.93154534  0.50798767  0.42269353  1
  O  O120  1  0.17898520  0.48982145  0.07568807  1
  O  O121  1  0.67751961  0.48967005  0.07325862  1
  O  O122  1  0.06766283  0.64610993  0.07332412  1
  O  O123  1  0.56541956  0.64063348  0.07598527  1
  O  O124  1  0.25427224  0.86852011  0.07556118  1
  O  O125  1  0.75539113  0.86576745  0.07367648  1
  O  O126  1  0.17815022  0.86619367  0.57288673  1
  O  O127  1  0.67652054  0.86576737  0.57363129  1
  O  O128  1  0.25608218  0.64625124  0.57318750  1
  O  O129  1  0.75524268  0.64432023  0.57334549  1
  O  O130  1  0.06698479  0.48903859  0.57368065  1
  O  O131  1  0.56707052  0.48857773  0.57280930  1
  O  O132  1  0.15599185  0.84424219  0.25575075  1
  O  O133  1  0.65358297  0.84230862  0.25919414  1
  O  O134  1  0.26654179  0.68817331  0.25860320  1
  O  O135  1  0.76755102  0.69266233  0.25576178  1
  O  O136  1  0.07956605  0.46477926  0.25518502  1
  O  O137  1  0.57722973  0.46725709  0.25924562  1
  O  O138  1  0.15471368  0.46524666  0.75879970  1
  O  O139  1  0.65331505  0.46477704  0.75567734  1
  O  O140  1  0.07815922  0.69042260  0.75900940  1
  O  O141  1  0.57875824  0.69369532  0.75535321  1
  O  O142  1  0.26792501  0.84220034  0.75546486  1
  O  O143  1  0.76702046  0.84376581  0.75897110  1
loop_
_geom_bond_atom_site_label_1
_geom_bond_atom_site_label_2
_geom_bond_distance
_geom_bond_site_symmetry_2
Na0 O86 2.567389 1_555
Na0 O85 2.569557 1_455
Na0 O89 2.570638 1_445
Na0 O75 2.589098 1_445
Na0 O72 2.591303 1_545
Na0 O76 2.595865 1_555
Na1 O81 2.483443 1_545
Na1 O79 2.493884 1_555
Na1 O82 2.532430 1_545
Na1 O95 2.607773 1_556
Na1 O90 2.689251 1_546
Na1 O92 2.704494 1_556
Na2 O98 2.512627 1_555
Na2 O100 2.529448 1_555
Na2 O96 2.547106 1_555
Na2 O110 2.662432 1_555
Na2 O108 2.688256 1_555
Na2 O112 2.706037 1_555
Na3 O97 2.507977 1_555
Na3 O101 2.530768 1_555
Na3 O99 2.546750 1_555
Na3 O113 2.656367 1_555
Na3 O109 2.671879 1_555
Na3 O111 2.700268 1_555
Na4 O116 2.433593 1_555
Na4 O114 2.466252 1_555
Na4 O118 2.482766 1_555
Na4 O102 2.769136 1_555
Na4 O104 2.777614 1_555
Na4 O106 2.800943 1_555
Na5 O107 2.582060 1_555
Na5 O119 2.592026 1_555
Na5 O105 2.600320 1_555
Na5 O115 2.609692 1_555
Na5 O103 2.616269 1_555
Na5 O117 2.642150 1_555
Hf0 O1 2.030108 1_555
Hf0 O77 2.041958 1_555
Hf0 O73 2.042813 1_545
Hf0 O74 2.057781 1_545
Hf0 O2 2.105735 1_545
Hf0 O4 2.112908 1_555
Hf1 O11 2.012212 1_565
Hf1 O9 2.017344 1_555
Hf1 O6 2.023317 1_665
Hf1 O83 2.104153 1_555
Hf1 O78 2.115559 1_665
Hf1 O80 2.124761 1_655
Hf2 O15 2.029731 1_555
Hf2 O17 2.034386 1_545
Hf2 O12 2.034421 1_545
Hf2 O88 2.080963 1_545
Hf2 O87 2.083246 1_555
Hf2 O84 2.087535 1_555
Hf3 O19 2.003715 1_555
Hf3 O20 2.027481 1_665
Hf3 O93 2.042558 1_565
Hf3 O91 2.071661 1_555
Hf3 O22 2.090629 1_655
Hf3 O94 2.119057 1_665
Hf4 O30 2.050995 1_555
Hf4 O106 2.052455 1_555
Hf4 O32 2.063385 1_555
Hf4 O104 2.067798 1_555
Hf4 O34 2.077487 1_555
Hf4 O102 2.081078 1_555
Hf5 O48 2.025626 1_554
Hf5 O52 2.047560 1_554
Hf5 O50 2.050471 1_554
Hf5 O122 2.056220 1_555
Hf5 O124 2.097622 1_555
Hf5 O120 2.116969 1_555
Hf6 O51 2.036577 1_554
Hf6 O53 2.043674 1_554
Hf6 O121 2.045477 1_555
Hf6 O49 2.063782 1_554
Hf6 O125 2.070467 1_555
Hf6 O123 2.114837 1_555
Hf7 O130 2.008677 1_555
Hf7 O126 2.018613 1_555
Hf7 O128 2.052201 1_555
Hf7 O58 2.065372 1_555
Hf7 O56 2.083722 1_555
Hf7 O54 2.145012 1_555
Hf8 O129 1.997561 1_555
Hf8 O127 2.027455 1_555
Hf8 O131 2.041686 1_555
Hf8 O55 2.053150 1_555
Hf8 O57 2.108827 1_555
Hf8 O59 2.133770 1_555
O0 S0 1.454885 1_545
O0 Zn0 2.127766 1_455
O1 S1 1.539398 1_545
O2 S2 1.503925 1_555
O3 S3 1.467097 1_555
O3 Zn0 2.063030 1_565
O4 S5 1.502801 1_555
O5 S4 1.468138 1_655
O5 Zn0 2.053203 1_555
O6 S6 1.541978 1_555
O7 S7 1.473626 1_555
O7 Zn1 2.027638 1_555
O8 S9 1.473835 1_555
O8 Zn1 2.032438 1_565
O9 S8 1.544808 1_655
O10 S10 1.472868 1_555
O10 Zn1 2.040852 1_555
O11 S11 1.547729 1_545
O12 S10 1.523996 1_565
O13 S11 1.461106 1_555
O13 Zn2 2.053109 1_665
O14 S6 1.460737 1_555
O14 Zn2 2.046757 1_555
O15 S7 1.526520 1_555
O16 S8 1.460891 1_555
O16 Zn2 2.051534 1_565
O17 S9 1.525032 1_555
O18 S2 1.457165 1_555
O18 Zn3 2.106888 1_565
O19 S3 1.537228 1_555
O20 S4 1.534456 1_555
O21 S5 1.455584 1_555
O21 Zn3 2.051905 1_555
O22 S0 1.500140 1_555
O23 S1 1.466601 1_555
O23 Zn3 2.003492 1_565
O24 S12 1.452156 1_555
O24 Zn4 2.100912 1_555
O25 S13 1.457309 1_555
O25 Zn5 2.073124 1_555
O26 S14 1.457293 1_555
O26 Zn4 2.069752 1_555
O27 S15 1.451716 1_555
O27 Zn5 2.098808 1_555
O28 S16 1.452465 1_555
O28 Zn4 2.085432 1_555
O29 S17 1.456381 1_555
O29 Zn5 2.083505 1_555
O30 S18 1.516244 1_555
O31 S19 1.454734 1_555
O31 Zn6 2.094411 1_555
O32 S20 1.515603 1_555
O33 S21 1.454362 1_555
O33 Zn6 2.078826 1_555
O34 S22 1.502977 1_555
O35 S23 1.460610 1_555
O35 Zn6 2.075045 1_555
O36 S22 1.447117 1_555
O36 Zn7 2.123889 1_554
O37 S23 1.468556 1_555
O37 Zn8 2.029393 1_554
O38 S18 1.456172 1_555
O38 Zn7 2.058948 1_554
O39 S19 1.456327 1_555
O39 Zn8 2.096325 1_554
O40 S20 1.455854 1_555
O40 Zn7 2.086513 1_554
O41 S21 1.455807 1_555
O41 Zn8 2.067887 1_554
O42 S14 1.474477 1_555
O42 Zn9 1.997308 1_555
O43 S15 1.458923 1_555
O43 Zn10 2.077082 1_555
O44 S16 1.462623 1_555
O44 Zn9 2.038738 1_555
O45 S17 1.470698 1_555
O45 Zn10 2.028459 1_555
O46 S12 1.461774 1_555
O46 Zn9 2.060402 1_555
O47 S13 1.471468 1_555
O47 Zn10 2.011385 1_555
O48 S24 1.544000 1_555
O49 S25 1.513132 1_555
O50 S26 1.522232 1_555
O51 S27 1.533334 1_555
O52 S28 1.520538 1_555
O53 S29 1.535112 1_555
O54 S30 1.486230 1_555
O55 S31 1.520392 1_555
O56 S32 1.510694 1_555
O57 S33 1.492322 1_555
O58 S34 1.518193 1_555
O59 S35 1.486797 1_555
O60 S34 1.467950 1_555
O60 Zn11 2.039901 1_555
O61 S35 1.457541 1_555
O61 Zn12 2.127179 1_555
O62 S30 1.461364 1_555
O62 Zn11 2.116980 1_555
O63 S31 1.464283 1_555
O63 Zn12 2.040485 1_555
O64 S32 1.468560 1_555
O64 Zn11 2.058281 1_555
O65 S33 1.456790 1_555
O65 Zn12 2.095830 1_555
O66 S26 1.450029 1_555
O66 Zn13 2.149077 1_555
O67 S27 1.454979 1_555
O67 Zn14 2.116988 1_555
O68 S28 1.450088 1_555
O68 Zn13 2.128840 1_555
O69 S29 1.456153 1_555
O69 Zn14 2.128886 1_555
O70 S24 1.454023 1_555
O70 Zn13 2.121998 1_555
O71 S25 1.451177 1_555
O71 Zn14 2.145991 1_555
O72 S34 1.477594 1_555
O72 Zn0 2.154655 1_465
O73 S35 1.515756 1_555
O74 S30 1.512331 1_555
O75 S31 1.476857 1_555
O75 Zn0 2.137020 1_565
O76 S32 1.476489 1_555
O76 Zn0 2.152252 1_455
O77 S33 1.516554 1_555
O78 S26 1.493904 1_555
O79 S27 1.474325 1_555
O79 Zn1 2.207362 1_555
O80 S28 1.490708 1_555
O81 S29 1.476425 1_555
O81 Zn1 2.208258 1_565
O82 S24 1.471503 1_555
O82 Zn1 2.228851 1_565
O83 S25 1.496759 1_555
O84 S12 1.495953 1_555
O85 S13 1.471820 1_555
O85 Zn2 2.145891 1_655
O86 S14 1.471474 1_555
O86 Zn2 2.152516 1_555
O87 S15 1.496310 1_555
O88 S16 1.496072 1_555
O89 S17 1.470669 1_555
O89 Zn2 2.156760 1_665
O90 S18 1.462250 1_555
O90 Zn3 2.141759 1_565
O91 S19 1.502701 1_555
O92 S20 1.460022 1_555
O92 Zn3 2.192661 1_555
O93 S21 1.509213 1_555
O94 S22 1.477366 1_555
O95 S23 1.483418 1_555
O95 Zn3 2.082735 1_555
O96 S10 1.476587 1_555
O96 Zn4 2.102696 1_555
O97 S11 1.477395 1_545
O97 Zn5 2.157259 1_555
O98 S6 1.477802 1_555
O98 Zn4 2.138080 1_555
O99 S7 1.476534 1_555
O99 Zn5 2.115944 1_555
O100 S9 1.476114 1_555
O100 Zn4 2.123184 1_555
O101 S8 1.478343 1_655
O101 Zn5 2.129344 1_555
O102 S2 1.534907 1_555
O103 S3 1.475134 1_555
O103 Zn6 2.102381 1_555
O104 S5 1.535960 1_555
O105 S4 1.475051 1_655
O105 Zn6 2.133313 1_555
O106 S0 1.536670 1_545
O107 S1 1.474376 1_545
O107 Zn6 2.156734 1_555
O108 S24 1.477070 1_555
O108 Zn7 2.076841 1_555
O109 S25 1.468316 1_555
O109 Zn8 2.125186 1_555
O110 S27 1.479362 1_555
O110 Zn7 2.059082 1_555
O111 S26 1.465810 1_655
O111 Zn8 2.148498 1_555
O112 S28 1.466111 1_545
O112 Zn7 2.100892 1_555
O113 S29 1.479194 1_545
O113 Zn8 2.100428 1_555
O114 S30 1.468471 1_545
O114 Zn9 2.187839 1_555
O115 S31 1.474160 1_545
O115 Zn10 2.143184 1_555
O116 S32 1.482266 1_555
O116 Zn9 2.142356 1_555
O117 S33 1.460315 1_555
O117 Zn10 2.194416 1_555
O118 S35 1.466999 1_555
O118 Zn9 2.193007 1_555
O119 S34 1.474967 1_655
O119 Zn10 2.136726 1_555
O120 S22 1.484493 1_555
O121 S23 1.518552 1_555
O122 S19 1.508700 1_455
O123 S18 1.488905 1_555
O124 S20 1.497805 1_565
O125 S21 1.497692 1_565
O126 S14 1.525102 1_565
O127 S15 1.511999 1_565
O128 S16 1.503296 1_555
O129 S17 1.535770 1_555
O130 S13 1.530637 1_455
O131 S12 1.507899 1_555
O132 S0 1.446441 1_555
O132 Zn11 2.164126 1_555
O133 S1 1.454176 1_555
O133 Zn12 2.046633 1_555
O134 S2 1.444683 1_555
O134 Zn11 2.141626 1_555
O135 S3 1.457045 1_555
O135 Zn12 2.069614 1_555
O136 S4 1.461960 1_555
O136 Zn11 2.078086 1_555
O137 S5 1.440880 1_555
O137 Zn12 2.132025 1_555
O138 S6 1.454455 1_555
O138 Zn13 2.023133 1_555
O139 S7 1.456923 1_555
O139 Zn14 2.077407 1_555
O140 S8 1.453759 1_555
O140 Zn13 2.046522 1_555
O141 S9 1.458222 1_555
O141 Zn14 2.057377 1_555
O142 S10 1.457914 1_565
O142 Zn13 2.048783 1_555
O143 S11 1.453900 1_555
O143 Zn14 2.050908 1_555
