# generated using pymatgen
data_MgMn(CoO3)2
_symmetry_space_group_name_H-M   'P 1'
_cell_length_a   6.74646527
_cell_length_b   2.94367004
_cell_length_c   6.27772152
_cell_angle_alpha   91.41164247
_cell_angle_beta   109.48628028
_cell_angle_gamma   77.61197925
_symmetry_Int_Tables_number   1
_chemical_formula_structural   MgMn(CoO3)2
_chemical_formula_sum   'Mg1 Mn1 Co2 O6'
_cell_volume   114.64493084
_cell_formula_units_Z   1
loop_
 _symmetry_equiv_pos_site_id
 _symmetry_equiv_pos_as_xyz
  1  'x, y, z'
loop_
 _atom_site_type_symbol
 _atom_site_label
 _atom_site_symmetry_multiplicity
 _atom_site_fract_x
 _atom_site_fract_y
 _atom_site_fract_z
 _atom_site_occupancy
  Mg  Mg0  1  0.80127657  0.09845078  0.24101638  1
  Mn  Mn0  1  0.33127588  0.34608542  0.33326396  1
  Co  Co0  1  0.00780769  0.98824063  0.98024865  1
  Co  Co1  1  0.66629840  0.65918207  0.68105613  1
  O  O0  1  0.00994174  0.49622736  0.21374924  1
  O  O1  1  0.35599353  0.84336513  0.54212522  1
  O  O2  1  0.70168576  0.11876273  0.90135514  1
  O  O3  1  0.31422923  0.84471187  0.12312166  1
  O  O4  1  0.63980818  0.21404887  0.44287058  1
  O  O5  1  0.97168302  0.49509215  0.78077503  1
loop_
_geom_bond_atom_site_label_1
_geom_bond_atom_site_label_2
_geom_bond_distance
_geom_bond_site_symmetry_2
Mg0 O4 1.910201 1_555
Mg0 O2 2.008714 1_554
Mg0 O0 2.056393 1_645
Mg0 O0 2.063983 1_655
Mn0 O4 1.915122 1_555
Mn0 O1 1.937542 1_555
Mn0 O1 1.944418 1_545
Mn0 O3 1.951268 1_545
Mn0 O3 1.956968 1_555
Mn0 O0 1.994495 1_555
Co0 O5 1.893675 1_465
Co0 O5 1.895642 1_455
Co0 O2 1.909094 1_465
Co0 O3 1.914010 1_556
Co0 O0 2.066917 1_566
Co0 O0 2.080420 1_556
Co1 O5 1.896666 1_555
Co1 O2 1.904193 1_565
Co1 O1 1.937879 1_555
Co1 O4 1.952014 1_555
Co1 O2 2.055598 1_555
Co1 O4 2.179993 1_565
