# generated using pymatgen
data_Sr3MgMn2O7
_symmetry_space_group_name_H-M   'P 1'
_cell_length_a   3.81717679
_cell_length_b   5.15269467
_cell_length_c   10.32115669
_cell_angle_alpha   104.45491505
_cell_angle_beta   100.65646806
_cell_angle_gamma   90.00000311
_symmetry_Int_Tables_number   1
_chemical_formula_structural   Sr3MgMn2O7
_chemical_formula_sum   'Sr3 Mg1 Mn2 O7'
_cell_volume   192.96032597
_cell_formula_units_Z   1
loop_
 _symmetry_equiv_pos_site_id
 _symmetry_equiv_pos_as_xyz
  1  'x, y, z'
loop_
 _atom_site_type_symbol
 _atom_site_label
 _atom_site_symmetry_multiplicity
 _atom_site_fract_x
 _atom_site_fract_y
 _atom_site_fract_z
 _atom_site_occupancy
  Sr  Sr0  1  0.49999900  0.50000000  0.00000000  1
  Sr  Sr1  1  0.32164435  0.32164635  0.64329069  1
  Sr  Sr2  1  0.67835565  0.67835365  0.35670831  1
  Mg  Mg0  1  0.50000000  0.00000000  0.00000000  1
  Mn  Mn0  1  0.10919769  0.10919769  0.21839439  1
  Mn  Mn1  1  0.89080231  0.89080231  0.78160561  1
  O  O0  1  0.90824761  0.40824861  0.81649721  1
  O  O1  1  0.40258857  0.90258857  0.80517715  1
  O  O2  1  0.09175239  0.59175139  0.18350279  1
  O  O3  1  0.59741143  0.09741143  0.19482285  1
  O  O4  1  0.79825866  0.79826066  0.59651931  1
  O  O5  1  -0.00000000  0.00000000  0.00000000  1
  O  O6  1  0.20173934  0.20173934  0.40348069  1
loop_
_geom_bond_atom_site_label_1
_geom_bond_atom_site_label_2
_geom_bond_distance
_geom_bond_site_symmetry_2
Mg0 O5 1.908588 1_555
Mg0 O5 1.908588 1_655
Mg0 O1 1.911310 1_544
Mg0 O3 1.911310 1_555
Mg0 Sr0 2.576347 1_545
Mg0 Sr0 2.576347 1_555
Mn0 O6 1.815790 1_555
Mn0 O3 1.922545 1_555
Mn0 O3 1.922549 1_455
Mn0 O5 2.142559 1_555
Mn0 O2 2.598985 1_555
Mn0 O2 2.598990 1_545
Mn1 O4 1.815790 1_555
Mn1 O1 1.922545 1_555
Mn1 O1 1.922549 1_655
Mn1 O5 2.142559 1_666
Mn1 O0 2.598985 1_555
Mn1 O0 2.598990 1_565
O0 Sr1 2.555413 1_555
O0 Sr1 2.555413 1_655
O0 Sr0 2.623667 1_656
O0 Sr0 2.623667 1_556
O2 Sr2 2.555405 1_455
O2 Sr2 2.555408 1_555
O2 Sr0 2.623661 1_555
O2 Sr0 2.623672 1_455
O4 Sr2 2.352667 1_555
O6 Sr1 2.352657 1_555
