# generated using pymatgen
data_Na4SnTe4
_symmetry_space_group_name_H-M   'P 1'
_cell_length_a   8.65481270
_cell_length_b   8.81887442
_cell_length_c   15.33822482
_cell_angle_alpha   90.00000000
_cell_angle_beta   90.00000000
_cell_angle_gamma   90.00000000
_symmetry_Int_Tables_number   1
_chemical_formula_structural   Na4SnTe4
_chemical_formula_sum   'Na16 Sn4 Te16'
_cell_volume   1170.70084323
_cell_formula_units_Z   4
loop_
 _symmetry_equiv_pos_site_id
 _symmetry_equiv_pos_as_xyz
  1  'x, y, z'
loop_
 _atom_site_type_symbol
 _atom_site_label
 _atom_site_symmetry_multiplicity
 _atom_site_fract_x
 _atom_site_fract_y
 _atom_site_fract_z
 _atom_site_occupancy
  Na  Na0  1  0.98685991  0.95531213  0.58811927  1
  Na  Na1  1  0.48685991  0.54468787  0.41188073  1
  Na  Na2  1  0.01314009  0.45531213  0.91188073  1
  Na  Na3  1  0.51314009  0.04468787  0.08811927  1
  Na  Na4  1  0.62557459  0.76330599  0.63433949  1
  Na  Na5  1  0.12557459  0.73669401  0.36566051  1
  Na  Na6  1  0.37442541  0.26330599  0.86566051  1
  Na  Na7  1  0.87442541  0.23669401  0.13433949  1
  Na  Na8  1  0.66761311  0.62946321  0.13226243  1
  Na  Na9  1  0.16761311  0.87053679  0.86773757  1
  Na  Na10  1  0.33238689  0.12946321  0.36773757  1
  Na  Na11  1  0.83238689  0.37053679  0.63226243  1
  Na  Na12  1  0.88196122  0.35957816  0.37175995  1
  Na  Na13  1  0.38196122  0.14042184  0.62824005  1
  Na  Na14  1  0.11803878  0.85957816  0.12824005  1
  Na  Na15  1  0.61803878  0.64042184  0.87175995  1
  Sn  Sn0  1  0.77814078  0.06620264  0.87366657  1
  Sn  Sn1  1  0.27814078  0.43379736  0.12633343  1
  Sn  Sn2  1  0.22185922  0.56620264  0.62633343  1
  Sn  Sn3  1  0.72185922  0.93379736  0.37366657  1
  Te  Te0  1  0.81409658  0.68356883  0.46909013  1
  Te  Te1  1  0.31409658  0.81643117  0.53090987  1
  Te  Te2  1  0.18590342  0.18356883  0.03090987  1
  Te  Te3  1  0.68590342  0.31643117  0.96909013  1
  Te  Te4  1  0.48557367  0.84644058  0.26341301  1
  Te  Te5  1  0.98557367  0.65355942  0.73658699  1
  Te  Te6  1  0.51442633  0.34644058  0.23658699  1
  Te  Te7  1  0.01442633  0.15355942  0.76341301  1
  Te  Te8  1  0.64563799  0.16541312  0.48800884  1
  Te  Te9  1  0.14563799  0.33458688  0.51199116  1
  Te  Te10  1  0.35436201  0.66541312  0.01199116  1
  Te  Te11  1  0.85436201  0.83458688  0.98800884  1
  Te  Te12  1  0.98389063  0.04200453  0.29025047  1
  Te  Te13  1  0.48389063  0.45799547  0.70974953  1
  Te  Te14  1  0.01610937  0.54200453  0.20974953  1
  Te  Te15  1  0.51610937  0.95799547  0.79025047  1
loop_
_geom_bond_atom_site_label_1
_geom_bond_atom_site_label_2
_geom_bond_distance
_geom_bond_site_symmetry_2
Na0 Te1 3.207999 1_655
Na0 Te7 3.215994 1_665
Na0 Te0 3.363326 1_555
Na0 Te5 3.502494 1_555
Na1 Te0 3.207999 1_555
Na1 Te6 3.215994 1_555
Na1 Te1 3.363326 1_555
Na1 Te4 3.502494 1_555
Na2 Te3 3.207999 1_455
Na2 Te5 3.215994 1_455
Na2 Te2 3.363326 1_556
Na2 Te7 3.502494 1_555
Na3 Te2 3.207999 1_555
Na3 Te4 3.215994 1_545
Na3 Te3 3.363326 1_554
Na3 Te6 3.502494 1_555
Na4 Te15 3.092611 1_555
Na4 Te0 3.095324 1_555
Na4 Te1 3.162830 1_555
Na4 Te13 3.176644 1_555
Na4 Te5 3.619946 1_555
Na5 Te14 3.092611 1_555
Na5 Te1 3.095324 1_555
Na5 Te0 3.162830 1_455
Na5 Te12 3.176644 1_465
Na5 Te4 3.619946 1_555
Na6 Te13 3.092611 1_555
Na6 Te2 3.095324 1_556
Na6 Te3 3.162830 1_555
Na6 Te15 3.176644 1_545
Na6 Te7 3.619946 1_555
Na7 Te12 3.092611 1_555
Na7 Te3 3.095324 1_554
Na7 Te2 3.162830 1_655
Na7 Te14 3.176644 1_655
Na7 Te6 3.619946 1_555
Na8 Te4 3.192229 1_555
Na8 Te6 3.247763 1_555
Na8 Te11 3.283330 1_554
Na8 Te10 3.294515 1_555
Na8 Te14 3.332376 1_655
Na8 Te3 3.729583 1_554
Na9 Te5 3.192229 1_455
Na9 Te7 3.247763 1_565
Na9 Te10 3.283330 1_556
Na9 Te11 3.294515 1_455
Na9 Te15 3.332376 1_555
Na9 Te2 3.729583 1_566
Na10 Te6 3.192229 1_555
Na10 Te4 3.247763 1_545
Na10 Te9 3.283330 1_555
Na10 Te8 3.294515 1_555
Na10 Te12 3.332376 1_455
Na10 Te1 3.729583 1_545
Na11 Te7 3.192229 1_655
Na11 Te5 3.247763 1_555
Na11 Te8 3.283330 1_555
Na11 Te9 3.294515 1_655
Na11 Te13 3.332376 1_555
Na11 Te0 3.729583 1_555
Na12 Te9 3.143691 1_655
Na12 Te14 3.179810 1_655
Na12 Te12 3.191373 1_555
Na12 Te8 3.208534 1_555
Na12 Te0 3.276803 1_555
Na13 Te8 3.143691 1_555
Na13 Te15 3.179810 1_545
Na13 Te13 3.191373 1_555
Na13 Te9 3.208534 1_555
Na13 Te1 3.276803 1_545
Na14 Te11 3.143691 1_454
Na14 Te12 3.179810 1_465
Na14 Te14 3.191373 1_555
Na14 Te10 3.208534 1_555
Na14 Te2 3.276803 1_565
Na15 Te10 3.143691 1_556
Na15 Te13 3.179810 1_555
Na15 Te15 3.191373 1_555
Na15 Te11 3.208534 1_555
Na15 Te3 3.276803 1_555
Sn0 Te7 2.763214 1_655
Sn0 Te3 2.765711 1_555
Sn0 Te11 2.771858 1_545
Sn0 Te15 2.773210 1_545
Sn1 Te6 2.763214 1_555
Sn1 Te2 2.765711 1_555
Sn1 Te10 2.771858 1_555
Sn1 Te14 2.773210 1_555
Sn2 Te5 2.763214 1_455
Sn2 Te1 2.765711 1_555
Sn2 Te9 2.771858 1_555
Sn2 Te13 2.773210 1_555
Sn3 Te4 2.763214 1_555
Sn3 Te0 2.765711 1_555
Sn3 Te8 2.771858 1_565
Sn3 Te12 2.773210 1_565
