# generated using pymatgen
data_U20Si16C3
_symmetry_space_group_name_H-M   'P 1'
_cell_length_a   10.33693362
_cell_length_b   10.33693362
_cell_length_c   7.85790100
_cell_angle_alpha   90.00000000
_cell_angle_beta   90.00000000
_cell_angle_gamma   119.99999755
_symmetry_Int_Tables_number   1
_chemical_formula_structural   U20Si16C3
_chemical_formula_sum   'U20 Si16 C3'
_cell_volume   727.14437680
_cell_formula_units_Z   1
loop_
 _symmetry_equiv_pos_site_id
 _symmetry_equiv_pos_as_xyz
  1  'x, y, z'
loop_
 _atom_site_type_symbol
 _atom_site_label
 _atom_site_symmetry_multiplicity
 _atom_site_fract_x
 _atom_site_fract_y
 _atom_site_fract_z
 _atom_site_occupancy
  U  U0  1  0.00000000  0.00000000  0.00000000  1
  U  U1  1  0.00000000  0.00000000  0.50000000  1
  U  U2  1  0.50000000  0.00000000  0.29965300  1
  U  U3  1  0.50000000  0.50000000  0.29965300  1
  U  U4  1  0.00000000  0.50000000  0.29965300  1
  U  U5  1  0.50000000  0.00000000  0.70034700  1
  U  U6  1  0.50000000  0.50000000  0.70034700  1
  U  U7  1  0.00000000  0.50000000  0.70034700  1
  U  U8  1  0.21677000  0.43354100  0.00000000  1
  U  U9  1  0.78323000  0.21677000  0.00000000  1
  U  U10  1  0.43354100  0.21677000  0.00000000  1
  U  U11  1  0.56645900  0.78323000  0.00000000  1
  U  U12  1  0.21677000  0.78323000  0.00000000  1
  U  U13  1  0.78323000  0.56645900  0.00000000  1
  U  U14  1  0.21297700  0.42595500  0.50000000  1
  U  U15  1  0.78702300  0.21297700  0.50000000  1
  U  U16  1  0.42595500  0.21297700  0.50000000  1
  U  U17  1  0.57404500  0.78702300  0.50000000  1
  U  U18  1  0.21297700  0.78702300  0.50000000  1
  U  U19  1  0.78702300  0.57404500  0.50000000  1
  Si  Si0  1  0.33333300  0.66666700  0.25444200  1
  Si  Si1  1  0.66666700  0.33333300  0.25444200  1
  Si  Si2  1  0.66666700  0.33333300  0.74555800  1
  Si  Si3  1  0.33333300  0.66666700  0.74555800  1
  Si  Si4  1  0.22667500  0.00000000  0.24924700  1
  Si  Si5  1  0.22667500  0.22667500  0.24924700  1
  Si  Si6  1  0.00000000  0.77332500  0.24924700  1
  Si  Si7  1  0.00000000  0.22667500  0.24924700  1
  Si  Si8  1  0.77332500  0.77332500  0.24924700  1
  Si  Si9  1  0.22667500  0.00000000  0.75075300  1
  Si  Si10  1  0.77332500  0.77332500  0.75075300  1
  Si  Si11  1  0.77332500  0.00000000  0.24924700  1
  Si  Si12  1  0.00000000  0.22667500  0.75075300  1
  Si  Si13  1  0.00000000  0.77332500  0.75075300  1
  Si  Si14  1  0.77332500  0.00000000  0.75075300  1
  Si  Si15  1  0.22667500  0.22667500  0.75075300  1
  C  C0  1  0.50000000  0.00000000  0.00000000  1
  C  C1  1  0.50000000  0.50000000  0.00000000  1
  C  C2  1  0.00000000  0.50000000  0.00000000  1
loop_
_geom_bond_atom_site_label_1
_geom_bond_atom_site_label_2
_geom_bond_distance
_geom_bond_site_symmetry_2
Si0 U12 2.890139 1_555
Si0 U11 2.890139 1_555
Si0 U8 2.890139 1_555
Si0 U18 2.892522 1_555
Si0 U17 2.892522 1_555
Si0 U14 2.892522 1_555
Si0 U4 3.005086 1_555
Si0 U2 3.005086 1_565
Si0 U3 3.005095 1_555
Si1 U9 2.890139 1_555
Si1 U13 2.890139 1_555
Si1 U10 2.890139 1_555
Si1 U15 2.892522 1_555
Si1 U19 2.892522 1_555
Si1 U16 2.892522 1_555
Si1 U4 3.005086 1_655
Si1 U2 3.005086 1_555
Si1 U3 3.005095 1_555
Si2 U9 2.890139 1_556
Si2 U13 2.890139 1_556
Si2 U10 2.890139 1_556
Si2 U15 2.892522 1_555
Si2 U19 2.892522 1_555
Si2 U16 2.892522 1_555
Si2 U5 3.005086 1_555
Si2 U7 3.005086 1_655
Si2 U6 3.005095 1_555
Si3 U12 2.890139 1_556
Si3 U11 2.890139 1_556
Si3 U8 2.890139 1_556
Si3 U18 2.892522 1_555
Si3 U17 2.892522 1_555
Si3 U14 2.892522 1_555
Si3 U5 3.005086 1_565
Si3 U7 3.005086 1_555
Si3 U6 3.005095 1_555
Si4 Si5 2.343124 1_555
Si4 Si6 2.343125 1_545
Si4 U2 2.852971 1_555
Si4 U18 2.904737 1_545
Si4 U16 2.904741 1_555
Si4 U12 2.939033 1_545
Si4 U10 2.939036 1_555
Si4 U0 3.053880 1_555
Si4 U1 3.061483 1_555
Si5 Si7 2.343124 1_555
Si5 U3 2.852971 1_555
Si5 U16 2.904745 1_555
Si5 U14 2.904745 1_555
Si5 U10 2.939040 1_555
Si5 U8 2.939040 1_555
Si5 U0 3.053880 1_555
Si5 U1 3.061483 1_555
Si6 Si8 2.343124 1_455
Si6 U4 2.852971 1_555
Si6 U18 2.904737 1_555
Si6 U19 2.904741 1_455
Si6 U12 2.939033 1_555
Si6 U13 2.939036 1_455
Si6 U0 3.053880 1_565
Si6 U1 3.061483 1_565
Si7 U4 2.852971 1_555
Si7 U15 2.904737 1_455
Si7 U14 2.904741 1_555
Si7 U9 2.939033 1_455
Si7 U8 2.939036 1_555
Si7 U0 3.053880 1_555
Si7 U1 3.061483 1_555
Si8 U3 2.852971 1_555
Si8 U17 2.904745 1_555
Si8 U19 2.904745 1_555
Si8 U13 2.939040 1_555
Si8 U11 2.939040 1_555
Si8 U0 3.053880 1_665
Si8 U1 3.061483 1_665
Si9 U5 2.852971 1_555
Si9 U18 2.904737 1_545
Si9 U16 2.904741 1_555
Si9 U12 2.939033 1_546
Si9 U10 2.939036 1_556
Si9 U0 3.053880 1_556
Si9 U1 3.061483 1_555
Si10 Si13 2.343124 1_655
Si10 Si14 2.343124 1_565
Si10 U6 2.852971 1_555
Si10 U17 2.904745 1_555
Si10 U19 2.904745 1_555
Si10 U11 2.939040 1_556
Si10 U13 2.939040 1_556
Si10 U0 3.053880 1_666
Si10 U1 3.061483 1_665
Si11 Si8 2.343124 1_545
Si11 Si7 2.343125 1_655
Si11 U2 2.852971 1_555
Si11 U15 2.904737 1_555
Si11 U17 2.904741 1_545
Si11 U9 2.939033 1_555
Si11 U11 2.939036 1_545
Si11 U0 3.053880 1_655
Si11 U1 3.061483 1_655
Si12 Si15 2.343124 1_555
Si12 Si14 2.343125 1_455
Si12 U7 2.852971 1_555
Si12 U15 2.904737 1_455
Si12 U14 2.904741 1_555
Si12 U9 2.939033 1_456
Si12 U8 2.939036 1_556
Si12 U0 3.053880 1_556
Si12 U1 3.061483 1_555
Si13 Si9 2.343125 1_565
Si13 U7 2.852971 1_555
Si13 U18 2.904737 1_555
Si13 U19 2.904741 1_455
Si13 U12 2.939033 1_556
Si13 U13 2.939036 1_456
Si13 U0 3.053880 1_566
Si13 U1 3.061483 1_565
Si14 U5 2.852971 1_555
Si14 U15 2.904737 1_555
Si14 U17 2.904741 1_545
Si14 U9 2.939033 1_556
Si14 U11 2.939036 1_546
Si14 U0 3.053880 1_656
Si14 U1 3.061483 1_655
Si15 Si9 2.343124 1_555
Si15 U6 2.852971 1_555
Si15 U16 2.904745 1_555
Si15 U14 2.904745 1_555
Si15 U10 2.939040 1_556
Si15 U8 2.939040 1_556
Si15 U0 3.053880 1_556
Si15 U1 3.061483 1_555
C0 U2 2.354644 1_555
C0 U5 2.354644 1_554
C0 U11 2.651828 1_545
C0 U10 2.651828 1_555
C0 U12 2.651836 1_545
C0 U9 2.651836 1_555
C1 U3 2.354644 1_555
C1 U6 2.354644 1_554
C1 U8 2.651839 1_555
C1 U10 2.651839 1_555
C1 U11 2.651839 1_555
C1 U13 2.651839 1_555
C2 U4 2.354644 1_555
C2 U7 2.354644 1_554
C2 U13 2.651828 1_455
C2 U8 2.651828 1_555
C2 U9 2.651836 1_455
C2 U12 2.651836 1_555
