# generated using pymatgen
data_K2Nd4MgNb2O12
_symmetry_space_group_name_H-M   'P 1'
_cell_length_a   5.82146435
_cell_length_b   7.18515449
_cell_length_c   9.26420209
_cell_angle_alpha   106.59748274
_cell_angle_beta   89.66166839
_cell_angle_gamma   114.33408831
_symmetry_Int_Tables_number   1
_chemical_formula_structural   K2Nd4MgNb2O12
_chemical_formula_sum   'K2 Nd4 Mg1 Nb2 O12'
_cell_volume   335.58192074
_cell_formula_units_Z   1
loop_
 _symmetry_equiv_pos_site_id
 _symmetry_equiv_pos_as_xyz
  1  'x, y, z'
loop_
 _atom_site_type_symbol
 _atom_site_label
 _atom_site_symmetry_multiplicity
 _atom_site_fract_x
 _atom_site_fract_y
 _atom_site_fract_z
 _atom_site_occupancy
  K  K0  1  0.11449300  0.22742300  0.46716300  1
  K  K1  1  0.87024300  0.74200000  0.48816800  1
  Nd  Nd0  1  0.14140200  0.28496800  0.91066900  1
  Nd  Nd1  1  0.56724100  0.13618200  0.18149100  1
  Nd  Nd2  1  0.43432100  0.87724500  0.76938200  1
  Nd  Nd3  1  0.83832600  0.66972200  0.10633900  1
  Mg  Mg0  1  0.89516300  0.80027000  0.85029300  1
  Nb  Nb0  1  0.67824100  0.35347100  0.69765700  1
  Nb  Nb1  1  0.33669000  0.67021400  0.29555700  1
  O  O0  1  0.99952000  0.54582000  0.87072400  1
  O  O1  1  0.21678800  0.88421300  0.27372800  1
  O  O2  1  0.24539300  0.00750800  0.97786100  1
  O  O3  1  0.80747300  0.13750400  0.70022000  1
  O  O4  1  0.67093800  0.88491500  0.27143000  1
  O  O5  1  0.75416200  0.00938600  0.97501500  1
  O  O6  1  0.32993600  0.13705900  0.70154100  1
  O  O7  1  0.99120200  0.45323700  0.18422000  1
  O  O8  1  0.66504200  0.32759400  0.48819000  1
  O  O9  1  0.33351900  0.66719600  0.49474700  1
  O  O10  1  0.46570100  0.45376700  0.18686700  1
  O  O11  1  0.55045600  0.54512300  0.87302400  1
loop_
_geom_bond_atom_site_label_1
_geom_bond_atom_site_label_2
_geom_bond_distance
_geom_bond_site_symmetry_2
K0 O9 2.810313 1_555
K0 O3 2.841346 1_455
K0 O6 2.866684 1_555
K0 O4 2.877662 1_445
K0 O1 2.884477 1_545
K0 O8 2.975607 1_555
K0 O8 2.977868 1_455
K1 O8 2.713295 1_555
K1 O1 2.911046 1_655
K1 O4 2.935916 1_555
K1 O9 2.947491 1_555
K1 O9 2.963335 1_655
K1 O6 3.118186 1_665
K1 O3 3.118707 1_565
K1 O10 3.222159 1_555
K1 O7 3.251543 1_555
K1 Mg0 3.256421 1_555
Nd0 O6 2.418148 1_555
Nd0 O3 2.422785 1_455
Nd0 O11 2.445524 1_555
Nd0 O0 2.451050 1_455
Nd0 O5 2.517511 1_455
Nd0 O2 2.537005 1_555
Nd0 O7 2.782674 1_456
Nd0 O10 2.824799 1_556
Nd1 O5 2.338772 1_554
Nd1 O2 2.354102 1_554
Nd1 O1 2.447318 1_545
Nd1 O4 2.466088 1_545
Nd1 O10 2.570075 1_555
Nd1 O7 2.572155 1_555
Nd1 O8 2.725823 1_555
Nd2 O5 2.355653 1_565
Nd2 O2 2.367798 1_565
Nd2 O6 2.420516 1_565
Nd2 O3 2.438576 1_565
Nd2 O9 2.487876 1_555
Nd2 O0 3.039878 1_455
Nd3 O1 2.347502 1_655
Nd3 O7 2.349827 1_555
Nd3 O10 2.353312 1_555
Nd3 O4 2.356377 1_555
Nd3 O11 2.445961 1_554
Nd3 O0 2.447813 1_554
Mg0 O5 2.068770 1_565
Mg0 O2 2.071715 1_665
Mg0 O11 2.148457 1_555
Mg0 O0 2.204955 1_555
Nb0 O8 1.894742 1_555
Nb0 O3 1.989432 1_555
Nb0 O6 1.990799 1_555
Nb0 O0 2.148971 1_555
Nb0 O11 2.154280 1_555
Nb1 O9 1.851542 1_555
Nb1 O4 1.983440 1_555
Nb1 O1 1.989013 1_555
Nb1 O10 2.013858 1_555
Nb1 O7 2.015267 1_455
