# generated using pymatgen
data_VF5
_symmetry_space_group_name_H-M   'P 1'
_cell_length_a   8.08893160
_cell_length_b   6.30061902
_cell_length_c   8.83340846
_cell_angle_alpha   44.09647909
_cell_angle_beta   90.00000000
_cell_angle_gamma   90.00000000
_symmetry_Int_Tables_number   1
_chemical_formula_structural   VF5
_chemical_formula_sum   'V4 F20'
_cell_volume   313.27805711
_cell_formula_units_Z   4
loop_
 _symmetry_equiv_pos_site_id
 _symmetry_equiv_pos_as_xyz
  1  'x, y, z'
loop_
 _atom_site_type_symbol
 _atom_site_label
 _atom_site_symmetry_multiplicity
 _atom_site_fract_x
 _atom_site_fract_y
 _atom_site_fract_z
 _atom_site_occupancy
  V  V0  1  0.64748852  0.10656397  0.05337200  1
  V  V1  1  0.14748852  0.89343603  0.44662800  1
  V  V2  1  0.85251148  0.10656397  0.55337200  1
  V  V3  1  0.35251148  0.89343603  0.94662800  1
  F  F0  1  0.39721674  0.08659637  0.04132742  1
  F  F1  1  0.85721661  0.08660426  0.04645790  1
  F  F2  1  0.62074448  0.27883123  0.13783593  1
  F  F3  1  0.37395716  0.55348178  0.22142787  1
  F  F4  1  0.12422098  0.25994044  0.18471378  1
  F  F5  1  0.87395716  0.44651822  0.27857213  1
  F  F6  1  0.62422098  0.74005956  0.31528622  1
  F  F7  1  0.12074448  0.72116877  0.36216407  1
  F  F8  1  0.35721661  0.91339574  0.45354210  1
  F  F9  1  0.89721674  0.91340363  0.45867258  1
  F  F10  1  0.10278326  0.08659637  0.54132742  1
  F  F11  1  0.64278339  0.08660426  0.54645790  1
  F  F12  1  0.87925552  0.27883123  0.63783593  1
  F  F13  1  0.37577902  0.25994044  0.68471378  1
  F  F14  1  0.12604284  0.55348178  0.72142787  1
  F  F15  1  0.87577902  0.74005956  0.81528622  1
  F  F16  1  0.62604284  0.44651822  0.77857213  1
  F  F17  1  0.37925552  0.72116877  0.86216407  1
  F  F18  1  0.14278339  0.91339574  0.95354210  1
  F  F19  1  0.60278326  0.91340363  0.95867258  1
loop_
_geom_bond_atom_site_label_1
_geom_bond_atom_site_label_2
_geom_bond_distance
_geom_bond_site_symmetry_2
F0 V3 1.942674 1_544
F0 V0 2.035853 1_555
F1 V0 1.705464 1_555
F2 V0 1.716016 1_555
F3 V3 1.744211 1_554
F4 V1 1.745521 1_545
F5 V2 1.744211 1_555
F6 V0 1.745521 1_565
F7 V1 1.716016 1_555
F8 V1 1.705464 1_555
F9 V2 1.942674 1_565
F9 V1 2.035853 1_655
F10 V1 1.942674 1_545
F10 V2 2.035853 1_455
F11 V2 1.705464 1_555
F12 V2 1.716016 1_555
F13 V3 1.745521 1_545
F14 V1 1.744211 1_555
F15 V2 1.745521 1_565
F16 V0 1.744211 1_556
F17 V3 1.716016 1_555
F18 V3 1.705464 1_555
F19 V0 1.942674 1_566
F19 V3 2.035853 1_555
