# generated using pymatgen
data_MgTi4O8
_symmetry_space_group_name_H-M   'P 1'
_cell_length_a   3.26045968
_cell_length_b   7.66103366
_cell_length_c   7.85005938
_cell_angle_alpha   82.86136253
_cell_angle_beta   77.99188727
_cell_angle_gamma   77.54980401
_symmetry_Int_Tables_number   1
_chemical_formula_structural   MgTi4O8
_chemical_formula_sum   'Mg1 Ti4 O8'
_cell_volume   186.63323489
_cell_formula_units_Z   1
loop_
 _symmetry_equiv_pos_site_id
 _symmetry_equiv_pos_as_xyz
  1  'x, y, z'
loop_
 _atom_site_type_symbol
 _atom_site_label
 _atom_site_symmetry_multiplicity
 _atom_site_fract_x
 _atom_site_fract_y
 _atom_site_fract_z
 _atom_site_occupancy
  Mg  Mg0  1  0.35531453  0.50104275  0.50047979  1
  Ti  Ti0  1  0.86025864  0.14712107  0.56724578  1
  Ti  Ti1  1  0.97204411  0.47611037  0.16166421  1
  Ti  Ti2  1  0.61264680  0.52285711  0.83738909  1
  Ti  Ti3  1  0.57478728  0.85375249  0.43111689  1
  O  O0  1  0.73599769  0.65412785  0.60020875  1
  O  O1  1  0.52528258  0.33741900  0.71819613  1
  O  O2  1  0.58309193  0.66189595  0.28176012  1
  O  O3  1  -0.00415079  0.34595123  0.40128607  1
  O  O4  1  0.37694082  0.02663720  0.63239721  1
  O  O5  1  0.58275451  0.37646746  0.08081521  1
  O  O6  1  0.03546253  0.97444600  0.36674327  1
  O  O7  1  0.03957137  0.62217150  0.92069950  1
loop_
_geom_bond_atom_site_label_1
_geom_bond_atom_site_label_2
_geom_bond_distance
_geom_bond_site_symmetry_2
Mg0 O2 2.087159 1_555
Mg0 O1 2.088424 1_555
Mg0 O3 2.145189 1_555
Mg0 O0 2.148264 1_455
Mg0 O0 2.188402 1_555
Mg0 O3 2.205217 1_655
O0 Ti3 1.953520 1_555
O0 Ti2 2.009267 1_555
O1 Ti2 1.894894 1_555
O1 Ti0 1.981592 1_555
O2 Ti1 1.892245 1_555
O2 Ti3 1.983357 1_555
O3 Ti0 1.941770 1_455
O3 Ti1 2.024812 1_455
O4 Ti0 1.876757 1_455
O4 Ti0 1.941987 1_555
O4 Ti3 2.096325 1_545
O5 Ti1 1.862781 1_555
O5 Ti1 1.972198 1_455
O5 Ti2 2.087060 1_554
O6 Ti3 1.879690 1_455
O6 Ti3 1.937783 1_555
O6 Ti0 2.090737 1_465
O7 Ti2 1.870848 1_555
O7 Ti2 1.975677 1_455
O7 Ti1 2.070158 1_456
