# generated using pymatgen
data_LiCr2(PO4)3
_symmetry_space_group_name_H-M   'P 1'
_cell_length_a   8.56808995
_cell_length_b   8.56808995
_cell_length_c   6.25904699
_cell_angle_alpha   74.17631062
_cell_angle_beta   74.17631062
_cell_angle_gamma   91.95312684
_symmetry_Int_Tables_number   1
_chemical_formula_structural   LiCr2(PO4)3
_chemical_formula_sum   'Li2 Cr4 P6 O24'
_cell_volume   422.39710830
_cell_formula_units_Z   2
loop_
 _symmetry_equiv_pos_site_id
 _symmetry_equiv_pos_as_xyz
  1  'x, y, z'
loop_
 _atom_site_type_symbol
 _atom_site_label
 _atom_site_symmetry_multiplicity
 _atom_site_fract_x
 _atom_site_fract_y
 _atom_site_fract_z
 _atom_site_occupancy
  Li  Li0  1  0.50000000  0.50000000  0.50000000  1
  Li  Li1  1  0.50000000  0.50000000  0.00000000  1
  Cr  Cr0  1  0.93980100  0.62158600  0.13726400  1
  Cr  Cr1  1  0.62158600  0.93980100  0.63726400  1
  Cr  Cr2  1  0.37841400  0.06019900  0.36273600  1
  Cr  Cr3  1  0.06019900  0.37841400  0.86273600  1
  P  P0  1  0.27656800  0.72343200  0.75000000  1
  P  P1  1  0.35428200  0.16161000  0.85508100  1
  P  P2  1  0.64571800  0.83839000  0.14491900  1
  P  P3  1  0.72343200  0.27656800  0.25000000  1
  P  P4  1  0.16161000  0.35428200  0.35508100  1
  P  P5  1  0.83839000  0.64571800  0.64491900  1
  O  O0  1  0.96253400  0.64003900  0.41302800  1
  O  O1  1  0.80725000  0.82777000  0.61308800  1
  O  O2  1  0.54745400  0.25066100  0.22941900  1
  O  O3  1  0.93923400  0.59153800  0.82762300  1
  O  O4  1  0.06076600  0.40846200  0.17237700  1
  O  O5  1  0.03746600  0.35996100  0.58697200  1
  O  O6  1  0.19275000  0.17223000  0.38691200  1
  O  O7  1  0.14779500  0.73932300  0.96944900  1
  O  O8  1  0.26067700  0.85220500  0.53055100  1
  O  O9  1  0.17223000  0.19275000  0.88691200  1
  O  O10  1  0.31793900  0.46282500  0.28394500  1
  O  O11  1  0.35996100  0.03746600  0.08697200  1
  O  O12  1  0.25066100  0.54745400  0.72941900  1
  O  O13  1  0.73932300  0.14779500  0.46944900  1
  O  O14  1  0.53717500  0.68206100  0.21605500  1
  O  O15  1  0.45254600  0.74933900  0.77058100  1
  O  O16  1  0.40846200  0.06076600  0.67237700  1
  O  O17  1  0.46282500  0.31793900  0.78394500  1
  O  O18  1  0.59153800  0.93923400  0.32762300  1
  O  O19  1  0.74933900  0.45254600  0.27058100  1
  O  O20  1  0.64003900  0.96253400  0.91302800  1
  O  O21  1  0.68206100  0.53717500  0.71605500  1
  O  O22  1  0.82777000  0.80725000  0.11308800  1
  O  O23  1  0.85220500  0.26067700  0.03055100  1
loop_
_geom_bond_atom_site_label_1
_geom_bond_atom_site_label_2
_geom_bond_distance
_geom_bond_site_symmetry_2
Li0 O17 1.959294 1_555
Li0 O14 1.959294 1_555
Li0 O19 2.344335 1_555
Li0 O12 2.344335 1_555
Li0 O10 2.390596 1_555
Li0 O21 2.390596 1_555
Li1 O10 1.959294 1_555
Li1 O21 1.959294 1_554
Li1 O15 2.344335 1_554
Li1 O2 2.344335 1_555
Li1 O17 2.390596 1_554
Li1 O14 2.390596 1_555
Cr0 O0 1.836342 1_555
Cr0 O22 1.878007 1_555
Cr0 O7 1.890925 1_654
Cr0 O19 1.973389 1_555
Cr0 O3 2.024731 1_554
Cr0 O4 2.119290 1_655
Cr1 O20 1.836342 1_555
Cr1 O1 1.878007 1_555
Cr1 O13 1.890925 1_565
Cr1 O15 1.973389 1_555
Cr1 O18 2.024731 1_555
Cr1 O16 2.119290 1_565
Cr2 O11 1.836342 1_555
Cr2 O6 1.878007 1_555
Cr2 O8 1.890925 1_545
Cr2 O2 1.973389 1_555
Cr2 O16 2.024731 1_555
Cr2 O18 2.119290 1_545
Cr3 O5 1.836342 1_555
Cr3 O9 1.878007 1_555
Cr3 O23 1.890925 1_456
Cr3 O12 1.973389 1_555
Cr3 O4 2.024731 1_556
Cr3 O3 2.119290 1_455
O0 P5 1.562206 1_555
O1 P5 1.559440 1_555
O2 P3 1.561415 1_555
O3 P5 1.595765 1_555
O4 P4 1.595765 1_555
O5 P4 1.562206 1_555
O6 P4 1.559440 1_555
O7 P0 1.551858 1_555
O8 P0 1.551858 1_555
O9 P1 1.559440 1_555
O10 P4 1.490398 1_555
O11 P1 1.562206 1_554
O12 P0 1.561415 1_555
O13 P3 1.551858 1_555
O14 P2 1.490398 1_555
O15 P0 1.561415 1_555
O16 P1 1.595765 1_555
O17 P1 1.490398 1_555
O18 P2 1.595765 1_555
O19 P3 1.561415 1_555
O20 P2 1.562206 1_556
O21 P5 1.490398 1_555
O22 P2 1.559440 1_555
O23 P3 1.551858 1_555
