# generated using pymatgen
data_HoCuAs2
_symmetry_space_group_name_H-M   'P 1'
_cell_length_a   3.86267498
_cell_length_b   3.86267498
_cell_length_c   9.87349866
_cell_angle_alpha   90.00000000
_cell_angle_beta   90.00000000
_cell_angle_gamma   90.00000000
_symmetry_Int_Tables_number   1
_chemical_formula_structural   HoCuAs2
_chemical_formula_sum   'Ho2 Cu2 As4'
_cell_volume   147.31514738
_cell_formula_units_Z   2
loop_
 _symmetry_equiv_pos_site_id
 _symmetry_equiv_pos_as_xyz
  1  'x, y, z'
loop_
 _atom_site_type_symbol
 _atom_site_label
 _atom_site_symmetry_multiplicity
 _atom_site_fract_x
 _atom_site_fract_y
 _atom_site_fract_z
 _atom_site_occupancy
  Ho  Ho0  1  -0.00000000  0.50000000  0.76356991  1
  Ho  Ho1  1  0.50000000  0.00000000  0.23643009  1
  Cu  Cu0  1  -0.00000000  0.00000000  0.50000000  1
  Cu  Cu1  1  0.50000000  0.50000000  0.50000000  1
  As  As0  1  0.50000000  0.50000000  -0.00000000  1
  As  As1  1  0.00000000  0.00000000  -0.00000000  1
  As  As2  1  0.50000000  0.00000000  0.65953025  1
  As  As3  1  -0.00000000  0.50000000  0.34046975  1
loop_
_geom_bond_atom_site_label_1
_geom_bond_atom_site_label_2
_geom_bond_distance
_geom_bond_site_symmetry_2
As0 As1 2.731324 1_655
As0 As1 2.731324 1_565
As0 As1 2.731324 1_665
As0 As1 2.731324 1_555
As0 Ho1 3.029761 1_565
As0 Ho0 3.029761 1_654
As0 Ho0 3.029761 1_554
As0 Ho1 3.029761 1_555
As1 Ho0 3.029761 1_554
As1 Ho1 3.029761 1_555
As1 Ho1 3.029761 1_455
As1 Ho0 3.029761 1_544
As2 Cu0 2.492202 1_655
As2 Cu0 2.492202 1_555
As2 Cu1 2.492202 1_555
As2 Cu1 2.492202 1_545
As2 Ho0 2.918106 1_655
As2 Ho0 2.918106 1_545
As2 Ho0 2.918106 1_555
As2 Ho0 2.918106 1_645
As3 Cu0 2.492202 1_565
As3 Cu0 2.492202 1_555
As3 Cu1 2.492202 1_455
As3 Cu1 2.492202 1_555
As3 Ho1 2.918106 1_455
As3 Ho1 2.918106 1_565
As3 Ho1 2.918106 1_465
As3 Ho1 2.918106 1_555
