# generated using pymatgen
data_BePH4NO4
_symmetry_space_group_name_H-M   'P 1'
_cell_length_a   4.92650173
_cell_length_b   8.58708058
_cell_length_c   8.70990538
_cell_angle_alpha   90.00000000
_cell_angle_beta   90.00000000
_cell_angle_gamma   90.00000000
_symmetry_Int_Tables_number   1
_chemical_formula_structural   BePH4NO4
_chemical_formula_sum   'Be4 P4 H16 N4 O16'
_cell_volume   368.46616564
_cell_formula_units_Z   4
loop_
 _symmetry_equiv_pos_site_id
 _symmetry_equiv_pos_as_xyz
  1  'x, y, z'
loop_
 _atom_site_type_symbol
 _atom_site_label
 _atom_site_symmetry_multiplicity
 _atom_site_fract_x
 _atom_site_fract_y
 _atom_site_fract_z
 _atom_site_occupancy
  Be  Be0  1  0.66274968  0.59386656  0.32646254  1
  Be  Be1  1  0.16274968  0.09386656  0.17353746  1
  Be  Be2  1  0.66274968  0.90613344  0.82646254  1
  Be  Be3  1  0.16274968  0.40613344  0.67353746  1
  P  P0  1  0.66222284  0.58485071  0.68472320  1
  P  P1  1  0.16222284  0.41514929  0.31527680  1
  P  P2  1  0.66222284  0.91514929  0.18472320  1
  P  P3  1  0.16222284  0.08485071  0.81527680  1
  H  H0  1  0.34506754  0.72183310  0.98774074  1
  H  H1  1  0.84506754  0.27816690  0.01225926  1
  H  H2  1  0.34506754  0.77816690  0.48774074  1
  H  H3  1  0.84506754  0.22183310  0.51225926  1
  H  H4  1  0.02939020  0.70938955  0.49259016  1
  H  H5  1  0.52939020  0.29061045  0.50740984  1
  H  H6  1  0.10225886  0.63482145  0.09796700  1
  H  H7  1  0.60225886  0.36517855  0.90203300  1
  H  H8  1  0.10225886  0.86517855  0.59796700  1
  H  H9  1  0.60225886  0.13482145  0.40203300  1
  H  H10  1  0.08902444  0.62557380  0.90022567  1
  H  H11  1  0.52939020  0.20938955  0.00740984  1
  H  H12  1  0.08902444  0.87442620  0.40022567  1
  H  H13  1  0.58902444  0.12557380  0.59977433  1
  H  H14  1  0.02939020  0.79061045  0.99259016  1
  H  H15  1  0.58902444  0.37442620  0.09977433  1
  N  N0  1  0.14470198  0.69134106  0.99546139  1
  N  N1  1  0.64470198  0.30865894  0.00453861  1
  N  N2  1  0.64470198  0.19134106  0.50453861  1
  N  N3  1  0.14470198  0.80865894  0.49546139  1
  O  O0  1  0.96516277  0.95450940  0.76719745  1
  O  O1  1  0.44941337  0.46309138  0.26408765  1
  O  O2  1  0.58254189  0.76418729  0.26325452  1
  O  O3  1  0.58254189  0.73581271  0.76325452  1
  O  O4  1  0.94941337  0.96309138  0.23591235  1
  O  O5  1  0.44941337  0.03690862  0.76408765  1
  O  O6  1  0.65576543  0.60762156  0.51144012  1
  O  O7  1  0.15576543  0.39237844  0.48855988  1
  O  O8  1  0.65576543  0.89237844  0.01144012  1
  O  O9  1  0.15576543  0.10762156  0.98855988  1
  O  O10  1  0.08254189  0.26418729  0.23674548  1
  O  O11  1  0.94941337  0.53690862  0.73591235  1
  O  O12  1  0.96516277  0.54549060  0.26719745  1
  O  O13  1  0.46516277  0.04549060  0.23280255  1
  O  O14  1  0.46516277  0.45450940  0.73280255  1
  O  O15  1  0.08254189  0.23581271  0.73674548  1
loop_
_geom_bond_atom_site_label_1
_geom_bond_atom_site_label_2
_geom_bond_distance
_geom_bond_site_symmetry_2
Be0 O2 1.611925 1_555
Be0 O6 1.615827 1_555
Be0 O12 1.630533 1_555
Be0 O1 1.631206 1_555
Be1 O10 1.611925 1_555
Be1 O9 1.615827 1_554
Be1 O13 1.630533 1_555
Be1 O4 1.631206 1_445
Be2 O3 1.611925 1_555
Be2 O8 1.615827 1_556
Be2 O0 1.630533 1_555
Be2 O5 1.631206 1_565
Be3 O15 1.611925 1_555
Be3 O7 1.615827 1_555
Be3 O14 1.630533 1_555
Be3 O11 1.631206 1_455
H0 N0 1.023450 1_555
H1 N1 1.023450 1_555
H2 N3 1.023450 1_555
H3 N2 1.023450 1_555
H4 N3 1.024690 1_555
H5 N2 1.024690 1_555
H6 N0 1.037493 1_554
H7 N1 1.037493 1_556
H8 N3 1.037493 1_555
H9 N2 1.037493 1_555
H10 N0 1.040307 1_555
H11 N1 1.024690 1_555
H12 N3 1.040307 1_555
H13 N2 1.040307 1_555
H14 N0 1.024690 1_555
H15 N1 1.040307 1_555
O0 P3 1.539667 1_665
O1 P1 1.539497 1_555
O2 P2 1.517367 1_555
O3 P0 1.517367 1_555
O4 P2 1.539497 1_555
O5 P3 1.539497 1_555
O6 P0 1.522225 1_555
O7 P1 1.522225 1_555
O8 P2 1.522225 1_555
O9 P3 1.522225 1_555
O10 P1 1.517367 1_555
O11 P0 1.539497 1_555
O12 P1 1.539667 1_655
O13 P2 1.539667 1_545
O14 P0 1.539667 1_555
O15 P3 1.517367 1_555
