# generated using pymatgen
data_SmInIr
_symmetry_space_group_name_H-M   'P 1'
_cell_length_a   7.51842340
_cell_length_b   7.51842416
_cell_length_c   4.04334388
_cell_angle_alpha   90.00000000
_cell_angle_beta   90.00000000
_cell_angle_gamma   120.00000116
_symmetry_Int_Tables_number   1
_chemical_formula_structural   SmInIr
_chemical_formula_sum   'Sm3 In3 Ir3'
_cell_volume   197.93605399
_cell_formula_units_Z   3
loop_
 _symmetry_equiv_pos_site_id
 _symmetry_equiv_pos_as_xyz
  1  'x, y, z'
loop_
 _atom_site_type_symbol
 _atom_site_label
 _atom_site_symmetry_multiplicity
 _atom_site_fract_x
 _atom_site_fract_y
 _atom_site_fract_z
 _atom_site_occupancy
  Sm  Sm0  1  0.59134496  0.59134496  0.00000000  1
  Sm  Sm1  1  0.40865504  0.00000000  -0.00000000  1
  Sm  Sm2  1  1.00000000  0.40865504  0.00000000  1
  In  In0  1  0.00000000  0.74786753  0.50000000  1
  In  In1  1  0.25213247  0.25213247  0.50000000  1
  In  In2  1  0.74786753  1.00000000  0.50000000  1
  Ir  Ir0  1  0.00000000  0.00000000  0.00000000  1
  Ir  Ir1  1  0.66666700  0.33333300  0.50000000  1
  Ir  Ir2  1  0.33333300  0.66666700  0.50000000  1
loop_
_geom_bond_atom_site_label_1
_geom_bond_atom_site_label_2
_geom_bond_distance
_geom_bond_site_symmetry_2
In0 Ir0 2.771390 1_566
In0 Ir0 2.771390 1_565
In0 Ir2 2.860671 1_555
In0 Ir1 2.860676 1_455
In0 Sm2 3.254444 1_456
In0 Sm2 3.254444 1_455
In0 Sm0 3.360991 1_455
In0 Sm0 3.360991 1_456
In0 Sm1 3.360991 1_566
In0 Sm1 3.360991 1_565
In1 Ir0 2.771390 1_555
In1 Ir0 2.771390 1_556
In1 Ir1 2.860678 1_555
In1 Ir2 2.860679 1_555
In1 Sm0 3.254444 1_556
In1 Sm0 3.254444 1_555
In1 Sm2 3.360991 1_456
In1 Sm2 3.360991 1_455
In1 Sm1 3.360991 1_556
In1 Sm1 3.360991 1_555
In2 Ir0 2.771390 1_665
In2 Ir0 2.771390 1_666
In2 Ir1 2.860671 1_565
In2 Ir2 2.860676 1_555
In2 Sm1 3.254444 1_565
In2 Sm1 3.254444 1_566
In2 Sm2 3.360991 1_565
In2 Sm2 3.360991 1_566
In2 Sm0 3.360991 1_555
In2 Sm0 3.360991 1_556
Ir0 Sm1 3.072442 1_555
Ir0 Sm0 3.072442 1_445
Ir0 Sm2 3.072442 1_455
Ir1 Sm2 3.044561 1_556
Ir1 Sm2 3.044561 1_555
Ir1 Sm1 3.044563 1_556
Ir1 Sm1 3.044563 1_555
Ir1 Sm0 3.044567 1_556
Ir1 Sm0 3.044567 1_555
Ir2 Sm1 3.044561 1_565
Ir2 Sm1 3.044561 1_566
Ir2 Sm2 3.044563 1_455
Ir2 Sm2 3.044563 1_456
Ir2 Sm0 3.044567 1_556
Ir2 Sm0 3.044567 1_555
