# generated using pymatgen
data_Na2Zr4Sc4Si3(S3O16)3
_symmetry_space_group_name_H-M   'P 1'
_cell_length_a   17.97761164
_cell_length_b   8.97847267
_cell_length_c   23.31947111
_cell_angle_alpha   89.92552837
_cell_angle_beta   90.13141368
_cell_angle_gamma   120.01993055
_symmetry_Int_Tables_number   1
_chemical_formula_structural   Na2Zr4Sc4Si3(S3O16)3
_chemical_formula_sum   'Na6 Zr12 Sc12 Si9 S27 O144'
_cell_volume   3259.08271312
_cell_formula_units_Z   3
loop_
 _symmetry_equiv_pos_site_id
 _symmetry_equiv_pos_as_xyz
  1  'x, y, z'
loop_
 _atom_site_type_symbol
 _atom_site_label
 _atom_site_symmetry_multiplicity
 _atom_site_fract_x
 _atom_site_fract_y
 _atom_site_fract_z
 _atom_site_occupancy
  Na  Na0  1  0.99692420  0.00469824  0.49969406  1
  Na  Na1  1  0.49746420  0.98907375  0.00372283  1
  Na  Na2  1  0.32961246  0.32623437  0.83903494  1
  Na  Na3  1  0.82921483  0.33114349  0.83304325  1
  Na  Na4  1  0.33103425  0.32856862  0.33182740  1
  Na  Na5  1  0.82496770  0.32643970  0.33576591  1
  Zr  Zr0  1  0.51150713  0.01504805  0.35561352  1
  Zr  Zr1  1  0.00382241  0.99854389  0.85845175  1
  Zr  Zr2  1  0.50607623  0.01963900  0.64426720  1
  Zr  Zr3  1  0.00515834  0.99041214  0.14486309  1
  Zr  Zr4  1  0.33818147  0.33653526  0.68472390  1
  Zr  Zr5  1  0.83446068  0.33527847  0.68523336  1
  Zr  Zr6  1  0.33638143  0.33556333  0.18664608  1
  Zr  Zr7  1  0.83397331  0.33323640  0.18821976  1
  Zr  Zr8  1  0.16333359  0.67741450  0.02329351  1
  Zr  Zr9  1  0.66187818  0.66642907  0.02519040  1
  Zr  Zr10  1  0.16230145  0.65813126  0.52271136  1
  Zr  Zr11  1  0.66267604  0.64938433  0.51992014  1
  Sc  Sc0  1  0.00471902  0.00255137  0.34954604  1
  Sc  Sc1  1  0.50625647  0.00891500  0.85116448  1
  Sc  Sc2  1  0.99839005  0.00950487  0.64555174  1
  Sc  Sc3  1  0.50363048  0.98498896  0.14910220  1
  Sc  Sc4  1  0.33306363  0.33717694  0.98158904  1
  Sc  Sc5  1  0.83770443  0.34481898  0.98381736  1
  Sc  Sc6  1  0.33861057  0.32993542  0.48066315  1
  Sc  Sc7  1  0.83269943  0.32731256  0.47898720  1
  Sc  Sc8  1  0.16740383  0.67633775  0.30782812  1
  Sc  Sc9  1  0.66786394  0.66516985  0.31122400  1
  Sc  Sc10  1  0.16946805  0.68051042  0.81556606  1
  Sc  Sc11  1  0.66576701  0.65658676  0.80883832  1
  Si  Si0  1  0.14749538  0.00327662  0.25190402  1
  Si  Si1  1  0.64701489  0.99544101  0.24989869  1
  Si  Si2  1  0.64775268  0.29247688  0.75180359  1
  Si  Si3  1  0.47877581  0.33511513  0.58143376  1
  Si  Si4  1  0.97529314  0.32710801  0.58207465  1
  Si  Si5  1  0.47435721  0.62633691  0.08182644  1
  Si  Si6  1  0.97635201  0.61965987  0.08341793  1
  Si  Si7  1  0.17326555  0.96488113  0.91605620  1
  Si  Si8  1  0.67210818  0.38198301  0.41424246  1
  S  S0  1  0.35466860  0.71077902  0.25100837  1
  S  S1  1  0.85516910  0.71259162  0.25044681  1
  S  S2  1  0.00075470  0.28946732  0.25076938  1
  S  S3  1  0.50087873  0.28976955  0.24968250  1
  S  S4  1  0.14456823  0.29138116  0.75017860  1
  S  S5  1  0.00129820  0.71222371  0.74974896  1
  S  S6  1  0.49976016  0.71107182  0.75088107  1
  S  S7  1  0.35461434  0.99750847  0.75044569  1
  S  S8  1  0.85527027  0.99922299  0.75061916  1
  S  S9  1  0.18772318  0.04451903  0.58250075  1
  S  S10  1  0.68917035  0.04282758  0.58243237  1
  S  S11  1  0.33405934  0.62265025  0.58248831  1
  S  S12  1  0.83520853  0.62600808  0.58258797  1
  S  S13  1  0.33591422  0.04623565  0.08267831  1
  S  S14  1  0.83434623  0.04617601  0.08264814  1
  S  S15  1  0.18912938  0.33462808  0.08266488  1
  S  S16  1  0.68785408  0.33114572  0.08211809  1
  S  S17  1  0.31286768  0.66818169  0.91584629  1
  S  S18  1  0.80987264  0.66327306  0.91587981  1
  S  S19  1  0.02083388  0.37837913  0.91565320  1
  S  S20  1  0.52176961  0.37638469  0.91611167  1
  S  S21  1  0.66739332  0.95783429  0.91597019  1
  S  S22  1  0.31041355  0.95556257  0.41608381  1
  S  S23  1  0.81318421  0.95727074  0.41618320  1
  S  S24  1  0.16705407  0.37573624  0.41613422  1
  S  S25  1  0.02167278  0.66742185  0.41599286  1
  S  S26  1  0.52039242  0.66371441  0.41590050  1
  O  O0  1  0.10023973  0.03286685  0.30677535  1
  O  O1  1  0.60141135  0.03192350  0.30545468  1
  O  O2  1  0.40817451  0.78819210  0.30244608  1
  O  O3  1  0.90964046  0.79033599  0.30186534  1
  O  O4  1  0.48301365  0.17868391  0.30150840  1
  O  O5  1  0.98435808  0.18016399  0.30221987  1
  O  O6  1  0.10361878  0.17953246  0.80170995  1
  O  O7  1  0.60007117  0.16739797  0.80656260  1
  O  O8  1  0.48309824  0.78638741  0.80220282  1
  O  O9  1  0.98628030  0.79359421  0.80145249  1
  O  O10  1  0.40851162  0.02954122  0.80185252  1
  O  O11  1  0.91021449  0.02878730  0.80197139  1
  O  O12  1  0.39467973  0.97436880  0.69839773  1
  O  O13  1  0.89519955  0.97378830  0.69913032  1
  O  O14  1  0.09243162  0.20741366  0.69871031  1
  O  O15  1  0.58698373  0.19905471  0.69535395  1
  O  O16  1  0.01253207  0.81662794  0.69852273  1
  O  O17  1  0.50998920  0.81089763  0.69849483  1
  O  O18  1  0.39227959  0.81431192  0.19882068  1
  O  O19  1  0.89616995  0.81861407  0.19837685  1
  O  O20  1  0.01128056  0.20924897  0.19857221  1
  O  O21  1  0.51027775  0.20766231  0.19767684  1
  O  O22  1  0.08697274  0.97473737  0.19526534  1
  O  O23  1  0.58781036  0.97489963  0.19425847  1
  O  O24  1  0.43087682  0.36015955  0.63883694  1
  O  O25  1  0.93324018  0.36061881  0.63969176  1
  O  O26  1  0.24145620  0.12527497  0.63509939  1
  O  O27  1  0.74223032  0.12585345  0.63504778  1
  O  O28  1  0.31724486  0.51132211  0.63492455  1
  O  O29  1  0.81987514  0.51790240  0.63510783  1
  O  O30  1  0.43246082  0.50491053  0.13845976  1
  O  O31  1  0.93017366  0.49966516  0.13906482  1
  O  O32  1  0.31908069  0.12187122  0.13459234  1
  O  O33  1  0.81686380  0.12089224  0.13415722  1
  O  O34  1  0.24229881  0.35974742  0.13466289  1
  O  O35  1  0.74109759  0.35988735  0.13385378  1
  O  O36  1  0.22656381  0.30063123  0.03180459  1
  O  O37  1  0.72757143  0.30284417  0.03074332  1
  O  O38  1  0.41769863  0.53008165  0.02576596  1
  O  O39  1  0.91766240  0.53086919  0.02677614  1
  O  O40  1  0.34659880  0.15041130  0.03126169  1
  O  O41  1  0.84594629  0.15086281  0.03109155  1
  O  O42  1  0.22709795  0.15345071  0.53170634  1
  O  O43  1  0.72676983  0.15337581  0.53220248  1
  O  O44  1  0.34570045  0.53977720  0.53180356  1
  O  O45  1  0.84854019  0.54600346  0.53190700  1
  O  O46  1  0.41600079  0.30386265  0.52770263  1
  O  O47  1  0.91722011  0.30181929  0.52665887  1
  O  O48  1  0.27208582  0.69095269  0.96777559  1
  O  O49  1  0.77176337  0.69122974  0.96784851  1
  O  O50  1  0.07398788  0.45224722  0.96760752  1
  O  O51  1  0.57678901  0.45855185  0.96795673  1
  O  O52  1  0.15349188  0.83844647  0.97143311  1
  O  O53  1  0.65566764  0.85010700  0.96824848  1
  O  O54  1  0.26904532  0.85085166  0.46856127  1
  O  O55  1  0.77256634  0.85399529  0.46904009  1
  O  O56  1  0.15563565  0.46081216  0.46873951  1
  O  O57  1  0.65500284  0.46883915  0.47225565  1
  O  O58  1  0.07671228  0.69429330  0.46845317  1
  O  O59  1  0.57352020  0.69334160  0.46848199  1
  O  O60  1  0.06299475  0.64193694  0.36538829  1
  O  O61  1  0.55929041  0.63505399  0.36535145  1
  O  O62  1  0.25549854  0.87359821  0.36528186  1
  O  O63  1  0.76039125  0.87848800  0.36506381  1
  O  O64  1  0.17905432  0.48182550  0.36520552  1
  O  O65  1  0.68250932  0.50010789  0.35969276  1
  O  O66  1  0.06123032  0.48371470  0.86408837  1
  O  O67  1  0.56296778  0.48400647  0.86499916  1
  O  O68  1  0.18136544  0.86644117  0.85973900  1
  O  O69  1  0.67889240  0.87551850  0.86470275  1
  O  O70  1  0.25893763  0.64161067  0.86398612  1
  O  O71  1  0.75692357  0.63986212  0.86441423  1
  O  O72  1  0.01296907  0.82318299  0.41136044  1
  O  O73  1  0.50878273  0.81478997  0.40907990  1
  O  O74  1  0.39532263  0.97361889  0.40862320  1
  O  O75  1  0.90024945  0.97577982  0.41040152  1
  O  O76  1  0.08800665  0.20389196  0.41218774  1
  O  O77  1  0.58323411  0.19440012  0.40919112  1
  O  O78  1  0.01067889  0.20400767  0.90661612  1
  O  O79  1  0.51255780  0.20255032  0.91062825  1
  O  O80  1  0.08499252  0.97692848  0.90529765  1
  O  O81  1  0.58811621  0.97146287  0.91136394  1
  O  O82  1  0.39917282  0.82367355  0.90868503  1
  O  O83  1  0.89650891  0.81811919  0.90710075  1
  O  O84  1  0.48488514  0.16307026  0.59208838  1
  O  O85  1  0.99040605  0.16284685  0.59161176  1
  O  O86  1  0.10100925  0.02056968  0.59126836  1
  O  O87  1  0.60234638  0.01993068  0.59232474  1
  O  O88  1  0.40955055  0.79087287  0.59322288  1
  O  O89  1  0.91284795  0.79761705  0.59164557  1
  O  O90  1  0.48787281  0.81831974  0.08735282  1
  O  O91  1  0.98567333  0.80810857  0.09128947  1
  O  O92  1  0.41246651  0.02883916  0.09051484  1
  O  O93  1  0.90996762  0.02792469  0.09219651  1
  O  O94  1  0.10215598  0.18484690  0.09185647  1
  O  O95  1  0.60041957  0.18308395  0.08872786  1
  O  O96  1  0.34388476  0.15420618  0.74278569  1
  O  O97  1  0.84635486  0.15546831  0.74375428  1
  O  O98  1  0.23165561  0.30713571  0.74331152  1
  O  O99  1  0.74286262  0.31206338  0.74306248  1
  O  O100  1  0.42023359  0.53345048  0.74398577  1
  O  O101  1  0.92211656  0.53844193  0.74454183  1
  O  O102  1  0.34510576  0.53524527  0.24357669  1
  O  O103  1  0.84704965  0.53840139  0.24315298  1
  O  O104  1  0.42131304  0.30695361  0.24408380  1
  O  O105  1  0.92267392  0.30862223  0.24426838  1
  O  O106  1  0.24238002  0.17372175  0.24286105  1
  O  O107  1  0.74156934  0.17162578  0.24203937  1
  O  O108  1  0.32165196  0.51295959  0.92124907  1
  O  O109  1  0.82006804  0.50962773  0.92178394  1
  O  O110  1  0.43603320  0.35815566  0.92272051  1
  O  O111  1  0.93344295  0.35494973  0.92244690  1
  O  O112  1  0.25478657  0.15543385  0.92272247  1
  O  O113  1  0.74367604  0.13095768  0.92353526  1
  O  O114  1  0.31821047  0.12874044  0.42282818  1
  O  O115  1  0.82263852  0.13104901  0.42258712  1
  O  O116  1  0.24357490  0.35643004  0.42462356  1
  O  O117  1  0.75403300  0.35470747  0.42478462  1
  O  O118  1  0.43268009  0.50949287  0.42397423  1
  O  O119  1  0.93635450  0.51420598  0.42347474  1
  O  O120  1  0.18119632  0.48862172  0.07394866  1
  O  O121  1  0.68174329  0.48953798  0.07313737  1
  O  O122  1  0.07044180  0.63783224  0.07459820  1
  O  O123  1  0.57038228  0.64377353  0.07205398  1
  O  O124  1  0.25903569  0.87184818  0.07541119  1
  O  O125  1  0.75775657  0.87229452  0.07334691  1
  O  O126  1  0.18094382  0.87399465  0.57464248  1
  O  O127  1  0.68121523  0.87354223  0.57510469  1
  O  O128  1  0.25726033  0.64203862  0.57448358  1
  O  O129  1  0.75965875  0.64855733  0.57598408  1
  O  O130  1  0.07178282  0.49807265  0.57226366  1
  O  O131  1  0.57152819  0.50586792  0.57550357  1
  O  O132  1  0.15527468  0.83338401  0.26120030  1
  O  O133  1  0.65710543  0.83105605  0.26240058  1
  O  O134  1  0.26798679  0.68623308  0.25948204  1
  O  O135  1  0.77046248  0.69238275  0.25668441  1
  O  O136  1  0.07652355  0.45997647  0.25956219  1
  O  O137  1  0.57479250  0.45956078  0.25806641  1
  O  O138  1  0.15445396  0.46125190  0.75926205  1
  O  O139  1  0.65571291  0.47817519  0.76143336  1
  O  O140  1  0.07587056  0.68950381  0.75882157  1
  O  O141  1  0.57474587  0.68965820  0.75931085  1
  O  O142  1  0.26886890  0.84576638  0.75735319  1
  O  O143  1  0.76941219  0.84913429  0.75923411  1
loop_
_geom_bond_atom_site_label_1
_geom_bond_atom_site_label_2
_geom_bond_distance
_geom_bond_site_symmetry_2
Na0 O85 2.607675 1_555
Na0 O75 2.637623 1_545
Na0 O76 2.668226 1_655
Na0 O72 2.732071 1_645
Na0 O89 2.744429 1_545
Na0 O86 2.792411 1_655
Na1 O90 2.431609 1_555
Na1 O92 2.668470 1_565
Na1 O95 2.674991 1_565
Na1 O81 2.755804 1_554
Na1 O82 2.757599 1_554
Na1 O79 2.816328 1_564
Na2 O112 2.431033 1_555
Na2 O108 2.599319 1_555
Na2 O110 2.643194 1_555
Na2 O98 2.791817 1_555
Na2 O96 2.810225 1_555
Na2 O100 2.828675 1_555
Na3 O99 2.561656 1_555
Na3 O109 2.674193 1_555
Na3 O113 2.699583 1_555
Na3 O101 2.721816 1_555
Na3 O97 2.723241 1_555
Na3 O111 2.736016 1_555
Na4 O106 2.559766 1_555
Na4 O104 2.681395 1_555
Na4 O102 2.695431 1_555
Na4 O114 2.711802 1_555
Na4 O118 2.759755 1_555
Na4 O116 2.761887 1_555
Na5 O117 2.517388 1_555
Na5 O107 2.620050 1_555
Na5 O115 2.663853 1_555
Na5 O119 2.765430 1_555
Na5 O103 2.771443 1_555
Na5 O105 2.821840 1_555
O0 Si0 1.631354 1_555
O0 Sc0 1.886061 1_555
O1 Si1 1.653037 1_545
O1 Zr0 1.940769 1_555
O2 S0 1.474809 1_555
O2 Zr0 2.312305 1_565
O3 S1 1.482145 1_555
O3 Sc0 2.127532 1_665
O4 S3 1.495540 1_555
O4 Zr0 2.181306 1_555
O5 S2 1.482772 1_655
O5 Sc0 2.114864 1_655
O6 S4 1.501886 1_555
O6 Zr1 2.167575 1_545
O7 Si2 1.632369 1_555
O7 Sc1 1.885184 1_555
O8 S6 1.478426 1_555
O8 Sc1 2.154117 1_565
O9 S5 1.503829 1_655
O9 Zr1 2.162424 1_655
O10 S7 1.474914 1_545
O10 Sc1 2.181799 1_555
O11 S8 1.487687 1_545
O11 Zr1 2.255344 1_645
O12 S7 1.479699 1_555
O12 Zr2 2.228219 1_565
O13 S8 1.475734 1_555
O13 Sc2 2.125957 1_565
O14 S4 1.475647 1_555
O14 Sc2 2.131329 1_455
O15 Si2 1.645991 1_555
O15 Zr2 1.944832 1_555
O16 S5 1.468077 1_555
O16 Sc2 2.241196 1_465
O17 S6 1.470632 1_555
O17 Zr2 2.289532 1_565
O18 S0 1.474540 1_555
O18 Sc3 2.153226 1_555
O19 S1 1.490930 1_555
O19 Zr3 2.181221 1_655
O20 S2 1.475080 1_555
O20 Zr3 2.287070 1_545
O21 S3 1.473318 1_555
O21 Sc3 2.249587 1_545
O22 Si0 1.645997 1_565
O22 Zr3 1.939938 1_555
O23 Si1 1.627343 1_555
O23 Sc3 1.880667 1_555
O24 Si3 1.668463 1_555
O24 Zr4 1.902880 1_555
O25 Si4 1.643367 1_555
O25 Zr5 1.984164 1_555
O26 S9 1.503126 1_555
O26 Zr4 2.157983 1_555
O27 S10 1.502180 1_555
O27 Zr5 2.128768 1_555
O28 S11 1.510589 1_555
O28 Zr4 2.130100 1_555
O29 S12 1.499604 1_555
O29 Zr5 2.132479 1_555
O30 Si5 1.636828 1_555
O30 Zr6 1.983580 1_555
O31 Si6 1.624866 1_555
O31 Zr7 1.989120 1_555
O32 S13 1.492572 1_555
O32 Zr6 2.158370 1_555
O33 S14 1.485393 1_555
O33 Zr7 2.176358 1_555
O34 S15 1.488131 1_555
O34 Zr6 2.175957 1_555
O35 S16 1.478743 1_555
O35 Zr7 2.200376 1_555
O36 S15 1.470681 1_555
O36 Sc4 2.127281 1_554
O37 S16 1.481871 1_555
O37 Sc5 2.126466 1_554
O38 Si5 1.615379 1_555
O38 Sc4 1.933057 1_554
O39 Si6 1.627310 1_555
O39 Sc5 1.858851 1_554
O40 S13 1.472326 1_555
O40 Sc4 2.148206 1_554
O41 S14 1.474616 1_555
O41 Sc5 2.126565 1_554
O42 S9 1.472674 1_555
O42 Sc6 2.184973 1_555
O43 S10 1.464030 1_555
O43 Sc7 2.153001 1_555
O44 S11 1.467536 1_555
O44 Sc6 2.180137 1_555
O45 S12 1.464914 1_555
O45 Sc7 2.214625 1_555
O46 Si3 1.612414 1_555
O46 Sc6 1.874028 1_555
O47 Si4 1.602765 1_555
O47 Sc7 1.984095 1_555
O48 S17 1.483394 1_555
O48 Zr8 2.299291 1_556
O49 S18 1.475709 1_555
O49 Zr9 2.304632 1_556
O50 S19 1.477661 1_555
O50 Zr8 2.258628 1_556
O51 S20 1.500324 1_555
O51 Zr9 2.178336 1_556
O52 Si7 1.636199 1_555
O52 Zr8 1.958235 1_556
O53 S21 1.503421 1_555
O53 Zr9 2.161763 1_556
O54 S22 1.495358 1_555
O54 Zr10 2.225777 1_555
O55 S23 1.495312 1_555
O55 Zr11 2.249254 1_555
O56 S24 1.513590 1_555
O56 Zr10 2.128320 1_555
O57 Si8 1.666577 1_555
O57 Zr11 1.913746 1_555
O58 S25 1.513340 1_555
O58 Zr10 2.136300 1_555
O59 S26 1.492565 1_555
O59 Zr11 2.187806 1_555
O60 S25 1.473631 1_555
O60 Sc8 2.202431 1_555
O61 S26 1.459235 1_555
O61 Sc9 2.226774 1_555
O62 S22 1.479732 1_555
O62 Sc8 2.151705 1_555
O63 S23 1.465409 1_555
O63 Sc9 2.195541 1_555
O64 S24 1.468645 1_555
O64 Sc8 2.289712 1_555
O65 Si8 1.605337 1_555
O65 Sc9 1.981885 1_555
O66 S19 1.477018 1_555
O66 Sc10 2.180219 1_555
O67 S20 1.479145 1_555
O67 Sc11 2.161488 1_555
O68 Si7 1.630882 1_555
O68 Sc10 1.881444 1_555
O69 S21 1.474639 1_555
O69 Sc11 2.271077 1_555
O70 S17 1.491098 1_555
O70 Sc10 2.129971 1_555
O71 S18 1.478466 1_555
O71 Sc11 2.150288 1_555
O72 S25 1.486753 1_555
O72 Sc0 2.219326 1_565
O73 S26 1.480311 1_555
O73 Zr0 2.167051 1_565
O74 S22 1.462931 1_555
O74 Zr0 2.294000 1_565
O75 S23 1.495448 1_555
O75 Sc0 2.271258 1_665
O76 S24 1.488068 1_555
O76 Sc0 2.220845 1_555
O77 Si8 1.646303 1_555
O77 Zr0 1.933128 1_555
O78 S19 1.497832 1_555
O78 Zr1 2.111168 1_545
O79 S20 1.490491 1_555
O79 Sc1 2.183278 1_555
O80 Si7 1.662190 1_555
O80 Zr1 1.906817 1_555
O81 S21 1.493823 1_555
O81 Sc1 2.175768 1_565
O82 S17 1.489108 1_555
O82 Sc1 2.252498 1_565
O83 S18 1.494884 1_555
O83 Zr1 2.123986 1_655
O84 Si3 1.621274 1_555
O84 Zr2 1.941342 1_555
O85 Si4 1.642610 1_555
O85 Sc2 1.921122 1_555
O86 S9 1.477895 1_555
O86 Sc2 2.200621 1_455
O87 S10 1.487379 1_555
O87 Zr2 2.113671 1_555
O88 S11 1.460873 1_555
O88 Zr2 2.253313 1_565
O89 S12 1.488095 1_555
O89 Sc2 2.152755 1_565
O90 Si5 1.621169 1_555
O90 Sc3 1.993143 1_555
O91 Si6 1.625281 1_555
O91 Zr3 1.947361 1_655
O92 S13 1.471616 1_555
O92 Sc3 2.311186 1_545
O93 S14 1.464950 1_555
O93 Zr3 2.261939 1_645
O94 S15 1.481900 1_555
O94 Zr3 2.138816 1_545
O95 S16 1.473590 1_555
O95 Sc3 2.254182 1_545
O96 S7 1.522903 1_545
O96 Zr4 2.164529 1_555
O97 S8 1.497854 1_545
O97 Zr5 2.202901 1_555
O98 S4 1.508750 1_555
O98 Zr4 2.260321 1_555
O99 Si2 1.642162 1_555
O99 Zr5 2.059053 1_555
O100 S6 1.526885 1_555
O100 Zr4 2.144527 1_555
O101 S5 1.500965 1_655
O101 Zr5 2.200854 1_555
O102 S0 1.507617 1_555
O102 Zr6 2.173762 1_555
O103 S1 1.506109 1_555
O103 Zr7 2.158919 1_555
O104 S3 1.518820 1_555
O104 Zr6 2.138578 1_555
O105 S2 1.504481 1_655
O105 Zr7 2.154598 1_555
O106 Si0 1.638579 1_555
O106 Zr6 2.057643 1_555
O107 Si1 1.653944 1_545
O107 Zr7 2.008264 1_555
O108 S17 1.484171 1_555
O108 Sc4 2.197680 1_555
O109 S18 1.485921 1_555
O109 Sc5 2.201027 1_555
O110 S20 1.474740 1_555
O110 Sc4 2.238047 1_555
O111 S19 1.485936 1_655
O111 Sc5 2.207502 1_555
O112 Si7 1.609303 1_545
O112 Sc4 2.055893 1_555
O113 S21 1.481412 1_545
O113 Sc5 2.295407 1_555
O114 S22 1.498155 1_545
O114 Sc6 2.134895 1_555
O115 S23 1.490218 1_545
O115 Sc7 2.133940 1_555
O116 S24 1.482884 1_555
O116 Sc6 2.253661 1_555
O117 Si8 1.627472 1_555
O117 Sc7 1.999311 1_555
O118 S26 1.501727 1_555
O118 Sc6 2.117371 1_555
O119 S25 1.471320 1_655
O119 Sc7 2.200148 1_555
O120 S15 1.473009 1_555
O120 Zr8 2.215731 1_555
O121 S16 1.494590 1_555
O121 Zr9 2.112152 1_555
O122 Si6 1.629565 1_455
O122 Zr8 1.939250 1_555
O123 Si5 1.669685 1_555
O123 Zr9 1.901095 1_555
O124 S13 1.491557 1_565
O124 Zr8 2.115500 1_555
O125 S14 1.492925 1_565
O125 Zr9 2.111205 1_555
O126 S9 1.485416 1_565
O126 Zr10 2.165520 1_555
O127 S10 1.463859 1_565
O127 Zr11 2.269637 1_555
O128 S11 1.486808 1_555
O128 Zr10 2.151664 1_555
O129 S12 1.477677 1_555
O129 Zr11 2.179823 1_555
O130 Si4 1.659580 1_455
O130 Zr10 1.926894 1_555
O131 Si3 1.610135 1_555
O131 Zr11 1.979445 1_555
O132 Si0 1.614245 1_565
O132 Sc8 1.876332 1_555
O133 Si1 1.600874 1_555
O133 Sc9 1.958271 1_555
O134 S0 1.474338 1_555
O134 Sc8 2.096906 1_555
O135 S1 1.448289 1_555
O135 Sc9 2.153689 1_555
O136 S2 1.467694 1_555
O136 Sc8 2.128696 1_555
O137 S3 1.449336 1_555
O137 Sc9 2.156363 1_555
O138 S4 1.460162 1_555
O138 Sc10 2.268390 1_555
O139 Si2 1.616427 1_555
O139 Sc11 1.880067 1_555
O140 S5 1.468297 1_555
O140 Sc10 2.171248 1_555
O141 S6 1.466597 1_555
O141 Sc11 2.139233 1_555
O142 S7 1.468835 1_555
O142 Sc10 2.142540 1_555
O143 S8 1.469090 1_555
O143 Sc11 2.140123 1_555
