# generated using pymatgen
data_Mn3As
_symmetry_space_group_name_H-M   'P 1'
_cell_length_a   3.65813000
_cell_length_b   3.87657417
_cell_length_c   8.70521230
_cell_angle_alpha   90.00000000
_cell_angle_beta   102.12887075
_cell_angle_gamma   90.00000000
_symmetry_Int_Tables_number   1
_chemical_formula_structural   Mn3As
_chemical_formula_sum   'Mn6 As2'
_cell_volume   120.69303666
_cell_formula_units_Z   2
loop_
 _symmetry_equiv_pos_site_id
 _symmetry_equiv_pos_as_xyz
  1  'x, y, z'
loop_
 _atom_site_type_symbol
 _atom_site_label
 _atom_site_symmetry_multiplicity
 _atom_site_fract_x
 _atom_site_fract_y
 _atom_site_fract_z
 _atom_site_occupancy
  Mn  Mn0  1  0.94019152  0.25000000  0.88038204  1
  Mn  Mn1  1  0.05983760  0.75000000  0.11967420  1
  Mn  Mn2  1  0.55463199  0.25000000  0.10926497  1
  Mn  Mn3  1  0.44535205  0.75000000  0.89070409  1
  Mn  Mn4  1  0.31065910  0.25000000  0.62131721  1
  Mn  Mn5  1  0.68933606  0.75000000  0.37867413  1
  As  As0  1  0.16160070  0.25000000  0.32320040  1
  As  As1  1  0.83839098  0.75000000  0.67678295  1
loop_
_geom_bond_atom_site_label_1
_geom_bond_atom_site_label_2
_geom_bond_distance
_geom_bond_site_symmetry_2
As0 Mn4 2.537239 1_555
As0 Mn2 2.580835 1_555
As0 Mn2 2.580840 1_455
As0 Mn1 2.599507 1_545
As0 Mn1 2.599507 1_555
As0 Mn5 2.706533 1_545
As0 Mn5 2.706533 1_555
As0 Mn5 2.706541 1_445
As0 Mn5 2.706541 1_455
As1 Mn5 2.537171 1_555
As1 Mn3 2.580750 1_555
As1 Mn3 2.580753 1_655
As1 Mn0 2.599920 1_555
As1 Mn0 2.599920 1_565
As1 Mn4 2.706523 1_565
As1 Mn4 2.706523 1_555
As1 Mn4 2.706528 1_655
As1 Mn4 2.706528 1_665
