# generated using pymatgen
data_PrSb2Pd
_symmetry_space_group_name_H-M   'P 1'
_cell_length_a   4.50878568
_cell_length_b   4.50878568
_cell_length_c   9.97614537
_cell_angle_alpha   90.00000000
_cell_angle_beta   90.00000000
_cell_angle_gamma   90.00000000
_symmetry_Int_Tables_number   1
_chemical_formula_structural   PrSb2Pd
_chemical_formula_sum   'Pr2 Sb4 Pd2'
_cell_volume   202.80653877
_cell_formula_units_Z   2
loop_
 _symmetry_equiv_pos_site_id
 _symmetry_equiv_pos_as_xyz
  1  'x, y, z'
loop_
 _atom_site_type_symbol
 _atom_site_label
 _atom_site_symmetry_multiplicity
 _atom_site_fract_x
 _atom_site_fract_y
 _atom_site_fract_z
 _atom_site_occupancy
  Pr  Pr0  1  0.75000000  0.75000000  0.75053040  1
  Pr  Pr1  1  0.25000000  0.25000000  0.24946960  1
  Sb  Sb0  1  0.75000000  0.75000000  0.14589162  1
  Sb  Sb1  1  0.25000000  0.25000000  0.85410838  1
  Sb  Sb2  1  0.75000000  0.25000000  0.50000000  1
  Sb  Sb3  1  0.25000000  0.75000000  0.50000000  1
  Pd  Pd0  1  0.75000000  0.25000000  -0.00000000  1
  Pd  Pd1  1  0.25000000  0.75000000  -0.00000000  1
loop_
_geom_bond_atom_site_label_1
_geom_bond_atom_site_label_2
_geom_bond_distance
_geom_bond_site_symmetry_2
Pr0 Sb1 3.351463 1_555
Pr0 Sb1 3.351463 1_565
Pr0 Sb1 3.351463 1_655
Pr0 Sb1 3.351463 1_665
Pr0 Sb3 3.365847 1_655
Pr0 Sb3 3.365847 1_555
Pr0 Sb2 3.365847 1_555
Pr0 Sb2 3.365847 1_565
Pr1 Sb0 3.351463 1_445
Pr1 Sb0 3.351463 1_455
Pr1 Sb0 3.351463 1_545
Pr1 Sb0 3.351463 1_555
Pr1 Sb3 3.365847 1_555
Pr1 Sb2 3.365847 1_455
Pr1 Sb3 3.365847 1_545
Pr1 Sb2 3.365847 1_555
Sb2 Sb3 3.188193 1_645
Sb2 Sb3 3.188193 1_655
Sb2 Sb3 3.188193 1_555
Sb2 Sb3 3.188193 1_545
Pd0 Sb1 2.683390 1_654
Pd0 Sb1 2.683390 1_554
Pd0 Sb0 2.683390 1_545
Pd0 Sb0 2.683390 1_555
Pd0 Pr1 3.357996 1_655
Pd0 Pr1 3.357996 1_555
Pd0 Pr0 3.357996 1_544
Pd0 Pr0 3.357996 1_554
Pd1 Sb1 2.683390 1_564
Pd1 Sb1 2.683390 1_554
Pd1 Sb0 2.683390 1_455
Pd1 Sb0 2.683390 1_555
Pd1 Pr1 3.357996 1_565
Pd1 Pr1 3.357996 1_555
Pd1 Pr0 3.357996 1_554
Pd1 Pr0 3.357996 1_454
