# generated using pymatgen
data_Na3Y2Zr2P5SO24
_symmetry_space_group_name_H-M   'P 1'
_cell_length_a   9.10588207
_cell_length_b   9.09142648
_cell_length_c   23.32435410
_cell_angle_alpha   90.12675108
_cell_angle_beta   89.97814363
_cell_angle_gamma   119.74858083
_symmetry_Int_Tables_number   1
_chemical_formula_structural   Na3Y2Zr2P5SO24
_chemical_formula_sum   'Na9 Y6 Zr6 P15 S3 O72'
_cell_volume   1676.43918924
_cell_formula_units_Z   3
loop_
 _symmetry_equiv_pos_site_id
 _symmetry_equiv_pos_as_xyz
  1  'x, y, z'
loop_
 _atom_site_type_symbol
 _atom_site_label
 _atom_site_symmetry_multiplicity
 _atom_site_fract_x
 _atom_site_fract_y
 _atom_site_fract_z
 _atom_site_occupancy
  Na  Na0  1  0.00488233  0.36045891  0.75254560  1
  Na  Na1  1  0.67046174  0.95864317  0.58292290  1
  Na  Na2  1  0.04421767  0.33110815  0.08431960  1
  Na  Na3  1  0.01418692  0.98555628  0.50013635  1
  Na  Na4  1  0.01676207  0.99042923  0.99881766  1
  Na  Na5  1  0.64871912  0.31850132  0.83443368  1
  Na  Na6  1  0.69162017  0.34122406  0.33326558  1
  Na  Na7  1  0.35964972  0.67168442  0.16788165  1
  Na  Na8  1  0.33526961  0.66710077  0.66713242  1
  Y  Y0  1  0.00937936  0.99554206  0.64585530  1
  Y  Y1  1  0.99410789  0.99080739  0.14581486  1
  Y  Y2  1  0.33401080  0.67403119  0.01813894  1
  Y  Y3  1  0.32261055  0.66470554  0.51815729  1
  Y  Y4  1  0.32844035  0.66459857  0.31645120  1
  Y  Y5  1  0.33736743  0.67959199  0.81765433  1
  Zr  Zr0  1  0.98020082  0.99237328  0.34997402  1
  Zr  Zr1  1  0.00617631  0.00463414  0.84930392  1
  Zr  Zr2  1  0.66141671  0.33932685  0.68690827  1
  Zr  Zr3  1  0.66927205  0.33892379  0.18703650  1
  Zr  Zr4  1  0.66320661  0.32622176  0.98151074  1
  Zr  Zr5  1  0.67551342  0.33954908  0.48137536  1
  P  P0  1  0.70009291  0.69733992  0.24929754  1
  P  P1  1  0.99564773  0.29414763  0.24615868  1
  P  P2  1  0.29639614  0.29591100  0.75028384  1
  P  P3  1  0.99346051  0.69739884  0.75083494  1
  P  P4  1  0.70760446  0.00422704  0.74554401  1
  P  P5  1  0.95769599  0.33656278  0.58658565  1
  P  P6  1  0.38310400  0.04800137  0.58173465  1
  P  P7  1  0.66213543  0.62482987  0.58259894  1
  P  P8  1  0.95402088  0.61866817  0.08224007  1
  P  P9  1  0.66343219  0.04281708  0.08492104  1
  P  P10  1  0.37774428  0.33612250  0.08420333  1
  P  P11  1  0.02805805  0.35998465  0.91675561  1
  P  P12  1  0.33022414  0.97521449  0.91735265  1
  P  P13  1  0.63376766  0.96955026  0.41980635  1
  P  P14  1  0.02811037  0.67132969  0.41564328  1
  S  S0  1  0.29901852  0.00874596  0.25130840  1
  S  S1  1  0.64286484  0.66942172  0.91646203  1
  S  S2  1  0.32975232  0.35603990  0.41603145  1
  O  O0  1  0.20688465  0.01831100  0.30236989  1
  O  O1  1  0.81192489  0.79325435  0.30276189  1
  O  O2  1  0.98199510  0.17505254  0.29709587  1
  O  O3  1  0.20626791  0.18239017  0.80357723  1
  O  O4  1  0.98235807  0.79440974  0.80416092  1
  O  O5  1  0.83130956  0.02481169  0.79592934  1
  O  O6  1  0.78114447  0.98646414  0.68832893  1
  O  O7  1  0.18764959  0.21441350  0.69713570  1
  O  O8  1  0.01465631  0.79735176  0.69613376  1
  O  O9  1  0.78744698  0.79728207  0.19543930  1
  O  O10  1  0.01397266  0.22003339  0.18902105  1
  O  O11  1  0.20468120  0.99365246  0.19814931  1
  O  O12  1  0.86656396  0.34538744  0.64226613  1
  O  O13  1  0.48488126  0.14604035  0.63633070  1
  O  O14  1  0.66028464  0.52435781  0.63711775  1
  O  O15  1  0.85693743  0.51650138  0.13682786  1
  O  O16  1  0.65542091  0.13970666  0.13879776  1
  O  O17  1  0.47908390  0.34092305  0.13875230  1
  O  O18  1  0.47656534  0.33333673  0.03049349  1
  O  O19  1  0.84945062  0.52092533  0.02905371  1
  O  O20  1  0.66803545  0.14610240  0.03092369  1
  O  O21  1  0.48146700  0.15024420  0.52847119  1
  O  O22  1  0.66416128  0.52577155  0.52889529  1
  O  O23  1  0.85051924  0.33445817  0.53386089  1
  O  O24  1  0.56309896  0.69273902  0.96821051  1
  O  O25  1  0.13500398  0.43873188  0.97150169  1
  O  O26  1  0.30681323  0.86830911  0.97107500  1
  O  O27  1  0.56651928  0.87122052  0.47645594  1
  O  O28  1  0.30349478  0.43403865  0.46792628  1
  O  O29  1  0.13334826  0.69774997  0.47027101  1
  O  O30  1  0.10615752  0.63663152  0.36298430  1
  O  O31  1  0.51888117  0.87774468  0.36884186  1
  O  O32  1  0.35542614  0.46033358  0.36469847  1
  O  O33  1  0.11153788  0.46694553  0.86288653  1
  O  O34  1  0.36505519  0.89980467  0.86387497  1
  O  O35  1  0.54028740  0.64533871  0.86461738  1
  O  O36  1  0.01132280  0.83255559  0.40732957  1
  O  O37  1  0.81529296  0.99421379  0.40899028  1
  O  O38  1  0.17782519  0.18466468  0.40847617  1
  O  O39  1  0.00171403  0.17772229  0.90841667  1
  O  O40  1  0.16779910  0.98960422  0.91026814  1
  O  O41  1  0.81319172  0.82200502  0.91012962  1
  O  O42  1  0.95887789  0.16765877  0.58392604  1
  O  O43  1  0.20557380  0.02649978  0.58046785  1
  O  O44  1  0.82087786  0.80267479  0.58156529  1
  O  O45  1  0.97767007  0.79715142  0.08177926  1
  O  O46  1  0.83239740  0.04132068  0.08335319  1
  O  O47  1  0.19954096  0.17727005  0.08377237  1
  O  O48  1  0.70280950  0.17498914  0.74603503  1
  O  O49  1  0.47313652  0.31000893  0.74637049  1
  O  O50  1  0.82851065  0.51979618  0.74895341  1
  O  O51  1  0.68855870  0.52012376  0.24831991  1
  O  O52  1  0.82777524  0.30247114  0.24638128  1
  O  O53  1  0.46786807  0.16636374  0.24958360  1
  O  O54  1  0.66494659  0.51869404  0.92219242  1
  O  O55  1  0.84764007  0.33859086  0.92334607  1
  O  O56  1  0.48192912  0.15894911  0.92365661  1
  O  O57  1  0.66147002  0.15281422  0.42384427  1
  O  O58  1  0.48034670  0.33467271  0.42248146  1
  O  O59  1  0.84522504  0.51787641  0.42283211  1
  O  O60  1  0.35595041  0.49443329  0.08372290  1
  O  O61  1  0.12392438  0.61885163  0.08202625  1
  O  O62  1  0.50857633  0.86531927  0.08380421  1
  O  O63  1  0.38017705  0.87617621  0.58264522  1
  O  O64  1  0.50361557  0.64486490  0.58350031  1
  O  O65  1  0.13470909  0.49240933  0.58449761  1
  O  O66  1  0.32441320  0.86023269  0.25483635  1
  O  O67  1  0.52352629  0.67676846  0.25469439  1
  O  O68  1  0.14741801  0.47208614  0.25436613  1
  O  O69  1  0.31169513  0.47052139  0.75781885  1
  O  O70  1  0.14191888  0.66097077  0.75536444  1
  O  O71  1  0.53052140  0.85324607  0.75428169  1
loop_
_geom_bond_atom_site_label_1
_geom_bond_atom_site_label_2
_geom_bond_distance
_geom_bond_site_symmetry_2
Na0 O70 2.375228 1_555
Na0 O48 2.414268 1_455
Na0 O69 2.459095 1_555
Na0 O50 2.644653 1_455
Na0 O33 2.749882 1_555
Na0 O12 2.837426 1_455
Na0 O5 2.838992 1_455
Na0 O7 2.895978 1_555
Na1 O42 2.357137 1_565
Na1 O63 2.362723 1_555
Na1 O44 2.411391 1_555
Na1 O64 2.478980 1_555
Na1 O6 2.621122 1_555
Na1 O27 2.634522 1_555
Na2 O61 2.342956 1_555
Na2 O46 2.370374 1_455
Na2 O47 2.433033 1_555
Na2 O60 2.465740 1_555
Na2 O10 2.606496 1_555
Na2 O25 2.787847 1_554
Na3 O43 2.458055 1_565
Na3 O36 2.563593 1_555
Na3 O44 2.564597 1_455
Na3 O38 2.721335 1_565
Na3 O42 2.761596 1_465
Na3 O37 2.819750 1_455
Na4 O40 2.483000 1_555
Na4 O45 2.520411 1_456
Na4 O47 2.600746 1_566
Na4 O41 2.689231 1_455
Na4 O39 2.758946 1_565
Na4 O46 2.772086 1_466
Na5 O56 2.562473 1_555
Na5 O49 2.580798 1_555
Na5 O48 2.611738 1_555
Na5 O50 2.654221 1_555
Na5 O54 2.690928 1_555
Na5 O55 2.699625 1_555
Na6 O52 2.489268 1_555
Na6 O51 2.575070 1_555
Na6 O59 2.580325 1_555
Na6 O57 2.649865 1_555
Na6 O53 2.695007 1_555
Na6 O58 2.814003 1_555
Na7 O67 2.502475 1_555
Na7 O60 2.526521 1_555
Na7 O62 2.535334 1_555
Na7 O68 2.762204 1_555
Na7 O66 2.772134 1_555
Na7 O61 2.797154 1_555
Na8 O64 2.549386 1_555
Na8 O65 2.585203 1_555
Na8 O63 2.628333 1_555
Na8 O71 2.675535 1_555
Na8 O70 2.690440 1_555
Na8 O69 2.711061 1_555
O0 S0 1.483584 1_555
O0 Zr0 2.250679 1_445
O1 P0 1.570787 1_555
O1 Zr0 2.019247 1_555
O2 P1 1.572042 1_555
O2 Zr0 2.064423 1_545
O3 P2 1.564662 1_555
O3 Zr1 2.037881 1_555
O4 P3 1.555200 1_555
O4 Zr1 2.094862 1_665
O5 P4 1.573480 1_555
O5 Zr1 2.100325 1_655
O6 P4 1.536584 1_565
O6 Y0 2.266288 1_655
O7 P2 1.528078 1_555
O7 Y0 2.193318 1_545
O8 P3 1.523728 1_455
O8 Y0 2.172436 1_555
O9 P0 1.524272 1_555
O9 Y1 2.167526 1_555
O10 P1 1.537978 1_455
O10 Y1 2.237870 1_445
O11 S0 1.475530 1_565
O11 Y1 2.262689 1_455
O12 P5 1.564131 1_555
O12 Zr2 2.115055 1_555
O13 P6 1.565586 1_555
O13 Zr2 2.062198 1_555
O14 P7 1.562530 1_555
O14 Zr2 2.050473 1_555
O15 P8 1.566798 1_555
O15 Zr3 2.041330 1_555
O16 P9 1.555374 1_555
O16 Zr3 2.080040 1_555
O17 P10 1.559782 1_555
O17 Zr3 2.073815 1_555
O18 P10 1.549635 1_555
O18 Zr4 2.074891 1_554
O19 P8 1.546476 1_555
O19 Zr4 2.062227 1_554
O20 P9 1.560722 1_555
O20 Zr4 2.022779 1_554
O21 P6 1.545220 1_555
O21 Zr5 2.068774 1_555
O22 P7 1.546570 1_555
O22 Zr5 2.066593 1_555
O23 P5 1.564429 1_555
O23 Zr5 2.028602 1_555
O24 S1 1.476603 1_555
O24 Y2 2.320265 1_556
O25 P11 1.548044 1_555
O25 Y2 2.277605 1_556
O26 P12 1.536149 1_555
O26 Y2 2.197483 1_556
O27 P13 1.543168 1_555
O27 Y3 2.296123 1_555
O28 S2 1.479649 1_555
O28 Y3 2.329760 1_555
O29 P14 1.539685 1_555
O29 Y3 2.196502 1_555
O30 P14 1.527501 1_555
O30 Y4 2.197354 1_555
O31 P13 1.527787 1_555
O31 Y4 2.216265 1_555
O32 S2 1.473795 1_555
O32 Y4 2.288614 1_555
O33 P11 1.540537 1_555
O33 Y5 2.267453 1_555
O34 P12 1.529105 1_555
O34 Y5 2.173414 1_555
O35 S1 1.476282 1_555
O35 Y5 2.298949 1_555
O36 P14 1.559841 1_555
O36 Zr0 2.097287 1_455
O37 P13 1.574254 1_555
O37 Zr0 2.042849 1_555
O38 S2 1.494110 1_555
O38 Zr0 2.241828 1_445
O39 P11 1.563728 1_555
O39 Zr1 2.105406 1_555
O40 P12 1.556994 1_555
O40 Zr1 2.099666 1_565
O41 S1 1.489046 1_555
O41 Zr1 2.229491 1_665
O42 P5 1.542058 1_555
O42 Y0 2.339040 1_645
O43 P6 1.529310 1_555
O43 Y0 2.257809 1_545
O44 P7 1.544358 1_555
O44 Y0 2.296279 1_655
O45 P8 1.527363 1_555
O45 Y1 2.253879 1_555
O46 P9 1.545791 1_555
O46 Y1 2.275387 1_545
O47 P10 1.547010 1_555
O47 Y1 2.308451 1_445
O48 P4 1.574609 1_555
O48 Zr2 2.201036 1_555
O49 P2 1.552446 1_555
O49 Zr2 2.116666 1_555
O50 P3 1.567818 1_555
O50 Zr2 2.148274 1_555
O51 P0 1.561812 1_555
O51 Zr3 2.119078 1_555
O52 P1 1.567559 1_555
O52 Zr3 2.141767 1_555
O53 S0 1.494239 1_555
O53 Zr3 2.259587 1_555
O54 S1 1.486731 1_555
O54 Zr4 2.227025 1_555
O55 P11 1.563105 1_655
O55 Zr4 2.117818 1_555
O56 P12 1.558617 1_545
O56 Zr4 2.088014 1_555
O57 P13 1.559079 1_545
O57 Zr5 2.115119 1_555
O58 S2 1.485080 1_555
O58 Zr5 2.229492 1_555
O59 P14 1.562997 1_655
O59 Zr5 2.098330 1_555
O60 P10 1.547429 1_555
O60 Y2 2.319687 1_555
O61 P8 1.546300 1_455
O61 Y2 2.276083 1_555
O62 P9 1.528000 1_565
O62 Y2 2.267963 1_555
O63 P6 1.549277 1_565
O63 Y3 2.284987 1_555
O64 P7 1.542105 1_555
O64 Y3 2.317356 1_555
O65 P5 1.530298 1_455
O65 Y3 2.263722 1_555
O66 S0 1.481090 1_565
O66 Y4 2.303507 1_555
O67 P0 1.528846 1_555
O67 Y4 2.246443 1_555
O68 P1 1.530927 1_455
O68 Y4 2.237165 1_555
O69 P2 1.532852 1_555
O69 Y5 2.272184 1_555
O70 P3 1.546897 1_455
O70 Y5 2.238039 1_555
O71 P4 1.526521 1_565
O71 Y5 2.241326 1_555
