# generated using pymatgen
data_NaAlBP2H3O10
_symmetry_space_group_name_H-M   'P 1'
_cell_length_a   6.65089465
_cell_length_b   6.65089465
_cell_length_c   9.11282657
_cell_angle_alpha   68.87172234
_cell_angle_beta   68.87172234
_cell_angle_gamma   74.81440778
_symmetry_Int_Tables_number   1
_chemical_formula_structural   NaAlBP2H3O10
_chemical_formula_sum   'Na2 Al2 B2 P4 H6 O20'
_cell_volume   346.66502528
_cell_formula_units_Z   2
loop_
 _symmetry_equiv_pos_site_id
 _symmetry_equiv_pos_as_xyz
  1  'x, y, z'
loop_
 _atom_site_type_symbol
 _atom_site_label
 _atom_site_symmetry_multiplicity
 _atom_site_fract_x
 _atom_site_fract_y
 _atom_site_fract_z
 _atom_site_occupancy
  Na  Na0  1  0.13011700  0.86988300  0.75000000  1
  Na  Na1  1  0.86988300  0.13011700  0.25000000  1
  Al  Al0  1  0.50000000  0.00000000  0.00000000  1
  Al  Al1  1  0.00000000  0.50000000  0.50000000  1
  B  B0  1  0.53374400  0.46625600  0.75000000  1
  B  B1  1  0.46625600  0.53374400  0.25000000  1
  P  P0  1  0.70807900  0.83854300  0.68113000  1
  P  P1  1  0.16145700  0.29192100  0.81887000  1
  P  P2  1  0.29192100  0.16145700  0.31887000  1
  P  P3  1  0.83854300  0.70807900  0.18113000  1
  H  H0  1  0.00000000  0.50000000  0.00000000  1
  H  H1  1  0.50000000  0.00000000  0.50000000  1
  H  H2  1  0.67987300  0.31382200  0.56703900  1
  H  H3  1  0.68617800  0.32012700  0.93296100  1
  H  H4  1  0.31382200  0.67987300  0.06703900  1
  H  H5  1  0.32012700  0.68617800  0.43296100  1
  O  O0  1  0.03611100  0.63474500  0.04472100  1
  O  O1  1  0.36525500  0.96388900  0.45527900  1
  O  O2  1  0.43047600  0.70401800  0.09870500  1
  O  O3  1  0.29598200  0.56952400  0.40129500  1
  O  O4  1  0.56952400  0.29598200  0.90129500  1
  O  O5  1  0.70401800  0.43047600  0.59870500  1
  O  O6  1  0.52969600  0.68413700  0.75734700  1
  O  O7  1  0.31586300  0.47030400  0.74265300  1
  O  O8  1  0.47030400  0.31586300  0.24265300  1
  O  O9  1  0.68413700  0.52969600  0.25734700  1
  O  O10  1  0.72193800  0.91615600  0.81555200  1
  O  O11  1  0.08384400  0.27806200  0.68444800  1
  O  O12  1  0.27806200  0.08384400  0.18444800  1
  O  O13  1  0.91615600  0.72193800  0.31555200  1
  O  O14  1  0.93059900  0.71336400  0.60849700  1
  O  O15  1  0.28663600  0.06940100  0.89150300  1
  O  O16  1  0.06940100  0.28663600  0.39150300  1
  O  O17  1  0.71336400  0.93059900  0.10849700  1
  O  O18  1  0.63474500  0.03611100  0.54472100  1
  O  O19  1  0.96388900  0.36525500  0.95527900  1
loop_
_geom_bond_atom_site_label_1
_geom_bond_atom_site_label_2
_geom_bond_distance
_geom_bond_site_symmetry_2
Na0 O0 2.514669 1_556
Na0 O1 2.514669 1_555
Na0 O11 2.519361 1_565
Na0 O10 2.519361 1_455
Na0 O6 2.634751 1_555
Na0 O7 2.634751 1_555
Na0 O15 2.726223 1_565
Na0 O14 2.726223 1_455
Na1 O19 2.514669 1_554
Na1 O18 2.514669 1_555
Na1 O12 2.519361 1_655
Na1 O13 2.519361 1_545
Na1 O9 2.634751 1_555
Na1 O8 2.634751 1_555
Na1 O17 2.726223 1_545
Na1 O16 2.726223 1_655
Al0 O15 1.882463 1_554
Al0 O17 1.882463 1_545
Al0 O10 1.941873 1_544
Al0 O12 1.941873 1_555
Al0 O2 1.948994 1_545
Al0 O4 1.948994 1_554
Al1 O14 1.882463 1_455
Al1 O16 1.882463 1_555
Al1 O11 1.941873 1_555
Al1 O13 1.941873 1_455
Al1 O5 1.948994 1_455
Al1 O3 1.948994 1_555
B0 O6 1.467417 1_555
B0 O7 1.467417 1_555
B0 O4 1.486519 1_555
B0 O5 1.486519 1_555
B1 O9 1.467417 1_555
B1 O8 1.467417 1_555
B1 O3 1.486519 1_555
B1 O2 1.486519 1_555
H0 O0 1.213883 1_555
H0 O19 1.213883 1_454
H1 O18 1.213883 1_555
H1 O1 1.213883 1_545
H2 O5 0.985438 1_555
H3 O4 0.985438 1_555
H4 O2 0.985438 1_555
H5 O3 0.985438 1_555
O0 P3 1.559970 1_455
O1 P2 1.559970 1_565
O6 P0 1.573089 1_555
O7 P1 1.573089 1_555
O8 P2 1.573089 1_555
O9 P3 1.573089 1_555
O10 P0 1.528943 1_555
O11 P1 1.528943 1_555
O12 P2 1.528943 1_555
O13 P3 1.528943 1_555
O14 P0 1.538534 1_555
O15 P1 1.538534 1_555
O16 P2 1.538534 1_555
O17 P3 1.538534 1_555
O18 P0 1.559970 1_545
O19 P1 1.559970 1_655
