# generated using pymatgen
data_MgV2(BiO4)2
_symmetry_space_group_name_H-M   'P 1'
_cell_length_a   6.33676526
_cell_length_b   6.33679102
_cell_length_c   6.42946872
_cell_angle_alpha   105.62360121
_cell_angle_beta   105.62451001
_cell_angle_gamma   117.05465291
_symmetry_Int_Tables_number   1
_chemical_formula_structural   MgV2(BiO4)2
_chemical_formula_sum   'Mg1 V2 Bi2 O8'
_cell_volume   196.96901797
_cell_formula_units_Z   1
loop_
 _symmetry_equiv_pos_site_id
 _symmetry_equiv_pos_as_xyz
  1  'x, y, z'
loop_
 _atom_site_type_symbol
 _atom_site_label
 _atom_site_symmetry_multiplicity
 _atom_site_fract_x
 _atom_site_fract_y
 _atom_site_fract_z
 _atom_site_occupancy
  Mg  Mg0  1  0.86202200  0.13790600  0.24996700  1
  V  V0  1  0.37067200  0.62921300  0.74995800  1
  V  V1  1  0.59925100  0.40088200  0.25005200  1
  Bi  Bi0  1  0.16766900  0.83233700  0.24999600  1
  Bi  Bi1  1  0.88629600  0.11365300  0.74999000  1
  O  O0  1  0.24952400  0.20706600  0.06285600  1
  O  O1  1  0.20737500  0.61934000  0.94322000  1
  O  O2  1  0.38065100  0.79260700  0.55675500  1
  O  O3  1  0.17023700  0.27058200  0.55124100  1
  O  O4  1  0.79300400  0.75052400  0.43718300  1
  O  O5  1  0.61797000  0.16948900  0.38190100  1
  O  O6  1  0.83054100  0.38207200  0.11813800  1
  O  O7  1  0.72936800  0.82974500  0.94874300  1
loop_
_geom_bond_atom_site_label_1
_geom_bond_atom_site_label_2
_geom_bond_distance
_geom_bond_site_symmetry_2
Mg0 O7 1.965570 1_544
Mg0 O3 1.965884 1_655
Mg0 O5 2.011970 1_555
Mg0 O6 2.012012 1_555
Bi0 O2 2.217547 1_555
Bi0 O1 2.217597 1_554
Bi0 O6 2.366462 1_455
Bi0 O5 2.366587 1_565
Bi1 O4 2.306218 1_545
Bi1 O0 2.306465 1_656
Bi1 O7 2.480694 1_545
Bi1 O3 2.480819 1_655
Bi1 O2 2.552139 1_545
Bi1 O1 2.552382 1_655
Bi1 O5 2.729078 1_555
Bi1 O6 2.729318 1_556
O0 V1 1.777448 1_555
O1 V0 1.815005 1_555
O2 V0 1.815104 1_555
O3 V0 1.829305 1_555
O4 V1 1.777019 1_555
O5 V1 1.912139 1_555
O6 V1 1.911981 1_555
O7 V0 1.829633 1_555
