# generated using pymatgen
data_UCoGe
_symmetry_space_group_name_H-M   'P 1'
_cell_length_a   4.25941511
_cell_length_b   6.90441913
_cell_length_c   7.17402955
_cell_angle_alpha   90.00000000
_cell_angle_beta   90.00000000
_cell_angle_gamma   90.00000000
_symmetry_Int_Tables_number   1
_chemical_formula_structural   UCoGe
_chemical_formula_sum   'U4 Co4 Ge4'
_cell_volume   210.97950817
_cell_formula_units_Z   4
loop_
 _symmetry_equiv_pos_site_id
 _symmetry_equiv_pos_as_xyz
  1  'x, y, z'
loop_
 _atom_site_type_symbol
 _atom_site_label
 _atom_site_symmetry_multiplicity
 _atom_site_fract_x
 _atom_site_fract_y
 _atom_site_fract_z
 _atom_site_occupancy
  U  U0  1  0.25000000  0.50840852  0.78257834  1
  U  U1  1  0.75000000  0.49159148  0.21742166  1
  U  U2  1  0.25000000  0.00840852  0.71742166  1
  U  U3  1  0.75000000  0.99159148  0.28257834  1
  Co  Co0  1  0.75000000  0.21877173  0.92035257  1
  Co  Co1  1  0.25000000  0.28122827  0.42035257  1
  Co  Co2  1  0.75000000  0.71877173  0.57964743  1
  Co  Co3  1  0.25000000  0.78122827  0.07964743  1
  Ge  Ge0  1  0.25000000  0.20133480  0.08784691  1
  Ge  Ge1  1  0.75000000  0.29866520  0.58784691  1
  Ge  Ge2  1  0.25000000  0.70133480  0.41215309  1
  Ge  Ge3  1  0.75000000  0.79866520  0.91215309  1
loop_
_geom_bond_atom_site_label_1
_geom_bond_atom_site_label_2
_geom_bond_distance
_geom_bond_site_symmetry_2
Co0 Ge0 2.448267 1_556
Co0 Ge0 2.448267 1_656
Co0 Ge1 2.448355 1_555
Co0 U1 2.844314 1_556
Co0 Ge3 2.901188 1_545
Co0 U2 2.960519 1_555
Co0 U2 2.960519 1_655
Co0 U3 3.035319 1_546
Co0 U0 3.084101 1_655
Co0 U0 3.084101 1_555
Co1 Ge1 2.448267 1_555
Co1 Ge1 2.448267 1_455
Co1 Ge0 2.448355 1_555
Co1 U2 2.844314 1_555
Co1 Ge2 2.901188 1_555
Co1 U1 2.960519 1_455
Co1 U1 2.960519 1_555
Co1 U0 3.035319 1_555
Co1 U3 3.084101 1_545
Co1 U3 3.084101 1_445
Co2 Ge2 2.448267 1_555
Co2 Ge2 2.448267 1_655
Co2 Ge3 2.448355 1_555
Co2 U3 2.844314 1_555
Co2 Ge1 2.901188 1_555
Co2 U0 2.960519 1_655
Co2 U0 2.960519 1_555
Co2 U1 3.035319 1_555
Co2 U2 3.084101 1_565
Co2 U2 3.084101 1_665
Co3 Ge3 2.448267 1_554
Co3 Ge3 2.448267 1_454
Co3 Ge2 2.448355 1_555
Co3 U0 2.844314 1_554
Co3 Ge0 2.901188 1_565
Co3 U3 2.960519 1_455
Co3 U3 2.960519 1_555
Co3 U2 3.035319 1_564
Co3 U1 3.084101 1_455
Co3 U1 3.084101 1_555
Ge0 U3 2.929922 1_445
Ge0 U3 2.929922 1_545
Ge0 U2 2.972598 1_554
Ge0 U0 3.048152 1_554
Ge0 U1 3.068549 1_555
Ge0 U1 3.068549 1_455
Ge1 U0 2.929922 1_555
Ge1 U0 2.929922 1_655
Ge1 U1 2.972598 1_555
Ge1 U3 3.048152 1_545
Ge1 U2 3.068549 1_555
Ge1 U2 3.068549 1_655
Ge2 U1 2.929922 1_555
Ge2 U1 2.929922 1_455
Ge2 U0 2.972598 1_555
Ge2 U2 3.048152 1_565
Ge2 U3 3.068549 1_455
Ge2 U3 3.068549 1_555
Ge3 U2 2.929922 1_665
Ge3 U2 2.929922 1_565
Ge3 U3 2.972598 1_556
Ge3 U1 3.048152 1_556
Ge3 U0 3.068549 1_655
Ge3 U0 3.068549 1_555
