# generated using pymatgen
data_Na10Mg3Ti5Si6(SO8)6
_symmetry_space_group_name_H-M   'P 1'
_cell_length_a   17.79135322
_cell_length_b   8.89252033
_cell_length_c   22.25205421
_cell_angle_alpha   89.90963404
_cell_angle_beta   89.59259291
_cell_angle_gamma   119.77673398
_symmetry_Int_Tables_number   1
_chemical_formula_structural   Na10Mg3Ti5Si6(SO8)6
_chemical_formula_sum   'Na30 Mg9 Ti15 Si18 S18 O144'
_cell_volume   3055.54556338
_cell_formula_units_Z   3
loop_
 _symmetry_equiv_pos_site_id
 _symmetry_equiv_pos_as_xyz
  1  'x, y, z'
loop_
 _atom_site_type_symbol
 _atom_site_label
 _atom_site_symmetry_multiplicity
 _atom_site_fract_x
 _atom_site_fract_y
 _atom_site_fract_z
 _atom_site_occupancy
  Na  Na0  1  0.31723924  0.00012332  0.24759606  1
  Na  Na1  1  0.19382454  0.36970060  0.24419010  1
  Na  Na2  1  0.68844164  0.36839315  0.24375500  1
  Na  Na3  1  0.99849259  0.63641806  0.25092499  1
  Na  Na4  1  0.31665979  0.62158633  0.75246782  1
  Na  Na5  1  0.81734367  0.62567214  0.75016986  1
  Na  Na6  1  0.99466638  0.36567906  0.74876130  1
  Na  Na7  1  0.49511149  0.37083351  0.74302313  1
  Na  Na8  1  0.18360563  0.00580416  0.74966066  1
  Na  Na9  1  0.68757994  0.00979318  0.75088268  1
  Na  Na10  1  0.64899146  0.34457191  0.57686562  1
  Na  Na11  1  0.32433069  0.68418895  0.07993986  1
  Na  Na12  1  0.82686367  0.68815212  0.08649367  1
  Na  Na13  1  0.16270974  0.31110233  0.92180187  1
  Na  Na14  1  0.99399140  0.30603100  0.41995244  1
  Na  Na15  1  0.16541466  0.02970913  0.41948328  1
  Na  Na16  1  0.66231134  0.02579254  0.41551790  1
  Na  Na17  1  0.84478548  0.67179793  0.41881922  1
  Na  Na18  1  0.00194373  0.00491561  0.50260758  1
  Na  Na19  1  0.49169801  0.00098888  0.49682565  1
  Na  Na20  1  0.00248845  0.01288038  0.99894621  1
  Na  Na21  1  0.50250010  0.01765347  0.99681784  1
  Na  Na22  1  0.34113752  0.34685232  0.83419149  1
  Na  Na23  1  0.83575346  0.33514498  0.83125405  1
  Na  Na24  1  0.34000786  0.36208112  0.32909327  1
  Na  Na25  1  0.83251693  0.33009641  0.32860524  1
  Na  Na26  1  0.16609485  0.66055024  0.15992808  1
  Na  Na27  1  0.66208539  0.66551598  0.16150009  1
  Na  Na28  1  0.16327692  0.66303746  0.66156264  1
  Na  Na29  1  0.66145164  0.66779782  0.66115429  1
  Mg  Mg0  1  0.49799763  0.99829244  0.35228969  1
  Mg  Mg1  1  0.33563003  0.34269536  0.68401990  1
  Mg  Mg2  1  0.83616329  0.33655760  0.68830988  1
  Mg  Mg3  1  0.33196433  0.34131906  0.18591744  1
  Mg  Mg4  1  0.83083046  0.33291787  0.18332511  1
  Mg  Mg5  1  0.16534746  0.65002070  0.01645905  1
  Mg  Mg6  1  0.66010623  0.64812075  0.01805376  1
  Mg  Mg7  1  0.16256400  0.65899600  0.51675571  1
  Mg  Mg8  1  0.66335513  0.65905372  0.51796639  1
  Ti  Ti0  1  0.00207700  0.98986904  0.35518614  1
  Ti  Ti1  1  0.99737032  0.00702572  0.84883000  1
  Ti  Ti2  1  0.50261609  0.99776301  0.85765528  1
  Ti  Ti3  1  0.00142265  0.00169166  0.65415465  1
  Ti  Ti4  1  0.50532293  0.01370191  0.64756276  1
  Ti  Ti5  1  0.00783424  0.99567107  0.14725580  1
  Ti  Ti6  1  0.49843522  0.00175286  0.14526660  1
  Ti  Ti7  1  0.33194714  0.34370442  0.97621271  1
  Ti  Ti8  1  0.82616928  0.32252171  0.98085844  1
  Ti  Ti9  1  0.33861907  0.33953037  0.48421774  1
  Ti  Ti10  1  0.83419591  0.33862578  0.47265009  1
  Ti  Ti11  1  0.17240199  0.66132564  0.31480846  1
  Ti  Ti12  1  0.67901424  0.67575938  0.31703442  1
  Ti  Ti13  1  0.15582018  0.63820535  0.81806426  1
  Ti  Ti14  1  0.65524367  0.65103522  0.80974715  1
  Si  Si0  1  0.14844788  0.99605049  0.25212744  1
  Si  Si1  1  0.35871773  0.70980276  0.25232348  1
  Si  Si2  1  0.85560135  0.71333752  0.24913624  1
  Si  Si3  1  0.14639839  0.29098252  0.75025699  1
  Si  Si4  1  0.64396204  0.28648881  0.75112415  1
  Si  Si5  1  0.00371467  0.71472319  0.75241269  1
  Si  Si6  1  0.49822933  0.71507636  0.75042389  1
  Si  Si7  1  0.85238402  0.99527886  0.74999125  1
  Si  Si8  1  0.48129436  0.33490003  0.58781975  1
  Si  Si9  1  0.18504320  0.33273050  0.08537779  1
  Si  Si10  1  0.68473895  0.33469382  0.08733078  1
  Si  Si11  1  0.31401138  0.67605720  0.91835338  1
  Si  Si12  1  0.01270666  0.36235576  0.92050696  1
  Si  Si13  1  0.51840024  0.37001635  0.91841070  1
  Si  Si14  1  0.81269388  0.95704489  0.41979131  1
  Si  Si15  1  0.17053259  0.37485791  0.41850108  1
  Si  Si16  1  0.65908415  0.36503297  0.41971856  1
  Si  Si17  1  0.02661598  0.66950738  0.41715387  1
  S  S0  1  0.64404259  0.99350897  0.25013117  1
  S  S1  1  0.99835512  0.28540547  0.24962403  1
  S  S2  1  0.50156822  0.29330148  0.24986723  1
  S  S3  1  0.35551469  0.99726466  0.75040707  1
  S  S4  1  0.97880161  0.33161656  0.58318537  1
  S  S5  1  0.18685492  0.03988608  0.58400486  1
  S  S6  1  0.68914009  0.04223087  0.58342371  1
  S  S7  1  0.33221947  0.62781237  0.58400877  1
  S  S8  1  0.83699320  0.62894996  0.58367259  1
  S  S9  1  0.47922040  0.62410041  0.08405034  1
  S  S10  1  0.97952337  0.62287445  0.08330257  1
  S  S11  1  0.33392514  0.04667028  0.08496962  1
  S  S12  1  0.83353706  0.04448105  0.08304994  1
  S  S13  1  0.81324607  0.66742253  0.91750996  1
  S  S14  1  0.16583695  0.95418407  0.91695221  1
  S  S15  1  0.66815336  0.95634090  0.91728624  1
  S  S16  1  0.31321176  0.95802140  0.41847480  1
  S  S17  1  0.52090184  0.66249873  0.41684192  1
  O  O0  1  0.09753695  0.02778801  0.30825006  1
  O  O1  1  0.60865647  0.02728130  0.30544587  1
  O  O2  1  0.41271103  0.81286799  0.30823199  1
  O  O3  1  0.91548447  0.81375328  0.30754422  1
  O  O4  1  0.48890318  0.18929940  0.30392407  1
  O  O5  1  0.98660474  0.18859157  0.30592950  1
  O  O6  1  0.10013810  0.17025577  0.80962956  1
  O  O7  1  0.59347001  0.15605685  0.80573587  1
  O  O8  1  0.48484274  0.81319806  0.80688307  1
  O  O9  1  0.98688276  0.81205343  0.80844809  1
  O  O10  1  0.41003549  0.02900603  0.80342723  1
  O  O11  1  0.91873570  0.03343832  0.80628771  1
  O  O12  1  0.39625475  0.96767307  0.69578278  1
  O  O13  1  0.90075690  0.95599821  0.69247110  1
  O  O14  1  0.07839969  0.19953967  0.69358834  1
  O  O15  1  0.58147640  0.20494965  0.69012863  1
  O  O16  1  0.02229406  0.84648522  0.69331026  1
  O  O17  1  0.51485850  0.84393799  0.69159889  1
  O  O18  1  0.40441886  0.84057743  0.19084161  1
  O  O19  1  0.89976492  0.82907494  0.18815089  1
  O  O20  1  0.01221313  0.20025875  0.19685061  1
  O  O21  1  0.51899661  0.21023467  0.19585611  1
  O  O22  1  0.08075480  0.96615003  0.19483932  1
  O  O23  1  0.58944148  0.97765338  0.19716239  1
  O  O24  1  0.43529114  0.34870437  0.64730766  1
  O  O25  1  0.93590756  0.34725041  0.63769571  1
  O  O26  1  0.23595720  0.12374852  0.63859299  1
  O  O27  1  0.73826034  0.12371046  0.63789065  1
  O  O28  1  0.31869842  0.52653524  0.63954487  1
  O  O29  1  0.82538618  0.52099562  0.63712597  1
  O  O30  1  0.44085607  0.51896299  0.13773750  1
  O  O31  1  0.94281974  0.52571591  0.14014848  1
  O  O32  1  0.32800247  0.12597567  0.14111440  1
  O  O33  1  0.82462543  0.12719317  0.13721995  1
  O  O34  1  0.24254310  0.35776539  0.14332355  1
  O  O35  1  0.74287099  0.36387048  0.14575879  1
  O  O36  1  0.23588436  0.30724513  0.02416243  1
  O  O37  1  0.73900476  0.30689435  0.02815035  1
  O  O38  1  0.42325087  0.54334477  0.03000706  1
  O  O39  1  0.92121856  0.53333916  0.03176289  1
  O  O40  1  0.34768152  0.15578078  0.03149672  1
  O  O41  1  0.84626721  0.15664452  0.02840960  1
  O  O42  1  0.23097970  0.15024716  0.52850906  1
  O  O43  1  0.73123494  0.15394165  0.52880616  1
  O  O44  1  0.34276845  0.53233356  0.53076736  1
  O  O45  1  0.84488199  0.53933797  0.52812740  1
  O  O46  1  0.41536140  0.31338328  0.52845040  1
  O  O47  1  0.92615679  0.31495496  0.52809183  1
  O  O48  1  0.27828409  0.70826192  0.97941306  1
  O  O49  1  0.77514793  0.69499472  0.97208828  1
  O  O50  1  0.08084741  0.45066066  0.97220756  1
  O  O51  1  0.57879519  0.45415515  0.97367213  1
  O  O52  1  0.15541153  0.85053055  0.97025520  1
  O  O53  1  0.65859294  0.85320858  0.97070578  1
  O  O54  1  0.27220197  0.85324846  0.47111970  1
  O  O55  1  0.77039014  0.83081012  0.47493383  1
  O  O56  1  0.14403382  0.45423769  0.47273429  1
  O  O57  1  0.65130456  0.44925976  0.47987363  1
  O  O58  1  0.08743055  0.72334246  0.47348055  1
  O  O59  1  0.57417859  0.69254764  0.47011178  1
  O  O60  1  0.06514715  0.62623580  0.35614890  1
  O  O61  1  0.56134359  0.63406688  0.36216803  1
  O  O62  1  0.25786692  0.87891918  0.36252459  1
  O  O63  1  0.74718324  0.86963517  0.35992195  1
  O  O64  1  0.18449787  0.49698306  0.35627392  1
  O  O65  1  0.68340620  0.50105636  0.35972874  1
  O  O66  1  0.05907736  0.48281862  0.85622119  1
  O  O67  1  0.56580335  0.49745737  0.85622740  1
  O  O68  1  0.17707196  0.87325488  0.86090108  1
  O  O69  1  0.68071248  0.88058792  0.86109152  1
  O  O70  1  0.24799145  0.63493262  0.85868835  1
  O  O71  1  0.76053753  0.64319741  0.86275558  1
  O  O72  1  0.00561103  0.83028066  0.40879172  1
  O  O73  1  0.51069944  0.81685029  0.40991907  1
  O  O74  1  0.40094950  0.98502549  0.41085639  1
  O  O75  1  0.91017087  0.99179907  0.40668119  1
  O  O76  1  0.08411045  0.18194000  0.40597161  1
  O  O77  1  0.58579067  0.16800306  0.40922712  1
  O  O78  1  0.00774635  0.17327604  0.90906290  1
  O  O79  1  0.50707114  0.17880182  0.90361752  1
  O  O80  1  0.08953403  0.98098768  0.91220094  1
  O  O81  1  0.59068974  0.97893797  0.91297776  1
  O  O82  1  0.41163558  0.83495064  0.90618494  1
  O  O83  1  0.90173166  0.81981524  0.91067664  1
  O  O84  1  0.48819888  0.15079284  0.58820960  1
  O  O85  1  0.98522309  0.16947271  0.58539465  1
  O  O86  1  0.09954259  0.02761992  0.58579327  1
  O  O87  1  0.60169892  0.03406814  0.58641736  1
  O  O88  1  0.41360099  0.79768012  0.58610256  1
  O  O89  1  0.91756331  0.80071568  0.58593459  1
  O  O90  1  0.48191403  0.79840154  0.08925553  1
  O  O91  1  0.98015085  0.79575420  0.08627437  1
  O  O92  1  0.41435949  0.02294986  0.08794913  1
  O  O93  1  0.91173923  0.02296292  0.08502670  1
  O  O94  1  0.08662708  0.15089802  0.09111000  1
  O  O95  1  0.58869285  0.15300592  0.09258061  1
  O  O96  1  0.34290006  0.14903452  0.74429403  1
  O  O97  1  0.84404980  0.16568446  0.74439866  1
  O  O98  1  0.23983349  0.30632897  0.74432235  1
  O  O99  1  0.73892121  0.31134232  0.74378179  1
  O  O100  1  0.41648228  0.52177671  0.74839192  1
  O  O101  1  0.92015416  0.52627438  0.74551534  1
  O  O102  1  0.34131384  0.51619686  0.24661558  1
  O  O103  1  0.84597117  0.52067030  0.24989692  1
  O  O104  1  0.42358654  0.30624690  0.24051401  1
  O  O105  1  0.92309703  0.31202507  0.24282593  1
  O  O106  1  0.24424248  0.15889569  0.24863726  1
  O  O107  1  0.73275863  0.14592343  0.24310735  1
  O  O108  1  0.31834371  0.48980494  0.92173164  1
  O  O109  1  0.82142708  0.50641376  0.92312450  1
  O  O110  1  0.42044730  0.34843010  0.92590056  1
  O  O111  1  0.91736235  0.34776464  0.92591536  1
  O  O112  1  0.24507671  0.13276168  0.91938159  1
  O  O113  1  0.74715496  0.13460264  0.92157917  1
  O  O114  1  0.31743448  0.13263606  0.42226469  1
  O  O115  1  0.82105772  0.15157194  0.42499229  1
  O  O116  1  0.25425155  0.34368000  0.42532814  1
  O  O117  1  0.75431207  0.35868594  0.42543610  1
  O  O118  1  0.43222177  0.50413597  0.42359003  1
  O  O119  1  0.92711799  0.49561274  0.42517536  1
  O  O120  1  0.17653045  0.50497792  0.08082846  1
  O  O121  1  0.68105506  0.51110894  0.07924271  1
  O  O122  1  0.06741211  0.65585417  0.07546850  1
  O  O123  1  0.56796943  0.65786090  0.07620132  1
  O  O124  1  0.25744402  0.87195994  0.08021526  1
  O  O125  1  0.75619991  0.87188407  0.07569465  1
  O  O126  1  0.17965015  0.86873358  0.57852202  1
  O  O127  1  0.67733628  0.86827475  0.57685989  1
  O  O128  1  0.25659831  0.65018618  0.57574466  1
  O  O129  1  0.75927044  0.64750614  0.58021096  1
  O  O130  1  0.06543793  0.48682430  0.57954699  1
  O  O131  1  0.57833616  0.49666749  0.58140310  1
  O  O132  1  0.14922623  0.81348821  0.25669890  1
  O  O133  1  0.64811505  0.83048128  0.25394136  1
  O  O134  1  0.25872830  0.69677567  0.25592748  1
  O  O135  1  0.75588092  0.68837172  0.25653252  1
  O  O136  1  0.07924904  0.46129849  0.25239880  1
  O  O137  1  0.58090219  0.46789667  0.25417342  1
  O  O138  1  0.15434856  0.48453813  0.75499251  1
  O  O139  1  0.65117154  0.47889942  0.75702118  1
  O  O140  1  0.09426705  0.70649871  0.75731051  1
  O  O141  1  0.58946584  0.70616119  0.75617702  1
  O  O142  1  0.26871335  0.83901162  0.75541558  1
  O  O143  1  0.75926743  0.81955495  0.75918646  1
loop_
_geom_bond_atom_site_label_1
_geom_bond_atom_site_label_2
_geom_bond_distance
_geom_bond_site_symmetry_2
Na0 O106 2.345534 1_555
Na0 O134 2.366691 1_545
Na0 O104 2.427711 1_555
Na0 O32 2.583738 1_555
Na0 O132 2.606438 1_545
Na0 O62 2.764023 1_545
Na0 O18 2.859554 1_545
Na0 O4 2.947327 1_555
Na1 O102 2.278706 1_555
Na1 O34 2.421722 1_555
Na1 O106 2.449349 1_555
Na1 O136 2.548818 1_555
Na1 O134 2.555766 1_555
Na1 O64 2.778259 1_555
Na2 O35 2.388175 1_555
Na2 O103 2.437986 1_555
Na2 O107 2.466743 1_555
Na2 O137 2.484578 1_555
Na2 O135 2.496654 1_555
Na2 O21 2.835736 1_555
Na2 O65 2.858462 1_555
Na2 O1 2.963615 1_555
Na3 O132 2.345008 1_655
Na3 O103 2.377009 1_555
Na3 O105 2.512944 1_555
Na3 O136 2.590988 1_655
Na3 O60 2.653742 1_655
Na3 O31 2.664642 1_555
Na3 O22 2.827925 1_655
Na3 O3 2.923715 1_555
Na4 O100 2.348122 1_555
Na4 O98 2.441211 1_555
Na4 O142 2.471435 1_555
Na4 O138 2.515825 1_555
Na4 O28 2.658121 1_555
Na4 O70 2.682760 1_555
Na4 O8 2.883883 1_555
Na4 O12 2.949834 1_555
Na5 O101 2.396077 1_555
Na5 O143 2.418256 1_555
Na5 O99 2.431137 1_555
Na5 O139 2.574406 1_555
Na5 O29 2.710908 1_555
Na5 O71 2.728320 1_555
Na5 O13 2.847896 1_555
Na5 O9 2.936641 1_555
Na6 O97 2.371443 1_555
Na6 O101 2.384014 1_555
Na6 O138 2.496203 1_655
Na6 O66 2.641463 1_655
Na6 O140 2.652174 1_655
Na6 O25 2.663753 1_555
Na6 O14 2.841661 1_655
Na6 O11 2.862101 1_555
Na7 O24 2.352295 1_555
Na7 O100 2.374045 1_555
Na7 O96 2.432714 1_555
Na7 O139 2.468331 1_555
Na7 O141 2.614061 1_555
Na7 O67 2.800464 1_555
Na7 O15 2.855412 1_555
Na7 O10 2.953950 1_555
Na8 O140 2.330707 1_545
Na8 O98 2.344921 1_555
Na8 O96 2.465329 1_555
Na8 O142 2.596511 1_545
Na8 O26 2.657929 1_555
Na8 O68 2.716745 1_545
Na8 O16 2.798990 1_545
Na8 O6 2.873928 1_555
Na9 O99 2.369326 1_555
Na9 O141 2.380332 1_545
Na9 O97 2.419253 1_555
Na9 O143 2.582262 1_545
Na9 O69 2.682646 1_545
Na9 O27 2.685782 1_555
Na9 O7 2.850253 1_555
Na9 O17 2.986757 1_545
Na10 O131 2.259865 1_555
Na10 O57 2.341115 1_555
Na10 O129 2.421758 1_555
Na10 O87 2.462764 1_555
Na10 O84 2.511755 1_555
Na10 O15 2.793252 1_555
Na11 O120 2.300346 1_555
Na11 O48 2.433012 1_554
Na11 O90 2.472951 1_555
Na11 O124 2.485510 1_555
Na11 O92 2.623991 1_565
Na11 O38 2.840153 1_555
Na11 O18 2.854285 1_555
Na11 O34 2.880122 1_555
Na12 O121 2.276932 1_555
Na12 O91 2.400218 1_555
Na12 O125 2.520117 1_555
Na12 O93 2.584412 1_565
Na12 O19 2.608821 1_555
Na12 O49 2.723889 1_554
Na12 O35 2.822715 1_555
Na12 O39 2.910003 1_555
Na13 O108 2.412843 1_555
Na13 O78 2.416524 1_555
Na13 O80 2.562813 1_545
Na13 O50 2.587634 1_555
Na13 O36 2.640151 1_556
Na13 O112 2.640621 1_555
Na13 O6 2.775397 1_555
Na13 O70 2.860800 1_555
Na14 O76 2.374120 1_655
Na14 O75 2.447291 1_545
Na14 O119 2.502411 1_555
Na14 O56 2.607199 1_655
Na14 O115 2.676300 1_555
Na14 O47 2.703267 1_555
Na14 O5 2.724389 1_555
Na14 O60 2.847373 1_655
Na15 O114 2.387556 1_555
Na15 O116 2.435420 1_555
Na15 O76 2.442371 1_555
Na15 O72 2.507576 1_545
Na15 O58 2.646227 1_545
Na15 O42 2.683635 1_555
Na15 O0 2.758130 1_555
Na15 O62 2.876869 1_545
Na16 O77 2.276934 1_555
Na16 O73 2.402335 1_545
Na16 O115 2.478669 1_555
Na16 O117 2.585645 1_555
Na16 O1 2.637486 1_555
Na16 O63 2.792908 1_545
Na16 O43 2.796835 1_555
Na16 O59 2.839445 1_545
Na17 O117 2.430857 1_555
Na17 O72 2.491529 1_655
Na17 O75 2.495781 1_555
Na17 O119 2.627167 1_555
Na17 O55 2.674233 1_555
Na17 O45 2.701245 1_555
Na17 O3 2.770463 1_555
Na17 O65 2.829816 1_555
Na18 O85 2.461004 1_455
Na18 O86 2.486157 1_555
Na18 O89 2.496252 1_445
Na18 O72 2.623524 1_545
Na18 O76 2.626411 1_555
Na18 O75 2.664030 1_445
Na19 O84 2.450024 1_555
Na19 O74 2.470539 1_545
Na19 O77 2.506538 1_555
Na19 O88 2.569066 1_545
Na19 O73 2.661923 1_545
Na19 O87 2.715992 1_555
Na20 O78 2.428850 1_555
Na20 O94 2.485931 1_556
Na20 O93 2.526692 1_456
Na20 O80 2.569074 1_545
Na20 O91 2.622424 1_446
Na20 O83 2.650065 1_445
Na21 O79 2.496733 1_555
Na21 O81 2.560815 1_545
Na21 O95 2.561717 1_556
Na21 O92 2.569422 1_556
Na21 O82 2.601604 1_545
Na21 O90 2.726502 1_546
Na22 O100 2.396836 1_555
Na22 O108 2.466484 1_555
Na22 O110 2.485376 1_555
Na22 O98 2.604957 1_555
Na22 O112 2.617187 1_555
Na22 O96 2.676195 1_555
Na23 O101 2.489494 1_555
Na23 O97 2.500811 1_555
Na23 O111 2.537728 1_555
Na23 O99 2.547190 1_555
Na23 O113 2.618455 1_555
Na23 O109 2.636608 1_555
Na24 O102 2.281863 1_555
Na24 O106 2.523625 1_555
Na24 O116 2.577742 1_555
Na24 O118 2.589955 1_555
Na24 O104 2.652820 1_555
Na24 O114 2.789913 1_555
Na25 O103 2.361882 1_555
Na25 O105 2.545727 1_555
Na25 O107 2.573433 1_555
Na25 O115 2.612203 1_555
Na25 O117 2.636978 1_555
Na25 O119 2.686581 1_555
Na26 O120 2.303162 1_555
Na26 O124 2.497131 1_555
Na26 O122 2.567239 1_555
Na26 O134 2.628331 1_555
Na26 O132 2.642355 1_555
Na26 O136 2.642891 1_555
Na27 O121 2.410183 1_555
Na27 O123 2.518628 1_555
Na27 O125 2.590071 1_555
Na27 O133 2.609487 1_555
Na27 O137 2.617649 1_555
Na27 O135 2.648115 1_555
Na28 O130 2.482158 1_555
Na28 O126 2.509497 1_555
Na28 O128 2.561334 1_555
Na28 O138 2.569340 1_555
Na28 O140 2.575444 1_555
Na28 O142 2.734871 1_555
Na29 O131 2.337202 1_555
Na29 O127 2.501576 1_555
Na29 O129 2.563947 1_555
Na29 O141 2.573960 1_555
Na29 O139 2.661543 1_555
Na29 O143 2.709046 1_555
Mg0 O2 1.877115 1_555
Mg0 O77 2.003834 1_565
Mg0 O4 2.083064 1_565
Mg0 O74 2.111569 1_555
Mg0 O1 2.120124 1_565
Mg0 O73 2.158380 1_555
Mg1 O24 1.923351 1_555
Mg1 O98 2.056362 1_555
Mg1 O28 2.056942 1_555
Mg1 O100 2.101960 1_555
Mg1 O26 2.135326 1_555
Mg1 O96 2.235570 1_555
Mg2 O97 2.023499 1_555
Mg2 O99 2.037282 1_555
Mg2 O101 2.056545 1_555
Mg2 O25 2.056774 1_555
Mg2 O29 2.081710 1_555
Mg2 O27 2.152931 1_555
Mg3 O34 1.924283 1_555
Mg3 O102 2.005789 1_555
Mg3 O30 2.079305 1_555
Mg3 O106 2.112429 1_555
Mg3 O32 2.130462 1_555
Mg3 O104 2.182272 1_555
Mg4 O35 1.915518 1_555
Mg4 O33 2.053877 1_555
Mg4 O31 2.099279 1_555
Mg4 O103 2.149720 1_555
Mg4 O107 2.158095 1_555
Mg4 O105 2.194371 1_555
Mg5 O50 1.937000 1_554
Mg5 O48 1.981551 1_554
Mg5 O120 2.001974 1_555
Mg5 O52 2.139484 1_554
Mg5 O122 2.195517 1_555
Mg5 O124 2.328633 1_555
Mg6 O51 1.894858 1_554
Mg6 O121 1.982493 1_555
Mg6 O53 2.116588 1_554
Mg6 O123 2.116601 1_555
Mg6 O49 2.128521 1_554
Mg6 O125 2.277658 1_555
Mg7 O56 1.948745 1_555
Mg7 O58 1.953925 1_555
Mg7 O54 2.107033 1_555
Mg7 O130 2.147905 1_555
Mg7 O128 2.165440 1_555
Mg7 O126 2.216063 1_555
Mg8 O57 1.963470 1_555
Mg8 O55 1.989133 1_555
Mg8 O131 2.039487 1_555
Mg8 O59 2.057241 1_555
Mg8 O127 2.189388 1_555
Mg8 O129 2.246818 1_555
O0 Si0 1.642748 1_545
O0 Ti0 1.869173 1_545
O1 S0 1.476319 1_545
O2 Si1 1.567364 1_555
O3 Si2 1.643193 1_555
O3 Ti0 1.892629 1_655
O4 S2 1.462417 1_555
O5 S1 1.472680 1_555
O5 Ti0 2.209358 1_645
O6 Si3 1.636413 1_555
O6 Ti1 1.883641 1_455
O7 Si4 1.604425 1_555
O7 Ti2 1.907182 1_545
O8 Si6 1.613086 1_555
O8 Ti2 1.888267 1_555
O9 Si5 1.627601 1_655
O9 Ti1 1.879970 1_565
O10 S3 1.468978 1_545
O10 Ti2 2.174412 1_545
O11 Si7 1.643922 1_545
O11 Ti1 1.803627 1_555
O12 S3 1.499993 1_555
O12 Ti4 2.065041 1_565
O13 Si7 1.668910 1_555
O13 Ti3 1.831407 1_665
O14 Si3 1.662151 1_555
O14 Ti3 1.835671 1_555
O15 Si4 1.681595 1_555
O15 Ti4 1.832982 1_555
O16 Si5 1.678102 1_555
O16 Ti3 1.819827 1_565
O17 Si6 1.663454 1_555
O17 Ti4 1.876175 1_565
O18 Si1 1.710314 1_555
O18 Ti6 1.862972 1_565
O19 Si2 1.641775 1_555
O19 Ti5 1.965020 1_655
O20 S1 1.482303 1_455
O20 Ti5 2.097762 1_545
O21 S2 1.520278 1_555
O21 Ti6 2.043758 1_555
O22 Si0 1.688508 1_555
O22 Ti5 1.797249 1_555
O23 S0 1.494512 1_555
O23 Ti6 2.090808 1_565
O24 Si8 1.588111 1_555
O25 S4 1.471649 1_555
O26 S5 1.471621 1_555
O27 S6 1.465118 1_555
O28 S7 1.474186 1_555
O29 S8 1.474790 1_555
O30 S9 1.455411 1_555
O31 S10 1.482358 1_555
O32 S11 1.464242 1_555
O33 S12 1.461167 1_555
O34 Si9 1.597540 1_555
O35 Si10 1.606554 1_555
O36 Si9 1.706488 1_555
O36 Ti7 1.893977 1_554
O37 Si10 1.716805 1_555
O37 Ti8 1.814916 1_554
O38 S9 1.504309 1_555
O38 Ti7 2.096029 1_554
O39 S10 1.491552 1_555
O39 Ti8 2.131285 1_554
O40 S11 1.474276 1_555
O40 Ti7 2.201680 1_554
O41 S12 1.514045 1_555
O41 Ti8 1.986859 1_554
O42 S5 1.523662 1_555
O42 Ti9 2.058697 1_555
O43 S6 1.506351 1_555
O43 Ti10 2.141749 1_555
O44 S7 1.522490 1_555
O44 Ti9 1.974560 1_555
O45 S8 1.514636 1_555
O45 Ti10 2.102139 1_555
O46 Si8 1.719828 1_555
O46 Ti9 1.794640 1_555
O47 S4 1.510371 1_555
O47 Ti10 2.147814 1_555
O48 Si11 1.581731 1_555
O49 S13 1.465884 1_555
O50 Si12 1.577021 1_555
O51 Si13 1.565140 1_555
O52 S14 1.454117 1_555
O53 S15 1.456625 1_555
O54 S16 1.442888 1_555
O55 Si14 1.573387 1_555
O56 Si15 1.581785 1_555
O57 Si16 1.573345 1_555
O58 Si17 1.574016 1_555
O59 S17 1.462992 1_555
O60 Si17 1.646569 1_555
O60 Ti11 1.991880 1_555
O61 S17 1.493640 1_555
O61 Ti12 2.174150 1_555
O62 S16 1.531876 1_555
O62 Ti11 2.071380 1_555
O63 Si14 1.692024 1_555
O63 Ti12 1.816271 1_555
O64 Si15 1.697302 1_555
O64 Ti11 1.828761 1_555
O65 Si16 1.702680 1_555
O65 Ti12 1.854499 1_555
O66 Si12 1.724829 1_555
O66 Ti13 1.790531 1_555
O67 Si13 1.714458 1_555
O67 Ti14 1.811249 1_555
O68 S14 1.501891 1_555
O68 Ti13 2.155663 1_555
O69 S15 1.488461 1_555
O69 Ti14 2.184854 1_555
O70 Si11 1.695038 1_555
O70 Ti13 1.890905 1_555
O71 S13 1.492218 1_555
O71 Ti14 2.250859 1_555
O72 Si17 1.658036 1_555
O72 Ti0 1.877532 1_555
O73 S17 1.479131 1_555
O74 S16 1.465209 1_555
O75 Si14 1.627391 1_555
O75 Ti0 1.997065 1_655
O76 Si15 1.665103 1_555
O76 Ti0 1.969269 1_545
O77 Si16 1.600333 1_555
O78 Si12 1.659523 1_555
O78 Ti1 1.937735 1_455
O79 Si13 1.643950 1_555
O79 Ti2 1.877143 1_545
O80 S14 1.494734 1_555
O80 Ti1 2.267094 1_465
O81 S15 1.491926 1_555
O81 Ti2 2.070297 1_555
O82 Si11 1.625130 1_555
O82 Ti2 1.877475 1_555
O83 S13 1.488250 1_555
O83 Ti1 2.169472 1_565
O84 Si8 1.701540 1_555
O84 Ti4 1.921679 1_555
O85 S4 1.502639 1_555
O85 Ti3 2.253076 1_655
O86 S5 1.502451 1_555
O86 Ti3 2.230678 1_555
O87 S6 1.521923 1_555
O87 Ti4 2.117008 1_555
O88 S7 1.486327 1_555
O88 Ti4 2.269346 1_565
O89 S8 1.488934 1_555
O89 Ti3 2.262033 1_665
O90 S9 1.531341 1_555
O90 Ti6 2.096228 1_565
O91 S10 1.533358 1_555
O91 Ti5 2.095665 1_655
O92 S11 1.548507 1_555
O92 Ti6 2.050892 1_555
O93 S12 1.496530 1_555
O93 Ti5 2.311716 1_645
O94 Si9 1.697274 1_555
O94 Ti5 1.865239 1_545
O95 Si10 1.672833 1_555
O95 Ti6 1.893450 1_555
O96 S3 1.480217 1_545
O97 Si7 1.598922 1_545
O98 Si3 1.603410 1_555
O99 Si4 1.598401 1_555
O100 Si6 1.609371 1_555
O101 Si5 1.603599 1_655
O102 Si1 1.596193 1_555
O103 Si2 1.635033 1_555
O104 S2 1.464279 1_555
O105 S1 1.479615 1_555
O106 Si0 1.598168 1_545
O107 S0 1.491208 1_545
O108 Si11 1.697425 1_555
O108 Ti7 1.878224 1_555
O109 S13 1.514415 1_555
O109 Ti8 2.112725 1_555
O110 Si13 1.662885 1_555
O110 Ti7 1.908766 1_555
O111 Si12 1.639269 1_655
O111 Ti8 1.945934 1_555
O112 S14 1.513245 1_545
O112 Ti7 2.159243 1_555
O113 S15 1.512252 1_545
O113 Ti8 2.051516 1_555
O114 S16 1.519365 1_545
O114 Ti9 2.180390 1_555
O115 Si14 1.665256 1_545
O115 Ti10 1.889181 1_555
O116 Si15 1.652794 1_555
O116 Ti9 2.013559 1_555
O117 Si16 1.728531 1_555
O117 Ti10 1.851482 1_555
O118 S17 1.511322 1_555
O118 Ti9 2.067992 1_555
O119 Si17 1.682995 1_655
O119 Ti10 1.864445 1_555
O120 Si9 1.615388 1_555
O121 Si10 1.612186 1_555
O122 S10 1.449797 1_455
O123 S9 1.462481 1_555
O124 S11 1.476234 1_565
O125 S12 1.477197 1_565
O126 S5 1.467912 1_565
O127 S6 1.461795 1_565
O128 S7 1.467237 1_555
O129 S8 1.474242 1_555
O130 S4 1.473830 1_455
O131 Si8 1.612316 1_555
O132 Si0 1.633377 1_555
O132 Ti11 2.056485 1_555
O133 S0 1.489354 1_555
O133 Ti12 2.218657 1_555
O134 Si1 1.725618 1_555
O134 Ti11 1.914189 1_555
O135 Si2 1.681826 1_555
O135 Ti12 1.875181 1_555
O136 S1 1.512387 1_455
O136 Ti11 2.225250 1_555
O137 S2 1.495901 1_555
O137 Ti12 2.293115 1_555
O138 Si3 1.659098 1_555
O138 Ti13 1.951604 1_555
O139 Si4 1.656565 1_555
O139 Ti14 1.903056 1_555
O140 Si5 1.652940 1_555
O140 Ti13 2.018599 1_555
O141 Si6 1.669808 1_555
O141 Ti14 1.902268 1_555
O142 S3 1.488693 1_555
O142 Ti13 2.357159 1_555
O143 Si7 1.628230 1_555
O143 Ti14 2.036433 1_555
