# generated using pymatgen
data_Na4TiInSi2PO12
_symmetry_space_group_name_H-M   'P 1'
_cell_length_a   9.15631536
_cell_length_b   9.15631503
_cell_length_c   22.05700262
_cell_angle_alpha   90.12432828
_cell_angle_beta   89.87567172
_cell_angle_gamma   119.83214739
_symmetry_Int_Tables_number   1
_chemical_formula_structural   Na4TiInSi2PO12
_chemical_formula_sum   'Na24 Ti6 In6 Si12 P6 O72'
_cell_volume   1604.16601244
_cell_formula_units_Z   6
loop_
 _symmetry_equiv_pos_site_id
 _symmetry_equiv_pos_as_xyz
  1  'x, y, z'
loop_
 _atom_site_type_symbol
 _atom_site_label
 _atom_site_symmetry_multiplicity
 _atom_site_fract_x
 _atom_site_fract_y
 _atom_site_fract_z
 _atom_site_occupancy
  Na  Na0  1  0.64030050  0.00698573  0.25061617  1
  Na  Na1  1  0.37121680  0.36954250  0.24489100  1
  Na  Na2  1  0.98783838  0.62424597  0.24819301  1
  Na  Na3  1  0.63045750  0.62878320  0.74489100  1
  Na  Na4  1  0.99301427  0.35969950  0.75061617  1
  Na  Na5  1  0.37575403  0.01216162  0.74819301  1
  Na  Na6  1  0.30696750  0.34031873  0.58394917  1
  Na  Na7  1  0.03788380  0.70287550  0.57822400  1
  Na  Na8  1  0.65450538  0.95757897  0.58152601  1
  Na  Na9  1  0.29712450  0.96211620  0.07822400  1
  Na  Na10  1  0.65968127  0.69303250  0.08394917  1
  Na  Na11  1  0.04242103  0.34549462  0.08152601  1
  Na  Na12  1  0.97363350  0.67365273  0.91728317  1
  Na  Na13  1  0.70454980  0.03620950  0.91155800  1
  Na  Na14  1  0.32117138  0.29091297  0.91486001  1
  Na  Na15  1  0.96379050  0.29545020  0.41155800  1
  Na  Na16  1  0.32634727  0.02636650  0.41728317  1
  Na  Na17  1  0.70908703  0.67882862  0.41486001  1
  Na  Na18  1  0.99320265  0.99224312  0.49876348  1
  Na  Na19  1  0.00775688  0.00679735  0.99876348  1
  Na  Na20  1  0.65986965  0.32557612  0.83209648  1
  Na  Na21  1  0.67442388  0.34013035  0.33209648  1
  Na  Na22  1  0.32653565  0.65891012  0.16543048  1
  Na  Na23  1  0.34108988  0.67346435  0.66543048  1
  Ti  Ti0  1  0.99850980  0.00201498  0.64789654  1
  Ti  Ti1  1  0.99798502  0.00149020  0.14789654  1
  Ti  Ti2  1  0.66517680  0.33534798  0.98122954  1
  Ti  Ti3  1  0.66465202  0.33482320  0.48122954  1
  Ti  Ti4  1  0.33184280  0.66868198  0.31456354  1
  Ti  Ti5  1  0.33131802  0.66815720  0.81456354  1
  In  In0  1  0.99482146  0.99659363  0.34898919  1
  In  In1  1  0.00340637  0.00517854  0.84898919  1
  In  In2  1  0.66148846  0.32992663  0.68232219  1
  In  In3  1  0.67007337  0.33851154  0.18232219  1
  In  In4  1  0.32815446  0.66326063  0.01565619  1
  In  In5  1  0.33673937  0.67184554  0.51565619  1
  Si  Si0  1  0.69986860  0.70466388  0.25090592  1
  Si  Si1  1  0.00498421  0.29922043  0.25070553  1
  Si  Si2  1  0.29533612  0.30013140  0.75090592  1
  Si  Si3  1  0.70077957  0.99501579  0.75070553  1
  Si  Si4  1  0.36653560  0.03799688  0.58423892  1
  Si  Si5  1  0.67165121  0.63255343  0.58403853  1
  Si  Si6  1  0.96200312  0.63346440  0.08423892  1
  Si  Si7  1  0.36744657  0.32834879  0.08403853  1
  Si  Si8  1  0.03320160  0.37133088  0.91757292  1
  Si  Si9  1  0.33831721  0.96588743  0.91737253  1
  Si  Si10  1  0.62866912  0.96679840  0.41757292  1
  Si  Si11  1  0.03411257  0.66168279  0.41737253  1
  P  P0  1  0.29054909  0.99354584  0.24942610  1
  P  P1  1  0.00645416  0.70945091  0.74942610  1
  P  P2  1  0.95721609  0.32687884  0.58275910  1
  P  P3  1  0.67312116  0.04278391  0.08275910  1
  P  P4  1  0.62388209  0.66021284  0.91609310  1
  P  P5  1  0.33978716  0.37611791  0.41609310  1
  O  O0  1  0.22168725  0.02723321  0.30811496  1
  O  O1  1  0.81178612  0.77478770  0.31159427  1
  O  O2  1  0.97700416  0.19325550  0.31206821  1
  O  O3  1  0.22521230  0.18821388  0.81159427  1
  O  O4  1  0.97276679  0.77831275  0.80811496  1
  O  O5  1  0.80674450  0.02299584  0.81206821  1
  O  O6  1  0.80733036  0.97362608  0.69235630  1
  O  O7  1  0.16635946  0.19174348  0.69291403  1
  O  O8  1  0.02538957  0.82566578  0.69406969  1
  O  O9  1  0.80825652  0.83364054  0.19291403  1
  O  O10  1  0.02637392  0.19266964  0.19235630  1
  O  O11  1  0.17433422  0.97461043  0.19406969  1
  O  O12  1  0.88835425  0.36056621  0.64144796  1
  O  O13  1  0.47845312  0.10812070  0.64492727  1
  O  O14  1  0.64367116  0.52658850  0.64540121  1
  O  O15  1  0.89187930  0.52154688  0.14492727  1
  O  O16  1  0.63943379  0.11164575  0.14144796  1
  O  O17  1  0.47341150  0.35632884  0.14540121  1
  O  O18  1  0.47399736  0.30695908  0.02568930  1
  O  O19  1  0.83302646  0.52507648  0.02624703  1
  O  O20  1  0.69205657  0.15899878  0.02740269  1
  O  O21  1  0.47492352  0.16697354  0.52624703  1
  O  O22  1  0.69304092  0.52600264  0.52568930  1
  O  O23  1  0.84100122  0.30794343  0.52740269  1
  O  O24  1  0.55502025  0.69390021  0.97478196  1
  O  O25  1  0.14511912  0.44145470  0.97826127  1
  O  O26  1  0.31033716  0.85992250  0.97873521  1
  O  O27  1  0.55854530  0.85488088  0.47826127  1
  O  O28  1  0.30609979  0.44497975  0.47478196  1
  O  O29  1  0.14007750  0.68966284  0.47873521  1
  O  O30  1  0.14066336  0.64029308  0.35902330  1
  O  O31  1  0.49969246  0.85841048  0.35958103  1
  O  O32  1  0.35872257  0.49233278  0.36073669  1
  O  O33  1  0.14158952  0.50030754  0.85958103  1
  O  O34  1  0.35970692  0.85933664  0.85902330  1
  O  O35  1  0.50766722  0.64127743  0.86073669  1
  O  O36  1  0.01612137  0.83035599  0.41378850  1
  O  O37  1  0.82077978  0.99987878  0.41368276  1
  O  O38  1  0.19236063  0.19456837  0.41016216  1
  O  O39  1  0.00012122  0.17922022  0.91368276  1
  O  O40  1  0.16964401  0.98387863  0.91378850  1
  O  O41  1  0.80543163  0.80763937  0.91016216  1
  O  O42  1  0.96037203  0.15754418  0.58581481  1
  O  O43  1  0.18411434  0.03552293  0.58793239  1
  O  O44  1  0.84673128  0.81808976  0.58711499  1
  O  O45  1  0.96447707  0.81588566  0.08793239  1
  O  O46  1  0.84245582  0.03962797  0.08581481  1
  O  O47  1  0.18191024  0.15326872  0.08711499  1
  O  O48  1  0.68278837  0.16368899  0.74712150  1
  O  O49  1  0.48744678  0.33321178  0.74701576  1
  O  O50  1  0.85902763  0.52790137  0.74349516  1
  O  O51  1  0.66678822  0.51255322  0.24701576  1
  O  O52  1  0.83631101  0.31721163  0.24712150  1
  O  O53  1  0.47209863  0.14097237  0.24349516  1
  O  O54  1  0.62703903  0.49087718  0.91914781  1
  O  O55  1  0.85078134  0.36885593  0.92126539  1
  O  O56  1  0.51339828  0.15142276  0.92044799  1
  O  O57  1  0.63114407  0.14921866  0.42126539  1
  O  O58  1  0.50912282  0.37296097  0.41914781  1
  O  O59  1  0.84857724  0.48660172  0.42044799  1
  O  O60  1  0.34945437  0.49702299  0.08045550  1
  O  O61  1  0.15411278  0.66654578  0.08034976  1
  O  O62  1  0.52569363  0.86123537  0.07682916  1
  O  O63  1  0.33345422  0.84588722  0.58034976  1
  O  O64  1  0.50297701  0.65054563  0.58045550  1
  O  O65  1  0.13876463  0.47430637  0.57682916  1
  O  O66  1  0.29370503  0.82421118  0.25248181  1
  O  O67  1  0.51744734  0.70218993  0.25459939  1
  O  O68  1  0.18006428  0.48475676  0.25378199  1
  O  O69  1  0.29781007  0.48255266  0.75459939  1
  O  O70  1  0.17578882  0.70629497  0.75248181  1
  O  O71  1  0.51524324  0.81993572  0.75378199  1
loop_
_geom_bond_atom_site_label_1
_geom_bond_atom_site_label_2
_geom_bond_distance
_geom_bond_site_symmetry_2
Na0 O53 2.404878 1_555
Na0 O67 2.436992 1_545
Na0 O52 2.494765 1_555
Na0 O16 2.595026 1_555
Na0 O31 2.746442 1_545
Na0 O66 2.754892 1_545
Na0 O9 2.985853 1_545
Na0 O2 3.004574 1_555
Na1 O51 2.348535 1_555
Na1 O17 2.410061 1_555
Na1 O68 2.459549 1_555
Na1 O67 2.656429 1_555
Na1 O53 2.675296 1_555
Na1 O32 2.814334 1_555
Na2 O52 2.438877 1_555
Na2 O15 2.453911 1_555
Na2 O66 2.470507 1_655
Na2 O51 2.587890 1_555
Na2 O68 2.642449 1_655
Na2 O30 2.786465 1_655
Na2 O1 2.940528 1_555
Na2 O11 3.031527 1_655
Na3 O49 2.348535 1_555
Na3 O14 2.410061 1_555
Na3 O71 2.459549 1_555
Na3 O69 2.656429 1_555
Na3 O50 2.675296 1_555
Na3 O35 2.814334 1_555
Na4 O50 2.404878 1_555
Na4 O69 2.436992 1_655
Na4 O48 2.494765 1_555
Na4 O12 2.595026 1_555
Na4 O33 2.746442 1_655
Na4 O70 2.754892 1_655
Na4 O7 2.985853 1_655
Na4 O5 3.004574 1_555
Na5 O48 2.438877 1_555
Na5 O13 2.453911 1_555
Na5 O70 2.470507 1_545
Na5 O49 2.587890 1_555
Na5 O71 2.642449 1_545
Na5 O34 2.786465 1_545
Na5 O3 2.940528 1_555
Na5 O8 3.031527 1_545
Na6 O65 2.404892 1_555
Na6 O43 2.436992 1_555
Na6 O64 2.494770 1_555
Na6 O28 2.595011 1_555
Na6 O7 2.746442 1_555
Na6 O42 2.754892 1_455
Na6 O21 2.985853 1_555
Na6 O14 3.004574 1_555
Na7 O63 2.348527 1_555
Na7 O29 2.410035 1_555
Na7 O44 2.459549 1_455
Na7 O43 2.656429 1_565
Na7 O65 2.675281 1_555
Na7 O8 2.814334 1_555
Na8 O64 2.438869 1_555
Na8 O27 2.453890 1_555
Na8 O42 2.470507 1_565
Na8 O63 2.587900 1_555
Na8 O44 2.642449 1_555
Na8 O6 2.786465 1_555
Na8 O13 2.940528 1_565
Na8 O23 3.031527 1_565
Na9 O61 2.348527 1_555
Na9 O26 2.410035 1_554
Na9 O47 2.459549 1_565
Na9 O45 2.656429 1_455
Na9 O62 2.675281 1_555
Na9 O11 2.814334 1_555
Na10 O62 2.404892 1_555
Na10 O45 2.436992 1_555
Na10 O60 2.494770 1_555
Na10 O24 2.595011 1_554
Na10 O9 2.746442 1_555
Na10 O46 2.754892 1_565
Na10 O19 2.985853 1_555
Na10 O17 3.004574 1_555
Na11 O60 2.438869 1_555
Na11 O25 2.453890 1_554
Na11 O46 2.470507 1_455
Na11 O61 2.587900 1_555
Na11 O47 2.642449 1_555
Na11 O10 2.786465 1_555
Na11 O15 2.940528 1_455
Na11 O20 3.031527 1_455
Na12 O41 2.404878 1_555
Na12 O55 2.437000 1_555
Na12 O40 2.494765 1_655
Na12 O4 2.595026 1_555
Na12 O19 2.746423 1_556
Na12 O54 2.754885 1_555
Na12 O33 2.985853 1_655
Na12 O26 3.004574 1_655
Na13 O39 2.348535 1_655
Na13 O5 2.410061 1_555
Na13 O56 2.459532 1_555
Na13 O55 2.656418 1_555
Na13 O41 2.675296 1_545
Na13 O20 2.814308 1_556
Na14 O40 2.438877 1_545
Na14 O3 2.453911 1_555
Na14 O54 2.470512 1_555
Na14 O39 2.587890 1_555
Na14 O56 2.642464 1_555
Na14 O18 2.786451 1_556
Na14 O25 2.940528 1_555
Na14 O35 3.031527 1_555
Na15 O37 2.348535 1_545
Na15 O2 2.410061 1_555
Na15 O59 2.459532 1_555
Na15 O57 2.656418 1_555
Na15 O38 2.675296 1_655
Na15 O23 2.814308 1_555
Na16 O38 2.404878 1_555
Na16 O57 2.437000 1_555
Na16 O36 2.494765 1_545
Na16 O0 2.595026 1_555
Na16 O21 2.746423 1_555
Na16 O58 2.754884 1_555
Na16 O31 2.985853 1_545
Na16 O29 3.004574 1_545
Na17 O36 2.438877 1_655
Na17 O1 2.453911 1_555
Na17 O58 2.470512 1_555
Na17 O37 2.587890 1_555
Na17 O59 2.642464 1_555
Na17 O22 2.786451 1_555
Na17 O27 2.940528 1_555
Na17 O32 3.031527 1_555
Na18 O44 2.452251 1_555
Na18 O36 2.459657 1_655
Na18 O37 2.478373 1_555
Na18 O43 2.530483 1_665
Na18 O42 2.550588 1_565
Na18 O38 2.686202 1_665
Na19 O47 2.452251 1_556
Na19 O40 2.459657 1_545
Na19 O39 2.478373 1_555
Na19 O45 2.530483 1_446
Na19 O46 2.550588 1_456
Na19 O41 2.686202 1_445
Na20 O56 2.452251 1_555
Na20 O48 2.459657 1_555
Na20 O49 2.478373 1_555
Na20 O55 2.530483 1_555
Na20 O54 2.550588 1_555
Na20 O50 2.686202 1_555
Na21 O59 2.452251 1_555
Na21 O52 2.459657 1_555
Na21 O51 2.478373 1_555
Na21 O57 2.530483 1_555
Na21 O58 2.550588 1_555
Na21 O53 2.686202 1_555
Na22 O68 2.452251 1_555
Na22 O60 2.459657 1_555
Na22 O61 2.478373 1_555
Na22 O67 2.530483 1_555
Na22 O66 2.550588 1_555
Na22 O62 2.686202 1_555
Na23 O71 2.452251 1_555
Na23 O64 2.459657 1_555
Na23 O63 2.478373 1_555
Na23 O69 2.530483 1_555
Na23 O70 2.550588 1_555
Na23 O65 2.686202 1_555
In0 O1 2.055736 1_555
In0 O2 2.057070 1_565
In0 O37 2.148073 1_555
In0 O0 2.149343 1_665
In0 O36 2.168810 1_655
In0 O38 2.261848 1_665
In1 O3 2.055736 1_555
In1 O5 2.057070 1_455
In1 O39 2.148072 1_555
In1 O4 2.149343 1_445
In1 O40 2.168810 1_545
In1 O41 2.261848 1_445
In2 O13 2.055736 1_555
In2 O14 2.057070 1_555
In2 O49 2.148073 1_555
In2 O12 2.149343 1_555
In2 O48 2.168810 1_555
In2 O50 2.261848 1_555
In3 O15 2.055736 1_555
In3 O17 2.057070 1_555
In3 O51 2.148072 1_555
In3 O16 2.149343 1_555
In3 O52 2.168810 1_555
In3 O53 2.261848 1_555
In4 O25 2.055736 1_554
In4 O26 2.057070 1_554
In4 O61 2.148073 1_555
In4 O24 2.149343 1_554
In4 O60 2.168810 1_555
In4 O62 2.261848 1_555
In5 O27 2.055736 1_555
In5 O29 2.057070 1_555
In5 O63 2.148072 1_555
In5 O28 2.149343 1_555
In5 O64 2.168810 1_555
In5 O65 2.261848 1_555
O0 P0 1.535139 1_545
O1 Si0 1.613020 1_555
O2 Si1 1.611149 1_655
O3 Si2 1.613020 1_555
O4 P1 1.535139 1_655
O5 Si3 1.611149 1_545
O6 Si3 1.682299 1_555
O6 Ti0 1.906419 1_565
O7 Si2 1.688407 1_555
O7 Ti0 1.925792 1_455
O8 P1 1.573012 1_555
O8 Ti0 2.026993 1_465
O9 Si0 1.688407 1_555
O9 Ti1 1.925792 1_565
O10 Si1 1.682299 1_555
O10 Ti1 1.906419 1_455
O11 P0 1.573012 1_555
O11 Ti1 2.026993 1_465
O12 P2 1.535139 1_555
O13 Si4 1.613020 1_555
O14 Si5 1.611149 1_555
O15 Si6 1.613020 1_555
O16 P3 1.535139 1_555
O17 Si7 1.611149 1_555
O18 Si7 1.682299 1_555
O18 Ti2 1.906419 1_554
O19 Si6 1.688407 1_555
O19 Ti2 1.925792 1_554
O20 P3 1.573012 1_555
O20 Ti2 2.026993 1_554
O21 Si4 1.688407 1_555
O21 Ti3 1.925792 1_555
O22 Si5 1.682299 1_555
O22 Ti3 1.906419 1_555
O23 P2 1.573012 1_555
O23 Ti3 2.026993 1_555
O24 P4 1.535139 1_555
O25 Si8 1.613020 1_555
O26 Si9 1.611149 1_555
O27 Si10 1.613020 1_555
O28 P5 1.535139 1_555
O29 Si11 1.611149 1_555
O30 Si11 1.682299 1_555
O30 Ti4 1.906419 1_555
O31 Si10 1.688407 1_555
O31 Ti4 1.925792 1_555
O32 P5 1.573012 1_555
O32 Ti4 2.026993 1_555
O33 Si8 1.688407 1_555
O33 Ti5 1.925792 1_555
O34 Si9 1.682299 1_555
O34 Ti5 1.906419 1_555
O35 P4 1.573012 1_555
O35 Ti5 2.026993 1_555
O36 Si11 1.634731 1_555
O37 Si10 1.631761 1_555
O38 P5 1.539447 1_555
O39 Si8 1.631761 1_555
O40 Si9 1.634732 1_555
O41 P4 1.539447 1_555
O42 P2 1.566655 1_555
O42 Ti0 2.128454 1_555
O43 Si4 1.660978 1_555
O43 Ti0 2.050578 1_455
O44 Si5 1.658598 1_555
O44 Ti0 2.057813 1_565
O45 Si6 1.660978 1_555
O45 Ti1 2.050578 1_565
O46 P3 1.566655 1_555
O46 Ti1 2.128454 1_555
O47 Si7 1.658598 1_555
O47 Ti1 2.057813 1_455
O48 Si3 1.634731 1_545
O49 Si2 1.631761 1_555
O50 P1 1.539447 1_655
O51 Si0 1.631761 1_555
O52 Si1 1.634732 1_655
O53 P0 1.539447 1_545
O54 P4 1.566668 1_555
O54 Ti2 2.128454 1_555
O55 Si8 1.660963 1_655
O55 Ti2 2.050578 1_555
O56 Si9 1.658596 1_545
O56 Ti2 2.057813 1_555
O57 Si10 1.660963 1_545
O57 Ti3 2.050578 1_555
O58 P5 1.566668 1_555
O58 Ti3 2.128454 1_555
O59 Si11 1.658596 1_655
O59 Ti3 2.057813 1_555
O60 Si7 1.634745 1_555
O61 Si6 1.631748 1_455
O62 P3 1.539442 1_565
O63 Si4 1.631748 1_565
O64 Si5 1.634745 1_555
O65 P2 1.539442 1_455
O66 P0 1.566655 1_555
O66 Ti4 2.128454 1_555
O67 Si0 1.660978 1_555
O67 Ti4 2.050578 1_555
O68 Si1 1.658598 1_555
O68 Ti4 2.057813 1_555
O69 Si2 1.660978 1_555
O69 Ti5 2.050578 1_555
O70 P1 1.566655 1_555
O70 Ti5 2.128454 1_555
O71 Si3 1.658598 1_555
O71 Ti5 2.057813 1_555
