# generated using pymatgen
data_Na6Ti3ZnSi4(SO12)2
_symmetry_space_group_name_H-M   'P 1'
_cell_length_a   8.98748285
_cell_length_b   8.96546486
_cell_length_c   22.07098127
_cell_angle_alpha   90.19443912
_cell_angle_beta   90.02311855
_cell_angle_gamma   120.10304325
_symmetry_Int_Tables_number   1
_chemical_formula_structural   Na6Ti3ZnSi4(SO12)2
_chemical_formula_sum   'Na18 Ti9 Zn3 Si12 S6 O72'
_cell_volume   1538.53540656
_cell_formula_units_Z   3
loop_
 _symmetry_equiv_pos_site_id
 _symmetry_equiv_pos_as_xyz
  1  'x, y, z'
loop_
 _atom_site_type_symbol
 _atom_site_label
 _atom_site_symmetry_multiplicity
 _atom_site_fract_x
 _atom_site_fract_y
 _atom_site_fract_z
 _atom_site_occupancy
  Na  Na0  1  0.99195683  0.36429331  0.75225804  1
  Na  Na1  1  0.39170930  0.01319967  0.74818806  1
  Na  Na2  1  0.31898584  0.33791835  0.58484548  1
  Na  Na3  1  0.03102825  0.70201707  0.57701805  1
  Na  Na4  1  0.65568706  0.96666214  0.58942111  1
  Na  Na5  1  0.32025647  0.97927108  0.08685695  1
  Na  Na6  1  0.65381179  0.68083530  0.08781038  1
  Na  Na7  1  0.02718275  0.34120256  0.08796112  1
  Na  Na8  1  0.33522339  0.29771375  0.92399826  1
  Na  Na9  1  0.95990457  0.28586380  0.41108376  1
  Na  Na10  1  0.32144660  0.03314519  0.41140385  1
  Na  Na11  1  0.71658799  0.68070695  0.41103229  1
  Na  Na12  1  0.00146846  0.99543827  0.49322229  1
  Na  Na13  1  0.99095816  0.98621893  0.99563066  1
  Na  Na14  1  0.66824557  0.33037573  0.83316181  1
  Na  Na15  1  0.66966421  0.33384218  0.32106727  1
  Na  Na16  1  0.33646471  0.66545153  0.16963884  1
  Na  Na17  1  0.36557726  0.67174295  0.66924735  1
  Ti  Ti0  1  0.00913764  0.02340605  0.85579997  1
  Ti  Ti1  1  0.99602630  0.00005724  0.64809926  1
  Ti  Ti2  1  0.00283218  0.00088578  0.14270537  1
  Ti  Ti3  1  0.67361435  0.31818816  0.98253666  1
  Ti  Ti4  1  0.65111326  0.33987715  0.47594766  1
  Ti  Ti5  1  0.31749659  0.66727945  0.02026480  1
  Ti  Ti6  1  0.34611703  0.67818918  0.51672876  1
  Ti  Ti7  1  0.33116590  0.66735209  0.31758155  1
  Ti  Ti8  1  0.33894492  0.67336736  0.81419641  1
  Zn  Zn0  1  0.00064894  0.99872929  0.35371110  1
  Zn  Zn1  1  0.63069803  0.31944489  0.68661301  1
  Zn  Zn2  1  0.66488949  0.33197343  0.17104031  1
  Si  Si0  1  0.29243179  0.29942745  0.75112956  1
  Si  Si1  1  0.70937691  0.99508119  0.75150503  1
  Si  Si2  1  0.37207685  0.03629395  0.58458839  1
  Si  Si3  1  0.66603177  0.62602849  0.58419693  1
  Si  Si4  1  0.95145794  0.61770073  0.08450012  1
  Si  Si5  1  0.66165373  0.03455757  0.08625862  1
  Si  Si6  1  0.37963139  0.33890338  0.08215946  1
  Si  Si7  1  0.03719857  0.38415173  0.91513498  1
  Si  Si8  1  0.33283004  0.95996365  0.91575049  1
  Si  Si9  1  0.62255405  0.96336626  0.41565747  1
  Si  Si10  1  0.33261563  0.38177678  0.41729476  1
  Si  Si11  1  0.04037194  0.65752262  0.41804034  1
  S  S0  1  0.29222411  0.99528915  0.25137109  1
  S  S1  1  0.70296795  0.70748655  0.25105691  1
  S  S2  1  0.00508025  0.29681835  0.25149048  1
  S  S3  1  0.00338339  0.71635619  0.75067735  1
  S  S4  1  0.96004111  0.33255659  0.58455002  1
  S  S5  1  0.62592146  0.66986001  0.91611034  1
  O  O0  1  0.20684313  0.00268586  0.30773627  1
  O  O1  1  0.79587936  0.79391803  0.30756032  1
  O  O2  1  0.99853261  0.20455630  0.30779925  1
  O  O3  1  0.18745544  0.18077188  0.81090969  1
  O  O4  1  0.99229313  0.80584586  0.80433714  1
  O  O5  1  0.83521356  0.00538090  0.80710796  1
  O  O6  1  0.80289704  0.97362586  0.68858602  1
  O  O7  1  0.16687558  0.18941139  0.69175790  1
  O  O8  1  0.01856305  0.81606824  0.69334947  1
  O  O9  1  0.80012865  0.81305871  0.19636490  1
  O  O10  1  0.01372955  0.19903079  0.19671230  1
  O  O11  1  0.18649906  0.98704337  0.19650913  1
  O  O12  1  0.88573489  0.35465877  0.64056912  1
  O  O13  1  0.49098175  0.09554204  0.64441845  1
  O  O14  1  0.62417609  0.49917306  0.64007370  1
  O  O15  1  0.89420959  0.49333678  0.14175151  1
  O  O16  1  0.59757679  0.10104002  0.14170932  1
  O  O17  1  0.50551360  0.39905119  0.13949392  1
  O  O18  1  0.45775089  0.28789588  0.02292802  1
  O  O19  1  0.81719164  0.52741534  0.02741524  1
  O  O20  1  0.71104604  0.16991776  0.02800248  1
  O  O21  1  0.47223033  0.16929634  0.52670590  1
  O  O22  1  0.69795974  0.53669225  0.52242395  1
  O  O23  1  0.85549574  0.31213546  0.52991095  1
  O  O24  1  0.54846557  0.68896843  0.97248155  1
  O  O25  1  0.16194210  0.47339570  0.97380032  1
  O  O26  1  0.31736583  0.84227391  0.97450066  1
  O  O27  1  0.53100899  0.84340402  0.47625428  1
  O  O28  1  0.31237269  0.47247706  0.47856867  1
  O  O29  1  0.15943827  0.68132250  0.47751132  1
  O  O30  1  0.13865552  0.62735694  0.35927476  1
  O  O31  1  0.48818680  0.86408955  0.35878547  1
  O  O32  1  0.37021412  0.51369164  0.35969180  1
  O  O33  1  0.14210295  0.49777267  0.85513498  1
  O  O34  1  0.35320574  0.86079542  0.85528137  1
  O  O35  1  0.51322845  0.65300804  0.86268442  1
  O  O36  1  0.02028761  0.82620929  0.41398135  1
  O  O37  1  0.80942775  0.98098202  0.41268670  1
  O  O38  1  0.16953561  0.19057310  0.41314549  1
  O  O39  1  0.02186574  0.19071415  0.91179273  1
  O  O40  1  0.15963522  0.97895496  0.91133768  1
  O  O41  1  0.79985573  0.82109528  0.91037318  1
  O  O42  1  0.97459766  0.17091568  0.58548725  1
  O  O43  1  0.18212553  0.02384239  0.58906548  1
  O  O44  1  0.84160931  0.81970361  0.58770310  1
  O  O45  1  0.97461684  0.81416047  0.09324137  1
  O  O46  1  0.84013774  0.02249058  0.09442009  1
  O  O47  1  0.18405235  0.16109860  0.09371335  1
  O  O48  1  0.70375591  0.17241893  0.75127995  1
  O  O49  1  0.47196400  0.30263000  0.75350084  1
  O  O50  1  0.85866494  0.53977163  0.74698242  1
  O  O51  1  0.68291010  0.53496154  0.24845133  1
  O  O52  1  0.85327676  0.31673442  0.24872602  1
  O  O53  1  0.46431955  0.14754886  0.24890686  1
  O  O54  1  0.63132228  0.50771998  0.91587582  1
  O  O55  1  0.84842226  0.36525813  0.92144268  1
  O  O56  1  0.50207804  0.15405295  0.92071694  1
  O  O57  1  0.63330992  0.14935996  0.42311838  1
  O  O58  1  0.51102996  0.37057079  0.42005810  1
  O  O59  1  0.85327757  0.48015523  0.42294001  1
  O  O60  1  0.33821540  0.49550449  0.07132779  1
  O  O61  1  0.15241311  0.66271698  0.07336398  1
  O  O62  1  0.50846794  0.83850299  0.07157164  1
  O  O63  1  0.33588762  0.83779314  0.57516367  1
  O  O64  1  0.49847924  0.65466642  0.57783743  1
  O  O65  1  0.13852858  0.48290515  0.58019543  1
  O  O66  1  0.29847727  0.83040371  0.24993402  1
  O  O67  1  0.53150289  0.69965235  0.25023091  1
  O  O68  1  0.16925840  0.46918145  0.25034756  1
  O  O69  1  0.29427048  0.48293648  0.75275354  1
  O  O70  1  0.16893147  0.71081440  0.75043143  1
  O  O71  1  0.51446622  0.82576850  0.75591621  1
loop_
_geom_bond_atom_site_label_1
_geom_bond_atom_site_label_2
_geom_bond_distance
_geom_bond_site_symmetry_2
Na0 O48 2.280109 1_555
Na0 O69 2.369529 1_655
Na0 O50 2.411523 1_555
Na0 O33 2.601511 1_655
Na0 O12 2.628579 1_555
Na0 O70 2.688368 1_655
Na1 O49 2.321159 1_555
Na1 O48 2.427135 1_555
Na1 O70 2.432489 1_545
Na1 O71 2.435487 1_545
Na1 O13 2.436987 1_555
Na1 O34 2.668683 1_545
Na2 O43 2.445018 1_555
Na2 O64 2.469520 1_555
Na2 O65 2.538931 1_555
Na2 O28 2.655542 1_555
Na2 O14 2.665881 1_555
Na2 O42 2.678358 1_455
Na2 O7 2.721713 1_555
Na2 O21 2.811734 1_555
Na3 O63 2.376003 1_555
Na3 O44 2.422292 1_455
Na3 O43 2.510767 1_565
Na3 O29 2.530562 1_555
Na3 O65 2.588851 1_555
Na3 O8 2.783475 1_555
Na3 O22 2.853735 1_455
Na4 O64 2.432346 1_555
Na4 O42 2.512434 1_565
Na4 O63 2.522021 1_555
Na4 O6 2.541356 1_555
Na4 O13 2.589875 1_565
Na4 O44 2.595706 1_555
Na4 O27 2.729869 1_555
Na5 O61 2.473495 1_555
Na5 O16 2.475629 1_565
Na5 O47 2.485775 1_565
Na5 O62 2.589779 1_555
Na5 O45 2.692593 1_455
Na5 O11 2.718873 1_555
Na5 O26 2.757898 1_554
Na5 O18 2.787832 1_565
Na6 O62 2.385013 1_555
Na6 O17 2.470447 1_555
Na6 O60 2.491166 1_555
Na6 O45 2.509543 1_555
Na6 O46 2.656967 1_565
Na6 O9 2.699881 1_555
Na6 O24 2.729373 1_554
Na6 O19 2.800009 1_555
Na7 O60 2.447021 1_555
Na7 O46 2.489090 1_455
Na7 O15 2.514630 1_455
Na7 O61 2.536082 1_555
Na7 O47 2.626024 1_555
Na7 O10 2.695718 1_555
Na7 O20 2.790822 1_455
Na7 O25 2.793375 1_554
Na8 O54 2.373937 1_555
Na8 O56 2.418656 1_555
Na8 O18 2.466696 1_556
Na8 O40 2.491160 1_545
Na8 O39 2.492368 1_555
Na8 O3 2.770506 1_555
Na8 O25 2.926542 1_555
Na9 O37 2.365222 1_545
Na9 O59 2.385935 1_555
Na9 O38 2.428252 1_655
Na9 O2 2.468129 1_555
Na9 O57 2.565829 1_555
Na9 O23 2.834383 1_555
Na9 O30 2.890233 1_655
Na10 O36 2.394766 1_545
Na10 O38 2.406300 1_555
Na10 O57 2.465084 1_555
Na10 O0 2.466237 1_555
Na10 O58 2.629946 1_555
Na10 O21 2.849461 1_555
Na10 O31 2.856489 1_545
Na11 O36 2.362979 1_655
Na11 O37 2.385585 1_555
Na11 O58 2.456668 1_555
Na11 O1 2.458646 1_555
Na11 O59 2.651401 1_555
Na11 O22 2.746724 1_555
Na11 O32 2.920074 1_555
Na12 O36 2.372538 1_555
Na12 O38 2.416239 1_565
Na12 O37 2.434505 1_455
Na12 O44 2.578562 1_455
Na12 O43 2.598967 1_565
Na12 O42 2.653301 1_465
Na13 O40 2.421596 1_655
Na13 O41 2.471902 1_555
Na13 O39 2.524876 1_665
Na13 O45 2.614951 1_556
Na13 O46 2.671501 1_566
Na13 O47 2.720433 1_666
Na14 O48 2.410361 1_555
Na14 O49 2.412352 1_555
Na14 O55 2.449858 1_555
Na14 O56 2.473552 1_555
Na14 O54 2.545769 1_555
Na14 O50 2.622039 1_555
Na15 O52 2.355920 1_555
Na15 O53 2.370585 1_555
Na15 O51 2.374563 1_555
Na15 O59 2.702767 1_555
Na15 O58 2.717194 1_555
Na15 O57 2.720169 1_555
Na16 O67 2.405254 1_555
Na16 O68 2.428711 1_555
Na16 O66 2.435872 1_555
Na16 O60 2.651703 1_555
Na16 O62 2.664819 1_555
Na16 O61 2.684790 1_555
Na17 O71 2.341578 1_555
Na17 O69 2.367886 1_555
Na17 O64 2.388259 1_555
Na17 O63 2.649231 1_555
Na17 O70 2.660102 1_555
Na17 O65 2.720670 1_555
O0 S0 1.480580 1_545
O0 Zn0 2.097842 1_545
O1 S1 1.482058 1_555
O1 Zn0 2.095745 1_655
O2 S2 1.480004 1_655
O2 Zn0 2.116677 1_645
O3 Si0 1.663246 1_555
O3 Ti0 1.811965 1_555
O4 S3 1.459498 1_655
O4 Ti0 2.192308 1_665
O5 Si1 1.639202 1_545
O5 Ti0 1.835355 1_655
O6 Si1 1.683215 1_555
O6 Ti1 1.859448 1_565
O7 Si0 1.684312 1_555
O7 Ti1 1.881789 1_455
O8 S3 1.517960 1_555
O8 Ti1 2.026237 1_465
O9 S1 1.514933 1_555
O9 Ti2 2.120179 1_665
O10 S2 1.515787 1_555
O10 Ti2 2.096961 1_555
O11 S0 1.517407 1_555
O11 Ti2 2.086935 1_565
O12 S4 1.464815 1_555
O12 Zn1 2.380013 1_555
O13 Si2 1.610156 1_555
O13 Zn1 1.982806 1_555
O14 Si3 1.592686 1_555
O14 Zn1 1.939298 1_555
O15 Si4 1.593488 1_555
O15 Zn2 1.942950 1_555
O16 Si5 1.588923 1_555
O16 Zn2 1.950864 1_555
O17 Si6 1.598220 1_555
O17 Zn2 1.940183 1_555
O18 Si6 1.652225 1_555
O18 Ti3 2.026540 1_554
O19 Si4 1.646452 1_555
O19 Ti3 1.929562 1_554
O20 Si5 1.671426 1_555
O20 Ti3 1.828822 1_554
O21 Si2 1.672952 1_555
O21 Ti4 1.930112 1_555
O22 Si3 1.675151 1_555
O22 Ti4 1.893465 1_555
O23 S4 1.481782 1_555
O23 Ti4 2.305010 1_555
O24 S5 1.476749 1_555
O24 Ti5 2.248858 1_556
O25 Si7 1.632666 1_555
O25 Ti5 1.891235 1_556
O26 Si8 1.635950 1_555
O26 Ti5 1.869303 1_556
O27 Si9 1.656924 1_555
O27 Ti6 1.815068 1_555
O28 Si10 1.632300 1_555
O28 Ti6 1.905509 1_555
O29 Si11 1.637513 1_555
O29 Ti6 1.900312 1_555
O30 Si11 1.665481 1_555
O30 Ti7 1.830325 1_555
O31 Si9 1.655032 1_555
O31 Ti7 1.849560 1_555
O32 Si10 1.654967 1_555
O32 Ti7 1.838006 1_555
O33 Si7 1.651366 1_555
O33 Ti8 1.908333 1_555
O34 Si8 1.661527 1_555
O34 Ti8 1.853614 1_555
O35 S5 1.511091 1_555
O35 Ti8 1.979618 1_555
O36 Si11 1.613249 1_555
O36 Zn0 2.116748 1_555
O37 Si9 1.607521 1_555
O37 Zn0 2.098117 1_655
O38 Si10 1.604269 1_555
O38 Zn0 2.085002 1_545
O39 Si7 1.670771 1_555
O39 Ti0 1.898813 1_555
O40 Si8 1.651449 1_555
O40 Ti0 2.008370 1_565
O41 S5 1.474220 1_555
O41 Ti0 2.207475 1_665
O42 S4 1.519232 1_555
O42 Ti1 2.145538 1_555
O43 Si2 1.657028 1_555
O43 Ti1 2.046081 1_455
O44 Si3 1.661792 1_555
O44 Ti1 2.012543 1_565
O45 Si4 1.677146 1_555
O45 Ti2 1.902689 1_665
O46 Si5 1.670731 1_555
O46 Ti2 1.896197 1_655
O47 Si6 1.699489 1_555
O47 Ti2 1.884234 1_555
O48 Si1 1.615869 1_545
O48 Zn1 2.255208 1_555
O49 Si0 1.600166 1_555
O49 Zn1 2.006202 1_555
O50 S3 1.462271 1_655
O50 Zn1 2.407325 1_555
O51 S1 1.465598 1_555
O51 Zn2 2.437275 1_555
O52 S2 1.463346 1_655
O52 Zn2 2.460994 1_555
O53 S0 1.463325 1_545
O53 Zn2 2.443124 1_555
O54 S5 1.478594 1_555
O54 Ti3 2.420938 1_555
O55 Si7 1.624399 1_655
O55 Ti3 1.950663 1_555
O56 Si8 1.642313 1_545
O56 Ti3 2.028012 1_555
O57 Si9 1.628960 1_545
O57 Ti4 2.003707 1_555
O58 Si10 1.657279 1_555
O58 Ti4 1.879094 1_555
O59 Si11 1.639184 1_655
O59 Ti4 1.992795 1_555
O60 Si6 1.641147 1_555
O60 Ti5 1.993949 1_555
O61 Si4 1.659840 1_455
O61 Ti5 1.875450 1_555
O62 Si5 1.630460 1_565
O62 Ti5 1.982010 1_555
O63 Si2 1.653184 1_565
O63 Ti6 1.959310 1_555
O64 Si3 1.655657 1_555
O64 Ti6 2.007186 1_555
O65 S4 1.493808 1_455
O65 Ti6 2.291382 1_555
O66 S0 1.507475 1_555
O66 Ti7 2.213081 1_555
O67 S1 1.507137 1_555
O67 Ti7 2.239971 1_555
O68 S2 1.509598 1_555
O68 Ti7 2.205236 1_555
O69 Si0 1.637288 1_555
O69 Ti8 2.052150 1_555
O70 S3 1.513402 1_555
O70 Ti8 2.223553 1_555
O71 Si1 1.648061 1_555
O71 Ti8 1.965048 1_555
