# generated using pymatgen
data_BaTiO3
_symmetry_space_group_name_H-M   'P 1'
_cell_length_a   5.66640804
_cell_length_b   5.66640764
_cell_length_c   5.66837388
_cell_angle_alpha   119.98853563
_cell_angle_beta   119.98853685
_cell_angle_gamma   90.00000405
_symmetry_Int_Tables_number   1
_chemical_formula_structural   BaTiO3
_chemical_formula_sum   'Ba2 Ti2 O6'
_cell_volume   128.73883349
_cell_formula_units_Z   2
loop_
 _symmetry_equiv_pos_site_id
 _symmetry_equiv_pos_as_xyz
  1  'x, y, z'
loop_
 _atom_site_type_symbol
 _atom_site_label
 _atom_site_symmetry_multiplicity
 _atom_site_fract_x
 _atom_site_fract_y
 _atom_site_fract_z
 _atom_site_occupancy
  Ba  Ba0  1  0.75000000  0.25000000  0.50000000  1
  Ba  Ba1  1  0.25000000  0.75000000  0.50000000  1
  Ti  Ti0  1  0.50000000  0.50000000  0.00000000  1
  Ti  Ti1  1  0.00000000  0.00000000  0.00000000  1
  O  O0  1  0.75046047  0.25046047  0.00000000  1
  O  O1  1  0.74953953  0.75046047  0.00000000  1
  O  O2  1  0.25046047  0.24953953  -0.00000000  1
  O  O3  1  0.24953953  0.74953953  -0.00000000  1
  O  O4  1  0.25000000  0.25000000  0.50000000  1
  O  O5  1  0.75000000  0.75000000  0.50000000  1
loop_
_geom_bond_atom_site_label_1
_geom_bond_atom_site_label_2
_geom_bond_distance
_geom_bond_site_symmetry_2
Ba0 O3 2.831579 1_656
Ba0 O1 2.831579 1_545
Ba0 O2 2.831579 1_555
Ba0 O0 2.831580 1_556
Ba0 O5 2.833204 1_555
Ba0 O5 2.833204 1_545
Ba0 O4 2.833204 1_655
Ba0 O4 2.833204 1_555
Ba0 O3 2.836795 1_545
Ba0 O1 2.836796 1_556
Ba0 O2 2.836796 1_656
Ba0 O0 2.836796 1_555
Ba1 O0 2.831579 1_455
Ba1 O2 2.831579 1_566
Ba1 O1 2.831579 1_556
Ba1 O3 2.831580 1_555
Ba1 O4 2.833204 1_565
Ba1 O4 2.833204 1_555
Ba1 O5 2.833204 1_555
Ba1 O5 2.833204 1_455
Ba1 O0 2.836795 1_566
Ba1 O2 2.836796 1_555
Ba1 O1 2.836796 1_455
Ba1 O3 2.836796 1_556
O0 Ti1 2.003381 1_655
O0 Ti0 2.003381 1_555
O1 Ti0 2.003381 1_555
O1 Ti1 2.003381 1_665
O2 Ti0 2.003381 1_555
O2 Ti1 2.003381 1_555
O3 Ti1 2.003381 1_565
O3 Ti0 2.003381 1_555
O4 Ti1 2.004767 1_555
O4 Ti0 2.004767 1_556
O5 Ti0 2.004767 1_555
O5 Ti1 2.004767 1_666
