# generated using pymatgen
data_Ho2Mg(BiO3)4
_symmetry_space_group_name_H-M   'P 1'
_cell_length_a   5.68600693
_cell_length_b   6.11014745
_cell_length_c   8.36045169
_cell_angle_alpha   86.93965647
_cell_angle_beta   90.97744860
_cell_angle_gamma   89.27755166
_symmetry_Int_Tables_number   1
_chemical_formula_structural   Ho2Mg(BiO3)4
_chemical_formula_sum   'Ho2 Mg1 Bi4 O12'
_cell_volume   289.97862945
_cell_formula_units_Z   1
loop_
 _symmetry_equiv_pos_site_id
 _symmetry_equiv_pos_as_xyz
  1  'x, y, z'
loop_
 _atom_site_type_symbol
 _atom_site_label
 _atom_site_symmetry_multiplicity
 _atom_site_fract_x
 _atom_site_fract_y
 _atom_site_fract_z
 _atom_site_occupancy
  Ho  Ho0  1  0.02533000  0.90566700  0.75768200  1
  Ho  Ho1  1  0.54287900  0.58570200  0.24184500  1
  Mg  Mg0  1  0.51600800  0.54889100  0.79550800  1
  Bi  Bi0  1  0.01599300  0.46271000  0.01687300  1
  Bi  Bi1  1  0.00560200  0.47774500  0.50884100  1
  Bi  Bi2  1  0.50514400  0.02019800  0.48661600  1
  Bi  Bi3  1  0.50733500  0.02093900  0.99527700  1
  O  O0  1  0.18196600  0.47420400  0.28226300  1
  O  O1  1  0.18545800  0.16675900  0.90736800  1
  O  O2  1  0.14015600  0.15764400  0.57130500  1
  O  O3  1  0.29645300  0.71773500  0.93378200  1
  O  O4  1  0.28635500  0.67112000  0.60968600  1
  O  O5  1  0.40949600  0.93863800  0.23336700  1
  O  O6  1  0.64969100  0.02894900  0.75589700  1
  O  O7  1  0.69176300  0.32494700  0.41213500  1
  O  O8  1  0.61008200  0.35502500  0.02563100  1
  O  O9  1  0.78251100  0.77784000  0.03876800  1
  O  O10  1  0.78746700  0.75257100  0.42842200  1
  O  O11  1  0.86060200  0.55021700  0.74873300  1
loop_
_geom_bond_atom_site_label_1
_geom_bond_atom_site_label_2
_geom_bond_distance
_geom_bond_site_symmetry_2
Ho0 O2 2.242449 1_565
Ho0 O6 2.255391 1_465
Ho0 O1 2.269590 1_565
Ho0 O3 2.357993 1_555
Ho0 O11 2.380357 1_455
Ho0 O4 2.446618 1_555
Ho0 O9 2.825016 1_456
Ho1 O0 2.196357 1_555
Ho1 O7 2.228160 1_555
Ho1 O5 2.274044 1_555
Ho1 O10 2.353391 1_555
Ho1 O8 2.383744 1_555
Ho1 O9 2.454346 1_555
Mg0 O11 2.004571 1_555
Mg0 O3 2.025666 1_555
Mg0 O4 2.111574 1_555
Mg0 O8 2.257514 1_556
Bi0 O1 2.280249 1_554
Bi0 O3 2.332087 1_554
Bi0 O9 2.341998 1_455
Bi0 O0 2.401125 1_555
Bi0 O8 2.409176 1_455
Bi0 O11 2.425823 1_454
Bi1 O2 2.126744 1_555
Bi1 O10 2.146790 1_455
Bi1 O0 2.159417 1_555
Bi1 O4 2.182495 1_555
Bi1 O7 2.187034 1_455
Bi1 O11 2.245068 1_455
Bi2 O7 2.220260 1_555
Bi2 O5 2.259910 1_545
Bi2 O10 2.352249 1_545
Bi2 O2 2.362890 1_555
Bi2 O6 2.386965 1_555
Bi2 O4 2.651772 1_545
Bi3 O5 2.112479 1_546
Bi3 O1 2.127602 1_555
Bi3 O9 2.156615 1_546
Bi3 O8 2.157083 1_556
Bi3 O6 2.169953 1_555
Bi3 O3 2.295866 1_545
