# generated using pymatgen
data_MgTi(GaO2)4
_symmetry_space_group_name_H-M   'P 1'
_cell_length_a   3.11073995
_cell_length_b   6.39873412
_cell_length_c   8.36971141
_cell_angle_alpha   80.91278315
_cell_angle_beta   79.28831988
_cell_angle_gamma   75.92850746
_symmetry_Int_Tables_number   1
_chemical_formula_structural   MgTi(GaO2)4
_chemical_formula_sum   'Mg1 Ti1 Ga4 O8'
_cell_volume   157.66755600
_cell_formula_units_Z   1
loop_
 _symmetry_equiv_pos_site_id
 _symmetry_equiv_pos_as_xyz
  1  'x, y, z'
loop_
 _atom_site_type_symbol
 _atom_site_label
 _atom_site_symmetry_multiplicity
 _atom_site_fract_x
 _atom_site_fract_y
 _atom_site_fract_z
 _atom_site_occupancy
  Mg  Mg0  1  0.78444000  0.42969700  0.00277600  1
  Ti  Ti0  1  0.01453800  0.96921300  0.00102700  1
  Ga  Ga0  1  0.52515000  0.64412100  0.30546400  1
  Ga  Ga1  1  0.75235300  0.85631100  0.63948600  1
  Ga  Ga2  1  0.24449300  0.15526200  0.35641900  1
  Ga  Ga3  1  0.47357200  0.35606700  0.69808200  1
  O  O0  1  0.87422100  0.53187600  0.72095100  1
  O  O1  1  0.59173800  0.74201200  0.07485100  1
  O  O2  1  0.41509200  0.24230600  0.92898700  1
  O  O3  1  0.83045000  0.13479000  0.20533300  1
  O  O4  1  0.10790200  0.47488400  0.30927400  1
  O  O5  1  0.64839800  0.17397200  0.52980400  1
  O  O6  1  0.35000100  0.83852200  0.46146200  1
  O  O7  1  0.15848300  0.90930000  0.77441600  1
loop_
_geom_bond_atom_site_label_1
_geom_bond_atom_site_label_2
_geom_bond_distance
_geom_bond_site_symmetry_2
Mg0 O2 2.075296 1_554
Mg0 O2 2.075450 1_654
Mg0 O1 2.093033 1_555
Mg0 O3 2.324627 1_555
Mg0 O0 2.329407 1_554
Ga0 O6 1.862244 1_555
Ga0 O4 1.874979 1_555
Ga0 O4 1.875076 1_655
Ga0 O1 1.921812 1_555
Ga1 O7 1.960601 1_555
Ga1 O7 1.961135 1_655
Ga1 O0 2.045621 1_555
Ga1 O5 2.068865 1_565
Ga1 O6 2.147176 1_655
Ga1 O6 2.148423 1_555
Ga2 O4 1.975813 1_555
Ga2 O3 2.003732 1_455
Ga2 O3 2.004514 1_555
Ga2 O6 2.051656 1_545
Ga2 O5 2.122435 1_555
Ga2 O5 2.122570 1_455
Ga3 O5 1.887488 1_555
Ga3 O0 1.921903 1_455
Ga3 O0 1.921958 1_555
Ga3 O2 1.946092 1_555
O1 Ti0 2.137534 1_655
O1 Ti0 2.139757 1_555
O2 Ti0 2.322705 1_646
O2 Ti0 2.327310 1_546
O3 Ti0 2.070679 1_645
O7 Ti0 1.943020 1_556
