# generated using pymatgen
data_Li3Cr2(PO4)3
_symmetry_space_group_name_H-M   'P 1'
_cell_length_a   9.73856543
_cell_length_b   9.73856543
_cell_length_c   9.67823153
_cell_angle_alpha   85.95794858
_cell_angle_beta   85.95794858
_cell_angle_gamma   85.77968649
_symmetry_Int_Tables_number   1
_chemical_formula_structural   Li3Cr2(PO4)3
_chemical_formula_sum   'Li12 Cr8 P12 O48'
_cell_volume   911.14494585
_cell_formula_units_Z   4
loop_
 _symmetry_equiv_pos_site_id
 _symmetry_equiv_pos_as_xyz
  1  'x, y, z'
loop_
 _atom_site_type_symbol
 _atom_site_label
 _atom_site_symmetry_multiplicity
 _atom_site_fract_x
 _atom_site_fract_y
 _atom_site_fract_z
 _atom_site_occupancy
  Li  Li0  1  0.23866600  0.03310400  0.39541000  1
  Li  Li1  1  0.96689600  0.76133400  0.60459000  1
  Li  Li2  1  0.73181300  0.78078300  0.17530700  1
  Li  Li3  1  0.50240400  0.97733100  0.26768800  1
  Li  Li4  1  0.75279400  0.62208000  0.82832500  1
  Li  Li5  1  0.56768500  0.76824800  0.47370900  1
  Li  Li6  1  0.91177600  0.32614100  0.97761100  1
  Li  Li7  1  0.67385900  0.08822400  0.02238900  1
  Li  Li8  1  0.23175200  0.43231500  0.52629100  1
  Li  Li9  1  0.21921700  0.26818700  0.82469300  1
  Li  Li10  1  0.02266900  0.49759600  0.73231200  1
  Li  Li11  1  0.37792000  0.24720600  0.17167500  1
  Cr  Cr0  1  0.25291600  0.96841100  0.78285600  1
  Cr  Cr1  1  0.96395200  0.24792800  0.27979100  1
  Cr  Cr2  1  0.46671300  0.53328700  0.00000000  1
  Cr  Cr3  1  0.24996200  0.75003800  0.00000000  1
  Cr  Cr4  1  0.74943500  0.25056500  0.50000000  1
  Cr  Cr5  1  0.53147100  0.46852900  0.50000000  1
  Cr  Cr6  1  0.75207200  0.03604800  0.72020900  1
  Cr  Cr7  1  0.03158900  0.74708400  0.21714400  1
  P  P0  1  0.44860700  0.15630500  0.57441200  1
  P  P1  1  0.65021700  0.32508100  0.19959100  1
  P  P2  1  0.34268800  0.67533700  0.30232400  1
  P  P3  1  0.32466300  0.65731200  0.69767600  1
  P  P4  1  0.67491900  0.34978300  0.80040900  1
  P  P5  1  0.84369500  0.55139300  0.42558800  1
  P  P6  1  0.55104300  0.84711700  0.93007000  1
  P  P7  1  0.82283400  0.94851000  0.40561500  1
  P  P8  1  0.16967800  0.04968500  0.09912500  1
  P  P9  1  0.05149000  0.17716600  0.59438500  1
  P  P10  1  0.15288300  0.44895700  0.06993000  1
  P  P11  1  0.95031500  0.83032200  0.90087500  1
  O  O0  1  0.09149700  0.40264400  0.94037800  1
  O  O1  1  0.61789600  0.90838300  0.79308400  1
  O  O2  1  0.69688000  0.89744900  0.34354000  1
  O  O3  1  0.90930800  0.80203500  0.05808800  1
  O  O4  1  0.91448800  0.71708300  0.81042800  1
  O  O5  1  0.81911200  0.91524400  0.56635600  1
  O  O6  1  0.96205700  0.88239400  0.34849000  1
  O  O7  1  0.88175300  0.97358300  0.85727300  1
  O  O8  1  0.02641700  0.11824700  0.14272700  1
  O  O9  1  0.11760600  0.03794300  0.65151000  1
  O  O10  1  0.08475600  0.18088800  0.43364400  1
  O  O11  1  0.28291700  0.08551200  0.18957200  1
  O  O12  1  0.19796500  0.09069200  0.94191200  1
  O  O13  1  0.10255100  0.30312000  0.65646000  1
  O  O14  1  0.09161700  0.38210400  0.20691600  1
  O  O15  1  0.41052100  0.08362000  0.45061000  1
  O  O16  1  0.37702400  0.10888900  0.71619100  1
  O  O17  1  0.91638000  0.58947900  0.54939000  1
  O  O18  1  0.31222100  0.41118100  0.06433900  1
  O  O19  1  0.12204800  0.61138600  0.07685300  1
  O  O20  1  0.57594400  0.20216100  0.15825800  1
  O  O21  1  0.41157900  0.31591200  0.56105700  1
  O  O22  1  0.61219600  0.12587000  0.58593500  1
  O  O23  1  0.20532100  0.58087000  0.65472600  1
  O  O24  1  0.18455500  0.69019600  0.33415100  1
  O  O25  1  0.39027400  0.53263900  0.37284100  1
  O  O26  1  0.82626000  0.11134800  0.37151700  1
  O  O27  1  0.62233500  0.33165900  0.36358400  1
  O  O28  1  0.69313300  0.19193200  0.84177000  1
  O  O29  1  0.37607000  0.66679600  0.13722400  1
  O  O30  1  0.16185400  0.88655300  0.12508500  1
  O  O31  1  0.59438400  0.46468000  0.13590600  1
  O  O32  1  0.53532000  0.40561600  0.86409400  1
  O  O33  1  0.11344700  0.83814600  0.87491500  1
  O  O34  1  0.33320400  0.62393000  0.86277600  1
  O  O35  1  0.80806800  0.30686700  0.15823000  1
  O  O36  1  0.66834100  0.37766500  0.63641600  1
  O  O37  1  0.88865200  0.17374000  0.62848300  1
  O  O38  1  0.46736100  0.60972600  0.62715900  1
  O  O39  1  0.30980400  0.81544500  0.66584900  1
  O  O40  1  0.89111100  0.62297600  0.28380900  1
  O  O41  1  0.87413000  0.38780400  0.41406500  1
  O  O42  1  0.68408800  0.58842100  0.43894300  1
  O  O43  1  0.79783900  0.42405600  0.84174200  1
  O  O44  1  0.38861400  0.87795200  0.92314700  1
  O  O45  1  0.58881900  0.68777900  0.93566100  1
  O  O46  1  0.59735600  0.90850300  0.05962200  1
  O  O47  1  0.41913000  0.79467900  0.34527400  1
loop_
_geom_bond_atom_site_label_1
_geom_bond_atom_site_label_2
_geom_bond_distance
_geom_bond_site_symmetry_2
Li0 O15 1.900716 1_555
Li0 O10 2.033277 1_555
Li0 O11 2.045203 1_555
Li1 O17 1.900716 1_555
Li1 O5 2.033277 1_555
Li1 O4 2.045203 1_555
Li2 O3 2.015151 1_555
Li2 O2 2.045345 1_555
Li2 O46 2.070228 1_555
Li2 O40 2.349980 1_555
Li3 O47 2.079351 1_555
Li3 O2 2.151668 1_555
Li3 O15 2.214721 1_565
Li3 O46 2.279458 1_555
Li3 O11 2.456510 1_565
Li3 O20 2.495102 1_565
Li4 O4 1.875885 1_555
Li4 O45 1.935976 1_555
Li4 O43 1.943324 1_555
Li5 O47 1.964165 1_555
Li5 O42 2.049943 1_555
Li5 O2 2.130573 1_555
Li5 O38 2.288584 1_555
Li6 O43 1.934628 1_555
Li6 O0 1.952785 1_655
Li6 O35 1.960554 1_556
Li7 O20 1.934628 1_555
Li7 O46 1.952785 1_545
Li7 O28 1.960554 1_554
Li8 O23 1.964165 1_555
Li8 O21 2.049943 1_555
Li8 O13 2.130573 1_555
Li8 O25 2.288584 1_555
Li9 O12 2.015151 1_555
Li9 O13 2.045345 1_555
Li9 O0 2.070228 1_555
Li9 O16 2.349980 1_555
Li10 O23 2.079351 1_555
Li10 O13 2.151668 1_555
Li10 O17 2.214721 1_455
Li10 O0 2.279458 1_555
Li10 O4 2.456510 1_455
Li10 O43 2.495102 1_455
Li11 O11 1.875885 1_555
Li11 O18 1.935976 1_555
Li11 O20 1.943324 1_555
Cr0 O16 1.938464 1_565
Cr0 O9 1.947904 1_565
Cr0 O39 1.958653 1_555
Cr0 O12 2.030438 1_565
Cr0 O33 2.042449 1_555
Cr0 O44 2.068562 1_555
Cr1 O8 1.932363 1_655
Cr1 O14 1.932915 1_655
Cr1 O10 2.006079 1_655
Cr1 O35 2.011597 1_555
Cr1 O41 2.055103 1_555
Cr1 O26 2.069672 1_555
Cr2 O31 1.925296 1_555
Cr2 O32 1.925296 1_554
Cr2 O45 2.022934 1_554
Cr2 O18 2.022934 1_555
Cr2 O29 2.035374 1_555
Cr2 O34 2.035374 1_554
Cr3 O29 1.964907 1_555
Cr3 O34 1.964907 1_554
Cr3 O30 1.970234 1_555
Cr3 O33 1.970234 1_554
Cr3 O44 1.975752 1_554
Cr3 O19 1.975752 1_555
Cr4 O36 1.959180 1_555
Cr4 O27 1.959180 1_555
Cr4 O22 1.972922 1_555
Cr4 O41 1.972922 1_555
Cr4 O37 1.975186 1_555
Cr4 O26 1.975186 1_555
Cr5 O25 1.949110 1_555
Cr5 O38 1.949110 1_555
Cr5 O42 1.988908 1_555
Cr5 O21 1.988908 1_555
Cr5 O36 2.052458 1_555
Cr5 O27 2.052458 1_555
Cr6 O7 1.932363 1_545
Cr6 O1 1.932915 1_545
Cr6 O5 2.006079 1_545
Cr6 O28 2.011597 1_555
Cr6 O22 2.055103 1_555
Cr6 O37 2.069672 1_555
Cr7 O40 1.938464 1_455
Cr7 O6 1.947904 1_455
Cr7 O24 1.958653 1_555
Cr7 O3 2.030438 1_455
Cr7 O30 2.042449 1_555
Cr7 O19 2.068562 1_555
O0 P10 1.535571 1_556
O1 P6 1.536725 1_555
O2 P7 1.532499 1_555
O3 P11 1.556246 1_554
O4 P11 1.529678 1_555
O5 P7 1.564980 1_555
O6 P7 1.540954 1_555
O7 P11 1.545953 1_555
O8 P8 1.545953 1_555
O9 P9 1.540954 1_555
O10 P9 1.564980 1_555
O11 P8 1.529678 1_555
O12 P8 1.556246 1_556
O13 P9 1.532499 1_555
O14 P10 1.536725 1_555
O15 P0 1.514967 1_555
O16 P0 1.550886 1_555
O17 P5 1.514967 1_555
O18 P10 1.566225 1_555
O19 P10 1.593432 1_555
O20 P1 1.533593 1_555
O21 P0 1.567952 1_555
O22 P0 1.609103 1_555
O23 P3 1.522105 1_555
O24 P2 1.547255 1_555
O25 P2 1.558148 1_555
O26 P7 1.599145 1_545
O27 P1 1.596225 1_555
O28 P4 1.561391 1_555
O29 P2 1.614725 1_555
O30 P8 1.597390 1_565
O31 P1 1.531041 1_555
O32 P4 1.531041 1_555
O33 P11 1.597390 1_455
O34 P3 1.614725 1_555
O35 P1 1.561391 1_555
O36 P4 1.596225 1_555
O37 P9 1.599145 1_655
O38 P3 1.558148 1_555
O39 P3 1.547255 1_555
O40 P5 1.550886 1_555
O41 P5 1.609103 1_555
O42 P5 1.567952 1_555
O43 P4 1.533593 1_555
O44 P6 1.593432 1_555
O45 P6 1.566225 1_555
O46 P6 1.535571 1_554
O47 P2 1.522105 1_555
