# generated using pymatgen
data_Sc3P2
_symmetry_space_group_name_H-M   'P 1'
_cell_length_a   3.72891481
_cell_length_b   10.17645414
_cell_length_c   10.07611198
_cell_angle_alpha   90.00005059
_cell_angle_beta   89.99999377
_cell_angle_gamma   90.00001878
_symmetry_Int_Tables_number   1
_chemical_formula_structural   Sc3P2
_chemical_formula_sum   'Sc12 P8'
_cell_volume   382.35953680
_cell_formula_units_Z   4
loop_
 _symmetry_equiv_pos_site_id
 _symmetry_equiv_pos_as_xyz
  1  'x, y, z'
loop_
 _atom_site_type_symbol
 _atom_site_label
 _atom_site_symmetry_multiplicity
 _atom_site_fract_x
 _atom_site_fract_y
 _atom_site_fract_z
 _atom_site_occupancy
  Sc  Sc0  1  0.74999939  0.77586912  0.19965649  1
  Sc  Sc1  1  0.24999877  0.22413372  0.80033905  1
  Sc  Sc2  1  0.74999974  0.27587691  0.30032343  1
  Sc  Sc3  1  0.25000012  0.72412095  0.69967564  1
  Sc  Sc4  1  0.25000017  0.87409566  0.43758329  1
  Sc  Sc5  1  0.74999968  0.12595805  0.56241356  1
  Sc  Sc6  1  0.25000047  0.37405799  0.06241597  1
  Sc  Sc7  1  0.75000004  0.62588876  0.93758594  1
  Sc  Sc8  1  0.25000011  0.54669964  0.36682996  1
  Sc  Sc9  1  0.75000011  0.45323148  0.63317188  1
  Sc  Sc10  1  0.25000021  0.04676390  0.13316682  1
  Sc  Sc11  1  0.74999999  0.95330567  0.86682870  1
  P  P0  1  0.25000011  0.98839043  0.67946919  1
  P  P1  1  0.75000004  0.01166352  0.32052757  1
  P  P2  1  0.25000036  0.48833581  0.82052798  1
  P  P3  1  0.75000038  0.51160760  0.17947912  1
  P  P4  1  0.25000012  0.81375506  0.00259150  1
  P  P5  1  0.74999972  0.18625786  0.99740710  1
  P  P6  1  0.25000012  0.31375185  0.49739506  1
  P  P7  1  0.75000034  0.68623702  0.50260775  1
loop_
_geom_bond_atom_site_label_1
_geom_bond_atom_site_label_2
_geom_bond_distance
_geom_bond_site_symmetry_2
P0 Sc5 2.612891 1_565
P0 Sc5 2.612894 1_465
P0 Sc11 2.677252 1_555
P0 Sc11 2.677252 1_455
P0 Sc1 2.690468 1_565
P0 Sc3 2.697023 1_555
P0 Sc4 2.700577 1_555
P1 Sc4 2.612893 1_545
P1 Sc4 2.612895 1_645
P1 Sc10 2.677282 1_555
P1 Sc10 2.677282 1_655
P1 Sc0 2.690938 1_545
P1 Sc2 2.696452 1_555
P1 Sc5 2.700577 1_555
P2 Sc7 2.612821 1_555
P2 Sc7 2.612823 1_455
P2 Sc9 2.677253 1_555
P2 Sc9 2.677254 1_455
P2 Sc3 2.690770 1_555
P2 Sc1 2.696325 1_555
P2 Sc6 2.700523 1_556
P3 Sc6 2.612827 1_555
P3 Sc6 2.612827 1_655
P3 Sc8 2.677199 1_655
P3 Sc8 2.677200 1_555
P3 Sc2 2.690239 1_555
P3 Sc0 2.696919 1_555
P3 Sc7 2.700585 1_554
P4 Sc10 2.711761 1_565
P4 Sc11 2.713722 1_554
P4 Sc11 2.713724 1_454
P4 Sc7 2.749592 1_454
P4 Sc7 2.749592 1_554
P4 Sc0 2.750934 1_555
P4 Sc0 2.750938 1_455
P4 Sc3 3.185598 1_554
P5 Sc11 2.711272 1_545
P5 Sc10 2.713404 1_556
P5 Sc10 2.713407 1_656
P5 Sc6 2.749130 1_556
P5 Sc6 2.749133 1_656
P5 Sc1 2.750941 1_655
P5 Sc1 2.750947 1_555
P5 Sc2 3.185559 1_556
P6 Sc8 2.711170 1_555
P6 Sc9 2.713415 1_555
P6 Sc9 2.713415 1_455
P6 Sc5 2.749110 1_555
P6 Sc5 2.749112 1_455
P6 Sc2 2.750967 1_555
P6 Sc2 2.750969 1_455
P6 Sc1 3.185825 1_555
P7 Sc9 2.711679 1_555
P7 Sc8 2.713727 1_655
P7 Sc8 2.713728 1_555
P7 Sc4 2.749583 1_655
P7 Sc4 2.749585 1_555
P7 Sc3 2.750953 1_655
P7 Sc3 2.750954 1_555
P7 Sc0 3.185936 1_555
