# generated using pymatgen
data_BaNd(CoO3)2
_symmetry_space_group_name_H-M   'P 1'
_cell_length_a   3.80849800
_cell_length_b   3.96418400
_cell_length_c   7.92810600
_cell_angle_alpha   90.00000000
_cell_angle_beta   90.00000000
_cell_angle_gamma   90.00000000
_symmetry_Int_Tables_number   1
_chemical_formula_structural   BaNd(CoO3)2
_chemical_formula_sum   'Ba1 Nd1 Co2 O6'
_cell_volume   119.69526878
_cell_formula_units_Z   1
loop_
 _symmetry_equiv_pos_site_id
 _symmetry_equiv_pos_as_xyz
  1  'x, y, z'
loop_
 _atom_site_type_symbol
 _atom_site_label
 _atom_site_symmetry_multiplicity
 _atom_site_fract_x
 _atom_site_fract_y
 _atom_site_fract_z
 _atom_site_occupancy
  Ba  Ba0  1  0.00000000  0.00000000  0.50000000  1
  Nd  Nd0  1  0.00000000  0.00000000  0.00000000  1
  Co  Co0  1  0.50000000  0.50000000  0.75251800  1
  Co  Co1  1  0.50000000  0.50000000  0.24748200  1
  O  O0  1  0.50000000  0.50000000  0.00000000  1
  O  O1  1  0.50000000  0.50000000  0.50000000  1
  O  O2  1  0.00000000  0.50000000  0.77006200  1
  O  O3  1  0.50000000  0.00000000  0.77870300  1
  O  O4  1  0.00000000  0.50000000  0.22993800  1
  O  O5  1  0.50000000  0.00000000  0.22129700  1
loop_
_geom_bond_atom_site_label_1
_geom_bond_atom_site_label_2
_geom_bond_distance
_geom_bond_site_symmetry_2
Ba0 O1 2.748609 1_545
Ba0 O1 2.748609 1_455
Ba0 O1 2.748609 1_555
Ba0 O1 2.748609 1_445
Ba0 O3 2.916923 1_555
Ba0 O5 2.916923 1_455
Ba0 O5 2.916923 1_555
Ba0 O3 2.916923 1_455
Ba0 O4 2.917690 1_545
Ba0 O2 2.917690 1_555
Ba0 O2 2.917690 1_545
Ba0 O4 2.917690 1_555
Nd0 O5 2.589269 1_555
Nd0 O3 2.589269 1_554
Nd0 O3 2.589269 1_454
Nd0 O5 2.589269 1_455
Nd0 O2 2.692939 1_544
Nd0 O4 2.692939 1_555
Nd0 O2 2.692939 1_554
Nd0 O4 2.692939 1_545
Nd0 O0 2.748609 1_555
Nd0 O0 2.748609 1_445
Nd0 O0 2.748609 1_545
Nd0 O0 2.748609 1_455
Co0 O2 1.909322 1_555
Co0 O2 1.909322 1_655
Co0 O0 1.962064 1_556
Co0 O3 1.992934 1_555
Co0 O3 1.992934 1_565
Co0 O1 2.001989 1_555
Co1 O4 1.909322 1_555
Co1 O4 1.909322 1_655
Co1 O0 1.962064 1_555
Co1 O5 1.992934 1_555
Co1 O5 1.992934 1_565
Co1 O1 2.001989 1_555
