# generated using pymatgen
data_NaMgCoO2
_symmetry_space_group_name_H-M   'P 1'
_cell_length_a   5.97833227
_cell_length_b   6.92486263
_cell_length_c   6.92486039
_cell_angle_alpha   42.82171256
_cell_angle_beta   31.80516617
_cell_angle_gamma   31.80515174
_symmetry_Int_Tables_number   1
_chemical_formula_structural   NaMgCoO2
_chemical_formula_sum   'Na1 Mg1 Co1 O2'
_cell_volume   79.56483174
_cell_formula_units_Z   1
loop_
 _symmetry_equiv_pos_site_id
 _symmetry_equiv_pos_as_xyz
  1  'x, y, z'
loop_
 _atom_site_type_symbol
 _atom_site_label
 _atom_site_symmetry_multiplicity
 _atom_site_fract_x
 _atom_site_fract_y
 _atom_site_fract_z
 _atom_site_occupancy
  Na  Na0  1  -0.00000478  0.00000298  0.00000298  1
  Mg  Mg0  1  0.49999966  0.00000008  0.00000008  1
  Co  Co0  1  0.50000305  0.49999932  0.49999932  1
  O  O0  1  0.15097538  0.28544546  0.28544547  1
  O  O1  1  0.84902769  0.71455316  0.71455316  1
loop_
_geom_bond_atom_site_label_1
_geom_bond_atom_site_label_2
_geom_bond_distance
_geom_bond_site_symmetry_2
Na0 O0 2.281025 1_455
Na0 O1 2.281043 1_544
Mg0 O0 1.969583 1_555
Mg0 O1 1.969587 1_544
Co0 O0 1.772843 1_655
Co0 O1 1.772857 1_455
