# generated using pymatgen
data_Na6ZnSi2Ge3(PO6)4
_symmetry_space_group_name_H-M   'P 1'
_cell_length_a   8.73610388
_cell_length_b   8.74768639
_cell_length_c   21.60582502
_cell_angle_alpha   90.30157164
_cell_angle_beta   90.00078611
_cell_angle_gamma   120.08281603
_symmetry_Int_Tables_number   1
_chemical_formula_structural   Na6ZnSi2Ge3(PO6)4
_chemical_formula_sum   'Na18 Zn3 Si6 Ge9 P12 O72'
_cell_volume   1428.70115939
_cell_formula_units_Z   3
loop_
 _symmetry_equiv_pos_site_id
 _symmetry_equiv_pos_as_xyz
  1  'x, y, z'
loop_
 _atom_site_type_symbol
 _atom_site_label
 _atom_site_symmetry_multiplicity
 _atom_site_fract_x
 _atom_site_fract_y
 _atom_site_fract_z
 _atom_site_occupancy
  Na  Na0  1  0.00852977  0.00152699  0.50038018  1
  Na  Na1  1  0.00053205  0.00073980  0.99904639  1
  Na  Na2  1  0.65079249  0.30175130  0.83088997  1
  Na  Na3  1  0.65107125  0.33546082  0.32500823  1
  Na  Na4  1  0.32941992  0.66767137  0.16232556  1
  Na  Na5  1  0.32429599  0.66633718  0.66535465  1
  Na  Na6  1  0.64480761  0.01409528  0.24412384  1
  Na  Na7  1  0.98756787  0.62765158  0.24205027  1
  Na  Na8  1  0.62704113  0.61245024  0.74564771  1
  Na  Na9  1  0.98993749  0.37130178  0.74685894  1
  Na  Na10  1  0.66564541  0.97459317  0.58750483  1
  Na  Na11  1  0.66322828  0.68748427  0.08024054  1
  Na  Na12  1  0.02401530  0.33805203  0.08490479  1
  Na  Na13  1  0.96762339  0.67010647  0.91787771  1
  Na  Na14  1  0.33428213  0.30182683  0.91784501  1
  Na  Na15  1  0.96277004  0.28379754  0.41325244  1
  Na  Na16  1  0.32683936  0.03757595  0.41215015  1
  Na  Na17  1  0.71844832  0.68255315  0.41657778  1
  Zn  Zn0  1  0.99681685  0.99841639  0.35152611  1
  Zn  Zn1  1  0.65639630  0.32833913  0.68208109  1
  Zn  Zn2  1  0.66871357  0.33601741  0.17714543  1
  Si  Si0  1  0.66621538  0.62466394  0.58598352  1
  Si  Si1  1  0.96840084  0.63246689  0.08343239  1
  Si  Si2  1  0.61828977  0.66965458  0.91552387  1
  Si  Si3  1  0.04259466  0.37876141  0.91507817  1
  Si  Si4  1  0.34116142  0.95898377  0.91533042  1
  Si  Si5  1  0.61685615  0.95919359  0.41913771  1
  Ge  Ge0  1  0.99762474  0.00251648  0.85761810  1
  Ge  Ge1  1  0.00196975  0.99187083  0.64584536  1
  Ge  Ge2  1  0.00659807  0.99959046  0.14796903  1
  Ge  Ge3  1  0.66963832  0.33752341  0.97777760  1
  Ge  Ge4  1  0.66566137  0.33129932  0.48512168  1
  Ge  Ge5  1  0.32873514  0.67095531  0.01400509  1
  Ge  Ge6  1  0.33815967  0.66482045  0.52229792  1
  Ge  Ge7  1  0.33748854  0.67083741  0.31298521  1
  Ge  Ge8  1  0.33463421  0.67580847  0.81627847  1
  P  P0  1  0.29016517  0.99644671  0.25349998  1
  P  P1  1  0.70039598  0.70692599  0.25176590  1
  P  P2  1  0.01324435  0.29794724  0.25245769  1
  P  P3  1  0.27777575  0.28148069  0.75178295  1
  P  P4  1  0.01499498  0.72341552  0.75227636  1
  P  P5  1  0.71069504  0.99117931  0.75076562  1
  P  P6  1  0.96731739  0.33753114  0.58503538  1
  P  P7  1  0.36854829  0.03721025  0.58244338  1
  P  P8  1  0.66268427  0.03827352  0.08394016  1
  P  P9  1  0.37068356  0.33149015  0.08213940  1
  P  P10  1  0.34342546  0.38976600  0.41797956  1
  P  P11  1  0.04753635  0.65562924  0.41846925  1
  O  O0  1  0.21283238  0.01166430  0.31467260  1
  O  O1  1  0.80255030  0.78246887  0.31212113  1
  O  O2  1  0.98984903  0.19474267  0.31122510  1
  O  O3  1  0.19056192  0.17957946  0.81212039  1
  O  O4  1  0.98825140  0.81102643  0.81080808  1
  O  O5  1  0.83184870  0.01851878  0.80698782  1
  O  O6  1  0.79265560  0.96152645  0.68990793  1
  O  O7  1  0.15495968  0.19056738  0.69452848  1
  O  O8  1  0.03636971  0.83259962  0.69305855  1
  O  O9  1  0.79188539  0.83279273  0.19431762  1
  O  O10  1  0.03224714  0.20540576  0.19206239  1
  O  O11  1  0.16115165  0.96228822  0.19759529  1
  O  O12  1  0.89375280  0.36604697  0.64446501  1
  O  O13  1  0.49527710  0.10838387  0.63634089  1
  O  O14  1  0.63290547  0.52037217  0.64869843  1
  O  O15  1  0.90229100  0.51502976  0.14472867  1
  O  O16  1  0.63514826  0.10372828  0.14574037  1
  O  O17  1  0.48601510  0.36965701  0.13844044  1
  O  O18  1  0.44908032  0.29903427  0.02200226  1
  O  O19  1  0.82724339  0.54021218  0.02485618  1
  O  O20  1  0.70172984  0.17071025  0.03049628  1
  O  O21  1  0.44938051  0.15091884  0.52193080  1
  O  O22  1  0.69915602  0.53133347  0.52383964  1
  O  O23  1  0.83633557  0.29293803  0.52752922  1
  O  O24  1  0.53271657  0.70179601  0.97739565  1
  O  O25  1  0.17354341  0.46025216  0.97479536  1
  O  O26  1  0.28177371  0.82047970  0.97207033  1
  O  O27  1  0.52448436  0.83413532  0.47854262  1
  O  O28  1  0.30624988  0.47083291  0.47521426  1
  O  O29  1  0.16842443  0.68202995  0.47321946  1
  O  O30  1  0.12291099  0.62046557  0.35699746  1
  O  O31  1  0.49075816  0.87588789  0.35644992  1
  O  O32  1  0.37869202  0.50942286  0.35999204  1
  O  O33  1  0.12385691  0.50801904  0.85437967  1
  O  O34  1  0.38517399  0.87821991  0.85414263  1
  O  O35  1  0.48805857  0.61858896  0.85485029  1
  O  O36  1  0.02584123  0.81822625  0.41687946  1
  O  O37  1  0.81244288  0.98364538  0.41739136  1
  O  O38  1  0.18538191  0.20317265  0.41433662  1
  O  O39  1  0.02484184  0.18342865  0.91022584  1
  O  O40  1  0.16508513  0.98267839  0.90997314  1
  O  O41  1  0.81979328  0.83813975  0.91002208  1
  O  O42  1  0.98350581  0.16719179  0.58693861  1
  O  O43  1  0.18792255  0.02938588  0.58953087  1
  O  O44  1  0.84436881  0.82869570  0.58746497  1
  O  O45  1  0.97574839  0.82573994  0.09083234  1
  O  O46  1  0.83730329  0.02290430  0.08725542  1
  O  O47  1  0.17863770  0.16665651  0.08873957  1
  O  O48  1  0.69333214  0.15493469  0.74744019  1
  O  O49  1  0.46126314  0.30378422  0.74996908  1
  O  O50  1  0.85241066  0.53787169  0.75143992  1
  O  O51  1  0.67691162  0.52448880  0.24333439  1
  O  O52  1  0.85086446  0.32157827  0.24807202  1
  O  O53  1  0.47644787  0.14892105  0.24572748  1
  O  O54  1  0.63906005  0.49231604  0.92192168  1
  O  O55  1  0.85103142  0.36566620  0.92416211  1
  O  O56  1  0.51114068  0.15591109  0.92548729  1
  O  O57  1  0.63132929  0.15692685  0.42477740  1
  O  O58  1  0.51749037  0.38007670  0.42203156  1
  O  O59  1  0.86159976  0.48440177  0.42298549  1
  O  O60  1  0.34864895  0.49795705  0.07602419  1
  O  O61  1  0.16200510  0.64810821  0.07301196  1
  O  O62  1  0.50455324  0.84899265  0.07449861  1
  O  O63  1  0.33595064  0.84619721  0.57377340  1
  O  O64  1  0.49609309  0.65920607  0.57784572  1
  O  O65  1  0.14971968  0.50322546  0.57411534  1
  O  O66  1  0.29355356  0.81452295  0.25263956  1
  O  O67  1  0.51908029  0.70676410  0.25380563  1
  O  O68  1  0.18641677  0.48525374  0.25384233  1
  O  O69  1  0.28866529  0.46771534  0.75252430  1
  O  O70  1  0.18699514  0.70915260  0.75390035  1
  O  O71  1  0.53023957  0.81322922  0.75415864  1
loop_
_geom_bond_atom_site_label_1
_geom_bond_atom_site_label_2
_geom_bond_distance
_geom_bond_site_symmetry_2
Na0 O44 2.395630 1_445
Na0 O43 2.416139 1_555
Na0 O37 2.429463 1_445
Na0 O42 2.436089 1_455
Na0 O36 2.461989 1_545
Na0 O38 2.501404 1_555
Na1 O41 2.436290 1_445
Na1 O39 2.444138 1_555
Na1 O46 2.444701 1_456
Na1 O47 2.447308 1_556
Na1 O40 2.453527 1_545
Na1 O45 2.454136 1_446
Na2 O48 2.343606 1_555
Na2 O56 2.400107 1_555
Na2 O49 2.414199 1_555
Na2 O55 2.537980 1_555
Na2 O50 2.589511 1_555
Na2 O54 2.606633 1_555
Na3 O53 2.323580 1_555
Na3 O51 2.357042 1_555
Na3 O52 2.456585 1_555
Na3 O58 2.521220 1_555
Na3 O57 2.623137 1_555
Na3 O59 2.670195 1_555
Na4 O61 2.374362 1_555
Na4 O60 2.435148 1_555
Na4 O66 2.435807 1_555
Na4 O68 2.459989 1_555
Na4 O62 2.460975 1_555
Na4 O67 2.488688 1_555
Na5 O70 2.383667 1_555
Na5 O64 2.433897 1_555
Na5 O65 2.456961 1_555
Na5 O69 2.480948 1_555
Na5 O71 2.495142 1_555
Na5 O63 2.504639 1_555
Na6 O16 2.285648 1_555
Na6 O53 2.300890 1_555
Na6 O67 2.350214 1_545
Na6 O52 2.371944 1_555
Na6 O66 2.670350 1_545
Na6 O9 2.710947 1_545
Na6 O31 2.750001 1_545
Na7 O15 2.278016 1_555
Na7 O52 2.325931 1_555
Na7 O66 2.342120 1_655
Na7 O51 2.392811 1_555
Na7 O68 2.609013 1_655
Na7 O11 2.714894 1_655
Na7 O30 2.765130 1_655
Na8 O14 2.250035 1_555
Na8 O71 2.306372 1_555
Na8 O49 2.340767 1_555
Na8 O50 2.367737 1_555
Na8 O69 2.571664 1_555
Na8 O35 2.666086 1_555
Na9 O69 2.308527 1_655
Na9 O50 2.308662 1_555
Na9 O48 2.319555 1_555
Na9 O12 2.358524 1_555
Na9 O70 2.572152 1_655
Na9 O33 2.600716 1_655
Na9 O7 2.849998 1_655
Na9 O5 2.981320 1_555
Na10 O64 2.397143 1_555
Na10 O42 2.420684 1_565
Na10 O44 2.462585 1_555
Na10 O6 2.503824 1_555
Na10 O63 2.529570 1_555
Na10 O13 2.536056 1_565
Na10 O27 2.650142 1_555
Na10 O23 2.744597 1_565
Na11 O45 2.378222 1_555
Na11 O60 2.395892 1_555
Na11 O62 2.428625 1_555
Na11 O24 2.529645 1_554
Na11 O46 2.543014 1_565
Na11 O19 2.641787 1_555
Na11 O17 2.725731 1_555
Na11 O9 2.736530 1_555
Na12 O61 2.367532 1_555
Na12 O46 2.399310 1_455
Na12 O60 2.462196 1_555
Na12 O47 2.472065 1_555
Na12 O10 2.612239 1_555
Na12 O15 2.612972 1_455
Na12 O25 2.671280 1_554
Na12 O20 2.702200 1_455
Na13 O55 2.330816 1_555
Na13 O40 2.399501 1_655
Na13 O41 2.400620 1_555
Na13 O54 2.488284 1_555
Na13 O4 2.590540 1_555
Na13 O19 2.601582 1_556
Na13 O26 2.645344 1_655
Na13 O33 2.770402 1_655
Na14 O54 2.329019 1_555
Na14 O39 2.366218 1_555
Na14 O40 2.421984 1_545
Na14 O56 2.454183 1_555
Na14 O18 2.468962 1_556
Na14 O3 2.562431 1_555
Na14 O25 2.709154 1_555
Na14 O35 2.764640 1_555
Na15 O37 2.274274 1_545
Na15 O59 2.335757 1_555
Na15 O38 2.378081 1_655
Na15 O2 2.385129 1_555
Na15 O57 2.541462 1_555
Na15 O23 2.721971 1_555
Na15 O30 2.831107 1_655
Na15 O28 2.920315 1_655
Na16 O0 2.290749 1_555
Na16 O38 2.328458 1_555
Na16 O57 2.335203 1_555
Na16 O36 2.355979 1_545
Na16 O21 2.581880 1_555
Na16 O58 2.605152 1_555
Na16 O31 2.740820 1_545
Na17 O36 2.329137 1_655
Na17 O37 2.333051 1_555
Na17 O58 2.333144 1_555
Na17 O1 2.402968 1_555
Na17 O59 2.600646 1_555
Na17 O22 2.637756 1_555
Na17 O32 2.841164 1_555
Na17 O27 2.942078 1_555
Ge0 O39 1.859248 1_655
Ge0 O5 1.875747 1_555
Ge0 O41 1.881700 1_545
Ge0 O3 1.898740 1_655
Ge0 O4 1.918377 1_545
Ge0 O40 1.925209 1_645
Ge1 O8 1.872629 1_555
Ge1 O44 1.880143 1_455
Ge1 O7 1.888287 1_565
Ge1 O43 1.922739 1_565
Ge1 O6 1.958731 1_455
Ge1 O42 2.065549 1_465
Ge2 O45 1.865135 1_455
Ge2 O11 1.877360 1_555
Ge2 O10 1.943391 1_565
Ge2 O47 1.962163 1_565
Ge2 O9 1.980376 1_455
Ge2 O46 2.062727 1_465
Ge3 O56 1.869053 1_555
Ge3 O55 1.877670 1_555
Ge3 O19 1.899401 1_556
Ge3 O54 1.934194 1_555
Ge3 O20 1.983167 1_556
Ge3 O18 2.022884 1_556
Ge4 O22 1.821707 1_555
Ge4 O57 1.907077 1_555
Ge4 O23 1.918355 1_555
Ge4 O21 1.927881 1_555
Ge4 O59 2.060777 1_555
Ge4 O58 2.067726 1_555
Ge5 O26 1.802909 1_554
Ge5 O24 1.842359 1_554
Ge5 O25 1.852409 1_554
Ge5 O61 1.870237 1_555
Ge5 O62 2.018268 1_555
Ge5 O60 2.097915 1_555
Ge6 O27 1.826160 1_555
Ge6 O64 1.847952 1_555
Ge6 O28 1.870767 1_555
Ge6 O29 1.889779 1_555
Ge6 O65 1.909321 1_555
Ge6 O63 1.940825 1_555
Ge7 O31 1.861895 1_555
Ge7 O32 1.918184 1_555
Ge7 O67 1.937730 1_555
Ge7 O30 1.946489 1_555
Ge7 O68 1.959687 1_555
Ge7 O66 1.981911 1_555
Ge8 O34 1.788954 1_555
Ge8 O35 1.848910 1_555
Ge8 O33 1.877753 1_555
Ge8 O70 1.986520 1_555
Ge8 O71 2.030823 1_555
Ge8 O69 2.147795 1_555
O0 P0 1.519645 1_545
O0 Zn0 1.997621 1_445
O1 P1 1.527509 1_555
O1 Zn0 1.985606 1_555
O2 P2 1.515289 1_655
O2 Zn0 1.957523 1_545
O3 P3 1.551120 1_555
O4 P4 1.552589 1_655
O5 P5 1.547946 1_545
O6 P5 1.578450 1_555
O7 P3 1.564638 1_555
O8 P4 1.555046 1_555
O9 P1 1.588687 1_555
O10 P2 1.584058 1_555
O11 P0 1.573871 1_555
O12 P6 1.510408 1_555
O12 Zn1 2.094326 1_555
O13 P7 1.506889 1_555
O13 Zn1 1.981138 1_555
O14 Si0 1.581112 1_555
O14 Zn1 1.934569 1_555
O15 Si1 1.600742 1_555
O15 Zn2 1.978583 1_555
O16 P8 1.516125 1_555
O16 Zn2 2.015820 1_555
O17 P9 1.504920 1_555
O17 Zn2 1.951093 1_555
O18 P9 1.558512 1_555
O19 Si1 1.662894 1_555
O20 P8 1.552343 1_555
O21 P7 1.583342 1_555
O22 Si0 1.666172 1_555
O23 P6 1.597694 1_555
O24 Si2 1.622258 1_555
O25 Si3 1.629208 1_555
O26 Si4 1.620330 1_555
O27 Si5 1.620223 1_555
O28 P10 1.535975 1_555
O29 P11 1.523336 1_555
O30 P11 1.578282 1_555
O31 Si5 1.662476 1_555
O32 P10 1.565486 1_555
O33 Si3 1.647202 1_555
O34 Si4 1.630093 1_555
O35 Si2 1.642164 1_555
O36 P11 1.526742 1_555
O36 Zn0 2.228614 1_455
O37 Si5 1.612578 1_555
O37 Zn0 2.104655 1_555
O38 P10 1.521883 1_555
O38 Zn0 2.186296 1_445
O39 Si3 1.639262 1_555
O40 Si4 1.656007 1_555
O41 Si2 1.638926 1_555
O42 P6 1.566499 1_555
O43 P7 1.552402 1_555
O44 Si0 1.680318 1_555
O45 Si1 1.666278 1_555
O46 P8 1.598759 1_555
O47 P9 1.578356 1_555
O48 P5 1.516273 1_545
O48 Zn1 2.216399 1_555
O49 P3 1.515141 1_555
O49 Zn1 2.177128 1_555
O50 P4 1.529932 1_655
O50 Zn1 2.315612 1_555
O51 P1 1.513567 1_555
O51 Zn2 2.150628 1_555
O52 P2 1.535651 1_655
O52 Zn2 2.258308 1_555
O53 P0 1.510606 1_545
O53 Zn2 2.228281 1_555
O54 Si2 1.656205 1_555
O55 Si3 1.631061 1_655
O56 Si4 1.628601 1_545
O57 Si5 1.673696 1_545
O58 P10 1.567325 1_555
O59 P11 1.566532 1_655
O60 P9 1.567824 1_555
O61 Si1 1.642681 1_455
O62 P8 1.547559 1_565
O63 P7 1.558153 1_565
O64 Si0 1.667866 1_555
O65 P6 1.543991 1_455
O66 P0 1.606465 1_555
O67 P1 1.583897 1_555
O68 P2 1.577583 1_555
O69 P3 1.583572 1_555
O70 P4 1.569277 1_555
O71 P5 1.566798 1_555
