# generated using pymatgen
data_AgClO4
_symmetry_space_group_name_H-M   'P 1'
_cell_length_a   4.83708932
_cell_length_b   4.83708848
_cell_length_c   4.83708905
_cell_angle_alpha   92.04375941
_cell_angle_beta   118.82713939
_cell_angle_gamma   118.82712382
_symmetry_Int_Tables_number   1
_chemical_formula_structural   AgClO4
_chemical_formula_sum   'Ag1 Cl1 O4'
_cell_volume   81.38981886
_cell_formula_units_Z   1
loop_
 _symmetry_equiv_pos_site_id
 _symmetry_equiv_pos_as_xyz
  1  'x, y, z'
loop_
 _atom_site_type_symbol
 _atom_site_label
 _atom_site_symmetry_multiplicity
 _atom_site_fract_x
 _atom_site_fract_y
 _atom_site_fract_z
 _atom_site_occupancy
  Ag  Ag0  1  -0.00000000  0.50000000  0.50000000  1
  Cl  Cl0  1  -0.00000000  -0.00000000  -0.00000000  1
  O  O0  1  0.66265808  0.95808579  0.95808579  1
  O  O1  1  0.00000000  0.04191421  0.70457130  1
  O  O2  1  0.33734192  0.29542870  0.29542870  1
  O  O3  1  -0.00000000  0.70457130  0.04191421  1
loop_
_geom_bond_atom_site_label_1
_geom_bond_atom_site_label_2
_geom_bond_distance
_geom_bond_site_symmetry_2
Ag0 O1 2.458726 1_555
Ag0 O3 2.458726 1_555
Ag0 O0 2.458729 1_555
Ag0 O2 2.458731 1_455
Ag0 O2 2.768625 1_555
Ag0 O1 2.768629 1_565
Ag0 O3 2.768629 1_556
Ag0 O0 2.768631 1_444
Cl0 O0 1.450462 1_444
Cl0 O2 1.450466 1_555
Cl0 O3 1.450466 1_545
Cl0 O1 1.450466 1_554
