# generated using pymatgen
data_MgCo6O7F5
_symmetry_space_group_name_H-M   'P 1'
_cell_length_a   4.99124849
_cell_length_b   4.94601792
_cell_length_c   8.81762590
_cell_angle_alpha   89.82872874
_cell_angle_beta   90.23934461
_cell_angle_gamma   101.36166316
_symmetry_Int_Tables_number   1
_chemical_formula_structural   MgCo6O7F5
_chemical_formula_sum   'Mg1 Co6 O7 F5'
_cell_volume   213.41081339
_cell_formula_units_Z   1
loop_
 _symmetry_equiv_pos_site_id
 _symmetry_equiv_pos_as_xyz
  1  'x, y, z'
loop_
 _atom_site_type_symbol
 _atom_site_label
 _atom_site_symmetry_multiplicity
 _atom_site_fract_x
 _atom_site_fract_y
 _atom_site_fract_z
 _atom_site_occupancy
  Mg  Mg0  1  0.95898788  0.49918216  0.66789351  1
  Co  Co0  1  0.01394930  0.97410403  0.99753794  1
  Co  Co1  1  0.01219119  0.97235174  0.33504829  1
  Co  Co2  1  0.04983102  0.01356539  0.67061779  1
  Co  Co3  1  0.52530072  0.46330221  0.16664490  1
  Co  Co4  1  0.43427231  0.54263171  0.85291944  1
  Co  Co5  1  0.42196973  0.55586226  0.47741946  1
  O  O0  1  0.16264453  0.79678306  0.82170591  1
  O  O1  1  0.15784266  0.80149608  0.51736511  1
  O  O2  1  0.30325485  0.27798268  0.32030629  1
  O  O3  1  0.31015206  0.28072838  0.00318874  1
  O  O4  1  0.31344535  0.33568779  0.67351826  1
  O  O5  1  0.68877252  0.68788282  0.00024484  1
  O  O6  1  0.70242284  0.68845502  0.32625425  1
  F  F0  1  0.17957991  0.79457912  0.16321008  1
  F  F1  1  0.69239783  0.73795001  0.67262195  1
  F  F2  1  0.82537130  0.16540359  0.16003666  1
  F  F3  1  0.85720133  0.19895830  0.82062220  1
  F  F4  1  0.86263567  0.19920264  0.51713139  1
loop_
_geom_bond_atom_site_label_1
_geom_bond_atom_site_label_2
_geom_bond_distance
_geom_bond_site_symmetry_2
Mg0 O4 2.085447 1_655
Mg0 O1 2.096911 1_655
Mg0 O0 2.109555 1_655
Co0 O3 1.898586 1_566
Co0 O5 1.932288 1_456
Co0 F0 1.969081 1_556
Co0 O0 1.999505 1_555
Co0 F2 2.050488 1_466
Co0 F3 2.145861 1_465
Co1 O6 1.874155 1_455
Co1 O2 1.883529 1_565
Co1 O1 2.012752 1_555
Co1 F0 2.018653 1_555
Co1 F2 2.119576 1_465
Co1 F4 2.178223 1_465
Co2 O4 1.855872 1_555
Co2 O1 1.858566 1_545
Co2 O0 1.861349 1_545
Co2 F4 1.966642 1_455
Co2 F3 1.969758 1_455
Co2 F1 2.020722 1_445
Co3 O2 1.873272 1_555
Co3 O6 1.900914 1_555
Co3 O3 1.912779 1_555
Co3 O5 1.922387 1_555
Co3 F2 2.299617 1_555
Co3 F0 2.603168 1_555
Co4 O5 1.857284 1_556
Co4 O3 1.870263 1_556
Co4 O4 1.916308 1_555
Co4 O0 2.039675 1_555
Co4 F1 2.153634 1_555
Co5 O6 1.953174 1_555
Co5 O2 1.960347 1_555
Co5 O1 1.993874 1_555
Co5 O4 2.057507 1_555
Co5 F1 2.259755 1_555
F1 Mg0 1.945974 1_555
F3 Mg0 1.993291 1_555
F4 Mg0 1.981207 1_555
