# generated using pymatgen
data_Na5Ta3AlSi5PO24
_symmetry_space_group_name_H-M   'P 1'
_cell_length_a   8.94084687
_cell_length_b   8.92061406
_cell_length_c   22.44145665
_cell_angle_alpha   89.94103928
_cell_angle_beta   89.89631542
_cell_angle_gamma   120.12969578
_symmetry_Int_Tables_number   1
_chemical_formula_structural   Na5Ta3AlSi5PO24
_chemical_formula_sum   'Na15 Ta9 Al3 Si15 P3 O72'
_cell_volume   1548.04726660
_cell_formula_units_Z   3
loop_
 _symmetry_equiv_pos_site_id
 _symmetry_equiv_pos_as_xyz
  1  'x, y, z'
loop_
 _atom_site_type_symbol
 _atom_site_label
 _atom_site_symmetry_multiplicity
 _atom_site_fract_x
 _atom_site_fract_y
 _atom_site_fract_z
 _atom_site_occupancy
  Na  Na0  1  0.99412295  0.63099173  0.24601724  1
  Na  Na1  1  0.63579791  0.62803916  0.74744531  1
  Na  Na2  1  0.99242285  0.36401620  0.74731155  1
  Na  Na3  1  0.37069471  0.00701911  0.74822708  1
  Na  Na4  1  0.30855464  0.97130843  0.08399422  1
  Na  Na5  1  0.66667035  0.69454931  0.08370729  1
  Na  Na6  1  0.96884508  0.29548432  0.41436755  1
  Na  Na7  1  0.32615613  0.03110610  0.41325429  1
  Na  Na8  1  0.70393120  0.67333687  0.41474707  1
  Na  Na9  1  0.99865301  0.99965931  0.50011566  1
  Na  Na10  1  0.99981867  0.00631252  0.99719443  1
  Na  Na11  1  0.66646140  0.33366133  0.83354399  1
  Na  Na12  1  0.65645546  0.32421269  0.32584860  1
  Na  Na13  1  0.33398177  0.66170499  0.16573717  1
  Na  Na14  1  0.33274422  0.66489707  0.66474953  1
  Ta  Ta0  1  0.00028729  0.99966372  0.85507156  1
  Ta  Ta1  1  0.99657061  0.99970391  0.64440657  1
  Ta  Ta2  1  0.00335085  0.00392632  0.14627180  1
  Ta  Ta3  1  0.66688819  0.33217630  0.97824849  1
  Ta  Ta4  1  0.67038719  0.33565687  0.48184569  1
  Ta  Ta5  1  0.32874153  0.66241113  0.02084440  1
  Ta  Ta6  1  0.33349027  0.66264648  0.52253627  1
  Ta  Ta7  1  0.33737848  0.67083991  0.31110354  1
  Ta  Ta8  1  0.33332008  0.66616448  0.81431639  1
  Al  Al0  1  0.00634806  0.00303949  0.35171770  1
  Al  Al1  1  0.67110817  0.33947280  0.68666435  1
  Al  Al2  1  0.65361253  0.32237382  0.18338082  1
  Si  Si0  1  0.29828438  0.01503967  0.25205849  1
  Si  Si1  1  0.29485802  0.28876498  0.74831813  1
  Si  Si2  1  0.99583143  0.70646100  0.74868279  1
  Si  Si3  1  0.71036139  0.00580714  0.74902982  1
  Si  Si4  1  0.95220432  0.33390256  0.58725618  1
  Si  Si5  1  0.66670777  0.61890289  0.58719565  1
  Si  Si6  1  0.94830144  0.60998705  0.08787270  1
  Si  Si7  1  0.66957444  0.05215000  0.08586139  1
  Si  Si8  1  0.38464971  0.33582949  0.08600558  1
  Si  Si9  1  0.62411652  0.66621973  0.91734499  1
  Si  Si10  1  0.04045683  0.37421546  0.91668165  1
  Si  Si11  1  0.33350793  0.95853983  0.91703336  1
  Si  Si12  1  0.62867059  0.95635765  0.41576693  1
  Si  Si13  1  0.32831039  0.37191681  0.41535836  1
  Si  Si14  1  0.04532700  0.67230360  0.41573326  1
  P  P0  1  0.71400439  0.71052862  0.25195607  1
  P  P1  1  0.99425487  0.28364564  0.25271161  1
  P  P2  1  0.38124135  0.04723058  0.58596328  1
  O  O0  1  0.19653332  0.02636662  0.31041235  1
  O  O1  1  0.82732367  0.80051214  0.30703852  1
  O  O2  1  0.97343049  0.17443301  0.30843701  1
  O  O3  1  0.19956799  0.16345672  0.80607521  1
  O  O4  1  0.96441276  0.80116378  0.80611034  1
  O  O5  1  0.83706377  0.03743642  0.80600424  1
  O  O6  1  0.80114833  0.96226009  0.69260937  1
  O  O7  1  0.16173356  0.19886640  0.69221527  1
  O  O8  1  0.03897560  0.83968225  0.69233280  1
  O  O9  1  0.79605626  0.82545843  0.19490720  1
  O  O10  1  0.02471842  0.19638837  0.19680873  1
  O  O11  1  0.16603851  0.96822576  0.19332367  1
  O  O12  1  0.86099499  0.36066220  0.64435518  1
  O  O13  1  0.49205902  0.13059413  0.64072332  1
  O  O14  1  0.63576786  0.49958303  0.64445266  1
  O  O15  1  0.86109540  0.49900927  0.14719671  1
  O  O16  1  0.62731706  0.13543474  0.14174263  1
  O  O17  1  0.50830126  0.37444671  0.14216418  1
  O  O18  1  0.46442491  0.29399981  0.02657583  1
  O  O19  1  0.82740848  0.53157887  0.02830122  1
  O  O20  1  0.69970284  0.16723260  0.02554402  1
  O  O21  1  0.46580943  0.15812978  0.52769775  1
  O  O22  1  0.69248172  0.52975153  0.52525725  1
  O  O23  1  0.83638121  0.30442155  0.52528330  1
  O  O24  1  0.53184361  0.69562389  0.97588309  1
  O  O25  1  0.16652327  0.47134623  0.97366358  1
  O  O26  1  0.30486899  0.83751020  0.97581616  1
  O  O27  1  0.53297526  0.82956286  0.47286975  1
  O  O28  1  0.29775802  0.46819579  0.47293711  1
  O  O29  1  0.17240851  0.70384621  0.47240182  1
  O  O30  1  0.13129321  0.62789994  0.35790349  1
  O  O31  1  0.49473169  0.86449279  0.35924260  1
  O  O32  1  0.37115797  0.50621288  0.35938444  1
  O  O33  1  0.13281148  0.49501162  0.85721272  1
  O  O34  1  0.36183639  0.86580583  0.85773962  1
  O  O35  1  0.50353016  0.63810774  0.85799730  1
  O  O36  1  0.01921031  0.83809285  0.40771144  1
  O  O37  1  0.81767652  0.97752049  0.40612229  1
  O  O38  1  0.15738909  0.18299431  0.40843305  1
  O  O39  1  0.02579133  0.18682079  0.90973265  1
  O  O40  1  0.16086950  0.97354960  0.90965198  1
  O  O41  1  0.81238947  0.83897021  0.90961988  1
  O  O42  1  0.97753627  0.16373610  0.58956719  1
  O  O43  1  0.19923696  0.02817962  0.58921343  1
  O  O44  1  0.84072788  0.81202889  0.58950090  1
  O  O45  1  0.97328759  0.81046293  0.09298946  1
  O  O46  1  0.83386265  0.01688000  0.09240810  1
  O  O47  1  0.18940748  0.16131443  0.09259396  1
  O  O48  1  0.68663598  0.17264093  0.74096707  1
  O  O49  1  0.48392715  0.30798954  0.74137842  1
  O  O50  1  0.82621000  0.51600480  0.74286421  1
  O  O51  1  0.69934048  0.53284376  0.24511435  1
  O  O52  1  0.84160514  0.31439300  0.24526148  1
  O  O53  1  0.48874495  0.17969149  0.24230712  1
  O  O54  1  0.64067615  0.49450447  0.92342751  1
  O  O55  1  0.85400192  0.36039446  0.92310100  1
  O  O56  1  0.50566976  0.14701905  0.92268718  1
  O  O57  1  0.64021266  0.14548097  0.42330531  1
  O  O58  1  0.50190329  0.35471557  0.42407382  1
  O  O59  1  0.85354682  0.49485369  0.42340071  1
  O  O60  1  0.36223783  0.50651126  0.07714569  1
  O  O61  1  0.14828368  0.64974046  0.07836906  1
  O  O62  1  0.49843047  0.85450204  0.07698325  1
  O  O63  1  0.36077243  0.86499042  0.57616072  1
  O  O64  1  0.49743218  0.64397435  0.57609062  1
  O  O65  1  0.14475238  0.50665531  0.57608219  1
  O  O66  1  0.30286867  0.82651727  0.25718280  1
  O  O67  1  0.53037224  0.69299105  0.25713296  1
  O  O68  1  0.16358091  0.46964029  0.25685382  1
  O  O69  1  0.30970347  0.48019444  0.75572503  1
  O  O70  1  0.17192868  0.69148174  0.75578624  1
  O  O71  1  0.51986898  0.82819919  0.75560290  1
loop_
_geom_bond_atom_site_label_1
_geom_bond_atom_site_label_2
_geom_bond_distance
_geom_bond_site_symmetry_2
Na0 O51 2.323145 1_555
Na0 O66 2.427934 1_655
Na0 O52 2.443367 1_555
Na0 O15 2.515552 1_555
Na0 O68 2.572221 1_655
Na0 O30 2.802569 1_655
Na0 O11 2.855692 1_655
Na0 O1 2.940593 1_555
Na1 O50 2.369687 1_555
Na1 O49 2.474491 1_555
Na1 O71 2.480727 1_555
Na1 O69 2.532126 1_555
Na1 O14 2.580771 1_555
Na1 O35 2.767336 1_555
Na1 O6 2.854808 1_555
Na1 O4 2.865943 1_555
Na2 O48 2.392836 1_555
Na2 O50 2.465708 1_555
Na2 O69 2.491543 1_655
Na2 O70 2.537895 1_655
Na2 O12 2.587420 1_555
Na2 O33 2.751092 1_655
Na2 O5 2.841572 1_555
Na2 O7 2.868209 1_655
Na3 O49 2.350905 1_555
Na3 O48 2.448839 1_555
Na3 O70 2.466999 1_545
Na3 O71 2.546967 1_545
Na3 O13 2.645221 1_555
Na3 O34 2.743320 1_545
Na3 O3 2.848476 1_555
Na3 O8 2.858436 1_545
Na4 O62 2.401610 1_555
Na4 O47 2.420248 1_565
Na4 O61 2.484514 1_555
Na4 O45 2.600822 1_455
Na4 O26 2.699267 1_554
Na4 O11 2.756351 1_555
Na4 O16 2.788165 1_565
Na4 O18 2.801317 1_565
Na5 O60 2.379580 1_555
Na5 O45 2.405137 1_555
Na5 O46 2.495527 1_565
Na5 O62 2.544895 1_555
Na5 O24 2.707481 1_554
Na5 O9 2.754933 1_555
Na5 O17 2.793975 1_555
Na5 O19 2.796363 1_555
Na6 O38 2.358843 1_655
Na6 O37 2.461637 1_545
Na6 O59 2.471312 1_555
Na6 O57 2.552312 1_555
Na6 O2 2.620760 1_555
Na6 O23 2.772944 1_555
Na6 O30 2.858367 1_655
Na6 O28 2.866882 1_655
Na7 O36 2.401975 1_545
Na7 O57 2.470421 1_555
Na7 O38 2.485395 1_555
Na7 O58 2.512083 1_555
Na7 O0 2.575291 1_555
Na7 O21 2.834835 1_555
Na7 O29 2.851456 1_545
Na7 O31 2.862858 1_545
Na8 O37 2.379629 1_555
Na8 O36 2.443303 1_655
Na8 O58 2.495683 1_555
Na8 O59 2.549639 1_555
Na8 O1 2.659873 1_555
Na8 O22 2.768115 1_555
Na8 O27 2.848661 1_555
Na8 O32 2.860528 1_555
Na9 O44 2.535595 1_555
Na9 O42 2.547510 1_565
Na9 O38 2.564086 1_665
Na9 O36 2.584944 1_655
Na9 O37 2.607479 1_555
Na9 O43 2.614360 1_665
Na10 O39 2.473000 1_655
Na10 O41 2.530936 1_545
Na10 O40 2.536105 1_645
Na10 O46 2.627832 1_556
Na10 O47 2.652340 1_656
Na10 O45 2.702693 1_546
Na11 O56 2.533897 1_555
Na11 O50 2.545063 1_555
Na11 O54 2.552836 1_555
Na11 O55 2.553318 1_555
Na11 O49 2.575243 1_555
Na11 O48 2.583977 1_555
Na12 O53 2.345161 1_555
Na12 O52 2.480669 1_555
Na12 O51 2.483449 1_555
Na12 O57 2.665650 1_555
Na12 O58 2.685179 1_555
Na12 O59 2.746440 1_555
Na13 O60 2.507598 1_555
Na13 O61 2.538998 1_555
Na13 O62 2.555504 1_555
Na13 O68 2.607450 1_555
Na13 O66 2.620132 1_555
Na13 O67 2.624906 1_555
Na14 O65 2.532411 1_555
Na14 O64 2.535282 1_555
Na14 O69 2.564420 1_555
Na14 O70 2.574899 1_555
Na14 O71 2.578752 1_555
Na14 O63 2.596747 1_555
Al0 O0 1.852736 1_555
Al0 O2 1.953810 1_455
Al0 O38 1.963342 1_555
Al0 O36 1.980885 1_545
Al0 O1 1.984390 1_445
Al0 O37 1.998624 1_445
Al1 O14 1.867767 1_555
Al1 O12 1.868480 1_555
Al1 O50 1.952348 1_555
Al1 O49 1.976692 1_555
Al1 O48 1.980785 1_555
Al1 O13 2.028045 1_555
Al2 O16 1.822018 1_555
Al2 O17 1.835377 1_555
Al2 O15 1.908121 1_555
Al2 O53 1.909855 1_555
Al2 O51 2.201891 1_555
Al2 O52 2.210666 1_555
O0 Si0 1.625113 1_555
O1 P0 1.545633 1_555
O2 P1 1.536965 1_555
O3 Si1 1.640835 1_555
O3 Ta0 1.973463 1_545
O4 Si2 1.640939 1_555
O4 Ta0 1.969968 1_655
O5 Si3 1.637925 1_555
O5 Ta0 1.988590 1_645
O6 Si3 1.651299 1_565
O6 Ta1 1.934191 1_555
O7 Si1 1.641405 1_555
O7 Ta1 1.965715 1_445
O8 Si2 1.641707 1_455
O8 Ta1 1.969747 1_455
O9 P0 1.570732 1_555
O9 Ta2 2.046407 1_665
O10 P1 1.570848 1_455
O10 Ta2 1.986432 1_555
O11 Si0 1.679548 1_565
O11 Ta2 1.949886 1_565
O12 Si4 1.598821 1_555
O13 P2 1.520356 1_555
O14 Si5 1.600260 1_555
O15 Si6 1.605935 1_555
O16 Si7 1.596678 1_555
O17 Si8 1.597753 1_555
O18 Si8 1.640573 1_555
O18 Ta3 1.985508 1_554
O19 Si6 1.641016 1_555
O19 Ta3 1.983082 1_554
O20 Si7 1.636136 1_555
O20 Ta3 1.951646 1_554
O21 P2 1.582067 1_555
O21 Ta4 1.998549 1_555
O22 Si5 1.674141 1_555
O22 Ta4 1.909663 1_555
O23 Si4 1.675803 1_555
O23 Ta4 1.910588 1_555
O24 Si9 1.639882 1_555
O24 Ta5 1.963670 1_556
O25 Si10 1.638131 1_555
O25 Ta5 1.912388 1_556
O26 Si11 1.640046 1_555
O26 Ta5 1.959263 1_556
O27 Si12 1.635565 1_555
O27 Ta6 1.990926 1_555
O28 Si13 1.648777 1_555
O28 Ta6 1.949059 1_555
O29 Si14 1.634764 1_555
O29 Ta6 2.002874 1_555
O30 Si14 1.653784 1_555
O30 Ta7 1.982035 1_555
O31 Si12 1.654427 1_555
O31 Ta7 1.923556 1_555
O32 Si13 1.641422 1_555
O32 Ta7 1.965977 1_555
O33 Si10 1.650410 1_555
O33 Ta8 1.927311 1_555
O34 Si11 1.652414 1_555
O34 Ta8 1.932597 1_555
O35 Si9 1.653347 1_555
O35 Ta8 1.930485 1_555
O36 Si14 1.618796 1_555
O37 Si12 1.617552 1_555
O38 Si13 1.617282 1_555
O39 Si10 1.617581 1_555
O39 Ta0 1.991777 1_545
O40 Si11 1.623646 1_555
O40 Ta0 1.989337 1_555
O41 Si9 1.622526 1_555
O41 Ta0 1.986705 1_655
O42 Si4 1.644176 1_555
O42 Ta1 1.982859 1_545
O43 P2 1.550527 1_555
O43 Ta1 2.100287 1_445
O44 Si5 1.643471 1_555
O44 Ta1 1.982710 1_555
O45 Si6 1.691386 1_555
O45 Ta2 2.005035 1_665
O46 Si7 1.656147 1_555
O46 Ta2 1.988210 1_655
O47 Si8 1.662238 1_555
O47 Ta2 1.958085 1_555
O48 Si3 1.615293 1_555
O49 Si1 1.618394 1_555
O50 Si2 1.618030 1_555
O51 P0 1.531378 1_555
O52 P1 1.530510 1_555
O53 Si0 1.609986 1_555
O54 Si9 1.616882 1_555
O54 Ta3 2.000860 1_555
O55 Si10 1.614872 1_655
O55 Ta3 1.990695 1_555
O56 Si11 1.617203 1_545
O56 Ta3 1.995287 1_555
O57 Si12 1.646642 1_545
O57 Ta4 2.055025 1_555
O58 Si13 1.646463 1_555
O58 Ta4 2.059785 1_555
O59 Si14 1.658000 1_655
O59 Ta4 2.018033 1_555
O60 Si8 1.644314 1_555
O60 Ta5 2.008999 1_555
O61 Si6 1.652312 1_455
O61 Ta5 2.022766 1_555
O62 Si7 1.668273 1_565
O62 Ta5 2.055895 1_555
O63 P2 1.557872 1_565
O63 Ta6 2.080710 1_555
O64 Si5 1.656435 1_555
O64 Ta6 1.967673 1_555
O65 Si4 1.653996 1_455
O65 Ta6 1.964623 1_555
O66 Si0 1.706446 1_565
O66 Ta7 1.978914 1_555
O67 P0 1.573206 1_555
O67 Ta7 2.032999 1_555
O68 P1 1.591415 1_455
O68 Ta7 2.080769 1_555
O69 Si1 1.653631 1_555
O69 Ta8 2.044378 1_555
O70 Si2 1.653560 1_455
O70 Ta8 2.047410 1_555
O71 Si3 1.649955 1_565
O71 Ta8 2.043319 1_555
