# generated using pymatgen
data_LuVO3
_symmetry_space_group_name_H-M   'P 1'
_cell_length_a   5.15987212
_cell_length_b   5.55083209
_cell_length_c   7.51450894
_cell_angle_alpha   89.76483976
_cell_angle_beta   89.52293324
_cell_angle_gamma   89.24997297
_symmetry_Int_Tables_number   1
_chemical_formula_structural   LuVO3
_chemical_formula_sum   'Lu4 V4 O12'
_cell_volume   215.19981862
_cell_formula_units_Z   4
loop_
 _symmetry_equiv_pos_site_id
 _symmetry_equiv_pos_as_xyz
  1  'x, y, z'
loop_
 _atom_site_type_symbol
 _atom_site_label
 _atom_site_symmetry_multiplicity
 _atom_site_fract_x
 _atom_site_fract_y
 _atom_site_fract_z
 _atom_site_occupancy
  Lu  Lu0  1  0.02551851  0.92723320  0.75249998  1
  Lu  Lu1  1  0.48197766  0.42813003  0.75074476  1
  Lu  Lu2  1  0.51801160  0.57186368  0.24925405  1
  Lu  Lu3  1  0.97447442  0.07277157  0.24749896  1
  V  V0  1  0.00000050  0.50000270  0.50000160  1
  V  V1  1  -0.00000089  0.50000291  -0.00000240  1
  V  V2  1  0.50000165  -0.00000152  0.50000010  1
  V  V3  1  0.49999968  -0.00000298  0.00000039  1
  O  O0  1  0.12295839  0.44908919  0.24989593  1
  O  O1  1  0.18862898  0.18667270  0.93600876  1
  O  O2  1  0.18684447  0.19421911  0.56234082  1
  O  O3  1  0.31197580  0.68606276  0.93824292  1
  O  O4  1  0.31682056  0.69708496  0.56611435  1
  O  O5  1  0.36851080  0.94669835  0.24735859  1
  O  O6  1  0.63149317  0.05330231  0.75264121  1
  O  O7  1  0.68317859  0.30291613  0.43388406  1
  O  O8  1  0.68802713  0.31393420  0.06176127  1
  O  O9  1  0.81316176  0.80578755  0.43766643  1
  O  O10  1  0.81137648  0.81332970  0.06398501  1
  O  O11  1  0.87704276  0.55090646  0.75010423  1
loop_
_geom_bond_atom_site_label_1
_geom_bond_atom_site_label_2
_geom_bond_distance
_geom_bond_site_symmetry_2
Lu0 O6 2.141496 1_465
Lu0 O1 2.179721 1_565
Lu0 O2 2.219514 1_565
Lu0 O11 2.234571 1_455
Lu0 O4 2.404647 1_555
Lu0 O3 2.427389 1_555
Lu0 O10 2.657519 1_456
Lu0 O9 2.706987 1_455
Lu1 O11 2.157796 1_555
Lu1 O3 2.183483 1_555
Lu1 O4 2.202118 1_555
Lu1 O6 2.209575 1_555
Lu1 O1 2.455264 1_555
Lu1 O2 2.472257 1_555
Lu1 O8 2.646877 1_556
Lu1 O7 2.680265 1_555
Lu2 O0 2.157734 1_555
Lu2 O8 2.183473 1_555
Lu2 O7 2.202108 1_555
Lu2 O5 2.209586 1_555
Lu2 O10 2.455364 1_555
Lu2 O9 2.472388 1_555
Lu2 O3 2.646817 1_554
Lu2 O4 2.680254 1_555
Lu3 O5 2.141557 1_645
Lu3 O10 2.179729 1_545
Lu3 O9 2.219521 1_545
Lu3 O0 2.234539 1_655
Lu3 O7 2.404614 1_555
Lu3 O8 2.427312 1_555
Lu3 O1 2.657576 1_654
Lu3 O2 2.707073 1_655
O0 V0 1.998606 1_555
O0 V1 2.004885 1_555
O1 V3 1.962502 1_556
O1 V1 2.039180 1_556
O2 V2 1.984599 1_555
O2 V0 1.997017 1_555
O3 V1 1.974962 1_556
O3 V3 2.061954 1_566
O4 V2 1.998580 1_565
O4 V0 2.044701 1_555
O5 V3 1.995653 1_565
O5 V2 2.045334 1_565
O6 V3 1.995673 1_556
O6 V2 2.045336 1_555
O7 V2 1.998593 1_555
O7 V0 2.044731 1_655
O8 V1 1.974984 1_655
O8 V3 2.061983 1_555
O9 V2 1.984570 1_565
O9 V0 1.997003 1_655
O10 V3 1.962490 1_565
O10 V1 2.039145 1_655
O11 V0 1.998577 1_655
O11 V1 2.004837 1_656
