# generated using pymatgen
data_Na8Y2Zn2Si3(SO8)3
_symmetry_space_group_name_H-M   'P 1'
_cell_length_a   9.38684702
_cell_length_b   9.46246049
_cell_length_c   22.88635918
_cell_angle_alpha   89.53525254
_cell_angle_beta   88.88789804
_cell_angle_gamma   120.12316314
_symmetry_Int_Tables_number   1
_chemical_formula_structural   Na8Y2Zn2Si3(SO8)3
_chemical_formula_sum   'Na24 Y6 Zn6 Si9 S9 O72'
_cell_volume   1757.58551055
_cell_formula_units_Z   3
loop_
 _symmetry_equiv_pos_site_id
 _symmetry_equiv_pos_as_xyz
  1  'x, y, z'
loop_
 _atom_site_type_symbol
 _atom_site_label
 _atom_site_symmetry_multiplicity
 _atom_site_fract_x
 _atom_site_fract_y
 _atom_site_fract_z
 _atom_site_occupancy
  Na  Na0  1  0.63931925  0.02458472  0.26037374  1
  Na  Na1  1  0.35025679  0.34222548  0.25215607  1
  Na  Na2  1  0.00071311  0.62391476  0.24235614  1
  Na  Na3  1  0.62495262  0.62114667  0.73223905  1
  Na  Na4  1  0.98790645  0.34557721  0.73514100  1
  Na  Na5  1  0.39434643  0.03132828  0.75066989  1
  Na  Na6  1  0.30534863  0.35594402  0.59222076  1
  Na  Na7  1  0.01702996  0.67529745  0.58364579  1
  Na  Na8  1  0.66829535  0.95578225  0.57990298  1
  Na  Na9  1  0.28567340  0.94050992  0.08174436  1
  Na  Na10  1  0.67343030  0.69256367  0.07997498  1
  Na  Na11  1  0.03387296  0.35215183  0.09455608  1
  Na  Na12  1  0.98561924  0.69737247  0.91672099  1
  Na  Na13  1  0.68815225  0.02340112  0.89974210  1
  Na  Na14  1  0.31461301  0.26736749  0.90199063  1
  Na  Na15  1  0.95175516  0.27143897  0.41652103  1
  Na  Na16  1  0.33684201  0.02683535  0.40827097  1
  Na  Na17  1  0.70268665  0.68990857  0.42914410  1
  Na  Na18  1  0.97110005  0.99600066  0.50208423  1
  Na  Na19  1  0.00905572  0.98156716  0.99328653  1
  Na  Na20  1  0.64440958  0.31038003  0.81782224  1
  Na  Na21  1  0.66366487  0.30454052  0.32870912  1
  Na  Na22  1  0.30496579  0.66337642  0.16926830  1
  Na  Na23  1  0.34050862  0.65087588  0.65999322  1
  Y  Y0  1  0.99698870  0.00890881  0.65001069  1
  Y  Y1  1  0.00813728  0.00124636  0.15402509  1
  Y  Y2  1  0.66472363  0.33214567  0.98449417  1
  Y  Y3  1  0.67348192  0.33141285  0.48729375  1
  Y  Y4  1  0.33408108  0.67543012  0.31715319  1
  Y  Y5  1  0.34061623  0.67454343  0.81563618  1
  Zn  Zn0  1  0.00322348  0.02112051  0.34297825  1
  Zn  Zn1  1  0.01210015  0.01786936  0.82958116  1
  Zn  Zn2  1  0.67409853  0.34170477  0.67827073  1
  Zn  Zn3  1  0.68778495  0.32921715  0.18895075  1
  Zn  Zn4  1  0.28582878  0.67109050  0.01133583  1
  Zn  Zn5  1  0.36106798  0.66508283  0.52195750  1
  Si  Si0  1  0.30525156  0.00902831  0.25059732  1
  Si  Si1  1  0.00018338  0.30255528  0.24946417  1
  Si  Si2  1  0.31007536  0.30238868  0.75046095  1
  Si  Si3  1  0.70489191  0.00630290  0.75399624  1
  Si  Si4  1  0.97760276  0.34590935  0.58269017  1
  Si  Si5  1  0.66889168  0.63087498  0.58374436  1
  Si  Si6  1  0.96144983  0.62815865  0.08421942  1
  Si  Si7  1  0.32703394  0.97007476  0.91874674  1
  Si  Si8  1  0.63696679  0.96355473  0.41661239  1
  S  S0  1  0.70078162  0.69669684  0.25126007  1
  S  S1  1  0.99708326  0.70249636  0.75378397  1
  S  S2  1  0.36689080  0.02895867  0.58469605  1
  S  S3  1  0.66403487  0.02865830  0.08421640  1
  S  S4  1  0.36752170  0.34008064  0.08416951  1
  S  S5  1  0.62674613  0.66636287  0.92158018  1
  S  S6  1  0.03829742  0.36781125  0.92113864  1
  S  S7  1  0.33144292  0.36502043  0.41718169  1
  S  S8  1  0.03209789  0.66995270  0.41782884  1
  O  O0  1  0.20993197  0.03012649  0.30844032  1
  O  O1  1  0.80326058  0.77918231  0.30180016  1
  O  O2  1  0.96734345  0.18579132  0.30693537  1
  O  O3  1  0.22998323  0.18960235  0.81090092  1
  O  O4  1  0.97894127  0.78445849  0.80690694  1
  O  O5  1  0.81180171  0.02113178  0.81322769  1
  O  O6  1  0.78652029  0.96902278  0.69712232  1
  O  O7  1  0.19264987  0.21315407  0.69510990  1
  O  O8  1  0.02519290  0.80427853  0.70027275  1
  O  O9  1  0.77426763  0.79780204  0.19616307  1
  O  O10  1  0.02325026  0.22135410  0.18888426  1
  O  O11  1  0.19420654  0.97269268  0.19167586  1
  O  O12  1  0.88635264  0.36988423  0.64097863  1
  O  O13  1  0.46874407  0.11120513  0.63592536  1
  O  O14  1  0.64038795  0.51337928  0.64071272  1
  O  O15  1  0.86559832  0.51140563  0.14160867  1
  O  O16  1  0.63942394  0.10752691  0.13616614  1
  O  O17  1  0.46298730  0.35405484  0.13626394  1
  O  O18  1  0.44744487  0.31525140  0.03083558  1
  O  O19  1  0.85874026  0.54885315  0.02432455  1
  O  O20  1  0.68637657  0.13025717  0.03038560  1
  O  O21  1  0.44132467  0.13055612  0.53004657  1
  O  O22  1  0.68591676  0.54849590  0.52262744  1
  O  O23  1  0.86272521  0.30808289  0.52479126  1
  O  O24  1  0.53997964  0.67713508  0.97489463  1
  O  O25  1  0.13850451  0.44802852  0.97356387  1
  O  O26  1  0.30619890  0.86621518  0.98000248  1
  O  O27  1  0.54000754  0.84586356  0.47410532  1
  O  O28  1  0.31132095  0.44756727  0.46869046  1
  O  O29  1  0.12954799  0.68352053  0.46910596  1
  O  O30  1  0.11020196  0.64617811  0.36345715  1
  O  O31  1  0.53069240  0.88384730  0.35729030  1
  O  O32  1  0.35166285  0.46219784  0.36238255  1
  O  O33  1  0.11736407  0.46738150  0.86789617  1
  O  O34  1  0.35861088  0.88073545  0.86328641  1
  O  O35  1  0.52755038  0.64440109  0.86895487  1
  O  O36  1  0.01741769  0.81877300  0.41184633  1
  O  O37  1  0.82289667  0.97976046  0.41263596  1
  O  O38  1  0.18350655  0.19820888  0.41468680  1
  O  O39  1  0.01678930  0.20130739  0.91849111  1
  O  O40  1  0.15808617  0.98130197  0.91470570  1
  O  O41  1  0.79303756  0.81495191  0.91620534  1
  O  O42  1  0.00435784  0.18532559  0.58544409  1
  O  O43  1  0.19907063  0.00835729  0.58961029  1
  O  O44  1  0.84000014  0.81200974  0.58536924  1
  O  O45  1  0.98327028  0.81446021  0.08597603  1
  O  O46  1  0.81844835  0.01794900  0.08699259  1
  O  O47  1  0.19726197  0.19121970  0.08603783  1
  O  O48  1  0.69527177  0.17433130  0.74875342  1
  O  O49  1  0.49490294  0.32388407  0.74422470  1
  O  O50  1  0.84731994  0.53958897  0.75064901  1
  O  O51  1  0.68279022  0.53248964  0.24579731  1
  O  O52  1  0.83644643  0.32481855  0.24925225  1
  O  O53  1  0.48738962  0.17972459  0.24342746  1
  O  O54  1  0.64766374  0.51808136  0.92359975  1
  O  O55  1  0.87134417  0.35296414  0.92536229  1
  O  O56  1  0.49520753  0.15587362  0.92092768  1
  O  O57  1  0.65226659  0.14777134  0.41852114  1
  O  O58  1  0.48338859  0.34995812  0.41970573  1
  O  O59  1  0.86232860  0.52085526  0.41987262  1
  O  O60  1  0.35469579  0.48974928  0.07716934  1
  O  O61  1  0.14678419  0.64131866  0.08288183  1
  O  O62  1  0.52000146  0.86090053  0.07976123  1
  O  O63  1  0.35109041  0.86554696  0.57945557  1
  O  O64  1  0.50575268  0.65484255  0.58397400  1
  O  O65  1  0.15927615  0.51673736  0.57517479  1
  O  O66  1  0.33083952  0.84767316  0.25372356  1
  O  O67  1  0.53186631  0.67611807  0.25604103  1
  O  O68  1  0.17000189  0.48443595  0.25230422  1
  O  O69  1  0.31905456  0.48172156  0.75553768  1
  O  O70  1  0.14467368  0.68124480  0.75792256  1
  O  O71  1  0.51659100  0.84637506  0.75561463  1
loop_
_geom_bond_atom_site_label_1
_geom_bond_atom_site_label_2
_geom_bond_distance
_geom_bond_site_symmetry_2
Na0 O31 2.496868 1_545
Na0 O52 2.500660 1_555
Na0 O66 2.523119 1_545
Na0 O53 2.540263 1_555
Na0 O2 2.895293 1_555
Na0 O67 2.927573 1_545
Na0 O16 2.942721 1_555
Na1 O53 2.458253 1_555
Na1 O68 2.637988 1_555
Na1 O51 2.709863 1_555
Na1 O67 2.738705 1_555
Na1 O32 2.772286 1_555
Na1 O17 2.816840 1_555
Na1 O0 2.843206 1_555
Na2 O52 2.452659 1_455
Na2 O68 2.536378 1_555
Na2 O15 2.618493 1_455
Na2 O51 2.656888 1_455
Na2 O66 2.758283 1_555
Na2 O30 2.947022 1_555
Na3 O14 2.370618 1_555
Na3 O49 2.450603 1_555
Na3 O69 2.529173 1_555
Na3 O50 2.603030 1_555
Na3 O71 2.834816 1_555
Na3 O6 2.946287 1_555
Na4 O48 2.399841 1_555
Na4 O12 2.428491 1_555
Na4 O69 2.754379 1_655
Na4 O50 2.768001 1_555
Na4 O70 2.809105 1_655
Na4 O7 2.910436 1_655
Na5 O49 2.437503 1_555
Na5 O48 2.443318 1_555
Na5 O71 2.531793 1_545
Na5 O13 2.705940 1_555
Na5 O34 2.865845 1_545
Na5 O70 2.945724 1_545
Na5 O3 2.965429 1_555
Na6 O42 2.460862 1_555
Na6 O64 2.492188 1_555
Na6 O65 2.540149 1_555
Na6 O7 2.628043 1_555
Na6 O43 2.920378 1_555
Na6 O28 2.941586 1_555
Na6 O14 2.966729 1_555
Na7 O65 2.465167 1_555
Na7 O44 2.567576 1_455
Na7 O63 2.720756 1_555
Na7 O43 2.735250 1_565
Na7 O29 2.792858 1_555
Na7 O12 2.810000 1_455
Na7 O8 2.930326 1_555
Na8 O64 2.464718 1_555
Na8 O44 2.582670 1_555
Na8 O63 2.654143 1_555
Na8 O27 2.700301 1_555
Na8 O42 2.797820 1_665
Na8 O6 2.902711 1_555
Na9 O61 2.451166 1_555
Na9 O45 2.465534 1_455
Na9 O26 2.469485 1_554
Na9 O62 2.658491 1_555
Na9 O11 2.711242 1_555
Na9 O47 2.881511 1_565
Na10 O45 2.541476 1_555
Na10 O60 2.623917 1_555
Na10 O62 2.629501 1_555
Na10 O46 2.677386 1_565
Na10 O24 2.704288 1_554
Na10 O9 2.855362 1_555
Na11 O61 2.397492 1_555
Na11 O10 2.454941 1_555
Na11 O60 2.632918 1_555
Na11 O47 2.654558 1_555
Na11 O46 2.779133 1_455
Na11 O15 2.876625 1_455
Na11 O25 2.900823 1_554
Na12 O40 2.338939 1_655
Na12 O41 2.554461 1_555
Na12 O4 2.650235 1_555
Na12 O54 2.746090 1_555
Na12 O19 2.758290 1_556
Na12 O55 2.878020 1_555
Na13 O5 2.281345 1_555
Na13 O41 2.636919 1_545
Na13 O56 2.709455 1_555
Na13 O39 2.717550 1_655
Na13 O55 2.777057 1_555
Na13 O34 2.830965 1_545
Na14 O3 2.240762 1_555
Na14 O40 2.355704 1_545
Na14 O56 2.447619 1_555
Na14 O39 2.559304 1_555
Na14 O54 2.877703 1_555
Na15 O37 2.397054 1_545
Na15 O57 2.442698 1_555
Na15 O38 2.593128 1_655
Na15 O2 2.665732 1_555
Na15 O23 2.680130 1_555
Na15 O59 2.875676 1_555
Na16 O57 2.600312 1_555
Na16 O0 2.604226 1_555
Na16 O36 2.633600 1_545
Na16 O38 2.657307 1_555
Na16 O58 2.667329 1_555
Na16 O21 2.979402 1_555
Na16 O31 2.986213 1_545
Na17 O37 2.408059 1_555
Na17 O22 2.474230 1_555
Na17 O36 2.588939 1_655
Na17 O59 2.692355 1_555
Na17 O27 2.791766 1_555
Na17 O58 2.830878 1_555
Na17 O1 3.025164 1_555
Na18 O44 2.425558 1_555
Na18 O37 2.459842 1_555
Na18 O42 2.542397 1_665
Na18 O38 2.755210 1_665
Na18 O36 2.831904 1_655
Na18 O43 2.919696 1_665
Na19 O40 2.257717 1_555
Na19 O45 2.569131 1_456
Na19 O41 2.585455 1_455
Na19 O39 2.654216 1_565
Na19 O47 2.873811 1_566
Na19 O46 2.898328 1_466
Na20 O48 2.237092 1_555
Na20 O49 2.256379 1_555
Na20 O50 2.526096 1_555
Na20 O56 2.725386 1_555
Na21 O52 2.354071 1_555
Na21 O53 2.478615 1_555
Na21 O57 2.493920 1_555
Na21 O51 2.795908 1_555
Na21 O58 2.827216 1_555
Na21 O59 2.899891 1_555
Na22 O68 2.405143 1_555
Na22 O61 2.442676 1_555
Na22 O66 2.546362 1_555
Na22 O62 2.784728 1_555
Na22 O60 2.854435 1_555
Na22 O67 2.899154 1_555
Na23 O64 2.295659 1_555
Na23 O65 2.504832 1_555
Na23 O69 2.643221 1_555
Na23 O63 2.695029 1_555
Na23 O71 2.842599 1_555
Na23 O70 2.977541 1_555
O0 Si0 1.652430 1_555
O0 Zn0 2.042155 1_555
O1 S0 1.475361 1_555
O1 Zn0 2.333012 1_665
O2 Si1 1.632370 1_655
O2 Zn0 1.933526 1_655
O3 Si2 1.657690 1_555
O3 Zn1 1.904028 1_555
O4 S1 1.499491 1_555
O4 Zn1 2.139887 1_665
O5 Si3 1.667026 1_555
O5 Zn1 1.939448 1_655
O6 Si3 1.626607 1_565
O6 Y0 2.090554 1_565
O7 Si2 1.634030 1_555
O7 Y0 2.171846 1_455
O8 S1 1.486703 1_455
O8 Y0 2.373358 1_465
O9 S0 1.505134 1_555
O9 Y1 2.258576 1_665
O10 Si1 1.652918 1_555
O10 Y1 2.174692 1_555
O11 Si0 1.650921 1_565
O11 Y1 2.096293 1_565
O12 Si4 1.649341 1_555
O12 Zn2 2.041135 1_555
O13 S2 1.485223 1_555
O13 Zn2 2.301948 1_555
O14 Si5 1.634606 1_555
O14 Zn2 1.995426 1_555
O15 Si6 1.639523 1_555
O15 Zn3 1.985750 1_555
O16 S3 1.483469 1_555
O16 Zn3 2.274318 1_555
O17 S4 1.472099 1_555
O17 Zn3 2.560051 1_555
O18 S4 1.501325 1_555
O18 Y2 2.212744 1_554
O19 Si6 1.647266 1_555
O19 Y2 2.167715 1_554
O20 S3 1.501471 1_555
O20 Y2 2.271424 1_554
O21 S2 1.499696 1_555
O21 Y3 2.246885 1_555
O22 Si5 1.650366 1_555
O22 Y3 2.162637 1_555
O23 Si4 1.650018 1_555
O23 Y3 2.095356 1_555
O24 S5 1.486383 1_555
O24 Zn4 2.485018 1_556
O25 S6 1.497484 1_555
O25 Zn4 2.064236 1_556
O26 Si7 1.656366 1_555
O26 Zn4 1.891742 1_556
O27 Si8 1.646907 1_555
O27 Zn5 1.990266 1_555
O28 S7 1.479814 1_555
O28 Zn5 2.244695 1_555
O29 S8 1.468570 1_555
O29 Zn5 2.587603 1_555
O30 S8 1.507068 1_555
O30 Y4 2.222827 1_555
O31 Si8 1.649627 1_555
O31 Y4 2.140371 1_555
O32 S7 1.500448 1_555
O32 Y4 2.340267 1_555
O33 S6 1.472326 1_555
O33 Y5 2.325127 1_555
O34 Si7 1.633371 1_555
O34 Y5 2.176101 1_555
O35 S5 1.488003 1_555
O35 Y5 2.286761 1_555
O36 S8 1.487669 1_555
O36 Zn0 2.526524 1_565
O37 Si8 1.674166 1_555
O37 Zn0 2.186346 1_665
O38 S7 1.492510 1_555
O38 Zn0 2.381442 1_555
O39 S6 1.486437 1_555
O40 Si7 1.646061 1_555
O40 Zn1 2.522232 1_565
O41 S5 1.488435 1_555
O42 Si4 1.660747 1_455
O42 Y0 2.194348 1_455
O43 S2 1.488880 1_555
O43 Y0 2.327541 1_455
O44 Si5 1.661041 1_555
O44 Y0 2.281466 1_565
O45 Si6 1.670428 1_555
O45 Y1 2.290968 1_665
O46 S3 1.505366 1_555
O46 Y1 2.435892 1_655
O47 S4 1.508969 1_555
O47 Y1 2.334176 1_555
O48 Si3 1.640722 1_555
O48 Zn2 2.331700 1_555
O49 Si2 1.645449 1_555
O49 Zn2 2.179191 1_555
O50 S1 1.479278 1_555
O50 Zn2 2.448028 1_555
O51 S0 1.482917 1_555
O51 Zn3 2.350162 1_555
O52 Si1 1.652863 1_655
O52 Zn3 1.996446 1_555
O53 Si0 1.664906 1_555
O53 Zn3 2.074474 1_555
O54 S5 1.511697 1_555
O54 Y2 2.305453 1_555
O55 S6 1.502663 1_655
O55 Y2 2.267659 1_555
O56 Si7 1.674592 1_545
O56 Y2 2.212646 1_555
O57 Si8 1.676688 1_545
O57 Y3 2.290369 1_555
O58 S7 1.505012 1_555
O58 Y3 2.454497 1_555
O59 S8 1.507169 1_655
O59 Y3 2.322957 1_555
O60 S4 1.487981 1_555
O61 Si6 1.680311 1_455
O61 Zn4 2.001138 1_555
O62 S3 1.487276 1_565
O63 S2 1.483530 1_565
O63 Zn5 2.356400 1_555
O64 Si5 1.656752 1_555
O64 Zn5 2.018193 1_555
O65 Si4 1.663711 1_455
O65 Zn5 2.062931 1_555
O66 Si0 1.661615 1_565
O66 Y4 2.185813 1_555
O67 S0 1.498993 1_555
O67 Y4 2.300008 1_555
O68 Si1 1.661149 1_555
O68 Y4 2.275848 1_555
O69 Si2 1.661383 1_555
O69 Y5 2.223218 1_555
O70 S1 1.501060 1_455
O70 Y5 2.311201 1_555
O71 Si3 1.651503 1_565
O71 Y5 2.106933 1_555
