# generated using pymatgen
data_Re2(PCl8)3
_symmetry_space_group_name_H-M   'P 1'
_cell_length_a   15.98324300
_cell_length_b   15.98324300
_cell_length_c   13.60982700
_cell_angle_alpha   90.00000000
_cell_angle_beta   90.00000000
_cell_angle_gamma   90.00000000
_symmetry_Int_Tables_number   1
_chemical_formula_structural   Re2(PCl8)3
_chemical_formula_sum   'Re8 P12 Cl96'
_cell_volume   3476.82161773
_cell_formula_units_Z   4
loop_
 _symmetry_equiv_pos_site_id
 _symmetry_equiv_pos_as_xyz
  1  'x, y, z'
loop_
 _atom_site_type_symbol
 _atom_site_label
 _atom_site_symmetry_multiplicity
 _atom_site_fract_x
 _atom_site_fract_y
 _atom_site_fract_z
 _atom_site_occupancy
  Re  Re0  1  0.37394300  0.24804400  0.00000000  1
  Re  Re1  1  0.24804400  0.62605700  0.50000000  1
  Re  Re2  1  0.75195600  0.37394300  0.50000000  1
  Re  Re3  1  0.62605700  0.75195600  0.00000000  1
  Re  Re4  1  0.12605700  0.74804400  0.00000000  1
  Re  Re5  1  0.87394300  0.25195600  0.00000000  1
  Re  Re6  1  0.74804400  0.87394300  0.50000000  1
  Re  Re7  1  0.25195600  0.12605700  0.50000000  1
  P  P0  1  0.37669600  0.87669600  0.75000000  1
  P  P1  1  0.87669600  0.62330400  0.25000000  1
  P  P2  1  0.12330400  0.37669600  0.25000000  1
  P  P3  1  0.62330400  0.12330400  0.75000000  1
  P  P4  1  0.62330400  0.12330400  0.25000000  1
  P  P5  1  0.12330400  0.37669600  0.75000000  1
  P  P6  1  0.87669600  0.62330400  0.75000000  1
  P  P7  1  0.37669600  0.87669600  0.25000000  1
  P  P8  1  0.50000000  0.50000000  0.25000000  1
  P  P9  1  0.50000000  0.50000000  0.75000000  1
  P  P10  1  0.00000000  0.00000000  0.75000000  1
  P  P11  1  0.00000000  0.00000000  0.25000000  1
  Cl  Cl0  1  0.45247600  0.12183300  0.00000000  1
  Cl  Cl1  1  0.12183300  0.54752400  0.50000000  1
  Cl  Cl2  1  0.87816700  0.45247600  0.50000000  1
  Cl  Cl3  1  0.54752400  0.87816700  0.00000000  1
  Cl  Cl4  1  0.04752400  0.62183300  0.00000000  1
  Cl  Cl5  1  0.95247600  0.37816700  0.00000000  1
  Cl  Cl6  1  0.62183300  0.95247600  0.50000000  1
  Cl  Cl7  1  0.37816700  0.04752400  0.50000000  1
  Cl  Cl8  1  0.49924100  0.32829800  0.00000000  1
  Cl  Cl9  1  0.32829800  0.50075900  0.50000000  1
  Cl  Cl10  1  0.67170200  0.49924100  0.50000000  1
  Cl  Cl11  1  0.50075900  0.67170200  0.00000000  1
  Cl  Cl12  1  0.00075900  0.82829800  0.00000000  1
  Cl  Cl13  1  0.99924100  0.17170200  0.00000000  1
  Cl  Cl14  1  0.82829800  0.99924100  0.50000000  1
  Cl  Cl15  1  0.17170200  0.00075900  0.50000000  1
  Cl  Cl16  1  0.29366700  0.37419800  0.00000000  1
  Cl  Cl17  1  0.37419800  0.70633300  0.50000000  1
  Cl  Cl18  1  0.62580200  0.29366700  0.50000000  1
  Cl  Cl19  1  0.70633300  0.62580200  0.00000000  1
  Cl  Cl20  1  0.20633300  0.87419800  0.00000000  1
  Cl  Cl21  1  0.79366700  0.12580200  0.00000000  1
  Cl  Cl22  1  0.87419800  0.79366700  0.50000000  1
  Cl  Cl23  1  0.12580200  0.20633300  0.50000000  1
  Cl  Cl24  1  0.37664000  0.25057900  0.17127800  1
  Cl  Cl25  1  0.25057900  0.62336000  0.67127800  1
  Cl  Cl26  1  0.74942100  0.37664000  0.67127800  1
  Cl  Cl27  1  0.62336000  0.74942100  0.17127800  1
  Cl  Cl28  1  0.12336000  0.75057900  0.82872200  1
  Cl  Cl29  1  0.87664000  0.24942100  0.82872200  1
  Cl  Cl30  1  0.75057900  0.87664000  0.32872200  1
  Cl  Cl31  1  0.24942100  0.12336000  0.32872200  1
  Cl  Cl32  1  0.62336000  0.74942100  0.82872200  1
  Cl  Cl33  1  0.74942100  0.37664000  0.32872200  1
  Cl  Cl34  1  0.25057900  0.62336000  0.32872200  1
  Cl  Cl35  1  0.37664000  0.25057900  0.82872200  1
  Cl  Cl36  1  0.87664000  0.24942100  0.17127800  1
  Cl  Cl37  1  0.12336000  0.75057900  0.17127800  1
  Cl  Cl38  1  0.24942100  0.12336000  0.67127800  1
  Cl  Cl39  1  0.75057900  0.87664000  0.67127800  1
  Cl  Cl40  1  0.25106100  0.16790900  0.00000000  1
  Cl  Cl41  1  0.16790900  0.74893900  0.50000000  1
  Cl  Cl42  1  0.83209100  0.25106100  0.50000000  1
  Cl  Cl43  1  0.74893900  0.83209100  0.00000000  1
  Cl  Cl44  1  0.24893900  0.66790900  0.00000000  1
  Cl  Cl45  1  0.75106100  0.33209100  0.00000000  1
  Cl  Cl46  1  0.66790900  0.75106100  0.50000000  1
  Cl  Cl47  1  0.33209100  0.24893900  0.50000000  1
  Cl  Cl48  1  0.27883000  0.87598700  0.66397100  1
  Cl  Cl49  1  0.87598700  0.72117000  0.16397100  1
  Cl  Cl50  1  0.12401300  0.27883000  0.16397100  1
  Cl  Cl51  1  0.72117000  0.12401300  0.66397100  1
  Cl  Cl52  1  0.22117000  0.37598700  0.33602900  1
  Cl  Cl53  1  0.77883000  0.62401300  0.33602900  1
  Cl  Cl54  1  0.37598700  0.77883000  0.83602900  1
  Cl  Cl55  1  0.62401300  0.22117000  0.83602900  1
  Cl  Cl56  1  0.72117000  0.12401300  0.33602900  1
  Cl  Cl57  1  0.12401300  0.27883000  0.83602900  1
  Cl  Cl58  1  0.87598700  0.72117000  0.83602900  1
  Cl  Cl59  1  0.27883000  0.87598700  0.33602900  1
  Cl  Cl60  1  0.77883000  0.62401300  0.66397100  1
  Cl  Cl61  1  0.22117000  0.37598700  0.66397100  1
  Cl  Cl62  1  0.62401300  0.22117000  0.16397100  1
  Cl  Cl63  1  0.37598700  0.77883000  0.16397100  1
  Cl  Cl64  1  0.37684100  0.97815700  0.83195000  1
  Cl  Cl65  1  0.97815700  0.62315900  0.33195000  1
  Cl  Cl66  1  0.02184300  0.37684100  0.33195000  1
  Cl  Cl67  1  0.62315900  0.02184300  0.83195000  1
  Cl  Cl68  1  0.12315900  0.47815700  0.16805000  1
  Cl  Cl69  1  0.87684100  0.52184300  0.16805000  1
  Cl  Cl70  1  0.47815700  0.87684100  0.66805000  1
  Cl  Cl71  1  0.52184300  0.12315900  0.66805000  1
  Cl  Cl72  1  0.62315900  0.02184300  0.16805000  1
  Cl  Cl73  1  0.02184300  0.37684100  0.66805000  1
  Cl  Cl74  1  0.97815700  0.62315900  0.66805000  1
  Cl  Cl75  1  0.37684100  0.97815700  0.16805000  1
  Cl  Cl76  1  0.87684100  0.52184300  0.83195000  1
  Cl  Cl77  1  0.12315900  0.47815700  0.83195000  1
  Cl  Cl78  1  0.52184300  0.12315900  0.33195000  1
  Cl  Cl79  1  0.47815700  0.87684100  0.33195000  1
  Cl  Cl80  1  0.59878600  0.51253200  0.16584100  1
  Cl  Cl81  1  0.51253200  0.40121400  0.66584100  1
  Cl  Cl82  1  0.48746800  0.59878600  0.66584100  1
  Cl  Cl83  1  0.40121400  0.48746800  0.16584100  1
  Cl  Cl84  1  0.90121400  0.01253200  0.83415900  1
  Cl  Cl85  1  0.09878600  0.98746800  0.83415900  1
  Cl  Cl86  1  0.01253200  0.09878600  0.33415900  1
  Cl  Cl87  1  0.98746800  0.90121400  0.33415900  1
  Cl  Cl88  1  0.40121400  0.48746800  0.83415900  1
  Cl  Cl89  1  0.48746800  0.59878600  0.33415900  1
  Cl  Cl90  1  0.51253200  0.40121400  0.33415900  1
  Cl  Cl91  1  0.59878600  0.51253200  0.83415900  1
  Cl  Cl92  1  0.09878600  0.98746800  0.16584100  1
  Cl  Cl93  1  0.90121400  0.01253200  0.16584100  1
  Cl  Cl94  1  0.98746800  0.90121400  0.66584100  1
  Cl  Cl95  1  0.01253200  0.09878600  0.66584100  1
loop_
_geom_bond_atom_site_label_1
_geom_bond_atom_site_label_2
_geom_bond_distance
_geom_bond_site_symmetry_2
Cl0 Re0 2.375900 1_555
Cl1 Re1 2.375900 1_555
Cl2 Re2 2.375900 1_555
Cl3 Re3 2.375900 1_555
Cl4 Re4 2.375900 1_555
Cl5 Re5 2.375900 1_555
Cl6 Re6 2.375900 1_555
Cl7 Re7 2.375900 1_555
Cl8 Re0 2.378245 1_555
Cl9 Re1 2.378245 1_555
Cl10 Re2 2.378245 1_555
Cl11 Re3 2.378245 1_555
Cl12 Re4 2.378245 1_555
Cl13 Re5 2.378245 1_555
Cl14 Re6 2.378245 1_555
Cl15 Re7 2.378245 1_555
Cl16 Re0 2.389966 1_555
Cl17 Re1 2.389966 1_555
Cl18 Re2 2.389966 1_555
Cl19 Re3 2.389966 1_555
Cl20 Re4 2.389966 1_555
Cl21 Re5 2.389966 1_555
Cl22 Re6 2.389966 1_555
Cl23 Re7 2.389966 1_555
Cl24 Re0 2.331815 1_555
Cl25 Re1 2.331815 1_555
Cl26 Re2 2.331815 1_555
Cl27 Re3 2.331815 1_555
Cl28 Re4 2.331815 1_556
Cl29 Re5 2.331815 1_556
Cl30 Re6 2.331815 1_555
Cl31 Re7 2.331815 1_555
Cl32 Re3 2.331815 1_556
Cl33 Re2 2.331815 1_555
Cl34 Re1 2.331815 1_555
Cl35 Re0 2.331815 1_556
Cl36 Re5 2.331815 1_555
Cl37 Re4 2.331815 1_555
Cl38 Re7 2.331815 1_555
Cl39 Re6 2.331815 1_555
Cl40 Re0 2.344781 1_555
Cl41 Re1 2.344781 1_555
Cl42 Re2 2.344781 1_555
Cl43 Re3 2.344781 1_555
Cl44 Re4 2.344781 1_555
Cl45 Re5 2.344781 1_555
Cl46 Re6 2.344781 1_555
Cl47 Re7 2.344781 1_555
Cl48 P0 1.953910 1_555
Cl49 P1 1.953910 1_555
Cl50 P2 1.953910 1_555
Cl51 P3 1.953910 1_555
Cl52 P2 1.953910 1_555
Cl53 P1 1.953910 1_555
Cl54 P0 1.953910 1_555
Cl55 P3 1.953910 1_555
Cl56 P4 1.953910 1_555
Cl57 P5 1.953910 1_555
Cl58 P6 1.953910 1_555
Cl59 P7 1.953910 1_555
Cl60 P6 1.953910 1_555
Cl61 P5 1.953910 1_555
Cl62 P4 1.953910 1_555
Cl63 P7 1.953910 1_555
Cl64 P0 1.968194 1_555
Cl65 P1 1.968194 1_555
Cl66 P2 1.968194 1_555
Cl67 P3 1.968194 1_555
Cl68 P2 1.968194 1_555
Cl69 P1 1.968194 1_555
Cl70 P0 1.968194 1_555
Cl71 P3 1.968194 1_555
Cl72 P4 1.968194 1_555
Cl73 P5 1.968194 1_555
Cl74 P6 1.968194 1_555
Cl75 P7 1.968194 1_555
Cl76 P6 1.968194 1_555
Cl77 P5 1.968194 1_555
Cl78 P4 1.968194 1_555
Cl79 P7 1.968194 1_555
Cl80 P8 1.960874 1_555
Cl81 P9 1.960874 1_555
Cl82 P9 1.960874 1_555
Cl83 P8 1.960874 1_555
Cl84 P10 1.960874 1_655
Cl85 P10 1.960874 1_565
Cl86 P11 1.960874 1_555
Cl87 P11 1.960874 1_665
Cl88 P9 1.960874 1_555
Cl89 P8 1.960874 1_555
Cl90 P8 1.960874 1_555
Cl91 P9 1.960874 1_555
Cl92 P11 1.960874 1_565
Cl93 P11 1.960874 1_655
Cl94 P10 1.960874 1_665
Cl95 P10 1.960874 1_555
