# generated using pymatgen
data_Na2H10SO5
_symmetry_space_group_name_H-M   'P 1'
_cell_length_a   7.10100772
_cell_length_b   7.10100772
_cell_length_c   8.70982700
_cell_angle_alpha   90.00000000
_cell_angle_beta   90.00000000
_cell_angle_gamma   125.67034877
_symmetry_Int_Tables_number   1
_chemical_formula_structural   Na2H10SO5
_chemical_formula_sum   'Na4 H20 S2 O10'
_cell_volume   356.78912778
_cell_formula_units_Z   2
loop_
 _symmetry_equiv_pos_site_id
 _symmetry_equiv_pos_as_xyz
  1  'x, y, z'
loop_
 _atom_site_type_symbol
 _atom_site_label
 _atom_site_symmetry_multiplicity
 _atom_site_fract_x
 _atom_site_fract_y
 _atom_site_fract_z
 _atom_site_occupancy
  Na  Na0  1  0.00000000  0.00000000  0.00000000  1
  Na  Na1  1  0.54325500  0.45674500  0.75000000  1
  Na  Na2  1  0.45674500  0.54325500  0.25000000  1
  Na  Na3  1  0.00000000  0.00000000  0.50000000  1
  H  H0  1  0.62672200  0.99467600  0.37915600  1
  H  H1  1  0.81900300  0.52105700  0.02096500  1
  H  H2  1  0.52105700  0.81900300  0.97903500  1
  H  H3  1  0.18099700  0.47894300  0.52096500  1
  H  H4  1  0.18099700  0.47894300  0.97903500  1
  H  H5  1  0.47894300  0.18099700  0.02096500  1
  H  H6  1  0.81900300  0.52105700  0.47903500  1
  H  H7  1  0.52105700  0.81900300  0.52096500  1
  H  H8  1  0.99467600  0.62672200  0.87915600  1
  H  H9  1  0.62672200  0.99467600  0.12084400  1
  H  H10  1  0.00532400  0.37327800  0.37915600  1
  H  H11  1  0.37327800  0.00532400  0.62084400  1
  H  H12  1  0.00532400  0.37327800  0.12084400  1
  H  H13  1  0.37327800  0.00532400  0.87915600  1
  H  H14  1  0.73896200  0.01512800  0.75000000  1
  H  H15  1  0.99467600  0.62672200  0.62084400  1
  H  H16  1  0.26103800  0.98487200  0.25000000  1
  H  H17  1  0.98487200  0.26103800  0.75000000  1
  H  H18  1  0.01512800  0.73896200  0.25000000  1
  H  H19  1  0.47894300  0.18099700  0.47903500  1
  S  S0  1  0.68990000  0.31010000  0.25000000  1
  S  S1  1  0.31010000  0.68990000  0.75000000  1
  O  O0  1  0.86103500  0.61611300  0.92644100  1
  O  O1  1  0.61611300  0.86103500  0.07355900  1
  O  O2  1  0.13896500  0.38388700  0.42644100  1
  O  O3  1  0.38388700  0.13896500  0.57355900  1
  O  O4  1  0.13896500  0.38388700  0.07355900  1
  O  O5  1  0.38388700  0.13896500  0.92644100  1
  O  O6  1  0.86103500  0.61611300  0.57355900  1
  O  O7  1  0.61611300  0.86103500  0.42644100  1
  O  O8  1  0.90804700  0.09195300  0.75000000  1
  O  O9  1  0.09195300  0.90804700  0.25000000  1
loop_
_geom_bond_atom_site_label_1
_geom_bond_atom_site_label_2
_geom_bond_distance
_geom_bond_site_symmetry_2
Na0 O4 2.382869 1_555
Na0 O5 2.382869 1_554
Na0 O1 2.382869 1_445
Na0 O0 2.382869 1_444
Na0 O8 2.468048 1_454
Na0 O9 2.468048 1_545
Na1 O5 2.399206 1_555
Na1 O3 2.399206 1_555
Na1 O0 2.399206 1_555
Na1 O6 2.399206 1_555
Na1 S1 2.946027 1_555
Na2 O2 2.399206 1_555
Na2 O1 2.399206 1_555
Na2 O7 2.399206 1_555
Na2 O4 2.399206 1_555
Na2 S0 2.946027 1_555
Na3 O3 2.382869 1_555
Na3 O7 2.382869 1_445
Na3 O2 2.382869 1_555
Na3 O6 2.382869 1_445
Na3 O8 2.468048 1_455
Na3 O9 2.468048 1_545
H0 O7 0.996237 1_555
H1 O0 0.993753 1_554
H2 O1 0.993753 1_556
H3 O2 0.993753 1_555
H4 O4 0.993753 1_556
H5 O5 0.993753 1_554
H6 O6 0.993753 1_555
H7 O7 0.993753 1_555
H8 O0 0.996237 1_555
H9 O1 0.996237 1_555
H10 O2 0.996237 1_555
H11 O3 0.996237 1_555
H12 O4 0.996237 1_555
H13 O5 0.996237 1_555
H14 O8 0.987586 1_555
H15 O6 0.996237 1_555
H16 O9 0.987586 1_555
H17 O8 0.987586 1_555
H18 O9 0.987586 1_555
H19 O3 0.993753 1_555
