# generated using pymatgen
data_NaTaAl(PO4)3
_symmetry_space_group_name_H-M   'P 1'
_cell_length_a   8.55031376
_cell_length_b   8.55031349
_cell_length_c   22.22461184
_cell_angle_alpha   90.00000000
_cell_angle_beta   90.00000000
_cell_angle_gamma   120.00000103
_symmetry_Int_Tables_number   1
_chemical_formula_structural   NaTaAl(PO4)3
_chemical_formula_sum   'Na6 Ta6 Al6 P18 O72'
_cell_volume   1407.11276178
_cell_formula_units_Z   6
loop_
 _symmetry_equiv_pos_site_id
 _symmetry_equiv_pos_as_xyz
  1  'x, y, z'
loop_
 _atom_site_type_symbol
 _atom_site_label
 _atom_site_symmetry_multiplicity
 _atom_site_fract_x
 _atom_site_fract_y
 _atom_site_fract_z
 _atom_site_occupancy
  Na  Na0  1  -0.00000000  0.00000000  0.49427480  1
  Na  Na1  1  -0.00000000  0.00000000  0.99427480  1
  Na  Na2  1  0.66666700  0.33333300  0.82760780  1
  Na  Na3  1  0.66666700  0.33333300  0.32760780  1
  Na  Na4  1  0.33333300  0.66666700  0.16094180  1
  Na  Na5  1  0.33333300  0.66666700  0.66094180  1
  Ta  Ta0  1  -0.00000000  0.00000000  0.64401630  1
  Ta  Ta1  1  -0.00000000  0.00000000  0.14401630  1
  Ta  Ta2  1  0.66666700  0.33333300  0.97734930  1
  Ta  Ta3  1  0.66666700  0.33333300  0.47734930  1
  Ta  Ta4  1  0.33333300  0.66666700  0.31068330  1
  Ta  Ta5  1  0.33333300  0.66666700  0.81068330  1
  Al  Al0  1  -0.00000000  0.00000000  0.35353524  1
  Al  Al1  1  -0.00000000  0.00000000  0.85353524  1
  Al  Al2  1  0.66666700  0.33333300  0.68686824  1
  Al  Al3  1  0.66666700  0.33333300  0.18686824  1
  Al  Al4  1  0.33333300  0.66666700  0.02020224  1
  Al  Al5  1  0.33333300  0.66666700  0.52020224  1
  P  P0  1  0.29222714  0.01306509  0.25200149  1
  P  P1  1  0.72083794  0.70777286  0.25200149  1
  P  P2  1  0.98693491  0.27916206  0.25200149  1
  P  P3  1  0.29222714  0.27916206  0.75200149  1
  P  P4  1  0.98693491  0.70777286  0.75200149  1
  P  P5  1  0.72083794  0.01306509  0.75200149  1
  P  P6  1  0.95889414  0.34639809  0.58533449  1
  P  P7  1  0.38750494  0.04110586  0.58533449  1
  P  P8  1  0.65360191  0.61249506  0.58533449  1
  P  P9  1  0.95889414  0.61249506  0.08533449  1
  P  P10  1  0.65360191  0.04110586  0.08533449  1
  P  P11  1  0.38750494  0.34639809  0.08533449  1
  P  P12  1  0.62556014  0.67973209  0.91866849  1
  P  P13  1  0.05417094  0.37443986  0.91866849  1
  P  P14  1  0.32026791  0.94582906  0.91866849  1
  P  P15  1  0.62556014  0.94582906  0.41866849  1
  P  P16  1  0.32026791  0.37443986  0.41866849  1
  P  P17  1  0.05417094  0.67973209  0.41866849  1
  O  O0  1  0.20079874  0.03402959  0.30725586  1
  O  O1  1  0.83323085  0.79920126  0.30725586  1
  O  O2  1  0.96597041  0.16676915  0.30725586  1
  O  O3  1  0.20079874  0.16676915  0.80725586  1
  O  O4  1  0.96597041  0.79920126  0.80725586  1
  O  O5  1  0.83323085  0.03402959  0.80725586  1
  O  O6  1  0.80061102  0.97347369  0.69445746  1
  O  O7  1  0.17286267  0.19938898  0.69445746  1
  O  O8  1  0.02652631  0.82713733  0.69445746  1
  O  O9  1  0.80061102  0.82713733  0.19445746  1
  O  O10  1  0.02652631  0.19938898  0.19445746  1
  O  O11  1  0.17286267  0.97347369  0.19445746  1
  O  O12  1  0.86746574  0.36736259  0.64058886  1
  O  O13  1  0.49989785  0.13253426  0.64058886  1
  O  O14  1  0.63263741  0.50010215  0.64058886  1
  O  O15  1  0.86746574  0.50010215  0.14058886  1
  O  O16  1  0.63263741  0.13253426  0.14058886  1
  O  O17  1  0.49989785  0.36736259  0.14058886  1
  O  O18  1  0.46727802  0.30680669  0.02779046  1
  O  O19  1  0.83952967  0.53272198  0.02779046  1
  O  O20  1  0.69319331  0.16047033  0.02779046  1
  O  O21  1  0.46727802  0.16047033  0.52779046  1
  O  O22  1  0.69319331  0.53272198  0.52779046  1
  O  O23  1  0.83952967  0.30680669  0.52779046  1
  O  O24  1  0.53413174  0.70069659  0.97392286  1
  O  O25  1  0.16656385  0.46586826  0.97392286  1
  O  O26  1  0.29930341  0.83343615  0.97392286  1
  O  O27  1  0.53413174  0.83343615  0.47392286  1
  O  O28  1  0.29930341  0.46586826  0.47392286  1
  O  O29  1  0.16656385  0.70069659  0.47392286  1
  O  O30  1  0.13394402  0.64014069  0.36112446  1
  O  O31  1  0.50619567  0.86605598  0.36112446  1
  O  O32  1  0.35985931  0.49380433  0.36112446  1
  O  O33  1  0.13394402  0.49380433  0.86112446  1
  O  O34  1  0.35985931  0.86605598  0.86112446  1
  O  O35  1  0.50619567  0.64014069  0.86112446  1
  O  O36  1  0.02951906  0.84153621  0.40882074  1
  O  O37  1  0.81201715  0.97048094  0.40882074  1
  O  O38  1  0.15846379  0.18798285  0.40882074  1
  O  O39  1  0.02951906  0.18798285  0.90882074  1
  O  O40  1  0.15846379  0.97048094  0.90882074  1
  O  O41  1  0.81201715  0.84153621  0.90882074  1
  O  O42  1  0.97499337  0.17117712  0.59018900  1
  O  O43  1  0.19618375  0.02500663  0.59018900  1
  O  O44  1  0.82882288  0.80381625  0.59018900  1
  O  O45  1  0.97499337  0.80381625  0.09018900  1
  O  O46  1  0.82882288  0.02500663  0.09018900  1
  O  O47  1  0.19618375  0.17117712  0.09018900  1
  O  O48  1  0.69618606  0.17486921  0.74215374  1
  O  O49  1  0.47868415  0.30381394  0.74215374  1
  O  O50  1  0.82513079  0.52131585  0.74215374  1
  O  O51  1  0.69618606  0.52131585  0.24215374  1
  O  O52  1  0.82513079  0.30381394  0.24215374  1
  O  O53  1  0.47868415  0.17486921  0.24215374  1
  O  O54  1  0.64166037  0.50451012  0.92352200  1
  O  O55  1  0.86285075  0.35833963  0.92352200  1
  O  O56  1  0.49548988  0.13714925  0.92352200  1
  O  O57  1  0.64166037  0.13714925  0.42352200  1
  O  O58  1  0.49548988  0.35833963  0.42352200  1
  O  O59  1  0.86285075  0.50451012  0.42352200  1
  O  O60  1  0.36285206  0.50820321  0.07548774  1
  O  O61  1  0.14535015  0.63714794  0.07548774  1
  O  O62  1  0.49179679  0.85464985  0.07548774  1
  O  O63  1  0.36285206  0.85464985  0.57548774  1
  O  O64  1  0.49179679  0.63714794  0.57548774  1
  O  O65  1  0.14535015  0.50820321  0.57548774  1
  O  O66  1  0.30832637  0.83784412  0.25685600  1
  O  O67  1  0.52951675  0.69167363  0.25685600  1
  O  O68  1  0.16215588  0.47048325  0.25685600  1
  O  O69  1  0.30832637  0.47048325  0.75685600  1
  O  O70  1  0.16215588  0.69167363  0.75685600  1
  O  O71  1  0.52951675  0.83784412  0.75685600  1
loop_
_geom_bond_atom_site_label_1
_geom_bond_atom_site_label_2
_geom_bond_distance
_geom_bond_site_symmetry_2
Na0 O38 2.418341 1_555
Na0 O36 2.418341 1_545
Na0 O37 2.418341 1_445
Na0 O44 2.654203 1_445
Na0 O42 2.654203 1_455
Na0 O43 2.654203 1_555
Na1 O39 2.418341 1_555
Na1 O41 2.418341 1_445
Na1 O40 2.418341 1_545
Na1 O45 2.654203 1_446
Na1 O47 2.654203 1_556
Na1 O46 2.654203 1_456
Na2 O50 2.418341 1_555
Na2 O48 2.418341 1_555
Na2 O49 2.418341 1_555
Na2 O56 2.654203 1_555
Na2 O54 2.654203 1_555
Na2 O55 2.654203 1_555
Na3 O51 2.418341 1_555
Na3 O53 2.418341 1_555
Na3 O52 2.418341 1_555
Na3 O57 2.654203 1_555
Na3 O59 2.654203 1_555
Na3 O58 2.654203 1_555
Na4 O62 2.418341 1_555
Na4 O60 2.418341 1_555
Na4 O61 2.418341 1_555
Na4 O68 2.654203 1_555
Na4 O66 2.654203 1_555
Na4 O67 2.654203 1_555
Na5 O63 2.418341 1_555
Na5 O65 2.418341 1_555
Na5 O64 2.418341 1_555
Na5 O69 2.654203 1_555
Na5 O71 2.654203 1_555
Na5 O70 2.654203 1_555
Al0 O1 1.894920 1_445
Al0 O2 1.894920 1_455
Al0 O0 1.894920 1_555
Al0 O38 1.936795 1_555
Al0 O36 1.936795 1_545
Al0 O37 1.936796 1_445
Al1 O4 1.894920 1_445
Al1 O3 1.894920 1_555
Al1 O5 1.894920 1_455
Al1 O39 1.936795 1_555
Al1 O41 1.936795 1_445
Al1 O40 1.936796 1_545
Al2 O13 1.894920 1_555
Al2 O14 1.894920 1_555
Al2 O12 1.894920 1_555
Al2 O50 1.936795 1_555
Al2 O48 1.936795 1_555
Al2 O49 1.936796 1_555
Al3 O16 1.894920 1_555
Al3 O15 1.894920 1_555
Al3 O17 1.894920 1_555
Al3 O51 1.936795 1_555
Al3 O53 1.936795 1_555
Al3 O52 1.936796 1_555
Al4 O25 1.894920 1_554
Al4 O26 1.894920 1_554
Al4 O24 1.894920 1_554
Al4 O62 1.936795 1_555
Al4 O60 1.936795 1_555
Al4 O61 1.936796 1_555
Al5 O28 1.894920 1_555
Al5 O27 1.894920 1_555
Al5 O29 1.894920 1_555
Al5 O63 1.936795 1_555
Al5 O65 1.936795 1_555
Al5 O64 1.936796 1_555
O0 P0 1.513731 1_555
O1 P1 1.513731 1_555
O2 P2 1.513731 1_555
O3 P3 1.513731 1_555
O4 P4 1.513731 1_555
O5 P5 1.513731 1_555
O6 P5 1.564066 1_565
O6 Ta0 1.956518 1_665
O7 P3 1.564066 1_555
O7 Ta0 1.956518 1_555
O8 P4 1.564066 1_455
O8 Ta0 1.956518 1_565
O9 P1 1.564066 1_555
O9 Ta1 1.956518 1_665
O10 P2 1.564066 1_455
O10 Ta1 1.956518 1_555
O11 P0 1.564066 1_565
O11 Ta1 1.956518 1_565
O12 P6 1.513731 1_555
O13 P7 1.513731 1_555
O14 P8 1.513731 1_555
O15 P9 1.513731 1_555
O16 P10 1.513731 1_555
O17 P11 1.513731 1_555
O18 P11 1.564066 1_555
O18 Ta2 1.956518 1_554
O19 P9 1.564066 1_555
O19 Ta2 1.956518 1_554
O20 P10 1.564066 1_555
O20 Ta2 1.956518 1_554
O21 P7 1.564066 1_555
O21 Ta3 1.956518 1_555
O22 P8 1.564066 1_555
O22 Ta3 1.956518 1_555
O23 P6 1.564066 1_555
O23 Ta3 1.956518 1_555
O24 P12 1.513731 1_555
O25 P13 1.513731 1_555
O26 P14 1.513731 1_555
O27 P15 1.513731 1_555
O28 P16 1.513731 1_555
O29 P17 1.513731 1_555
O30 P17 1.564066 1_555
O30 Ta4 1.956518 1_555
O31 P15 1.564066 1_555
O31 Ta4 1.956518 1_555
O32 P16 1.564066 1_555
O32 Ta4 1.956518 1_555
O33 P13 1.564066 1_555
O33 Ta5 1.956518 1_555
O34 P14 1.564066 1_555
O34 Ta5 1.956518 1_555
O35 P12 1.564066 1_555
O35 Ta5 1.956518 1_555
O36 P17 1.515898 1_555
O37 P15 1.515906 1_555
O38 P16 1.515903 1_555
O39 P13 1.515906 1_555
O40 P14 1.515898 1_555
O41 P12 1.515903 1_555
O42 P6 1.575248 1_555
O42 Ta0 1.982914 1_655
O43 P7 1.575256 1_555
O43 Ta0 1.982914 1_555
O44 P8 1.575253 1_555
O44 Ta0 1.982914 1_665
O45 P9 1.575256 1_555
O45 Ta1 1.982914 1_665
O46 P10 1.575248 1_555
O46 Ta1 1.982914 1_655
O47 P11 1.575253 1_555
O47 Ta1 1.982914 1_555
O48 P5 1.515898 1_555
O49 P3 1.515906 1_555
O50 P4 1.515903 1_555
O51 P1 1.515906 1_555
O52 P2 1.515898 1_555
O53 P0 1.515903 1_555
O54 P12 1.575260 1_555
O54 Ta2 1.982914 1_555
O55 P13 1.575243 1_655
O55 Ta2 1.982914 1_555
O56 P14 1.575250 1_545
O56 Ta2 1.982914 1_555
O57 P15 1.575243 1_545
O57 Ta3 1.982914 1_555
O58 P16 1.575260 1_555
O58 Ta3 1.982914 1_555
O59 P17 1.575250 1_655
O59 Ta3 1.982914 1_555
O60 P11 1.515908 1_555
O61 P9 1.515891 1_455
O62 P10 1.515898 1_565
O63 P7 1.515891 1_565
O64 P8 1.515908 1_555
O65 P6 1.515898 1_455
O66 P0 1.575248 1_565
O66 Ta4 1.982914 1_555
O67 P1 1.575256 1_555
O67 Ta4 1.982914 1_555
O68 P2 1.575253 1_455
O68 Ta4 1.982914 1_555
O69 P3 1.575256 1_555
O69 Ta5 1.982914 1_555
O70 P4 1.575248 1_455
O70 Ta5 1.982914 1_555
O71 P5 1.575253 1_565
O71 Ta5 1.982914 1_555
