# generated using pymatgen
data_Sm(MnGe)2
_symmetry_space_group_name_H-M   'P 1'
_cell_length_a   4.13390528
_cell_length_b   4.13390530
_cell_length_c   6.26644581
_cell_angle_alpha   109.29168580
_cell_angle_beta   109.29168702
_cell_angle_gamma   89.97860678
_symmetry_Int_Tables_number   1
_chemical_formula_structural   Sm(MnGe)2
_chemical_formula_sum   'Sm1 Mn2 Ge2'
_cell_volume   94.68592032
_cell_formula_units_Z   1
loop_
 _symmetry_equiv_pos_site_id
 _symmetry_equiv_pos_as_xyz
  1  'x, y, z'
loop_
 _atom_site_type_symbol
 _atom_site_label
 _atom_site_symmetry_multiplicity
 _atom_site_fract_x
 _atom_site_fract_y
 _atom_site_fract_z
 _atom_site_occupancy
  Sm  Sm0  1  0.00000011  0.00000019  0.00000012  1
  Mn  Mn0  1  0.25036123  0.74963872  0.50000000  1
  Mn  Mn1  1  0.74963879  0.25036099  0.49999995  1
  Ge  Ge0  1  0.61370904  0.61370913  0.22704255  1
  Ge  Ge1  1  0.38629082  0.38629096  0.77295738  1
loop_
_geom_bond_atom_site_label_1
_geom_bond_atom_site_label_2
_geom_bond_distance
_geom_bond_site_symmetry_2
Mn0 Sm0 3.454800 1_555
Mn0 Sm0 3.454802 1_666
Mn0 Sm0 3.458122 1_565
Mn0 Sm0 3.458123 1_566
Mn1 Sm0 3.454801 1_555
Mn1 Sm0 3.454803 1_666
Mn1 Sm0 3.458122 1_655
Mn1 Sm0 3.458122 1_656
Ge0 Ge1 2.515948 1_554
Ge0 Mn0 2.561155 1_555
Ge0 Mn1 2.561156 1_555
Ge0 Mn1 2.561179 1_565
Ge0 Mn0 2.561180 1_655
Ge0 Sm0 3.181807 1_565
Ge0 Sm0 3.181807 1_655
Ge0 Sm0 3.182558 1_665
Ge0 Sm0 3.183060 1_555
Ge1 Mn0 2.561155 1_555
Ge1 Mn1 2.561156 1_555
Ge1 Mn1 2.561179 1_455
Ge1 Mn0 2.561180 1_545
Ge1 Sm0 3.181807 1_566
Ge1 Sm0 3.181807 1_656
Ge1 Sm0 3.182558 1_556
Ge1 Sm0 3.183062 1_666
