# generated using pymatgen
data_Y2MgV2O7
_symmetry_space_group_name_H-M   'P 1'
_cell_length_a   5.93457410
_cell_length_b   5.93457317
_cell_length_c   5.47783244
_cell_angle_alpha   83.04138709
_cell_angle_beta   96.95852943
_cell_angle_gamma   66.04780177
_symmetry_Int_Tables_number   1
_chemical_formula_structural   Y2MgV2O7
_chemical_formula_sum   'Y2 Mg1 V2 O7'
_cell_volume   171.89923045
_cell_formula_units_Z   1
loop_
 _symmetry_equiv_pos_site_id
 _symmetry_equiv_pos_as_xyz
  1  'x, y, z'
loop_
 _atom_site_type_symbol
 _atom_site_label
 _atom_site_symmetry_multiplicity
 _atom_site_fract_x
 _atom_site_fract_y
 _atom_site_fract_z
 _atom_site_occupancy
  Y  Y0  1  0.31505800  0.31505700  0.50000000  1
  Y  Y1  1  0.66822900  0.66822700  0.50000100  1
  Mg  Mg0  1  0.78913000  0.78913600  0.00000100  1
  V  V0  1  0.26009300  0.74085100  0.88531600  1
  V  V1  1  0.74085300  0.26009400  0.11468400  1
  O  O0  1  0.03283800  0.60574400  0.72856100  1
  O  O1  1  0.45117300  0.92809700  0.74818900  1
  O  O2  1  0.43387800  0.54925500  0.22761500  1
  O  O3  1  0.54925500  0.43387600  0.77238600  1
  O  O4  1  0.98606700  0.98606800  0.99999900  1
  O  O5  1  0.60574600  0.03283700  0.27143800  1
  O  O6  1  0.92809700  0.45117500  0.25181000  1
loop_
_geom_bond_atom_site_label_1
_geom_bond_atom_site_label_2
_geom_bond_distance
_geom_bond_site_symmetry_2
Mg0 O4 1.959815 1_554
Mg0 O1 2.077599 1_554
Mg0 O6 2.077604 1_555
Mg0 O5 2.263200 1_565
Mg0 O0 2.263249 1_654
O0 V0 1.990812 1_555
O0 Y1 2.228604 1_455
O0 Y0 2.456451 1_555
O1 V0 2.027868 1_555
O1 Y1 2.281540 1_555
O1 Y0 2.290353 1_565
O2 V0 1.983694 1_554
O2 V1 2.153668 1_555
O2 Y0 2.281109 1_555
O2 Y1 2.282283 1_555
O3 V1 1.983690 1_556
O3 V0 2.153668 1_555
O3 Y0 2.281107 1_555
O3 Y1 2.282286 1_555
O4 V1 1.924722 1_566
O4 V0 1.924724 1_655
O5 V1 1.990818 1_555
O5 Y1 2.228614 1_545
O5 Y0 2.456457 1_555
O6 V1 2.027863 1_555
O6 Y1 2.281537 1_555
O6 Y0 2.290360 1_655
