# generated using pymatgen
data_Bi4B2O9
_symmetry_space_group_name_H-M   'P 1'
_cell_length_a   6.57010976
_cell_length_b   11.07295662
_cell_length_c   11.14115447
_cell_angle_alpha   89.38560555
_cell_angle_beta   90.00000000
_cell_angle_gamma   90.00000000
_symmetry_Int_Tables_number   1
_chemical_formula_structural   Bi4B2O9
_chemical_formula_sum   'Bi16 B8 O36'
_cell_volume   810.47840905
_cell_formula_units_Z   4
loop_
 _symmetry_equiv_pos_site_id
 _symmetry_equiv_pos_as_xyz
  1  'x, y, z'
loop_
 _atom_site_type_symbol
 _atom_site_label
 _atom_site_symmetry_multiplicity
 _atom_site_fract_x
 _atom_site_fract_y
 _atom_site_fract_z
 _atom_site_occupancy
  Bi  Bi0  1  0.94213500  0.01964500  0.34384120  1
  Bi  Bi1  1  0.44213500  0.48035500  0.65615880  1
  Bi  Bi2  1  0.05786500  0.98035500  0.65615880  1
  Bi  Bi3  1  0.55786500  0.51964500  0.34384120  1
  Bi  Bi4  1  0.92736593  0.34043441  0.50208733  1
  Bi  Bi5  1  0.42736593  0.15956559  0.49791267  1
  Bi  Bi6  1  0.07263407  0.65956559  0.49791267  1
  Bi  Bi7  1  0.57263407  0.84043441  0.50208733  1
  Bi  Bi8  1  0.54411213  0.00866031  0.80475249  1
  Bi  Bi9  1  0.04411213  0.49133969  0.19524751  1
  Bi  Bi10  1  0.45588787  0.99133969  0.19524751  1
  Bi  Bi11  1  0.95588787  0.50866031  0.80475249  1
  Bi  Bi12  1  0.98166043  0.15357552  0.99075102  1
  Bi  Bi13  1  0.48166043  0.34642448  0.00924898  1
  Bi  Bi14  1  0.01833957  0.84642448  0.00924898  1
  Bi  Bi15  1  0.51833957  0.65357552  0.99075102  1
  B  B0  1  0.75357503  0.24503686  0.22374846  1
  B  B1  1  0.25357503  0.25496314  0.77625154  1
  B  B2  1  0.24642497  0.75496314  0.77625154  1
  B  B3  1  0.74642497  0.74503686  0.22374846  1
  B  B4  1  0.73431749  0.23428481  0.74981612  1
  B  B5  1  0.23431749  0.26571519  0.25018388  1
  B  B6  1  0.26568251  0.76571519  0.25018388  1
  B  B7  1  0.76568251  0.73428481  0.74981612  1
  O  O0  1  0.81507686  0.34207719  0.71033364  1
  O  O1  1  0.31507686  0.15792281  0.28966636  1
  O  O2  1  0.18492314  0.65792281  0.28966636  1
  O  O3  1  0.68492314  0.84207719  0.71033364  1
  O  O4  1  0.82318877  0.22106078  0.33836072  1
  O  O5  1  0.32318877  0.27893922  0.66163928  1
  O  O6  1  0.73569699  0.14789704  0.14615002  1
  O  O7  1  0.17681123  0.77893922  0.66163928  1
  O  O8  1  0.90207659  0.89111187  0.49871078  1
  O  O9  1  0.40207659  0.60888813  0.50128922  1
  O  O10  1  0.09792341  0.10888813  0.50128922  1
  O  O11  1  0.59792341  0.39111187  0.49871078  1
  O  O12  1  0.89640568  0.50523994  0.38448615  1
  O  O13  1  0.39640568  0.99476006  0.61551385  1
  O  O14  1  0.10359432  0.49476006  0.61551385  1
  O  O15  1  0.60359432  0.00523994  0.38448615  1
  O  O16  1  0.84061753  0.71722445  0.86350965  1
  O  O17  1  0.34061753  0.78277555  0.13649035  1
  O  O18  1  0.15938247  0.28277555  0.13649035  1
  O  O19  1  0.65938247  0.21722445  0.86350965  1
  O  O20  1  0.84269091  0.98605164  0.92078147  1
  O  O21  1  0.34269091  0.51394836  0.07921853  1
  O  O22  1  0.15730909  0.01394836  0.07921853  1
  O  O23  1  0.65730909  0.48605164  0.92078147  1
  O  O24  1  0.79241199  0.86071081  0.18642422  1
  O  O25  1  0.29241199  0.63928919  0.81357578  1
  O  O26  1  0.20758801  0.13928919  0.81357578  1
  O  O27  1  0.70758801  0.36071081  0.18642422  1
  O  O28  1  0.77271649  0.63405427  0.67500842  1
  O  O29  1  0.27271649  0.86594573  0.32499158  1
  O  O30  1  0.22728351  0.36594573  0.32499158  1
  O  O31  1  0.72728351  0.13405427  0.67500842  1
  O  O32  1  0.76430301  0.64789704  0.14615002  1
  O  O33  1  0.26430301  0.85210296  0.85384998  1
  O  O34  1  0.23569699  0.35210296  0.85384998  1
  O  O35  1  0.67681123  0.72106078  0.33836072  1
loop_
_geom_bond_atom_site_label_1
_geom_bond_atom_site_label_2
_geom_bond_distance
_geom_bond_site_symmetry_2
Bi0 O8 2.240383 1_545
Bi0 O10 2.266801 1_655
Bi0 O15 2.275134 1_555
Bi0 O4 2.363394 1_555
Bi0 O24 2.684555 1_545
Bi0 O29 2.768690 1_645
Bi1 O9 2.240383 1_555
Bi1 O11 2.266801 1_555
Bi1 O14 2.275134 1_555
Bi1 O5 2.363394 1_555
Bi1 O25 2.684555 1_555
Bi1 O28 2.768690 1_555
Bi2 O10 2.240383 1_565
Bi2 O8 2.266801 1_455
Bi2 O13 2.275134 1_555
Bi2 O7 2.363394 1_555
Bi2 O26 2.684555 1_565
Bi2 O31 2.768690 1_465
Bi3 O11 2.240383 1_555
Bi3 O9 2.266801 1_555
Bi3 O12 2.275134 1_555
Bi3 O35 2.363394 1_555
Bi3 O27 2.684555 1_555
Bi3 O30 2.768690 1_555
Bi4 O11 2.236246 1_555
Bi4 O12 2.244317 1_555
Bi4 O4 2.365322 1_555
Bi4 O14 2.429812 1_655
Bi4 O0 2.434830 1_555
Bi4 O10 2.798189 1_655
Bi4 O30 2.800645 1_655
Bi5 O10 2.236246 1_555
Bi5 O13 2.244317 1_545
Bi5 O5 2.365322 1_555
Bi5 O15 2.429812 1_555
Bi5 O1 2.434830 1_555
Bi5 O11 2.798189 1_555
Bi5 O31 2.800645 1_555
Bi6 O9 2.236246 1_555
Bi6 O14 2.244317 1_555
Bi6 O7 2.365322 1_555
Bi6 O12 2.429812 1_455
Bi6 O2 2.434830 1_555
Bi6 O8 2.798189 1_455
Bi6 O28 2.800645 1_455
Bi7 O8 2.236246 1_555
Bi7 O15 2.244317 1_565
Bi7 O35 2.365322 1_555
Bi7 O13 2.429812 1_555
Bi7 O3 2.434830 1_555
Bi7 O9 2.798189 1_555
Bi7 O29 2.800645 1_555
Bi8 O3 2.325188 1_545
Bi8 O13 2.327553 1_545
Bi8 O31 2.328650 1_555
Bi8 O20 2.361153 1_545
Bi8 O19 2.523478 1_555
Bi8 O33 2.581416 1_545
Bi8 O26 2.644513 1_555
Bi9 O2 2.325188 1_555
Bi9 O12 2.327553 1_455
Bi9 O30 2.328650 1_555
Bi9 O21 2.361153 1_555
Bi9 O18 2.523478 1_555
Bi9 O32 2.581416 1_455
Bi9 O27 2.644513 1_455
Bi10 O1 2.325188 1_565
Bi10 O15 2.327553 1_565
Bi10 O29 2.328650 1_555
Bi10 O22 2.361153 1_565
Bi10 O17 2.523478 1_555
Bi10 O6 2.581416 1_565
Bi10 O24 2.644513 1_555
Bi11 O0 2.325188 1_555
Bi11 O14 2.327553 1_655
Bi11 O28 2.328650 1_555
Bi11 O23 2.361153 1_555
Bi11 O16 2.523478 1_555
Bi11 O34 2.581416 1_655
Bi11 O25 2.644513 1_655
Bi12 O22 2.158924 1_656
Bi12 O20 2.216600 1_545
Bi12 O6 2.368666 1_556
Bi12 O18 2.469077 1_656
Bi12 O26 2.476186 1_655
Bi12 O19 2.639757 1_555
Bi13 O23 2.158924 1_554
Bi13 O21 2.216600 1_555
Bi13 O34 2.368666 1_554
Bi13 O19 2.469077 1_554
Bi13 O27 2.476186 1_555
Bi13 O18 2.639757 1_555
Bi14 O20 2.158924 1_454
Bi14 O22 2.216600 1_565
Bi14 O33 2.368666 1_554
Bi14 O16 2.469077 1_454
Bi14 O24 2.476186 1_455
Bi14 O17 2.639757 1_555
Bi15 O21 2.158924 1_556
Bi15 O23 2.216600 1_555
Bi15 O32 2.368666 1_556
Bi15 O17 2.469077 1_556
Bi15 O25 2.476186 1_555
Bi15 O16 2.639757 1_555
B0 O27 1.375997 1_555
B0 O4 1.379459 1_555
B0 O6 1.392168 1_555
B1 O26 1.375997 1_555
B1 O5 1.379459 1_555
B1 O34 1.392168 1_555
B2 O25 1.375997 1_555
B2 O7 1.379459 1_555
B2 O33 1.392168 1_555
B3 O24 1.375997 1_555
B3 O35 1.379459 1_555
B3 O32 1.392168 1_555
B4 O19 1.370188 1_555
B4 O0 1.374192 1_555
B4 O31 1.395839 1_555
B5 O18 1.370188 1_555
B5 O1 1.374192 1_555
B5 O30 1.395839 1_555
B6 O17 1.370188 1_555
B6 O2 1.374192 1_555
B6 O29 1.395839 1_555
B7 O16 1.370188 1_555
B7 O3 1.374192 1_555
B7 O28 1.395839 1_555
