# generated using pymatgen
data_Na42Ta8Zn16Si21(S5O48)3
_symmetry_space_group_name_H-M   'P 1'
_cell_length_a   18.31152010
_cell_length_b   9.10684405
_cell_length_c   22.34329885
_cell_angle_alpha   89.94886928
_cell_angle_beta   90.08083676
_cell_angle_gamma   119.91337274
_symmetry_Int_Tables_number   1
_chemical_formula_structural   Na42Ta8Zn16Si21(S5O48)3
_chemical_formula_sum   'Na42 Ta8 Zn16 Si21 S15 O144'
_cell_volume   3229.59616983
_cell_formula_units_Z   1
loop_
 _symmetry_equiv_pos_site_id
 _symmetry_equiv_pos_as_xyz
  1  'x, y, z'
loop_
 _atom_site_type_symbol
 _atom_site_label
 _atom_site_symmetry_multiplicity
 _atom_site_fract_x
 _atom_site_fract_y
 _atom_site_fract_z
 _atom_site_occupancy
  Na  Na0  1  0.32075555  0.02837847  0.24693891  1
  Na  Na1  1  0.82499046  0.01632882  0.24851036  1
  Na  Na2  1  0.98911040  0.63330431  0.25123868  1
  Na  Na3  1  0.32434249  0.62880931  0.74400871  1
  Na  Na4  1  0.82222349  0.61678954  0.74331941  1
  Na  Na5  1  0.48787408  0.34774637  0.74848270  1
  Na  Na6  1  0.15930215  0.35463598  0.58019306  1
  Na  Na7  1  0.66006437  0.35018395  0.58719226  1
  Na  Na8  1  0.01719723  0.67522078  0.58367706  1
  Na  Na9  1  0.51004527  0.68221401  0.57033326  1
  Na  Na10  1  0.32047486  0.95339912  0.57942126  1
  Na  Na11  1  0.83081858  0.97154407  0.57154063  1
  Na  Na12  1  0.15993433  0.96918595  0.08578039  1
  Na  Na13  1  0.65690325  0.95502871  0.08398649  1
  Na  Na14  1  0.32867292  0.68541286  0.07000020  1
  Na  Na15  1  0.82633349  0.70230117  0.07503248  1
  Na  Na16  1  0.01277951  0.33838905  0.07039087  1
  Na  Na17  1  0.50666404  0.34899655  0.08274527  1
  Na  Na18  1  0.47356618  0.66779116  0.91480926  1
  Na  Na19  1  0.97400073  0.65992106  0.90682546  1
  Na  Na20  1  0.35393059  0.02666278  0.91682248  1
  Na  Na21  1  0.85814525  0.04189025  0.92256539  1
  Na  Na22  1  0.16785885  0.30903195  0.91694293  1
  Na  Na23  1  0.66900487  0.29310270  0.90773531  1
  Na  Na24  1  0.47052533  0.28862836  0.41111365  1
  Na  Na25  1  0.97450887  0.28033687  0.41836340  1
  Na  Na26  1  0.17210428  0.05070792  0.41809415  1
  Na  Na27  1  0.66734488  0.02319006  0.42051072  1
  Na  Na28  1  0.35634445  0.67077218  0.42767238  1
  Na  Na29  1  0.85373519  0.68131295  0.42045532  1
  Na  Na30  1  0.99434253  0.00558085  0.49361979  1
  Na  Na31  1  0.49156248  0.97904305  0.49353452  1
  Na  Na32  1  0.99452571  0.00544204  0.99154517  1
  Na  Na33  1  0.48951942  0.97728786  0.99171599  1
  Na  Na34  1  0.33264402  0.33081403  0.82640584  1
  Na  Na35  1  0.83870570  0.34091562  0.82614078  1
  Na  Na36  1  0.33794778  0.33322458  0.33071776  1
  Na  Na37  1  0.83302400  0.33422997  0.33076424  1
  Na  Na38  1  0.17076779  0.66895155  0.16094752  1
  Na  Na39  1  0.66136132  0.66102646  0.16401043  1
  Na  Na40  1  0.16268648  0.67414180  0.65907141  1
  Na  Na41  1  0.67081640  0.67235016  0.65878069  1
  Ta  Ta0  1  0.00221333  0.98947736  0.64269365  1
  Ta  Ta1  1  0.49569649  0.98884825  0.65523102  1
  Ta  Ta2  1  0.99665373  0.00444001  0.15501187  1
  Ta  Ta3  1  0.49668831  0.00410242  0.14672968  1
  Ta  Ta4  1  0.16766347  0.67788703  0.31114808  1
  Ta  Ta5  1  0.66465138  0.66631732  0.31330644  1
  Ta  Ta6  1  0.16523391  0.66202170  0.81162482  1
  Ta  Ta7  1  0.66887341  0.65882405  0.81012315  1
  Zn  Zn0  1  0.99078666  0.99229389  0.33996335  1
  Zn  Zn1  1  0.49234679  0.99336361  0.35515292  1
  Zn  Zn2  1  0.99174241  0.99155256  0.85330272  1
  Zn  Zn3  1  0.49096087  0.98628920  0.83865395  1
  Zn  Zn4  1  0.32970118  0.32496853  0.68132836  1
  Zn  Zn5  1  0.84399593  0.36727726  0.68354154  1
  Zn  Zn6  1  0.34384658  0.32167906  0.18426991  1
  Zn  Zn7  1  0.83650574  0.33198083  0.18593161  1
  Zn  Zn8  1  0.34250053  0.35693884  0.98960334  1
  Zn  Zn9  1  0.84524418  0.33665942  0.97648156  1
  Zn  Zn10  1  0.33214868  0.33745564  0.48359403  1
  Zn  Zn11  1  0.84210313  0.32973921  0.49282763  1
  Zn  Zn12  1  0.17439279  0.66456906  0.00669502  1
  Zn  Zn13  1  0.67274898  0.68632488  0.02076071  1
  Zn  Zn14  1  0.17334664  0.67469683  0.52534709  1
  Zn  Zn15  1  0.67391692  0.68410601  0.50850648  1
  Si  Si0  1  0.14854668  0.01514124  0.25410425  1
  Si  Si1  1  0.84712989  0.69098571  0.25292615  1
  Si  Si2  1  0.00160782  0.30252600  0.25476129  1
  Si  Si3  1  0.50255982  0.29581559  0.25567476  1
  Si  Si4  1  0.64859435  0.28086277  0.75409961  1
  Si  Si5  1  0.00131555  0.70970439  0.75597727  1
  Si  Si6  1  0.50015357  0.69840840  0.75482146  1
  Si  Si7  1  0.34831213  0.00468484  0.75495562  1
  Si  Si8  1  0.98027490  0.33269754  0.58391730  1
  Si  Si9  1  0.19032733  0.04632805  0.58011834  1
  Si  Si10  1  0.33733813  0.62881123  0.58607934  1
  Si  Si11  1  0.82726712  0.62247685  0.58075359  1
  Si  Si12  1  0.48217101  0.62901608  0.08346081  1
  Si  Si13  1  0.32785845  0.03236431  0.08075230  1
  Si  Si14  1  0.83520599  0.04554467  0.08544198  1
  Si  Si15  1  0.31763858  0.66554193  0.91662822  1
  Si  Si16  1  0.81204931  0.66230142  0.92254942  1
  Si  Si17  1  0.02154121  0.37167285  0.91860267  1
  Si  Si18  1  0.31368798  0.96066500  0.42052085  1
  Si  Si19  1  0.81822516  0.96971675  0.41635493  1
  Si  Si20  1  0.51921077  0.66803566  0.41937857  1
  S  S0  1  0.64387862  0.99669992  0.25245315  1
  S  S1  1  0.35232990  0.70543363  0.25083424  1
  S  S2  1  0.14301350  0.29039199  0.75294452  1
  S  S3  1  0.85236306  0.00055071  0.75131969  1
  S  S4  1  0.48393906  0.32798939  0.58430155  1
  S  S5  1  0.68307761  0.04069913  0.58571823  1
  S  S6  1  0.98200594  0.63849467  0.08412067  1
  S  S7  1  0.18324117  0.32552911  0.08563483  1
  S  S8  1  0.68410419  0.32579996  0.08405361  1
  S  S9  1  0.52366323  0.37902083  0.91762975  1
  S  S10  1  0.16809689  0.95818516  0.91718010  1
  S  S11  1  0.66539594  0.95489808  0.91672286  1
  S  S12  1  0.16517520  0.37928481  0.41602874  1
  S  S13  1  0.66788734  0.37710142  0.41680388  1
  S  S14  1  0.02216499  0.66768306  0.41652594  1
  O  O0  1  0.10036861  0.01455084  0.31353958  1
  O  O1  1  0.60330203  0.00968496  0.30622220  1
  O  O2  1  0.39969435  0.77940816  0.30544229  1
  O  O3  1  0.90536054  0.76305015  0.31163734  1
  O  O4  1  0.49079464  0.17681469  0.31177925  1
  O  O5  1  0.98245369  0.18618063  0.31225219  1
  O  O6  1  0.10257153  0.19672024  0.80731263  1
  O  O7  1  0.60108759  0.18604963  0.81423065  1
  O  O8  1  0.48383093  0.77652355  0.81356785  1
  O  O9  1  0.98957962  0.80030455  0.81398016  1
  O  O10  1  0.40519405  0.04096968  0.81402996  1
  O  O11  1  0.89814850  0.01946374  0.80722269  1
  O  O12  1  0.40183639  0.96947438  0.69747620  1
  O  O13  1  0.89223696  0.96536896  0.69896786  1
  O  O14  1  0.09180579  0.20770168  0.69815321  1
  O  O15  1  0.58359529  0.19778599  0.69404310  1
  O  O16  1  0.01118224  0.83191239  0.69517890  1
  O  O17  1  0.51520441  0.82968123  0.69590126  1
  O  O18  1  0.39738817  0.82407235  0.19736915  1
  O  O19  1  0.90153488  0.83435245  0.19574185  1
  O  O20  1  0.01461253  0.20122110  0.19488985  1
  O  O21  1  0.51293762  0.19209339  0.19359166  1
  O  O22  1  0.08277788  0.97034455  0.19367067  1
  O  O23  1  0.59206290  0.97732761  0.19709247  1
  O  O24  1  0.44645662  0.35211827  0.63870018  1
  O  O25  1  0.93394885  0.37019122  0.63723238  1
  O  O26  1  0.25154159  0.12759968  0.63596423  1
  O  O27  1  0.73689067  0.12558433  0.63672165  1
  O  O28  1  0.32729072  0.52367998  0.64674285  1
  O  O29  1  0.80772887  0.51205634  0.64107906  1
  O  O30  1  0.43530471  0.50327591  0.13790252  1
  O  O31  1  0.94251885  0.53836653  0.13819299  1
  O  O32  1  0.31070050  0.10542566  0.14135030  1
  O  O33  1  0.82036485  0.12937245  0.14491109  1
  O  O34  1  0.23658513  0.34740673  0.13687332  1
  O  O35  1  0.73690253  0.35106965  0.13602170  1
  O  O36  1  0.21678767  0.29896180  0.02852699  1
  O  O37  1  0.71562471  0.29204769  0.02850476  1
  O  O38  1  0.42664187  0.58019171  0.02159307  1
  O  O39  1  0.93021436  0.56543509  0.02982815  1
  O  O40  1  0.35467050  0.15787543  0.02211366  1
  O  O41  1  0.85532683  0.16063387  0.02457015  1
  O  O42  1  0.21958912  0.16138100  0.51927440  1
  O  O43  1  0.71674367  0.13419284  0.52826712  1
  O  O44  1  0.36173214  0.56011603  0.52563022  1
  O  O45  1  0.85155130  0.54903451  0.52136744  1
  O  O46  1  0.43275769  0.29781868  0.52996105  1
  O  O47  1  0.92438298  0.27019621  0.52164990  1
  O  O48  1  0.27968559  0.70010205  0.97713006  1
  O  O49  1  0.76713545  0.68975911  0.98021812  1
  O  O50  1  0.07448016  0.45492337  0.98014845  1
  O  O51  1  0.57177154  0.46515353  0.97137878  1
  O  O52  1  0.15393531  0.85856645  0.97275164  1
  O  O53  1  0.65355583  0.85952805  0.97282817  1
  O  O54  1  0.26845848  0.83788728  0.47626698  1
  O  O55  1  0.77885001  0.85704327  0.47610038  1
  O  O56  1  0.15496930  0.45477599  0.47093502  1
  O  O57  1  0.65439042  0.44985561  0.47170746  1
  O  O58  1  0.07020573  0.67471685  0.46929969  1
  O  O59  1  0.57588910  0.69655630  0.47927696  1
  O  O60  1  0.06910735  0.65422250  0.35965660  1
  O  O61  1  0.57620826  0.64786510  0.36197572  1
  O  O62  1  0.25268702  0.85059631  0.35853557  1
  O  O63  1  0.75272765  0.85636056  0.35802514  1
  O  O64  1  0.16803546  0.48940108  0.36226786  1
  O  O65  1  0.67677755  0.49098252  0.36350197  1
  O  O66  1  0.07740940  0.50430777  0.86254013  1
  O  O67  1  0.57034047  0.48693266  0.86185912  1
  O  O68  1  0.17703787  0.86301727  0.86460910  1
  O  O69  1  0.67156864  0.85492609  0.86458707  1
  O  O70  1  0.25156383  0.64652081  0.85954246  1
  O  O71  1  0.75049588  0.64880460  0.86163117  1
  O  O72  1  0.01632164  0.82257999  0.41299633  1
  O  O73  1  0.51538561  0.84292219  0.41030126  1
  O  O74  1  0.40723226  0.98036476  0.41614347  1
  O  O75  1  0.91109942  0.98417169  0.41118939  1
  O  O76  1  0.09199125  0.20736408  0.41081903  1
  O  O77  1  0.59443286  0.20643493  0.40980208  1
  O  O78  1  0.01463121  0.18594567  0.91097010  1
  O  O79  1  0.51713468  0.21173535  0.91438256  1
  O  O80  1  0.09465111  0.98263208  0.91069880  1
  O  O81  1  0.59209058  0.97952900  0.91159337  1
  O  O82  1  0.41066198  0.83573836  0.91127846  1
  O  O83  1  0.90515182  0.83001439  0.91718608  1
  O  O84  1  0.49298182  0.16949833  0.59021138  1
  O  O85  1  0.98947600  0.16008631  0.59977899  1
  O  O86  1  0.09250737  0.02931224  0.59291255  1
  O  O87  1  0.59645337  0.02921776  0.59098166  1
  O  O88  1  0.42519318  0.83010552  0.59184358  1
  O  O89  1  0.91666558  0.81822479  0.59204339  1
  O  O90  1  0.49707685  0.82686455  0.09797899  1
  O  O91  1  0.99106887  0.81484668  0.08928296  1
  O  O92  1  0.41785445  0.01337620  0.09243114  1
  O  O93  1  0.92418112  0.02521287  0.09149694  1
  O  O94  1  0.09593117  0.16321397  0.09074603  1
  O  O95  1  0.59599131  0.16058672  0.09250107  1
  O  O96  1  0.34064424  0.16897034  0.74321810  1
  O  O97  1  0.83498396  0.13687007  0.74245933  1
  O  O98  1  0.22934805  0.32193644  0.74864235  1
  O  O99  1  0.74328776  0.32066775  0.74682825  1
  O  O100  1  0.42191246  0.51165990  0.74423164  1
  O  O101  1  0.91908438  0.52567272  0.74964069  1
  O  O102  1  0.33674669  0.53612858  0.23990883  1
  O  O103  1  0.83732640  0.51030784  0.23748695  1
  O  O104  1  0.41980906  0.31243964  0.24867000  1
  O  O105  1  0.92253763  0.33222223  0.24496542  1
  O  O106  1  0.24283205  0.16607202  0.24579068  1
  O  O107  1  0.72964890  0.14084678  0.24693926  1
  O  O108  1  0.31811029  0.48410401  0.91677852  1
  O  O109  1  0.81484765  0.48460324  0.92159934  1
  O  O110  1  0.44022122  0.36625805  0.91439151  1
  O  O111  1  0.92934758  0.35920712  0.91416808  1
  O  O112  1  0.24685816  0.12342417  0.91785467  1
  O  O113  1  0.74494046  0.11963237  0.91594899  1
  O  O114  1  0.31705043  0.14266891  0.41689252  1
  O  O115  1  0.81812610  0.15078778  0.41543720  1
  O  O116  1  0.24541055  0.37843316  0.41216451  1
  O  O117  1  0.74667421  0.37049714  0.41655032  1
  O  O118  1  0.42734176  0.49693418  0.41688241  1
  O  O119  1  0.93874718  0.51322691  0.41228279  1
  O  O120  1  0.16790702  0.47111657  0.08310047  1
  O  O121  1  0.66566084  0.46589502  0.08028875  1
  O  O122  1  0.06753700  0.66039662  0.07953688  1
  O  O123  1  0.57696631  0.65227340  0.07737658  1
  O  O124  1  0.24786250  0.83763705  0.07616002  1
  O  O125  1  0.75474086  0.85172898  0.08429066  1
  O  O126  1  0.16491268  0.84809749  0.57745454  1
  O  O127  1  0.66756921  0.86420355  0.58309406  1
  O  O128  1  0.25578835  0.65537386  0.58367633  1
  O  O129  1  0.74754287  0.65794012  0.57592412  1
  O  O130  1  0.07584958  0.49032965  0.57686262  1
  O  O131  1  0.57016361  0.47684332  0.57894891  1
  O  O132  1  0.15430087  0.82853760  0.25663370  1
  O  O133  1  0.65122111  0.83582828  0.25294440  1
  O  O134  1  0.26844760  0.70639964  0.25216218  1
  O  O135  1  0.75901931  0.70104882  0.25513097  1
  O  O136  1  0.08997241  0.49148849  0.25612426  1
  O  O137  1  0.59082796  0.48379884  0.25737234  1
  O  O138  1  0.15002381  0.46675238  0.75406462  1
  O  O139  1  0.65487564  0.48046625  0.75781091  1
  O  O140  1  0.08983185  0.69829686  0.75948702  1
  O  O141  1  0.58952621  0.68776601  0.75870877  1
  O  O142  1  0.25933170  0.81820576  0.75682588  1
  O  O143  1  0.76563987  0.83043065  0.75573724  1
loop_
_geom_bond_atom_site_label_1
_geom_bond_atom_site_label_2
_geom_bond_distance
_geom_bond_site_symmetry_2
Na0 O104 2.302954 1_555
Na0 O106 2.322393 1_555
Na0 O32 2.493333 1_555
Na0 O134 2.593726 1_545
Na0 O132 2.667972 1_545
Na0 O62 2.894985 1_545
Na1 O135 2.503072 1_545
Na1 O107 2.511852 1_555
Na1 O105 2.519459 1_555
Na1 O33 2.550924 1_555
Na1 O133 2.760554 1_545
Na1 O63 2.817942 1_545
Na1 O5 2.877306 1_555
Na1 O19 2.902762 1_545
Na2 O105 2.385419 1_555
Na2 O103 2.442791 1_555
Na2 O132 2.638359 1_655
Na2 O31 2.667816 1_555
Na2 O3 2.717565 1_555
Na2 O136 2.733000 1_655
Na2 O60 2.786162 1_655
Na2 O22 2.960710 1_655
Na3 O28 2.387067 1_555
Na3 O98 2.449092 1_555
Na3 O100 2.496285 1_555
Na3 O142 2.554188 1_555
Na3 O138 2.778586 1_555
Na3 O12 2.885645 1_555
Na3 O70 2.947977 1_555
Na3 O8 2.970995 1_555
Na4 O101 2.306815 1_555
Na4 O99 2.340942 1_555
Na4 O29 2.438908 1_555
Na4 O143 2.635960 1_555
Na4 O139 2.691521 1_555
Na5 O100 2.343909 1_555
Na5 O96 2.356809 1_555
Na5 O24 2.572588 1_555
Na5 O139 2.677344 1_555
Na5 O141 2.712323 1_555
Na5 O10 2.832399 1_555
Na5 O67 2.896550 1_555
Na5 O15 2.968726 1_555
Na6 O130 2.398077 1_555
Na6 O128 2.408803 1_555
Na6 O86 2.596053 1_555
Na6 O56 2.620114 1_555
Na6 O85 2.740154 1_455
Na6 O42 2.848695 1_555
Na6 O14 2.935643 1_555
Na7 O131 2.442765 1_555
Na7 O129 2.450822 1_555
Na7 O87 2.551831 1_555
Na7 O29 2.636767 1_555
Na7 O84 2.655575 1_555
Na7 O57 2.753513 1_555
Na7 O15 2.766193 1_555
Na7 O43 2.953695 1_555
Na8 O126 2.359607 1_555
Na8 O130 2.411714 1_555
Na8 O25 2.692190 1_455
Na8 O58 2.735800 1_555
Na8 O89 2.740871 1_455
Na8 O86 2.812088 1_565
Na8 O16 2.901536 1_555
Na8 O45 2.995610 1_455
Na9 O59 2.336522 1_555
Na9 O127 2.525643 1_555
Na9 O88 2.559212 1_555
Na9 O44 2.567531 1_555
Na9 O131 2.607521 1_555
Na9 O87 2.777807 1_565
Na10 O128 2.360448 1_555
Na10 O126 2.512199 1_555
Na10 O54 2.514908 1_555
Na10 O88 2.675839 1_555
Na10 O84 2.776310 1_565
Na10 O26 2.776949 1_565
Na10 O46 2.975716 1_565
Na10 O12 2.995132 1_555
Na11 O55 2.355586 1_555
Na11 O129 2.479441 1_555
Na11 O85 2.609255 1_565
Na11 O89 2.610844 1_555
Na11 O47 2.632032 1_565
Na11 O127 2.654352 1_555
Na12 O124 2.449303 1_555
Na12 O122 2.458578 1_555
Na12 O94 2.564039 1_565
Na12 O91 2.684949 1_455
Na12 O32 2.698055 1_565
Na12 O52 2.701503 1_554
Na12 O22 2.798553 1_555
Na12 O36 2.935660 1_565
Na13 O123 2.396069 1_555
Na13 O125 2.403251 1_555
Na13 O90 2.573006 1_555
Na13 O95 2.620758 1_565
Na13 O53 2.622764 1_554
Na13 O23 2.843833 1_555
Na13 O33 2.930137 1_565
Na13 O37 2.969545 1_565
Na14 O48 2.289591 1_554
Na14 O124 2.485422 1_555
Na14 O120 2.613800 1_555
Na14 O92 2.640865 1_565
Na14 O38 2.651068 1_555
Na14 O90 2.755651 1_555
Na15 O125 2.322463 1_555
Na15 O49 2.355095 1_554
Na15 O93 2.595825 1_565
Na15 O121 2.643490 1_555
Na15 O91 2.676878 1_555
Na15 O39 2.926521 1_555
Na15 O19 2.993351 1_555
Na16 O50 2.296741 1_554
Na16 O120 2.486882 1_555
Na16 O93 2.524569 1_455
Na16 O122 2.591211 1_555
Na16 O41 2.705737 1_455
Na16 O94 2.736722 1_555
Na17 O123 2.398616 1_555
Na17 O121 2.553819 1_555
Na17 O30 2.653113 1_555
Na17 O92 2.660011 1_555
Na17 O51 2.734558 1_554
Na17 O40 2.788013 1_555
Na17 O21 2.888849 1_555
Na17 O95 2.909414 1_555
Na18 O82 2.330015 1_555
Na18 O8 2.438105 1_555
Na18 O108 2.480801 1_555
Na18 O110 2.498245 1_555
Na18 O38 2.527048 1_556
Na18 O81 2.574866 1_555
Na19 O9 2.377484 1_555
Na19 O111 2.441597 1_555
Na19 O83 2.447795 1_555
Na19 O109 2.551936 1_555
Na19 O80 2.655099 1_655
Na19 O39 2.872323 1_556
Na20 O82 2.433092 1_545
Na20 O10 2.461028 1_555
Na20 O112 2.518842 1_555
Na20 O79 2.598351 1_555
Na20 O40 2.636538 1_556
Na20 O110 2.681447 1_555
Na20 O48 2.910971 1_545
Na21 O83 2.477018 1_545
Na21 O78 2.500273 1_655
Na21 O113 2.506581 1_555
Na21 O111 2.515493 1_555
Na21 O41 2.535121 1_556
Na21 O11 2.715771 1_555
Na22 O108 2.395145 1_555
Na22 O78 2.451386 1_555
Na22 O80 2.584190 1_545
Na22 O36 2.665000 1_556
Na22 O6 2.692968 1_555
Na22 O112 2.718237 1_555
Na22 O70 2.956404 1_555
Na22 O50 2.993219 1_555
Na23 O109 2.371262 1_555
Na23 O7 2.376751 1_555
Na23 O81 2.476767 1_545
Na23 O79 2.500125 1_555
Na23 O113 2.579242 1_555
Na23 O37 2.830511 1_556
Na24 O118 2.395291 1_555
Na24 O114 2.440601 1_555
Na24 O74 2.447765 1_545
Na24 O4 2.546358 1_555
Na24 O77 2.720908 1_555
Na24 O46 2.756806 1_555
Na25 O75 2.350566 1_545
Na25 O47 2.469382 1_555
Na25 O115 2.495281 1_555
Na25 O119 2.515937 1_555
Na25 O5 2.550780 1_555
Na25 O76 2.554441 1_655
Na26 O114 2.351585 1_555
Na26 O42 2.450939 1_555
Na26 O76 2.510000 1_555
Na26 O72 2.560304 1_545
Na26 O116 2.594406 1_555
Na26 O0 2.617745 1_555
Na27 O115 2.405645 1_555
Na27 O73 2.435720 1_545
Na27 O43 2.592877 1_555
Na27 O77 2.616342 1_555
Na27 O117 2.745749 1_555
Na27 O1 2.785578 1_555
Na27 O59 2.899595 1_545
Na27 O63 3.013477 1_545
Na28 O44 2.431106 1_555
Na28 O116 2.437218 1_555
Na28 O74 2.502557 1_555
Na28 O118 2.511750 1_555
Na28 O73 2.556994 1_555
Na28 O2 2.878438 1_555
Na28 O54 2.921583 1_555
Na29 O75 2.421429 1_555
Na29 O117 2.515619 1_555
Na29 O45 2.546336 1_555
Na29 O3 2.580822 1_555
Na29 O72 2.593740 1_655
Na29 O119 2.679132 1_555
Na29 O55 2.860833 1_555
Na30 O75 2.334510 1_545
Na30 O76 2.592837 1_655
Na30 O72 2.619316 1_645
Na30 O89 2.711463 1_545
Na30 O85 2.783073 1_555
Na30 O86 2.793186 1_655
Na31 O74 2.320720 1_555
Na31 O73 2.394004 1_555
Na31 O88 2.549442 1_555
Na31 O77 2.729324 1_565
Na31 O84 2.763421 1_565
Na31 O87 2.784448 1_565
Na32 O83 2.319558 1_545
Na32 O78 2.339186 1_655
Na32 O93 2.630443 1_556
Na32 O80 2.656604 1_645
Na32 O91 2.769421 1_546
Na32 O94 2.785368 1_656
Na33 O82 2.262118 1_555
Na33 O81 2.589246 1_555
Na33 O79 2.592083 1_565
Na33 O92 2.708104 1_566
Na33 O90 2.777627 1_556
Na33 O95 2.899467 1_566
Na34 O96 2.422712 1_555
Na34 O100 2.464442 1_555
Na34 O98 2.538044 1_555
Na34 O108 2.544400 1_555
Na34 O110 2.684296 1_555
Na34 O112 2.693090 1_555
Na35 O101 2.334718 1_555
Na35 O99 2.428525 1_555
Na35 O111 2.523222 1_555
Na35 O97 2.613997 1_555
Na35 O109 2.651417 1_555
Na35 O113 2.754458 1_555
Na36 O104 2.436165 1_555
Na36 O118 2.484118 1_555
Na36 O114 2.489775 1_555
Na36 O106 2.510566 1_555
Na36 O116 2.656747 1_555
Na36 O102 2.750517 1_555
Na37 O115 2.446571 1_555
Na37 O105 2.530001 1_555
Na37 O119 2.563285 1_555
Na37 O103 2.605672 1_555
Na37 O117 2.610311 1_555
Na37 O107 2.619839 1_555
Na38 O124 2.404387 1_555
Na38 O120 2.487021 1_555
Na38 O122 2.594555 1_555
Na38 O134 2.617590 1_555
Na38 O136 2.634575 1_555
Na38 O132 2.686695 1_555
Na39 O123 2.451625 1_555
Na39 O125 2.480700 1_555
Na39 O137 2.558717 1_555
Na39 O121 2.609433 1_555
Na39 O135 2.610889 1_555
Na39 O133 2.611241 1_555
Na40 O126 2.401549 1_555
Na40 O130 2.459047 1_555
Na40 O128 2.464287 1_555
Na40 O140 2.676564 1_555
Na40 O142 2.702256 1_555
Na40 O138 2.771842 1_555
Na41 O129 2.368570 1_555
Na41 O127 2.452348 1_555
Na41 O131 2.544028 1_555
Na41 O143 2.698561 1_555
Na41 O141 2.727435 1_555
Na41 O139 2.742418 1_555
O0 Si0 1.593872 1_555
O0 Zn0 2.003401 1_445
O1 S0 1.449060 1_545
O1 Zn1 2.247256 1_545
O2 S1 1.452756 1_555
O2 Zn1 2.147104 1_555
O3 Si1 1.608770 1_555
O3 Zn0 1.987049 1_555
O4 Si3 1.599298 1_555
O4 Zn1 1.943060 1_545
O5 Si2 1.588669 1_655
O5 Zn0 1.947005 1_545
O6 S2 1.456840 1_555
O6 Zn2 2.210454 1_445
O7 Si4 1.599822 1_555
O7 Zn3 2.004058 1_545
O8 Si6 1.591582 1_555
O8 Zn3 1.932206 1_555
O9 Si5 1.608116 1_655
O9 Zn2 1.934098 1_555
O10 Si7 1.609318 1_555
O10 Zn3 1.947895 1_545
O11 S3 1.464967 1_555
O11 Zn2 2.119188 1_545
O12 Si7 1.740849 1_565
O12 Ta1 1.891535 1_555
O13 S3 1.496798 1_565
O13 Ta0 2.291361 1_655
O14 S2 1.496391 1_555
O14 Ta0 2.218852 1_545
O15 Si4 1.699650 1_555
O15 Ta1 1.976772 1_545
O16 Si5 1.707058 1_555
O16 Ta0 1.921634 1_555
O17 Si6 1.705236 1_555
O17 Ta1 1.888810 1_555
O18 S1 1.544827 1_555
O18 Ta3 2.074523 1_565
O19 Si1 1.741530 1_555
O19 Ta2 1.890056 1_565
O20 Si2 1.708676 1_555
O20 Ta2 1.878228 1_455
O21 Si3 1.742017 1_555
O21 Ta3 1.900016 1_555
O22 Si0 1.716529 1_565
O22 Ta2 1.952872 1_465
O23 S0 1.513783 1_555
O23 Ta3 2.189631 1_565
O24 S4 1.466266 1_555
O24 Zn4 2.239937 1_555
O25 Si8 1.596155 1_555
O25 Zn5 1.935370 1_555
O26 Si9 1.591059 1_555
O26 Zn4 1.933864 1_555
O27 S5 1.451172 1_555
O27 Zn5 2.340584 1_555
O28 Si10 1.615662 1_555
O28 Zn4 1.987699 1_555
O29 Si11 1.611231 1_555
O29 Zn5 1.987174 1_555
O30 Si12 1.596154 1_555
O30 Zn6 1.962770 1_555
O31 S6 1.468616 1_555
O31 Zn7 2.191346 1_555
O32 Si13 1.608083 1_555
O32 Zn6 1.993996 1_555
O33 Si14 1.622325 1_555
O33 Zn7 1.946844 1_555
O34 S7 1.451774 1_555
O34 Zn6 2.342394 1_555
O35 S8 1.453045 1_555
O35 Zn7 2.215963 1_555
O36 S7 1.488288 1_555
O36 Zn8 2.264262 1_554
O37 S8 1.465510 1_555
O37 Zn9 2.488970 1_554
O38 Si12 1.639715 1_555
O38 Zn8 1.973210 1_554
O39 S6 1.477331 1_555
O39 Zn9 2.224483 1_554
O40 Si13 1.644240 1_555
O40 Zn8 2.064901 1_554
O41 Si14 1.642495 1_555
O41 Zn9 2.012420 1_554
O42 Si9 1.634811 1_555
O42 Zn10 2.039857 1_555
O43 S5 1.493151 1_555
O43 Zn11 2.234534 1_555
O44 Si10 1.642267 1_555
O44 Zn10 2.047850 1_555
O45 Si11 1.644863 1_555
O45 Zn11 2.020463 1_555
O46 S4 1.472602 1_555
O46 Zn10 2.292352 1_555
O47 Si8 1.650284 1_555
O47 Zn11 1.946867 1_555
O48 Si15 1.622040 1_555
O48 Zn12 1.907740 1_556
O49 Si16 1.614891 1_555
O49 Zn13 1.938874 1_556
O50 Si17 1.634194 1_555
O50 Zn12 1.964502 1_556
O51 S9 1.463921 1_555
O51 Zn13 2.230904 1_556
O52 S10 1.481970 1_555
O52 Zn12 2.119823 1_556
O53 S11 1.477770 1_555
O53 Zn13 2.075408 1_556
O54 Si18 1.601356 1_555
O54 Zn14 1.966071 1_555
O55 Si19 1.617748 1_555
O55 Zn15 1.918427 1_555
O56 S12 1.463854 1_555
O56 Zn14 2.221129 1_555
O57 S13 1.473281 1_555
O57 Zn15 2.143897 1_555
O58 S14 1.452360 1_555
O58 Zn14 2.264718 1_555
O59 Si20 1.632050 1_555
O59 Zn15 1.964966 1_555
O60 S14 1.573823 1_555
O60 Ta4 2.023692 1_555
O61 Si20 1.721474 1_555
O61 Ta5 1.888604 1_555
O62 Si18 1.746988 1_555
O62 Ta4 1.890714 1_555
O63 Si19 1.722148 1_555
O63 Ta5 1.951758 1_555
O64 S12 1.548188 1_555
O64 Ta4 2.063780 1_555
O65 S13 1.533090 1_555
O65 Ta5 2.050968 1_555
O66 Si17 1.686147 1_555
O66 Ta6 1.908362 1_555
O67 S9 1.553108 1_555
O67 Ta7 2.056153 1_555
O68 S10 1.517079 1_555
O68 Ta6 2.099342 1_555
O69 S11 1.517734 1_555
O69 Ta7 2.142061 1_555
O70 Si15 1.705226 1_555
O70 Ta6 1.970470 1_555
O71 Si16 1.730887 1_555
O71 Ta7 1.922942 1_555
O72 S14 1.468960 1_555
O72 Zn0 2.446279 1_455
O73 Si20 1.641118 1_555
O73 Zn1 2.036003 1_555
O74 Si18 1.633967 1_555
O74 Zn1 2.030245 1_555
O75 Si19 1.643217 1_555
O75 Zn0 2.136830 1_555
O76 S12 1.472397 1_555
O76 Zn0 2.480716 1_445
O77 S13 1.471083 1_555
O77 Zn1 2.265080 1_545
O78 Si17 1.641002 1_555
O78 Zn2 2.057266 1_445
O79 S9 1.469340 1_555
O79 Zn3 2.516023 1_545
O80 S10 1.475579 1_555
O80 Zn2 2.312551 1_455
O81 S11 1.471440 1_555
O81 Zn3 2.488786 1_555
O82 Si15 1.638653 1_555
O82 Zn3 2.160313 1_555
O83 Si16 1.629975 1_555
O83 Zn2 2.095667 1_555
O84 S4 1.538212 1_555
O84 Ta1 2.212823 1_545
O85 Si8 1.699408 1_555
O85 Ta0 1.935449 1_645
O86 Si9 1.743206 1_555
O86 Ta0 1.873175 1_545
O87 S5 1.541411 1_555
O87 Ta1 2.220365 1_545
O88 Si10 1.738853 1_555
O88 Ta1 1.974719 1_555
O89 Si11 1.735036 1_555
O89 Ta0 1.930909 1_655
O90 Si12 1.713595 1_555
O90 Ta3 1.950994 1_565
O91 S6 1.534458 1_555
O91 Ta2 2.230779 1_565
O92 Si13 1.759746 1_555
O92 Ta3 1.918168 1_555
O93 Si14 1.734163 1_555
O93 Ta2 2.013822 1_555
O94 S7 1.548313 1_555
O94 Ta2 2.199852 1_455
O95 S8 1.575371 1_555
O95 Ta3 2.055249 1_555
O96 Si7 1.592354 1_555
O96 Zn4 2.061611 1_555
O97 S3 1.440507 1_555
O97 Zn5 2.411079 1_555
O98 S2 1.462355 1_555
O98 Zn4 2.365753 1_555
O99 Si4 1.593192 1_555
O99 Zn5 2.192262 1_555
O100 Si6 1.603291 1_555
O100 Zn4 2.202577 1_555
O101 Si5 1.605939 1_655
O101 Zn5 2.042638 1_555
O102 S1 1.442197 1_555
O102 Zn6 2.373692 1_555
O103 Si1 1.601505 1_555
O103 Zn7 1.985812 1_555
O104 Si3 1.603626 1_555
O104 Zn6 2.030582 1_555
O105 Si2 1.614616 1_655
O105 Zn7 2.052385 1_555
O106 Si0 1.593163 1_555
O106 Zn6 2.169893 1_555
O107 S0 1.465971 1_545
O107 Zn7 2.307138 1_555
O108 Si15 1.656652 1_555
O108 Zn8 2.167640 1_555
O109 Si16 1.644580 1_555
O109 Zn9 2.090884 1_555
O110 S9 1.475111 1_555
O110 Zn8 2.426929 1_555
O111 Si17 1.637419 1_655
O111 Zn9 2.010611 1_555
O112 S10 1.476515 1_545
O112 Zn8 2.538317 1_555
O113 S11 1.480922 1_545
O113 Zn9 2.342260 1_555
O114 Si18 1.629600 1_545
O114 Zn10 2.226798 1_555
O115 Si19 1.650000 1_545
O115 Zn11 2.264478 1_555
O116 S12 1.475764 1_555
O116 Zn10 2.406668 1_555
O117 S13 1.473642 1_555
O117 Zn11 2.594864 1_555
O118 Si20 1.626822 1_555
O118 Zn10 2.201828 1_555
O119 S14 1.475692 1_655
O119 Zn11 2.493384 1_555
O120 S7 1.486956 1_555
O120 Zn12 2.412202 1_555
O121 S8 1.475920 1_555
O121 Zn13 2.356157 1_555
O122 S6 1.480578 1_455
O122 Zn12 2.532519 1_555
O123 Si12 1.646337 1_555
O123 Zn13 2.058081 1_555
O124 Si13 1.646237 1_565
O124 Zn12 2.141640 1_555
O125 Si14 1.641091 1_565
O125 Zn13 2.068867 1_555
O126 Si9 1.625192 1_565
O126 Zn14 2.029784 1_555
O127 S5 1.487421 1_565
O127 Zn15 2.382520 1_555
O128 Si10 1.628306 1_555
O128 Zn14 2.065783 1_555
O129 Si11 1.648305 1_555
O129 Zn15 2.111284 1_555
O130 Si8 1.625766 1_455
O130 Zn14 2.084209 1_555
O131 S4 1.486730 1_555
O131 Zn15 2.464942 1_555
O132 Si0 1.755152 1_565
O132 Ta4 1.938227 1_555
O133 S0 1.536537 1_555
O133 Ta5 2.153247 1_555
O134 S1 1.540746 1_555
O134 Ta4 2.176833 1_555
O135 Si1 1.661841 1_555
O135 Ta5 2.058187 1_555
O136 Si2 1.674285 1_555
O136 Ta4 2.001764 1_555
O137 Si3 1.668776 1_555
O137 Ta5 1.977365 1_555
O138 S2 1.546302 1_555
O138 Ta6 2.098326 1_555
O139 Si4 1.765237 1_555
O139 Ta7 1.912441 1_555
O140 Si5 1.676821 1_555
O140 Ta6 1.955072 1_555
O141 Si6 1.689085 1_555
O141 Ta7 1.968998 1_555
O142 Si7 1.667589 1_565
O142 Ta6 2.012371 1_555
O143 S3 1.574209 1_565
O143 Ta7 2.073518 1_555
