# generated using pymatgen
data_Sr4Zn3F14
_symmetry_space_group_name_H-M   'P 1'
_cell_length_a   6.75415152
_cell_length_b   6.75415767
_cell_length_c   7.12313619
_cell_angle_alpha   89.99988321
_cell_angle_beta   89.99985789
_cell_angle_gamma   119.99806076
_symmetry_Int_Tables_number   1
_chemical_formula_structural   Sr4Zn3F14
_chemical_formula_sum   'Sr4 Zn3 F14'
_cell_volume   281.41831592
_cell_formula_units_Z   1
loop_
 _symmetry_equiv_pos_site_id
 _symmetry_equiv_pos_as_xyz
  1  'x, y, z'
loop_
 _atom_site_type_symbol
 _atom_site_label
 _atom_site_symmetry_multiplicity
 _atom_site_fract_x
 _atom_site_fract_y
 _atom_site_fract_z
 _atom_site_occupancy
  Sr  Sr0  1  0.33333441  0.66666782  0.00000062  1
  Sr  Sr1  1  0.66666763  0.33333495  0.00000068  1
  Sr  Sr2  1  0.00000513  0.00000757  0.76230807  1
  Sr  Sr3  1  0.00000892  0.00000954  0.23769391  1
  Zn  Zn0  1  0.54448081  -0.00002390  0.49999912  1
  Zn  Zn1  1  0.45551853  0.45551442  0.49999768  1
  Zn  Zn2  1  -0.00002060  0.54447927  0.49999928  1
  F  F0  1  0.24147084  -0.00000097  0.49999989  1
  F  F1  1  -0.00000205  0.61039915  0.23164451  1
  F  F2  1  0.38960205  0.38960403  0.23164006  1
  F  F3  1  0.66664776  0.33331469  0.50000008  1
  F  F4  1  0.33331714  0.66664633  0.49999961  1
  F  F5  1  0.61040547  0.00000947  0.23164389  1
  F  F6  1  0.75854352  0.75854187  0.50000044  1
  F  F7  1  0.73292709  0.73292701  0.00000545  1
  F  F8  1  0.00000040  0.26710059  -0.00000057  1
  F  F9  1  0.26709349  -0.00000274  -0.00000396  1
  F  F10  1  0.61040054  -0.00000260  0.76835634  1
  F  F11  1  -0.00000380  0.61039926  0.76835473  1
  F  F12  1  0.38960355  0.38960516  0.76835967  1
  F  F13  1  0.00000017  0.24146907  0.50000048  1
loop_
_geom_bond_atom_site_label_1
_geom_bond_atom_site_label_2
_geom_bond_distance
_geom_bond_site_symmetry_2
F0 Zn0 2.046653 1_555
F0 Sr3 2.480109 1_555
F0 Sr2 2.480127 1_555
F1 Zn2 1.962680 1_555
F1 Sr3 2.631806 1_565
F1 Sr0 2.660874 1_555
F1 Sr1 2.660894 1_455
F2 Zn1 1.962709 1_555
F2 Sr3 2.631807 1_555
F2 Sr0 2.660816 1_555
F2 Sr1 2.660829 1_555
F3 Zn1 1.972707 1_555
F3 Zn2 1.972822 1_655
F3 Zn0 1.972848 1_555
F4 Zn1 1.972733 1_555
F4 Zn0 1.972813 1_565
F4 Zn2 1.972840 1_555
F5 Zn0 1.962678 1_555
F5 Sr3 2.631793 1_655
F5 Sr1 2.660828 1_555
F5 Sr0 2.660943 1_545
F6 Zn1 2.046746 1_555
F6 Sr3 2.480133 1_665
F6 Sr2 2.480137 1_665
F7 Sr3 2.474039 1_665
F7 Sr2 2.474057 1_664
F7 Sr1 2.505319 1_555
F7 Sr0 2.505321 1_555
F8 Sr2 2.474077 1_554
F8 Sr3 2.474087 1_555
F8 Sr1 2.505185 1_455
F8 Sr0 2.505273 1_555
F9 Sr2 2.474051 1_554
F9 Sr3 2.474079 1_555
F9 Sr0 2.505193 1_545
F9 Sr1 2.505310 1_555
F10 Zn0 1.962696 1_555
F10 Sr2 2.631767 1_655
F10 Sr0 2.660886 1_546
F10 Sr1 2.660894 1_556
F11 Zn2 1.962688 1_555
F11 Sr2 2.631798 1_565
F11 Sr1 2.660886 1_456
F11 Sr0 2.660900 1_556
F12 Zn1 1.962734 1_555
F12 Sr2 2.631836 1_555
F12 Sr0 2.660826 1_556
F12 Sr1 2.660836 1_556
F13 Zn2 2.046649 1_555
F13 Sr3 2.480098 1_555
F13 Sr2 2.480099 1_555
