# generated using pymatgen
data_KCrH18N6(ClO2)4
_symmetry_space_group_name_H-M   'P 1'
_cell_length_a   10.11396409
_cell_length_b   10.11396409
_cell_length_c   10.11396360
_cell_angle_alpha   41.31912970
_cell_angle_beta   41.31912970
_cell_angle_gamma   41.31912880
_symmetry_Int_Tables_number   1
_chemical_formula_structural   KCrH18N6(ClO2)4
_chemical_formula_sum   'K1 Cr1 H18 N6 Cl4 O8'
_cell_volume   407.41639590
_cell_formula_units_Z   1
loop_
 _symmetry_equiv_pos_site_id
 _symmetry_equiv_pos_as_xyz
  1  'x, y, z'
loop_
 _atom_site_type_symbol
 _atom_site_label
 _atom_site_symmetry_multiplicity
 _atom_site_fract_x
 _atom_site_fract_y
 _atom_site_fract_z
 _atom_site_occupancy
  K  K0  1  0.50000000  0.50000000  0.50000000  1
  Cr  Cr0  1  0.00000000  0.00000000  0.00000000  1
  H  H0  1  0.97285000  0.20226200  0.63291700  1
  H  H1  1  0.02715000  0.36708300  0.79773800  1
  H  H2  1  0.79773800  0.02715000  0.36708300  1
  H  H3  1  0.36708300  0.79773800  0.02715000  1
  H  H4  1  0.02715000  0.79773800  0.36708300  1
  H  H5  1  0.36708300  0.02715000  0.79773800  1
  H  H6  1  0.79773800  0.36708300  0.02715000  1
  H  H7  1  0.97285000  0.63291700  0.20226200  1
  H  H8  1  0.20226200  0.97285000  0.63291700  1
  H  H9  1  0.63291700  0.20226200  0.97285000  1
  H  H10  1  0.81035000  0.81035000  0.43594600  1
  H  H11  1  0.43594600  0.81035000  0.81035000  1
  H  H12  1  0.81035000  0.43594600  0.81035000  1
  H  H13  1  0.18965000  0.56405400  0.18965000  1
  H  H14  1  0.18965000  0.18965000  0.56405400  1
  H  H15  1  0.56405400  0.18965000  0.18965000  1
  H  H16  1  0.63291700  0.97285000  0.20226200  1
  H  H17  1  0.20226200  0.63291700  0.97285000  1
  N  N0  1  0.89916800  0.32758400  0.89916800  1
  N  N1  1  0.67241600  0.10083200  0.10083200  1
  N  N2  1  0.32758400  0.89916800  0.89916800  1
  N  N3  1  0.89916800  0.89916800  0.32758400  1
  N  N4  1  0.10083200  0.67241600  0.10083200  1
  N  N5  1  0.10083200  0.10083200  0.67241600  1
  Cl  Cl0  1  0.81486000  0.81486000  0.81486000  1
  Cl  Cl1  1  0.18514000  0.18514000  0.18514000  1
  Cl  Cl2  1  0.37814800  0.37814800  0.37814800  1
  Cl  Cl3  1  0.62185200  0.62185200  0.62185200  1
  O  O0  1  0.86735200  0.86735200  0.86735200  1
  O  O1  1  0.98011400  0.31477800  0.31477800  1
  O  O2  1  0.13264800  0.13264800  0.13264800  1
  O  O3  1  0.31477800  0.31477800  0.98011400  1
  O  O4  1  0.31477800  0.98011400  0.31477800  1
  O  O5  1  0.68522200  0.01988600  0.68522200  1
  O  O6  1  0.01988600  0.68522200  0.68522200  1
  O  O7  1  0.68522200  0.68522200  0.01988600  1
loop_
_geom_bond_atom_site_label_1
_geom_bond_atom_site_label_2
_geom_bond_distance
_geom_bond_site_symmetry_2
K0 O3 2.922602 1_555
K0 O7 2.922602 1_555
K0 O1 2.922602 1_555
K0 O4 2.922602 1_555
K0 O5 2.922602 1_555
K0 O6 2.922602 1_555
Cr0 N3 2.113953 1_445
Cr0 N5 2.113953 1_554
Cr0 N0 2.113953 1_454
Cr0 N2 2.113953 1_544
Cr0 N1 2.113953 1_455
Cr0 N4 2.113953 1_545
H0 N5 1.026657 1_655
H1 N0 1.026657 1_455
H2 N3 1.026657 1_545
H3 N2 1.026657 1_554
H4 N3 1.026657 1_455
H5 N2 1.026657 1_545
H6 N0 1.026657 1_554
H7 N4 1.026657 1_655
H8 N5 1.026657 1_565
H9 N1 1.026657 1_556
H10 N3 1.034167 1_555
H11 N2 1.034167 1_555
H12 N0 1.034167 1_555
H13 N4 1.034167 1_555
H14 N5 1.034167 1_555
H15 N1 1.034167 1_555
H16 N1 1.026657 1_565
H17 N4 1.026657 1_556
Cl0 O0 1.454542 1_555
Cl0 O6 1.467164 1_655
Cl0 O5 1.467164 1_565
Cl0 O7 1.467164 1_556
Cl1 O2 1.454542 1_555
Cl1 O1 1.467164 1_455
Cl1 O4 1.467164 1_545
Cl1 O3 1.467164 1_554
Cl2 K0 3.376494 1_555
Cl3 K0 3.376494 1_555
