# generated using pymatgen
data_La3MgTi2N3O4
_symmetry_space_group_name_H-M   'P 1'
_cell_length_a   5.52102254
_cell_length_b   9.93876604
_cell_length_c   3.99472528
_cell_angle_alpha   78.40239572
_cell_angle_beta   90.00414914
_cell_angle_gamma   106.30800567
_symmetry_Int_Tables_number   1
_chemical_formula_structural   La3MgTi2N3O4
_chemical_formula_sum   'La3 Mg1 Ti2 N3 O4'
_cell_volume   205.71386230
_cell_formula_units_Z   1
loop_
 _symmetry_equiv_pos_site_id
 _symmetry_equiv_pos_as_xyz
  1  'x, y, z'
loop_
 _atom_site_type_symbol
 _atom_site_label
 _atom_site_symmetry_multiplicity
 _atom_site_fract_x
 _atom_site_fract_y
 _atom_site_fract_z
 _atom_site_occupancy
  La  La0  1  0.52640515  0.00093682  0.03602548  1
  La  La1  1  0.79727927  0.37030501  0.35113633  1
  La  La2  1  0.42930554  0.63030464  0.72127083  1
  Mg  Mg0  1  0.02362667  0.99857897  0.53710045  1
  Ti  Ti0  1  0.95847691  0.77264530  0.15007913  1
  Ti  Ti1  1  0.18128025  0.22634933  0.92306586  1
  N  N0  1  0.06765069  0.99909146  0.03684743  1
  N  N1  1  0.27411157  0.74628734  0.16335668  1
  N  N2  1  0.52391376  0.25509972  0.90880564  1
  O  O0  1  0.07117998  0.21129681  0.43064174  1
  O  O1  1  0.67878697  0.58608189  0.24346073  1
  O  O2  1  0.09201514  0.41304057  0.82960662  1
  O  O3  1  0.86671111  0.78486813  0.64403008  1
loop_
_geom_bond_atom_site_label_1
_geom_bond_atom_site_label_2
_geom_bond_distance
_geom_bond_site_symmetry_2
La0 N1 2.471248 1_545
La0 N2 2.478470 1_554
La0 N0 2.527703 1_545
La0 N0 2.993428 1_645
La1 O1 2.372570 1_555
La1 O0 2.454668 1_655
La1 O2 2.533658 1_655
La1 O2 2.534816 1_654
La1 N2 2.560023 1_554
La1 N2 2.560484 1_555
La2 O2 2.384093 1_555
La2 O3 2.452147 1_555
La2 O1 2.532050 1_555
La2 O1 2.532339 1_556
La2 N1 2.559598 1_555
La2 N1 2.560302 1_556
Mg0 O0 2.011522 1_565
Mg0 O3 2.011545 1_455
Mg0 N0 2.011926 1_556
Mg0 N0 2.011935 1_555
N0 Ti0 2.112339 1_455
N0 Ti1 2.119719 1_564
N1 Ti0 1.832747 1_455
N2 Ti1 1.831196 1_555
O0 Ti1 2.080491 1_555
O0 Ti1 2.080935 1_554
O1 Ti0 2.018838 1_555
O2 Ti1 2.014963 1_555
O3 Ti0 2.072122 1_556
O3 Ti0 2.072690 1_555
