# generated using pymatgen
data_CePd5
_symmetry_space_group_name_H-M   'P 1'
_cell_length_a   4.52620000
_cell_length_b   5.33333063
_cell_length_c   5.33333000
_cell_angle_alpha   60.00000394
_cell_angle_beta   90.00000000
_cell_angle_gamma   90.00000000
_symmetry_Int_Tables_number   1
_chemical_formula_structural   CePd5
_chemical_formula_sum   'Ce1 Pd5'
_cell_volume   111.49653063
_cell_formula_units_Z   1
loop_
 _symmetry_equiv_pos_site_id
 _symmetry_equiv_pos_as_xyz
  1  'x, y, z'
loop_
 _atom_site_type_symbol
 _atom_site_label
 _atom_site_symmetry_multiplicity
 _atom_site_fract_x
 _atom_site_fract_y
 _atom_site_fract_z
 _atom_site_occupancy
  Ce  Ce0  1  0.00000000  0.00000000  0.00000000  1
  Pd  Pd0  1  0.50000000  0.50000000  0.00000000  1
  Pd  Pd1  1  0.00000000  0.66666600  0.66666700  1
  Pd  Pd2  1  0.00000000  0.33333400  0.33333300  1
  Pd  Pd3  1  0.50000000  0.50000000  0.50000000  1
  Pd  Pd4  1  0.50000000  0.00000000  0.50000000  1
loop_
_geom_bond_atom_site_label_1
_geom_bond_atom_site_label_2
_geom_bond_distance
_geom_bond_site_symmetry_2
Ce0 Pd1 3.079197 1_554
Ce0 Pd2 3.079197 1_545
Ce0 Pd2 3.079201 1_555
Ce0 Pd1 3.079201 1_544
Ce0 Pd1 3.079201 1_545
Ce0 Pd2 3.079201 1_554
Ce0 Pd4 3.497531 1_555
Ce0 Pd4 3.497531 1_554
Ce0 Pd4 3.497531 1_455
Ce0 Pd4 3.497531 1_454
Ce0 Pd3 3.497531 1_545
Ce0 Pd0 3.497531 1_445
Ce0 Pd3 3.497531 1_445
Ce0 Pd0 3.497531 1_545
Ce0 Pd0 3.497531 1_555
Ce0 Pd3 3.497531 1_454
Ce0 Pd0 3.497531 1_455
Ce0 Pd3 3.497531 1_554
Pd0 Pd3 2.666665 1_554
Pd0 Pd3 2.666665 1_555
Pd0 Pd4 2.666665 1_564
Pd0 Pd4 2.666665 1_555
Pd0 Pd1 2.737149 1_654
Pd0 Pd1 2.737149 1_554
Pd0 Pd2 2.737149 1_555
Pd0 Pd2 2.737149 1_655
Pd1 Pd3 2.737149 1_555
Pd1 Pd3 2.737149 1_455
Pd1 Pd4 2.737152 1_565
Pd1 Pd4 2.737152 1_465
Pd1 Pd2 3.079197 1_556
Pd1 Pd2 3.079197 1_555
Pd1 Pd2 3.079206 1_565
Pd2 Pd3 2.737149 1_455
Pd2 Pd3 2.737149 1_555
Pd2 Pd4 2.737152 1_555
Pd2 Pd4 2.737152 1_455
Pd3 Pd4 2.666665 1_555
Pd3 Pd4 2.666665 1_565
