# generated using pymatgen
data_Na5HfIn3(PO4)6
_symmetry_space_group_name_H-M   'P 1'
_cell_length_a   9.05852425
_cell_length_b   9.05324459
_cell_length_c   22.81623084
_cell_angle_alpha   89.89701484
_cell_angle_beta   90.00583868
_cell_angle_gamma   119.99585126
_symmetry_Int_Tables_number   1
_chemical_formula_structural   Na5HfIn3(PO4)6
_chemical_formula_sum   'Na15 Hf3 In9 P18 O72'
_cell_volume   1620.51668952
_cell_formula_units_Z   3
loop_
 _symmetry_equiv_pos_site_id
 _symmetry_equiv_pos_as_xyz
  1  'x, y, z'
loop_
 _atom_site_type_symbol
 _atom_site_label
 _atom_site_symmetry_multiplicity
 _atom_site_fract_x
 _atom_site_fract_y
 _atom_site_fract_z
 _atom_site_occupancy
  Na  Na0  1  0.63602576  0.00010553  0.25355055  1
  Na  Na1  1  0.36422868  0.36464553  0.25433463  1
  Na  Na2  1  0.99983813  0.63613950  0.25361098  1
  Na  Na3  1  0.64342121  0.63746764  0.74823261  1
  Na  Na4  1  0.99629989  0.35852400  0.74843487  1
  Na  Na5  1  0.03315962  0.70059726  0.58058606  1
  Na  Na6  1  0.66472604  0.96621074  0.58035707  1
  Na  Na7  1  0.66452627  0.69951008  0.08075939  1
  Na  Na8  1  0.03429409  0.33307624  0.08082218  1
  Na  Na9  1  0.01129401  0.01199810  0.49496649  1
  Na  Na10  1  0.01102411  0.99918952  0.99429677  1
  Na  Na11  1  0.65449206  0.32076686  0.83281269  1
  Na  Na12  1  0.66641910  0.33331307  0.33826624  1
  Na  Na13  1  0.33258216  0.67795315  0.16521219  1
  Na  Na14  1  0.33314569  0.66506424  0.66242791  1
  Hf  Hf0  1  0.66537755  0.33233019  0.97840398  1
  Hf  Hf1  1  0.66418498  0.33311045  0.47994188  1
  Hf  Hf2  1  0.33364384  0.67235500  0.81795937  1
  In  In0  1  0.99952987  0.99906358  0.35374464  1
  In  In1  1  0.00200008  0.00020604  0.85214229  1
  In  In2  1  0.00918002  0.00680841  0.64971243  1
  In  In3  1  0.00575746  0.99944279  0.14851547  1
  In  In4  1  0.65777722  0.32696218  0.68195950  1
  In  In5  1  0.66396072  0.33093661  0.18043095  1
  In  In6  1  0.33323120  0.67237582  0.01385763  1
  In  In7  1  0.33296850  0.66038386  0.51356283  1
  In  In8  1  0.33339379  0.66581717  0.32336556  1
  P  P0  1  0.29558596  -0.00140041  0.25042547  1
  P  P1  1  0.70375121  0.70440422  0.24840878  1
  P  P2  1  0.00059663  0.29643043  0.24850743  1
  P  P3  1  0.29652875  0.29871683  0.75184837  1
  P  P4  1  0.00099818  0.70310648  0.74921711  1
  P  P5  1  0.70434877  -0.00112600  0.74953916  1
  P  P6  1  0.96062936  0.33459516  0.58442373  1
  P  P7  1  0.37140933  0.03630708  0.58215760  1
  P  P8  1  0.66558002  0.62867967  0.58466126  1
  P  P9  1  0.96102316  0.62627654  0.08311970  1
  P  P10  1  0.66525467  0.03684393  0.08354875  1
  P  P11  1  0.37162270  0.33434919  0.08269817  1
  P  P12  1  0.63076773  0.66797108  0.91777859  1
  P  P13  1  0.03718546  0.36932060  0.91818175  1
  P  P14  1  0.33151640  0.96370503  0.91787114  1
  P  P15  1  0.63430247  0.96803847  0.41756188  1
  P  P16  1  0.33331104  0.36545512  0.41560535  1
  P  P17  1  0.03220261  0.66599942  0.41773192  1
  O  O0  1  0.21481852  0.03524061  0.30300772  1
  O  O1  1  0.82289148  0.78866408  0.30015913  1
  O  O2  1  0.96624018  0.17681000  0.30022422  1
  O  O3  1  0.21656991  0.18825157  0.80540511  1
  O  O4  1  0.96433578  0.78698282  0.80066034  1
  O  O5  1  0.82332659  0.03412885  0.80147989  1
  O  O6  1  0.77351799  0.95943575  0.69253126  1
  O  O7  1  0.18396454  0.22845189  0.69657211  1
  O  O8  1  0.03278324  0.80393344  0.69113800  1
  O  O9  1  0.77540304  0.80919487  0.19073901  1
  O  O10  1  0.03345629  0.22508808  0.19083060  1
  O  O11  1  0.18553328  0.96106744  0.19455721  1
  O  O12  1  0.88872609  0.36431123  0.64239078  1
  O  O13  1  0.47805528  0.10854383  0.63826325  1
  O  O14  1  0.64193096  0.53343893  0.64338422  1
  O  O15  1  0.88938950  0.52521901  0.14139816  1
  O  O16  1  0.64109017  0.10746487  0.14244916  1
  O  O17  1  0.47219772  0.36407924  0.14081012  1
  O  O18  1  0.47145308  0.31672530  0.03093667  1
  O  O19  1  0.83969755  0.52696074  0.03160782  1
  O  O20  1  0.68636892  0.15807948  0.03222131  1
  O  O21  1  0.46644780  0.15126921  0.52936960  1
  O  O22  1  0.68646016  0.52927228  0.53336452  1
  O  O23  1  0.83950059  0.31177255  0.53288607  1
  O  O24  1  0.55316569  0.69047857  0.97478620  1
  O  O25  1  0.13817596  0.44672724  0.97502114  1
  O  O26  1  0.30537236  0.86080204  0.97360342  1
  O  O27  1  0.55003294  0.86087157  0.47286366  1
  O  O28  1  0.30727053  0.45208083  0.46854251  1
  O  O29  1  0.14007806  0.68985082  0.47278406  1
  O  O30  1  0.10571070  0.63536153  0.36026036  1
  O  O31  1  0.53004705  0.89385805  0.36020224  1
  O  O32  1  0.36529161  0.46712141  0.35714093  1
  O  O33  1  0.12960338  0.48601544  0.86398415  1
  O  O34  1  0.35693642  0.87198102  0.86404865  1
  O  O35  1  0.51512254  0.64546966  0.86362230  1
  O  O36  1  0.01222062  0.82414393  0.41346569  1
  O  O37  1  0.81228394  0.98768419  0.41328505  1
  O  O38  1  0.17596121  0.18651784  0.41231380  1
  O  O39  1  0.01367298  0.19088903  0.91176969  1
  O  O40  1  0.17664926  0.98727011  0.91115683  1
  O  O41  1  0.80904818  0.82337067  0.91134749  1
  O  O42  1  0.96627366  0.16640577  0.58655985  1
  O  O43  1  0.19134235  0.01568024  0.58524918  1
  O  O44  1  0.83329104  0.80614153  0.58591402  1
  O  O45  1  0.96596540  0.79948160  0.08485924  1
  O  O46  1  0.83346425  0.02826939  0.08481671  1
  O  O47  1  0.19144270  0.17540218  0.08430010  1
  O  O48  1  0.68805157  0.16103028  0.74447615  1
  O  O49  1  0.48094581  0.33047000  0.74581898  1
  O  O50  1  0.84107388  0.52007645  0.74518497  1
  O  O51  1  0.68265100  0.52264556  0.24445780  1
  O  O52  1  0.83979345  0.31728020  0.24473101  1
  O  O53  1  0.47637101  0.15996537  0.24481350  1
  O  O54  1  0.64117273  0.50083210  0.92198496  1
  O  O55  1  0.85959519  0.35878823  0.92266179  1
  O  O56  1  0.49921354  0.14096522  0.92216464  1
  O  O57  1  0.65037308  0.14710580  0.42421192  1
  O  O58  1  0.49711387  0.35167278  0.42380510  1
  O  O59  1  0.85342794  0.50305516  0.42485494  1
  O  O60  1  0.35405708  0.49628687  0.07726099  1
  O  O61  1  0.13664708  0.63964990  0.07749821  1
  O  O62  1  0.51284812  0.85399994  0.07827153  1
  O  O63  1  0.35134829  0.85521956  0.57692394  1
  O  O64  1  0.51264378  0.65888237  0.57873576  1
  O  O65  1  0.13691074  0.49686149  0.57795808  1
  O  O66  1  0.31654867  0.83784890  0.25649671  1
  O  O67  1  0.52356372  0.68626377  0.25517118  1
  O  O68  1  0.16193853  0.47739147  0.25515734  1
  O  O69  1  0.31478505  0.48137333  0.75937093  1
  O  O70  1  0.15825704  0.67778747  0.75848547  1
  O  O71  1  0.52695884  0.83489264  0.75899916  1
loop_
_geom_bond_atom_site_label_1
_geom_bond_atom_site_label_2
_geom_bond_distance
_geom_bond_site_symmetry_2
Na0 O67 2.493505 1_545
Na0 O66 2.507311 1_545
Na0 O53 2.513480 1_555
Na0 O52 2.528103 1_555
Na0 O31 2.614763 1_545
Na0 O16 2.705396 1_555
Na0 O2 2.803867 1_555
Na0 O9 2.970902 1_545
Na1 O68 2.504065 1_555
Na1 O51 2.508066 1_555
Na1 O67 2.521843 1_555
Na1 O32 2.522254 1_555
Na1 O53 2.529120 1_555
Na1 O17 2.769713 1_555
Na1 O0 2.812687 1_555
Na1 O10 2.982288 1_555
Na2 O52 2.508682 1_555
Na2 O66 2.516317 1_655
Na2 O68 2.516507 1_655
Na2 O51 2.530551 1_555
Na2 O30 2.616710 1_655
Na2 O15 2.751101 1_555
Na2 O1 2.796883 1_555
Na2 O11 2.887371 1_655
Na3 O49 2.409213 1_555
Na3 O50 2.498576 1_555
Na3 O71 2.500978 1_555
Na3 O14 2.570094 1_555
Na3 O69 2.591594 1_555
Na3 O4 2.790077 1_555
Na3 O6 2.837726 1_555
Na3 O35 2.893589 1_555
Na4 O48 2.451619 1_555
Na4 O50 2.485493 1_555
Na4 O70 2.514278 1_655
Na4 O69 2.532798 1_655
Na4 O12 2.618499 1_555
Na4 O7 2.771966 1_655
Na4 O5 2.816274 1_555
Na4 O33 2.890961 1_655
Na5 O44 2.436387 1_455
Na5 O65 2.454105 1_555
Na5 O43 2.472975 1_565
Na5 O63 2.497929 1_555
Na5 O29 2.663244 1_555
Na5 O8 2.692451 1_555
Na6 O64 2.410055 1_555
Na6 O42 2.411867 1_565
Na6 O63 2.494475 1_555
Na6 O44 2.580595 1_555
Na6 O27 2.649776 1_555
Na6 O6 2.754053 1_555
Na6 O13 2.906989 1_565
Na6 O23 2.915939 1_565
Na7 O62 2.401744 1_555
Na7 O45 2.411064 1_555
Na7 O60 2.475420 1_555
Na7 O46 2.579888 1_565
Na7 O24 2.605439 1_554
Na7 O9 2.702358 1_555
Na8 O46 2.431522 1_455
Na8 O61 2.448460 1_555
Na8 O47 2.470172 1_555
Na8 O60 2.510030 1_555
Na8 O25 2.606704 1_554
Na8 O10 2.690650 1_555
Na9 O38 2.431262 1_555
Na9 O37 2.524990 1_445
Na9 O36 2.525065 1_545
Na9 O43 2.617177 1_555
Na9 O42 2.658652 1_455
Na9 O44 2.713170 1_445
Na10 O40 2.454420 1_555
Na10 O39 2.550430 1_565
Na10 O41 2.561485 1_455
Na10 O47 2.614802 1_566
Na10 O45 2.637029 1_456
Na10 O46 2.710709 1_466
Na11 O56 2.546311 1_555
Na11 O49 2.560401 1_555
Na11 O48 2.587694 1_555
Na11 O54 2.649558 1_555
Na11 O50 2.654846 1_555
Na11 O55 2.671194 1_555
Na12 O58 2.538783 1_555
Na12 O57 2.539981 1_555
Na12 O59 2.557664 1_555
Na12 O52 2.696626 1_555
Na12 O51 2.697343 1_555
Na12 O53 2.698697 1_555
Na13 O62 2.555118 1_555
Na13 O61 2.581093 1_555
Na13 O66 2.583721 1_555
Na13 O68 2.660595 1_555
Na13 O67 2.661042 1_555
Na13 O60 2.664869 1_555
Na14 O64 2.526918 1_555
Na14 O65 2.548811 1_555
Na14 O63 2.549691 1_555
Na14 O69 2.719542 1_555
Na14 O70 2.740540 1_555
Na14 O71 2.759273 1_555
Hf0 O18 2.072236 1_556
Hf0 O19 2.072945 1_556
Hf0 O56 2.076975 1_555
Hf0 O20 2.079772 1_556
Hf0 O55 2.085220 1_555
Hf0 O54 2.087959 1_555
Hf1 O58 2.052395 1_555
Hf1 O21 2.058089 1_555
Hf1 O59 2.059590 1_555
Hf1 O57 2.065227 1_555
Hf1 O23 2.079454 1_555
Hf1 O22 2.080793 1_555
Hf2 O34 2.010487 1_555
Hf2 O33 2.059425 1_555
Hf2 O35 2.060590 1_555
Hf2 O70 2.108399 1_555
Hf2 O71 2.111491 1_555
Hf2 O69 2.125680 1_555
In0 O38 2.125058 1_665
In0 O36 2.133522 1_655
In0 O37 2.135029 1_555
In0 O0 2.147344 1_665
In0 O1 2.154957 1_555
In0 O2 2.156300 1_565
In1 O3 2.120998 1_555
In1 O40 2.124601 1_545
In1 O5 2.132001 1_455
In1 O4 2.138221 1_445
In1 O41 2.153513 1_445
In1 O39 2.160573 1_555
In2 O7 2.122987 1_555
In2 O8 2.167677 1_545
In2 O43 2.181784 1_555
In2 O6 2.186102 1_445
In2 O42 2.206544 1_455
In2 O44 2.252266 1_445
In3 O11 2.107206 1_555
In3 O9 2.156322 1_455
In3 O10 2.159341 1_565
In3 O47 2.196937 1_565
In3 O45 2.207589 1_455
In3 O46 2.240907 1_465
In4 O13 2.083850 1_555
In4 O14 2.133502 1_555
In4 O12 2.144314 1_555
In4 O49 2.177458 1_555
In4 O48 2.184174 1_555
In4 O50 2.236193 1_555
In5 O17 2.108216 1_555
In5 O15 2.111929 1_555
In5 O16 2.115232 1_555
In5 O53 2.191733 1_555
In5 O51 2.211396 1_555
In5 O52 2.213675 1_555
In6 O26 2.059607 1_554
In6 O24 2.112846 1_554
In6 O25 2.116011 1_554
In6 O61 2.199718 1_555
In6 O62 2.200945 1_555
In6 O60 2.227571 1_555
In7 O28 2.057573 1_555
In7 O27 2.109232 1_555
In7 O29 2.110630 1_555
In7 O65 2.206428 1_555
In7 O64 2.209518 1_555
In7 O63 2.223615 1_555
In8 O32 2.104249 1_555
In8 O30 2.114087 1_555
In8 O31 2.114389 1_555
In8 O66 2.237342 1_555
In8 O67 2.259079 1_555
In8 O68 2.259219 1_555
O0 P0 1.526090 1_555
O1 P1 1.523361 1_555
O2 P2 1.523316 1_655
O3 P3 1.513101 1_555
O4 P4 1.523160 1_655
O5 P5 1.524808 1_555
O6 P5 1.561226 1_565
O7 P3 1.545657 1_555
O8 P4 1.550832 1_555
O9 P1 1.559696 1_555
O10 P2 1.559775 1_555
O11 P0 1.548149 1_565
O12 P6 1.556444 1_555
O13 P7 1.539712 1_555
O14 P8 1.547813 1_555
O15 P9 1.558331 1_555
O16 P10 1.551061 1_555
O17 P11 1.554454 1_555
O18 P11 1.543753 1_555
O19 P9 1.553428 1_555
O20 P10 1.548628 1_555
O21 P7 1.541046 1_555
O22 P8 1.545822 1_555
O23 P6 1.550258 1_555
O24 P12 1.540081 1_555
O25 P13 1.540084 1_555
O26 P14 1.521889 1_555
O27 P15 1.539927 1_555
O28 P16 1.522485 1_555
O29 P17 1.539162 1_555
O30 P17 1.557546 1_555
O31 P15 1.557059 1_555
O32 P16 1.561899 1_555
O33 P13 1.567578 1_555
O34 P14 1.563825 1_555
O35 P12 1.566202 1_555
O36 P17 1.533192 1_555
O37 P15 1.534196 1_555
O38 P16 1.534028 1_555
O39 P13 1.527437 1_555
O40 P14 1.528434 1_555
O41 P12 1.528548 1_555
O42 P6 1.549534 1_555
O43 P7 1.547864 1_555
O44 P8 1.565150 1_555
O45 P9 1.546754 1_555
O46 P10 1.564247 1_555
O47 P11 1.545132 1_555
O48 P5 1.551247 1_555
O49 P3 1.553069 1_555
O50 P4 1.566261 1_655
O51 P1 1.561538 1_555
O52 P2 1.561950 1_655
O53 P0 1.561961 1_555
O54 P12 1.565183 1_555
O55 P13 1.566556 1_655
O56 P14 1.567030 1_545
O57 P15 1.561160 1_545
O58 P16 1.561168 1_555
O59 P17 1.560661 1_655
O60 P11 1.556482 1_555
O61 P9 1.539301 1_455
O62 P10 1.541516 1_565
O63 P7 1.561354 1_565
O64 P8 1.546254 1_555
O65 P6 1.543856 1_455
O66 P0 1.564857 1_565
O67 P1 1.564255 1_555
O68 P2 1.565184 1_555
O69 P3 1.587102 1_555
O70 P4 1.566145 1_555
O71 P5 1.564066 1_565
