# generated using pymatgen
data_W10O29
_symmetry_space_group_name_H-M   'P 1'
_cell_length_a   3.85744200
_cell_length_b   12.27990100
_cell_length_c   23.96328908
_cell_angle_alpha   85.31742928
_cell_angle_beta   90.00000000
_cell_angle_gamma   90.00000000
_symmetry_Int_Tables_number   1
_chemical_formula_structural   W10O29
_chemical_formula_sum   'W20 O58'
_cell_volume   1131.32846219
_cell_formula_units_Z   2
loop_
 _symmetry_equiv_pos_site_id
 _symmetry_equiv_pos_as_xyz
  1  'x, y, z'
loop_
 _atom_site_type_symbol
 _atom_site_label
 _atom_site_symmetry_multiplicity
 _atom_site_fract_x
 _atom_site_fract_y
 _atom_site_fract_z
 _atom_site_occupancy
  W  W0  1  0.50000000  0.26483400  0.48721700  1
  W  W1  1  0.50000000  0.73516600  0.51278300  1
  W  W2  1  0.50000000  0.97372200  0.43231400  1
  W  W3  1  0.50000000  0.02627800  0.56768600  1
  W  W4  1  0.50000000  0.67466500  0.38224400  1
  W  W5  1  0.50000000  0.32533500  0.61775600  1
  W  W6  1  0.50000000  0.38584500  0.33099500  1
  W  W7  1  0.50000000  0.61415500  0.66900500  1
  W  W8  1  0.50000000  0.09892500  0.27775200  1
  W  W9  1  0.50000000  0.90107500  0.72224800  1
  W  W10  1  0.50000000  0.80764900  0.22866600  1
  W  W11  1  0.50000000  0.19235100  0.77133400  1
  W  W12  1  0.50000000  0.51669400  0.17798800  1
  W  W13  1  0.50000000  0.48330600  0.82201200  1
  W  W14  1  0.50000000  0.22758800  0.12530200  1
  W  W15  1  0.50000000  0.77241200  0.87469800  1
  W  W16  1  0.50000000  0.93604700  0.07582900  1
  W  W17  1  0.50000000  0.06395300  0.92417100  1
  W  W18  1  0.50000000  0.64472800  0.02617800  1
  W  W19  1  0.50000000  0.35527200  0.97382200  1
  O  O0  1  0.50000000  0.89936300  0.51828300  1
  O  O1  1  0.50000000  0.10063700  0.48171700  1
  O  O2  1  0.50000000  0.61983200  0.46750900  1
  O  O3  1  0.50000000  0.38016800  0.53249100  1
  O  O4  1  0.50000000  0.32513100  0.41483100  1
  O  O5  1  0.50000000  0.67486900  0.58516900  1
  O  O6  1  0.50000000  0.03488400  0.36079200  1
  O  O7  1  0.50000000  0.96511600  0.63920800  1
  O  O8  1  0.50000000  0.81209000  0.42694200  1
  O  O9  1  0.50000000  0.18791000  0.57305800  1
  O  O10  1  0.50000000  0.53214500  0.36248200  1
  O  O11  1  0.50000000  0.46785500  0.63751800  1
  O  O12  1  0.50000000  0.24074000  0.31084600  1
  O  O13  1  0.50000000  0.75926000  0.68915400  1
  O  O14  1  0.50000000  0.74934500  0.31268700  1
  O  O15  1  0.50000000  0.25065500  0.68731300  1
  O  O16  1  0.50000000  0.45061800  0.25898500  1
  O  O17  1  0.50000000  0.54938200  0.74101500  1
  O  O18  1  0.50000000  0.16381300  0.20582400  1
  O  O19  1  0.50000000  0.83618700  0.79417600  1
  O  O20  1  0.00000000  0.35532900  0.97352900  1
  O  O21  1  0.00000000  0.64467100  0.02647100  1
  O  O22  1  0.00000000  0.06438200  0.92223000  1
  O  O23  1  0.00000000  0.93561800  0.07777000  1
  O  O24  1  0.00000000  0.77290600  0.87142900  1
  O  O25  1  0.00000000  0.22709400  0.12857100  1
  O  O26  1  0.00000000  0.48292300  0.81820400  1
  O  O27  1  0.00000000  0.51707700  0.18179600  1
  O  O28  1  0.00000000  0.19328400  0.76624200  1
  O  O29  1  0.00000000  0.80671600  0.23375800  1
  O  O30  1  0.00000000  0.90238800  0.71687000  1
  O  O31  1  0.00000000  0.09761200  0.28313000  1
  O  O32  1  0.00000000  0.61394600  0.66311100  1
  O  O33  1  0.00000000  0.38605400  0.33688900  1
  O  O34  1  0.00000000  0.32289500  0.61262200  1
  O  O35  1  0.00000000  0.67710500  0.38737800  1
  O  O36  1  0.00000000  0.02871900  0.56344000  1
  O  O37  1  0.00000000  0.97128100  0.43656000  1
  O  O38  1  0.00000000  0.74585600  0.51217200  1
  O  O39  1  0.00000000  0.25414400  0.48782800  1
  O  O40  1  0.50000000  0.00000000  0.00000000  1
  O  O41  1  0.50000000  0.50000000  0.00000000  1
  O  O42  1  0.50000000  0.20942300  0.94828400  1
  O  O43  1  0.50000000  0.79057700  0.05171600  1
  O  O44  1  0.50000000  0.70919900  0.94894600  1
  O  O45  1  0.50000000  0.29080100  0.05105400  1
  O  O46  1  0.50000000  0.41824800  0.89567400  1
  O  O47  1  0.50000000  0.58175200  0.10432600  1
  O  O48  1  0.50000000  0.13010500  0.84462600  1
  O  O49  1  0.50000000  0.86989500  0.15537400  1
  O  O50  1  0.50000000  0.91886600  0.89680500  1
  O  O51  1  0.50000000  0.08113400  0.10319500  1
  O  O52  1  0.50000000  0.62761600  0.84538500  1
  O  O53  1  0.50000000  0.37238400  0.15461500  1
  O  O54  1  0.50000000  0.33884900  0.79106400  1
  O  O55  1  0.50000000  0.66115100  0.20893600  1
  O  O56  1  0.50000000  0.04697500  0.74229500  1
  O  O57  1  0.50000000  0.95302500  0.25770500  1
loop_
_geom_bond_atom_site_label_1
_geom_bond_atom_site_label_2
_geom_bond_distance
_geom_bond_site_symmetry_2
O0 W1 2.031334 1_555
O0 W3 2.032657 1_565
O0 W2 2.184186 1_555
O1 W0 2.031334 1_555
O1 W2 2.032657 1_545
O1 W3 2.184186 1_555
O2 W1 1.853049 1_555
O2 W4 2.098464 1_555
O3 W0 1.853049 1_555
O3 W5 2.098464 1_555
O4 W0 1.829594 1_555
O4 W6 2.085027 1_555
O5 W1 1.829594 1_555
O5 W7 2.085027 1_555
O6 W2 1.814218 1_545
O6 W8 2.079110 1_555
O7 W3 1.814218 1_565
O7 W9 2.079110 1_555
O8 W2 1.999455 1_555
O8 W4 2.071299 1_555
O8 W1 2.192358 1_555
O9 W3 1.999455 1_555
O9 W5 2.071299 1_555
O9 W0 2.192358 1_555
O10 W4 1.850011 1_555
O10 W6 2.004553 1_555
O11 W5 1.850011 1_555
O11 W7 2.004553 1_555
O12 W6 1.883794 1_555
O12 W8 1.971581 1_555
O13 W7 1.883794 1_555
O13 W9 1.971581 1_555
O14 W4 1.835675 1_555
O14 W10 2.081131 1_555
O15 W5 1.835675 1_555
O15 W11 2.081131 1_555
O16 W6 1.840178 1_555
O16 W12 2.041703 1_555
O17 W7 1.840178 1_555
O17 W13 2.041703 1_555
O18 W8 1.838909 1_555
O18 W14 2.022337 1_555
O19 W9 1.838909 1_555
O19 W15 2.022337 1_555
O20 W19 1.928734 1_555
O20 W19 1.928734 1_455
O21 W18 1.928734 1_555
O21 W18 1.928734 1_455
O22 W17 1.929279 1_455
O22 W17 1.929279 1_555
O23 W16 1.929279 1_555
O23 W16 1.929279 1_455
O24 W15 1.930301 1_555
O24 W15 1.930301 1_455
O25 W14 1.930301 1_455
O25 W14 1.930301 1_555
O26 W13 1.930902 1_455
O26 W13 1.930902 1_555
O27 W12 1.930902 1_555
O27 W12 1.930902 1_455
O28 W11 1.932552 1_455
O28 W11 1.932552 1_555
O29 W10 1.932552 1_455
O29 W10 1.932552 1_555
O30 W9 1.933001 1_455
O30 W9 1.933001 1_555
O31 W8 1.933001 1_555
O31 W8 1.933001 1_455
O32 W7 1.933903 1_455
O32 W7 1.933903 1_555
O33 W6 1.933903 1_455
O33 W6 1.933903 1_555
O34 W5 1.933029 1_455
O34 W5 1.933029 1_555
O35 W4 1.933029 1_555
O35 W4 1.933029 1_455
O36 W3 1.931507 1_555
O36 W3 1.931507 1_455
O37 W2 1.931507 1_555
O37 W2 1.931507 1_455
O38 W1 1.933157 1_455
O38 W1 1.933157 1_555
O39 W0 1.933157 1_455
O39 W0 1.933157 1_555
O40 W16 1.919806 1_545
O40 W17 1.919806 1_554
O41 W18 1.932395 1_555
O41 W19 1.932395 1_554
O42 W17 1.921844 1_555
O42 W19 1.939378 1_555
O43 W16 1.921844 1_555
O43 W18 1.939378 1_555
O44 W15 1.882209 1_555
O44 W18 1.952631 1_556
O45 W14 1.882209 1_555
O45 W19 1.952631 1_554
O46 W13 1.877199 1_555
O46 W19 1.966861 1_555
O47 W12 1.877199 1_555
O47 W18 1.966861 1_555
O48 W11 1.857345 1_555
O48 W17 2.010106 1_555
O49 W10 1.857345 1_555
O49 W16 2.010106 1_555
O50 W15 1.915877 1_555
O50 W17 1.948101 1_565
O51 W14 1.915877 1_555
O51 W16 1.948101 1_545
O52 W13 1.901616 1_555
O52 W15 1.964411 1_555
O53 W12 1.901616 1_555
O53 W14 1.964411 1_555
O54 W11 1.897034 1_555
O54 W13 1.977769 1_555
O55 W10 1.897034 1_555
O55 W12 1.977769 1_555
O56 W9 1.892424 1_545
O56 W11 1.968251 1_555
O57 W8 1.892424 1_565
O57 W10 1.968251 1_555
