# generated using pymatgen
data_DyCo2
_symmetry_space_group_name_H-M   'P 1'
_cell_length_a   5.05062266
_cell_length_b   5.05120527
_cell_length_c   5.05062556
_cell_angle_alpha   59.99351319
_cell_angle_beta   59.99712983
_cell_angle_gamma   60.00101594
_symmetry_Int_Tables_number   1
_chemical_formula_structural   DyCo2
_chemical_formula_sum   'Dy2 Co4'
_cell_volume   91.10510923
_cell_formula_units_Z   2
loop_
 _symmetry_equiv_pos_site_id
 _symmetry_equiv_pos_as_xyz
  1  'x, y, z'
loop_
 _atom_site_type_symbol
 _atom_site_label
 _atom_site_symmetry_multiplicity
 _atom_site_fract_x
 _atom_site_fract_y
 _atom_site_fract_z
 _atom_site_occupancy
  Dy  Dy0  1  0.12498364  0.12501291  0.12500092  1
  Dy  Dy1  1  0.87501473  0.87498754  0.87499967  1
  Co  Co0  1  0.50000220  0.99999939  0.49999915  1
  Co  Co1  1  0.00000025  0.50000133  0.49999926  1
  Co  Co2  1  0.49999904  0.49999996  0.50000085  1
  Co  Co3  1  0.49999913  0.49999986  0.00000015  1
loop_
_geom_bond_atom_site_label_1
_geom_bond_atom_site_label_2
_geom_bond_distance
_geom_bond_site_symmetry_2
Dy0 Dy1 3.092632 1_445
Dy0 Dy1 3.092998 1_544
Dy0 Dy1 3.093009 1_454
Dy0 Dy1 3.093028 1_444
Co0 Co3 2.525209 1_565
Co0 Co3 2.525211 1_556
Co0 Co1 2.525486 1_655
Co0 Co1 2.525506 1_565
Co0 Co2 2.525602 1_565
Co0 Co2 2.525603 1_555
Co0 Dy0 2.961033 1_665
Co0 Dy1 2.961055 1_455
Co0 Dy1 2.961210 1_555
Co0 Dy0 2.961222 1_565
Co0 Dy1 2.961231 1_554
Co0 Dy0 2.961244 1_566
Co1 Co3 2.525197 1_555
Co1 Co3 2.525208 1_456
Co1 Co2 2.525306 1_555
Co1 Co2 2.525317 1_455
Co1 Dy1 2.960996 1_454
Co1 Dy0 2.961000 1_556
Co1 Dy0 2.961289 1_565
Co1 Dy1 2.961303 1_445
Co1 Dy1 2.961458 1_455
Co1 Dy0 2.961463 1_555
Co2 Co3 2.525309 1_556
Co2 Co3 2.525316 1_555
Co2 Dy0 2.960985 1_556
Co2 Dy1 2.960989 1_554
Co2 Dy1 2.961283 1_455
Co2 Dy0 2.961285 1_655
Co2 Dy1 2.961289 1_545
Co2 Dy0 2.961292 1_565
Co3 Dy1 2.961145 1_454
Co3 Dy0 2.961146 1_655
Co3 Dy0 2.961309 1_555
Co3 Dy1 2.961314 1_554
Co3 Dy1 2.961634 1_544
Co3 Dy0 2.961638 1_565
