# generated using pymatgen
data_Lu6Ge4O17
_symmetry_space_group_name_H-M   'P 1'
_cell_length_a   6.81922283
_cell_length_b   10.43466968
_cell_length_c   10.84278177
_cell_angle_alpha   68.40859402
_cell_angle_beta   90.00000000
_cell_angle_gamma   90.00000000
_symmetry_Int_Tables_number   1
_chemical_formula_structural   Lu6Ge4O17
_chemical_formula_sum   'Lu12 Ge8 O34'
_cell_volume   717.39550124
_cell_formula_units_Z   2
loop_
 _symmetry_equiv_pos_site_id
 _symmetry_equiv_pos_as_xyz
  1  'x, y, z'
loop_
 _atom_site_type_symbol
 _atom_site_label
 _atom_site_symmetry_multiplicity
 _atom_site_fract_x
 _atom_site_fract_y
 _atom_site_fract_z
 _atom_site_occupancy
  Lu  Lu0  1  0.74636699  0.47450729  0.95190832  1
  Lu  Lu1  1  0.74636699  0.02549271  0.04809168  1
  Lu  Lu2  1  0.25363301  0.52549271  0.04809168  1
  Lu  Lu3  1  0.25363301  0.97450729  0.95190832  1
  Lu  Lu4  1  0.40427317  0.30569173  0.83124496  1
  Lu  Lu5  1  0.40427317  0.19430827  0.16875504  1
  Lu  Lu6  1  0.59572683  0.69430827  0.16875504  1
  Lu  Lu7  1  0.59572683  0.80569173  0.83124496  1
  Lu  Lu8  1  0.83721427  0.42703662  0.42723805  1
  Lu  Lu9  1  0.83721427  0.07296338  0.57276195  1
  Lu  Lu10  1  0.16278573  0.57296338  0.57276195  1
  Lu  Lu11  1  0.16278573  0.92703662  0.42723805  1
  Ge  Ge0  1  0.63898803  0.60251192  0.61788377  1
  Ge  Ge1  1  0.63898803  0.89748808  0.38211623  1
  Ge  Ge2  1  0.36101197  0.39748808  0.38211623  1
  Ge  Ge3  1  0.36101197  0.10251192  0.61788377  1
  Ge  Ge4  1  0.92315927  0.27079621  0.77604327  1
  Ge  Ge5  1  0.92315927  0.22920379  0.22395673  1
  Ge  Ge6  1  0.07684073  0.72920379  0.22395673  1
  Ge  Ge7  1  0.07684073  0.77079621  0.77604327  1
  O  O0  1  0.42140660  0.38752489  0.98530993  1
  O  O1  1  0.42140660  0.11247511  0.01469007  1
  O  O2  1  0.57859340  0.61247511  0.01469007  1
  O  O3  1  0.57859340  0.88752489  0.98530993  1
  O  O4  1  0.67459053  0.63738350  0.76150704  1
  O  O5  1  0.67459053  0.86261650  0.23849296  1
  O  O6  1  0.32540947  0.36261650  0.23849296  1
  O  O7  1  0.32540947  0.13738350  0.76150704  1
  O  O8  1  0.97737394  0.38886199  0.09908890  1
  O  O9  1  0.97737394  0.11113801  0.90091110  1
  O  O10  1  0.02262606  0.61113801  0.90091110  1
  O  O11  1  0.02262606  0.88886199  0.09908890  1
  O  O12  1  0.72179201  0.32783256  0.84501128  1
  O  O13  1  0.72179201  0.17216744  0.15498872  1
  O  O14  1  0.27820799  0.67216744  0.15498872  1
  O  O15  1  0.27820799  0.82783256  0.84501128  1
  O  O16  1  0.52813408  0.75000000  0.50000000  1
  O  O17  1  0.47186592  0.25000000  0.50000000  1
  O  O18  1  0.14387089  0.75130615  0.62757211  1
  O  O19  1  0.14387089  0.74869385  0.37242789  1
  O  O20  1  0.84643015  0.94927022  0.44505166  1
  O  O21  1  0.84643015  0.55072978  0.55494834  1
  O  O22  1  0.15356985  0.05072978  0.55494834  1
  O  O23  1  0.15356985  0.44927022  0.44505166  1
  O  O24  1  0.88680951  0.88896224  0.75708988  1
  O  O25  1  0.88680951  0.61103776  0.24291012  1
  O  O26  1  0.11319049  0.11103776  0.24291012  1
  O  O27  1  0.11319049  0.38896224  0.75708988  1
  O  O28  1  0.55321906  0.98502003  0.64645881  1
  O  O29  1  0.55321906  0.51497997  0.35354119  1
  O  O30  1  0.44678094  0.01497997  0.35354119  1
  O  O31  1  0.44678094  0.48502003  0.64645881  1
  O  O32  1  0.85612911  0.25130615  0.62757211  1
  O  O33  1  0.85612911  0.24869385  0.37242789  1
loop_
_geom_bond_atom_site_label_1
_geom_bond_atom_site_label_2
_geom_bond_distance
_geom_bond_site_symmetry_2
Lu0 O2 2.136860 1_556
Lu0 O8 2.185704 1_556
Lu0 O4 2.192680 1_555
Lu0 O12 2.240428 1_555
Lu0 O10 2.303724 1_655
Lu0 O0 2.371412 1_555
Lu1 O3 2.136860 1_544
Lu1 O9 2.185704 1_554
Lu1 O5 2.192680 1_545
Lu1 O13 2.240428 1_555
Lu1 O11 2.303724 1_645
Lu1 O1 2.371412 1_555
Lu2 O0 2.136860 1_554
Lu2 O10 2.185704 1_554
Lu2 O6 2.192680 1_555
Lu2 O14 2.240428 1_555
Lu2 O8 2.303724 1_455
Lu2 O2 2.371412 1_555
Lu3 O1 2.136860 1_566
Lu3 O11 2.185704 1_556
Lu3 O7 2.192680 1_565
Lu3 O15 2.240428 1_555
Lu3 O9 2.303724 1_465
Lu3 O3 2.371412 1_555
Lu4 O0 2.140832 1_555
Lu4 O12 2.188439 1_555
Lu4 O27 2.197126 1_555
Lu4 O31 2.200144 1_555
Lu4 O7 2.218721 1_555
Lu4 O1 2.254649 1_556
Lu5 O1 2.140832 1_555
Lu5 O13 2.188439 1_555
Lu5 O26 2.197126 1_555
Lu5 O30 2.200144 1_555
Lu5 O6 2.218721 1_555
Lu5 O0 2.254649 1_554
Lu6 O2 2.140832 1_555
Lu6 O14 2.188439 1_555
Lu6 O25 2.197126 1_555
Lu6 O29 2.200144 1_555
Lu6 O5 2.218721 1_555
Lu6 O3 2.254649 1_554
Lu7 O3 2.140832 1_555
Lu7 O15 2.188439 1_555
Lu7 O24 2.197126 1_555
Lu7 O28 2.200144 1_555
Lu7 O4 2.218721 1_555
Lu7 O2 2.254649 1_556
Lu8 O33 2.155666 1_555
Lu8 O29 2.165981 1_555
Lu8 O23 2.185875 1_655
Lu8 O21 2.214209 1_555
Lu8 O25 2.229593 1_555
Lu8 O32 2.272877 1_555
Lu9 O32 2.155666 1_555
Lu9 O28 2.165981 1_545
Lu9 O22 2.185875 1_655
Lu9 O20 2.214209 1_545
Lu9 O24 2.229593 1_545
Lu9 O33 2.272877 1_555
Lu10 O18 2.155666 1_555
Lu10 O31 2.165981 1_555
Lu10 O21 2.185875 1_455
Lu10 O23 2.214209 1_555
Lu10 O27 2.229593 1_555
Lu10 O19 2.272877 1_555
Lu11 O19 2.155666 1_555
Lu11 O30 2.165981 1_565
Lu11 O20 2.185875 1_455
Lu11 O22 2.214209 1_565
Lu11 O26 2.229593 1_565
Lu11 O18 2.272877 1_555
Ge0 O21 1.740707 1_555
Ge0 O4 1.741693 1_555
Ge0 O31 1.742822 1_555
Ge0 O16 1.768037 1_555
Ge1 O20 1.740707 1_555
Ge1 O5 1.741693 1_555
Ge1 O30 1.742822 1_565
Ge1 O16 1.768037 1_555
Ge2 O23 1.740707 1_555
Ge2 O6 1.741693 1_555
Ge2 O29 1.742822 1_555
Ge2 O17 1.768037 1_555
Ge3 O22 1.740707 1_555
Ge3 O7 1.741693 1_555
Ge3 O28 1.742822 1_545
Ge3 O17 1.768037 1_555
Ge4 O27 1.747957 1_655
Ge4 O32 1.755800 1_555
Ge4 O9 1.756475 1_555
Ge4 O12 1.768209 1_555
Ge5 O26 1.747957 1_655
Ge5 O33 1.755800 1_555
Ge5 O8 1.756475 1_555
Ge5 O13 1.768209 1_555
Ge6 O25 1.747957 1_455
Ge6 O19 1.755800 1_555
Ge6 O11 1.756475 1_555
Ge6 O14 1.768209 1_555
Ge7 O24 1.747957 1_455
Ge7 O18 1.755800 1_555
Ge7 O10 1.756475 1_555
Ge7 O15 1.768209 1_555
