# generated using pymatgen
data_Nd3InN
_symmetry_space_group_name_H-M   'P 1'
_cell_length_a   5.02826716
_cell_length_b   5.02826405
_cell_length_c   5.02826405
_cell_angle_alpha   90.00000000
_cell_angle_beta   90.00000000
_cell_angle_gamma   90.00000000
_symmetry_Int_Tables_number   1
_chemical_formula_structural   Nd3InN
_chemical_formula_sum   'Nd3 In1 N1'
_cell_volume   127.13188781
_cell_formula_units_Z   1
loop_
 _symmetry_equiv_pos_site_id
 _symmetry_equiv_pos_as_xyz
  1  'x, y, z'
loop_
 _atom_site_type_symbol
 _atom_site_label
 _atom_site_symmetry_multiplicity
 _atom_site_fract_x
 _atom_site_fract_y
 _atom_site_fract_z
 _atom_site_occupancy
  Nd  Nd0  1  0.50000000  0.50000000  0.00000000  1
  Nd  Nd1  1  -0.00000000  0.50000000  0.50000000  1
  Nd  Nd2  1  0.50000000  0.00000000  0.50000000  1
  In  In0  1  0.00000000  -0.00000000  -0.00000000  1
  N  N0  1  0.50000000  0.50000000  0.50000000  1
loop_
_geom_bond_atom_site_label_1
_geom_bond_atom_site_label_2
_geom_bond_distance
_geom_bond_site_symmetry_2
In0 Nd1 3.555520 1_544
In0 Nd1 3.555520 1_554
In0 Nd1 3.555520 1_555
In0 Nd1 3.555520 1_545
In0 Nd2 3.555521 1_455
In0 Nd2 3.555521 1_554
In0 Nd2 3.555521 1_454
In0 Nd2 3.555521 1_555
In0 Nd0 3.555521 1_455
In0 Nd0 3.555521 1_445
In0 Nd0 3.555521 1_555
In0 Nd0 3.555521 1_545
N0 Nd2 2.514132 1_555
N0 Nd0 2.514132 1_555
N0 Nd2 2.514132 1_565
N0 Nd0 2.514132 1_556
N0 Nd1 2.514134 1_655
N0 Nd1 2.514134 1_555
