# generated using pymatgen
data_Ca2PI
_symmetry_space_group_name_H-M   'P 1'
_cell_length_a   7.82836622
_cell_length_b   7.82836615
_cell_length_c   7.82836678
_cell_angle_alpha   31.96666497
_cell_angle_beta   31.96666885
_cell_angle_gamma   31.96666869
_symmetry_Int_Tables_number   1
_chemical_formula_structural   Ca2PI
_chemical_formula_sum   'Ca2 P1 I1'
_cell_volume   119.46901920
_cell_formula_units_Z   1
loop_
 _symmetry_equiv_pos_site_id
 _symmetry_equiv_pos_as_xyz
  1  'x, y, z'
loop_
 _atom_site_type_symbol
 _atom_site_label
 _atom_site_symmetry_multiplicity
 _atom_site_fract_x
 _atom_site_fract_y
 _atom_site_fract_z
 _atom_site_occupancy
  Ca  Ca0  1  0.77011847  0.77011847  0.77011847  1
  Ca  Ca1  1  0.22988153  0.22988153  0.22988153  1
  P  P0  1  0.50000000  0.50000000  0.50000000  1
  I  I0  1  0.00000000  -0.00000000  0.00000000  1
loop_
_geom_bond_atom_site_label_1
_geom_bond_atom_site_label_2
_geom_bond_distance
_geom_bond_site_symmetry_2
Ca0 P0 2.859497 1_565
Ca0 P0 2.859498 1_655
Ca0 P0 2.859498 1_556
Ca0 I0 3.391397 1_656
Ca0 I0 3.391397 1_566
Ca0 I0 3.391398 1_665
Ca1 P0 2.859497 1_545
Ca1 P0 2.859498 1_455
Ca1 P0 2.859498 1_554
Ca1 I0 3.391397 1_565
Ca1 I0 3.391397 1_655
Ca1 I0 3.391398 1_556
