# generated using pymatgen
data_Tl4S3
_symmetry_space_group_name_H-M   'P 1'
_cell_length_a   7.94340004
_cell_length_b   8.03598410
_cell_length_c   13.09186851
_cell_angle_alpha   90.00000000
_cell_angle_beta   90.00000000
_cell_angle_gamma   103.42541076
_symmetry_Int_Tables_number   1
_chemical_formula_structural   Tl4S3
_chemical_formula_sum   'Tl16 S12'
_cell_volume   812.85671845
_cell_formula_units_Z   4
loop_
 _symmetry_equiv_pos_site_id
 _symmetry_equiv_pos_as_xyz
  1  'x, y, z'
loop_
 _atom_site_type_symbol
 _atom_site_label
 _atom_site_symmetry_multiplicity
 _atom_site_fract_x
 _atom_site_fract_y
 _atom_site_fract_z
 _atom_site_occupancy
  Tl  Tl0  1  0.32075302  0.45801532  0.76960236  1
  Tl  Tl1  1  0.67924698  0.04198468  0.26960236  1
  Tl  Tl2  1  0.67924698  0.54198468  0.23039764  1
  Tl  Tl3  1  0.32075302  0.95801532  0.73039764  1
  Tl  Tl4  1  0.84786469  0.58188914  0.80566730  1
  Tl  Tl5  1  0.15213531  0.91811086  0.30566730  1
  Tl  Tl6  1  0.15213531  0.41811086  0.19433270  1
  Tl  Tl7  1  0.84786469  0.08188914  0.69433270  1
  Tl  Tl8  1  0.89523608  0.71539139  0.55005337  1
  Tl  Tl9  1  0.10476392  0.78460861  0.05005337  1
  Tl  Tl10  1  0.10476392  0.28460861  0.44994663  1
  Tl  Tl11  1  0.89523608  0.21539139  0.94994663  1
  Tl  Tl12  1  0.54801584  0.27938808  0.50197609  1
  Tl  Tl13  1  0.45198416  0.22061192  0.00197609  1
  Tl  Tl14  1  0.45198416  0.72061192  0.49802391  1
  Tl  Tl15  1  0.54801584  0.77938808  0.99802391  1
  S  S0  1  0.07111317  0.93069192  0.85134227  1
  S  S1  1  0.92888683  0.56930808  0.35134227  1
  S  S2  1  0.92888683  0.06930808  0.14865773  1
  S  S3  1  0.07111317  0.43069192  0.64865773  1
  S  S4  1  0.52909862  0.75564056  0.74378478  1
  S  S5  1  0.47090138  0.74435944  0.24378478  1
  S  S6  1  0.47090138  0.24435944  0.25621522  1
  S  S7  1  0.52909862  0.25564056  0.75621522  1
  S  S8  1  0.23577704  0.46340853  0.95861543  1
  S  S9  1  0.76422296  0.03659147  0.45861543  1
  S  S10  1  0.76422296  0.53659147  0.04138457  1
  S  S11  1  0.23577704  0.96340853  0.54138457  1
loop_
_geom_bond_atom_site_label_1
_geom_bond_atom_site_label_2
_geom_bond_distance
_geom_bond_site_symmetry_2
S0 Tl3 2.507070 1_555
S0 Tl9 2.891895 1_556
S0 Tl4 3.008461 1_455
S0 Tl7 3.137971 1_465
S0 Tl11 3.215069 1_465
S1 Tl2 2.507070 1_555
S1 Tl8 2.891895 1_555
S1 Tl5 3.008461 1_655
S1 Tl6 3.137971 1_655
S1 Tl10 3.215069 1_655
S2 Tl1 2.507070 1_555
S2 Tl11 2.891895 1_554
S2 Tl6 3.008461 1_655
S2 Tl5 3.137971 1_645
S2 Tl9 3.215069 1_645
S3 Tl0 2.507070 1_555
S3 Tl10 2.891895 1_555
S3 Tl7 3.008461 1_455
S3 Tl4 3.137971 1_455
S3 Tl8 3.215069 1_455
S4 Tl3 2.581518 1_555
S4 Tl0 2.595271 1_555
S5 Tl2 2.581518 1_555
S5 Tl1 2.595271 1_565
S6 Tl1 2.581518 1_555
S6 Tl2 2.595271 1_555
S7 Tl0 2.581518 1_555
S7 Tl3 2.595271 1_545
S8 Tl0 2.567957 1_555
S8 Tl13 2.938472 1_556
S8 Tl11 2.966306 1_455
S8 Tl15 3.152916 1_555
S8 Tl6 3.159889 1_556
S8 Tl9 3.228901 1_556
S9 Tl1 2.567957 1_555
S9 Tl12 2.938472 1_555
S9 Tl10 2.966306 1_655
S9 Tl14 3.152916 1_545
S9 Tl7 3.159889 1_555
S9 Tl8 3.228901 1_545
S10 Tl2 2.567957 1_555
S10 Tl15 2.938472 1_554
S10 Tl9 2.966306 1_655
S10 Tl13 3.152916 1_555
S10 Tl4 3.159889 1_554
S10 Tl11 3.228901 1_554
S11 Tl3 2.567957 1_555
S11 Tl14 2.938472 1_555
S11 Tl8 2.966306 1_455
S11 Tl12 3.152916 1_565
S11 Tl5 3.159889 1_555
S11 Tl10 3.228901 1_565
