# generated using pymatgen
data_Na4Mg(NiO3)2
_symmetry_space_group_name_H-M   'P 1'
_cell_length_a   5.64700261
_cell_length_b   6.05756591
_cell_length_c   6.57319812
_cell_angle_alpha   80.52860130
_cell_angle_beta   116.39060436
_cell_angle_gamma   67.46272834
_symmetry_Int_Tables_number   1
_chemical_formula_structural   Na4Mg(NiO3)2
_chemical_formula_sum   'Na4 Mg1 Ni2 O6'
_cell_volume   170.11142802
_cell_formula_units_Z   1
loop_
 _symmetry_equiv_pos_site_id
 _symmetry_equiv_pos_as_xyz
  1  'x, y, z'
loop_
 _atom_site_type_symbol
 _atom_site_label
 _atom_site_symmetry_multiplicity
 _atom_site_fract_x
 _atom_site_fract_y
 _atom_site_fract_z
 _atom_site_occupancy
  Na  Na0  1  -0.01920923  0.27744597  0.52200087  1
  Na  Na1  1  0.89055809  0.92493155  0.25898904  1
  Na  Na2  1  0.46993969  0.38077475  0.70254587  1
  Na  Na3  1  0.16113293  0.85820616  0.96796893  1
  Mg  Mg0  1  0.57556108  0.83615266  0.57462176  1
  Ni  Ni0  1  0.67529079  0.64319569  0.98024752  1
  Ni  Ni1  1  0.26975087  0.32975025  0.10328450  1
  O  O0  1  0.28253987  0.81169721  0.66566938  1
  O  O1  1  0.09174189  0.47892031  0.26929759  1
  O  O2  1  0.45828119  0.97104853  0.24051199  1
  O  O3  1  0.89196914  0.45289691  0.79637148  1
  O  O4  1  0.69468964  0.94136910  0.85582380  1
  O  O5  1  0.57025404  0.40611092  0.12219128  1
loop_
_geom_bond_atom_site_label_1
_geom_bond_atom_site_label_2
_geom_bond_distance
_geom_bond_site_symmetry_2
Na0 O5 2.326621 1_455
Na0 O1 2.342082 1_555
Na0 O3 2.379089 1_455
Na0 O0 2.400522 1_545
Na1 O2 2.292190 1_555
Na1 O4 2.340777 1_554
Na1 O0 2.342766 1_655
Na1 O1 2.472467 1_655
Na1 O5 2.495233 1_565
Na2 O4 2.258704 1_545
Na2 O0 2.332100 1_555
Na2 O3 2.414762 1_555
Na2 O1 2.467261 1_555
Na2 O5 2.601955 1_556
Na3 O4 2.206735 1_455
Na3 O2 2.258812 1_556
Na3 O0 2.396895 1_555
Na3 O5 2.453429 1_556
Mg0 O2 1.905527 1_555
Mg0 O4 1.971380 1_555
Mg0 O3 2.024391 1_555
Mg0 O0 2.038920 1_555
Ni0 O4 1.920527 1_555
Ni0 O0 1.931223 1_555
Ni0 O1 1.934525 1_656
Ni0 O5 1.997217 1_556
Ni0 O3 2.231330 1_555
Ni1 O2 1.842920 1_545
Ni1 O5 1.882065 1_555
Ni1 O1 1.902929 1_555
Ni1 O3 1.906913 1_454
