# generated using pymatgen
data_MgCo6O7F5
_symmetry_space_group_name_H-M   'P 1'
_cell_length_a   5.09322651
_cell_length_b   7.57734783
_cell_length_c   5.79661483
_cell_angle_alpha   101.14936619
_cell_angle_beta   100.92163557
_cell_angle_gamma   82.31392242
_symmetry_Int_Tables_number   1
_chemical_formula_structural   MgCo6O7F5
_chemical_formula_sum   'Mg1 Co6 O7 F5'
_cell_volume   214.41417197
_cell_formula_units_Z   1
loop_
 _symmetry_equiv_pos_site_id
 _symmetry_equiv_pos_as_xyz
  1  'x, y, z'
loop_
 _atom_site_type_symbol
 _atom_site_label
 _atom_site_symmetry_multiplicity
 _atom_site_fract_x
 _atom_site_fract_y
 _atom_site_fract_z
 _atom_site_occupancy
  Mg  Mg0  1  0.48792100  0.99605100  0.96861800  1
  Co  Co0  1  0.57510400  0.02218200  0.46537100  1
  Co  Co1  1  0.51558500  0.35046300  0.81646000  1
  Co  Co2  1  0.47685900  0.65397200  0.19138100  1
  Co  Co3  1  0.99591500  0.65782100  0.66918400  1
  Co  Co4  1  0.98992800  0.31974900  0.33153900  1
  Co  Co5  1  0.99631200  0.99928500  0.02027800  1
  O  O0  1  0.77840200  0.09654300  0.27586900  1
  O  O1  1  0.70198900  0.76991600  0.46835500  1
  O  O2  1  0.70264500  0.10738100  0.79001900  1
  O  O3  1  0.67693000  0.43415000  0.12689100  1
  O  O4  1  0.28556300  0.56903100  0.87897600  1
  O  O5  1  0.32554900  0.22569200  0.53743800  1
  O  O6  1  0.32760100  0.89742700  0.20950800  1
  F  F0  1  0.80379900  0.43470600  0.62779700  1
  F  F1  1  0.77773800  0.77980600  0.94418500  1
  F  F2  1  0.21599900  0.21139900  0.03887400  1
  F  F3  1  0.19043200  0.89264900  0.73378600  1
  F  F4  1  0.17572200  0.55499500  0.38166300  1
loop_
_geom_bond_atom_site_label_1
_geom_bond_atom_site_label_2
_geom_bond_distance
_geom_bond_site_symmetry_2
Mg0 O2 1.998256 1_565
Mg0 O6 2.042997 1_556
Mg0 O0 2.172350 1_566
Co0 O0 1.850052 1_555
Co0 O2 1.886599 1_555
Co0 O5 1.896260 1_555
Co0 O1 1.936470 1_545
Co0 O6 1.936616 1_545
Co1 O3 1.858276 1_556
Co1 O5 1.872645 1_555
Co1 O4 1.912199 1_555
Co1 O2 1.949514 1_555
Co1 F0 2.210711 1_555
Co2 O3 1.844475 1_555
Co2 O6 1.890029 1_555
Co2 O1 1.921111 1_555
Co2 O4 1.921270 1_554
Co2 F4 2.323820 1_555
Co3 O4 1.865197 1_655
Co3 O1 1.923445 1_555
Co3 F0 2.017395 1_555
Co3 F4 2.027012 1_655
Co3 F3 2.088348 1_655
Co3 F1 2.111142 1_555
Co4 O3 2.002868 1_555
Co4 O5 2.021001 1_655
Co4 O0 2.066382 1_555
Co4 F4 2.074623 1_655
Co4 F0 2.103345 1_555
Co4 F2 2.196934 1_655
Co5 O6 1.980826 1_655
Co5 O0 1.987960 1_565
Co5 O2 2.007022 1_564
Co5 F2 2.053102 1_665
Co5 F1 2.055516 1_554
Co5 F3 2.068289 1_654
F1 Mg0 2.055803 1_555
F2 Mg0 2.024560 1_544
F3 Mg0 1.971330 1_555
