# generated using pymatgen
data_Cu5(PO5)2
_symmetry_space_group_name_H-M   'P 1'
_cell_length_a   5.21938780
_cell_length_b   5.24815819
_cell_length_c   7.61594250
_cell_angle_alpha   97.17240189
_cell_angle_beta   89.96693464
_cell_angle_gamma   111.45281063
_symmetry_Int_Tables_number   1
_chemical_formula_structural   Cu5(PO5)2
_chemical_formula_sum   'Cu5 P2 O10'
_cell_volume   192.41492532
_cell_formula_units_Z   1
loop_
 _symmetry_equiv_pos_site_id
 _symmetry_equiv_pos_as_xyz
  1  'x, y, z'
loop_
 _atom_site_type_symbol
 _atom_site_label
 _atom_site_symmetry_multiplicity
 _atom_site_fract_x
 _atom_site_fract_y
 _atom_site_fract_z
 _atom_site_occupancy
  Cu  Cu0  1  0.28622270  0.61741685  0.05494485  1
  Cu  Cu1  1  0.71377730  0.38258315  0.94505515  1
  Cu  Cu2  1  0.88137715  0.75221594  0.36257189  1
  Cu  Cu3  1  0.11862285  0.24778406  0.63742811  1
  Cu  Cu4  1  0.00000000  -0.00000000  -0.00000000  1
  P  P0  1  0.54733068  0.84311523  0.71001968  1
  P  P1  1  0.45266932  0.15688477  0.28998032  1
  O  O0  1  0.95287715  0.68236606  0.11595288  1
  O  O1  1  0.04712285  0.31763394  0.88404712  1
  O  O2  1  0.48878532  0.10844153  0.75936553  1
  O  O3  1  0.51121468  0.89155847  0.24063447  1
  O  O4  1  0.62117201  0.75211530  0.88675489  1
  O  O5  1  0.37882799  0.24788470  0.11324511  1
  O  O6  1  0.30143674  0.62226765  0.61072276  1
  O  O7  1  0.19135937  0.10171459  0.39845896  1
  O  O8  1  0.80864063  0.89828541  0.60154104  1
  O  O9  1  0.69856326  0.37773235  0.38927724  1
loop_
_geom_bond_atom_site_label_1
_geom_bond_atom_site_label_2
_geom_bond_distance
_geom_bond_site_symmetry_2
Cu0 O3 1.925345 1_555
Cu0 O0 1.937138 1_455
Cu0 O1 1.944497 1_554
Cu0 O4 2.125171 1_554
Cu0 O5 2.256731 1_555
Cu1 O2 1.925345 1_555
Cu1 O1 1.937138 1_655
Cu1 O0 1.944497 1_556
Cu1 O5 2.125171 1_556
Cu1 O4 2.256731 1_555
Cu2 O9 1.882097 1_555
Cu2 O0 1.930997 1_555
Cu2 O7 1.939416 1_665
Cu2 O8 1.976814 1_555
Cu2 O3 2.516952 1_555
Cu3 O6 1.882097 1_555
Cu3 O1 1.930997 1_555
Cu3 O8 1.939416 1_445
Cu3 O7 1.976814 1_555
Cu3 O2 2.516952 1_555
Cu4 O0 1.920066 1_445
Cu4 O1 1.920066 1_554
Cu4 O5 2.045985 1_555
Cu4 O4 2.045985 1_444
O2 P0 1.534284 1_545
O3 P1 1.534284 1_565
O4 P0 1.576106 1_555
O5 P1 1.576106 1_555
O6 P0 1.502197 1_555
O7 P1 1.547942 1_555
O8 P0 1.547942 1_555
O9 P1 1.502197 1_555
