# generated using pymatgen
data_Tb3In5S12
_symmetry_space_group_name_H-M   'P 1'
_cell_length_a   3.89224321
_cell_length_b   10.95864248
_cell_length_c   21.32172686
_cell_angle_alpha   83.84061273
_cell_angle_beta   90.00000000
_cell_angle_gamma   90.00000000
_symmetry_Int_Tables_number   1
_chemical_formula_structural   Tb3In5S12
_chemical_formula_sum   'Tb6 In10 S24'
_cell_volume   904.20056380
_cell_formula_units_Z   2
loop_
 _symmetry_equiv_pos_site_id
 _symmetry_equiv_pos_as_xyz
  1  'x, y, z'
loop_
 _atom_site_type_symbol
 _atom_site_label
 _atom_site_symmetry_multiplicity
 _atom_site_fract_x
 _atom_site_fract_y
 _atom_site_fract_z
 _atom_site_occupancy
  Tb  Tb0  1  0.25000000  0.71480812  0.28480730  1
  Tb  Tb1  1  0.75000000  0.28519188  0.71519270  1
  Tb  Tb2  1  0.25000000  0.91290168  0.76538617  1
  Tb  Tb3  1  0.75000000  0.08709832  0.23461383  1
  Tb  Tb4  1  0.25000000  0.02803256  0.58803161  1
  Tb  Tb5  1  0.75000000  0.97196744  0.41196839  1
  In  In0  1  0.25000000  0.83590171  0.11338218  1
  In  In1  1  0.75000000  0.34932263  0.52726615  1
  In  In2  1  0.25000000  0.65067737  0.47273385  1
  In  In3  1  0.75000000  0.45762895  0.17369922  1
  In  In4  1  0.25000000  0.54237105  0.82630078  1
  In  In5  1  0.75000000  0.64766686  0.66703910  1
  In  In6  1  0.25000000  0.35233314  0.33296090  1
  In  In7  1  0.75000000  0.75863897  0.94164344  1
  In  In8  1  0.25000000  0.24136103  0.05835656  1
  In  In9  1  0.75000000  0.16409829  0.88661782  1
  S  S0  1  0.25000000  0.60926905  0.15691545  1
  S  S1  1  0.75000000  0.86599872  0.03742011  1
  S  S2  1  0.25000000  0.13400128  0.96257989  1
  S  S3  1  0.75000000  0.93839978  0.85966663  1
  S  S4  1  0.25000000  0.06160022  0.14033337  1
  S  S5  1  0.75000000  0.38093600  0.06156242  1
  S  S6  1  0.25000000  0.61906400  0.93843758  1
  S  S7  1  0.75000000  0.72197352  0.38743867  1
  S  S8  1  0.25000000  0.27802648  0.61256133  1
  S  S9  1  0.75000000  0.83704954  0.21018094  1
  S  S10  1  0.25000000  0.96501811  0.31553241  1
  S  S11  1  0.75000000  0.03498189  0.68446759  1
  S  S12  1  0.25000000  0.29378922  0.21657236  1
  S  S13  1  0.75000000  0.70621078  0.78342764  1
  S  S14  1  0.25000000  0.48491378  0.71031244  1
  S  S15  1  0.75000000  0.51508622  0.28968756  1
  S  S16  1  0.25000000  0.79685392  0.65116666  1
  S  S17  1  0.75000000  0.20314608  0.34883334  1
  S  S18  1  0.25000000  0.42166690  0.44729253  1
  S  S19  1  0.75000000  0.57833310  0.55270747  1
  S  S20  1  0.75000000  0.12454605  0.50870077  1
  S  S21  1  0.75000000  0.39073095  0.84308455  1
  S  S22  1  0.25000000  0.87545395  0.49129923  1
  S  S23  1  0.25000000  0.16295046  0.78981906  1
loop_
_geom_bond_atom_site_label_1
_geom_bond_atom_site_label_2
_geom_bond_distance
_geom_bond_site_symmetry_2
In0 S1 2.530767 1_555
In0 S1 2.530767 1_455
In0 S0 2.556380 1_555
In0 S4 2.598590 1_565
In0 S9 2.837758 1_455
In0 S9 2.837758 1_555
In1 S20 2.536437 1_555
In1 S19 2.623871 1_555
In1 S18 2.652064 1_555
In1 S18 2.652064 1_655
In1 S8 2.720363 1_655
In1 S8 2.720363 1_555
In2 S22 2.536437 1_555
In2 S18 2.623871 1_555
In2 S19 2.652064 1_555
In2 S19 2.652064 1_455
In2 S7 2.720363 1_455
In2 S7 2.720363 1_555
In3 S0 2.559164 1_555
In3 S0 2.559164 1_655
In3 S15 2.616620 1_555
In3 S5 2.618055 1_555
In3 S12 2.737608 1_555
In3 S12 2.737608 1_655
In4 S21 2.559164 1_555
In4 S21 2.559164 1_455
In4 S14 2.616620 1_555
In4 S6 2.618055 1_555
In4 S13 2.737608 1_455
In4 S13 2.737608 1_555
In5 S16 2.540876 1_555
In5 S16 2.540876 1_655
In5 S13 2.628994 1_555
In5 S19 2.630091 1_555
In5 S14 2.732512 1_555
In5 S14 2.732512 1_655
In6 S17 2.540876 1_555
In6 S17 2.540876 1_455
In6 S12 2.628994 1_555
In6 S18 2.630091 1_555
In6 S15 2.732512 1_555
In6 S15 2.732512 1_455
In7 S1 2.463744 1_556
In7 S6 2.480731 1_555
In7 S6 2.480731 1_655
In7 S3 2.489352 1_555
In8 S2 2.463744 1_554
In8 S5 2.480731 1_555
In8 S5 2.480731 1_455
In8 S4 2.489352 1_555
In9 S2 2.530767 1_655
In9 S2 2.530767 1_555
In9 S21 2.556380 1_555
In9 S3 2.598590 1_545
In9 S23 2.837758 1_655
In9 S23 2.837758 1_555
S0 Tb0 3.074128 1_555
S3 Tb2 2.833195 1_555
S3 Tb2 2.833195 1_655
S4 Tb3 2.833195 1_455
S4 Tb3 2.833195 1_555
S7 Tb5 2.843659 1_555
S7 Tb0 2.935811 1_555
S7 Tb0 2.935811 1_655
S8 Tb4 2.843659 1_555
S8 Tb1 2.935811 1_455
S8 Tb1 2.935811 1_555
S9 Tb0 2.767005 1_655
S9 Tb0 2.767005 1_555
S9 Tb3 2.843658 1_565
S10 Tb5 2.838076 1_455
S10 Tb5 2.838076 1_555
S10 Tb3 2.838770 1_565
S10 Tb3 2.838770 1_465
S10 Tb0 2.886692 1_555
S11 Tb4 2.838076 1_555
S11 Tb4 2.838076 1_655
S11 Tb2 2.838770 1_545
S11 Tb2 2.838770 1_645
S11 Tb1 2.886692 1_555
S12 Tb3 2.979740 1_555
S12 Tb3 2.979740 1_455
S13 Tb2 2.979740 1_555
S13 Tb2 2.979740 1_655
S14 Tb1 2.922271 1_455
S14 Tb1 2.922271 1_555
S15 Tb0 2.922271 1_655
S15 Tb0 2.922271 1_555
S16 Tb4 2.738326 1_565
S16 Tb2 2.865808 1_555
S17 Tb5 2.738326 1_545
S17 Tb3 2.865808 1_555
S20 Tb4 2.717205 1_655
S20 Tb4 2.717205 1_555
S20 Tb5 2.791006 1_545
S21 Tb1 3.074128 1_555
S22 Tb5 2.717205 1_555
S22 Tb5 2.717205 1_455
S22 Tb4 2.791006 1_565
S23 Tb1 2.767005 1_455
S23 Tb1 2.767005 1_555
S23 Tb2 2.843658 1_545
