# generated using pymatgen
data_TaGe(PO4)3
_symmetry_space_group_name_H-M   'P 1'
_cell_length_a   8.56408171
_cell_length_b   8.56408145
_cell_length_c   21.99713023
_cell_angle_alpha   90.00000000
_cell_angle_beta   90.00000000
_cell_angle_gamma   120.00000098
_symmetry_Int_Tables_number   1
_chemical_formula_structural   TaGe(PO4)3
_chemical_formula_sum   'Ta6 Ge6 P18 O72'
_cell_volume   1397.19893057
_cell_formula_units_Z   6
loop_
 _symmetry_equiv_pos_site_id
 _symmetry_equiv_pos_as_xyz
  1  'x, y, z'
loop_
 _atom_site_type_symbol
 _atom_site_label
 _atom_site_symmetry_multiplicity
 _atom_site_fract_x
 _atom_site_fract_y
 _atom_site_fract_z
 _atom_site_occupancy
  Ta  Ta0  1  0.00000000  0.00000000  0.63962945  1
  Ta  Ta1  1  0.00000000  0.00000000  0.13962945  1
  Ta  Ta2  1  0.66666700  0.33333300  0.97296245  1
  Ta  Ta3  1  0.66666700  0.33333300  0.47296245  1
  Ta  Ta4  1  0.33333300  0.66666700  0.30629645  1
  Ta  Ta5  1  0.33333300  0.66666700  0.80629645  1
  Ge  Ge0  1  0.00000000  0.00000000  0.35468680  1
  Ge  Ge1  1  0.00000000  0.00000000  0.85468680  1
  Ge  Ge2  1  0.66666700  0.33333300  0.68801980  1
  Ge  Ge3  1  0.66666700  0.33333300  0.18801980  1
  Ge  Ge4  1  0.33333300  0.66666700  0.02135380  1
  Ge  Ge5  1  0.33333300  0.66666700  0.52135380  1
  P  P0  1  0.29105258  0.01540898  0.25041472  1
  P  P1  1  0.72435640  0.70894742  0.25041472  1
  P  P2  1  0.98459102  0.27564360  0.25041472  1
  P  P3  1  0.29105258  0.27564360  0.75041472  1
  P  P4  1  0.98459102  0.70894742  0.75041472  1
  P  P5  1  0.72435640  0.01540898  0.75041472  1
  P  P6  1  0.95771958  0.34874198  0.58374772  1
  P  P7  1  0.39102340  0.04228042  0.58374772  1
  P  P8  1  0.65125802  0.60897660  0.58374772  1
  P  P9  1  0.95771958  0.60897660  0.08374772  1
  P  P10  1  0.65125802  0.04228042  0.08374772  1
  P  P11  1  0.39102340  0.34874198  0.08374772  1
  P  P12  1  0.62438558  0.68207598  0.91708172  1
  P  P13  1  0.05768940  0.37561442  0.91708172  1
  P  P14  1  0.31792402  0.94231060  0.91708172  1
  P  P15  1  0.62438558  0.94231060  0.41708172  1
  P  P16  1  0.31792402  0.37561442  0.41708172  1
  P  P17  1  0.05768940  0.68207598  0.41708172  1
  O  O0  1  0.20653954  0.04575554  0.30758197  1
  O  O1  1  0.83921600  0.79346046  0.30758197  1
  O  O2  1  0.95424446  0.16078400  0.30758197  1
  O  O3  1  0.20653954  0.16078400  0.80758197  1
  O  O4  1  0.95424446  0.79346046  0.80758197  1
  O  O5  1  0.83921600  0.04575554  0.80758197  1
  O  O6  1  0.80399812  0.97414802  0.69416654  1
  O  O7  1  0.17014990  0.19600188  0.69416654  1
  O  O8  1  0.02585198  0.82985010  0.69416654  1
  O  O9  1  0.80399812  0.82985010  0.19416654  1
  O  O10  1  0.02585198  0.19600188  0.19416654  1
  O  O11  1  0.17014990  0.97414802  0.19416654  1
  O  O12  1  0.87320654  0.37908854  0.64091497  1
  O  O13  1  0.50588300  0.12679346  0.64091497  1
  O  O14  1  0.62091146  0.49411700  0.64091497  1
  O  O15  1  0.87320654  0.49411700  0.14091497  1
  O  O16  1  0.62091146  0.12679346  0.14091497  1
  O  O17  1  0.50588300  0.37908854  0.14091497  1
  O  O18  1  0.47066512  0.30748102  0.02749954  1
  O  O19  1  0.83681690  0.52933488  0.02749954  1
  O  O20  1  0.69251898  0.16318310  0.02749954  1
  O  O21  1  0.47066512  0.16318310  0.52749954  1
  O  O22  1  0.69251898  0.52933488  0.52749954  1
  O  O23  1  0.83681690  0.30748102  0.52749954  1
  O  O24  1  0.53987254  0.71242254  0.97424897  1
  O  O25  1  0.17254900  0.46012746  0.97424897  1
  O  O26  1  0.28757746  0.82745100  0.97424897  1
  O  O27  1  0.53987254  0.82745100  0.47424897  1
  O  O28  1  0.28757746  0.46012746  0.47424897  1
  O  O29  1  0.17254900  0.71242254  0.47424897  1
  O  O30  1  0.13733112  0.64081502  0.36083354  1
  O  O31  1  0.50348290  0.86266888  0.36083354  1
  O  O32  1  0.35918498  0.49651710  0.36083354  1
  O  O33  1  0.13733112  0.49651710  0.86083354  1
  O  O34  1  0.35918498  0.86266888  0.86083354  1
  O  O35  1  0.50348290  0.64081502  0.86083354  1
  O  O36  1  0.03365182  0.84518584  0.40757004  1
  O  O37  1  0.81153403  0.96634818  0.40757004  1
  O  O38  1  0.15481416  0.18846597  0.40757004  1
  O  O39  1  0.03365182  0.18846597  0.90757004  1
  O  O40  1  0.15481416  0.96634818  0.90757004  1
  O  O41  1  0.81153403  0.84518584  0.90757004  1
  O  O42  1  0.97597004  0.17826226  0.59216132  1
  O  O43  1  0.20229222  0.02402996  0.59216132  1
  O  O44  1  0.82173774  0.79770778  0.59216132  1
  O  O45  1  0.97597004  0.79770778  0.09216132  1
  O  O46  1  0.82173774  0.02402996  0.09216132  1
  O  O47  1  0.20229222  0.17826226  0.09216132  1
  O  O48  1  0.70031882  0.17851884  0.74090304  1
  O  O49  1  0.47820103  0.29968118  0.74090304  1
  O  O50  1  0.82148116  0.52179897  0.74090304  1
  O  O51  1  0.70031882  0.52179897  0.24090304  1
  O  O52  1  0.82148116  0.29968118  0.24090304  1
  O  O53  1  0.47820103  0.17851884  0.24090304  1
  O  O54  1  0.64263704  0.51159526  0.92549432  1
  O  O55  1  0.86895922  0.35736296  0.92549432  1
  O  O56  1  0.48840474  0.13104078  0.92549432  1
  O  O57  1  0.64263704  0.13104078  0.42549432  1
  O  O58  1  0.48840474  0.35736296  0.42549432  1
  O  O59  1  0.86895922  0.51159526  0.42549432  1
  O  O60  1  0.36698482  0.51185284  0.07423704  1
  O  O61  1  0.14486703  0.63301518  0.07423704  1
  O  O62  1  0.48814716  0.85513297  0.07423704  1
  O  O63  1  0.36698482  0.85513297  0.57423704  1
  O  O64  1  0.48814716  0.63301518  0.57423704  1
  O  O65  1  0.14486703  0.51185284  0.57423704  1
  O  O66  1  0.30930304  0.84492926  0.25882832  1
  O  O67  1  0.53562522  0.69069696  0.25882832  1
  O  O68  1  0.15507074  0.46437478  0.25882832  1
  O  O69  1  0.30930304  0.46437478  0.75882832  1
  O  O70  1  0.15507074  0.69069696  0.75882832  1
  O  O71  1  0.53562522  0.84492926  0.75882832  1
loop_
_geom_bond_atom_site_label_1
_geom_bond_atom_site_label_2
_geom_bond_distance
_geom_bond_site_symmetry_2
Ge0 O38 1.891093 1_555
Ge0 O37 1.891093 1_445
Ge0 O36 1.891093 1_545
Ge0 O1 1.913847 1_445
Ge0 O2 1.913847 1_455
Ge0 O0 1.913847 1_555
Ge1 O39 1.891093 1_555
Ge1 O41 1.891093 1_445
Ge1 O40 1.891094 1_545
Ge1 O4 1.913847 1_445
Ge1 O3 1.913847 1_555
Ge1 O5 1.913847 1_455
Ge2 O50 1.891093 1_555
Ge2 O49 1.891093 1_555
Ge2 O48 1.891093 1_555
Ge2 O13 1.913847 1_555
Ge2 O14 1.913847 1_555
Ge2 O12 1.913847 1_555
Ge3 O51 1.891093 1_555
Ge3 O53 1.891093 1_555
Ge3 O52 1.891094 1_555
Ge3 O16 1.913847 1_555
Ge3 O15 1.913847 1_555
Ge3 O17 1.913847 1_555
Ge4 O62 1.891093 1_555
Ge4 O61 1.891093 1_555
Ge4 O60 1.891093 1_555
Ge4 O25 1.913847 1_554
Ge4 O26 1.913847 1_554
Ge4 O24 1.913847 1_554
Ge5 O63 1.891093 1_555
Ge5 O65 1.891093 1_555
Ge5 O64 1.891094 1_555
Ge5 O28 1.913847 1_555
Ge5 O27 1.913847 1_555
Ge5 O29 1.913847 1_555
O0 P0 1.536504 1_555
O1 P1 1.536504 1_555
O2 P2 1.536504 1_555
O3 P3 1.536504 1_555
O4 P4 1.536504 1_555
O5 P5 1.536504 1_555
O6 P5 1.536877 1_565
O6 Ta0 1.983478 1_665
O7 P3 1.536877 1_555
O7 Ta0 1.983478 1_555
O8 P4 1.536877 1_455
O8 Ta0 1.983478 1_565
O9 P1 1.536877 1_555
O9 Ta1 1.983478 1_665
O10 P2 1.536877 1_455
O10 Ta1 1.983478 1_555
O11 P0 1.536877 1_565
O11 Ta1 1.983478 1_565
O12 P6 1.536504 1_555
O13 P7 1.536504 1_555
O14 P8 1.536504 1_555
O15 P9 1.536504 1_555
O16 P10 1.536504 1_555
O17 P11 1.536504 1_555
O18 P11 1.536877 1_555
O18 Ta2 1.983478 1_554
O19 P9 1.536877 1_555
O19 Ta2 1.983478 1_554
O20 P10 1.536877 1_555
O20 Ta2 1.983478 1_554
O21 P7 1.536877 1_555
O21 Ta3 1.983478 1_555
O22 P8 1.536877 1_555
O22 Ta3 1.983478 1_555
O23 P6 1.536877 1_555
O23 Ta3 1.983478 1_555
O24 P12 1.536504 1_555
O25 P13 1.536504 1_555
O26 P14 1.536504 1_555
O27 P15 1.536504 1_555
O28 P16 1.536504 1_555
O29 P17 1.536504 1_555
O30 P17 1.536877 1_555
O30 Ta4 1.983478 1_555
O31 P15 1.536877 1_555
O31 Ta4 1.983478 1_555
O32 P16 1.536877 1_555
O32 Ta4 1.983478 1_555
O33 P13 1.536877 1_555
O33 Ta5 1.983478 1_555
O34 P14 1.536877 1_555
O34 Ta5 1.983478 1_555
O35 P12 1.536877 1_555
O35 Ta5 1.983478 1_555
O36 P17 1.524798 1_555
O37 P15 1.524807 1_555
O38 P16 1.524803 1_555
O39 P13 1.524806 1_555
O40 P14 1.524798 1_555
O41 P12 1.524803 1_555
O42 P6 1.555148 1_555
O42 Ta0 1.943572 1_655
O43 P7 1.555156 1_555
O43 Ta0 1.943572 1_555
O44 P8 1.555153 1_555
O44 Ta0 1.943572 1_665
O45 P9 1.555156 1_555
O45 Ta1 1.943572 1_665
O46 P10 1.555148 1_555
O46 Ta1 1.943572 1_655
O47 P11 1.555153 1_555
O47 Ta1 1.943572 1_555
O48 P5 1.524798 1_555
O49 P3 1.524807 1_555
O50 P4 1.524803 1_555
O51 P1 1.524806 1_555
O52 P2 1.524798 1_555
O53 P0 1.524803 1_555
O54 P12 1.555158 1_555
O54 Ta2 1.943572 1_555
O55 P13 1.555142 1_655
O55 Ta2 1.943572 1_555
O56 P14 1.555149 1_545
O56 Ta2 1.943572 1_555
O57 P15 1.555142 1_545
O57 Ta3 1.943572 1_555
O58 P16 1.555159 1_555
O58 Ta3 1.943572 1_555
O59 P17 1.555149 1_655
O59 Ta3 1.943572 1_555
O60 P11 1.524808 1_555
O61 P9 1.524792 1_455
O62 P10 1.524798 1_565
O63 P7 1.524792 1_565
O64 P8 1.524808 1_555
O65 P6 1.524798 1_455
O66 P0 1.555148 1_565
O66 Ta4 1.943572 1_555
O67 P1 1.555156 1_555
O67 Ta4 1.943572 1_555
O68 P2 1.555153 1_455
O68 Ta4 1.943572 1_555
O69 P3 1.555156 1_555
O69 Ta5 1.943572 1_555
O70 P4 1.555148 1_455
O70 Ta5 1.943572 1_555
O71 P5 1.555153 1_565
O71 Ta5 1.943572 1_555
