# generated using pymatgen
data_Na6Nb6Al2Si9(SO16)3
_symmetry_space_group_name_H-M   'P 1'
_cell_length_a   17.74068849
_cell_length_b   8.87098631
_cell_length_c   22.62511479
_cell_angle_alpha   90.00637982
_cell_angle_beta   90.06719543
_cell_angle_gamma   120.01525949
_symmetry_Int_Tables_number   1
_chemical_formula_structural   Na6Nb6Al2Si9(SO16)3
_chemical_formula_sum   'Na18 Nb18 Al6 Si27 S9 O144'
_cell_volume   3083.16354701
_cell_formula_units_Z   3
loop_
 _symmetry_equiv_pos_site_id
 _symmetry_equiv_pos_as_xyz
  1  'x, y, z'
loop_
 _atom_site_type_symbol
 _atom_site_label
 _atom_site_symmetry_multiplicity
 _atom_site_fract_x
 _atom_site_fract_y
 _atom_site_fract_z
 _atom_site_occupancy
  Na  Na0  1  0.32071587  0.01267037  0.25011224  1
  Na  Na1  1  0.68259292  0.36413194  0.24443771  1
  Na  Na2  1  0.49568002  0.61914980  0.24897898  1
  Na  Na3  1  0.82029480  0.62972769  0.74793983  1
  Na  Na4  1  0.99605745  0.37196068  0.74656253  1
  Na  Na5  1  0.18469851  0.00642021  0.74074326  1
  Na  Na6  1  0.00370631  0.01258535  0.49947970  1
  Na  Na7  1  0.50509313  0.99785417  0.49358212  1
  Na  Na8  1  0.00520160  0.01700719  0.99101547  1
  Na  Na9  1  0.50404040  0.99491486  0.99788478  1
  Na  Na10  1  0.34073610  0.33620904  0.82974460  1
  Na  Na11  1  0.82911276  0.32069009  0.82583224  1
  Na  Na12  1  0.32854721  0.34128154  0.33165746  1
  Na  Na13  1  0.84021322  0.34427557  0.33473090  1
  Na  Na14  1  0.16705867  0.65511689  0.16586600  1
  Na  Na15  1  0.67363499  0.67254773  0.16586045  1
  Na  Na16  1  0.17552597  0.67497621  0.66412703  1
  Na  Na17  1  0.65981370  0.67033201  0.66051778  1
  Nb  Nb0  1  0.00255414  0.98513433  0.35741790  1
  Nb  Nb1  1  0.50294416  0.02040626  0.85585177  1
  Nb  Nb2  1  0.99724264  0.99079605  0.64331761  1
  Nb  Nb3  1  0.49912586  0.01362876  0.63839296  1
  Nb  Nb4  1  0.99975479  0.99630145  0.14324935  1
  Nb  Nb5  1  0.49750209  0.00343806  0.14352864  1
  Nb  Nb6  1  0.32829884  0.34102926  0.97567698  1
  Nb  Nb7  1  0.82937068  0.31300777  0.97621212  1
  Nb  Nb8  1  0.33545545  0.34702487  0.48046497  1
  Nb  Nb9  1  0.82772470  0.31367101  0.47626328  1
  Nb  Nb10  1  0.16519956  0.65195370  0.01544677  1
  Nb  Nb11  1  0.65957655  0.66677606  0.02930724  1
  Nb  Nb12  1  0.15984069  0.65061587  0.52909591  1
  Nb  Nb13  1  0.65855694  0.66971739  0.51743808  1
  Nb  Nb14  1  0.16464363  0.66084276  0.31127412  1
  Nb  Nb15  1  0.66880873  0.65717316  0.31540056  1
  Nb  Nb16  1  0.16852601  0.68047415  0.81407428  1
  Nb  Nb17  1  0.66222098  0.66567389  0.80866379  1
  Al  Al0  1  0.49472979  0.99977087  0.35586214  1
  Al  Al1  1  0.99642991  0.99355323  0.85463602  1
  Al  Al2  1  0.33638557  0.31986190  0.67815086  1
  Al  Al3  1  0.83238067  0.31034369  0.69331224  1
  Al  Al4  1  0.33192451  0.35478860  0.19417847  1
  Al  Al5  1  0.83027851  0.34094180  0.18230685  1
  Si  Si0  1  0.14920060  0.01104866  0.24827560  1
  Si  Si1  1  0.35979426  0.71532425  0.25444825  1
  Si  Si2  1  0.85660980  0.69871995  0.24775941  1
  Si  Si3  1  0.49677530  0.28355260  0.25270876  1
  Si  Si4  1  0.64897079  0.28444506  0.74721212  1
  Si  Si5  1  0.99680033  0.71195583  0.75309529  1
  Si  Si6  1  0.35710187  0.01435249  0.74701895  1
  Si  Si7  1  0.86030073  0.00456599  0.75469474  1
  Si  Si8  1  0.47683948  0.34180189  0.58435007  1
  Si  Si9  1  0.96789438  0.32790717  0.58989810  1
  Si  Si10  1  0.19257800  0.05094369  0.58539304  1
  Si  Si11  1  0.69479943  0.05015939  0.58897321  1
  Si  Si12  1  0.33299969  0.61000487  0.59083584  1
  Si  Si13  1  0.46764019  0.60760905  0.08985670  1
  Si  Si14  1  0.83366537  0.05570658  0.08938019  1
  Si  Si15  1  0.19389416  0.33847170  0.08845093  1
  Si  Si16  1  0.69270999  0.33477856  0.08596870  1
  Si  Si17  1  0.31340885  0.67232451  0.91387391  1
  Si  Si18  1  0.01945137  0.36188849  0.91144989  1
  Si  Si19  1  0.52350826  0.38602108  0.91931227  1
  Si  Si20  1  0.15759955  0.95464251  0.91842727  1
  Si  Si21  1  0.66385361  0.94706467  0.91582979  1
  Si  Si22  1  0.81152250  0.94935678  0.41641899  1
  Si  Si23  1  0.16760621  0.37762351  0.41646967  1
  Si  Si24  1  0.65821472  0.36032064  0.41819898  1
  Si  Si25  1  0.02303309  0.65938945  0.41948598  1
  Si  Si26  1  0.51755620  0.67639435  0.41108172  1
  S  S0  1  0.64678616  0.00502160  0.24950909  1
  S  S1  1  0.99504946  0.28672660  0.24856852  1
  S  S2  1  0.14474507  0.28707533  0.75128491  1
  S  S3  1  0.49417296  0.70593938  0.74981474  1
  S  S4  1  0.83111722  0.61493144  0.58512063  1
  S  S5  1  0.97568967  0.61597066  0.08491573  1
  S  S6  1  0.33010613  0.04488174  0.08496395  1
  S  S7  1  0.81245078  0.67116059  0.91671402  1
  S  S8  1  0.31219129  0.95351564  0.41586742  1
  O  O0  1  0.09965105  0.03465058  0.30589556  1
  O  O1  1  0.60767782  0.03389636  0.30202398  1
  O  O2  1  0.42349560  0.81395075  0.30839542  1
  O  O3  1  0.91723831  0.80121366  0.30550745  1
  O  O4  1  0.48513426  0.15795447  0.30691855  1
  O  O5  1  0.98419883  0.18554152  0.30230433  1
  O  O6  1  0.10355746  0.17941653  0.80376919  1
  O  O7  1  0.60103938  0.16628696  0.80677406  1
  O  O8  1  0.48799652  0.79139626  0.80440178  1
  O  O9  1  0.98513895  0.81238699  0.80792055  1
  O  O10  1  0.41728515  0.03163942  0.80603636  1
  O  O11  1  0.92340151  0.03494991  0.80932476  1
  O  O12  1  0.40226496  0.97760384  0.69085929  1
  O  O13  1  0.90399951  0.96525675  0.69516523  1
  O  O14  1  0.09028690  0.20765142  0.69684655  1
  O  O15  1  0.58331539  0.19203117  0.69235412  1
  O  O16  1  0.01967585  0.84029993  0.69384082  1
  O  O17  1  0.51105552  0.81326285  0.69695470  1
  O  O18  1  0.40474434  0.84215832  0.19446613  1
  O  O19  1  0.90283994  0.82587922  0.19040796  1
  O  O20  1  0.01091639  0.20737242  0.19551183  1
  O  O21  1  0.51925803  0.19879634  0.19305510  1
  O  O22  1  0.08322261  0.97674347  0.19247421  1
  O  O23  1  0.59183806  0.97580365  0.19535227  1
  O  O24  1  0.43428673  0.36547019  0.64291702  1
  O  O25  1  0.93034885  0.36071820  0.64957218  1
  O  O26  1  0.24421849  0.12707674  0.64667935  1
  O  O27  1  0.75451102  0.14784127  0.64436306  1
  O  O28  1  0.31733960  0.48548008  0.64578880  1
  O  O29  1  0.82483363  0.52381832  0.64021026  1
  O  O30  1  0.42925754  0.49872993  0.14913048  1
  O  O31  1  0.93405995  0.51608715  0.13845223  1
  O  O32  1  0.32260460  0.12154498  0.13967327  1
  O  O33  1  0.82454940  0.15858187  0.14402286  1
  O  O34  1  0.25341917  0.36283711  0.14410292  1
  O  O35  1  0.74565901  0.36164338  0.14638357  1
  O  O36  1  0.23411063  0.30855347  0.02648405  1
  O  O37  1  0.74221928  0.31289794  0.02758065  1
  O  O38  1  0.41289603  0.51818349  0.02914422  1
  O  O39  1  0.92634085  0.53878967  0.03034560  1
  O  O40  1  0.34201542  0.14714363  0.03116310  1
  O  O41  1  0.84819796  0.16754249  0.02673441  1
  O  O42  1  0.23735377  0.17073145  0.52663898  1
  O  O43  1  0.73473352  0.16388075  0.52700399  1
  O  O44  1  0.34808458  0.53152222  0.52764950  1
  O  O45  1  0.84369051  0.53670581  0.53147583  1
  O  O46  1  0.41908412  0.31231992  0.52442696  1
  O  O47  1  0.91350939  0.30759121  0.52909278  1
  O  O48  1  0.26543132  0.69450273  0.97309552  1
  O  O49  1  0.77020073  0.69284275  0.96919037  1
  O  O50  1  0.08295261  0.46437027  0.97058203  1
  O  O51  1  0.58491856  0.47654233  0.97647181  1
  O  O52  1  0.14829358  0.82762172  0.97522203  1
  O  O53  1  0.65710000  0.83573053  0.97450202  1
  O  O54  1  0.27031600  0.84732387  0.46829441  1
  O  O55  1  0.76589168  0.83246805  0.47429332  1
  O  O56  1  0.15739675  0.47759463  0.47379475  1
  O  O57  1  0.64835794  0.46846207  0.47343202  1
  O  O58  1  0.08505093  0.69308510  0.47598592  1
  O  O59  1  0.58010803  0.69991200  0.47010916  1
  O  O60  1  0.07119052  0.64197138  0.35957172  1
  O  O61  1  0.56754285  0.64436400  0.35401604  1
  O  O62  1  0.25868675  0.87018718  0.36025417  1
  O  O63  1  0.75122665  0.85949995  0.35765988  1
  O  O64  1  0.18004173  0.49963538  0.35756963  1
  O  O65  1  0.67894198  0.48746211  0.35789578  1
  O  O66  1  0.06627395  0.49075153  0.85454666  1
  O  O67  1  0.57112102  0.50134531  0.86019338  1
  O  O68  1  0.17806895  0.86718445  0.85931398  1
  O  O69  1  0.68056992  0.85990401  0.85739935  1
  O  O70  1  0.25068339  0.64088071  0.85755558  1
  O  O71  1  0.75926878  0.63975600  0.86154169  1
  O  O72  1  0.01555874  0.83674409  0.41221510  1
  O  O73  1  0.50942088  0.84675280  0.40560230  1
  O  O74  1  0.39840085  0.96950979  0.40900258  1
  O  O75  1  0.90764088  0.97504126  0.40703099  1
  O  O76  1  0.07889775  0.19053458  0.40754180  1
  O  O77  1  0.57380567  0.17593324  0.40625728  1
  O  O78  1  0.00848983  0.17316378  0.90708232  1
  O  O79  1  0.51580612  0.19414055  0.91210357  1
  O  O80  1  0.07359468  0.97167188  0.90755555  1
  O  O81  1  0.57874666  0.96721913  0.90919816  1
  O  O82  1  0.40837935  0.84073701  0.90882999  1
  O  O83  1  0.89881199  0.82670869  0.91033775  1
  O  O84  1  0.48686748  0.16540635  0.58528406  1
  O  O85  1  0.98314513  0.15883930  0.59339740  1
  O  O86  1  0.09344011  0.02655010  0.59036139  1
  O  O87  1  0.59572550  0.02116415  0.59339468  1
  O  O88  1  0.41978799  0.80364654  0.59420128  1
  O  O89  1  0.91293022  0.79632991  0.58715053  1
  O  O90  1  0.48353924  0.80762733  0.09299469  1
  O  O91  1  0.98552199  0.79473589  0.08784812  1
  O  O92  1  0.41061011  0.02429558  0.08672382  1
  O  O93  1  0.91981693  0.03240068  0.09302639  1
  O  O94  1  0.09453302  0.16649479  0.09293464  1
  O  O95  1  0.59463006  0.16070270  0.08915178  1
  O  O96  1  0.34132131  0.17979413  0.74222998  1
  O  O97  1  0.84932428  0.17354175  0.74770477  1
  O  O98  1  0.23186604  0.30896684  0.74573079  1
  O  O99  1  0.74701096  0.32224286  0.74063632  1
  O  O100  1  0.41867657  0.53155756  0.74636569  1
  O  O101  1  0.91295181  0.51992857  0.74421059  1
  O  O102  1  0.34914639  0.52486940  0.24766965  1
  O  O103  1  0.84409833  0.50404304  0.24064258  1
  O  O104  1  0.41242415  0.30576265  0.24321741  1
  O  O105  1  0.92013161  0.31272088  0.24119397  1
  O  O106  1  0.24635410  0.17064450  0.23977593  1
  O  O107  1  0.73466697  0.16003484  0.24249925  1
  O  O108  1  0.31903754  0.49523401  0.91982656  1
  O  O109  1  0.82211704  0.51304989  0.92249594  1
  O  O110  1  0.42619512  0.35670037  0.92476589  1
  O  O111  1  0.92870409  0.36489862  0.92431691  1
  O  O112  1  0.24851763  0.13951476  0.92655353  1
  O  O113  1  0.75070504  0.14436018  0.92093498  1
  O  O114  1  0.31893454  0.12606865  0.41824395  1
  O  O115  1  0.81887748  0.14060248  0.42052025  1
  O  O116  1  0.25172530  0.35228540  0.41987091  1
  O  O117  1  0.74906491  0.35595034  0.42506550  1
  O  O118  1  0.42609151  0.49363428  0.41966568  1
  O  O119  1  0.92621286  0.49414234  0.42365983  1
  O  O120  1  0.17872977  0.50885431  0.07806861  1
  O  O121  1  0.68243077  0.50731118  0.07656701  1
  O  O122  1  0.06470375  0.63777465  0.08160083  1
  O  O123  1  0.56792388  0.63763294  0.08049960  1
  O  O124  1  0.25235901  0.86586506  0.07928152  1
  O  O125  1  0.74919699  0.86126864  0.07935445  1
  O  O126  1  0.18178113  0.85661046  0.57570990  1
  O  O127  1  0.68388584  0.85636397  0.57724748  1
  O  O128  1  0.24920243  0.63903923  0.57886660  1
  O  O129  1  0.75482355  0.63972746  0.57989987  1
  O  O130  1  0.06811221  0.49765954  0.58068668  1
  O  O131  1  0.57565168  0.50882209  0.57754141  1
  O  O132  1  0.15706128  0.83361078  0.25697509  1
  O  O133  1  0.65262703  0.84278038  0.25245196  1
  O  O134  1  0.26334816  0.70445302  0.25732046  1
  O  O135  1  0.75823827  0.67578555  0.25400716  1
  O  O136  1  0.07699946  0.46462318  0.25248965  1
  O  O137  1  0.58487284  0.48161610  0.25481710  1
  O  O138  1  0.14954158  0.46127472  0.75424556  1
  O  O139  1  0.65738977  0.47853319  0.75837799  1
  O  O140  1  0.08507987  0.68986580  0.75568880  1
  O  O141  1  0.57658144  0.68754780  0.75452705  1
  O  O142  1  0.25845999  0.83845825  0.75559731  1
  O  O143  1  0.76371505  0.82201822  0.75884399  1
loop_
_geom_bond_atom_site_label_1
_geom_bond_atom_site_label_2
_geom_bond_distance
_geom_bond_site_symmetry_2
Na0 O104 2.280360 1_555
Na0 O106 2.368099 1_555
Na0 O134 2.398896 1_545
Na0 O132 2.522669 1_545
Na0 O32 2.673158 1_555
Na0 O62 2.762985 1_545
Na0 O4 2.837420 1_555
Na0 O18 2.890541 1_545
Na1 O135 2.403861 1_555
Na1 O107 2.409757 1_555
Na1 O137 2.440346 1_555
Na1 O103 2.489998 1_555
Na1 O35 2.490880 1_555
Na1 O21 2.763866 1_555
Na1 O65 2.803805 1_555
Na1 O1 2.855804 1_555
Na2 O102 2.298464 1_555
Na2 O104 2.412189 1_555
Na2 O137 2.437373 1_555
Na2 O133 2.483460 1_555
Na2 O30 2.523296 1_555
Na2 O61 2.651510 1_555
Na3 O101 2.293485 1_555
Na3 O99 2.368409 1_555
Na3 O143 2.385726 1_555
Na3 O139 2.516090 1_555
Na3 O29 2.627872 1_555
Na3 O71 2.808750 1_555
Na3 O13 2.841334 1_555
Na3 O9 2.875581 1_555
Na4 O97 2.300286 1_555
Na4 O101 2.415679 1_555
Na4 O138 2.431607 1_655
Na4 O140 2.456255 1_655
Na4 O25 2.462102 1_555
Na4 O66 2.703739 1_655
Na4 O14 2.937034 1_655
Na4 O11 2.960676 1_555
Na5 O26 2.380111 1_555
Na5 O98 2.380973 1_555
Na5 O96 2.410703 1_555
Na5 O142 2.448497 1_545
Na5 O140 2.481910 1_545
Na5 O16 2.746773 1_545
Na5 O68 2.931270 1_545
Na5 O6 2.945362 1_555
Na6 O76 2.549256 1_555
Na6 O86 2.563703 1_555
Na6 O72 2.589215 1_545
Na6 O85 2.608874 1_455
Na6 O75 2.610386 1_445
Na6 O89 2.669406 1_445
Na7 O73 2.422322 1_555
Na7 O77 2.442298 1_565
Na7 O74 2.612105 1_555
Na7 O84 2.664610 1_565
Na7 O87 2.717824 1_565
Na7 O88 2.800253 1_555
Na8 O78 2.334212 1_555
Na8 O80 2.385995 1_545
Na8 O83 2.558825 1_445
Na8 O94 2.734161 1_556
Na8 O93 2.802712 1_456
Na8 O91 2.850195 1_446
Na9 O81 2.484957 1_555
Na9 O82 2.545514 1_555
Na9 O79 2.562500 1_565
Na9 O95 2.576156 1_566
Na9 O90 2.630828 1_556
Na9 O92 2.700977 1_566
Na10 O96 2.420697 1_555
Na10 O100 2.466429 1_555
Na10 O110 2.582651 1_555
Na10 O108 2.614707 1_555
Na10 O98 2.631779 1_555
Na10 O112 2.769820 1_555
Na11 O97 2.329445 1_555
Na11 O99 2.418825 1_555
Na11 O101 2.474576 1_555
Na11 O113 2.615811 1_555
Na11 O111 2.745505 1_555
Na11 O109 2.814614 1_555
Na12 O102 2.409081 1_555
Na12 O116 2.447399 1_555
Na12 O118 2.537230 1_555
Na12 O106 2.554024 1_555
Na12 O104 2.606399 1_555
Na12 O114 2.680974 1_555
Na13 O119 2.471110 1_555
Na13 O103 2.539365 1_555
Na13 O115 2.548232 1_555
Na13 O105 2.640294 1_555
Na13 O117 2.641594 1_555
Na13 O107 2.731340 1_555
Na14 O120 2.437501 1_555
Na14 O136 2.560535 1_555
Na14 O134 2.575777 1_555
Na14 O122 2.582262 1_555
Na14 O124 2.607711 1_555
Na14 O132 2.658748 1_555
Na15 O135 2.486116 1_555
Na15 O125 2.488380 1_555
Na15 O121 2.546247 1_555
Na15 O137 2.595971 1_555
Na15 O123 2.598686 1_555
Na15 O133 2.611852 1_555
Na16 O128 2.440055 1_555
Na16 O142 2.531471 1_555
Na16 O126 2.536270 1_555
Na16 O130 2.581002 1_555
Na16 O138 2.663154 1_555
Na16 O140 2.665219 1_555
Na17 O131 2.378898 1_555
Na17 O127 2.398493 1_555
Na17 O129 2.589713 1_555
Na17 O141 2.638290 1_555
Na17 O143 2.768684 1_555
Na17 O139 2.779723 1_555
Nb0 O72 1.904382 1_555
Nb0 O0 1.940840 1_565
Nb0 O3 1.963938 1_455
Nb0 O75 1.989202 1_455
Nb0 O76 1.991853 1_565
Nb0 O5 2.323846 1_465
Nb1 O7 1.920403 1_555
Nb1 O79 1.922023 1_555
Nb1 O10 1.933154 1_555
Nb1 O81 2.029522 1_545
Nb1 O82 2.030165 1_545
Nb1 O8 2.238818 1_545
Nb2 O16 1.943772 1_655
Nb2 O13 1.947673 1_555
Nb2 O86 1.977876 1_665
Nb2 O85 1.983213 1_565
Nb2 O89 2.059541 1_555
Nb2 O14 2.170270 1_665
Nb3 O84 1.896485 1_555
Nb3 O88 1.955464 1_545
Nb3 O15 1.963776 1_555
Nb3 O87 1.966569 1_555
Nb3 O12 1.979778 1_545
Nb3 O17 2.309946 1_545
Nb4 O22 1.927790 1_655
Nb4 O19 1.945319 1_555
Nb4 O93 1.963553 1_565
Nb4 O94 1.966637 1_665
Nb4 O91 2.092660 1_555
Nb4 O20 2.138064 1_665
Nb5 O18 1.931952 1_545
Nb5 O21 1.933210 1_555
Nb5 O90 1.988537 1_545
Nb5 O95 2.007324 1_555
Nb5 O92 2.084003 1_555
Nb5 O23 2.154460 1_545
Nb6 O36 1.928592 1_556
Nb6 O108 1.928672 1_555
Nb6 O38 1.954786 1_556
Nb6 O112 1.974515 1_555
Nb6 O110 2.031157 1_555
Nb6 O40 2.238736 1_556
Nb7 O41 1.874568 1_556
Nb7 O113 1.912235 1_555
Nb7 O37 1.934933 1_556
Nb7 O111 1.972154 1_555
Nb7 O109 2.207097 1_555
Nb7 O39 2.240200 1_556
Nb8 O44 1.871031 1_555
Nb8 O46 1.933608 1_555
Nb8 O42 1.961555 1_555
Nb8 O118 2.020544 1_555
Nb8 O116 2.037834 1_555
Nb8 O114 2.309402 1_555
Nb9 O43 1.901801 1_555
Nb9 O115 1.931417 1_555
Nb9 O47 1.955907 1_555
Nb9 O117 1.987398 1_555
Nb9 O119 2.058923 1_555
Nb9 O45 2.234563 1_555
Nb10 O50 1.869609 1_554
Nb10 O48 1.885507 1_554
Nb10 O52 1.952932 1_554
Nb10 O120 1.995226 1_555
Nb10 O124 2.266352 1_555
Nb10 O122 2.283991 1_555
Nb11 O123 1.906852 1_555
Nb11 O51 1.946992 1_554
Nb11 O53 1.962655 1_554
Nb11 O121 1.970270 1_555
Nb11 O125 2.009413 1_555
Nb11 O49 2.303777 1_554
Nb12 O130 1.909837 1_555
Nb12 O58 1.960292 1_555
Nb12 O56 1.963685 1_555
Nb12 O126 1.972329 1_555
Nb12 O128 1.987611 1_555
Nb12 O54 2.316006 1_555
Nb13 O59 1.877463 1_555
Nb13 O57 1.971663 1_555
Nb13 O55 1.979262 1_555
Nb13 O131 1.988591 1_555
Nb13 O127 2.007049 1_555
Nb13 O129 2.331012 1_555
Nb14 O64 1.899303 1_555
Nb14 O60 1.922869 1_555
Nb14 O134 2.008349 1_555
Nb14 O132 2.020540 1_555
Nb14 O62 2.087055 1_555
Nb14 O136 2.122102 1_555
Nb15 O65 1.869212 1_555
Nb15 O63 1.909006 1_555
Nb15 O61 1.950181 1_555
Nb15 O137 2.048465 1_555
Nb15 O135 2.053517 1_555
Nb15 O133 2.300933 1_555
Nb16 O68 1.881049 1_555
Nb16 O70 1.929880 1_555
Nb16 O66 1.977759 1_555
Nb16 O142 2.007105 1_555
Nb16 O140 2.015519 1_555
Nb16 O138 2.251672 1_555
Nb17 O69 1.930846 1_555
Nb17 O67 1.934951 1_555
Nb17 O139 1.978576 1_555
Nb17 O143 1.985664 1_555
Nb17 O141 2.033920 1_555
Nb17 O71 2.199921 1_555
Al0 O2 1.838461 1_555
Al0 O4 1.860967 1_565
Al0 O77 1.874232 1_565
Al0 O73 1.878987 1_555
Al0 O74 1.995999 1_555
Al0 O1 2.233707 1_565
Al1 O11 1.826830 1_565
Al1 O9 1.848554 1_555
Al1 O80 1.899297 1_655
Al1 O78 1.910605 1_665
Al1 O83 2.054064 1_555
Al1 O6 2.127328 1_665
Al2 O24 1.765235 1_555
Al2 O26 1.817886 1_555
Al2 O28 1.818002 1_555
Al2 O96 1.939701 1_555
Al2 O100 2.300255 1_555
Al2 O98 2.369139 1_555
Al3 O27 1.793521 1_555
Al3 O25 1.851182 1_555
Al3 O97 1.855261 1_555
Al3 O99 1.901329 1_555
Al3 O101 2.040316 1_555
Al3 O29 2.302475 1_555
Al4 O34 1.823247 1_555
Al4 O102 1.836302 1_555
Al4 O30 1.857274 1_555
Al4 O106 1.886895 1_555
Al4 O104 2.019273 1_555
Al4 O32 2.342211 1_555
Al5 O33 1.792366 1_555
Al5 O35 1.794695 1_555
Al5 O103 1.881348 1_555
Al5 O31 1.982687 1_555
Al5 O107 2.142379 1_555
Al5 O105 2.184749 1_555
O0 Si0 1.644031 1_555
O1 S0 1.462314 1_555
O2 Si1 1.593646 1_555
O3 Si2 1.645815 1_555
O4 Si3 1.599702 1_555
O5 S1 1.465880 1_555
O6 S2 1.469765 1_555
O7 Si4 1.658026 1_555
O8 S3 1.481633 1_555
O9 Si5 1.599988 1_555
O10 Si6 1.667108 1_555
O11 Si7 1.596356 1_555
O12 Si6 1.620592 1_565
O13 Si7 1.676142 1_565
O14 S2 1.504273 1_555
O15 Si4 1.615651 1_555
O16 Si5 1.672612 1_455
O17 S3 1.463651 1_555
O18 Si1 1.687844 1_555
O19 Si2 1.645011 1_555
O20 S1 1.488162 1_455
O21 Si3 1.687328 1_555
O22 Si0 1.642159 1_565
O23 S0 1.504382 1_565
O24 Si8 1.590814 1_555
O25 Si9 1.596005 1_555
O26 Si10 1.611185 1_555
O27 Si11 1.588032 1_555
O28 Si12 1.592912 1_555
O29 S4 1.459335 1_555
O30 Si13 1.593577 1_555
O31 S5 1.464707 1_555
O32 S6 1.450216 1_555
O33 Si14 1.592265 1_555
O34 Si15 1.586116 1_555
O35 Si16 1.606401 1_555
O36 Si15 1.654331 1_555
O37 Si16 1.651516 1_555
O38 Si13 1.638664 1_555
O39 S5 1.468741 1_555
O40 S6 1.469142 1_555
O41 Si14 1.674791 1_555
O42 Si10 1.638771 1_555
O43 Si11 1.665237 1_555
O44 Si12 1.669482 1_555
O45 S4 1.469602 1_555
O46 Si8 1.638572 1_555
O47 Si9 1.636724 1_555
O48 Si17 1.651861 1_555
O49 S7 1.467899 1_555
O50 Si18 1.690287 1_555
O51 Si19 1.620320 1_555
O52 Si20 1.662177 1_555
O53 Si21 1.623034 1_555
O54 S8 1.465764 1_555
O55 Si22 1.614956 1_555
O56 Si23 1.631706 1_555
O57 Si24 1.637249 1_555
O58 Si25 1.612935 1_555
O59 Si26 1.680296 1_555
O60 Si25 1.651086 1_555
O61 Si26 1.669978 1_555
O62 S8 1.525004 1_555
O63 Si22 1.640240 1_555
O64 Si23 1.660776 1_555
O65 Si24 1.689792 1_555
O66 Si18 1.645331 1_555
O67 Si19 1.639393 1_555
O68 Si20 1.674913 1_555
O69 Si21 1.632040 1_555
O70 Si17 1.620424 1_555
O71 S7 1.503388 1_555
O72 Si25 1.651870 1_555
O73 Si26 1.593198 1_555
O74 S8 1.472017 1_555
O75 Si22 1.617688 1_555
O76 Si23 1.630353 1_555
O77 Si24 1.593532 1_555
O78 Si18 1.588912 1_555
O79 Si19 1.646161 1_555
O80 Si20 1.590195 1_555
O81 Si21 1.613595 1_555
O82 Si17 1.601845 1_555
O83 S7 1.468904 1_555
O84 Si8 1.661088 1_555
O85 Si9 1.653727 1_555
O86 Si10 1.665069 1_555
O87 Si11 1.647295 1_555
O88 Si12 1.637332 1_555
O89 S4 1.536668 1_555
O90 Si13 1.652927 1_555
O91 S5 1.507604 1_555
O92 S6 1.528229 1_555
O93 Si14 1.643582 1_555
O94 Si15 1.659811 1_555
O95 Si16 1.652137 1_555
O96 Si6 1.629443 1_555
O97 Si7 1.613037 1_555
O98 S2 1.463732 1_555
O99 Si4 1.605267 1_555
O100 S3 1.455973 1_555
O101 Si5 1.618350 1_555
O102 Si1 1.610673 1_555
O103 Si2 1.635236 1_555
O104 Si3 1.618183 1_555
O105 S1 1.467521 1_555
O106 Si0 1.603626 1_555
O107 S0 1.484093 1_555
O108 Si17 1.628806 1_555
O109 S7 1.501475 1_555
O110 Si19 1.616972 1_555
O111 Si18 1.649669 1_655
O112 Si20 1.636395 1_545
O113 Si21 1.658978 1_545
O114 S8 1.475485 1_545
O115 Si22 1.637786 1_545
O116 Si23 1.618278 1_555
O117 Si24 1.638685 1_555
O118 Si26 1.633417 1_555
O119 Si25 1.609183 1_655
O120 Si15 1.678932 1_555
O121 Si16 1.643246 1_555
O122 S5 1.493824 1_455
O123 Si13 1.675646 1_555
O124 S6 1.499675 1_565
O125 Si14 1.638702 1_565
O126 Si10 1.651081 1_565
O127 Si11 1.652313 1_565
O128 Si12 1.652835 1_555
O129 S4 1.480472 1_555
O130 Si9 1.671674 1_455
O131 Si8 1.641388 1_555
O132 Si0 1.659949 1_565
O133 S0 1.495256 1_565
O134 Si1 1.666221 1_555
O135 Si2 1.659032 1_555
O136 S1 1.521929 1_455
O137 Si3 1.668699 1_555
O138 S2 1.506038 1_555
O139 Si4 1.671257 1_555
O140 Si5 1.673758 1_455
O141 S3 1.553594 1_555
O142 Si6 1.674459 1_565
O143 Si7 1.670809 1_565
