# generated using pymatgen
data_Na10NbGa7(PO4)12
_symmetry_space_group_name_H-M   'P 1'
_cell_length_a   17.40446144
_cell_length_b   8.71072163
_cell_length_c   21.89444905
_cell_angle_alpha   89.98150928
_cell_angle_beta   89.96072744
_cell_angle_gamma   120.04091746
_symmetry_Int_Tables_number   1
_chemical_formula_structural   Na10NbGa7(PO4)12
_chemical_formula_sum   'Na30 Nb3 Ga21 P36 O144'
_cell_volume   2873.42545231
_cell_formula_units_Z   3
loop_
 _symmetry_equiv_pos_site_id
 _symmetry_equiv_pos_as_xyz
  1  'x, y, z'
loop_
 _atom_site_type_symbol
 _atom_site_label
 _atom_site_symmetry_multiplicity
 _atom_site_fract_x
 _atom_site_fract_y
 _atom_site_fract_z
 _atom_site_occupancy
  Na  Na0  1  0.31779560  0.99945661  0.25155717  1
  Na  Na1  1  0.68274104  0.36357847  0.25156064  1
  Na  Na2  1  0.31634576  0.63299731  0.75155776  1
  Na  Na3  1  0.81633796  0.63301783  0.75142228  1
  Na  Na4  1  0.15028114  0.33403839  0.58280400  1
  Na  Na5  1  0.65030212  0.33361191  0.58246283  1
  Na  Na6  1  0.01607755  0.69873090  0.58308985  1
  Na  Na7  1  0.51644639  0.69936004  0.58312662  1
  Na  Na8  1  0.33314902  0.96742484  0.58255991  1
  Na  Na9  1  0.83291479  0.96752226  0.58264619  1
  Na  Na10  1  0.15045915  0.96735666  0.08281234  1
  Na  Na11  1  0.65082124  0.96811243  0.08371682  1
  Na  Na12  1  0.33304662  0.69844277  0.08349079  1
  Na  Na13  1  0.83326070  0.69882971  0.08296666  1
  Na  Na14  1  0.01596622  0.33374014  0.08313468  1
  Na  Na15  1  0.51600887  0.33350602  0.08349482  1
  Na  Na16  1  0.66555723  0.03398397  0.41453381  1
  Na  Na17  1  0.35076083  0.66848880  0.41423955  1
  Na  Na18  1  0.00017979  0.99927754  0.49965614  1
  Na  Na19  1  0.49958234  0.01076800  0.49614710  1
  Na  Na20  1  0.00009894  0.99996297  0.00094431  1
  Na  Na21  1  0.50010114  0.99981733  0.00111620  1
  Na  Na22  1  0.33386821  0.32415020  0.83592603  1
  Na  Na23  1  0.83384008  0.32416513  0.83591326  1
  Na  Na24  1  0.33486668  0.33498822  0.33281371  1
  Na  Na25  1  0.84165935  0.34037068  0.33288458  1
  Na  Na26  1  0.16274706  0.65561579  0.17082712  1
  Na  Na27  1  0.66565630  0.67664559  0.17073519  1
  Na  Na28  1  0.16192633  0.66732403  0.67091635  1
  Na  Na29  1  0.66211017  0.66737113  0.67092287  1
  Nb  Nb0  1  0.00008787  0.99870865  0.35370982  1
  Nb  Nb1  1  0.00068366  0.00209996  0.85654850  1
  Nb  Nb2  1  0.50072912  0.00228661  0.85652155  1
  Ga  Ga0  1  0.49923843  0.00618941  0.35050480  1
  Ga  Ga1  1  0.00097424  0.00123510  0.65203452  1
  Ga  Ga2  1  0.50114833  0.00109865  0.65185954  1
  Ga  Ga3  1  0.00013675  0.00169208  0.15165639  1
  Ga  Ga4  1  0.50040612  0.99796041  0.15315443  1
  Ga  Ga5  1  0.33383786  0.32745743  0.68663255  1
  Ga  Ga6  1  0.83403980  0.32795260  0.68646127  1
  Ga  Ga7  1  0.33432832  0.34339929  0.18607923  1
  Ga  Ga8  1  0.83572209  0.32862719  0.18652425  1
  Ga  Ga9  1  0.33323384  0.33363539  0.97977955  1
  Ga  Ga10  1  0.83353208  0.33367931  0.97986439  1
  Ga  Ga11  1  0.33309507  0.32395834  0.47992679  1
  Ga  Ga12  1  0.83620572  0.34086481  0.47988022  1
  Ga  Ga13  1  0.16630761  0.66670895  0.01519523  1
  Ga  Ga14  1  0.66639612  0.66685934  0.01513339  1
  Ga  Ga15  1  0.16622608  0.66859121  0.51433148  1
  Ga  Ga16  1  0.66578540  0.66220603  0.51378517  1
  Ga  Ga17  1  0.16440643  0.66074532  0.31463649  1
  Ga  Ga18  1  0.66462398  0.66962096  0.31522205  1
  Ga  Ga19  1  0.16348623  0.66766176  0.81608476  1
  Ga  Ga20  1  0.66347425  0.66762567  0.81609724  1
  P  P0  1  0.14761755  0.99928889  0.24727438  1
  P  P1  1  0.64672536  0.99714076  0.25031160  1
  P  P2  1  0.35346285  0.70462443  0.25113563  1
  P  P3  1  0.85195334  0.70457377  0.24740893  1
  P  P4  1  0.00072754  0.29700127  0.24777546  1
  P  P5  1  0.49972576  0.29525256  0.24927389  1
  P  P6  1  0.14725009  0.29532922  0.74791263  1
  P  P7  1  0.64729734  0.29536954  0.74789185  1
  P  P8  1  0.00181978  0.70538816  0.74795243  1
  P  P9  1  0.50178791  0.70550019  0.74791017  1
  P  P10  1  0.35219769  0.00155359  0.74846534  1
  P  P11  1  0.85217486  0.00166806  0.74849205  1
  P  P12  1  0.47838331  0.33336736  0.58375297  1
  P  P13  1  0.97814413  0.33367416  0.58326646  1
  P  P14  1  0.18838370  0.04374822  0.58339863  1
  P  P15  1  0.68815721  0.04262280  0.58272090  1
  P  P16  1  0.33327559  0.62406972  0.58336028  1
  P  P17  1  0.83326487  0.62422051  0.58437166  1
  P  P18  1  0.47815310  0.62292770  0.08293094  1
  P  P19  1  0.97790434  0.62262609  0.08331705  1
  P  P20  1  0.33332847  0.04352890  0.08407780  1
  P  P21  1  0.83339109  0.04348593  0.08288881  1
  P  P22  1  0.18839151  0.33313851  0.08290251  1
  P  P23  1  0.68845930  0.33341937  0.08395322  1
  P  P24  1  0.30800815  0.65732775  0.91666079  1
  P  P25  1  0.80802062  0.65711016  0.91667238  1
  P  P26  1  0.02055481  0.38418668  0.91759775  1
  P  P27  1  0.52054454  0.38420362  0.91766447  1
  P  P28  1  0.17149280  0.95871345  0.91747958  1
  P  P29  1  0.67149433  0.95882943  0.91746122  1
  P  P30  1  0.31241554  0.96081282  0.41553358  1
  P  P31  1  0.81010680  0.95770514  0.41815928  1
  P  P32  1  0.16862154  0.37956357  0.41831480  1
  P  P33  1  0.66695838  0.37540370  0.41579114  1
  P  P34  1  0.02103208  0.65924423  0.41725623  1
  P  P35  1  0.51973684  0.66295467  0.41684650  1
  O  O0  1  0.09941493  0.02531620  0.30367709  1
  O  O1  1  0.60559555  0.03630570  0.30716734  1
  O  O2  1  0.41032595  0.78945380  0.30880695  1
  O  O3  1  0.91320479  0.80117955  0.30383967  1
  O  O4  1  0.47984278  0.16994553  0.30442679  1
  O  O5  1  0.98814105  0.17277861  0.30401477  1
  O  O6  1  0.09939742  0.17287151  0.80361182  1
  O  O7  1  0.59935212  0.17290062  0.80363268  1
  O  O8  1  0.48563555  0.80037395  0.80313191  1
  O  O9  1  0.98571597  0.80046685  0.80315896  1
  O  O10  1  0.41340988  0.02598751  0.80417757  1
  O  O11  1  0.91344065  0.02619177  0.80416256  1
  O  O12  1  0.39179039  0.96203715  0.69051083  1
  O  O13  1  0.89180347  0.96216109  0.69053593  1
  O  O14  1  0.09165281  0.21558609  0.68918303  1
  O  O15  1  0.59165895  0.21568987  0.68920237  1
  O  O16  1  0.01632290  0.81621462  0.68895367  1
  O  O17  1  0.51628301  0.81620404  0.68891673  1
  O  O18  1  0.39267629  0.82364849  0.19269281  1
  O  O19  1  0.89307336  0.81757964  0.18946637  1
  O  O20  1  0.01604468  0.21622921  0.18927955  1
  O  O21  1  0.51936904  0.21718363  0.19063254  1
  O  O22  1  0.09121144  0.96872058  0.18941704  1
  O  O23  1  0.59112217  0.96722103  0.19099306  1
  O  O24  1  0.43916924  0.37600997  0.64003159  1
  O  O25  1  0.93897093  0.37574203  0.63980564  1
  O  O26  1  0.24845433  0.12184508  0.63989082  1
  O  O27  1  0.74926486  0.12508105  0.63858605  1
  O  O28  1  0.31451379  0.50739485  0.64107722  1
  O  O29  1  0.81408759  0.50946052  0.64249762  1
  O  O30  1  0.43919600  0.50279702  0.13947971  1
  O  O31  1  0.93844940  0.50240533  0.13999544  1
  O  O32  1  0.31387984  0.11929136  0.14231654  1
  O  O33  1  0.81238833  0.12095436  0.13963489  1
  O  O34  1  0.24800679  0.37408108  0.13964797  1
  O  O35  1  0.74586471  0.37271387  0.14224012  1
  O  O36  1  0.22784860  0.29174235  0.02670093  1
  O  O37  1  0.72962424  0.29346798  0.02834110  1
  O  O38  1  0.41798058  0.54465434  0.02673328  1
  O  O39  1  0.91794559  0.54428603  0.02693276  1
  O  O40  1  0.35316641  0.16543597  0.02835679  1
  O  O41  1  0.85410564  0.16375867  0.02667587  1
  O  O42  1  0.22762983  0.16460085  0.52714023  1
  O  O43  1  0.72642909  0.15826654  0.52474600  1
  O  O44  1  0.35183266  0.54383194  0.52614927  1
  O  O45  1  0.85340950  0.54215315  0.52859746  1
  O  O46  1  0.41827726  0.29137993  0.52729939  1
  O  O47  1  0.91760905  0.29134139  0.52696509  1
  O  O48  1  0.27202524  0.69801499  0.97540274  1
  O  O49  1  0.77204229  0.69788640  0.97538656  1
  O  O50  1  0.07562104  0.45249144  0.97696439  1
  O  O51  1  0.57571565  0.45266873  0.97698132  1
  O  O52  1  0.15013750  0.84805220  0.97683742  1
  O  O53  1  0.65006211  0.84809740  0.97680131  1
  O  O54  1  0.27375290  0.84276855  0.47441052  1
  O  O55  1  0.77422657  0.84897836  0.47791987  1
  O  O56  1  0.14955977  0.45160324  0.47765568  1
  O  O57  1  0.65096317  0.45245307  0.47573254  1
  O  O58  1  0.07476568  0.69953519  0.47737635  1
  O  O59  1  0.57759531  0.70412742  0.47597450  1
  O  O60  1  0.06478752  0.63413621  0.36109700  1
  O  O61  1  0.56335839  0.63274599  0.36121407  1
  O  O62  1  0.25593548  0.87540157  0.35822203  1
  O  O63  1  0.75054840  0.87259544  0.36268415  1
  O  O64  1  0.18610532  0.49893078  0.36269707  1
  O  O65  1  0.68186427  0.48882175  0.35847100  1
  O  O66  1  0.06390221  0.49393825  0.86072642  1
  O  O67  1  0.56379860  0.49399892  0.86079142  1
  O  O68  1  0.18395545  0.87280526  0.86074665  1
  O  O69  1  0.68398862  0.87296997  0.86073216  1
  O  O70  1  0.25524222  0.63538208  0.85815879  1
  O  O71  1  0.75525745  0.63522942  0.85816133  1
  O  O72  1  0.01176246  0.82998888  0.40965261  1
  O  O73  1  0.51112981  0.83262455  0.41173374  1
  O  O74  1  0.40443869  0.97209550  0.41121196  1
  O  O75  1  0.90391967  0.97643530  0.41064950  1
  O  O76  1  0.08453090  0.19168639  0.41086095  1
  O  O77  1  0.58419894  0.18613469  0.41099902  1
  O  O78  1  0.01210528  0.19439983  0.91024553  1
  O  O79  1  0.51212352  0.19451098  0.91030022  1
  O  O80  1  0.08515863  0.97590641  0.90974791  1
  O  O81  1  0.58514395  0.97597426  0.90969166  1
  O  O82  1  0.40306835  0.83021043  0.90985575  1
  O  O83  1  0.90305911  0.83002548  0.90984881  1
  O  O84  1  0.48888696  0.16656735  0.58982427  1
  O  O85  1  0.98880947  0.16666916  0.58939380  1
  O  O86  1  0.09403523  0.02194588  0.58911239  1
  O  O87  1  0.59430563  0.02294028  0.58882112  1
  O  O88  1  0.41705282  0.81240307  0.58881511  1
  O  O89  1  0.91699375  0.81275259  0.58923268  1
  O  O90  1  0.48888468  0.81148031  0.08942174  1
  O  O91  1  0.98914817  0.81150210  0.08921368  1
  O  O92  1  0.41691458  0.02152171  0.08947985  1
  O  O93  1  0.91683331  0.02182585  0.08891315  1
  O  O94  1  0.09399176  0.16628268  0.08885397  1
  O  O95  1  0.59390498  0.16582123  0.08915316  1
  O  O96  1  0.34677853  0.17097342  0.74517933  1
  O  O97  1  0.84664410  0.17089636  0.74499785  1
  O  O98  1  0.24000509  0.31386324  0.74492705  1
  O  O99  1  0.73996327  0.31345862  0.74506764  1
  O  O100  1  0.41434088  0.52615427  0.74489636  1
  O  O101  1  0.91444291  0.52610146  0.74503978  1
  O  O102  1  0.34510779  0.52151059  0.24491258  1
  O  O103  1  0.84377394  0.52059579  0.24530526  1
  O  O104  1  0.41434765  0.30577975  0.24336920  1
  O  O105  1  0.91516473  0.30593522  0.24596253  1
  O  O106  1  0.23994758  0.16611033  0.24512278  1
  O  O107  1  0.73787712  0.17081839  0.24471306  1
  O  O108  1  0.32100442  0.49726087  0.92183983  1
  O  O109  1  0.82096949  0.49704876  0.92197838  1
  O  O110  1  0.42728546  0.35713581  0.92268498  1
  O  O111  1  0.92733906  0.35745443  0.92239964  1
  O  O112  1  0.25156442  0.14492561  0.92258141  1
  O  O113  1  0.75137715  0.14521860  0.92263081  1
  O  O114  1  0.32080695  0.14420298  0.42181123  1
  O  O115  1  0.81913989  0.14214345  0.42286602  1
  O  O116  1  0.25233436  0.36314396  0.42323314  1
  O  O117  1  0.74933690  0.35138786  0.42136752  1
  O  O118  1  0.42550490  0.50110567  0.42280929  1
  O  O119  1  0.92762785  0.49766048  0.42187702  1
  O  O120  1  0.17753638  0.49987887  0.07716890  1
  O  O121  1  0.67786295  0.50025385  0.07758661  1
  O  O122  1  0.07223376  0.64420556  0.07761533  1
  O  O123  1  0.57252658  0.64514821  0.07726744  1
  O  O124  1  0.24977767  0.85505106  0.07773407  1
  O  O125  1  0.75000353  0.85481397  0.07713567  1
  O  O126  1  0.17776367  0.85574496  0.57718631  1
  O  O127  1  0.67708329  0.85426363  0.57755906  1
  O  O128  1  0.24961189  0.64519043  0.57788244  1
  O  O129  1  0.74956732  0.64414663  0.57806808  1
  O  O130  1  0.07231709  0.50045597  0.57741992  1
  O  O131  1  0.57251644  0.50008239  0.57739407  1
  O  O132  1  0.15757904  0.83490522  0.25491858  1
  O  O133  1  0.65568957  0.83157998  0.25613131  1
  O  O134  1  0.26185977  0.69419020  0.25584337  1
  O  O135  1  0.75974047  0.68411764  0.25529538  1
  O  O136  1  0.08442131  0.47738769  0.25599087  1
  O  O137  1  0.58532159  0.47607646  0.25552518  1
  O  O138  1  0.15830549  0.48098800  0.75520371  1
  O  O139  1  0.65833185  0.48100756  0.75526806  1
  O  O140  1  0.08479978  0.68971622  0.75541576  1
  O  O141  1  0.58472872  0.68959545  0.75538332  1
  O  O142  1  0.26210933  0.83009690  0.75569292  1
  O  O143  1  0.76212975  0.83017196  0.75567287  1
loop_
_geom_bond_atom_site_label_1
_geom_bond_atom_site_label_2
_geom_bond_distance
_geom_bond_site_symmetry_2
Na0 O134 2.331338 1_555
Na0 O104 2.342144 1_565
Na0 O132 2.415240 1_555
Na0 O106 2.435653 1_565
Na0 O62 2.571162 1_555
Na0 O32 2.623859 1_565
Na0 O4 2.704015 1_565
Na0 O18 2.775247 1_555
Na1 O107 2.318592 1_555
Na1 O137 2.346502 1_555
Na1 O135 2.419187 1_555
Na1 O103 2.430187 1_555
Na1 O65 2.586073 1_555
Na1 O35 2.617436 1_555
Na1 O1 2.752290 1_555
Na1 O21 2.804728 1_555
Na2 O100 2.320642 1_555
Na2 O142 2.338711 1_555
Na2 O138 2.382959 1_555
Na2 O98 2.411767 1_555
Na2 O70 2.568575 1_555
Na2 O28 2.648785 1_555
Na2 O8 2.790439 1_555
Na2 O12 2.820028 1_555
Na3 O101 2.322548 1_555
Na3 O143 2.338877 1_555
Na3 O139 2.382584 1_555
Na3 O99 2.414639 1_555
Na3 O71 2.570829 1_555
Na3 O29 2.609016 1_555
Na3 O9 2.793100 1_555
Na3 O13 2.819056 1_555
Na4 O128 2.377919 1_555
Na4 O86 2.388077 1_555
Na4 O130 2.434355 1_555
Na4 O85 2.437477 1_455
Na4 O56 2.521951 1_555
Na4 O14 2.543938 1_555
Na4 O42 2.732070 1_555
Na4 O28 2.786220 1_555
Na5 O129 2.373084 1_555
Na5 O87 2.377285 1_555
Na5 O131 2.431776 1_555
Na5 O84 2.437622 1_555
Na5 O15 2.550277 1_555
Na5 O57 2.553208 1_555
Na5 O43 2.776767 1_555
Na5 O29 2.799022 1_555
Na6 O130 2.376769 1_555
Na6 O89 2.386030 1_455
Na6 O126 2.439689 1_555
Na6 O86 2.441464 1_565
Na6 O58 2.527855 1_555
Na6 O16 2.533141 1_555
Na6 O45 2.727375 1_455
Na6 O25 2.733797 1_455
Na7 O131 2.382706 1_555
Na7 O88 2.383891 1_555
Na7 O127 2.423705 1_555
Na7 O87 2.443905 1_565
Na7 O17 2.530846 1_555
Na7 O59 2.567204 1_555
Na7 O24 2.738068 1_555
Na7 O44 2.778432 1_555
Na8 O126 2.374944 1_555
Na8 O84 2.382111 1_565
Na8 O128 2.432564 1_555
Na8 O88 2.439097 1_555
Na8 O12 2.584825 1_555
Na8 O54 2.595314 1_555
Na8 O46 2.726038 1_565
Na8 O26 2.746194 1_565
Na9 O127 2.379705 1_555
Na9 O85 2.383487 1_565
Na9 O89 2.440315 1_555
Na9 O129 2.440917 1_555
Na9 O55 2.513126 1_555
Na9 O13 2.585295 1_555
Na9 O47 2.729049 1_565
Na9 O27 2.739073 1_565
Na10 O124 2.377031 1_555
Na10 O94 2.385572 1_565
Na10 O91 2.434763 1_455
Na10 O122 2.439959 1_555
Na10 O52 2.541534 1_554
Na10 O22 2.553476 1_555
Na10 O36 2.737254 1_565
Na10 O32 2.788531 1_565
Na11 O95 2.381060 1_565
Na11 O125 2.383286 1_555
Na11 O123 2.439967 1_555
Na11 O90 2.443333 1_555
Na11 O53 2.561342 1_554
Na11 O23 2.566097 1_555
Na11 O33 2.726916 1_565
Na11 O37 2.736192 1_565
Na12 O120 2.376936 1_555
Na12 O90 2.381066 1_555
Na12 O92 2.440365 1_565
Na12 O124 2.440654 1_555
Na12 O48 2.593819 1_554
Na12 O18 2.618176 1_555
Na12 O34 2.737452 1_555
Na12 O38 2.739563 1_555
Na13 O121 2.374303 1_555
Na13 O91 2.382762 1_555
Na13 O125 2.435907 1_555
Na13 O93 2.439596 1_565
Na13 O19 2.552936 1_555
Na13 O49 2.584169 1_554
Na13 O39 2.734023 1_555
Na13 O35 2.781384 1_555
Na14 O122 2.373866 1_555
Na14 O93 2.383450 1_455
Na14 O120 2.437987 1_555
Na14 O94 2.443561 1_555
Na14 O20 2.539397 1_555
Na14 O50 2.543875 1_554
Na14 O41 2.736065 1_455
Na14 O31 2.740812 1_455
Na15 O123 2.383566 1_555
Na15 O92 2.384061 1_555
Na15 O121 2.442240 1_555
Na15 O95 2.443302 1_555
Na15 O51 2.551648 1_554
Na15 O21 2.567195 1_555
Na15 O30 2.727110 1_555
Na15 O40 2.735823 1_555
Na16 O115 2.354838 1_555
Na16 O73 2.363118 1_545
Na16 O77 2.376270 1_555
Na16 O117 2.399346 1_555
Na16 O1 2.576801 1_555
Na16 O43 2.640831 1_555
Na16 O63 2.744803 1_545
Na16 O59 2.828350 1_545
Na17 O74 2.323212 1_555
Na17 O116 2.341999 1_555
Na17 O118 2.398450 1_555
Na17 O73 2.416984 1_555
Na17 O2 2.532806 1_555
Na17 O44 2.683568 1_555
Na17 O64 2.726733 1_555
Na17 O54 2.805821 1_555
Na18 O89 2.494239 1_455
Na18 O86 2.495017 1_565
Na18 O76 2.504861 1_565
Na18 O75 2.512967 1_455
Na18 O85 2.513109 1_465
Na18 O72 2.529290 1_555
Na19 O77 2.391609 1_555
Na19 O74 2.399962 1_545
Na19 O73 2.485503 1_545
Na19 O84 2.517398 1_555
Na19 O88 2.583424 1_545
Na19 O87 2.583774 1_555
Na20 O94 2.471772 1_565
Na20 O93 2.473612 1_465
Na20 O91 2.480006 1_455
Na20 O78 2.549224 1_564
Na20 O83 2.554412 1_454
Na20 O80 2.555223 1_554
Na21 O95 2.472674 1_565
Na21 O90 2.478777 1_555
Na21 O92 2.478980 1_565
Na21 O79 2.552545 1_564
Na21 O82 2.556475 1_554
Na21 O81 2.558253 1_554
Na22 O112 2.417461 1_555
Na22 O110 2.423042 1_555
Na22 O96 2.465693 1_555
Na22 O108 2.490284 1_555
Na22 O98 2.550364 1_555
Na22 O100 2.560557 1_555
Na23 O113 2.418432 1_555
Na23 O111 2.418661 1_555
Na23 O97 2.468473 1_555
Na23 O109 2.491549 1_555
Na23 O99 2.546848 1_555
Na23 O101 2.558114 1_555
Na24 O102 2.466374 1_555
Na24 O106 2.480382 1_555
Na24 O104 2.482419 1_555
Na24 O118 2.487059 1_555
Na24 O114 2.491718 1_555
Na24 O116 2.528196 1_555
Na25 O105 2.393682 1_555
Na25 O119 2.421883 1_555
Na25 O103 2.466340 1_555
Na25 O115 2.517049 1_555
Na25 O117 2.548413 1_555
Na25 O107 2.550730 1_555
Na26 O136 2.370871 1_555
Na26 O134 2.444946 1_555
Na26 O132 2.445236 1_555
Na26 O120 2.542085 1_555
Na26 O122 2.550349 1_555
Na26 O124 2.612564 1_555
Na27 O133 2.362805 1_555
Na27 O137 2.449933 1_555
Na27 O135 2.451692 1_555
Na27 O123 2.539687 1_555
Na27 O125 2.544809 1_555
Na27 O121 2.625553 1_555
Na28 O140 2.349823 1_555
Na28 O138 2.437126 1_555
Na28 O142 2.454930 1_555
Na28 O130 2.544034 1_555
Na28 O126 2.554460 1_555
Na28 O128 2.608807 1_555
Na29 O141 2.351331 1_555
Na29 O139 2.437398 1_555
Na29 O143 2.453346 1_555
Na29 O127 2.543440 1_555
Na29 O131 2.545489 1_555
Na29 O129 2.606779 1_555
Nb0 O3 1.959020 1_455
Nb0 O0 1.959158 1_565
Nb0 O5 1.959867 1_465
Nb0 O72 1.999904 1_555
Nb0 O75 2.016213 1_455
Nb0 O76 2.020323 1_565
Nb1 O78 1.973770 1_555
Nb1 O80 1.976970 1_545
Nb1 O83 1.985373 1_445
Nb1 O6 1.986240 1_555
Nb1 O11 1.996604 1_455
Nb1 O9 2.015624 1_445
Nb2 O79 1.974464 1_555
Nb2 O81 1.976257 1_545
Nb2 O7 1.984423 1_555
Nb2 O82 1.986114 1_545
Nb2 O10 1.995504 1_555
Nb2 O8 2.016919 1_545
Ga0 O4 1.910002 1_555
Ga0 O2 1.967317 1_545
Ga0 O1 1.976585 1_555
Ga0 O77 2.020170 1_555
Ga0 O74 2.020709 1_545
Ga0 O73 2.106680 1_545
Ga1 O14 1.921165 1_555
Ga1 O16 1.937195 1_545
Ga1 O13 1.945963 1_445
Ga1 O86 2.063498 1_555
Ga1 O85 2.075336 1_455
Ga1 O89 2.079449 1_445
Ga2 O15 1.923172 1_555
Ga2 O17 1.935408 1_545
Ga2 O12 1.950312 1_545
Ga2 O87 2.063448 1_555
Ga2 O84 2.067588 1_555
Ga2 O88 2.084396 1_545
Ga3 O20 1.931522 1_555
Ga3 O19 1.932470 1_445
Ga3 O22 1.932878 1_545
Ga3 O94 2.065263 1_555
Ga3 O93 2.068120 1_455
Ga3 O91 2.082039 1_445
Ga4 O23 1.917232 1_555
Ga4 O18 1.927924 1_555
Ga4 O21 1.949142 1_565
Ga4 O90 2.074041 1_555
Ga4 O95 2.088744 1_565
Ga4 O92 2.097251 1_565
Ga5 O24 1.949746 1_555
Ga5 O26 1.949840 1_555
Ga5 O96 1.964313 1_555
Ga5 O28 2.022841 1_555
Ga5 O98 2.028175 1_555
Ga5 O100 2.040072 1_555
Ga6 O25 1.946278 1_555
Ga6 O27 1.947120 1_555
Ga6 O97 1.965211 1_555
Ga6 O29 2.023874 1_555
Ga6 O99 2.033072 1_555
Ga6 O101 2.041535 1_555
Ga7 O30 1.938876 1_555
Ga7 O34 1.940609 1_555
Ga7 O102 1.952366 1_555
Ga7 O104 2.019752 1_555
Ga7 O32 2.040012 1_555
Ga7 O106 2.051886 1_555
Ga8 O33 1.938425 1_555
Ga8 O31 1.952577 1_555
Ga8 O105 1.979977 1_555
Ga8 O107 2.016136 1_555
Ga8 O35 2.033855 1_555
Ga8 O103 2.058923 1_555
Ga9 O36 1.969711 1_556
Ga9 O38 1.974804 1_556
Ga9 O40 1.976505 1_556
Ga9 O110 1.986346 1_555
Ga9 O112 1.988758 1_555
Ga9 O108 1.997238 1_555
Ga10 O37 1.970437 1_556
Ga10 O39 1.972488 1_556
Ga10 O41 1.974746 1_556
Ga10 O111 1.987438 1_555
Ga10 O113 1.990800 1_555
Ga10 O109 1.997480 1_555
Ga11 O46 1.943559 1_555
Ga11 O114 1.944957 1_555
Ga11 O42 1.951941 1_555
Ga11 O118 2.010692 1_555
Ga11 O116 2.028662 1_555
Ga11 O44 2.043299 1_555
Ga12 O45 1.943621 1_555
Ga12 O119 1.957083 1_555
Ga12 O47 1.967170 1_555
Ga12 O117 2.019114 1_555
Ga12 O43 2.024588 1_555
Ga12 O115 2.032232 1_555
Ga13 O48 1.927209 1_554
Ga13 O52 1.929849 1_554
Ga13 O50 1.930736 1_554
Ga13 O122 2.064546 1_555
Ga13 O120 2.067506 1_555
Ga13 O124 2.072377 1_555
Ga14 O49 1.926479 1_554
Ga14 O51 1.929821 1_554
Ga14 O53 1.930374 1_554
Ga14 O123 2.059853 1_555
Ga14 O125 2.063870 1_555
Ga14 O121 2.074796 1_555
Ga15 O58 1.921569 1_555
Ga15 O54 1.929303 1_555
Ga15 O56 1.937488 1_555
Ga15 O126 2.065412 1_555
Ga15 O130 2.079231 1_555
Ga15 O128 2.093463 1_555
Ga16 O57 1.904815 1_555
Ga16 O59 1.933216 1_555
Ga16 O55 1.936074 1_555
Ga16 O131 2.066242 1_555
Ga16 O129 2.089081 1_555
Ga16 O127 2.111780 1_555
Ga17 O60 1.920845 1_555
Ga17 O64 1.941440 1_555
Ga17 O136 1.978686 1_555
Ga17 O62 1.991345 1_555
Ga17 O134 2.029957 1_555
Ga17 O132 2.050498 1_555
Ga18 O61 1.911547 1_555
Ga18 O63 1.948914 1_555
Ga18 O133 1.976622 1_555
Ga18 O65 1.984825 1_555
Ga18 O137 2.032171 1_555
Ga18 O135 2.065329 1_555
Ga19 O66 1.902620 1_555
Ga19 O68 1.908008 1_555
Ga19 O70 1.982266 1_555
Ga19 O140 1.985596 1_555
Ga19 O142 2.064133 1_555
Ga19 O138 2.069722 1_555
Ga20 O67 1.903742 1_555
Ga20 O69 1.908959 1_555
Ga20 O71 1.983134 1_555
Ga20 O141 1.986688 1_555
Ga20 O143 2.065124 1_555
Ga20 O139 2.068853 1_555
O0 P0 1.571437 1_545
O1 P1 1.556269 1_545
O2 P2 1.545944 1_555
O3 P3 1.573335 1_555
O4 P5 1.545866 1_555
O5 P4 1.580022 1_655
O6 P6 1.557863 1_555
O7 P7 1.558926 1_555
O8 P9 1.567352 1_555
O9 P8 1.567823 1_655
O10 P10 1.563044 1_555
O11 P11 1.562744 1_555
O12 P10 1.562038 1_565
O13 P11 1.562375 1_565
O14 P6 1.549693 1_555
O15 P7 1.549176 1_555
O16 P8 1.555328 1_555
O17 P9 1.554676 1_555
O18 P2 1.570828 1_555
O19 P3 1.543746 1_555
O20 P4 1.547350 1_555
O21 P5 1.568606 1_555
O22 P0 1.542574 1_555
O23 P1 1.562245 1_555
O24 P12 1.541116 1_555
O25 P13 1.542977 1_555
O26 P14 1.541391 1_555
O27 P15 1.542919 1_555
O28 P16 1.550082 1_555
O29 P17 1.547521 1_555
O30 P18 1.541188 1_555
O31 P19 1.544709 1_555
O32 P20 1.549069 1_555
O33 P21 1.542561 1_555
O34 P22 1.542364 1_555
O35 P23 1.550352 1_555
O36 P22 1.537147 1_555
O37 P23 1.538074 1_555
O38 P18 1.537190 1_555
O39 P19 1.538822 1_555
O40 P20 1.538403 1_555
O41 P21 1.537110 1_555
O42 P14 1.539490 1_555
O43 P15 1.547842 1_555
O44 P16 1.545269 1_555
O45 P17 1.541453 1_555
O46 P12 1.541055 1_555
O47 P13 1.542275 1_555
O48 P24 1.547045 1_555
O49 P25 1.546834 1_555
O50 P26 1.547024 1_555
O51 P27 1.546993 1_555
O52 P28 1.547939 1_555
O53 P29 1.547826 1_555
O54 P30 1.573851 1_555
O55 P31 1.550754 1_555
O56 P32 1.549269 1_555
O57 P33 1.561231 1_555
O58 P34 1.550412 1_555
O59 P35 1.568144 1_555
O60 P34 1.518316 1_555
O61 P35 1.525854 1_555
O62 P30 1.537661 1_555
O63 P31 1.527168 1_555
O64 P32 1.529200 1_555
O65 P33 1.536390 1_555
O66 P26 1.519664 1_555
O67 P27 1.519547 1_555
O68 P28 1.520751 1_555
O69 P29 1.520656 1_555
O70 P24 1.531847 1_555
O71 P25 1.532086 1_555
O72 P34 1.583021 1_555
O73 P35 1.562334 1_555
O74 P30 1.557550 1_555
O75 P31 1.566034 1_555
O76 P32 1.565014 1_555
O77 P33 1.557720 1_555
O78 P26 1.592900 1_555
O79 P27 1.592325 1_555
O80 P28 1.592022 1_555
O81 P29 1.592153 1_555
O82 P24 1.591296 1_555
O83 P25 1.591241 1_555
O84 P12 1.558204 1_555
O85 P13 1.561724 1_555
O86 P14 1.560647 1_555
O87 P15 1.560332 1_555
O88 P16 1.561085 1_555
O89 P17 1.560800 1_555
O90 P18 1.563872 1_555
O91 P19 1.561925 1_555
O92 P20 1.564142 1_555
O93 P21 1.560983 1_555
O94 P22 1.561248 1_555
O95 P23 1.564176 1_555
O96 P10 1.526850 1_555
O97 P11 1.526467 1_555
O98 P6 1.541222 1_555
O99 P7 1.541166 1_555
O100 P9 1.543019 1_555
O101 P8 1.542071 1_655
O102 P2 1.533571 1_555
O103 P3 1.536973 1_555
O104 P5 1.539443 1_555
O105 P4 1.530158 1_655
O106 P0 1.535567 1_545
O107 P1 1.554720 1_545
O108 P24 1.524399 1_555
O109 P25 1.524060 1_555
O110 P27 1.522751 1_555
O111 P26 1.522781 1_655
O112 P28 1.524034 1_545
O113 P29 1.523832 1_545
O114 P30 1.535798 1_545
O115 P31 1.537435 1_545
O116 P32 1.537427 1_555
O117 P33 1.553978 1_555
O118 P35 1.542390 1_555
O119 P34 1.530619 1_655
O120 P22 1.560660 1_555
O121 P23 1.560008 1_555
O122 P19 1.561085 1_455
O123 P18 1.559520 1_555
O124 P20 1.561847 1_565
O125 P21 1.560582 1_565
O126 P14 1.559375 1_565
O127 P15 1.557398 1_565
O128 P16 1.561080 1_555
O129 P17 1.557112 1_555
O130 P13 1.558488 1_455
O131 P12 1.558797 1_555
O132 P0 1.535205 1_555
O133 P1 1.531526 1_555
O134 P2 1.554146 1_555
O135 P3 1.533163 1_555
O136 P4 1.527099 1_555
O137 P5 1.539497 1_555
O138 P6 1.538363 1_555
O139 P7 1.538526 1_555
O140 P8 1.526049 1_555
O141 P9 1.526539 1_555
O142 P10 1.539132 1_565
O143 P11 1.538785 1_565
