# generated using pymatgen
data_Na4LaHfSi2PO12
_symmetry_space_group_name_H-M   'P 1'
_cell_length_a   9.53333388
_cell_length_b   9.53333351
_cell_length_c   22.53984095
_cell_angle_alpha   90.03540784
_cell_angle_beta   89.96459211
_cell_angle_gamma   119.74921751
_symmetry_Int_Tables_number   1
_chemical_formula_structural   Na4LaHfSi2PO12
_chemical_formula_sum   'Na24 La6 Hf6 Si12 P6 O72'
_cell_volume   1778.53699882
_cell_formula_units_Z   6
loop_
 _symmetry_equiv_pos_site_id
 _symmetry_equiv_pos_as_xyz
  1  'x, y, z'
loop_
 _atom_site_type_symbol
 _atom_site_label
 _atom_site_symmetry_multiplicity
 _atom_site_fract_x
 _atom_site_fract_y
 _atom_site_fract_z
 _atom_site_occupancy
  Na  Na0  1  0.64787340  0.00806496  0.24950292  1
  Na  Na1  1  0.36462886  0.36862462  0.24191218  1
  Na  Na2  1  0.98806351  0.62662010  0.24745198  1
  Na  Na3  1  0.63137538  0.63537114  0.74191218  1
  Na  Na4  1  0.99193504  0.35212660  0.74950292  1
  Na  Na5  1  0.37337990  0.01193649  0.74745198  1
  Na  Na6  1  0.31454040  0.34139796  0.58283592  1
  Na  Na7  1  0.03129586  0.70195762  0.57524518  1
  Na  Na8  1  0.65473051  0.95995310  0.58078498  1
  Na  Na9  1  0.29804238  0.96870414  0.07524518  1
  Na  Na10  1  0.65860204  0.68545960  0.08283592  1
  Na  Na11  1  0.04004690  0.34526949  0.08078498  1
  Na  Na12  1  0.98120640  0.67473196  0.91616992  1
  Na  Na13  1  0.69796186  0.03529162  0.90857918  1
  Na  Na14  1  0.32139651  0.29328710  0.91411898  1
  Na  Na15  1  0.96470838  0.30203814  0.40857918  1
  Na  Na16  1  0.32526804  0.01879360  0.41616992  1
  Na  Na17  1  0.70671290  0.67860349  0.41411898  1
  Na  Na18  1  0.98924947  0.98554023  0.49943457  1
  Na  Na19  1  0.01445977  0.01075053  0.99943457  1
  Na  Na20  1  0.65591647  0.31887323  0.83276757  1
  Na  Na21  1  0.68112677  0.34408353  0.33276757  1
  Na  Na22  1  0.32258247  0.65220723  0.16610157  1
  Na  Na23  1  0.34779277  0.67741753  0.66610157  1
  La  La0  1  0.99548510  0.99726032  0.34346501  1
  La  La1  1  0.00273968  0.00451490  0.84346501  1
  La  La2  1  0.66215210  0.33059332  0.67679801  1
  La  La3  1  0.66940668  0.33784790  0.17679801  1
  La  La4  1  0.32881810  0.66392732  0.01013201  1
  La  La5  1  0.33607268  0.67118190  0.51013201  1
  Hf  Hf0  1  0.99916143  0.00146573  0.64914427  1
  Hf  Hf1  1  0.99853427  0.00083857  0.14914427  1
  Hf  Hf2  1  0.66582843  0.33479873  0.98247727  1
  Hf  Hf3  1  0.66520127  0.33417157  0.48247727  1
  Hf  Hf4  1  0.33249443  0.66813273  0.31581127  1
  Hf  Hf5  1  0.33186727  0.66750557  0.81581127  1
  Si  Si0  1  0.68628613  0.70051046  0.25073012  1
  Si  Si1  1  0.01271367  0.31211295  0.25157808  1
  Si  Si2  1  0.29948954  0.31371387  0.75073012  1
  Si  Si3  1  0.68788705  0.98728633  0.75157808  1
  Si  Si4  1  0.35295313  0.03384346  0.58406312  1
  Si  Si5  1  0.67938067  0.64544595  0.58491108  1
  Si  Si6  1  0.96615654  0.64704687  0.08406312  1
  Si  Si7  1  0.35455405  0.32061933  0.08491108  1
  Si  Si8  1  0.01961913  0.36717746  0.91739712  1
  Si  Si9  1  0.34604667  0.97877995  0.91824508  1
  Si  Si10  1  0.63282254  0.98038087  0.41739712  1
  Si  Si11  1  0.02122005  0.65395333  0.41824508  1
  P  P0  1  0.29416873  0.98176193  0.24950321  1
  P  P1  1  0.01823807  0.70583127  0.74950321  1
  P  P2  1  0.96083573  0.31509493  0.58283621  1
  P  P3  1  0.68490507  0.03916427  0.08283621  1
  P  P4  1  0.62750173  0.64842893  0.91617021  1
  P  P5  1  0.35157107  0.37249827  0.41617021  1
  O  O0  1  0.23744151  0.01448449  0.30860466  1
  O  O1  1  0.78338031  0.76379551  0.31266283  1
  O  O2  1  0.99107192  0.22105921  0.31401103  1
  O  O3  1  0.23620449  0.21661969  0.81266283  1
  O  O4  1  0.98551551  0.76255849  0.80860466  1
  O  O5  1  0.77894079  0.00892808  0.81401103  1
  O  O6  1  0.80156260  0.97370840  0.69682426  1
  O  O7  1  0.17155365  0.19940752  0.69620326  1
  O  O8  1  0.02832578  0.82392593  0.69814254  1
  O  O9  1  0.80059248  0.82844634  0.19620326  1
  O  O10  1  0.02629160  0.19843740  0.19682426  1
  O  O11  1  0.17607407  0.97167422  0.19814254  1
  O  O12  1  0.90410851  0.34781749  0.64193766  1
  O  O13  1  0.45004731  0.09712851  0.64599583  1
  O  O14  1  0.65773892  0.55439221  0.64734403  1
  O  O15  1  0.90287149  0.54995269  0.14599583  1
  O  O16  1  0.65218251  0.09589149  0.14193766  1
  O  O17  1  0.44560779  0.34226108  0.14734403  1
  O  O18  1  0.46822960  0.30704140  0.03015726  1
  O  O19  1  0.83822065  0.53274052  0.02953626  1
  O  O20  1  0.69499278  0.15725893  0.03147554  1
  O  O21  1  0.46725948  0.16177934  0.52953626  1
  O  O22  1  0.69295860  0.53177040  0.53015726  1
  O  O23  1  0.84274107  0.30500722  0.53147554  1
  O  O24  1  0.57077451  0.68115149  0.97527166  1
  O  O25  1  0.11671331  0.43046251  0.97932983  1
  O  O26  1  0.32440492  0.88772621  0.98067803  1
  O  O27  1  0.56953749  0.88328669  0.47932983  1
  O  O28  1  0.31884851  0.42922549  0.47527166  1
  O  O29  1  0.11227379  0.67559508  0.48067803  1
  O  O30  1  0.13489560  0.64037540  0.36349126  1
  O  O31  1  0.50488665  0.86607452  0.36287026  1
  O  O32  1  0.36165878  0.49059293  0.36480954  1
  O  O33  1  0.13392548  0.49511334  0.86287026  1
  O  O34  1  0.35962460  0.86510440  0.86349126  1
  O  O35  1  0.50940707  0.63834122  0.86480954  1
  O  O36  1  0.99522514  0.81075324  0.41408889  1
  O  O37  1  0.81893583  0.01743456  0.41209618  1
  O  O38  1  0.21777627  0.19679315  0.40697140  1
  O  O39  1  0.98256544  0.18106417  0.91209618  1
  O  O40  1  0.18924676  0.00477486  0.91408889  1
  O  O41  1  0.80320685  0.78222373  0.90697140  1
  O  O42  1  0.95265450  0.14601469  0.58510018  1
  O  O43  1  0.18114021  0.03987860  0.58645111  1
  O  O44  1  0.85292070  0.82040211  0.58612131  1
  O  O45  1  0.96012140  0.81885979  0.08645111  1
  O  O46  1  0.85398531  0.04734550  0.08510018  1
  O  O47  1  0.17959789  0.14707930  0.08612131  1
  O  O48  1  0.66189214  0.14408624  0.74742189  1
  O  O49  1  0.48560283  0.35076756  0.74542918  1
  O  O50  1  0.88444327  0.53012615  0.74030440  1
  O  O51  1  0.64923244  0.51439717  0.24542918  1
  O  O52  1  0.85591376  0.33810786  0.24742189  1
  O  O53  1  0.46987385  0.11555673  0.24030440  1
  O  O54  1  0.61932150  0.47934769  0.91843318  1
  O  O55  1  0.84780721  0.37321160  0.91978411  1
  O  O56  1  0.51958770  0.15373511  0.91945431  1
  O  O57  1  0.62678840  0.15219279  0.41978411  1
  O  O58  1  0.52065231  0.38067850  0.41843318  1
  O  O59  1  0.84626489  0.48041230  0.41945431  1
  O  O60  1  0.32855814  0.47742024  0.08075589  1
  O  O61  1  0.15226883  0.68410156  0.07876318  1
  O  O62  1  0.55110927  0.86346015  0.07363840  1
  O  O63  1  0.31589844  0.84773117  0.57876318  1
  O  O64  1  0.52257976  0.67144186  0.58075589  1
  O  O65  1  0.13653985  0.44889073  0.57363840  1
  O  O66  1  0.28598750  0.81268169  0.25176718  1
  O  O67  1  0.51447321  0.70654560  0.25311811  1
  O  O68  1  0.18625370  0.48706911  0.25278831  1
  O  O69  1  0.29345440  0.48552679  0.75311811  1
  O  O70  1  0.18731831  0.71401250  0.75176718  1
  O  O71  1  0.51293089  0.81374630  0.75278831  1
loop_
_geom_bond_atom_site_label_1
_geom_bond_atom_site_label_2
_geom_bond_distance
_geom_bond_site_symmetry_2
Na0 O53 2.387281 1_555
Na0 O67 2.501786 1_545
Na0 O16 2.559140 1_555
Na0 O52 2.764552 1_555
Na0 O31 2.896332 1_545
Na1 O17 2.322180 1_555
Na1 O51 2.357394 1_555
Na1 O68 2.476205 1_555
Na1 O67 2.813360 1_555
Na2 O52 2.390291 1_555
Na2 O15 2.415456 1_555
Na2 O66 2.494596 1_655
Na2 O68 2.801665 1_655
Na2 O51 2.855050 1_555
Na2 O30 2.939293 1_655
Na3 O14 2.322180 1_555
Na3 O49 2.357394 1_555
Na3 O71 2.476205 1_555
Na3 O69 2.813360 1_555
Na4 O50 2.387281 1_555
Na4 O69 2.501786 1_655
Na4 O12 2.559140 1_555
Na4 O48 2.764552 1_555
Na4 O33 2.896331 1_655
Na5 O48 2.390291 1_555
Na5 O13 2.415456 1_555
Na5 O70 2.494596 1_545
Na5 O71 2.801665 1_545
Na5 O49 2.855050 1_555
Na5 O34 2.939293 1_545
Na6 O65 2.387296 1_555
Na6 O43 2.501786 1_555
Na6 O28 2.559123 1_555
Na6 O64 2.764557 1_555
Na6 O7 2.896332 1_555
Na7 O29 2.322153 1_555
Na7 O63 2.357387 1_555
Na7 O44 2.476205 1_455
Na7 O43 2.813360 1_565
Na8 O64 2.390282 1_555
Na8 O27 2.415435 1_555
Na8 O42 2.494596 1_565
Na8 O44 2.801665 1_555
Na8 O63 2.855060 1_555
Na8 O6 2.939293 1_555
Na9 O26 2.322153 1_554
Na9 O61 2.357387 1_555
Na9 O47 2.476205 1_565
Na9 O45 2.813360 1_455
Na10 O62 2.387296 1_555
Na10 O45 2.501786 1_555
Na10 O24 2.559123 1_554
Na10 O60 2.764558 1_555
Na10 O9 2.896331 1_555
Na11 O60 2.390282 1_555
Na11 O25 2.415435 1_554
Na11 O46 2.494596 1_455
Na11 O47 2.801665 1_555
Na11 O61 2.855060 1_555
Na11 O10 2.939293 1_555
Na12 O41 2.387281 1_555
Na12 O55 2.501795 1_555
Na12 O4 2.559140 1_555
Na12 O40 2.764552 1_665
Na12 O19 2.896312 1_556
Na13 O5 2.322180 1_555
Na13 O39 2.357394 1_555
Na13 O56 2.476186 1_555
Na13 O55 2.813348 1_555
Na14 O40 2.390291 1_555
Na14 O3 2.415456 1_555
Na14 O54 2.494602 1_555
Na14 O56 2.801680 1_555
Na14 O39 2.855050 1_455
Na14 O18 2.939279 1_556
Na15 O2 2.322180 1_555
Na15 O37 2.357394 1_555
Na15 O59 2.476186 1_555
Na15 O57 2.813349 1_555
Na16 O38 2.387281 1_555
Na16 O57 2.501795 1_555
Na16 O0 2.559140 1_555
Na16 O36 2.764552 1_445
Na16 O21 2.896312 1_555
Na17 O36 2.390291 1_555
Na17 O1 2.415456 1_555
Na17 O58 2.494602 1_555
Na17 O59 2.801680 1_555
Na17 O37 2.855050 1_565
Na17 O22 2.939279 1_555
Na18 O44 2.440381 1_555
Na18 O43 2.554304 1_665
Na18 O36 2.563290 1_555
Na18 O42 2.591466 1_565
Na18 O37 2.664339 1_565
Na18 O38 2.964982 1_665
Na19 O47 2.440381 1_556
Na19 O45 2.554304 1_446
Na19 O40 2.563290 1_555
Na19 O46 2.591466 1_456
Na19 O39 2.664339 1_455
Na19 O41 2.964982 1_445
Na20 O56 2.440381 1_555
Na20 O55 2.554304 1_555
Na20 O48 2.563290 1_555
Na20 O54 2.591466 1_555
Na20 O49 2.664339 1_555
Na20 O50 2.964982 1_555
Na21 O59 2.440381 1_555
Na21 O57 2.554304 1_555
Na21 O52 2.563290 1_555
Na21 O58 2.591466 1_555
Na21 O51 2.664339 1_555
Na21 O53 2.964982 1_555
Na22 O68 2.440381 1_555
Na22 O67 2.554304 1_555
Na22 O60 2.563290 1_555
Na22 O66 2.591466 1_555
Na22 O61 2.664339 1_555
Na22 O62 2.964982 1_555
Na23 O71 2.440381 1_555
Na23 O69 2.554304 1_555
Na23 O64 2.563290 1_555
Na23 O70 2.591466 1_555
Na23 O63 2.664339 1_555
Na23 O65 2.964982 1_555
La0 O1 2.248995 1_555
La0 O2 2.255087 1_565
La0 O37 2.362308 1_565
La0 O0 2.363691 1_665
La0 O36 2.386320 1_555
La0 O38 2.481563 1_665
La1 O3 2.248995 1_555
La1 O5 2.255087 1_455
La1 O39 2.362308 1_455
La1 O4 2.363691 1_445
La1 O40 2.386320 1_555
La1 O41 2.481563 1_445
La2 O13 2.248995 1_555
La2 O14 2.255087 1_555
La2 O49 2.362308 1_555
La2 O12 2.363691 1_555
La2 O48 2.386320 1_555
La2 O50 2.481563 1_555
La3 O15 2.248995 1_555
La3 O17 2.255087 1_555
La3 O51 2.362308 1_555
La3 O16 2.363691 1_555
La3 O52 2.386320 1_555
La3 O53 2.481563 1_555
La4 O25 2.248995 1_554
La4 O26 2.255087 1_554
La4 O61 2.362308 1_555
La4 O24 2.363691 1_554
La4 O60 2.386320 1_555
La4 O62 2.481563 1_555
La5 O27 2.248995 1_555
La5 O29 2.255087 1_555
La5 O63 2.362308 1_555
La5 O28 2.363691 1_555
La5 O64 2.386320 1_555
La5 O65 2.481563 1_555
Hf0 O6 2.068033 1_545
Hf0 O7 2.075800 1_655
Hf0 O43 2.123161 1_655
Hf0 O44 2.133614 1_545
Hf0 O8 2.152079 1_645
Hf0 O42 2.188368 1_555
Hf1 O10 2.068033 1_655
Hf1 O9 2.075800 1_545
Hf1 O45 2.123161 1_545
Hf1 O47 2.133614 1_655
Hf1 O11 2.152079 1_645
Hf1 O46 2.188368 1_555
Hf2 O18 2.068033 1_556
Hf2 O19 2.075800 1_556
Hf2 O55 2.123161 1_555
Hf2 O56 2.133614 1_555
Hf2 O20 2.152079 1_556
Hf2 O54 2.188368 1_555
Hf3 O22 2.068033 1_555
Hf3 O21 2.075800 1_555
Hf3 O57 2.123161 1_555
Hf3 O59 2.133614 1_555
Hf3 O23 2.152079 1_555
Hf3 O58 2.188368 1_555
Hf4 O30 2.068033 1_555
Hf4 O31 2.075800 1_555
Hf4 O67 2.123161 1_555
Hf4 O68 2.133614 1_555
Hf4 O32 2.152079 1_555
Hf4 O66 2.188368 1_555
Hf5 O34 2.068033 1_555
Hf5 O33 2.075800 1_555
Hf5 O69 2.123161 1_555
Hf5 O71 2.133614 1_555
Hf5 O35 2.152079 1_555
Hf5 O70 2.188368 1_555
O0 P0 1.526562 1_545
O1 Si0 1.617349 1_555
O2 Si1 1.612383 1_655
O3 Si2 1.617349 1_555
O4 P1 1.526562 1_655
O5 Si3 1.612383 1_545
O6 Si3 1.688682 1_555
O7 Si2 1.693151 1_555
O8 P1 1.584600 1_555
O9 Si0 1.693151 1_555
O10 Si1 1.688682 1_555
O11 P0 1.584600 1_555
O12 P2 1.526562 1_555
O13 Si4 1.617349 1_555
O14 Si5 1.612383 1_555
O15 Si6 1.617349 1_555
O16 P3 1.526562 1_555
O17 Si7 1.612383 1_555
O18 Si7 1.688682 1_555
O19 Si6 1.693151 1_555
O20 P3 1.584600 1_555
O21 Si4 1.693151 1_555
O22 Si5 1.688682 1_555
O23 P2 1.584600 1_555
O24 P4 1.526562 1_555
O25 Si8 1.617349 1_555
O26 Si9 1.612383 1_555
O27 Si10 1.617349 1_555
O28 P5 1.526562 1_555
O29 Si11 1.612383 1_555
O30 Si11 1.688682 1_555
O31 Si10 1.693151 1_555
O32 P5 1.584600 1_555
O33 Si8 1.693151 1_555
O34 Si9 1.688682 1_555
O35 P4 1.584600 1_555
O36 Si11 1.634787 1_655
O37 Si10 1.632458 1_545
O38 P5 1.534696 1_555
O39 Si8 1.632458 1_655
O40 Si9 1.634787 1_545
O41 P4 1.534696 1_555
O42 P2 1.575511 1_555
O43 Si4 1.668082 1_555
O44 Si5 1.667722 1_555
O45 Si6 1.668082 1_555
O46 P3 1.575511 1_555
O47 Si7 1.667722 1_555
O48 Si3 1.634787 1_545
O49 Si2 1.632458 1_555
O50 P1 1.534696 1_655
O51 Si0 1.632458 1_555
O52 Si1 1.634787 1_655
O53 P0 1.534696 1_545
O54 P4 1.575524 1_555
O55 Si8 1.668067 1_655
O56 Si9 1.667721 1_545
O57 Si10 1.668067 1_545
O58 P5 1.575524 1_555
O59 Si11 1.667721 1_655
O60 Si7 1.634801 1_555
O61 Si6 1.632444 1_455
O62 P3 1.534689 1_565
O63 Si4 1.632444 1_565
O64 Si5 1.634801 1_555
O65 P2 1.534689 1_455
O66 P0 1.575511 1_555
O67 Si0 1.668082 1_555
O68 Si1 1.667722 1_555
O69 Si2 1.668082 1_555
O70 P1 1.575511 1_555
O71 Si3 1.667722 1_555
