# generated using pymatgen
data_Rb4Hg5Te13
_symmetry_space_group_name_H-M   'P 1'
_cell_length_a   9.37265500
_cell_length_b   10.26030900
_cell_length_c   35.49147800
_cell_angle_alpha   90.00000000
_cell_angle_beta   90.00000000
_cell_angle_gamma   90.00000000
_symmetry_Int_Tables_number   1
_chemical_formula_structural   Rb4Hg5Te13
_chemical_formula_sum   'Rb16 Hg20 Te52'
_cell_volume   3413.08541447
_cell_formula_units_Z   4
loop_
 _symmetry_equiv_pos_site_id
 _symmetry_equiv_pos_as_xyz
  1  'x, y, z'
loop_
 _atom_site_type_symbol
 _atom_site_label
 _atom_site_symmetry_multiplicity
 _atom_site_fract_x
 _atom_site_fract_y
 _atom_site_fract_z
 _atom_site_occupancy
  Rb  Rb0  1  0.50713300  0.72559700  0.98485300  1
  Rb  Rb1  1  0.00713300  0.27440300  0.01514700  1
  Rb  Rb2  1  0.99286700  0.22559700  0.51514700  1
  Rb  Rb3  1  0.49286700  0.77440300  0.48485300  1
  Rb  Rb4  1  0.49286700  0.27440300  0.01514700  1
  Rb  Rb5  1  0.99286700  0.72559700  0.98485300  1
  Rb  Rb6  1  0.00713300  0.77440300  0.48485300  1
  Rb  Rb7  1  0.50713300  0.22559700  0.51514700  1
  Rb  Rb8  1  0.75000000  0.08298800  0.84039600  1
  Rb  Rb9  1  0.25000000  0.91701200  0.15960400  1
  Rb  Rb10  1  0.75000000  0.58298800  0.65960400  1
  Rb  Rb11  1  0.25000000  0.41701200  0.34039600  1
  Rb  Rb12  1  0.25000000  0.58790500  0.75340200  1
  Rb  Rb13  1  0.75000000  0.41209500  0.24659800  1
  Rb  Rb14  1  0.25000000  0.08790500  0.74659800  1
  Rb  Rb15  1  0.75000000  0.91209500  0.25340200  1
  Hg  Hg0  1  0.75000000  0.44411300  0.80290800  1
  Hg  Hg1  1  0.25000000  0.55588700  0.19709200  1
  Hg  Hg2  1  0.75000000  0.94411300  0.69709200  1
  Hg  Hg3  1  0.25000000  0.05588700  0.30290800  1
  Hg  Hg4  1  0.47520100  0.29090500  0.90307000  1
  Hg  Hg5  1  0.97520100  0.70909500  0.09693000  1
  Hg  Hg6  1  0.02479900  0.79090500  0.59693000  1
  Hg  Hg7  1  0.52479900  0.20909500  0.40307000  1
  Hg  Hg8  1  0.52479900  0.70909500  0.09693000  1
  Hg  Hg9  1  0.02479900  0.29090500  0.90307000  1
  Hg  Hg10  1  0.97520100  0.20909500  0.40307000  1
  Hg  Hg11  1  0.47520100  0.79090500  0.59693000  1
  Hg  Hg12  1  0.49179300  0.62766400  0.85552300  1
  Hg  Hg13  1  0.99179300  0.37233600  0.14447700  1
  Hg  Hg14  1  0.00820700  0.12766400  0.64447700  1
  Hg  Hg15  1  0.50820700  0.87233600  0.35552300  1
  Hg  Hg16  1  0.50820700  0.37233600  0.14447700  1
  Hg  Hg17  1  0.00820700  0.62766400  0.85552300  1
  Hg  Hg18  1  0.99179300  0.87233600  0.35552300  1
  Hg  Hg19  1  0.49179300  0.12766400  0.64447700  1
  Te  Te0  1  0.47242500  0.37034200  0.82468400  1
  Te  Te1  1  0.97242500  0.62965800  0.17531600  1
  Te  Te2  1  0.02757500  0.87034200  0.67531600  1
  Te  Te3  1  0.52757500  0.12965800  0.32468400  1
  Te  Te4  1  0.52757500  0.62965800  0.17531600  1
  Te  Te5  1  0.02757500  0.37034200  0.82468400  1
  Te  Te6  1  0.97242500  0.12965800  0.32468400  1
  Te  Te7  1  0.47242500  0.87034200  0.67531600  1
  Te  Te8  1  0.25000000  0.43047600  0.94181400  1
  Te  Te9  1  0.75000000  0.56952400  0.05818600  1
  Te  Te10  1  0.25000000  0.93047600  0.55818600  1
  Te  Te11  1  0.75000000  0.06952400  0.44181400  1
  Te  Te12  1  0.75000000  0.64043200  0.90371000  1
  Te  Te13  1  0.25000000  0.35956800  0.09629000  1
  Te  Te14  1  0.75000000  0.14043200  0.59629000  1
  Te  Te15  1  0.25000000  0.85956800  0.40371000  1
  Te  Te16  1  0.75000000  0.39351000  0.93693500  1
  Te  Te17  1  0.25000000  0.60649000  0.06306500  1
  Te  Te18  1  0.75000000  0.89351000  0.56306500  1
  Te  Te19  1  0.25000000  0.10649000  0.43693500  1
  Te  Te20  1  0.25000000  0.70516400  0.90103200  1
  Te  Te21  1  0.75000000  0.29483600  0.09896800  1
  Te  Te22  1  0.25000000  0.20516400  0.59896800  1
  Te  Te23  1  0.75000000  0.79483600  0.40103200  1
  Te  Te24  1  0.25000000  0.94673000  0.85524100  1
  Te  Te25  1  0.75000000  0.05327000  0.14475900  1
  Te  Te26  1  0.25000000  0.44673000  0.64475900  1
  Te  Te27  1  0.75000000  0.55327000  0.35524100  1
  Te  Te28  1  0.75000000  0.70544700  0.76551500  1
  Te  Te29  1  0.25000000  0.29455300  0.23448500  1
  Te  Te30  1  0.75000000  0.20544700  0.73448500  1
  Te  Te31  1  0.25000000  0.79455300  0.26551500  1
  Te  Te32  1  0.50295700  0.83340000  0.80194800  1
  Te  Te33  1  0.00295700  0.16660000  0.19805200  1
  Te  Te34  1  0.99704300  0.33340000  0.69805200  1
  Te  Te35  1  0.49704300  0.66660000  0.30194800  1
  Te  Te36  1  0.49704300  0.16660000  0.19805200  1
  Te  Te37  1  0.99704300  0.83340000  0.80194800  1
  Te  Te38  1  0.00295700  0.66660000  0.30194800  1
  Te  Te39  1  0.50295700  0.33340000  0.69805200  1
  Te  Te40  1  0.75000000  0.03740700  0.96838000  1
  Te  Te41  1  0.25000000  0.96259300  0.03162000  1
  Te  Te42  1  0.75000000  0.53740700  0.53162000  1
  Te  Te43  1  0.25000000  0.46259300  0.46838000  1
  Te  Te44  1  0.50557400  0.02091400  0.92061900  1
  Te  Te45  1  0.00557400  0.97908600  0.07938100  1
  Te  Te46  1  0.99442600  0.52091400  0.57938100  1
  Te  Te47  1  0.49442600  0.47908600  0.42061900  1
  Te  Te48  1  0.49442600  0.97908600  0.07938100  1
  Te  Te49  1  0.99442600  0.02091400  0.92061900  1
  Te  Te50  1  0.00557400  0.47908600  0.42061900  1
  Te  Te51  1  0.50557400  0.52091400  0.57938100  1
loop_
_geom_bond_atom_site_label_1
_geom_bond_atom_site_label_2
_geom_bond_distance
_geom_bond_site_symmetry_2
Rb0 Te12 3.773444 1_555
Rb0 Te44 3.791923 1_565
Rb0 Te41 3.804755 1_556
Rb0 Te9 3.810506 1_556
Rb0 Te20 3.834366 1_555
Rb0 Te17 3.873894 1_556
Rb0 Te40 3.969724 1_565
Rb0 Te8 4.160587 1_555
Rb1 Te13 3.773444 1_555
Rb1 Te45 3.791923 1_545
Rb1 Te40 3.804755 1_454
Rb1 Te8 3.810506 1_554
Rb1 Te21 3.834366 1_455
Rb1 Te16 3.873894 1_454
Rb1 Te41 3.969724 1_545
Rb1 Te9 4.160587 1_455
Rb2 Te14 3.773444 1_555
Rb2 Te46 3.791923 1_555
Rb2 Te43 3.804755 1_655
Rb2 Te11 3.810506 1_555
Rb2 Te22 3.834366 1_655
Rb2 Te19 3.873894 1_655
Rb2 Te42 3.969724 1_555
Rb2 Te10 4.160587 1_645
Rb3 Te15 3.773444 1_555
Rb3 Te47 3.791923 1_555
Rb3 Te42 3.804755 1_555
Rb3 Te10 3.810506 1_555
Rb3 Te23 3.834366 1_555
Rb3 Te18 3.873894 1_555
Rb3 Te43 3.969724 1_555
Rb3 Te11 4.160587 1_565
Rb4 Te13 3.773444 1_555
Rb4 Te48 3.791923 1_545
Rb4 Te40 3.804755 1_554
Rb4 Te8 3.810506 1_554
Rb4 Te21 3.834366 1_555
Rb4 Te16 3.873894 1_554
Rb4 Te41 3.969724 1_545
Rb4 Te9 4.160587 1_555
Rb5 Te12 3.773444 1_555
Rb5 Te49 3.791923 1_565
Rb5 Te41 3.804755 1_656
Rb5 Te9 3.810506 1_556
Rb5 Te20 3.834366 1_655
Rb5 Te17 3.873894 1_656
Rb5 Te40 3.969724 1_565
Rb5 Te8 4.160587 1_655
Rb6 Te15 3.773444 1_555
Rb6 Te50 3.791923 1_555
Rb6 Te42 3.804755 1_455
Rb6 Te10 3.810506 1_555
Rb6 Te23 3.834366 1_455
Rb6 Te18 3.873894 1_455
Rb6 Te43 3.969724 1_555
Rb6 Te11 4.160587 1_465
Rb7 Te14 3.773444 1_555
Rb7 Te51 3.791923 1_555
Rb7 Te43 3.804755 1_555
Rb7 Te11 3.810506 1_555
Rb7 Te22 3.834366 1_555
Rb7 Te19 3.873894 1_555
Rb7 Te42 3.969724 1_555
Rb7 Te10 4.160587 1_545
Rb8 Te49 3.709541 1_555
Rb8 Te44 3.709541 1_555
Rb8 Te37 3.712321 1_545
Rb8 Te32 3.712321 1_545
Rb8 Te30 3.963373 1_555
Rb8 Te5 3.971407 1_655
Rb8 Te0 3.971407 1_555
Rb9 Te45 3.709541 1_555
Rb9 Te48 3.709541 1_555
Rb9 Te36 3.712321 1_565
Rb9 Te33 3.712321 1_565
Rb9 Te31 3.963373 1_555
Rb9 Te1 3.971407 1_455
Rb9 Te4 3.971407 1_555
Rb10 Te46 3.709541 1_555
Rb10 Te51 3.709541 1_555
Rb10 Te34 3.712321 1_555
Rb10 Te39 3.712321 1_555
Rb10 Te28 3.963373 1_555
Rb10 Te2 3.971407 1_655
Rb10 Te7 3.971407 1_555
Rb11 Te47 3.709541 1_555
Rb11 Te50 3.709541 1_555
Rb11 Te35 3.712321 1_555
Rb11 Te38 3.712321 1_555
Rb11 Te29 3.963373 1_555
Rb11 Te6 3.971407 1_455
Rb11 Te3 3.971407 1_555
Rb12 Te32 3.864494 1_555
Rb12 Te37 3.864494 1_455
Rb12 Te0 3.966036 1_555
Rb12 Te5 3.966036 1_555
Rb12 Te39 4.037206 1_555
Rb12 Te34 4.037206 1_455
Rb12 Te26 4.118995 1_555
Rb13 Te33 3.864494 1_655
Rb13 Te36 3.864494 1_555
Rb13 Te4 3.966036 1_555
Rb13 Te1 3.966036 1_555
Rb13 Te38 4.037206 1_655
Rb13 Te35 4.037206 1_555
Rb13 Te27 4.118995 1_555
Rb14 Te39 3.864494 1_555
Rb14 Te34 3.864494 1_455
Rb14 Te7 3.966036 1_545
Rb14 Te2 3.966036 1_545
Rb14 Te32 4.037206 1_545
Rb14 Te37 4.037206 1_445
Rb14 Te24 4.118995 1_545
Rb15 Te38 3.864494 1_655
Rb15 Te35 3.864494 1_555
Rb15 Te3 3.966036 1_565
Rb15 Te6 3.966036 1_565
Rb15 Te33 4.037206 1_665
Rb15 Te36 4.037206 1_565
Rb15 Te25 4.118995 1_565
Hg0 Te5 2.817558 1_655
Hg0 Te0 2.817558 1_555
Hg0 Te28 2.991824 1_555
Hg0 Te30 3.448746 1_555
Hg0 Rb8 3.936896 1_555
Hg1 Te4 2.817558 1_555
Hg1 Te1 2.817558 1_455
Hg1 Te29 2.991824 1_555
Hg1 Te31 3.448746 1_555
Hg1 Rb9 3.936896 1_555
Hg2 Te2 2.817558 1_655
Hg2 Te7 2.817558 1_555
Hg2 Te30 2.991824 1_565
Hg2 Te28 3.448746 1_555
Hg2 Rb10 3.936896 1_555
Hg3 Te3 2.817558 1_555
Hg3 Te6 2.817558 1_455
Hg3 Te31 2.991824 1_545
Hg3 Te29 3.448746 1_555
Hg3 Rb11 3.936896 1_555
Hg4 Te44 2.853582 1_555
Hg4 Te8 2.897720 1_555
Hg4 Te0 2.899086 1_555
Hg4 Te16 3.030942 1_555
Hg4 Rb4 3.984822 1_556
Hg4 Rb8 4.016535 1_555
Hg5 Te45 2.853582 1_655
Hg5 Te9 2.897720 1_555
Hg5 Te1 2.899086 1_555
Hg5 Te17 3.030942 1_655
Hg5 Rb5 3.984822 1_554
Hg5 Rb9 4.016535 1_655
Hg6 Te46 2.853582 1_455
Hg6 Te10 2.897720 1_555
Hg6 Te2 2.899086 1_555
Hg6 Te18 3.030942 1_455
Hg6 Rb6 3.984822 1_555
Hg6 Rb10 4.016535 1_455
Hg7 Te47 2.853582 1_555
Hg7 Te11 2.897720 1_555
Hg7 Te3 2.899086 1_555
Hg7 Te19 3.030942 1_555
Hg7 Rb7 3.984822 1_555
Hg7 Rb11 4.016535 1_555
Hg8 Te48 2.853582 1_555
Hg8 Te9 2.897720 1_555
Hg8 Te4 2.899086 1_555
Hg8 Te17 3.030942 1_555
Hg8 Rb0 3.984822 1_554
Hg8 Rb9 4.016535 1_555
Hg9 Te49 2.853582 1_455
Hg9 Te8 2.897720 1_555
Hg9 Te5 2.899086 1_555
Hg9 Te16 3.030942 1_455
Hg9 Rb1 3.984822 1_556
Hg9 Rb8 4.016535 1_455
Hg10 Te50 2.853582 1_655
Hg10 Te11 2.897720 1_555
Hg10 Te6 2.899086 1_555
Hg10 Te19 3.030942 1_655
Hg10 Rb2 3.984822 1_555
Hg10 Rb11 4.016535 1_655
Hg11 Te51 2.853582 1_555
Hg11 Te10 2.897720 1_555
Hg11 Te7 2.899086 1_555
Hg11 Te18 3.030942 1_555
Hg11 Rb3 3.984822 1_555
Hg11 Rb10 4.016535 1_555
Hg12 Te32 2.842964 1_555
Hg12 Te0 2.863844 1_555
Hg12 Te20 2.894299 1_555
Hg12 Te12 2.966286 1_555
Hg13 Te33 2.842964 1_655
Hg13 Te1 2.863844 1_555
Hg13 Te21 2.894299 1_555
Hg13 Te13 2.966286 1_655
Hg14 Te34 2.842964 1_455
Hg14 Te2 2.863844 1_545
Hg14 Te22 2.894299 1_555
Hg14 Te14 2.966286 1_455
Hg15 Te35 2.842964 1_555
Hg15 Te3 2.863844 1_565
Hg15 Te23 2.894299 1_555
Hg15 Te15 2.966286 1_555
Hg16 Te36 2.842964 1_555
Hg16 Te4 2.863844 1_555
Hg16 Te21 2.894299 1_555
Hg16 Te13 2.966286 1_555
Hg17 Te37 2.842964 1_455
Hg17 Te5 2.863844 1_555
Hg17 Te20 2.894299 1_555
Hg17 Te12 2.966286 1_455
Hg18 Te38 2.842964 1_655
Hg18 Te6 2.863844 1_565
Hg18 Te23 2.894299 1_555
Hg18 Te15 2.966286 1_655
Hg19 Te39 2.842964 1_555
Hg19 Te7 2.863844 1_545
Hg19 Te22 2.894299 1_555
Hg19 Te14 2.966286 1_555
Te10 Te22 3.168326 1_565
Te11 Te23 3.168326 1_545
Te12 Te16 2.794481 1_555
Te13 Te17 2.794481 1_555
Te14 Te18 2.794481 1_545
Te15 Te19 2.794481 1_565
Te20 Te24 2.963851 1_555
Te20 Te8 3.168326 1_555
Te21 Te25 2.963851 1_555
Te21 Te9 3.168326 1_555
Te22 Te26 2.963851 1_555
Te23 Te27 2.963851 1_555
Te24 Te32 3.248191 1_555
Te24 Te37 3.248191 1_455
Te24 Te44 3.420731 1_565
Te24 Te49 3.420731 1_465
Te25 Te33 3.248191 1_655
Te25 Te36 3.248191 1_555
Te25 Te45 3.420731 1_645
Te25 Te48 3.420731 1_545
Te26 Te39 3.248191 1_555
Te26 Te34 3.248191 1_455
Te26 Te51 3.420731 1_555
Te26 Te46 3.420731 1_455
Te27 Te38 3.248191 1_655
Te27 Te35 3.248191 1_555
Te27 Te50 3.420731 1_655
Te27 Te47 3.420731 1_555
Te28 Te37 2.959198 1_555
Te28 Te32 2.959198 1_555
Te29 Te36 2.959198 1_555
Te29 Te33 2.959198 1_555
Te30 Te34 2.959198 1_555
Te30 Te39 2.959198 1_555
Te31 Te35 2.959198 1_555
Te31 Te38 2.959198 1_555
Te40 Te49 2.854881 1_555
Te40 Te44 2.854881 1_555
Te41 Te48 2.854881 1_555
Te41 Te45 2.854881 1_555
Te42 Te46 2.854881 1_555
Te42 Te51 2.854881 1_555
Te43 Te47 2.854881 1_555
Te43 Te50 2.854881 1_555
