# generated using pymatgen
data_Na3NbAlSi2PO12
_symmetry_space_group_name_H-M   'P 1'
_cell_length_a   8.89958132
_cell_length_b   8.89958102
_cell_length_c   22.09591852
_cell_angle_alpha   89.17422971
_cell_angle_beta   90.82577028
_cell_angle_gamma   119.61268670
_symmetry_Int_Tables_number   1
_chemical_formula_structural   Na3NbAlSi2PO12
_chemical_formula_sum   'Na18 Nb6 Al6 Si12 P6 O72'
_cell_volume   1521.25923285
_cell_formula_units_Z   6
loop_
 _symmetry_equiv_pos_site_id
 _symmetry_equiv_pos_as_xyz
  1  'x, y, z'
loop_
 _atom_site_type_symbol
 _atom_site_label
 _atom_site_symmetry_multiplicity
 _atom_site_fract_x
 _atom_site_fract_y
 _atom_site_fract_z
 _atom_site_occupancy
  Na  Na0  1  0.99797058  0.99534533  0.49473374  1
  Na  Na1  1  0.00465467  0.00202942  0.99473374  1
  Na  Na2  1  0.66463758  0.32867833  0.82806674  1
  Na  Na3  1  0.67132167  0.33536242  0.32806674  1
  Na  Na4  1  0.33130358  0.66201233  0.16140074  1
  Na  Na5  1  0.33798767  0.66869642  0.66140074  1
  Na  Na6  1  0.64116767  0.00723760  0.24926595  1
  Na  Na7  1  0.99158525  0.62728675  0.24836123  1
  Na  Na8  1  0.99276240  0.35883233  0.74926595  1
  Na  Na9  1  0.37271325  0.00841475  0.74836123  1
  Na  Na10  1  0.30783467  0.34057060  0.58259895  1
  Na  Na11  1  0.65825225  0.96061975  0.58169423  1
  Na  Na12  1  0.65942940  0.69216533  0.08259895  1
  Na  Na13  1  0.03938025  0.34174775  0.08169423  1
  Na  Na14  1  0.97450067  0.67390460  0.91593295  1
  Na  Na15  1  0.32491825  0.29395375  0.91502823  1
  Na  Na16  1  0.32609540  0.02549933  0.41593295  1
  Na  Na17  1  0.70604625  0.67508175  0.41502823  1
  Nb  Nb0  1  0.99658437  0.99492138  0.64570242  1
  Nb  Nb1  1  0.00507862  0.00341563  0.14570242  1
  Nb  Nb2  1  0.66325137  0.32825438  0.97903542  1
  Nb  Nb3  1  0.67174562  0.33674863  0.47903542  1
  Nb  Nb4  1  0.32991737  0.66158838  0.31236942  1
  Nb  Nb5  1  0.33841162  0.67008263  0.81236942  1
  Al  Al0  1  0.98604111  0.99299924  0.35331687  1
  Al  Al1  1  0.00700076  0.01395890  0.85331687  1
  Al  Al2  1  0.65270811  0.32633224  0.68664987  1
  Al  Al3  1  0.67366776  0.34729190  0.18664987  1
  Al  Al4  1  0.31937411  0.65966624  0.01998387  1
  Al  Al5  1  0.34033376  0.68062590  0.51998387  1
  Si  Si0  1  0.71124001  0.70378923  0.25185438  1
  Si  Si1  1  0.99318414  0.28389377  0.25178401  1
  Si  Si2  1  0.29621077  0.28875999  0.75185438  1
  Si  Si3  1  0.71610623  0.00681586  0.75178401  1
  Si  Si4  1  0.37790701  0.03712223  0.58518738  1
  Si  Si5  1  0.65985114  0.61722677  0.58511701  1
  Si  Si6  1  0.96287777  0.62209299  0.08518738  1
  Si  Si7  1  0.38277323  0.34014886  0.08511701  1
  Si  Si8  1  0.04457301  0.37045623  0.91852138  1
  Si  Si9  1  0.32651714  0.95056077  0.91845101  1
  Si  Si10  1  0.62954377  0.95542699  0.41852138  1
  Si  Si11  1  0.04943923  0.67348286  0.41845101  1
  P  P0  1  0.29456617  0.01161851  0.25387976  1
  P  P1  1  0.98838149  0.70543383  0.75387976  1
  P  P2  1  0.96123317  0.34495151  0.58721276  1
  P  P3  1  0.65504849  0.03876683  0.08721276  1
  P  P4  1  0.62789917  0.67828551  0.92054676  1
  P  P5  1  0.32171449  0.37210083  0.42054676  1
  O  O0  1  0.20760452  0.02934673  0.31021927  1
  O  O1  1  0.83401879  0.79455593  0.31036926  1
  O  O2  1  0.96629594  0.15476590  0.30726388  1
  O  O3  1  0.20544407  0.16598121  0.81036926  1
  O  O4  1  0.97065327  0.79239548  0.81021927  1
  O  O5  1  0.84523410  0.03370406  0.80726388  1
  O  O6  1  0.79811102  0.97123435  0.68944840  1
  O  O7  1  0.16698369  0.19933875  0.69140756  1
  O  O8  1  0.02610756  0.82863187  0.69698824  1
  O  O9  1  0.80066125  0.83301631  0.19140756  1
  O  O10  1  0.02876565  0.20188898  0.18944840  1
  O  O11  1  0.17136813  0.97389244  0.19698824  1
  O  O12  1  0.87427152  0.36267973  0.64355227  1
  O  O13  1  0.50068579  0.12788893  0.64370226  1
  O  O14  1  0.63296294  0.48809890  0.64059688  1
  O  O15  1  0.87211107  0.49931421  0.14370226  1
  O  O16  1  0.63732027  0.12572848  0.14355227  1
  O  O17  1  0.51190110  0.36703706  0.14059688  1
  O  O18  1  0.46477802  0.30456735  0.02278140  1
  O  O19  1  0.83365069  0.53267175  0.02474056  1
  O  O20  1  0.69277456  0.16196487  0.03032124  1
  O  O21  1  0.46732825  0.16634931  0.52474056  1
  O  O22  1  0.69543265  0.53522198  0.52278140  1
  O  O23  1  0.83803513  0.30722544  0.53032124  1
  O  O24  1  0.54093752  0.69601373  0.97688627  1
  O  O25  1  0.16735179  0.46122293  0.97703626  1
  O  O26  1  0.29962894  0.82143290  0.97393088  1
  O  O27  1  0.53877707  0.83264821  0.47703626  1
  O  O28  1  0.30398627  0.45906248  0.47688627  1
  O  O29  1  0.17856710  0.70037106  0.47393088  1
  O  O30  1  0.13144402  0.63790135  0.35611540  1
  O  O31  1  0.50031669  0.86600575  0.35807456  1
  O  O32  1  0.35944056  0.49529887  0.36365524  1
  O  O33  1  0.13399425  0.49968331  0.85807456  1
  O  O34  1  0.36209865  0.86855598  0.85611540  1
  O  O35  1  0.50470113  0.64055944  0.86365524  1
  O  O36  1  0.03053910  0.84648641  0.40979070  1
  O  O37  1  0.81709403  0.97095203  0.41009957  1
  O  O38  1  0.17101465  0.18985561  0.41065333  1
  O  O39  1  0.02904797  0.18290597  0.91009957  1
  O  O40  1  0.15351359  0.96946090  0.90979070  1
  O  O41  1  0.81014439  0.82898535  0.91065333  1
  O  O42  1  0.97215764  0.17206354  0.58809164  1
  O  O43  1  0.18846270  0.03115555  0.58866010  1
  O  O44  1  0.83046361  0.81571408  0.58810968  1
  O  O45  1  0.96884445  0.81153730  0.08866010  1
  O  O46  1  0.82793646  0.02784236  0.08809164  1
  O  O47  1  0.18428592  0.16953639  0.08810968  1
  O  O48  1  0.69720610  0.17981941  0.74312370  1
  O  O49  1  0.48376103  0.30428503  0.74343257  1
  O  O50  1  0.83768165  0.52318861  0.74398633  1
  O  O51  1  0.69571497  0.51623897  0.24343257  1
  O  O52  1  0.82018059  0.30279390  0.24312370  1
  O  O53  1  0.47681139  0.16231835  0.24398633  1
  O  O54  1  0.63882464  0.50539654  0.92142464  1
  O  O55  1  0.85512970  0.36448855  0.92199310  1
  O  O56  1  0.49713061  0.14904708  0.92144268  1
  O  O57  1  0.63551145  0.14487030  0.42199310  1
  O  O58  1  0.49460346  0.36117536  0.42142464  1
  O  O59  1  0.85095292  0.50286939  0.42144268  1
  O  O60  1  0.36387210  0.51315341  0.07645770  1
  O  O61  1  0.15042703  0.63761903  0.07676657  1
  O  O62  1  0.50434765  0.85652261  0.07732033  1
  O  O63  1  0.36238097  0.84957297  0.57676657  1
  O  O64  1  0.48684659  0.63612790  0.57645770  1
  O  O65  1  0.14347739  0.49565235  0.57732033  1
  O  O66  1  0.30549064  0.83873054  0.25475864  1
  O  O67  1  0.52179570  0.69782255  0.25532710  1
  O  O68  1  0.16379661  0.48238108  0.25477668  1
  O  O69  1  0.30217745  0.47820430  0.75532710  1
  O  O70  1  0.16126946  0.69450936  0.75475864  1
  O  O71  1  0.51761892  0.83620339  0.75477668  1
loop_
_geom_bond_atom_site_label_1
_geom_bond_atom_site_label_2
_geom_bond_distance
_geom_bond_site_symmetry_2
Na0 O37 2.390624 1_555
Na0 O36 2.414253 1_655
Na0 O38 2.484945 1_665
Na0 O43 2.581967 1_665
Na0 O44 2.583264 1_555
Na0 O42 2.691784 1_565
Na1 O39 2.390624 1_555
Na1 O40 2.414253 1_545
Na1 O41 2.484945 1_445
Na1 O45 2.581967 1_446
Na1 O47 2.583264 1_556
Na1 O46 2.691784 1_456
Na2 O49 2.390624 1_555
Na2 O48 2.414253 1_555
Na2 O50 2.484945 1_555
Na2 O55 2.581967 1_555
Na2 O56 2.583264 1_555
Na2 O54 2.691784 1_555
Na3 O51 2.390624 1_555
Na3 O52 2.414253 1_555
Na3 O53 2.484945 1_555
Na3 O57 2.581967 1_555
Na3 O59 2.583264 1_555
Na3 O58 2.691784 1_555
Na4 O61 2.390624 1_555
Na4 O60 2.414253 1_555
Na4 O62 2.484945 1_555
Na4 O67 2.581967 1_555
Na4 O68 2.583264 1_555
Na4 O66 2.691784 1_555
Na5 O63 2.390624 1_555
Na5 O64 2.414253 1_555
Na5 O65 2.484945 1_555
Na5 O69 2.581967 1_555
Na5 O71 2.583264 1_555
Na5 O70 2.691784 1_555
Na6 O52 2.308627 1_555
Na6 O67 2.414874 1_545
Na6 O53 2.458341 1_555
Na6 O16 2.555722 1_555
Na6 O66 2.601130 1_545
Na6 O31 2.715531 1_545
Na6 O2 2.815254 1_555
Na6 O9 2.887497 1_545
Na7 O51 2.311924 1_555
Na7 O68 2.444133 1_655
Na7 O66 2.483218 1_655
Na7 O52 2.516152 1_555
Na7 O15 2.565882 1_555
Na7 O30 2.651762 1_655
Na7 O1 2.869977 1_555
Na7 O11 2.904730 1_655
Na8 O48 2.308627 1_555
Na8 O69 2.414875 1_655
Na8 O50 2.458341 1_555
Na8 O12 2.555722 1_555
Na8 O70 2.601130 1_655
Na8 O33 2.715531 1_655
Na8 O5 2.815254 1_555
Na8 O7 2.887497 1_655
Na9 O49 2.311924 1_555
Na9 O71 2.444133 1_545
Na9 O70 2.483218 1_545
Na9 O48 2.516152 1_555
Na9 O13 2.565882 1_555
Na9 O34 2.651762 1_545
Na9 O3 2.869977 1_555
Na9 O8 2.904730 1_545
Na10 O64 2.308632 1_555
Na10 O43 2.414874 1_555
Na10 O65 2.458356 1_555
Na10 O28 2.555707 1_555
Na10 O42 2.601130 1_455
Na10 O7 2.715531 1_555
Na10 O14 2.815254 1_555
Na10 O21 2.887497 1_555
Na11 O63 2.311932 1_555
Na11 O44 2.444133 1_555
Na11 O42 2.483218 1_565
Na11 O64 2.516143 1_555
Na11 O27 2.565862 1_555
Na11 O6 2.651762 1_555
Na11 O13 2.869977 1_565
Na11 O23 2.904730 1_565
Na12 O60 2.308632 1_555
Na12 O45 2.414875 1_555
Na12 O62 2.458356 1_555
Na12 O24 2.555707 1_554
Na12 O46 2.601130 1_565
Na12 O9 2.715531 1_555
Na12 O17 2.815254 1_555
Na12 O19 2.887497 1_555
Na13 O61 2.311932 1_555
Na13 O47 2.444133 1_555
Na13 O46 2.483218 1_455
Na13 O60 2.516143 1_555
Na13 O25 2.565862 1_554
Na13 O10 2.651762 1_555
Na13 O15 2.869977 1_455
Na13 O20 2.904730 1_455
Na14 O40 2.308627 1_655
Na14 O55 2.414883 1_555
Na14 O41 2.458341 1_555
Na14 O4 2.555722 1_555
Na14 O54 2.601121 1_555
Na14 O19 2.715512 1_556
Na14 O26 2.815254 1_655
Na14 O33 2.887497 1_655
Na15 O39 2.311924 1_555
Na15 O56 2.444148 1_555
Na15 O54 2.483222 1_555
Na15 O40 2.516152 1_545
Na15 O3 2.565882 1_555
Na15 O18 2.651748 1_556
Na15 O25 2.869977 1_555
Na15 O35 2.904730 1_555
Na16 O36 2.308627 1_545
Na16 O57 2.414883 1_555
Na16 O38 2.458341 1_555
Na16 O0 2.555722 1_555
Na16 O58 2.601121 1_555
Na16 O21 2.715512 1_555
Na16 O29 2.815254 1_545
Na16 O31 2.887497 1_545
Na17 O37 2.311924 1_555
Na17 O59 2.444148 1_555
Na17 O58 2.483222 1_555
Na17 O36 2.516152 1_655
Na17 O1 2.565882 1_555
Na17 O22 2.651748 1_555
Na17 O27 2.869977 1_555
Na17 O32 2.904730 1_555
Nb0 O6 1.942690 1_555
Nb0 O8 1.967402 1_655
Nb0 O7 1.977765 1_665
Nb0 O44 2.005687 1_555
Nb0 O43 2.028484 1_665
Nb0 O42 2.103779 1_565
Nb1 O10 1.942690 1_555
Nb1 O11 1.967402 1_545
Nb1 O9 1.977765 1_445
Nb1 O47 2.005687 1_555
Nb1 O45 2.028484 1_445
Nb1 O46 2.103779 1_455
Nb2 O18 1.942690 1_556
Nb2 O20 1.967402 1_556
Nb2 O19 1.977765 1_556
Nb2 O56 2.005687 1_555
Nb2 O55 2.028484 1_555
Nb2 O54 2.103779 1_555
Nb3 O22 1.942690 1_555
Nb3 O23 1.967402 1_555
Nb3 O21 1.977765 1_555
Nb3 O59 2.005687 1_555
Nb3 O57 2.028484 1_555
Nb3 O58 2.103779 1_555
Nb4 O30 1.942690 1_555
Nb4 O32 1.967402 1_555
Nb4 O31 1.977765 1_555
Nb4 O68 2.005687 1_555
Nb4 O67 2.028484 1_555
Nb4 O66 2.103779 1_555
Nb5 O34 1.942690 1_555
Nb5 O35 1.967402 1_555
Nb5 O33 1.977765 1_555
Nb5 O71 2.005687 1_555
Nb5 O69 2.028484 1_555
Nb5 O70 2.103779 1_555
Al0 O2 1.828003 1_565
Al0 O1 1.870805 1_555
Al0 O37 1.905019 1_555
Al0 O36 1.965518 1_655
Al0 O0 2.077124 1_665
Al0 O38 2.130244 1_665
Al1 O5 1.828003 1_455
Al1 O3 1.870805 1_555
Al1 O39 1.905019 1_555
Al1 O40 1.965518 1_545
Al1 O4 2.077124 1_445
Al1 O41 2.130244 1_445
Al2 O14 1.828003 1_555
Al2 O13 1.870805 1_555
Al2 O49 1.905019 1_555
Al2 O48 1.965518 1_555
Al2 O12 2.077124 1_555
Al2 O50 2.130244 1_555
Al3 O17 1.828003 1_555
Al3 O15 1.870805 1_555
Al3 O51 1.905019 1_555
Al3 O52 1.965518 1_555
Al3 O16 2.077124 1_555
Al3 O53 2.130244 1_555
Al4 O26 1.828003 1_554
Al4 O25 1.870805 1_554
Al4 O61 1.905019 1_555
Al4 O60 1.965518 1_555
Al4 O24 2.077124 1_554
Al4 O62 2.130244 1_555
Al5 O29 1.828003 1_555
Al5 O27 1.870805 1_555
Al5 O63 1.905019 1_555
Al5 O64 1.965518 1_555
Al5 O28 2.077124 1_555
Al5 O65 2.130244 1_555
O0 P0 1.525667 1_555
O1 Si0 1.623344 1_555
O2 Si1 1.605225 1_555
O3 Si2 1.623344 1_555
O4 P1 1.525667 1_555
O5 Si3 1.605225 1_555
O6 Si3 1.673307 1_565
O7 Si2 1.679802 1_555
O8 P1 1.582311 1_455
O9 Si0 1.679802 1_555
O10 Si1 1.673307 1_455
O11 P0 1.582311 1_565
O12 P2 1.525667 1_555
O13 Si4 1.623344 1_555
O14 Si5 1.605225 1_555
O15 Si6 1.623344 1_555
O16 P3 1.525667 1_555
O17 Si7 1.605225 1_555
O18 Si7 1.673307 1_555
O19 Si6 1.679802 1_555
O20 P3 1.582311 1_555
O21 Si4 1.679802 1_555
O22 Si5 1.673307 1_555
O23 P2 1.582311 1_555
O24 P4 1.525667 1_555
O25 Si8 1.623344 1_555
O26 Si9 1.605225 1_555
O27 Si10 1.623344 1_555
O28 P5 1.525667 1_555
O29 Si11 1.605225 1_555
O30 Si11 1.673307 1_555
O31 Si10 1.679802 1_555
O32 P5 1.582311 1_555
O33 Si8 1.679802 1_555
O34 Si9 1.673307 1_555
O35 P4 1.582311 1_555
O36 Si11 1.637675 1_555
O37 Si10 1.618634 1_555
O38 P5 1.526150 1_555
O39 Si8 1.618634 1_555
O40 Si9 1.637675 1_555
O41 P4 1.526150 1_555
O42 P2 1.588752 1_555
O43 Si4 1.663236 1_555
O44 Si5 1.667333 1_555
O45 Si6 1.663236 1_555
O46 P3 1.588752 1_555
O47 Si7 1.667333 1_555
O48 Si3 1.637675 1_555
O49 Si2 1.618634 1_555
O50 P1 1.526150 1_555
O51 Si0 1.618634 1_555
O52 Si1 1.637675 1_555
O53 P0 1.526150 1_555
O54 P4 1.588766 1_555
O55 Si8 1.663222 1_655
O56 Si9 1.667330 1_545
O57 Si10 1.663222 1_545
O58 P5 1.588766 1_555
O59 Si11 1.667330 1_655
O60 Si7 1.637686 1_555
O61 Si6 1.618619 1_455
O62 P3 1.526145 1_565
O63 Si4 1.618619 1_565
O64 Si5 1.637686 1_555
O65 P2 1.526145 1_455
O66 P0 1.588752 1_565
O67 Si0 1.663236 1_555
O68 Si1 1.667333 1_455
O69 Si2 1.663236 1_555
O70 P1 1.588752 1_455
O71 Si3 1.667333 1_565
