# generated using pymatgen
data_K4Sb2O3
_symmetry_space_group_name_H-M   'P 1'
_cell_length_a   6.36970359
_cell_length_b   6.36970359
_cell_length_c   14.58473400
_cell_angle_alpha   90.00000000
_cell_angle_beta   90.00000000
_cell_angle_gamma   119.99999570
_symmetry_Int_Tables_number   1
_chemical_formula_structural   K4Sb2O3
_chemical_formula_sum   'K8 Sb4 O6'
_cell_volume   512.46901140
_cell_formula_units_Z   2
loop_
 _symmetry_equiv_pos_site_id
 _symmetry_equiv_pos_as_xyz
  1  'x, y, z'
loop_
 _atom_site_type_symbol
 _atom_site_label
 _atom_site_symmetry_multiplicity
 _atom_site_fract_x
 _atom_site_fract_y
 _atom_site_fract_z
 _atom_site_occupancy
  K  K0  1  0.00000000  0.00000000  0.26687600  1
  K  K1  1  0.33333300  0.66666700  0.39354500  1
  K  K2  1  0.33333300  0.66666700  0.05514100  1
  K  K3  1  0.66666700  0.33333300  0.55514100  1
  K  K4  1  0.00000000  0.00000000  0.50282200  1
  K  K5  1  0.00000000  0.00000000  0.00282200  1
  K  K6  1  0.66666700  0.33333300  0.89354500  1
  K  K7  1  0.00000000  0.00000000  0.76687600  1
  Sb  Sb0  1  0.33333300  0.66666700  0.64008000  1
  Sb  Sb1  1  0.66666700  0.33333300  0.14008000  1
  Sb  Sb2  1  0.66666700  0.33333300  0.32967900  1
  Sb  Sb3  1  0.33333300  0.66666700  0.82967900  1
  O  O0  1  0.82199800  0.64399600  0.39008500  1
  O  O1  1  0.17800200  0.82199800  0.89008500  1
  O  O2  1  0.64399600  0.82199800  0.89008500  1
  O  O3  1  0.35600400  0.17800200  0.39008500  1
  O  O4  1  0.82199800  0.17800200  0.39008500  1
  O  O5  1  0.17800200  0.35600400  0.89008500  1
loop_
_geom_bond_atom_site_label_1
_geom_bond_atom_site_label_2
_geom_bond_distance
_geom_bond_site_symmetry_2
K0 O4 2.661906 1_455
K0 O3 2.661907 1_555
K0 O0 2.661907 1_445
K1 O0 3.187703 1_455
K1 O3 3.187703 1_565
K1 O4 3.187706 1_455
K1 O4 3.187706 1_565
K1 O0 3.187709 1_555
K1 O3 3.187709 1_555
K1 Sb0 3.595647 1_555
K2 O1 2.954978 1_554
K2 O2 2.954981 1_554
K2 O5 2.954981 1_554
K2 Sb1 3.880593 1_455
K2 Sb1 3.880593 1_565
K2 Sb1 3.880604 1_555
K3 O4 2.954978 1_555
K3 O0 2.954981 1_555
K3 O3 2.954981 1_555
K3 Sb0 3.880593 1_545
K3 Sb0 3.880593 1_655
K3 Sb0 3.880604 1_555
K4 O4 2.561282 1_455
K4 O3 2.561282 1_555
K4 O0 2.561282 1_445
K5 O1 2.561282 1_544
K5 O2 2.561282 1_444
K5 O5 2.561282 1_554
K6 O5 3.187703 1_655
K6 O2 3.187703 1_545
K6 O1 3.187706 1_545
K6 O1 3.187706 1_655
K6 O5 3.187709 1_555
K6 O2 3.187709 1_555
K6 Sb1 3.595647 1_556
K7 O1 2.661906 1_545
K7 O5 2.661907 1_555
K7 O2 2.661907 1_445
Sb0 Sb3 2.765251 1_555
Sb1 Sb2 2.765251 1_555
O0 Sb2 1.926915 1_555
O1 Sb3 1.926910 1_555
O2 Sb3 1.926915 1_555
O3 Sb2 1.926915 1_555
O4 Sb2 1.926910 1_555
O5 Sb3 1.926915 1_555
