# generated using pymatgen
data_Na6Sc2Ga2Si3(SO8)3
_symmetry_space_group_name_H-M   'P 1'
_cell_length_a   9.07355758
_cell_length_b   8.94396828
_cell_length_c   22.30044169
_cell_angle_alpha   90.91503654
_cell_angle_beta   89.67970719
_cell_angle_gamma   119.89174184
_symmetry_Int_Tables_number   1
_chemical_formula_structural   Na6Sc2Ga2Si3(SO8)3
_chemical_formula_sum   'Na18 Sc6 Ga6 Si9 S9 O72'
_cell_volume   1568.80032164
_cell_formula_units_Z   3
loop_
 _symmetry_equiv_pos_site_id
 _symmetry_equiv_pos_as_xyz
  1  'x, y, z'
loop_
 _atom_site_type_symbol
 _atom_site_label
 _atom_site_symmetry_multiplicity
 _atom_site_fract_x
 _atom_site_fract_y
 _atom_site_fract_z
 _atom_site_occupancy
  Na  Na0  1  0.63392998  0.00157339  0.26121064  1
  Na  Na1  1  0.35571119  0.36012339  0.25547942  1
  Na  Na2  1  0.64133965  0.64488918  0.73682505  1
  Na  Na3  1  0.98771531  0.36429428  0.74499225  1
  Na  Na4  1  0.02681504  0.68925329  0.59072343  1
  Na  Na5  1  0.67612114  0.96492843  0.58184635  1
  Na  Na6  1  0.31258968  0.97063502  0.09680257  1
  Na  Na7  1  0.02362455  0.32636075  0.08277779  1
  Na  Na8  1  0.97187939  0.65600350  0.89911582  1
  Na  Na9  1  0.70987706  0.04188438  0.90961422  1
  Na  Na10  1  0.95818310  0.29229888  0.42119145  1
  Na  Na11  1  0.34370685  0.03416493  0.41457562  1
  Na  Na12  1  0.97746423  0.99217756  0.50386690  1
  Na  Na13  1  0.99092921  0.01196732  0.99980448  1
  Na  Na14  1  0.66166885  0.32407909  0.82117123  1
  Na  Na15  1  0.67838106  0.34381606  0.33780027  1
  Na  Na16  1  0.33074298  0.67429906  0.17484834  1
  Na  Na17  1  0.33243094  0.66447466  0.66376179  1
  Sc  Sc0  1  0.99524963  0.01460709  0.84499452  1
  Sc  Sc1  1  0.99947871  0.01040712  0.15369948  1
  Sc  Sc2  1  0.67799224  0.32827117  0.98194842  1
  Sc  Sc3  1  0.33670011  0.66106995  0.01915740  1
  Sc  Sc4  1  0.35293859  0.66236331  0.52238790  1
  Sc  Sc5  1  0.31649712  0.66786374  0.80711605  1
  Ga  Ga0  1  0.99066018  0.01005849  0.34640755  1
  Ga  Ga1  1  0.96755477  0.97904777  0.64703772  1
  Ga  Ga2  1  0.69398715  0.34944121  0.68253235  1
  Ga  Ga3  1  0.66170950  0.30387306  0.19448071  1
  Ga  Ga4  1  0.67956818  0.31260393  0.49244397  1
  Ga  Ga5  1  0.31970233  0.68816714  0.31494454  1
  Si  Si0  1  0.28710952  0.00025724  0.25099839  1
  Si  Si1  1  0.00722329  0.31325903  0.25216779  1
  Si  Si2  1  0.99756741  0.71311056  0.74682995  1
  Si  Si3  1  0.69556675  0.00463476  0.74696918  1
  Si  Si4  1  0.97035251  0.32715076  0.58481965  1
  Si  Si5  1  0.66691707  0.60851082  0.58397326  1
  Si  Si6  1  0.66476333  0.03116992  0.08487736  1
  Si  Si7  1  0.03979683  0.36849621  0.91838800  1
  Si  Si8  1  0.63282215  0.96150088  0.41552424  1
  S  S0  1  0.70824743  0.70090160  0.24988759  1
  S  S1  1  0.29412250  0.28741230  0.74777808  1
  S  S2  1  0.37626281  0.04868561  0.58207141  1
  S  S3  1  0.95665903  0.62826658  0.08452464  1
  S  S4  1  0.38033461  0.33619836  0.08627731  1
  S  S5  1  0.62779670  0.66376700  0.91593799  1
  S  S6  1  0.33113750  0.96286883  0.91923749  1
  S  S7  1  0.33445575  0.37082696  0.41257722  1
  S  S8  1  0.03821701  0.67001454  0.41604673  1
  O  O0  1  0.18709465  0.02565854  0.30851561  1
  O  O1  1  0.81162380  0.77821796  0.30486777  1
  O  O2  1  0.95911411  0.17764114  0.30749047  1
  O  O3  1  0.21374769  0.19208330  0.80393044  1
  O  O4  1  0.97969951  0.80106614  0.80990336  1
  O  O5  1  0.81710617  0.04884218  0.80787321  1
  O  O6  1  0.78233641  0.96275616  0.68966746  1
  O  O7  1  0.18485999  0.20660512  0.69550042  1
  O  O8  1  0.02262093  0.83214046  0.68894211  1
  O  O9  1  0.79018066  0.81322854  0.19752635  1
  O  O10  1  0.04561545  0.23233846  0.19093568  1
  O  O11  1  0.18490490  0.97745295  0.18859096  1
  O  O12  1  0.88486884  0.36958754  0.64259866  1
  O  O13  1  0.49005423  0.13493401  0.63325137  1
  O  O14  1  0.63980215  0.50312824  0.64592538  1
  O  O15  1  0.86489945  0.51899775  0.13574694  1
  O  O16  1  0.62875169  0.12400722  0.14353694  1
  O  O17  1  0.47485758  0.35377558  0.14209644  1
  O  O18  1  0.47087481  0.32503994  0.03255405  1
  O  O19  1  0.86497947  0.55156323  0.02698446  1
  O  O20  1  0.69177614  0.14727020  0.02455951  1
  O  O21  1  0.45120807  0.13946585  0.52390266  1
  O  O22  1  0.69240745  0.50671134  0.52633745  1
  O  O23  1  0.84775448  0.27615316  0.52388488  1
  O  O24  1  0.54305708  0.68972974  0.96945798  1
  O  O25  1  0.14176951  0.45935292  0.98117740  1
  O  O26  1  0.31501187  0.86258448  0.97443346  1
  O  O27  1  0.54372020  0.85325796  0.47529316  1
  O  O28  1  0.30858170  0.45730405  0.46562875  1
  O  O29  1  0.14213040  0.69367990  0.46995759  1
  O  O30  1  0.11806238  0.63482109  0.36212071  1
  O  O31  1  0.50667735  0.87336929  0.35602990  1
  O  O32  1  0.35127158  0.46917168  0.35754406  1
  O  O33  1  0.13381196  0.49194938  0.86145898  1
  O  O34  1  0.36138620  0.87940389  0.86662423  1
  O  O35  1  0.53316178  0.64944437  0.86080654  1
  O  O36  1  0.03000179  0.83077626  0.40861018  1
  O  O37  1  0.82677155  0.98815823  0.40690387  1
  O  O38  1  0.17414178  0.19477381  0.41103321  1
  O  O39  1  0.00869198  0.17243584  0.91618547  1
  O  O40  1  0.17353128  0.97126117  0.91418427  1
  O  O41  1  0.80252892  0.81958861  0.91498938  1
  O  O42  1  0.98425295  0.15242908  0.59274446  1
  O  O43  1  0.20538787  0.02790176  0.58629150  1
  O  O44  1  0.84299731  0.80181486  0.58468693  1
  O  O45  1  0.98599818  0.80619964  0.08759795  1
  O  O46  1  0.84035771  0.02322009  0.08946747  1
  O  O47  1  0.20886428  0.17427684  0.08561666  1
  O  O48  1  0.67864637  0.17655237  0.73859970  1
  O  O49  1  0.46550079  0.30921184  0.74504062  1
  O  O50  1  0.82070889  0.52285488  0.74635751  1
  O  O51  1  0.68352389  0.52501884  0.24151025  1
  O  O52  1  0.83407958  0.32773997  0.24580020  1
  O  O53  1  0.47885322  0.18133053  0.24978834  1
  O  O54  1  0.64700273  0.50984256  0.92231471  1
  O  O55  1  0.84656742  0.35196213  0.91914572  1
  O  O56  1  0.48279253  0.13849155  0.92377194  1
  O  O57  1  0.64918097  0.15948946  0.42221942  1
  O  O58  1  0.48203242  0.34556124  0.41825883  1
  O  O59  1  0.86695365  0.51408478  0.41938191  1
  O  O60  1  0.34961870  0.48490617  0.08333069  1
  O  O61  1  0.12949462  0.64092529  0.08260993  1
  O  O62  1  0.48844095  0.84451624  0.08022320  1
  O  O63  1  0.35672236  0.87052585  0.57817202  1
  O  O64  1  0.51073516  0.65293617  0.58129994  1
  O  O65  1  0.14853831  0.50717475  0.57503073  1
  O  O66  1  0.32772961  0.84126597  0.25503663  1
  O  O67  1  0.53639943  0.68417445  0.25469461  1
  O  O68  1  0.18671182  0.49543400  0.26244616  1
  O  O69  1  0.31427592  0.46596197  0.75379953  1
  O  O70  1  0.15605351  0.67214904  0.74826711  1
  O  O71  1  0.51632997  0.82559089  0.75648912  1
loop_
_geom_bond_atom_site_label_1
_geom_bond_atom_site_label_2
_geom_bond_distance
_geom_bond_site_symmetry_2
Na0 O66 2.412734 1_545
Na0 O31 2.418608 1_545
Na0 O67 2.519397 1_545
Na0 O52 2.582811 1_555
Na0 O53 2.627085 1_555
Na0 O2 2.757140 1_555
Na0 O16 2.869158 1_555
Na1 O53 2.365282 1_555
Na1 O68 2.383522 1_555
Na1 O32 2.469956 1_555
Na1 O67 2.520617 1_555
Na1 O51 2.598324 1_555
Na1 O17 2.755223 1_555
Na1 O10 2.842926 1_555
Na1 O0 2.866938 1_555
Na2 O14 2.370131 1_555
Na2 O50 2.380580 1_555
Na2 O71 2.426929 1_555
Na2 O69 2.604675 1_555
Na2 O49 2.613953 1_555
Na2 O6 2.698232 1_555
Na2 O35 2.935198 1_555
Na3 O70 2.392222 1_655
Na3 O48 2.451038 1_555
Na3 O12 2.481613 1_555
Na3 O50 2.539377 1_555
Na3 O69 2.638268 1_655
Na3 O5 2.841095 1_555
Na3 O33 2.870856 1_655
Na3 O7 2.974878 1_655
Na4 O44 2.343920 1_455
Na4 O65 2.400947 1_555
Na4 O8 2.527908 1_555
Na4 O63 2.614453 1_555
Na4 O43 2.631599 1_565
Na4 O12 2.755017 1_455
Na4 O29 2.877486 1_555
Na5 O64 2.421579 1_555
Na5 O42 2.451422 1_565
Na5 O44 2.575035 1_555
Na5 O63 2.584571 1_555
Na5 O6 2.599361 1_555
Na5 O27 2.616716 1_555
Na5 O23 2.759708 1_565
Na6 O11 2.361307 1_555
Na6 O62 2.393542 1_555
Na6 O47 2.447672 1_565
Na6 O45 2.576772 1_455
Na6 O61 2.578618 1_555
Na6 O16 2.694974 1_565
Na6 O26 2.884007 1_554
Na7 O46 2.377991 1_455
Na7 O61 2.478875 1_555
Na7 O25 2.546677 1_554
Na7 O60 2.565043 1_555
Na7 O10 2.608062 1_555
Na7 O47 2.638558 1_555
Na7 O20 2.913367 1_455
Na7 O15 2.971068 1_455
Na8 O4 2.373920 1_555
Na8 O55 2.416283 1_555
Na8 O40 2.499111 1_655
Na8 O54 2.613363 1_555
Na8 O41 2.616367 1_555
Na8 O33 2.666966 1_655
Na9 O39 2.362114 1_655
Na9 O55 2.414642 1_555
Na9 O5 2.453111 1_555
Na9 O41 2.519681 1_545
Na9 O56 2.617310 1_555
Na9 O20 2.749272 1_556
Na9 O34 2.904962 1_545
Na10 O37 2.380453 1_545
Na10 O57 2.439907 1_555
Na10 O23 2.471863 1_555
Na10 O59 2.502251 1_555
Na10 O38 2.518767 1_655
Na10 O2 2.721440 1_555
Na10 O28 2.929186 1_655
Na10 O30 2.983748 1_655
Na11 O58 2.418387 1_555
Na11 O57 2.422914 1_555
Na11 O36 2.502892 1_545
Na11 O38 2.577738 1_555
Na11 O21 2.611530 1_555
Na11 O0 2.746504 1_555
Na11 O31 2.828000 1_545
Na11 O29 2.947479 1_545
Na12 O44 2.374601 1_555
Na12 O42 2.410206 1_565
Na12 O37 2.555006 1_555
Na12 O43 2.668855 1_665
Na12 O36 2.720345 1_655
Na12 O38 2.758509 1_665
Na13 O39 2.326944 1_655
Na13 O46 2.444353 1_556
Na13 O41 2.541802 1_545
Na13 O47 2.602325 1_656
Na13 O40 2.658395 1_645
Na13 O45 2.693351 1_546
Na14 O48 2.297227 1_555
Na14 O50 2.353152 1_555
Na14 O49 2.420513 1_555
Na14 O55 2.693894 1_555
Na14 O54 2.821874 1_555
Na14 O56 2.831814 1_555
Na15 O59 2.430185 1_555
Na15 O57 2.447535 1_555
Na15 O58 2.526803 1_555
Na15 O52 2.527129 1_555
Na15 O53 2.562820 1_555
Na15 O51 2.697100 1_555
Na16 O66 2.320231 1_555
Na16 O68 2.463866 1_555
Na16 O67 2.555054 1_555
Na16 O62 2.591453 1_555
Na16 O61 2.670898 1_555
Na16 O60 2.690495 1_555
Na17 O64 2.477272 1_555
Na17 O70 2.487750 1_555
Na17 O65 2.507399 1_555
Na17 O71 2.585273 1_555
Na17 O63 2.605915 1_555
Na17 O69 2.651365 1_555
Ga0 O2 1.885108 1_555
Ga0 O0 1.910331 1_655
Ga0 O37 1.940473 1_545
Ga0 O1 2.096383 1_545
Ga0 O38 2.188012 1_655
Ga0 O36 2.295626 1_645
Ga1 O6 1.868650 1_555
Ga1 O8 1.883646 1_655
Ga1 O42 1.928046 1_565
Ga1 O44 1.971021 1_555
Ga1 O7 2.269745 1_665
Ga1 O43 2.393607 1_665
Ga2 O12 1.871387 1_555
Ga2 O14 1.873906 1_555
Ga2 O48 1.954238 1_555
Ga2 O50 1.980863 1_555
Ga2 O13 2.174743 1_555
Ga2 O49 2.368731 1_555
Ga3 O16 1.853096 1_555
Ga3 O52 1.865716 1_555
Ga3 O53 1.919135 1_555
Ga3 O51 2.144093 1_555
Ga3 O17 2.287209 1_555
Ga3 O15 2.309641 1_555
Ga4 O22 1.832037 1_555
Ga4 O23 1.855226 1_555
Ga4 O57 1.990948 1_555
Ga4 O21 2.000950 1_555
Ga4 O59 2.408691 1_555
Ga5 O66 1.903437 1_555
Ga5 O31 1.905093 1_555
Ga5 O68 1.917361 1_555
Ga5 O30 1.950971 1_555
Ga5 O32 2.332956 1_555
Ga5 O67 2.389864 1_555
O0 Si0 1.644246 1_555
O1 S0 1.483430 1_555
O2 Si1 1.642534 1_655
O3 S1 1.493654 1_555
O3 Sc0 2.044067 1_455
O4 Si2 1.647056 1_555
O4 Sc0 1.991212 1_565
O5 Si3 1.667977 1_555
O5 Sc0 1.976904 1_555
O6 Si3 1.631091 1_565
O7 S1 1.461568 1_555
O8 Si2 1.628168 1_455
O9 S0 1.486204 1_555
O9 Sc1 2.089976 1_565
O10 Si1 1.650508 1_555
O10 Sc1 1.981871 1_455
O11 Si0 1.629509 1_565
O11 Sc1 2.009791 1_465
O12 Si4 1.634792 1_555
O13 S2 1.467973 1_555
O14 Si5 1.632260 1_555
O15 S3 1.472112 1_555
O16 Si6 1.654809 1_555
O17 S4 1.476853 1_555
O18 S4 1.478880 1_555
O18 Sc2 2.174706 1_554
O19 S3 1.491363 1_555
O19 Sc2 2.110314 1_554
O20 Si6 1.653760 1_555
O20 Sc2 1.947205 1_554
O21 S2 1.509244 1_555
O22 Si5 1.644290 1_555
O23 Si4 1.668350 1_555
O24 S5 1.492799 1_555
O24 Sc3 2.075432 1_556
O25 Si7 1.644937 1_555
O25 Sc3 1.971810 1_556
O26 S6 1.497816 1_555
O26 Sc3 2.166799 1_556
O27 Si8 1.617550 1_555
O27 Sc4 2.026259 1_555
O28 S7 1.483798 1_555
O28 Sc4 2.079338 1_555
O29 S8 1.478105 1_555
O29 Sc4 2.381958 1_555
O30 S8 1.508511 1_555
O31 Si8 1.666128 1_555
O32 S7 1.483831 1_555
O33 Si7 1.628634 1_555
O33 Sc5 2.032421 1_555
O34 S6 1.477118 1_555
O34 Sc5 2.159729 1_555
O35 S5 1.470520 1_555
O35 Sc5 2.383481 1_555
O36 S8 1.488303 1_555
O37 Si8 1.664396 1_555
O38 S7 1.520649 1_555
O39 Si7 1.631302 1_555
O39 Sc0 2.070495 1_455
O40 S6 1.473918 1_555
O40 Sc0 2.412450 1_465
O41 S5 1.501533 1_555
O41 Sc0 2.356479 1_565
O42 Si4 1.641557 1_555
O43 S2 1.469335 1_555
O44 Si5 1.669776 1_555
O45 S3 1.477383 1_555
O45 Sc1 2.284096 1_565
O46 Si6 1.633707 1_555
O46 Sc1 2.083921 1_555
O47 S4 1.507303 1_555
O47 Sc1 2.307856 1_455
O48 Si3 1.633243 1_555
O49 S1 1.468647 1_555
O50 Si2 1.657934 1_555
O51 S0 1.482964 1_555
O52 Si1 1.646500 1_655
O53 Si0 1.686096 1_555
O54 S5 1.480384 1_555
O54 Sc2 2.239009 1_555
O55 Si7 1.684476 1_655
O55 Sc2 2.002115 1_555
O56 S6 1.487666 1_545
O56 Sc2 2.158731 1_555
O57 Si8 1.705840 1_545
O58 S7 1.471249 1_555
O59 S8 1.485681 1_655
O60 S4 1.491128 1_555
O60 Sc3 2.191408 1_555
O61 S3 1.515398 1_455
O61 Sc3 2.282597 1_555
O62 Si6 1.640592 1_565
O62 Sc3 2.034734 1_555
O63 S2 1.514017 1_565
O63 Sc4 2.208581 1_555
O64 Si5 1.653062 1_555
O64 Sc4 1.981909 1_555
O65 Si4 1.633011 1_455
O65 Sc4 2.050926 1_555
O66 Si0 1.641014 1_565
O67 S0 1.493765 1_555
O68 Si1 1.645314 1_555
O69 S1 1.517912 1_555
O69 Sc5 2.137855 1_555
O70 Si2 1.652024 1_455
O70 Sc5 1.980320 1_555
O71 Si3 1.632648 1_565
O71 Sc5 2.007707 1_555
