# generated using pymatgen
data_MgCo4(SbS)4
_symmetry_space_group_name_H-M   'P 1'
_cell_length_a   6.09156631
_cell_length_b   6.09156631
_cell_length_c   6.09156631
_cell_angle_alpha   89.64798782
_cell_angle_beta   90.35201218
_cell_angle_gamma   90.35201218
_symmetry_Int_Tables_number   1
_chemical_formula_structural   MgCo4(SbS)4
_chemical_formula_sum   'Mg1 Co4 Sb4 S4'
_cell_volume   226.02810199
_cell_formula_units_Z   1
loop_
 _symmetry_equiv_pos_site_id
 _symmetry_equiv_pos_as_xyz
  1  'x, y, z'
loop_
 _atom_site_type_symbol
 _atom_site_label
 _atom_site_symmetry_multiplicity
 _atom_site_fract_x
 _atom_site_fract_y
 _atom_site_fract_z
 _atom_site_occupancy
  Mg  Mg0  1  0.29420300  0.70579700  0.20579700  1
  Co  Co0  1  0.48669700  0.96745900  0.53141300  1
  Co  Co1  1  0.96858700  0.51330300  0.46745900  1
  Co  Co2  1  0.52853500  0.47146500  0.97146500  1
  Co  Co3  1  0.03254100  0.03141300  0.01330300  1
  Sb  Sb0  1  0.11969700  0.62135000  0.82358600  1
  Sb  Sb1  1  0.67641400  0.88030300  0.12135000  1
  Sb  Sb2  1  0.84800100  0.15199900  0.65199900  1
  Sb  Sb3  1  0.37865000  0.32358600  0.38030300  1
  S  S0  1  0.88469000  0.38944700  0.11253500  1
  S  S1  1  0.38746500  0.11531000  0.88944700  1
  S  S2  1  0.08604900  0.91395100  0.41395100  1
  S  S3  1  0.61055300  0.61253500  0.61531000  1
loop_
_geom_bond_atom_site_label_1
_geom_bond_atom_site_label_2
_geom_bond_distance
_geom_bond_site_symmetry_2
Mg0 S2 2.209664 1_555
Mg0 Sb1 2.606342 1_555
Mg0 Sb0 2.606342 1_554
Mg0 Sb3 2.606342 1_555
Co0 S3 2.346611 1_555
Co0 Sb3 2.443817 1_565
Co0 S1 2.445463 1_565
Co0 S2 2.558565 1_555
Co0 Sb2 2.570435 1_565
Co0 Mg0 2.799501 1_555
Co0 Sb1 2.813609 1_555
Co1 S0 2.346611 1_555
Co1 Sb0 2.443817 1_655
Co1 S3 2.445463 1_555
Co1 S2 2.558565 1_655
Co1 Sb2 2.570435 1_555
Co1 Mg0 2.799501 1_655
Co1 Sb3 2.813609 1_655
Co2 S1 2.383301 1_555
Co2 S3 2.383301 1_555
Co2 S0 2.383301 1_556
Co2 Mg0 2.487558 1_556
Co2 Sb0 2.799603 1_555
Co2 Sb3 2.799603 1_556
Co2 Sb1 2.799603 1_556
Co3 S1 2.346611 1_554
Co3 Sb1 2.443817 1_445
Co3 S0 2.445463 1_455
Co3 S2 2.558565 1_545
Co3 Sb2 2.570435 1_454
Co3 Mg0 2.799501 1_545
Co3 Sb0 2.813609 1_544
S0 Sb0 2.668080 1_654
S1 Sb1 2.668080 1_546
S2 Sb2 2.527005 1_465
S2 Sb1 3.064168 1_455
S2 Sb0 3.064168 1_555
S2 Sb3 3.064168 1_565
S3 Sb3 2.668080 1_555
