# generated using pymatgen
data_UWC2
_symmetry_space_group_name_H-M   'P 1'
_cell_length_a   3.93491500
_cell_length_b   5.27857400
_cell_length_c   10.66280400
_cell_angle_alpha   90.00000000
_cell_angle_beta   90.00000000
_cell_angle_gamma   90.00000000
_symmetry_Int_Tables_number   1
_chemical_formula_structural   UWC2
_chemical_formula_sum   'U4 W4 C8'
_cell_volume   221.47432967
_cell_formula_units_Z   4
loop_
 _symmetry_equiv_pos_site_id
 _symmetry_equiv_pos_as_xyz
  1  'x, y, z'
loop_
 _atom_site_type_symbol
 _atom_site_label
 _atom_site_symmetry_multiplicity
 _atom_site_fract_x
 _atom_site_fract_y
 _atom_site_fract_z
 _atom_site_occupancy
  U  U0  1  0.25000000  0.12018700  0.87052500  1
  U  U1  1  0.75000000  0.87981300  0.12947500  1
  U  U2  1  0.25000000  0.62018700  0.62947500  1
  U  U3  1  0.75000000  0.37981300  0.37052500  1
  W  W0  1  0.25000000  0.40313400  0.10491200  1
  W  W1  1  0.75000000  0.59686600  0.89508800  1
  W  W2  1  0.25000000  0.90313400  0.39508800  1
  W  W3  1  0.75000000  0.09686600  0.60491200  1
  C  C0  1  0.75000000  0.85997100  0.34350400  1
  C  C1  1  0.25000000  0.14002900  0.65649600  1
  C  C2  1  0.75000000  0.35997100  0.15649600  1
  C  C3  1  0.25000000  0.64002900  0.84350400  1
  C  C4  1  0.75000000  0.76623400  0.48862900  1
  C  C5  1  0.25000000  0.23376600  0.51137100  1
  C  C6  1  0.75000000  0.26623400  0.01137100  1
  C  C7  1  0.25000000  0.73376600  0.98862900  1
loop_
_geom_bond_atom_site_label_1
_geom_bond_atom_site_label_2
_geom_bond_distance
_geom_bond_site_symmetry_2
U0 W0 2.911499 1_556
U1 W1 2.911499 1_554
U2 W2 2.911499 1_555
U3 W3 2.911499 1_555
C0 C4 1.624621 1_555
C0 W2 2.055561 1_655
C0 W2 2.055561 1_555
C0 U1 2.284551 1_555
C0 U3 2.550873 1_555
C0 U3 2.759109 1_565
C1 C5 1.624621 1_555
C1 W3 2.055561 1_455
C1 W3 2.055561 1_555
C1 U0 2.284551 1_555
C1 U2 2.550873 1_555
C1 U2 2.759109 1_545
C2 C6 1.624621 1_555
C2 W0 2.055561 1_555
C2 W0 2.055561 1_655
C2 U3 2.284551 1_555
C2 U1 2.550873 1_545
C2 U1 2.759109 1_555
C3 C7 1.624621 1_555
C3 W1 2.055561 1_555
C3 W1 2.055561 1_455
C3 U2 2.284551 1_555
C3 U0 2.550873 1_565
C3 U0 2.759109 1_555
C4 W3 2.140867 1_565
C4 W2 2.321189 1_555
C4 W2 2.321189 1_655
C4 U3 2.397180 1_555
C4 U2 2.592422 1_555
C4 U2 2.592422 1_655
C5 W2 2.140867 1_545
C5 W3 2.321189 1_455
C5 W3 2.321189 1_555
C5 U2 2.397180 1_555
C5 U3 2.592422 1_455
C5 U3 2.592422 1_555
C6 W1 2.140867 1_554
C6 W0 2.321189 1_655
C6 W0 2.321189 1_555
C6 U1 2.397180 1_545
C6 U0 2.592422 1_654
C6 U0 2.592422 1_554
C7 W0 2.140867 1_556
C7 W1 2.321189 1_455
C7 W1 2.321189 1_555
C7 U0 2.397180 1_565
C7 U1 2.592422 1_556
C7 U1 2.592422 1_456
