# generated using pymatgen
data_Na4Mg(CuO2)4
_symmetry_space_group_name_H-M   'P 1'
_cell_length_a   5.54088329
_cell_length_b   5.65698014
_cell_length_c   8.88230774
_cell_angle_alpha   89.82259415
_cell_angle_beta   69.36656487
_cell_angle_gamma   75.23025880
_symmetry_Int_Tables_number   1
_chemical_formula_structural   Na4Mg(CuO2)4
_chemical_formula_sum   'Na4 Mg1 Cu4 O8'
_cell_volume   250.78467158
_cell_formula_units_Z   1
loop_
 _symmetry_equiv_pos_site_id
 _symmetry_equiv_pos_as_xyz
  1  'x, y, z'
loop_
 _atom_site_type_symbol
 _atom_site_label
 _atom_site_symmetry_multiplicity
 _atom_site_fract_x
 _atom_site_fract_y
 _atom_site_fract_z
 _atom_site_occupancy
  Na  Na0  1  0.41775574  0.01779720  0.44460428  1
  Na  Na1  1  0.62074004  0.21658760  0.09552234  1
  Na  Na2  1  0.44685239  0.50723626  0.44934006  1
  Na  Na3  1  0.43805586  0.80750300  0.82702041  1
  Mg  Mg0  1  0.60960709  0.71620002  0.10167205  1
  Cu  Cu0  1  0.04412196  0.35735312  0.24696969  1
  Cu  Cu1  1  0.03124135  0.85955550  0.25272480  1
  Cu  Cu2  1  0.96958055  0.13238943  0.77275115  1
  Cu  Cu3  1  0.99426603  0.62169871  0.77117949  1
  O  O0  1  0.29443525  0.02594105  0.21331478  1
  O  O1  1  0.18593983  0.32780774  0.64929958  1
  O  O2  1  0.29404229  0.56148480  0.21705571  1
  O  O3  1  0.21027012  0.81635988  0.65950182  1
  O  O4  1  0.78817306  0.16708472  0.29598389  1
  O  O5  1  0.75266828  0.45956315  0.89685931  1
  O  O6  1  0.78390531  0.67655932  0.26859948  1
  O  O7  1  0.77310685  0.90744949  0.90241618  1
loop_
_geom_bond_atom_site_label_1
_geom_bond_atom_site_label_2
_geom_bond_distance
_geom_bond_site_symmetry_2
Na0 O1 2.292690 1_555
Na0 O3 2.317669 1_545
Na0 O4 2.373962 1_555
Na0 O0 2.379544 1_555
Na0 O6 2.464325 1_545
Na1 O7 2.226713 1_544
Na1 O2 2.254747 1_555
Na1 O5 2.263974 1_554
Na1 O4 2.266748 1_555
Na1 O0 2.276125 1_555
Na2 O1 2.280833 1_555
Na2 O3 2.321169 1_555
Na2 O4 2.340937 1_555
Na2 O6 2.402523 1_555
Na2 O2 2.482490 1_555
Na3 O3 2.258396 1_555
Na3 O7 2.372428 1_555
Na3 O5 2.510565 1_555
Mg0 O6 2.019433 1_555
Mg0 O0 2.081668 1_565
Mg0 O2 2.094138 1_555
Mg0 O5 2.111594 1_554
Mg0 O7 2.116944 1_554
Cu0 O4 1.923421 1_455
Cu0 O6 1.963652 1_455
Cu0 O2 1.968710 1_555
Cu0 O0 1.978213 1_555
Cu1 O4 1.852790 1_465
Cu1 O0 1.863660 1_565
Cu1 O2 1.868212 1_555
Cu1 O6 1.885724 1_455
Cu2 O1 1.898259 1_655
Cu2 O3 1.958721 1_645
Cu2 O7 1.986048 1_545
Cu2 O5 2.007469 1_555
Cu3 O1 1.834256 1_655
Cu3 O5 1.856325 1_555
Cu3 O3 1.859453 1_655
Cu3 O7 1.862375 1_555
