# generated using pymatgen
data_Na14Ti3Zn5Si6(SO8)6
_symmetry_space_group_name_H-M   'P 1'
_cell_length_a   18.21462769
_cell_length_b   9.04625785
_cell_length_c   21.98982389
_cell_angle_alpha   90.03891460
_cell_angle_beta   90.25371824
_cell_angle_gamma   119.89086326
_symmetry_Int_Tables_number   1
_chemical_formula_structural   Na14Ti3Zn5Si6(SO8)6
_chemical_formula_sum   'Na42 Ti9 Zn15 Si18 S18 O144'
_cell_volume   3141.31536452
_cell_formula_units_Z   3
loop_
 _symmetry_equiv_pos_site_id
 _symmetry_equiv_pos_as_xyz
  1  'x, y, z'
loop_
 _atom_site_type_symbol
 _atom_site_label
 _atom_site_symmetry_multiplicity
 _atom_site_fract_x
 _atom_site_fract_y
 _atom_site_fract_z
 _atom_site_occupancy
  Na  Na0  1  0.19285198  0.35919750  0.24801741  1
  Na  Na1  1  0.68727056  0.35456294  0.24571483  1
  Na  Na2  1  0.99639768  0.63673741  0.25293497  1
  Na  Na3  1  0.49401436  0.62885223  0.24261660  1
  Na  Na4  1  0.32105291  0.63474638  0.74819572  1
  Na  Na5  1  0.81949479  0.62958225  0.73698777  1
  Na  Na6  1  0.18799052  0.02425329  0.74693692  1
  Na  Na7  1  0.69099210  0.02619112  0.74656217  1
  Na  Na8  1  0.15276161  0.32762401  0.57507950  1
  Na  Na9  1  0.66279576  0.34710211  0.57584471  1
  Na  Na10  1  0.01028436  0.69295578  0.57797616  1
  Na  Na11  1  0.51691085  0.69407968  0.58017348  1
  Na  Na12  1  0.32290239  0.96791309  0.59072898  1
  Na  Na13  1  0.82227421  0.96060073  0.58990288  1
  Na  Na14  1  0.15603995  0.97539751  0.07612074  1
  Na  Na15  1  0.64801768  0.96332159  0.07181165  1
  Na  Na16  1  0.82094035  0.67670271  0.08814285  1
  Na  Na17  1  0.01773578  0.33959971  0.07916832  1
  Na  Na18  1  0.51914339  0.34724394  0.08892726  1
  Na  Na19  1  0.48973011  0.67594704  0.92061038  1
  Na  Na20  1  0.98744120  0.67728339  0.91756659  1
  Na  Na21  1  0.85036722  0.03666272  0.90812620  1
  Na  Na22  1  0.16267637  0.28368357  0.90685461  1
  Na  Na23  1  0.66344835  0.28103871  0.91525334  1
  Na  Na24  1  0.48800891  0.30166867  0.41812860  1
  Na  Na25  1  0.98314533  0.29444739  0.42161978  1
  Na  Na26  1  0.16415691  0.04947532  0.41443443  1
  Na  Na27  1  0.66623399  0.04967362  0.41446175  1
  Na  Na28  1  0.35322545  0.66311177  0.40627698  1
  Na  Na29  1  0.85263275  0.66175512  0.41519279  1
  Na  Na30  1  0.00329462  0.99683927  0.49901195  1
  Na  Na31  1  0.51115494  0.01306955  0.49625557  1
  Na  Na32  1  0.00606452  0.00527415  0.99528441  1
  Na  Na33  1  0.49629962  0.99779146  0.99769629  1
  Na  Na34  1  0.33670404  0.30801438  0.83103071  1
  Na  Na35  1  0.83213465  0.32200447  0.82688896  1
  Na  Na36  1  0.32737578  0.32255005  0.32583233  1
  Na  Na37  1  0.82288643  0.31962600  0.32918338  1
  Na  Na38  1  0.18852825  0.68037924  0.16128653  1
  Na  Na39  1  0.66452316  0.67069761  0.16136026  1
  Na  Na40  1  0.15880848  0.66077239  0.66429333  1
  Na  Na41  1  0.66780005  0.66563597  0.66139261  1
  Ti  Ti0  1  0.00013274  0.00852825  0.64949889  1
  Ti  Ti1  1  0.50575632  0.02177373  0.65426377  1
  Ti  Ti2  1  0.00583575  0.99387122  0.15285261  1
  Ti  Ti3  1  0.50245001  0.97422488  0.14783500  1
  Ti  Ti4  1  0.32180229  0.32271120  0.98628319  1
  Ti  Ti5  1  0.17812331  0.67456105  0.30935409  1
  Ti  Ti6  1  0.67681844  0.66887214  0.30820056  1
  Ti  Ti7  1  0.17570434  0.68588685  0.80960024  1
  Ti  Ti8  1  0.67459734  0.68300742  0.80916472  1
  Zn  Zn0  1  0.00992226  0.00777188  0.34454271  1
  Zn  Zn1  1  0.51079540  0.00835952  0.34312837  1
  Zn  Zn2  1  0.00927934  0.01723544  0.84222824  1
  Zn  Zn3  1  0.50708524  0.01520856  0.84776322  1
  Zn  Zn4  1  0.32261536  0.30104539  0.68605426  1
  Zn  Zn5  1  0.82045142  0.31414513  0.68116184  1
  Zn  Zn6  1  0.32702488  0.34846596  0.18273717  1
  Zn  Zn7  1  0.81941912  0.33108688  0.18496249  1
  Zn  Zn8  1  0.81009783  0.29302177  0.98427279  1
  Zn  Zn9  1  0.31318163  0.32585344  0.48305171  1
  Zn  Zn10  1  0.80769076  0.34555329  0.49119006  1
  Zn  Zn11  1  0.17192578  0.66884501  0.01410364  1
  Zn  Zn12  1  0.65406985  0.65757886  0.01850001  1
  Zn  Zn13  1  0.16405664  0.66622677  0.51398959  1
  Zn  Zn14  1  0.67363023  0.66684029  0.51852691  1
  Si  Si0  1  0.15524409  0.00052902  0.25351300  1
  Si  Si1  1  0.65163421  0.99437628  0.25241376  1
  Si  Si2  1  0.35949818  0.71771881  0.25491615  1
  Si  Si3  1  0.85832382  0.71204536  0.25352563  1
  Si  Si4  1  0.14922079  0.30410203  0.75094153  1
  Si  Si5  1  0.65051230  0.30574027  0.75688154  1
  Si  Si6  1  0.35899551  0.00622279  0.75323730  1
  Si  Si7  1  0.85899795  0.01271205  0.75439027  1
  Si  Si8  1  0.17976610  0.02246104  0.58250335  1
  Si  Si9  1  0.67682164  0.02405821  0.58346268  1
  Si  Si10  1  0.83786081  0.63762135  0.58552360  1
  Si  Si11  1  0.47405418  0.61778748  0.08538445  1
  Si  Si12  1  0.18032626  0.33852053  0.08658870  1
  Si  Si13  1  0.67869884  0.33221682  0.08351248  1
  Si  Si14  1  0.16700674  0.95882444  0.92008052  1
  Si  Si15  1  0.66464270  0.95779415  0.91708255  1
  Si  Si16  1  0.16397312  0.37442683  0.41771685  1
  Si  Si17  1  0.66280974  0.37114435  0.41684597  1
  S  S0  1  0.00299634  0.29765968  0.24973190  1
  S  S1  1  0.50168385  0.29703483  0.25231413  1
  S  S2  1  0.00375361  0.70752436  0.75196358  1
  S  S3  1  0.50281011  0.70653658  0.75002058  1
  S  S4  1  0.47608298  0.32523692  0.58383133  1
  S  S5  1  0.97924595  0.32859404  0.58344405  1
  S  S6  1  0.33831060  0.63612328  0.58407452  1
  S  S7  1  0.97919574  0.63097295  0.08486868  1
  S  S8  1  0.33429949  0.04374261  0.08439679  1
  S  S9  1  0.84081730  0.04614138  0.08360215  1
  S  S10  1  0.31327653  0.66085113  0.91597119  1
  S  S11  1  0.81334856  0.66553609  0.91756120  1
  S  S12  1  0.02016236  0.37897552  0.91785305  1
  S  S13  1  0.51644076  0.37227284  0.91680940  1
  S  S14  1  0.31337621  0.96253935  0.41754327  1
  S  S15  1  0.81331870  0.96186938  0.41558867  1
  S  S16  1  0.01929188  0.66271483  0.41477105  1
  S  S17  1  0.51853707  0.65983521  0.41859759  1
  O  O0  1  0.11592710  0.03986976  0.31263245  1
  O  O1  1  0.61570992  0.03739569  0.31244505  1
  O  O2  1  0.40963982  0.80613144  0.31665823  1
  O  O3  1  0.91218638  0.80373784  0.31354009  1
  O  O4  1  0.49552828  0.20787839  0.30959764  1
  O  O5  1  0.99089302  0.20375956  0.30641574  1
  O  O6  1  0.11637881  0.18591569  0.81078482  1
  O  O7  1  0.61305337  0.18523227  0.81481823  1
  O  O8  1  0.49099176  0.77476218  0.80752216  1
  O  O9  1  0.99262222  0.78084863  0.80889393  1
  O  O10  1  0.40743556  -0.00624717  0.81105805  1
  O  O11  1  0.90571539  0.01150955  0.81645289  1
  O  O12  1  0.40170263  0.97151401  0.69022648  1
  O  O13  1  0.90511048  0.97463867  0.69554016  1
  O  O14  1  0.08590642  0.19906129  0.69247512  1
  O  O15  1  0.58529410  0.19905365  0.69615677  1
  O  O16  1  0.01557452  0.82084092  0.69894162  1
  O  O17  1  0.51435398  0.82478485  0.69767455  1
  O  O18  1  0.40786505  0.83919369  0.19513734  1
  O  O19  1  0.90693922  0.83377207  0.19171369  1
  O  O20  1  0.01380699  0.20448377  0.19650264  1
  O  O21  1  0.51204287  0.21021475  0.19868229  1
  O  O22  1  0.08478421  0.97101934  0.19492757  1
  O  O23  1  0.58480184  0.96146804  0.19311347  1
  O  O24  1  0.43215840  0.34627157  0.63575856  1
  O  O25  1  0.93522392  0.34513980  0.63594075  1
  O  O26  1  0.24273344  0.09958047  0.64054803  1
  O  O27  1  0.73725162  0.09900427  0.64248181  1
  O  O28  1  0.33299539  0.53488646  0.63798773  1
  O  O29  1  0.82636256  0.51694740  0.64275505  1
  O  O30  1  0.43469751  0.50120743  0.14453777  1
  O  O31  1  0.93735693  0.52971873  0.13914622  1
  O  O32  1  0.32199148  0.12229746  0.13852154  1
  O  O33  1  0.83613980  0.14331702  0.13493455  1
  O  O34  1  0.23020080  0.36049867  0.14820801  1
  O  O35  1  0.74202450  0.38068346  0.14133233  1
  O  O36  1  0.23118949  0.30241285  0.02815947  1
  O  O37  1  0.71283772  0.27826078  0.02328431  1
  O  O38  1  0.41327833  0.51529835  0.02362915  1
  O  O39  1  0.93136951  0.55077371  0.02831389  1
  O  O40  1  0.33991475  0.15002898  0.02885705  1
  O  O41  1  0.85404899  0.14247801  0.02514021  1
  O  O42  1  0.21536768  0.14132759  0.52162011  1
  O  O43  1  0.71124437  0.14338416  0.52252534  1
  O  O44  1  0.34933458  0.55792851  0.52754420  1
  O  O45  1  0.86313006  0.57464116  0.52249260  1
  O  O46  1  0.42931349  0.30337114  0.52597170  1
  O  O47  1  0.93409360  0.31019491  0.52552714  1
  O  O48  1  0.27176130  0.67645156  0.97007561  1
  O  O49  1  0.77150439  0.67898909  0.97264122  1
  O  O50  1  0.06514703  0.45276068  0.97609141  1
  O  O51  1  0.56173284  0.44390406  0.97514894  1
  O  O52  1  0.15248706  0.84484397  0.98019363  1
  O  O53  1  0.65850514  0.85183518  0.97759132  1
  O  O54  1  0.27288663  0.86846950  0.47381439  1
  O  O55  1  0.77404390  0.87010774  0.47235667  1
  O  O56  1  0.15501980  0.46202533  0.47974641  1
  O  O57  1  0.64986460  0.45508342  0.47805033  1
  O  O58  1  0.06651144  0.67899941  0.47177802  1
  O  O59  1  0.56699078  0.67379952  0.47444675  1
  O  O60  1  0.06863499  0.66123465  0.36093294  1
  O  O61  1  0.56321296  0.65094539  0.36345767  1
  O  O62  1  0.25800206  0.86689848  0.36385735  1
  O  O63  1  0.75745028  0.86363564  0.36236551  1
  O  O64  1  0.17271004  0.50379752  0.35895221  1
  O  O65  1  0.67205639  0.50052403  0.35793641  1
  O  O66  1  0.07027649  0.48628739  0.86610071  1
  O  O67  1  0.56550905  0.48410974  0.86532746  1
  O  O68  1  0.17741274  0.85438195  0.85992087  1
  O  O69  1  0.67224216  0.84638643  0.85754606  1
  O  O70  1  0.26201240  0.64461457  0.85971804  1
  O  O71  1  0.76092870  0.65229692  0.86207125  1
  O  O72  1  0.00755214  0.81439938  0.41468288  1
  O  O73  1  0.50678700  0.81175435  0.41817045  1
  O  O74  1  0.39772160  0.97886040  0.41424467  1
  O  O75  1  0.89789161  0.97649066  0.41204733  1
  O  O76  1  0.07809021  0.18577672  0.41348701  1
  O  O77  1  0.57790610  0.18191559  0.41237903  1
  O  O78  1  0.00830084  0.20328989  0.91520316  1
  O  O79  1  0.50578626  0.19947500  0.91312518  1
  O  O80  1  0.08270510  0.97954318  0.91395474  1
  O  O81  1  0.57874453  0.97329111  0.91458110  1
  O  O82  1  0.40076326  0.80121889  0.91360231  1
  O  O83  1  0.89929074  0.81845300  0.91508455  1
  O  O84  1  0.48270368  0.16297033  0.58905318  1
  O  O85  1  0.98669024  0.16749777  0.58755964  1
  O  O86  1  0.08663945  0.01208544  0.59343158  1
  O  O87  1  0.58135525  0.01180415  0.59438877  1
  O  O88  1  0.41506462  0.81120386  0.58644947  1
  O  O89  1  0.92247700  0.83241839  0.59444359  1
  O  O90  1  0.48305289  0.81257719  0.08701369  1
  O  O91  1  0.98428781  0.80602555  0.08745010  1
  O  O92  1  0.41491018  0.04107521  0.08437045  1
  O  O93  1  0.91812860  0.02530928  0.08799077  1
  O  O94  1  0.08583183  0.15312235  0.08869675  1
  O  O95  1  0.58290430  0.16035338  0.09543627  1
  O  O96  1  0.34048668  0.16183802  0.74970061  1
  O  O97  1  0.83973813  0.16633163  0.74739331  1
  O  O98  1  0.24613717  0.34232083  0.74145087  1
  O  O99  1  0.74476182  0.33593791  0.74716756  1
  O  O100  1  0.42911466  0.53785702  0.73935487  1
  O  O101  1  0.93160642  0.53603386  0.74445108  1
  O  O102  1  0.34460921  0.52583364  0.25150802  1
  O  O103  1  0.84749912  0.52283512  0.24803528  1
  O  O104  1  0.42989451  0.32681257  0.24867426  1
  O  O105  1  0.93301656  0.33110590  0.24035155  1
  O  O106  1  0.24682213  0.16061939  0.24169800  1
  O  O107  1  0.74454810  0.15543003  0.24225131  1
  O  O108  1  0.31418683  0.49271336  0.91777091  1
  O  O109  1  0.82124756  0.50884798  0.91641817  1
  O  O110  1  0.43260995  0.36709081  0.91713404  1
  O  O111  1  0.93600966  0.36982137  0.91693024  1
  O  O112  1  0.25313850  0.15391833  0.92417582  1
  O  O113  1  0.75383283  0.14232725  0.91251482  1
  O  O114  1  0.32043306  0.13365558  0.41555526  1
  O  O115  1  0.82127104  0.13291110  0.41388525  1
  O  O116  1  0.25257209  0.36637784  0.41363672  1
  O  O117  1  0.75127236  0.36409453  0.41365103  1
  O  O118  1  0.43328670  0.50002498  0.41909859  1
  O  O119  1  0.93679727  0.50204963  0.41296249  1
  O  O120  1  0.16312880  0.49557608  0.07483046  1
  O  O121  1  0.67012206  0.50319458  0.07592941  1
  O  O122  1  0.06694684  0.66144844  0.08452298  1
  O  O123  1  0.57148248  0.65702147  0.08102075  1
  O  O124  1  0.25970758  0.87053228  0.07804972  1
  O  O125  1  0.76435103  0.87472714  0.08210101  1
  O  O126  1  0.16544987  0.82777081  0.57595100  1
  O  O127  1  0.66084920  0.83042381  0.57580888  1
  O  O128  1  0.26064443  0.65165170  0.58220438  1
  O  O129  1  0.75334604  0.65754079  0.58257901  1
  O  O130  1  0.06720984  0.47710241  0.58387815  1
  O  O131  1  0.56324325  0.47197635  0.58365646  1
  O  O132  1  0.14847791  0.81003510  0.25643824  1
  O  O133  1  0.64845039  0.80785640  0.25771820  1
  O  O134  1  0.26020539  0.69282752  0.25668091  1
  O  O135  1  0.75992231  0.68680008  0.25467506  1
  O  O136  1  0.08519909  0.46724893  0.25103810  1
  O  O137  1  0.58347611  0.47250212  0.25304701  1
  O  O138  1  0.15530301  0.49348900  0.75925895  1
  O  O139  1  0.65458275  0.49256586  0.75930140  1
  O  O140  1  0.08612386  0.70397555  0.75391901  1
  O  O141  1  0.58394574  0.70012874  0.75052812  1
  O  O142  1  0.25969432  0.82659726  0.75549953  1
  O  O143  1  0.76057040  0.82803028  0.75688256  1
loop_
_geom_bond_atom_site_label_1
_geom_bond_atom_site_label_2
_geom_bond_distance
_geom_bond_site_symmetry_2
Na0 O34 2.298984 1_555
Na0 O102 2.400818 1_555
Na0 O106 2.444111 1_555
Na0 O136 2.591564 1_555
Na0 O134 2.637619 1_555
Na0 O64 2.877232 1_555
Na0 O0 2.883721 1_555
Na1 O35 2.470882 1_555
Na1 O107 2.492594 1_555
Na1 O103 2.531414 1_555
Na1 O137 2.598356 1_555
Na1 O135 2.618362 1_555
Na1 O65 2.876855 1_555
Na1 O1 2.894746 1_555
Na1 O21 2.962551 1_555
Na2 O103 2.375059 1_555
Na2 O132 2.409690 1_655
Na2 O105 2.422473 1_555
Na2 O60 2.664827 1_655
Na2 O31 2.699986 1_555
Na2 O136 2.727842 1_655
Na2 O22 2.921405 1_655
Na2 O3 2.955698 1_555
Na3 O104 2.380896 1_555
Na3 O102 2.406186 1_555
Na3 O30 2.425842 1_555
Na3 O133 2.469070 1_555
Na3 O137 2.646257 1_555
Na3 O23 2.834482 1_555
Na3 O61 2.899700 1_555
Na4 O98 2.298212 1_555
Na4 O142 2.494280 1_555
Na4 O100 2.530395 1_555
Na4 O28 2.633260 1_555
Na4 O138 2.639815 1_555
Na4 O70 2.701342 1_555
Na4 O12 2.936891 1_555
Na4 O8 2.990294 1_555
Na5 O99 2.314934 1_555
Na5 O29 2.339695 1_555
Na5 O143 2.547475 1_555
Na5 O101 2.575422 1_555
Na5 O139 2.665137 1_555
Na5 O13 2.858478 1_555
Na5 O71 2.998249 1_555
Na6 O96 2.412644 1_555
Na6 O26 2.505460 1_555
Na6 O98 2.525767 1_555
Na6 O140 2.550640 1_545
Na6 O142 2.695221 1_545
Na6 O6 2.779582 1_555
Na6 O68 2.878476 1_545
Na6 O16 2.927597 1_545
Na7 O97 2.350363 1_555
Na7 O27 2.418260 1_555
Na7 O99 2.464843 1_555
Na7 O141 2.603721 1_545
Na7 O143 2.670859 1_545
Na7 O69 2.859642 1_545
Na7 O7 2.896504 1_555
Na7 O17 2.991817 1_545
Na8 O56 2.414338 1_555
Na8 O86 2.518058 1_555
Na8 O130 2.529175 1_555
Na8 O128 2.594948 1_555
Na8 O85 2.639015 1_455
Na8 O42 2.728950 1_555
Na8 O14 2.849566 1_555
Na9 O57 2.421141 1_555
Na9 O129 2.451439 1_555
Na9 O131 2.576400 1_555
Na9 O87 2.662605 1_555
Na9 O43 2.678966 1_555
Na9 O84 2.860502 1_555
Na9 O29 2.966054 1_555
Na9 O15 2.989884 1_555
Na10 O126 2.458235 1_555
Na10 O89 2.509274 1_455
Na10 O86 2.525230 1_565
Na10 O58 2.582250 1_555
Na10 O130 2.630969 1_555
Na10 O45 2.632185 1_455
Na10 O16 2.881970 1_555
Na11 O127 2.276750 1_555
Na11 O87 2.523795 1_565
Na11 O131 2.538630 1_555
Na11 O59 2.540858 1_555
Na11 O88 2.558152 1_555
Na11 O17 2.850998 1_555
Na11 O44 2.897045 1_555
Na11 O24 2.992919 1_555
Na12 O128 2.504008 1_555
Na12 O126 2.511020 1_555
Na12 O84 2.543455 1_565
Na12 O26 2.548947 1_565
Na12 O12 2.602640 1_555
Na12 O88 2.685091 1_555
Na12 O54 2.721798 1_555
Na13 O129 2.384388 1_555
Na13 O127 2.582344 1_555
Na13 O89 2.606477 1_555
Na13 O85 2.624736 1_565
Na13 O27 2.692431 1_565
Na13 O55 2.717246 1_555
Na13 O13 2.732464 1_555
Na14 O52 2.401642 1_554
Na14 O122 2.478570 1_555
Na14 O124 2.500396 1_555
Na14 O94 2.519610 1_565
Na14 O91 2.725162 1_455
Na14 O36 2.778195 1_565
Na14 O22 2.913831 1_555
Na14 O32 2.956852 1_565
Na15 O53 2.353517 1_554
Na15 O123 2.411511 1_555
Na15 O125 2.621484 1_555
Na15 O90 2.631639 1_555
Na15 O95 2.639061 1_565
Na15 O37 2.704119 1_565
Na15 O23 2.906750 1_555
Na16 O121 2.403665 1_555
Na16 O125 2.475608 1_555
Na16 O91 2.598556 1_555
Na16 O35 2.605342 1_555
Na16 O49 2.694536 1_554
Na16 O19 2.721268 1_555
Na16 O93 2.741305 1_565
Na17 O120 2.300313 1_555
Na17 O50 2.463887 1_554
Na17 O93 2.505076 1_455
Na17 O94 2.551803 1_555
Na17 O122 2.586842 1_555
Na17 O20 2.841671 1_555
Na17 O41 2.854352 1_455
Na18 O121 2.403174 1_555
Na18 O92 2.458171 1_555
Na18 O123 2.476188 1_555
Na18 O95 2.486665 1_555
Na18 O51 2.640131 1_554
Na18 O21 2.687997 1_555
Na18 O30 2.819712 1_555
Na19 O81 2.353137 1_555
Na19 O82 2.400495 1_555
Na19 O110 2.448752 1_555
Na19 O8 2.639465 1_555
Na19 O38 2.682982 1_556
Na19 O108 2.773218 1_555
Na19 O53 2.939416 1_555
Na19 O67 2.965487 1_555
Na20 O80 2.401315 1_655
Na20 O111 2.452896 1_555
Na20 O83 2.500984 1_555
Na20 O9 2.552292 1_555
Na20 O109 2.624498 1_555
Na20 O39 2.672906 1_556
Na21 O11 2.319034 1_555
Na21 O113 2.385649 1_555
Na21 O78 2.499114 1_655
Na21 O83 2.542946 1_545
Na21 O111 2.620069 1_555
Na21 O41 2.733655 1_556
Na22 O6 2.279161 1_555
Na22 O80 2.392516 1_545
Na22 O108 2.457958 1_555
Na22 O112 2.482145 1_555
Na22 O78 2.536903 1_555
Na23 O7 2.378644 1_555
Na23 O81 2.418624 1_545
Na23 O113 2.519595 1_555
Na23 O37 2.541064 1_556
Na23 O109 2.569919 1_555
Na23 O79 2.584654 1_555
Na24 O77 2.374962 1_555
Na24 O118 2.448783 1_555
Na24 O74 2.539939 1_545
Na24 O4 2.559364 1_555
Na24 O46 2.608800 1_555
Na24 O114 2.646593 1_555
Na24 O57 2.870358 1_555
Na25 O76 2.384566 1_655
Na25 O119 2.419750 1_555
Na25 O47 2.486734 1_555
Na25 O75 2.504675 1_545
Na25 O115 2.560994 1_555
Na25 O5 2.688192 1_555
Na26 O0 2.386816 1_555
Na26 O76 2.429958 1_555
Na26 O116 2.492197 1_555
Na26 O42 2.514218 1_555
Na26 O114 2.553818 1_555
Na26 O72 2.571614 1_545
Na27 O1 2.402347 1_555
Na27 O77 2.437086 1_555
Na27 O117 2.469599 1_555
Na27 O43 2.514933 1_555
Na27 O115 2.534316 1_555
Na27 O73 2.616467 1_545
Na28 O2 2.304296 1_555
Na28 O116 2.385615 1_555
Na28 O73 2.438124 1_555
Na28 O118 2.554201 1_555
Na28 O74 2.556750 1_555
Na28 O44 2.821224 1_555
Na29 O117 2.388472 1_555
Na29 O72 2.446652 1_655
Na29 O45 2.524591 1_555
Na29 O75 2.540115 1_555
Na29 O3 2.541610 1_555
Na29 O119 2.578355 1_555
Na30 O76 2.453672 1_565
Na30 O72 2.508633 1_555
Na30 O86 2.529337 1_565
Na30 O89 2.575346 1_455
Na30 O85 2.594754 1_465
Na30 O75 2.644165 1_455
Na31 O77 2.320762 1_555
Na31 O73 2.474146 1_545
Na31 O87 2.506390 1_555
Na31 O74 2.635517 1_545
Na31 O84 2.641495 1_555
Na31 O88 2.679892 1_545
Na32 O80 2.355168 1_545
Na32 O94 2.480373 1_556
Na32 O78 2.498728 1_555
Na32 O83 2.537405 1_445
Na32 O91 2.610212 1_446
Na32 O93 2.659321 1_456
Na33 O81 2.449525 1_555
Na33 O90 2.515715 1_556
Na33 O82 2.548081 1_555
Na33 O79 2.551533 1_565
Na33 O92 2.566373 1_566
Na33 O95 2.631346 1_566
Na34 O96 2.245115 1_555
Na34 O110 2.441521 1_555
Na34 O112 2.524289 1_555
Na34 O98 2.679597 1_555
Na34 O108 2.698834 1_555
Na34 O100 2.787094 1_555
Na35 O97 2.291593 1_555
Na35 O99 2.407776 1_555
Na35 O113 2.436962 1_555
Na35 O111 2.614812 1_555
Na35 O101 2.618232 1_555
Na35 O109 2.665546 1_555
Na36 O106 2.356178 1_555
Na36 O102 2.363211 1_555
Na36 O116 2.510447 1_555
Na36 O104 2.514676 1_555
Na36 O114 2.572947 1_555
Na36 O118 2.716407 1_555
Na37 O107 2.399199 1_555
Na37 O117 2.420089 1_555
Na37 O103 2.440205 1_555
Na37 O115 2.505644 1_555
Na37 O119 2.640386 1_555
Na37 O105 2.770892 1_555
Na38 O124 2.406780 1_555
Na38 O120 2.416666 1_555
Na38 O134 2.438536 1_555
Na38 O132 2.673737 1_555
Na38 O122 2.715052 1_555
Na38 O136 2.752469 1_555
Na39 O123 2.402622 1_555
Na39 O121 2.446934 1_555
Na39 O125 2.537331 1_555
Na39 O133 2.545371 1_555
Na39 O137 2.617643 1_555
Na39 O135 2.639511 1_555
Na40 O130 2.424493 1_555
Na40 O126 2.427884 1_555
Na40 O140 2.515464 1_555
Na40 O138 2.562067 1_555
Na40 O142 2.620175 1_555
Na40 O128 2.624487 1_555
Na41 O129 2.361020 1_555
Na41 O127 2.443335 1_555
Na41 O131 2.501974 1_555
Na41 O141 2.602465 1_555
Na41 O139 2.603472 1_555
Na41 O143 2.629234 1_555
O0 Si0 1.609729 1_555
O0 Zn0 1.938637 1_555
O1 Si1 1.607167 1_545
O1 Zn1 1.920272 1_555
O2 Si2 1.605195 1_555
O2 Zn1 1.926102 1_565
O3 Si3 1.602539 1_555
O3 Zn0 1.937341 1_665
O4 S1 1.470474 1_555
O4 Zn1 2.092583 1_555
O5 S0 1.463237 1_655
O5 Zn0 2.139714 1_655
O6 Si4 1.613708 1_555
O6 Zn2 1.912728 1_555
O7 Si5 1.595402 1_555
O7 Zn3 1.915991 1_555
O8 S3 1.469647 1_555
O8 Zn3 2.227056 1_565
O9 S2 1.477660 1_655
O9 Zn2 2.133408 1_665
O10 Si6 1.580286 1_555
O10 Zn3 1.902459 1_555
O11 Si7 1.608015 1_555
O11 Zn2 1.943056 1_655
O12 Si6 1.695871 1_565
O12 Ti1 1.891864 1_565
O13 Si7 1.672170 1_565
O13 Ti0 1.897827 1_665
O14 Si4 1.666981 1_555
O14 Ti0 1.898834 1_555
O15 Si5 1.722560 1_555
O15 Ti1 1.786028 1_555
O16 S2 1.496815 1_555
O16 Ti0 2.149355 1_565
O17 S3 1.514298 1_555
O17 Ti1 2.095347 1_565
O18 Si2 1.661019 1_555
O18 Ti3 1.860722 1_555
O19 Si3 1.698540 1_555
O19 Ti2 1.867551 1_655
O20 S0 1.511770 1_555
O20 Ti2 2.071948 1_545
O21 S1 1.480454 1_555
O21 Ti3 2.336974 1_545
O22 Si0 1.738237 1_565
O22 Ti2 1.803172 1_555
O23 Si1 1.701513 1_555
O23 Ti3 1.847742 1_555
O24 S4 1.462779 1_555
O24 Zn4 2.139696 1_555
O25 S5 1.457932 1_555
O25 Zn5 2.207345 1_555
O26 Si8 1.618532 1_555
O26 Zn4 1.944621 1_555
O27 Si9 1.611805 1_555
O27 Zn5 1.963288 1_555
O28 S6 1.472317 1_555
O28 Zn4 2.287789 1_555
O29 Si10 1.611127 1_555
O29 Zn5 1.973998 1_555
O30 Si11 1.604591 1_555
O30 Zn6 1.943294 1_555
O31 S7 1.469061 1_555
O31 Zn7 2.243405 1_555
O32 S8 1.460073 1_555
O32 Zn6 2.224711 1_555
O33 S9 1.458888 1_555
O33 Zn7 2.168948 1_555
O34 Si12 1.584151 1_555
O34 Zn6 1.969339 1_555
O35 Si13 1.619095 1_555
O35 Zn7 1.930825 1_555
O36 Si12 1.710976 1_555
O36 Ti4 1.821370 1_554
O37 Si13 1.639479 1_555
O37 Zn8 1.915724 1_554
O38 Si11 1.700354 1_555
O38 Ti4 1.891708 1_554
O39 S7 1.480237 1_555
O39 Zn8 2.469511 1_554
O40 S8 1.526831 1_555
O40 Ti4 1.984554 1_554
O41 S9 1.505052 1_555
O41 Zn8 2.094058 1_554
O42 Si8 1.638244 1_555
O42 Zn9 1.931603 1_555
O43 Si9 1.639748 1_555
O43 Zn10 1.927664 1_555
O44 S6 1.492835 1_555
O44 Zn9 2.100470 1_555
O45 Si10 1.650303 1_555
O45 Zn10 1.922086 1_555
O46 S4 1.485179 1_555
O46 Zn9 2.412050 1_555
O47 S5 1.476520 1_555
O48 S10 1.456480 1_555
O48 Zn11 2.034668 1_556
O49 S11 1.470766 1_555
O49 Zn12 2.288300 1_556
O50 S12 1.483715 1_555
O50 Zn11 2.120519 1_556
O51 S13 1.484230 1_555
O51 Zn12 2.053491 1_556
O52 Si14 1.616668 1_555
O52 Zn11 1.943558 1_556
O53 Si15 1.611820 1_555
O53 Zn12 1.940395 1_556
O54 S14 1.477566 1_555
O54 Zn13 2.111914 1_555
O55 S15 1.475320 1_555
O55 Zn14 2.103365 1_555
O56 Si16 1.626164 1_555
O56 Zn13 1.923648 1_555
O57 Si17 1.619702 1_555
O57 Zn14 1.953700 1_555
O58 S16 1.482165 1_555
O58 Zn13 2.054738 1_555
O59 S17 1.477231 1_555
O59 Zn14 2.195844 1_555
O60 S16 1.493638 1_555
O60 Ti5 2.249166 1_555
O61 S17 1.487513 1_555
O61 Ti6 2.339390 1_555
O62 S14 1.509256 1_555
O62 Ti5 2.009793 1_555
O63 S15 1.510539 1_555
O63 Ti6 2.020512 1_555
O64 Si16 1.697959 1_555
O64 Ti5 1.853913 1_555
O65 Si17 1.698180 1_555
O65 Ti6 1.842388 1_555
O66 S12 1.482638 1_555
O66 Ti7 2.249406 1_555
O67 S13 1.487695 1_555
O67 Ti8 2.274250 1_555
O68 Si14 1.690466 1_555
O68 Ti7 1.870527 1_555
O69 Si15 1.699329 1_555
O69 Ti8 1.838361 1_555
O70 S10 1.508795 1_555
O70 Ti7 2.096570 1_555
O71 S11 1.513418 1_555
O71 Ti8 2.079203 1_555
O72 S16 1.490319 1_555
O72 Zn0 2.317282 1_565
O73 S17 1.492566 1_555
O73 Zn1 2.401500 1_565
O74 S14 1.470463 1_555
O74 Zn1 2.498004 1_565
O75 S15 1.481413 1_555
O75 Zn0 2.428880 1_665
O76 Si16 1.644943 1_555
O76 Zn0 2.102470 1_555
O77 Si17 1.640562 1_555
O77 Zn1 2.084612 1_555
O78 S12 1.494478 1_555
O78 Zn2 2.331243 1_555
O79 S13 1.478197 1_555
O79 Zn3 2.209382 1_555
O80 Si14 1.641998 1_555
O80 Zn2 2.197558 1_565
O81 Si15 1.639673 1_555
O81 Zn3 2.117410 1_565
O82 S10 1.462362 1_555
O82 Zn3 2.426112 1_565
O83 S11 1.486469 1_555
O83 Zn2 2.501126 1_665
O84 S4 1.535909 1_555
O84 Ti1 2.096615 1_555
O85 S5 1.532115 1_555
O85 Ti0 2.081782 1_655
O86 Si8 1.669981 1_555
O86 Ti0 1.992641 1_555
O87 Si9 1.704508 1_555
O87 Ti1 1.943578 1_555
O88 S6 1.502681 1_555
O88 Ti1 2.327903 1_565
O89 Si10 1.676029 1_555
O89 Ti0 1.934090 1_665
O90 Si11 1.686772 1_555
O90 Ti3 1.878871 1_555
O91 S7 1.540442 1_555
O91 Ti2 2.106415 1_655
O92 S8 1.480469 1_555
O92 Ti3 2.407970 1_545
O93 S9 1.513661 1_555
O93 Ti2 2.258451 1_645
O94 Si12 1.703268 1_555
O94 Ti2 2.029185 1_545
O95 Si13 1.682628 1_555
O95 Ti3 1.966855 1_545
O96 Si6 1.604483 1_555
O96 Zn4 2.014336 1_555
O97 Si7 1.601149 1_555
O97 Zn5 2.121054 1_555
O98 Si4 1.635361 1_555
O98 Zn4 2.024025 1_555
O99 Si5 1.613471 1_555
O99 Zn5 2.081949 1_555
O100 S3 1.463042 1_555
O100 Zn4 2.358080 1_555
O101 S2 1.458320 1_655
O101 Zn5 2.446599 1_555
O102 Si2 1.619493 1_555
O102 Zn6 2.108121 1_555
O103 Si3 1.626751 1_555
O103 Zn7 2.073715 1_555
O104 S1 1.462536 1_555
O104 Zn6 2.448209 1_555
O105 S0 1.463211 1_655
O105 Zn7 2.396280 1_555
O106 Si0 1.594952 1_555
O106 Zn6 2.061137 1_555
O107 Si1 1.607176 1_545
O107 Zn7 1.957016 1_555
O108 S10 1.529885 1_555
O108 Ti4 2.206356 1_555
O109 S11 1.494563 1_555
O109 Zn8 2.385586 1_555
O110 S13 1.504184 1_555
O110 Ti4 2.401529 1_555
O111 S12 1.493313 1_655
O111 Zn8 2.525633 1_555
O112 Si14 1.680188 1_545
O112 Ti4 1.959492 1_555
O113 Si15 1.653681 1_545
O113 Zn8 1.997215 1_555
O114 S14 1.488773 1_545
O114 Zn9 2.338910 1_555
O115 S15 1.480955 1_545
O116 Si16 1.654111 1_555
O116 Zn9 2.018005 1_555
O117 Si17 1.645829 1_555
O117 Zn10 2.036690 1_555
O118 S17 1.504674 1_555
O118 Zn9 2.416793 1_555
O119 S16 1.481392 1_655
O120 Si12 1.620775 1_555
O120 Zn11 2.005033 1_555
O121 Si13 1.638741 1_555
O121 Zn12 2.009210 1_555
O122 S7 1.480443 1_455
O122 Zn11 2.440804 1_555
O123 Si11 1.630410 1_555
O123 Zn12 2.040548 1_555
O124 S8 1.482158 1_565
O124 Zn11 2.220735 1_555
O125 S9 1.480683 1_565
O125 Zn12 2.426582 1_555
O126 Si8 1.652944 1_565
O126 Zn13 1.988148 1_555
O127 Si9 1.634789 1_565
O127 Zn14 2.043070 1_555
O128 S6 1.490050 1_555
O128 Zn13 2.360243 1_555
O129 Si10 1.637695 1_555
O129 Zn14 2.050126 1_555
O130 S5 1.492153 1_455
O130 Zn13 2.328145 1_555
O131 S4 1.477209 1_555
O131 Zn14 2.386964 1_555
O132 Si0 1.666578 1_565
O132 Ti5 1.950244 1_555
O133 Si1 1.663362 1_555
O133 Ti6 1.929873 1_555
O134 Si2 1.708189 1_555
O134 Ti5 1.836728 1_555
O135 Si3 1.690483 1_555
O135 Ti6 1.863956 1_555
O136 S0 1.518682 1_555
O136 Ti5 2.200027 1_555
O137 S1 1.543419 1_555
O137 Ti6 2.117963 1_555
O138 Si4 1.670673 1_555
O138 Ti7 1.934401 1_555
O139 Si5 1.655181 1_555
O139 Ti8 1.916006 1_555
O140 S2 1.517019 1_555
O140 Ti7 2.106429 1_555
O141 S3 1.507574 1_555
O141 Ti8 2.156221 1_555
O142 Si6 1.727989 1_565
O142 Ti7 1.858298 1_555
O143 Si7 1.738975 1_565
O143 Ti8 1.861582 1_555
