# generated using pymatgen
data_Na4Y2Si(PO6)2
_symmetry_space_group_name_H-M   'P 1'
_cell_length_a   9.45706419
_cell_length_b   9.45706430
_cell_length_c   23.32800777
_cell_angle_alpha   90.00192548
_cell_angle_beta   89.99805835
_cell_angle_gamma   120.00029187
_symmetry_Int_Tables_number   1
_chemical_formula_structural   Na4Y2Si(PO6)2
_chemical_formula_sum   'Na24 Y12 Si6 P12 O72'
_cell_volume   1806.83994885
_cell_formula_units_Z   6
loop_
 _symmetry_equiv_pos_site_id
 _symmetry_equiv_pos_as_xyz
  1  'x, y, z'
loop_
 _atom_site_type_symbol
 _atom_site_label
 _atom_site_symmetry_multiplicity
 _atom_site_fract_x
 _atom_site_fract_y
 _atom_site_fract_z
 _atom_site_occupancy
  Na  Na0  1  0.64207651  0.00625799  0.25212790  1
  Na  Na1  1  0.35787874  0.36424251  0.24793919  1
  Na  Na2  1  0.99991065  0.62584941  0.25002138  1
  Na  Na3  1  0.63575850  0.64212173  0.74793956  1
  Na  Na4  1  0.99374213  0.35792323  0.75212771  1
  Na  Na5  1  0.37414869  0.00008911  0.75002139  1
  Na  Na6  1  0.30287363  0.32622158  0.58135585  1
  Na  Na7  1  0.04028084  0.70684982  0.58006505  1
  Na  Na8  1  0.66034249  0.96771369  0.58864890  1
  Na  Na9  1  0.29315007  0.95971826  0.08006485  1
  Na  Na10  1  0.67377827  0.69712617  0.08135603  1
  Na  Na11  1  0.03228629  0.33965822  0.08864936  1
  Na  Na12  1  0.97509819  0.67367155  0.92190392  1
  Na  Na13  1  0.69156663  0.03176293  0.91144807  1
  Na  Na14  1  0.33350508  0.29362453  0.91673784  1
  Na  Na15  1  0.96823703  0.30843288  0.41144818  1
  Na  Na16  1  0.32632905  0.02490236  0.42190435  1
  Na  Na17  1  0.70637783  0.66649458  0.41673780  1
  Na  Na18  1  0.00817424  0.99348571  0.49997498  1
  Na  Na19  1  0.00651432  0.99182580  0.99997501  1
  Na  Na20  1  0.66069894  0.31900367  0.83348555  1
  Na  Na21  1  0.68099699  0.33930120  0.33348555  1
  Na  Na22  1  0.31869815  0.65756449  0.16660114  1
  Na  Na23  1  0.34243498  0.68130117  0.66660119  1
  Y  Y0  1  0.00014638  0.00050100  0.34848822  1
  Y  Y1  1  0.99949888  0.99985358  0.84848817  1
  Y  Y2  1  0.99930078  0.99883815  0.65153342  1
  Y  Y3  1  0.00116169  0.00069905  0.15153346  1
  Y  Y4  1  0.66398693  0.32683723  0.68187110  1
  Y  Y5  1  0.67316292  0.33601309  0.18187106  1
  Y  Y6  1  0.66853195  0.33452354  0.98490552  1
  Y  Y7  1  0.66547656  0.33146790  0.48490543  1
  Y  Y8  1  0.32979227  0.66956855  0.01515553  1
  Y  Y9  1  0.33043150  0.67020773  0.51515543  1
  Y  Y10  1  0.32601400  0.66335861  0.31817766  1
  Y  Y11  1  0.33664137  0.67398547  0.81817778  1
  Si  Si0  1  0.00006694  0.30305897  0.24999642  1
  Si  Si1  1  0.69694092  0.99993285  0.74999642  1
  Si  Si2  1  0.36205701  0.02888275  0.58287587  1
  Si  Si3  1  0.97111734  0.63794296  0.08287589  1
  Si  Si4  1  0.33354200  0.97267106  0.91681480  1
  Si  Si5  1  0.02732896  0.66645813  0.41681473  1
  P  P0  1  0.30253031  0.00138737  0.25012823  1
  P  P1  1  0.69753061  0.69894622  0.24992252  1
  P  P2  1  0.30105399  0.30246940  0.74992254  1
  P  P3  1  0.99861245  0.69746949  0.75012822  1
  P  P4  1  0.96859951  0.33327713  0.58340426  1
  P  P5  1  0.66625101  0.63336277  0.58360448  1
  P  P6  1  0.66672280  0.03140044  0.08340425  1
  P  P7  1  0.36663736  0.33374927  0.08360452  1
  P  P8  1  0.63325350  0.66549961  0.91691249  1
  P  P9  1  0.03348912  0.36565863  0.91630159  1
  P  P10  1  0.63434159  0.96651108  0.41630156  1
  P  P11  1  0.33450020  0.36674637  0.41691246  1
  O  O0  1  0.21776492  0.02156878  0.30369848  1
  O  O1  1  0.80514866  0.78018982  0.30347883  1
  O  O2  1  0.97652581  0.19226021  0.30700577  1
  O  O3  1  0.21981019  0.19485168  0.80347865  1
  O  O4  1  0.97843122  0.78223499  0.80369845  1
  O  O5  1  0.80774000  0.02347416  0.80700579  1
  O  O6  1  0.78432902  0.97636021  0.69300457  1
  O  O7  1  0.19619674  0.21764923  0.69621356  1
  O  O8  1  0.02508415  0.80502048  0.69654915  1
  O  O9  1  0.78235073  0.80380365  0.19621347  1
  O  O10  1  0.02363985  0.21567060  0.19300452  1
  O  O11  1  0.19497931  0.97491589  0.19654912  1
  O  O12  1  0.88791351  0.35975838  0.63696985  1
  O  O13  1  0.47434787  0.11837725  0.63938909  1
  O  O14  1  0.64647264  0.53036970  0.63763978  1
  O  O15  1  0.88162304  0.52565243  0.13938908  1
  O  O16  1  0.64024176  0.11208648  0.13696983  1
  O  O17  1  0.46962992  0.35352707  0.13763974  1
  O  O18  1  0.44968856  0.31034310  0.03004097  1
  O  O19  1  0.85991610  0.55201366  0.02580752  1
  O  O20  1  0.68846243  0.13723933  0.02993825  1
  O  O21  1  0.44798629  0.14008365  0.52580765  1
  O  O22  1  0.68965678  0.55031160  0.53004099  1
  O  O23  1  0.86276039  0.31153752  0.52993809  1
  O  O24  1  0.55084335  0.68686703  0.97082342  1
  O  O25  1  0.13989465  0.44848203  0.96971665  1
  O  O26  1  0.30879541  0.86002409  0.97348195  1
  O  O27  1  0.55151797  0.86010532  0.46971671  1
  O  O28  1  0.31313299  0.44915687  0.47082353  1
  O  O29  1  0.13997577  0.69120448  0.47348203  1
  O  O30  1  0.11542601  0.64194968  0.36021338  1
  O  O31  1  0.53058511  0.88429422  0.36232655  1
  O  O32  1  0.35788070  0.47302963  0.36336870  1
  O  O33  1  0.11570555  0.46941458  0.86232665  1
  O  O34  1  0.35805027  0.88457370  0.86021334  1
  O  O35  1  0.52697017  0.64211934  0.86336862  1
  O  O36  1  0.01017301  0.83151523  0.41412145  1
  O  O37  1  0.80706658  0.98546959  0.41255551  1
  O  O38  1  0.17904028  0.19494295  0.41241130  1
  O  O39  1  0.01453068  0.19293379  0.91255548  1
  O  O40  1  0.16848474  0.98982699  0.91412129  1
  O  O41  1  0.80505670  0.82095956  0.91241132  1
  O  O42  1  0.98267813  0.17669211  0.58791764  1
  O  O43  1  0.17887069  0.00950114  0.58594791  1
  O  O44  1  0.82046377  0.80630327  0.58707326  1
  O  O45  1  0.99049898  0.82112988  0.08594797  1
  O  O46  1  0.82330819  0.01732196  0.08791772  1
  O  O47  1  0.19369684  0.17953618  0.08707331  1
  O  O48  1  0.68058089  0.16584795  0.74778886  1
  O  O49  1  0.47520789  0.32535620  0.74558776  1
  O  O50  1  0.84163355  0.52826650  0.74551853  1
  O  O51  1  0.67464350  0.52479169  0.24558773  1
  O  O52  1  0.83415250  0.31941880  0.24778900  1
  O  O53  1  0.47173368  0.15836660  0.24551844  1
  O  O54  1  0.65205081  0.51170475  0.92061190  1
  O  O55  1  0.86169876  0.34913876  0.92080198  1
  O  O56  1  0.49851114  0.15486306  0.91950522  1
  O  O57  1  0.65086120  0.13830155  0.42080195  1
  O  O58  1  0.48829554  0.34794912  0.42061192  1
  O  O59  1  0.84513678  0.50148876  0.41950523  1
  O  O60  1  0.35178933  0.48945128  0.07907249  1
  O  O61  1  0.15229300  0.65195854  0.08116700  1
  O  O62  1  0.51591900  0.85748915  0.07873030  1
  O  O63  1  0.34804169  0.84770710  0.58116683  1
  O  O64  1  0.51054867  0.64821079  0.57907241  1
  O  O65  1  0.14251055  0.48408068  0.57873036  1
  O  O66  1  0.32542691  0.85017116  0.25441845  1
  O  O67  1  0.52835877  0.68675648  0.25457145  1
  O  O68  1  0.16596337  0.48535497  0.25213016  1
  O  O69  1  0.31324328  0.47164175  0.75457156  1
  O  O70  1  0.14982866  0.67457328  0.75441848  1
  O  O71  1  0.51464495  0.83403658  0.75213024  1
loop_
_geom_bond_atom_site_label_1
_geom_bond_atom_site_label_2
_geom_bond_distance
_geom_bond_site_symmetry_2
Na0 O52 2.588651 1_555
Na0 O66 2.594007 1_545
Na0 O53 2.646808 1_555
Na0 O67 2.653310 1_545
Na0 O31 2.799023 1_545
Na0 O16 2.869895 1_555
Na1 O68 2.587331 1_555
Na1 O51 2.594974 1_555
Na1 O67 2.647362 1_555
Na1 O53 2.655121 1_555
Na1 O17 2.802631 1_555
Na1 O32 2.882549 1_555
Na2 O52 2.513017 1_555
Na2 O68 2.514033 1_655
Na2 O51 2.728820 1_555
Na2 O66 2.730747 1_655
Na2 O30 2.767346 1_655
Na2 O15 2.783879 1_555
Na3 O71 2.587335 1_555
Na3 O49 2.594980 1_555
Na3 O69 2.647371 1_555
Na3 O50 2.655116 1_555
Na3 O14 2.802639 1_555
Na3 O35 2.882542 1_555
Na4 O48 2.588653 1_555
Na4 O70 2.594011 1_655
Na4 O50 2.646811 1_555
Na4 O69 2.653306 1_655
Na4 O33 2.799029 1_655
Na4 O12 2.869891 1_555
Na5 O48 2.513030 1_555
Na5 O71 2.514046 1_545
Na5 O49 2.728816 1_555
Na5 O70 2.730741 1_545
Na5 O34 2.767347 1_545
Na5 O13 2.783883 1_555
Na6 O65 2.607011 1_555
Na6 O43 2.616420 1_555
Na6 O42 2.628774 1_455
Na6 O64 2.674327 1_555
Na6 O28 2.810179 1_555
Na6 O7 2.866247 1_555
Na7 O43 2.485438 1_565
Na7 O63 2.523711 1_555
Na7 O44 2.681053 1_455
Na7 O29 2.689266 1_555
Na7 O65 2.722281 1_555
Na7 O8 2.898236 1_555
Na8 O63 2.586395 1_555
Na8 O64 2.627942 1_555
Na8 O44 2.633629 1_555
Na8 O42 2.678432 1_565
Na8 O6 2.685555 1_555
Na8 O27 2.957201 1_555
Na8 O13 3.005191 1_565
Na9 O45 2.485437 1_455
Na9 O61 2.523702 1_555
Na9 O47 2.681060 1_565
Na9 O26 2.689261 1_554
Na9 O62 2.722275 1_555
Na9 O11 2.898242 1_555
Na10 O62 2.607011 1_555
Na10 O45 2.616421 1_555
Na10 O46 2.628776 1_565
Na10 O60 2.674325 1_555
Na10 O24 2.810185 1_554
Na10 O9 2.866242 1_555
Na11 O61 2.586391 1_555
Na11 O60 2.627944 1_555
Na11 O47 2.633637 1_555
Na11 O46 2.678436 1_455
Na11 O10 2.685549 1_555
Na11 O25 2.957211 1_554
Na11 O15 3.005182 1_455
Na12 O41 2.610594 1_555
Na12 O40 2.617072 1_655
Na12 O54 2.645945 1_555
Na12 O19 2.670602 1_556
Na12 O55 2.697936 1_555
Na12 O4 2.937126 1_555
Na12 O26 2.991838 1_655
Na13 O55 2.610702 1_555
Na13 O56 2.617131 1_555
Na13 O39 2.645215 1_655
Na13 O5 2.689854 1_555
Na13 O41 2.695646 1_545
Na13 O20 2.943709 1_556
Na13 O34 2.987316 1_545
Na14 O56 2.491809 1_555
Na14 O40 2.491951 1_545
Na14 O54 2.669048 1_555
Na14 O39 2.672718 1_555
Na14 O3 2.829319 1_555
Na14 O18 2.836349 1_556
Na15 O57 2.610701 1_555
Na15 O59 2.617135 1_555
Na15 O37 2.645209 1_545
Na15 O2 2.689855 1_555
Na15 O38 2.695644 1_655
Na15 O23 2.943705 1_555
Na15 O30 2.987320 1_655
Na16 O38 2.610594 1_555
Na16 O36 2.617078 1_545
Na16 O58 2.645940 1_555
Na16 O21 2.670593 1_555
Na16 O57 2.697931 1_555
Na16 O0 2.937136 1_555
Na16 O29 2.991839 1_545
Na17 O59 2.491787 1_555
Na17 O36 2.491932 1_655
Na17 O58 2.669050 1_555
Na17 O37 2.672727 1_555
Na17 O1 2.829312 1_555
Na17 O22 2.836345 1_555
Na18 O36 2.527169 1_555
Na18 O43 2.531186 1_565
Na18 O44 2.696435 1_455
Na18 O38 2.708295 1_565
Na18 O37 2.763663 1_455
Na18 O42 2.772414 1_465
Na19 O40 2.527172 1_555
Na19 O45 2.531183 1_456
Na19 O47 2.696436 1_566
Na19 O41 2.708298 1_455
Na19 O39 2.763665 1_565
Na19 O46 2.772413 1_466
Na20 O48 2.530193 1_555
Na20 O56 2.531396 1_555
Na20 O55 2.702230 1_555
Na20 O49 2.718628 1_555
Na20 O54 2.758181 1_555
Na20 O50 2.769328 1_555
Na21 O52 2.530191 1_555
Na21 O59 2.531394 1_555
Na21 O57 2.702226 1_555
Na21 O51 2.718628 1_555
Na21 O58 2.758182 1_555
Na21 O53 2.769332 1_555
Na22 O68 2.523334 1_555
Na22 O61 2.523531 1_555
Na22 O60 2.700387 1_555
Na22 O66 2.720755 1_555
Na22 O67 2.769813 1_555
Na22 O62 2.780093 1_555
Na23 O71 2.523338 1_555
Na23 O63 2.523538 1_555
Na23 O64 2.700389 1_555
Na23 O70 2.720755 1_555
Na23 O69 2.769807 1_555
Na23 O65 2.780092 1_555
O0 P0 1.547150 1_555
O0 Y0 2.226374 1_555
O1 P1 1.550838 1_555
O1 Y0 2.236494 1_665
O2 Si0 1.637980 1_655
O2 Y0 2.163397 1_655
O3 P2 1.550833 1_555
O3 Y1 2.236497 1_445
O4 P3 1.547149 1_555
O4 Y1 2.226375 1_555
O5 Si1 1.637982 1_545
O5 Y1 2.163394 1_545
O6 Si1 1.638420 1_555
O6 Y2 2.163778 1_555
O7 P2 1.549574 1_555
O7 Y2 2.232144 1_445
O8 P3 1.550762 1_455
O8 Y2 2.229126 1_455
O9 P1 1.549575 1_555
O9 Y3 2.232140 1_665
O10 Si0 1.638424 1_555
O10 Y3 2.163775 1_555
O11 P0 1.550764 1_565
O11 Y3 2.229124 1_565
O12 P4 1.548362 1_555
O12 Y4 2.240368 1_555
O13 Si2 1.638076 1_555
O13 Y4 2.132923 1_555
O14 P5 1.546130 1_555
O14 Y4 2.261857 1_555
O15 Si3 1.638073 1_555
O15 Y5 2.132924 1_555
O16 P6 1.548361 1_555
O16 Y5 2.240368 1_555
O17 P7 1.546127 1_555
O17 Y5 2.261861 1_555
O18 P7 1.549510 1_555
O18 Y6 2.229537 1_554
O19 Si3 1.638314 1_555
O19 Y6 2.166571 1_554
O20 P6 1.547271 1_555
O20 Y6 2.229772 1_554
O21 Si2 1.638309 1_555
O21 Y7 2.166574 1_555
O22 P5 1.549508 1_555
O22 Y7 2.229542 1_555
O23 P4 1.547276 1_555
O23 Y7 2.229767 1_555
O24 P8 1.545083 1_555
O24 Y8 2.263698 1_556
O25 P9 1.546163 1_555
O25 Y8 2.228320 1_556
O26 Si4 1.639486 1_555
O26 Y8 2.141601 1_556
O27 P10 1.546166 1_555
O27 Y9 2.228317 1_555
O28 P11 1.545087 1_555
O28 Y9 2.263694 1_555
O29 Si5 1.639489 1_555
O29 Y9 2.141601 1_555
O30 Si5 1.638383 1_555
O30 Y10 2.136702 1_555
O31 P10 1.545914 1_555
O31 Y10 2.264256 1_555
O32 P11 1.548278 1_555
O32 Y10 2.232627 1_555
O33 P9 1.545909 1_555
O33 Y11 2.264256 1_555
O34 Si4 1.638387 1_555
O34 Y11 2.136702 1_555
O35 P8 1.548281 1_555
O35 Y11 2.232621 1_555
O36 Si5 1.649279 1_555
O36 Y0 2.249200 1_565
O37 P10 1.554069 1_555
O37 Y0 2.308320 1_665
O38 P11 1.556792 1_555
O38 Y0 2.314355 1_555
O39 P9 1.554068 1_555
O39 Y1 2.308323 1_445
O40 Si4 1.649280 1_555
O40 Y1 2.249199 1_455
O41 P8 1.556790 1_555
O41 Y1 2.314357 1_555
O42 P4 1.555268 1_555
O42 Y2 2.306663 1_545
O43 Si2 1.649973 1_555
O43 Y2 2.250219 1_445
O44 P5 1.556638 1_555
O44 Y2 2.314613 1_555
O45 Si3 1.649978 1_555
O45 Y3 2.250215 1_665
O46 P6 1.555271 1_555
O46 Y3 2.306661 1_655
O47 P7 1.556639 1_555
O47 Y3 2.314613 1_555
O48 Si1 1.652677 1_545
O48 Y4 2.224029 1_555
O49 P2 1.553429 1_555
O49 Y4 2.317677 1_555
O50 P3 1.549337 1_555
O50 Y4 2.335676 1_555
O51 P1 1.553434 1_555
O51 Y5 2.317676 1_555
O52 Si0 1.652669 1_655
O52 Y5 2.224035 1_555
O53 P0 1.549340 1_555
O53 Y5 2.335674 1_555
O54 P8 1.553394 1_555
O54 Y6 2.311462 1_555
O55 P9 1.555967 1_655
O55 Y6 2.310811 1_555
O56 Si4 1.648799 1_545
O56 Y6 2.251184 1_555
O57 P10 1.555969 1_545
O57 Y7 2.310807 1_555
O58 P11 1.553398 1_555
O58 Y7 2.311459 1_555
O59 Si5 1.648801 1_655
O59 Y7 2.251181 1_555
O60 P7 1.551090 1_555
O60 Y8 2.350015 1_555
O61 Si3 1.651591 1_455
O61 Y8 2.221966 1_555
O62 P6 1.550875 1_565
O62 Y8 2.308240 1_555
O63 Si2 1.651592 1_565
O63 Y9 2.221965 1_555
O64 P5 1.551094 1_555
O64 Y9 2.350015 1_555
O65 P4 1.550873 1_455
O65 Y9 2.308245 1_555
O66 P0 1.552949 1_565
O66 Y10 2.311607 1_555
O67 P1 1.549254 1_555
O67 Y10 2.342831 1_555
O68 Si0 1.652651 1_555
O68 Y10 2.225020 1_555
O69 P2 1.549261 1_555
O69 Y11 2.342823 1_555
O70 P3 1.552947 1_455
O70 Y11 2.311612 1_555
O71 Si1 1.652650 1_555
O71 Y11 2.225022 1_555
