# generated using pymatgen
data_Na6Ta8Si11SO48
_symmetry_space_group_name_H-M   'P 1'
_cell_length_a   17.86483430
_cell_length_b   8.92704156
_cell_length_c   22.79124581
_cell_angle_alpha   90.09951809
_cell_angle_beta   89.92351364
_cell_angle_gamma   120.12182107
_symmetry_Int_Tables_number   1
_chemical_formula_structural   Na6Ta8Si11SO48
_chemical_formula_sum   'Na18 Ta24 Si33 S3 O144'
_cell_volume   3143.90996841
_cell_formula_units_Z   3
loop_
 _symmetry_equiv_pos_site_id
 _symmetry_equiv_pos_as_xyz
  1  'x, y, z'
loop_
 _atom_site_type_symbol
 _atom_site_label
 _atom_site_symmetry_multiplicity
 _atom_site_fract_x
 _atom_site_fract_y
 _atom_site_fract_z
 _atom_site_occupancy
  Na  Na0  1  0.68246767  0.99940174  0.75037682  1
  Na  Na1  1  0.01587795  0.69527368  0.58233228  1
  Na  Na2  1  0.51641985  0.70032495  0.58337495  1
  Na  Na3  1  0.83228619  0.69465116  0.08189637  1
  Na  Na4  1  0.34957532  0.03202203  0.91738760  1
  Na  Na5  1  0.48463838  0.30487595  0.41732300  1
  Na  Na6  1  0.00121607  0.00777233  0.49860009  1
  Na  Na7  1  0.50116248  0.99996544  0.50191890  1
  Na  Na8  1  0.00513686  0.00899181  0.99868293  1
  Na  Na9  1  0.50418814  0.99942596  0.99939656  1
  Na  Na10  1  0.33535006  0.34075896  0.83417991  1
  Na  Na11  1  0.83685790  0.34077489  0.83518631  1
  Na  Na12  1  0.33199501  0.33718102  0.33262397  1
  Na  Na13  1  0.83608375  0.33762886  0.33451975  1
  Na  Na14  1  0.16762062  0.66442849  0.16469741  1
  Na  Na15  1  0.66330323  0.66211154  0.16566602  1
  Na  Na16  1  0.17069570  0.67097681  0.66712370  1
  Na  Na17  1  0.66921189  0.65926022  0.66759925  1
  Ta  Ta0  1  0.99308482  0.99519390  0.35740450  1
  Ta  Ta1  1  0.49386952  0.99251315  0.35574230  1
  Ta  Ta2  1  0.99269894  0.99013898  0.85816216  1
  Ta  Ta3  1  0.50153606  0.99815750  0.85467571  1
  Ta  Ta4  1  0.99549999  0.99174923  0.64394080  1
  Ta  Ta5  1  0.49929289  0.00427777  0.64626101  1
  Ta  Ta6  1  0.99801676  0.00856521  0.14331535  1
  Ta  Ta7  1  0.49370932  0.00331465  0.14208564  1
  Ta  Ta8  1  0.33723455  0.33205921  0.68618938  1
  Ta  Ta9  1  0.83557293  0.33868573  0.68868277  1
  Ta  Ta10  1  0.33824910  0.34151264  0.18577878  1
  Ta  Ta11  1  0.83877763  0.34286552  0.18607985  1
  Ta  Ta12  1  0.33305235  0.33888001  0.97914578  1
  Ta  Ta13  1  0.83292891  0.33165222  0.97730710  1
  Ta  Ta14  1  0.33062315  0.33450024  0.47875817  1
  Ta  Ta15  1  0.83487415  0.33202022  0.47783478  1
  Ta  Ta16  1  0.16660619  0.66430386  0.02163196  1
  Ta  Ta17  1  0.66361598  0.66521562  0.02095388  1
  Ta  Ta18  1  0.16805063  0.66524531  0.52085051  1
  Ta  Ta19  1  0.66876344  0.66933809  0.52128345  1
  Ta  Ta20  1  0.16656283  0.65726762  0.31364534  1
  Ta  Ta21  1  0.66802635  0.65792252  0.31330883  1
  Ta  Ta22  1  0.16700202  0.67527308  0.81443387  1
  Ta  Ta23  1  0.66580566  0.66231025  0.81276081  1
  Si  Si0  1  0.35420747  0.70918003  0.24912557  1
  Si  Si1  1  0.85561115  0.71121596  0.24940948  1
  Si  Si2  1  0.99917172  0.28888244  0.25085626  1
  Si  Si3  1  0.49921790  0.28845334  0.25016116  1
  Si  Si4  1  0.64413346  0.29143242  0.75001132  1
  Si  Si5  1  0.00174687  0.71357028  0.75019000  1
  Si  Si6  1  0.49736960  0.70785899  0.74961179  1
  Si  Si7  1  0.35479966  0.99788909  0.75100754  1
  Si  Si8  1  0.85633861  0.00073760  0.75059150  1
  Si  Si9  1  0.47761271  0.32946981  0.58118883  1
  Si  Si10  1  0.97713755  0.33034143  0.58326811  1
  Si  Si11  1  0.18987601  0.04616018  0.58380767  1
  Si  Si12  1  0.69049793  0.04926806  0.58368837  1
  Si  Si13  1  0.33129169  0.61979962  0.58455002  1
  Si  Si14  1  0.82975677  0.61475403  0.58291017  1
  Si  Si15  1  0.47888415  0.62511696  0.08291384  1
  Si  Si16  1  0.98006051  0.62333693  0.08195954  1
  Si  Si17  1  0.32990948  0.04602382  0.08252062  1
  Si  Si18  1  0.83077772  0.04793929  0.08332452  1
  Si  Si19  1  0.19050188  0.33426320  0.08401278  1
  Si  Si20  1  0.68869749  0.32930141  0.08336371  1
  Si  Si21  1  0.30951433  0.66287147  0.91598872  1
  Si  Si22  1  0.80755110  0.66108933  0.91795052  1
  Si  Si23  1  0.02330585  0.38014763  0.91637883  1
  Si  Si24  1  0.52250750  0.37842716  0.91670361  1
  Si  Si25  1  0.16481827  0.95585826  0.91837802  1
  Si  Si26  1  0.66678516  0.95462473  0.91608382  1
  Si  Si27  1  0.30733509  0.95325584  0.41607064  1
  Si  Si28  1  0.80791324  0.95417012  0.41602884  1
  Si  Si29  1  0.16593483  0.37548341  0.41703987  1
  Si  Si30  1  0.66857872  0.37669822  0.41759991  1
  Si  Si31  1  0.02356703  0.66750582  0.41663854  1
  Si  Si32  1  0.52404528  0.67047377  0.41663252  1
  S  S0  1  0.14341486  -0.00019300  0.25008608  1
  S  S1  1  0.64325428  -0.00031928  0.24983670  1
  S  S2  1  0.14354396  0.28653973  0.75017197  1
  O  O0  1  0.10362481  0.02646893  0.30309070  1
  O  O1  1  0.60282668  0.02595384  0.30331391  1
  O  O2  1  0.41677421  0.80462058  0.30671566  1
  O  O3  1  0.91761301  0.80550036  0.30629824  1
  O  O4  1  0.48806946  0.17047961  0.30867561  1
  O  O5  1  0.98809082  0.16584747  0.30708601  1
  O  O6  1  0.10419168  0.18147092  0.80271267  1
  O  O7  1  0.59854763  0.16343873  0.80624610  1
  O  O8  1  0.48467477  0.80419381  0.80655975  1
  O  O9  1  0.98892694  0.81285469  0.80616810  1
  O  O10  1  0.41426766  0.03010726  0.80926522  1
  O  O11  1  0.91810040  0.03061721  0.80694596  1
  O  O12  1  0.40255315  0.97190034  0.69336337  1
  O  O13  1  0.90527698  0.97499479  0.69347613  1
  O  O14  1  0.09027923  0.20535792  0.69668602  1
  O  O15  1  0.58364752  0.19574365  0.69249644  1
  O  O16  1  0.01558795  0.83158059  0.69110101  1
  O  O17  1  0.51601261  0.83048061  0.69136378  1
  O  O18  1  0.40451536  0.83330138  0.19321814  1
  O  O19  1  0.90279878  0.82982920  0.19134917  1
  O  O20  1  0.01456906  0.19513236  0.19347096  1
  O  O21  1  0.51487939  0.19419153  0.19382862  1
  O  O22  1  0.08997897  0.97359919  0.19709446  1
  O  O23  1  0.59048580  0.97271485  0.19733323  1
  O  O24  1  0.43246492  0.36693620  0.63864730  1
  O  O25  1  0.93216952  0.36808837  0.63987526  1
  O  O26  1  0.25002297  0.13819792  0.64111208  1
  O  O27  1  0.74869098  0.13453407  0.64265309  1
  O  O28  1  0.31840451  0.49738927  0.64130997  1
  O  O29  1  0.81843050  0.50024807  0.64113532  1
  O  O30  1  0.43289698  0.50158595  0.14072759  1
  O  O31  1  0.93296328  0.50205438  0.14065974  1
  O  O32  1  0.31888474  0.14004449  0.14072481  1
  O  O33  1  0.81818211  0.13871828  0.14168849  1
  O  O34  1  0.25081094  0.36132029  0.14150805  1
  O  O35  1  0.75233743  0.36618213  0.14052424  1
  O  O36  1  0.23519237  0.30187024  0.02634845  1
  O  O37  1  0.73555742  0.30277225  0.02612470  1
  O  O38  1  0.41702090  0.53188485  0.02625024  1
  O  O39  1  0.91425066  0.53488686  0.02707476  1
  O  O40  1  0.34803300  0.16409018  0.02394990  1
  O  O41  1  0.84905865  0.16897082  0.02626408  1
  O  O42  1  0.23566601  0.16760435  0.52624030  1
  O  O43  1  0.73683583  0.17034866  0.52657599  1
  O  O44  1  0.35035252  0.53034083  0.52738221  1
  O  O45  1  0.85236124  0.53289767  0.52659168  1
  O  O46  1  0.41882159  0.30396591  0.52330968  1
  O  O47  1  0.91706315  0.30067078  0.52590985  1
  O  O48  1  0.26566472  0.70214636  0.97262279  1
  O  O49  1  0.76689238  0.69639456  0.97678985  1
  O  O50  1  0.08420125  0.47062126  0.97369182  1
  O  O51  1  0.58365476  0.47032708  0.97389618  1
  O  O52  1  0.15063137  0.83229382  0.97437404  1
  O  O53  1  0.65249709  0.83168304  0.97331199  1
  O  O54  1  0.26450108  0.83261557  0.47374044  1
  O  O55  1  0.76383840  0.83156810  0.47351529  1
  O  O56  1  0.15080287  0.46848328  0.47389704  1
  O  O57  1  0.64739119  0.46696657  0.47294250  1
  O  O58  1  0.08182883  0.69710979  0.47580638  1
  O  O59  1  0.58116525  0.69737311  0.47585229  1
  O  O60  1  0.07086149  0.63911092  0.35952206  1
  O  O61  1  0.56958769  0.63382147  0.36030451  1
  O  O62  1  0.24937293  0.86257690  0.35830120  1
  O  O63  1  0.74874191  0.86106353  0.35849214  1
  O  O64  1  0.18212707  0.49892953  0.35936404  1
  O  O65  1  0.68176895  0.49832841  0.35953444  1
  O  O66  1  0.06967271  0.50150126  0.85857475  1
  O  O67  1  0.56875723  0.50065583  0.85945929  1
  O  O68  1  0.18397612  0.86664760  0.86042835  1
  O  O69  1  0.68096063  0.86698066  0.85688135  1
  O  O70  1  0.24921531  0.63644365  0.85839870  1
  O  O71  1  0.74922586  0.63869559  0.85989203  1
  O  O72  1  0.01452333  0.83977124  0.40724043  1
  O  O73  1  0.51442231  0.84121131  0.40765588  1
  O  O74  1  0.40593926  0.97887935  0.40898093  1
  O  O75  1  0.90416073  0.97260296  0.40963517  1
  O  O76  1  0.08194272  0.18481140  0.40723340  1
  O  O77  1  0.58022175  0.18946035  0.40731584  1
  O  O78  1  0.01448365  0.18983865  0.90696775  1
  O  O79  1  0.50959842  0.18448176  0.90937394  1
  O  O80  1  0.08177040  0.97959155  0.90749406  1
  O  O81  1  0.58053445  0.97327191  0.90922835  1
  O  O82  1  0.40399450  0.83979171  0.90879373  1
  O  O83  1  0.90422516  0.83557551  0.91010861  1
  O  O84  1  0.48720517  0.15988005  0.58951186  1
  O  O85  1  0.99004425  0.16387688  0.59292912  1
  O  O86  1  0.09281650  0.02132211  0.59178461  1
  O  O87  1  0.59197698  0.01777936  0.59038261  1
  O  O88  1  0.42013344  0.80737045  0.59112585  1
  O  O89  1  0.91892227  0.80727027  0.59100982  1
  O  O90  1  0.48922005  0.81475799  0.09325643  1
  O  O91  1  0.98594850  0.81115824  0.09311715  1
  O  O92  1  0.41707857  0.02708572  0.09053018  1
  O  O93  1  0.91668955  0.02197331  0.09102806  1
  O  O94  1  0.09497392  0.16029177  0.09285148  1
  O  O95  1  0.59376741  0.15940353  0.09280449  1
  O  O96  1  0.34323360  0.16841616  0.74193889  1
  O  O97  1  0.84370629  0.16885459  0.74274421  1
  O  O98  1  0.23091814  0.30561515  0.74350088  1
  O  O99  1  0.73783022  0.30170496  0.74278648  1
  O  O100  1  0.41121004  0.51692836  0.74304987  1
  O  O101  1  0.91493102  0.52355342  0.74274593  1
  O  O102  1  0.34308181  0.51642444  0.24338283  1
  O  O103  1  0.84305026  0.51697920  0.24300268  1
  O  O104  1  0.41204400  0.30377574  0.24347364  1
  O  O105  1  0.91214329  0.30400958  0.24325046  1
  O  O106  1  0.23071176  0.15571135  0.24416919  1
  O  O107  1  0.73064792  0.15627392  0.24472704  1
  O  O108  1  0.32035361  0.49384643  0.92317391  1
  O  O109  1  0.82053768  0.49479633  0.92361005  1
  O  O110  1  0.42551248  0.35195337  0.92372437  1
  O  O111  1  0.92796252  0.35968952  0.92440779  1
  O  O112  1  0.25418848  0.14250296  0.92391792  1
  O  O113  1  0.75221152  0.14532103  0.92391069  1
  O  O114  1  0.32483666  0.15018145  0.42325523  1
  O  O115  1  0.82045810  0.14570487  0.42337545  1
  O  O116  1  0.25267008  0.36000390  0.42408653  1
  O  O117  1  0.75348041  0.35928556  0.42412594  1
  O  O118  1  0.42927433  0.49466608  0.42372735  1
  O  O119  1  0.92797641  0.49667644  0.42409353  1
  O  O120  1  0.17977070  0.50313108  0.07586878  1
  O  O121  1  0.68251964  0.50583200  0.07652521  1
  O  O122  1  0.07411757  0.64166402  0.07665691  1
  O  O123  1  0.57334616  0.64137412  0.07670404  1
  O  O124  1  0.24717674  0.85312684  0.07618536  1
  O  O125  1  0.74987443  0.85047060  0.07717191  1
  O  O126  1  0.17536442  0.85126368  0.57638445  1
  O  O127  1  0.67643438  0.85276859  0.57582610  1
  O  O128  1  0.24685577  0.64095867  0.57648252  1
  O  O129  1  0.74693763  0.64110452  0.57596611  1
  O  O130  1  0.07112084  0.50745116  0.57614482  1
  O  O131  1  0.57107353  0.50804348  0.57603134  1
  O  O132  1  0.15237161  0.84359379  0.25560454  1
  O  O133  1  0.65246455  0.84369857  0.25667983  1
  O  O134  1  0.26005239  0.69575789  0.25710827  1
  O  O135  1  0.76048112  0.69595832  0.25699648  1
  O  O136  1  0.08442727  0.48246591  0.25716830  1
  O  O137  1  0.58437869  0.48288357  0.25736822  1
  O  O138  1  0.15274263  0.46125043  0.75501853  1
  O  O139  1  0.65424756  0.48125122  0.75638363  1
  O  O140  1  0.08616813  0.68914759  0.75705503  1
  O  O141  1  0.58577943  0.69666198  0.75687004  1
  O  O142  1  0.25940636  0.82370744  0.75702294  1
  O  O143  1  0.75929435  0.83259838  0.75634852  1
loop_
_geom_bond_atom_site_label_1
_geom_bond_atom_site_label_2
_geom_bond_distance
_geom_bond_site_symmetry_2
Na0 O99 2.369221 1_565
Na0 O141 2.371654 1_555
Na0 O143 2.484356 1_555
Na0 O97 2.498403 1_565
Na0 O69 2.695947 1_555
Na0 O27 2.729981 1_565
Na0 O7 2.864489 1_565
Na0 O17 2.903219 1_555
Na1 O130 2.337697 1_555
Na1 O89 2.403204 1_455
Na1 O126 2.468376 1_555
Na1 O86 2.527990 1_565
Na1 O58 2.693704 1_555
Na1 O16 2.760761 1_555
Na1 O45 2.828783 1_455
Na1 O25 2.848067 1_455
Na2 O88 2.356200 1_555
Na2 O131 2.368208 1_555
Na2 O87 2.457296 1_565
Na2 O127 2.479578 1_555
Na2 O59 2.714165 1_555
Na2 O17 2.721412 1_555
Na2 O44 2.866669 1_555
Na2 O24 2.867370 1_555
Na3 O121 2.342748 1_555
Na3 O91 2.412115 1_555
Na3 O125 2.484049 1_555
Na3 O93 2.536072 1_565
Na3 O49 2.670086 1_554
Na3 O19 2.781749 1_555
Na3 O39 2.797207 1_555
Na3 O35 2.868548 1_555
Na4 O112 2.363133 1_555
Na4 O82 2.366670 1_545
Na4 O110 2.475583 1_555
Na4 O79 2.480459 1_555
Na4 O40 2.704025 1_556
Na4 O10 2.724069 1_555
Na4 O48 2.842714 1_545
Na4 O68 2.869998 1_545
Na5 O118 2.356006 1_555
Na5 O77 2.406945 1_555
Na5 O114 2.473478 1_555
Na5 O74 2.524714 1_545
Na5 O46 2.683366 1_555
Na5 O4 2.763672 1_555
Na5 O57 2.816972 1_555
Na5 O61 2.854839 1_555
Na6 O76 2.574805 1_555
Na6 O75 2.583981 1_445
Na6 O85 2.621333 1_455
Na6 O72 2.643296 1_545
Na6 O86 2.648156 1_555
Na6 O89 2.676677 1_445
Na7 O84 2.536055 1_565
Na7 O87 2.543845 1_565
Na7 O88 2.586779 1_555
Na7 O73 2.646715 1_555
Na7 O74 2.665113 1_555
Na7 O77 2.666798 1_565
Na8 O80 2.571708 1_545
Na8 O78 2.596892 1_555
Na8 O94 2.613381 1_556
Na8 O83 2.630501 1_445
Na8 O93 2.667169 1_456
Na8 O91 2.696737 1_446
Na9 O81 2.539381 1_555
Na9 O79 2.607493 1_565
Na9 O95 2.614837 1_566
Na9 O90 2.633167 1_556
Na9 O82 2.634046 1_555
Na9 O92 2.678080 1_566
Na10 O108 2.531749 1_555
Na10 O100 2.547231 1_555
Na10 O110 2.572150 1_555
Na10 O112 2.616623 1_555
Na10 O96 2.648003 1_555
Na10 O98 2.696458 1_555
Na11 O109 2.535360 1_555
Na11 O111 2.558183 1_555
Na11 O101 2.601227 1_555
Na11 O113 2.603086 1_555
Na11 O97 2.643073 1_555
Na11 O99 2.659765 1_555
Na12 O102 2.535458 1_555
Na12 O116 2.583702 1_555
Na12 O104 2.584681 1_555
Na12 O118 2.618251 1_555
Na12 O114 2.620458 1_555
Na12 O106 2.649328 1_555
Na13 O119 2.556965 1_555
Na13 O115 2.577798 1_555
Na13 O117 2.581223 1_555
Na13 O105 2.581271 1_555
Na13 O103 2.596215 1_555
Na13 O107 2.700957 1_555
Na14 O120 2.553725 1_555
Na14 O122 2.554342 1_555
Na14 O124 2.555049 1_555
Na14 O134 2.604718 1_555
Na14 O136 2.620996 1_555
Na14 O132 2.710970 1_555
Na15 O123 2.537067 1_555
Na15 O137 2.579845 1_555
Na15 O121 2.580835 1_555
Na15 O125 2.584664 1_555
Na15 O135 2.630397 1_555
Na15 O133 2.696355 1_555
Na16 O142 2.529593 1_555
Na16 O128 2.558741 1_555
Na16 O140 2.596943 1_555
Na16 O126 2.598165 1_555
Na16 O130 2.643465 1_555
Na16 O138 2.651358 1_555
Na17 O139 2.504917 1_555
Na17 O129 2.555949 1_555
Na17 O143 2.563994 1_555
Na17 O131 2.622210 1_555
Na17 O141 2.638502 1_555
Na17 O127 2.676522 1_555
O0 S0 1.479132 1_555
O0 Ta0 2.225162 1_445
O1 S1 1.492919 1_555
O1 Ta1 2.172004 1_545
O2 Si0 1.655975 1_555
O2 Ta1 1.907307 1_555
O3 Si1 1.637292 1_555
O3 Ta0 1.935960 1_555
O4 Si3 1.649541 1_555
O4 Ta1 1.963897 1_545
O5 Si2 1.635201 1_555
O5 Ta0 1.945960 1_545
O6 S2 1.465521 1_555
O6 Ta2 2.251206 1_445
O7 Si4 1.637003 1_555
O7 Ta3 1.957793 1_545
O8 Si6 1.632998 1_555
O8 Ta3 1.939659 1_555
O9 Si5 1.632400 1_655
O9 Ta2 1.949396 1_555
O10 Si7 1.634045 1_545
O10 Ta3 2.008661 1_545
O11 Si8 1.626474 1_555
O11 Ta2 1.938593 1_545
O12 Si7 1.643850 1_555
O12 Ta5 1.928099 1_565
O13 Si8 1.645979 1_565
O13 Ta4 1.910150 1_555
O14 S2 1.491494 1_555
O14 Ta4 2.169134 1_445
O15 Si4 1.639837 1_555
O15 Ta5 1.927587 1_555
O16 Si5 1.651420 1_555
O16 Ta4 1.962107 1_455
O17 Si6 1.646057 1_555
O17 Ta5 2.006121 1_565
O18 Si0 1.631383 1_555
O18 Ta7 1.942806 1_565
O19 Si1 1.639774 1_555
O19 Ta6 1.978606 1_565
O20 Si2 1.647099 1_455
O20 Ta6 1.915199 1_455
O21 Si3 1.632891 1_555
O21 Ta7 1.945418 1_555
O22 S0 1.484124 1_565
O22 Ta6 2.195507 1_465
O23 S1 1.467234 1_565
O23 Ta7 2.264996 1_565
O24 Si9 1.656424 1_555
O24 Ta8 1.905243 1_555
O25 Si10 1.640370 1_555
O25 Ta9 1.955899 1_555
O26 Si11 1.627670 1_555
O26 Ta8 1.941589 1_555
O27 Si12 1.634664 1_555
O27 Ta9 1.997410 1_555
O28 Si13 1.634692 1_555
O28 Ta8 1.960149 1_555
O29 Si14 1.625800 1_555
O29 Ta9 1.948821 1_555
O30 Si15 1.649266 1_555
O30 Ta10 1.878999 1_555
O31 Si16 1.660636 1_555
O31 Ta11 1.876909 1_555
O32 Si17 1.632280 1_555
O32 Ta10 1.943910 1_555
O33 Si18 1.629491 1_555
O33 Ta11 1.949826 1_555
O34 Si19 1.636383 1_555
O34 Ta10 1.942017 1_555
O35 Si20 1.650737 1_555
O35 Ta11 1.957971 1_555
O36 Si19 1.635811 1_555
O36 Ta12 1.933750 1_554
O37 Si20 1.629032 1_555
O37 Ta13 1.968764 1_554
O38 Si15 1.630579 1_555
O38 Ta12 1.942981 1_554
O39 Si16 1.624558 1_555
O39 Ta13 2.010118 1_554
O40 Si17 1.630611 1_555
O40 Ta12 1.993605 1_554
O41 Si18 1.617056 1_555
O41 Ta13 1.965603 1_554
O42 Si11 1.636432 1_555
O42 Ta14 1.931990 1_555
O43 Si12 1.628456 1_555
O43 Ta15 1.961594 1_555
O44 Si13 1.649083 1_555
O44 Ta14 1.945420 1_555
O45 Si14 1.623616 1_555
O45 Ta15 1.994961 1_555
O46 Si9 1.630254 1_555
O46 Ta14 2.006063 1_555
O47 Si10 1.627309 1_555
O47 Ta15 1.962786 1_555
O48 Si21 1.635251 1_555
O48 Ta16 1.972177 1_556
O49 Si22 1.628181 1_555
O49 Ta17 1.993814 1_556
O50 Si23 1.631047 1_555
O50 Ta16 1.947695 1_556
O51 Si24 1.632802 1_555
O51 Ta17 1.928960 1_556
O52 Si25 1.622699 1_555
O52 Ta16 1.981532 1_556
O53 Si26 1.641275 1_555
O53 Ta17 1.931137 1_556
O54 Si27 1.627284 1_555
O54 Ta18 1.941875 1_555
O55 Si28 1.634541 1_555
O55 Ta19 1.923331 1_555
O56 Si29 1.631605 1_555
O56 Ta18 1.943335 1_555
O57 Si30 1.638569 1_555
O57 Ta19 1.981227 1_555
O58 Si31 1.642586 1_555
O58 Ta18 1.988088 1_555
O59 Si32 1.636227 1_555
O59 Ta19 1.995514 1_555
O60 Si31 1.638159 1_555
O60 Ta20 1.939134 1_555
O61 Si32 1.637089 1_555
O61 Ta21 1.975394 1_555
O62 Si27 1.618542 1_555
O62 Ta20 1.964621 1_555
O63 Si28 1.626631 1_555
O63 Ta21 1.949678 1_555
O64 Si29 1.646234 1_555
O64 Ta20 1.887158 1_555
O65 Si30 1.653236 1_555
O65 Ta21 1.885993 1_555
O66 Si23 1.642175 1_555
O66 Ta22 1.932711 1_555
O67 Si24 1.634818 1_555
O67 Ta23 1.926247 1_555
O68 Si25 1.662662 1_555
O68 Ta22 1.893185 1_555
O69 Si26 1.640481 1_555
O69 Ta23 1.980052 1_555
O70 Si21 1.639052 1_555
O70 Ta22 1.948707 1_555
O71 Si22 1.634101 1_555
O71 Ta23 1.933816 1_555
O72 Si31 1.639354 1_555
O72 Ta0 1.975303 1_455
O73 Si32 1.630554 1_555
O73 Ta1 1.965583 1_555
O74 Si27 1.666261 1_555
O74 Ta1 1.938614 1_555
O75 Si28 1.649315 1_555
O75 Ta0 1.911976 1_555
O76 Si29 1.623221 1_555
O76 Ta0 1.994027 1_445
O77 Si30 1.640703 1_555
O77 Ta1 2.031746 1_545
O78 Si23 1.639261 1_555
O78 Ta2 1.965907 1_445
O79 Si24 1.636166 1_555
O79 Ta3 2.023445 1_545
O80 Si25 1.619955 1_555
O80 Ta2 1.990122 1_455
O81 Si26 1.638454 1_555
O81 Ta3 1.976683 1_555
O82 Si21 1.641583 1_555
O82 Ta3 2.020947 1_555
O83 Si22 1.655610 1_555
O83 Ta2 1.901447 1_555
O84 Si9 1.618279 1_555
O84 Ta5 1.989230 1_555
O85 Si10 1.629456 1_555
O85 Ta4 1.969548 1_545
O86 Si11 1.643843 1_555
O86 Ta4 2.010014 1_445
O87 Si12 1.644070 1_555
O87 Ta5 2.042707 1_555
O88 Si13 1.636357 1_555
O88 Ta5 2.042272 1_565
O89 Si14 1.666458 1_555
O89 Ta4 1.942995 1_555
O90 Si15 1.625012 1_555
O90 Ta7 1.984064 1_565
O91 Si16 1.645779 1_555
O91 Ta6 2.018237 1_565
O92 Si17 1.658938 1_555
O92 Ta7 1.896464 1_555
O93 Si18 1.672754 1_555
O93 Ta6 1.930034 1_555
O94 Si19 1.644686 1_555
O94 Ta6 1.950128 1_455
O95 Si20 1.625200 1_555
O95 Ta7 1.974466 1_555
O96 Si7 1.649160 1_545
O96 Ta8 1.980894 1_555
O97 Si8 1.635926 1_555
O97 Ta9 2.016394 1_555
O98 S2 1.490394 1_555
O98 Ta8 2.216698 1_555
O99 Si4 1.637876 1_555
O99 Ta9 2.023771 1_555
O100 Si6 1.631951 1_555
O100 Ta8 1.989381 1_555
O101 Si5 1.634254 1_655
O101 Ta9 1.975100 1_555
O102 Si0 1.635112 1_555
O102 Ta10 2.006754 1_555
O103 Si1 1.639198 1_555
O103 Ta11 1.994747 1_555
O104 Si3 1.637614 1_555
O104 Ta10 2.008102 1_555
O105 Si2 1.636171 1_555
O105 Ta11 1.999594 1_555
O106 S0 1.486256 1_555
O106 Ta10 2.239535 1_555
O107 S1 1.488227 1_555
O107 Ta11 2.250346 1_555
O108 Si21 1.623354 1_555
O108 Ta12 1.978501 1_555
O109 Si22 1.618839 1_555
O109 Ta13 1.999582 1_555
O110 Si24 1.634754 1_555
O110 Ta12 2.034441 1_555
O111 Si23 1.629451 1_655
O111 Ta13 1.991906 1_555
O112 Si25 1.634322 1_545
O112 Ta12 2.039772 1_555
O113 Si26 1.628188 1_545
O113 Ta13 1.979258 1_555
O114 Si27 1.631707 1_545
O114 Ta14 2.034864 1_555
O115 Si28 1.617501 1_545
O115 Ta15 1.984195 1_555
O116 Si29 1.631417 1_555
O116 Ta14 1.966639 1_555
O117 Si30 1.607529 1_555
O117 Ta15 2.008238 1_555
O118 Si32 1.639809 1_555
O118 Ta14 2.048074 1_555
O119 Si31 1.630047 1_655
O119 Ta15 1.993546 1_555
O120 Si19 1.623227 1_555
O120 Ta16 2.000007 1_555
O121 Si20 1.641763 1_555
O121 Ta17 2.057249 1_555
O122 Si16 1.608860 1_455
O122 Ta16 2.000959 1_555
O123 Si15 1.625587 1_555
O123 Ta17 1.977725 1_555
O124 Si17 1.617358 1_565
O124 Ta16 2.005334 1_555
O125 Si18 1.630521 1_565
O125 Ta17 2.047288 1_555
O126 Si11 1.633797 1_565
O126 Ta18 2.037640 1_555
O127 Si12 1.651966 1_565
O127 Ta19 2.003397 1_555
O128 Si13 1.622249 1_555
O128 Ta18 1.987140 1_555
O129 Si14 1.618494 1_555
O129 Ta19 1.981461 1_555
O130 Si10 1.637359 1_455
O130 Ta18 2.030543 1_555
O131 Si9 1.634478 1_555
O131 Ta19 2.038197 1_555
O132 S0 1.486854 1_565
O132 Ta20 2.238889 1_555
O133 S1 1.490343 1_565
O133 Ta21 2.228137 1_555
O134 Si0 1.635167 1_555
O134 Ta20 1.996926 1_555
O135 Si1 1.644281 1_555
O135 Ta21 1.980788 1_555
O136 Si2 1.638550 1_455
O136 Ta20 1.986171 1_555
O137 Si3 1.644235 1_555
O137 Ta21 1.988664 1_555
O138 S2 1.487924 1_555
O138 Ta22 2.247755 1_555
O139 Si4 1.617730 1_555
O139 Ta23 1.991139 1_555
O140 Si5 1.636267 1_555
O140 Ta22 1.999004 1_555
O141 Si6 1.640474 1_555
O141 Ta23 2.051054 1_555
O142 Si7 1.637474 1_555
O142 Ta22 1.999451 1_555
O143 Si8 1.632204 1_565
O143 Ta23 2.050896 1_555
