# generated using pymatgen
data_MgFe6(OF)6
_symmetry_space_group_name_H-M   'P 1'
_cell_length_a   14.61868238
_cell_length_b   5.18669793
_cell_length_c   3.18241890
_cell_angle_alpha   90.09073445
_cell_angle_beta   88.54304952
_cell_angle_gamma   83.31707029
_symmetry_Int_Tables_number   1
_chemical_formula_structural   MgFe6(OF)6
_chemical_formula_sum   'Mg1 Fe6 O6 F6'
_cell_volume   239.58003136
_cell_formula_units_Z   1
loop_
 _symmetry_equiv_pos_site_id
 _symmetry_equiv_pos_as_xyz
  1  'x, y, z'
loop_
 _atom_site_type_symbol
 _atom_site_label
 _atom_site_symmetry_multiplicity
 _atom_site_fract_x
 _atom_site_fract_y
 _atom_site_fract_z
 _atom_site_occupancy
  Mg  Mg0  1  0.34315329  0.40339518  0.54881170  1
  Fe  Fe0  1  0.99933038  0.99580715  0.97814965  1
  Fe  Fe1  1  0.09590556  0.44466232  0.46796666  1
  Fe  Fe2  1  0.34787861  0.89212130  0.04717842  1
  Fe  Fe3  1  0.54986704  0.68536847  0.53365814  1
  Fe  Fe4  1  0.69147710  0.07020360  0.01597148  1
  Fe  Fe5  1  0.81410664  0.53179838  0.50019071  1
  O  O0  1  0.04072190  0.80533120  0.47309593  1
  O  O1  1  0.08434577  0.24242187  0.96756795  1
  O  O2  1  0.42064541  0.69964174  0.55425019  1
  O  O3  1  0.58434688  0.84452956  0.02955921  1
  O  O4  1  0.73994468  0.88442064  0.50969967  1
  O  O5  1  0.75784679  0.37919440  0.00681842  1
  F  F0  1  0.26736986  0.57127568  0.06081332  1
  F  F1  1  0.27439652  0.09617432  0.53461896  1
  F  F2  1  0.41126853  0.23476220  0.03919463  1
  F  F3  1  0.60274861  0.31558272  0.52595173  1
  F  F4  1  0.88825052  0.68043706  0.99074082  1
  F  F5  1  0.91510390  0.20898520  0.48659542  1
loop_
_geom_bond_atom_site_label_1
_geom_bond_atom_site_label_2
_geom_bond_distance
_geom_bond_site_symmetry_2
Mg0 O2 2.012614 1_555
Fe0 O1 1.884109 1_665
Fe0 O0 1.931820 1_655
Fe0 O0 1.933247 1_656
Fe1 O1 1.920849 1_555
Fe1 O1 1.927307 1_554
Fe1 O0 1.948971 1_555
Fe2 O2 2.062058 1_554
Fe2 O2 2.139518 1_555
Fe3 O2 1.881336 1_555
Fe3 O3 1.886618 1_556
Fe3 O3 1.889207 1_555
Fe4 O4 1.949838 1_545
Fe4 O4 1.950521 1_544
Fe4 O5 1.967560 1_555
Fe4 O3 2.061068 1_545
Fe5 O5 1.995349 1_555
Fe5 O5 1.997635 1_556
Fe5 O4 2.014444 1_555
F0 Mg0 2.065102 1_555
F0 Mg0 2.078384 1_554
F0 Fe2 2.147060 1_555
F1 Mg0 1.981493 1_555
F1 Fe2 2.079869 1_545
F1 Fe2 2.182833 1_546
F2 Mg0 2.018083 1_554
F2 Mg0 2.024228 1_555
F2 Fe2 2.097613 1_545
F3 Fe3 1.982576 1_555
F3 Fe4 2.332048 1_555
F3 Fe4 2.336457 1_556
F4 Fe5 2.117317 1_555
F4 Fe5 2.122925 1_556
F4 Fe0 2.434994 1_555
F5 Fe5 2.099122 1_555
F5 Fe0 2.221027 1_544
F5 Fe0 2.229863 1_545
