# generated using pymatgen
data_CaSn
_symmetry_space_group_name_H-M   'P 1'
_cell_length_a   4.82751741
_cell_length_b   4.38320957
_cell_length_c   6.23944918
_cell_angle_alpha   90.00000000
_cell_angle_beta   112.75888988
_cell_angle_gamma   90.00000000
_symmetry_Int_Tables_number   1
_chemical_formula_structural   CaSn
_chemical_formula_sum   'Ca2 Sn2'
_cell_volume   121.74738699
_cell_formula_units_Z   2
loop_
 _symmetry_equiv_pos_site_id
 _symmetry_equiv_pos_as_xyz
  1  'x, y, z'
loop_
 _atom_site_type_symbol
 _atom_site_label
 _atom_site_symmetry_multiplicity
 _atom_site_fract_x
 _atom_site_fract_y
 _atom_site_fract_z
 _atom_site_occupancy
  Ca  Ca0  1  0.13331289  0.75000000  0.26662679  1
  Ca  Ca1  1  0.86668711  0.25000000  0.73337321  1
  Sn  Sn0  1  0.41565310  0.75000000  0.83130619  1
  Sn  Sn1  1  0.58434690  0.25000000  0.16869381  1
loop_
_geom_bond_atom_site_label_1
_geom_bond_atom_site_label_2
_geom_bond_distance
_geom_bond_site_symmetry_2
Ca0 Sn0 3.248969 1_555
Ca0 Sn1 3.308603 1_465
Ca0 Sn1 3.308603 1_455
Ca0 Sn1 3.308606 1_565
Ca0 Sn1 3.308606 1_555
Ca0 Sn0 3.478457 1_454
Ca0 Sn0 3.478459 1_554
Ca1 Sn1 3.248969 1_555
Ca1 Sn0 3.308603 1_655
Ca1 Sn0 3.308603 1_645
Ca1 Sn0 3.308606 1_555
Ca1 Sn0 3.308606 1_545
Ca1 Sn1 3.478457 1_656
Ca1 Sn1 3.478459 1_556
Sn0 Sn1 2.927701 1_566
Sn0 Sn1 2.927701 1_556
