# generated using pymatgen
data_Na12Nb2Zn4Si6(SO12)3
_symmetry_space_group_name_H-M   'P 1'
_cell_length_a   9.23178550
_cell_length_b   9.22234229
_cell_length_c   22.18190014
_cell_angle_alpha   89.99659756
_cell_angle_beta   90.00000000
_cell_angle_gamma   120.03387777
_symmetry_Int_Tables_number   1
_chemical_formula_structural   Na12Nb2Zn4Si6(SO12)3
_chemical_formula_sum   'Na24 Nb4 Zn8 Si12 S6 O72'
_cell_volume   1634.96311803
_cell_formula_units_Z   2
loop_
 _symmetry_equiv_pos_site_id
 _symmetry_equiv_pos_as_xyz
  1  'x, y, z'
loop_
 _atom_site_type_symbol
 _atom_site_label
 _atom_site_symmetry_multiplicity
 _atom_site_fract_x
 _atom_site_fract_y
 _atom_site_fract_z
 _atom_site_occupancy
  Na  Na0  1  0.64661634  0.02063931  0.25296919  1
  Na  Na1  1  0.35314999  0.34146851  0.24955374  1
  Na  Na2  1  0.99290789  0.63190419  0.23903329  1
  Na  Na3  1  0.63899630  0.63190419  0.73903329  1
  Na  Na4  1  0.98831852  0.34146851  0.74955374  1
  Na  Na5  1  0.37402297  0.02063931  0.75296919  1
  Na  Na6  1  0.30183068  0.34530728  0.58632036  1
  Na  Na7  1  0.03667770  0.71035391  0.57857227  1
  Na  Na8  1  0.66595161  0.94450635  0.58270524  1
  Na  Na9  1  0.27855574  0.94450635  0.08270524  1
  Na  Na10  1  0.67367721  0.71035391  0.07857227  1
  Na  Na11  1  0.04347760  0.34530728  0.08632036  1
  Na  Na12  1  0.98620517  0.69836278  0.91425080  1
  Na  Na13  1  0.71408418  0.02508794  0.90880088  1
  Na  Na14  1  0.30711617  0.27899001  0.90922824  1
  Na  Na15  1  0.97187283  0.27899001  0.40922824  1
  Na  Na16  1  0.31100276  0.02508794  0.40880088  1
  Na  Na17  1  0.71215661  0.69836278  0.41425080  1
  Na  Na18  1  0.99186400  0.99340591  0.49371768  1
  Na  Na19  1  0.00154191  0.99340591  0.99371768  1
  Na  Na20  1  0.65424528  0.31947806  0.82397572  1
  Na  Na21  1  0.66523378  0.31947806  0.32397572  1
  Na  Na22  1  0.31438404  0.66418592  0.16228100  1
  Na  Na23  1  0.34980088  0.66418592  0.66228100  1
  Nb  Nb0  1  0.67657798  0.34565100  0.97531929  1
  Nb  Nb1  1  0.66907402  0.34565100  0.47531929  1
  Nb  Nb2  1  0.32394526  0.66547048  0.31748986  1
  Nb  Nb3  1  0.34152422  0.66547048  0.81748986  1
  Zn  Zn0  1  0.01851557  0.01842321  0.34935851  1
  Zn  Zn1  1  -0.00009236  0.01842321  0.84935851  1
  Zn  Zn2  1  0.98024605  0.00076153  0.65897831  1
  Zn  Zn3  1  0.02051549  0.00076153  0.15897831  1
  Zn  Zn4  1  0.64674153  0.32798811  0.68542091  1
  Zn  Zn5  1  0.68124758  0.32798811  0.18542091  1
  Zn  Zn6  1  0.31976016  0.66793292  0.00727990  1
  Zn  Zn7  1  0.34817176  0.66793292  0.50727990  1
  Si  Si0  1  0.30197172  0.00036941  0.24950401  1
  Si  Si1  1  0.00224234  0.29275953  0.24939270  1
  Si  Si2  1  0.29051719  0.29275953  0.74939270  1
  Si  Si3  1  0.69839770  0.00036941  0.74950401  1
  Si  Si4  1  0.66988031  0.63305607  0.58780418  1
  Si  Si5  1  0.96317676  0.63305607  0.08780418  1
  Si  Si6  1  0.62795901  0.67089476  0.92278626  1
  Si  Si7  1  0.04312321  0.37327791  0.92056394  1
  Si  Si8  1  0.33211879  0.96248537  0.92039438  1
  Si  Si9  1  0.63036558  0.96248537  0.42039438  1
  Si  Si10  1  0.33015370  0.37327791  0.42056394  1
  Si  Si11  1  0.04293474  0.67089476  0.42278626  1
  S  S0  1  0.69804963  0.70522663  0.25034128  1
  S  S1  1  0.00717700  0.70522663  0.75034128  1
  S  S2  1  0.95500759  0.33411013  0.58382335  1
  S  S3  1  0.37526823  0.04123447  0.58307836  1
  S  S4  1  0.66596725  0.04123447  0.08307836  1
  S  S5  1  0.37910354  0.33411013  0.08382335  1
  O  O0  1  0.21914022  0.02901011  0.30930587  1
  O  O1  1  0.79897770  0.78237876  0.30485489  1
  O  O2  1  0.96874603  0.17934383  0.30896353  1
  O  O3  1  0.21059780  0.17934383  0.80896353  1
  O  O4  1  0.98340106  0.78237876  0.80485489  1
  O  O5  1  0.80986989  0.02901011  0.80930587  1
  O  O6  1  0.76088190  0.94464518  0.68936931  1
  O  O7  1  0.17557508  0.21557086  0.68835193  1
  O  O8  1  0.03201148  0.80629216  0.69488082  1
  O  O9  1  0.77428068  0.80629216  0.19488082  1
  O  O10  1  0.03999577  0.21557086  0.18835193  1
  O  O11  1  0.18376329  0.94464518  0.18936931  1
  O  O12  1  0.87119209  0.34469613  0.63896902  1
  O  O13  1  0.47358984  0.11687432  0.63862033  1
  O  O14  1  0.64833044  0.51570023  0.64503342  1
  O  O15  1  0.86737079  0.51570023  0.14503342  1
  O  O16  1  0.64328548  0.11687432  0.13862033  1
  O  O17  1  0.47350504  0.34469613  0.13896902  1
  O  O18  1  0.47082930  0.31991482  0.02881856  1
  O  O19  1  0.83481635  0.51775490  0.02710758  1
  O  O20  1  0.67673353  0.14790528  0.02879581  1
  O  O21  1  0.47117275  0.14790528  0.52879581  1
  O  O22  1  0.68293955  0.51775490  0.52710758  1
  O  O23  1  0.84908652  0.31991482  0.52881856  1
  O  O24  1  0.54377937  0.69782930  0.98147456  1
  O  O25  1  0.14922920  0.44905341  0.98091246  1
  O  O26  1  0.30284388  0.85815801  0.98146805  1
  O  O27  1  0.55531313  0.85815801  0.48146805  1
  O  O28  1  0.29982321  0.44905341  0.48091246  1
  O  O29  1  0.15404893  0.69782930  0.48147456  1
  O  O30  1  0.13532331  0.63501074  0.36304967  1
  O  O31  1  0.49894383  0.86357819  0.36219726  1
  O  O32  1  0.36878648  0.50134883  0.36154533  1
  O  O33  1  0.13256135  0.50134883  0.86154533  1
  O  O34  1  0.36463336  0.86357819  0.86219726  1
  O  O35  1  0.49968644  0.63501074  0.86304967  1
  O  O36  1  0.00287306  0.81877570  0.41117477  1
  O  O37  1  0.81483403  0.98853940  0.41040579  1
  O  O38  1  0.17831040  0.18448150  0.41376285  1
  O  O39  1  0.00617110  0.18448150  0.91376285  1
  O  O40  1  0.17370537  0.98853940  0.91040579  1
  O  O41  1  0.81590264  0.81877570  0.91117477  1
  O  O42  1  0.97016738  0.18082901  0.58125135  1
  O  O43  1  0.21185111  0.03547282  0.58281183  1
  O  O44  1  0.84678825  0.81275625  0.58345195  1
  O  O45  1  0.96596800  0.81275625  0.08345195  1
  O  O46  1  0.82362170  0.03547282  0.08281183  1
  O  O47  1  0.21066163  0.18082901  0.08125135  1
  O  O48  1  0.67592060  0.16589229  0.74293185  1
  O  O49  1  0.48457004  0.33105086  0.74809499  1
  O  O50  1  0.86271196  0.53149693  0.74576922  1
  O  O51  1  0.66878597  0.53149693  0.24576922  1
  O  O52  1  0.84648182  0.33105086  0.24809499  1
  O  O53  1  0.48997269  0.16589229  0.24293185  1
  O  O54  1  0.62990433  0.48803957  0.92389113  1
  O  O55  1  0.85303660  0.36242481  0.92280670  1
  O  O56  1  0.51062934  0.14913013  0.92372949  1
  O  O57  1  0.63850179  0.14913013  0.42372949  1
  O  O58  1  0.50938921  0.36242481  0.42280670  1
  O  O59  1  0.85813624  0.48803957  0.42389113  1
  O  O60  1  0.36630117  0.48803197  0.08062850  1
  O  O61  1  0.14663728  0.64716366  0.08271370  1
  O  O62  1  0.51832550  0.87060428  0.07933386  1
  O  O63  1  0.35227779  0.87060428  0.57933386  1
  O  O64  1  0.50052537  0.64716366  0.58271370  1
  O  O65  1  0.12172981  0.48803197  0.58062850  1
  O  O66  1  0.32554466  0.82871059  0.25830402  1
  O  O67  1  0.52750347  0.69254674  0.25468052  1
  O  O68  1  0.18031008  0.48565675  0.25759542  1
  O  O69  1  0.30534567  0.48565675  0.75759542  1
  O  O70  1  0.16504227  0.69254674  0.75468052  1
  O  O71  1  0.50316493  0.82871059  0.75830402  1
loop_
_geom_bond_atom_site_label_1
_geom_bond_atom_site_label_2
_geom_bond_distance
_geom_bond_site_symmetry_2
Na0 O53 2.423704 1_555
Na0 O52 2.514720 1_555
Na0 O66 2.584726 1_545
Na0 O67 2.652419 1_545
Na0 O16 2.692467 1_555
Na0 O31 2.801762 1_545
Na0 O2 2.858632 1_555
Na1 O53 2.507254 1_555
Na1 O51 2.541102 1_555
Na1 O68 2.543630 1_555
Na1 O17 2.686895 1_555
Na1 O67 2.805363 1_555
Na1 O0 2.832279 1_555
Na1 O32 2.855426 1_555
Na1 O10 2.861632 1_555
Na2 O15 2.365635 1_555
Na2 O52 2.410694 1_555
Na2 O51 2.656984 1_555
Na2 O68 2.705082 1_655
Na2 O66 2.706989 1_655
Na2 O11 2.747600 1_655
Na3 O14 2.365637 1_555
Na3 O49 2.410694 1_555
Na3 O50 2.656993 1_555
Na3 O69 2.705090 1_555
Na3 O71 2.706996 1_555
Na3 O6 2.747600 1_555
Na4 O48 2.507246 1_555
Na4 O50 2.541094 1_555
Na4 O69 2.543622 1_655
Na4 O12 2.686891 1_555
Na4 O70 2.805363 1_655
Na4 O5 2.832279 1_555
Na4 O33 2.855424 1_655
Na4 O7 2.861632 1_655
Na5 O48 2.423712 1_555
Na5 O49 2.514719 1_555
Na5 O71 2.584719 1_545
Na5 O70 2.652421 1_545
Na5 O13 2.692469 1_555
Na5 O34 2.801760 1_545
Na5 O3 2.858632 1_555
Na6 O64 2.451349 1_555
Na6 O28 2.529860 1_555
Na6 O43 2.546535 1_555
Na6 O7 2.552664 1_555
Na6 O65 2.589128 1_555
Na6 O42 2.653163 1_455
Na7 O44 2.373584 1_455
Na7 O29 2.439597 1_555
Na7 O63 2.522482 1_555
Na7 O65 2.536526 1_555
Na7 O43 2.600086 1_565
Na7 O8 2.734817 1_555
Na8 O64 2.379034 1_555
Na8 O27 2.430281 1_555
Na8 O44 2.508820 1_555
Na8 O6 2.522880 1_555
Na8 O42 2.551724 1_565
Na8 O63 2.622967 1_555
Na9 O61 2.379033 1_555
Na9 O26 2.430276 1_554
Na9 O45 2.508829 1_455
Na9 O11 2.522884 1_555
Na9 O47 2.551730 1_565
Na9 O62 2.622949 1_555
Na10 O45 2.373575 1_555
Na10 O24 2.439605 1_554
Na10 O62 2.522498 1_555
Na10 O60 2.536539 1_555
Na10 O46 2.600086 1_565
Na10 O9 2.734815 1_555
Na11 O61 2.451352 1_555
Na11 O25 2.529857 1_554
Na11 O46 2.546537 1_455
Na11 O10 2.552662 1_555
Na11 O60 2.589111 1_555
Na11 O47 2.653155 1_555
Na12 O41 2.336093 1_555
Na12 O40 2.351180 1_655
Na12 O4 2.551335 1_555
Na12 O55 2.707965 1_555
Na12 O54 2.870675 1_555
Na12 O26 2.937288 1_655
Na12 O19 2.943421 1_556
Na12 O33 2.991867 1_655
Na13 O39 2.340121 1_655
Na13 O5 2.371079 1_555
Na13 O41 2.509339 1_545
Na13 O56 2.664023 1_555
Na13 O55 2.725040 1_555
Na14 O40 2.321682 1_545
Na14 O3 2.401140 1_555
Na14 O39 2.462625 1_555
Na14 O54 2.636608 1_555
Na14 O56 2.705534 1_555
Na15 O37 2.321682 1_545
Na15 O2 2.401142 1_555
Na15 O38 2.462634 1_655
Na15 O59 2.636594 1_555
Na15 O57 2.705517 1_555
Na16 O38 2.340113 1_555
Na16 O0 2.371076 1_555
Na16 O36 2.509333 1_545
Na16 O57 2.664040 1_555
Na16 O58 2.725042 1_555
Na17 O36 2.336101 1_655
Na17 O37 2.351178 1_555
Na17 O1 2.551336 1_555
Na17 O58 2.707963 1_555
Na17 O59 2.870689 1_555
Na17 O27 2.937288 1_555
Na17 O22 2.943425 1_555
Na17 O32 2.991867 1_555
Na18 O37 2.452490 1_555
Na18 O36 2.473994 1_655
Na18 O38 2.485312 1_665
Na18 O44 2.509454 1_555
Na18 O42 2.672973 1_565
Na18 O43 2.718828 1_665
Na19 O40 2.452490 1_555
Na19 O41 2.473994 1_455
Na19 O39 2.485312 1_565
Na19 O45 2.509454 1_456
Na19 O47 2.672973 1_566
Na19 O46 2.718828 1_466
Na20 O49 2.337827 1_555
Na20 O48 2.358402 1_555
Na20 O50 2.601759 1_555
Na20 O56 2.652663 1_555
Na20 O55 2.757411 1_555
Na20 O54 2.780143 1_555
Na21 O52 2.337827 1_555
Na21 O53 2.358402 1_555
Na21 O51 2.601759 1_555
Na21 O57 2.652663 1_555
Na21 O58 2.757411 1_555
Na21 O59 2.780143 1_555
Na22 O61 2.300989 1_555
Na22 O68 2.583120 1_555
Na22 O66 2.587180 1_555
Na22 O60 2.632325 1_555
Na22 O62 2.639277 1_555
Na22 O67 2.761367 1_555
Na23 O64 2.300989 1_555
Na23 O69 2.583120 1_555
Na23 O71 2.587180 1_555
Na23 O65 2.632325 1_555
Na23 O63 2.639277 1_555
Na23 O70 2.761367 1_555
Nb0 O19 1.911044 1_556
Nb0 O54 1.943610 1_555
Nb0 O55 1.944790 1_555
Nb0 O56 2.040135 1_555
Nb0 O18 2.149682 1_556
Nb0 O20 2.176067 1_556
Nb1 O22 1.911044 1_555
Nb1 O59 1.943610 1_555
Nb1 O58 1.944790 1_555
Nb1 O57 2.040135 1_555
Nb1 O23 2.149682 1_555
Nb1 O21 2.176067 1_555
Nb2 O30 1.908593 1_555
Nb2 O66 1.991913 1_555
Nb2 O31 1.994243 1_555
Nb2 O32 2.011053 1_555
Nb2 O68 2.018034 1_555
Nb2 O67 2.250575 1_555
Nb3 O35 1.908593 1_555
Nb3 O71 1.991913 1_555
Nb3 O34 1.994243 1_555
Nb3 O33 2.011053 1_555
Nb3 O69 2.018034 1_555
Nb3 O70 2.250575 1_555
O0 Si0 1.617525 1_555
O0 Zn0 2.012013 1_555
O1 S0 1.474138 1_555
O1 Zn0 2.324811 1_665
O2 Si1 1.616106 1_655
O2 Zn0 1.974550 1_655
O3 Si2 1.616106 1_555
O3 Zn1 1.974550 1_555
O4 S1 1.474138 1_655
O4 Zn1 2.324811 1_665
O5 Si3 1.617525 1_555
O5 Zn1 2.012013 1_655
O6 Si3 1.634922 1_565
O6 Zn2 1.942740 1_565
O7 Si2 1.646211 1_555
O7 Zn2 2.006225 1_455
O8 S1 1.490199 1_555
O8 Zn2 2.221913 1_465
O9 S0 1.490199 1_555
O9 Zn3 2.221913 1_665
O10 Si1 1.646211 1_555
O10 Zn3 2.006225 1_555
O11 Si0 1.634922 1_565
O11 Zn3 1.942740 1_565
O12 S2 1.476545 1_555
O12 Zn4 2.249297 1_555
O13 S3 1.481441 1_555
O13 Zn4 2.075670 1_555
O14 Si4 1.614545 1_555
O14 Zn4 1.942694 1_555
O15 Si5 1.614545 1_555
O15 Zn5 1.942694 1_555
O16 S4 1.481441 1_555
O16 Zn5 2.075670 1_555
O17 S5 1.476545 1_555
O17 Zn5 2.249297 1_555
O18 S5 1.527696 1_555
O19 Si5 1.756827 1_555
O20 S4 1.526259 1_555
O21 S3 1.526259 1_555
O22 Si4 1.756827 1_555
O23 S2 1.527696 1_555
O24 Si6 1.598010 1_555
O24 Zn6 2.027287 1_556
O25 Si7 1.598349 1_555
O25 Zn6 1.927230 1_556
O26 Si8 1.604245 1_555
O26 Zn6 1.924573 1_556
O27 Si9 1.604245 1_555
O27 Zn7 1.924573 1_555
O28 Si10 1.598349 1_555
O28 Zn7 1.927230 1_555
O29 Si11 1.598010 1_555
O29 Zn7 2.027287 1_555
O30 Si11 1.695697 1_555
O31 Si9 1.691990 1_555
O32 Si10 1.677567 1_555
O33 Si7 1.677567 1_555
O34 Si8 1.691990 1_555
O35 Si6 1.695697 1_555
O36 Si11 1.602486 1_555
O36 Zn0 2.241578 1_565
O37 Si9 1.611623 1_555
O37 Zn0 2.219586 1_665
O38 Si10 1.605044 1_555
O38 Zn0 2.073937 1_555
O39 Si7 1.605047 1_555
O39 Zn1 2.073937 1_555
O40 Si8 1.611614 1_555
O40 Zn1 2.219586 1_565
O41 Si6 1.602493 1_555
O41 Zn1 2.241578 1_665
O42 S2 1.489694 1_555
O42 Zn2 2.427624 1_555
O43 S3 1.482762 1_555
O44 Si4 1.647332 1_555
O44 Zn2 2.278781 1_565
O45 Si5 1.647336 1_555
O45 Zn3 2.278781 1_665
O46 S4 1.482753 1_555
O47 S5 1.489699 1_555
O47 Zn3 2.427624 1_555
O48 Si3 1.646692 1_555
O48 Zn4 2.082688 1_555
O49 Si2 1.643644 1_555
O49 Zn4 2.053601 1_555
O50 S1 1.488967 1_655
O50 Zn4 2.354594 1_555
O51 S0 1.488970 1_555
O51 Zn5 2.354594 1_555
O52 Si1 1.643635 1_655
O52 Zn5 2.053601 1_555
O53 Si0 1.646697 1_555
O53 Zn5 2.082688 1_555
O54 Si6 1.695589 1_555
O55 Si7 1.707668 1_655
O56 Si8 1.686599 1_545
O57 Si9 1.686591 1_545
O58 Si10 1.707686 1_555
O59 Si11 1.695579 1_655
O60 S5 1.483900 1_555
O60 Zn6 2.509515 1_555
O61 Si5 1.636340 1_455
O61 Zn6 2.254856 1_555
O62 S4 1.481183 1_565
O62 Zn6 2.445192 1_555
O63 S3 1.481175 1_565
O63 Zn7 2.445192 1_555
O64 Si4 1.636358 1_555
O64 Zn7 2.254856 1_555
O65 S2 1.483890 1_455
O65 Zn7 2.509515 1_555
O66 Si0 1.713618 1_565
O67 S0 1.522339 1_555
O68 Si1 1.724183 1_555
O69 Si2 1.724187 1_555
O70 S1 1.522330 1_555
O71 Si3 1.713623 1_565
