# generated using pymatgen
data_Na3CaGe(PO4)3
_symmetry_space_group_name_H-M   'P 1'
_cell_length_a   9.09441515
_cell_length_b   9.10525676
_cell_length_c   21.72146633
_cell_angle_alpha   89.99999999
_cell_angle_beta   89.97048295
_cell_angle_gamma   120.03944512
_symmetry_Int_Tables_number   1
_chemical_formula_structural   Na3CaGe(PO4)3
_chemical_formula_sum   'Na18 Ca6 Ge6 P18 O72'
_cell_volume   1557.09068962
_cell_formula_units_Z   6
loop_
 _symmetry_equiv_pos_site_id
 _symmetry_equiv_pos_as_xyz
  1  'x, y, z'
loop_
 _atom_site_type_symbol
 _atom_site_label
 _atom_site_symmetry_multiplicity
 _atom_site_fract_x
 _atom_site_fract_y
 _atom_site_fract_z
 _atom_site_occupancy
  Na  Na0  1  0.98026226  0.95960938  0.49802087  1
  Na  Na1  1  0.98026226  0.02065288  0.99802087  1
  Na  Na2  1  0.66693965  0.33994064  0.83161997  1
  Na  Na3  1  0.66693965  0.32699802  0.33161997  1
  Na  Na4  1  0.32818480  0.66458370  0.16512111  1
  Na  Na5  1  0.32818480  0.66360210  0.66512111  1
  Na  Na6  1  0.36349134  0.34636092  0.24639531  1
  Na  Na7  1  0.98465492  0.64629109  0.24730958  1
  Na  Na8  1  0.98465492  0.33836383  0.74730958  1
  Na  Na9  1  0.36349134  0.01713041  0.74639531  1
  Na  Na10  1  0.32376812  0.34567908  0.58051027  1
  Na  Na11  1  0.65213683  0.97112896  0.58011678  1
  Na  Na12  1  0.32376812  0.97808803  0.08051027  1
  Na  Na13  1  0.65213683  0.68100687  0.08011678  1
  Na  Na14  1  0.99212153  0.68259262  0.91418739  1
  Na  Na15  1  0.31671308  0.30066992  0.91374002  1
  Na  Na16  1  0.99212153  0.30952992  0.41418739  1
  Na  Na17  1  0.31671308  0.01604416  0.41374002  1
  Ca  Ca0  1  0.98977963  0.99734225  0.35305206  1
  Ca  Ca1  1  0.98977963  0.99243738  0.85305206  1
  Ca  Ca2  1  0.67249146  0.34427120  0.68676091  1
  Ca  Ca3  1  0.67249146  0.32821927  0.18676091  1
  Ca  Ca4  1  0.32919539  0.66143112  0.02030001  1
  Ca  Ca5  1  0.32919539  0.66776527  0.52030001  1
  Ge  Ge0  1  0.99288035  0.98959468  0.64752413  1
  Ge  Ge1  1  0.99288035  0.00328567  0.14752413  1
  Ge  Ge2  1  0.67120313  0.32350815  0.98036723  1
  Ge  Ge3  1  0.67120313  0.34769398  0.48036723  1
  Ge  Ge4  1  0.34127751  0.67244354  0.31422435  1
  Ge  Ge5  1  0.34127751  0.66883497  0.81422435  1
  P  P0  1  0.28498670  0.97805484  0.25270887  1
  P  P1  1  0.69124734  0.71693279  0.24749134  1
  P  P2  1  0.02622890  0.31208157  0.25396419  1
  P  P3  1  0.28498670  0.30693186  0.75270887  1
  P  P4  1  0.02622890  0.71414734  0.75396419  1
  P  P5  1  0.69124734  0.97431455  0.74749134  1
  P  P6  1  0.95454484  0.30855338  0.58535069  1
  P  P7  1  0.35766172  0.04948182  0.58642319  1
  P  P8  1  0.69049754  0.63961011  0.58269850  1
  P  P9  1  0.95454484  0.64599046  0.08535069  1
  P  P10  1  0.69049754  0.05088643  0.08269850  1
  P  P11  1  0.35766172  0.30817890  0.08642319  1
  P  P12  1  0.61773176  0.64016429  0.92102413  1
  P  P13  1  0.02578451  0.38063569  0.91476060  1
  P  P14  1  0.36083864  0.97600172  0.91778041  1
  P  P15  1  0.61773176  0.97756847  0.42102413  1
  P  P16  1  0.36083864  0.38483792  0.41778041  1
  P  P17  1  0.02578451  0.64514982  0.41476060  1
  O  O0  1  0.20861542  0.99185996  0.31260358  1
  O  O1  1  0.80648298  0.79012609  0.30135517  1
  O  O2  1  0.01330140  0.23156657  0.31566439  1
  O  O3  1  0.20861542  0.21675546  0.81260358  1
  O  O4  1  0.01330140  0.78173482  0.81566439  1
  O  O5  1  0.80648298  0.01635689  0.80135517  1
  O  O6  1  0.77819979  0.95383403  0.68569244  1
  O  O7  1  0.16129870  0.21139254  0.69499004  1
  O  O8  1  0.04374762  0.84056833  0.69928744  1
  O  O9  1  0.77819979  0.82436576  0.18569244  1
  O  O10  1  0.04374762  0.20317929  0.19928744  1
  O  O11  1  0.16129870  0.94990616  0.19499004  1
  O  O12  1  0.87934408  0.31910206  0.64576133  1
  O  O13  1  0.44937613  0.12599668  0.64577279  1
  O  O14  1  0.64867629  0.53239370  0.63885953  1
  O  O15  1  0.87934408  0.56024102  0.14576133  1
  O  O16  1  0.64867629  0.11628158  0.13885953  1
  O  O17  1  0.44937613  0.32337845  0.14577279  1
  O  O18  1  0.45144863  0.27789644  0.02868889  1
  O  O19  1  0.83810864  0.54321756  0.02736807  1
  O  O20  1  0.71294910  0.16500210  0.02303437  1
  O  O21  1  0.45144863  0.17355119  0.52868889  1
  O  O22  1  0.71294910  0.54794600  0.52303437  1
  O  O23  1  0.83810864  0.29489008  0.52736807  1
  O  O24  1  0.54927076  0.65397180  0.98209319  1
  O  O25  1  0.12986243  0.46308245  0.97076338  1
  O  O26  1  0.33413417  0.88078061  0.97724629  1
  O  O27  1  0.54927076  0.89529996  0.48209319  1
  O  O28  1  0.33413417  0.45335456  0.47724629  1
  O  O29  1  0.12986243  0.66678097  0.47076338  1
  O  O30  1  0.11472916  0.61863497  0.35453150  1
  O  O31  1  0.49067946  0.87200255  0.36566226  1
  O  O32  1  0.37508018  0.49737951  0.35877335  1
  O  O33  1  0.11472916  0.49609519  0.85453150  1
  O  O34  1  0.37508018  0.87770167  0.85877335  1
  O  O35  1  0.49067946  0.61867792  0.86566226  1
  O  O36  1  0.99450611  0.79334415  0.41036891  1
  O  O37  1  0.80034427  0.01772719  0.41312856  1
  O  O38  1  0.21296606  0.20225528  0.41088441  1
  O  O39  1  0.99450611  0.20116196  0.91036891  1
  O  O40  1  0.21296606  0.01071078  0.91088441  1
  O  O41  1  0.80034427  0.78261707  0.91312856  1
  O  O42  1  0.95156043  0.13017118  0.58363776  1
  O  O43  1  0.17897266  0.04426984  0.58804331  1
  O  O44  1  0.86556256  0.81224081  0.58795786  1
  O  O45  1  0.95156043  0.82138925  0.08363776  1
  O  O46  1  0.86556256  0.05332174  0.08795786  1
  O  O47  1  0.17897266  0.13470282  0.08804331  1
  O  O48  1  0.64879819  0.11676202  0.74095458  1
  O  O49  1  0.46079782  0.32818351  0.74678546  1
  O  O50  1  0.88519575  0.53107845  0.74673797  1
  O  O51  1  0.64879819  0.53203517  0.24095458  1
  O  O52  1  0.88519575  0.35411630  0.24673797  1
  O  O53  1  0.46079782  0.13261331  0.24678546  1
  O  O54  1  0.61696776  0.46311023  0.92018941  1
  O  O55  1  0.85148475  0.38381038  0.91856969  1
  O  O56  1  0.53245937  0.15344441  0.91924406  1
  O  O57  1  0.61696776  0.15385653  0.42018941  1
  O  O58  1  0.53245937  0.37901396  0.41924406  1
  O  O59  1  0.85148475  0.46767337  0.41856969  1
  O  O60  1  0.33530625  0.46172299  0.07977540  1
  O  O61  1  0.13891106  0.68877744  0.08026196  1
  O  O62  1  0.54875963  0.86665868  0.07462020  1
  O  O63  1  0.33530625  0.87358425  0.57977540  1
  O  O64  1  0.54875963  0.68210194  0.57462020  1
  O  O65  1  0.13891106  0.45013462  0.58026196  1
  O  O66  1  0.28935909  0.80448837  0.25313820  1
  O  O67  1  0.51786575  0.71767034  0.25428321  1
  O  O68  1  0.20495563  0.48696008  0.25181915  1
  O  O69  1  0.28935909  0.48487172  0.75313820  1
  O  O70  1  0.20495563  0.71799655  0.75181915  1
  O  O71  1  0.51786575  0.80019640  0.75428321  1
loop_
_geom_bond_atom_site_label_1
_geom_bond_atom_site_label_2
_geom_bond_distance
_geom_bond_site_symmetry_2
Na0 O44 2.302512 1_555
Na0 O36 2.475817 1_555
Na0 O43 2.508509 1_665
Na0 O42 2.518711 1_565
Na0 O37 2.688425 1_565
Na0 O38 2.873509 1_665
Na1 O46 2.302512 1_556
Na1 O39 2.475817 1_555
Na1 O47 2.508509 1_656
Na1 O45 2.518711 1_546
Na1 O41 2.688425 1_545
Na1 O40 2.873509 1_655
Na2 O54 2.382204 1_555
Na2 O55 2.423945 1_555
Na2 O56 2.433160 1_555
Na2 O49 2.593142 1_555
Na2 O50 2.627895 1_555
Na2 O48 2.774850 1_555
Na3 O57 2.382204 1_555
Na3 O59 2.423945 1_555
Na3 O58 2.433160 1_555
Na3 O53 2.593142 1_555
Na3 O52 2.627895 1_555
Na3 O51 2.774850 1_555
Na4 O68 2.366701 1_555
Na4 O66 2.419146 1_555
Na4 O67 2.475671 1_555
Na4 O61 2.606158 1_555
Na4 O60 2.640514 1_555
Na4 O62 2.752173 1_555
Na5 O70 2.366701 1_555
Na5 O69 2.419146 1_555
Na5 O71 2.475671 1_555
Na5 O65 2.606158 1_555
Na5 O63 2.640514 1_555
Na5 O64 2.752173 1_555
Na6 O51 2.283073 1_555
Na6 O68 2.362058 1_555
Na6 O17 2.364930 1_555
Na6 O53 2.509057 1_555
Na6 O10 2.722131 1_555
Na6 O32 2.777703 1_555
Na7 O52 2.342321 1_555
Na7 O15 2.376444 1_555
Na7 O66 2.402897 1_655
Na7 O11 2.658280 1_655
Na7 O30 2.681078 1_655
Na7 O51 2.692558 1_555
Na7 O1 2.800294 1_555
Na8 O50 2.342313 1_555
Na8 O12 2.376443 1_555
Na8 O69 2.402897 1_655
Na8 O7 2.658280 1_655
Na8 O33 2.681081 1_655
Na8 O48 2.692559 1_555
Na8 O5 2.800294 1_555
Na9 O48 2.283075 1_555
Na9 O70 2.362050 1_545
Na9 O13 2.364928 1_555
Na9 O49 2.509048 1_555
Na9 O8 2.722131 1_545
Na9 O34 2.777699 1_545
Na10 O65 2.309068 1_555
Na10 O43 2.382046 1_555
Na10 O28 2.430760 1_555
Na10 O21 2.625344 1_555
Na10 O64 2.703862 1_555
Na10 O7 2.837105 1_555
Na10 O14 2.863945 1_555
Na11 O27 2.289282 1_555
Na11 O64 2.312315 1_555
Na11 O42 2.360136 1_565
Na11 O63 2.555212 1_555
Na11 O6 2.604167 1_555
Na11 O23 2.805319 1_565
Na12 O61 2.309054 1_555
Na12 O47 2.382054 1_565
Na12 O26 2.430753 1_554
Na12 O18 2.625344 1_565
Na12 O62 2.703848 1_555
Na12 O11 2.837107 1_555
Na12 O16 2.863945 1_565
Na13 O24 2.289284 1_554
Na13 O62 2.312332 1_555
Na13 O45 2.360136 1_555
Na13 O60 2.555209 1_555
Na13 O9 2.604170 1_555
Na13 O19 2.805319 1_555
Na14 O4 2.292893 1_655
Na14 O41 2.337147 1_555
Na14 O55 2.358428 1_555
Na14 O40 2.637618 1_665
Na14 O33 2.774934 1_655
Na14 O19 2.798773 1_556
Na15 O40 2.317442 1_555
Na15 O54 2.370747 1_555
Na15 O3 2.372026 1_555
Na15 O39 2.599025 1_455
Na15 O35 2.718386 1_555
Na15 O18 2.834837 1_556
Na16 O2 2.292896 1_655
Na16 O37 2.337154 1_555
Na16 O59 2.358412 1_555
Na16 O38 2.637625 1_655
Na16 O30 2.774934 1_655
Na16 O23 2.798769 1_555
Na17 O38 2.317434 1_555
Na17 O57 2.370748 1_555
Na17 O0 2.372025 1_545
Na17 O36 2.599027 1_445
Na17 O31 2.718386 1_545
Na17 O21 2.834831 1_555
Ca0 O1 2.110127 1_555
Ca0 O2 2.190125 1_665
Ca0 O0 2.198391 1_655
Ca0 O37 2.241257 1_565
Ca0 O36 2.254333 1_555
Ca0 O38 2.321664 1_665
Ca1 O5 2.110127 1_565
Ca1 O4 2.190125 1_655
Ca1 O3 2.198391 1_665
Ca1 O41 2.241257 1_555
Ca1 O39 2.254333 1_565
Ca1 O40 2.321664 1_665
Ca2 O14 2.105998 1_555
Ca2 O12 2.194190 1_555
Ca2 O13 2.196405 1_555
Ca2 O50 2.245165 1_555
Ca2 O49 2.267814 1_555
Ca2 O48 2.297003 1_555
Ca3 O16 2.105998 1_555
Ca3 O15 2.194190 1_555
Ca3 O17 2.196405 1_555
Ca3 O52 2.245165 1_555
Ca3 O53 2.267814 1_555
Ca3 O51 2.297003 1_555
Ca4 O25 2.104738 1_554
Ca4 O26 2.185333 1_554
Ca4 O24 2.198540 1_554
Ca4 O60 2.253859 1_555
Ca4 O62 2.266702 1_555
Ca4 O61 2.276445 1_555
Ca5 O29 2.104738 1_555
Ca5 O28 2.185333 1_555
Ca5 O27 2.198540 1_555
Ca5 O63 2.253859 1_555
Ca5 O64 2.266702 1_555
Ca5 O65 2.276445 1_555
Ge0 O44 1.937017 1_555
Ge0 O43 1.983825 1_665
Ge0 O8 1.987077 1_655
Ge0 O6 1.991753 1_555
Ge0 O42 2.046315 1_565
Ge0 O7 2.095760 1_665
Ge1 O46 1.937017 1_555
Ge1 O47 1.983825 1_655
Ge1 O10 1.987077 1_655
Ge1 O9 1.991753 1_545
Ge1 O45 2.046315 1_545
Ge1 O11 2.095760 1_645
Ge2 O20 1.906559 1_556
Ge2 O56 1.948893 1_555
Ge2 O55 1.971778 1_555
Ge2 O54 2.048421 1_555
Ge2 O19 2.075997 1_556
Ge2 O18 2.105986 1_556
Ge3 O22 1.906559 1_555
Ge3 O58 1.948893 1_555
Ge3 O59 1.971778 1_555
Ge3 O57 2.048421 1_555
Ge3 O23 2.075997 1_555
Ge3 O21 2.105986 1_555
Ge4 O67 1.944134 1_555
Ge4 O31 1.981387 1_555
Ge4 O66 1.999524 1_555
Ge4 O32 2.015601 1_555
Ge4 O68 2.032784 1_555
Ge4 O30 2.058892 1_555
Ge5 O71 1.944134 1_555
Ge5 O35 1.981387 1_555
Ge5 O69 1.999524 1_555
Ge5 O34 2.015601 1_555
Ge5 O70 2.032784 1_555
Ge5 O33 2.058891 1_555
O0 P0 1.509067 1_555
O1 P1 1.487734 1_555
O2 P2 1.503663 1_555
O3 P3 1.509067 1_555
O4 P4 1.503663 1_555
O5 P5 1.487734 1_545
O6 P5 1.615115 1_555
O7 P3 1.617308 1_555
O8 P4 1.605344 1_555
O9 P1 1.615115 1_555
O10 P2 1.605344 1_555
O11 P0 1.617308 1_555
O12 P6 1.504555 1_555
O13 P7 1.504104 1_555
O14 P8 1.487825 1_555
O15 P9 1.504555 1_555
O16 P10 1.487825 1_555
O17 P11 1.504104 1_555
O18 P11 1.615731 1_555
O19 P9 1.610132 1_555
O20 P10 1.608799 1_555
O21 P7 1.615731 1_555
O22 P8 1.608799 1_555
O23 P6 1.610132 1_555
O24 P12 1.496863 1_555
O25 P13 1.492993 1_555
O26 P14 1.505991 1_555
O27 P15 1.496863 1_555
O28 P16 1.505991 1_555
O29 P17 1.492993 1_555
O30 P17 1.618206 1_555
O31 P15 1.610773 1_555
O32 P16 1.605174 1_555
O33 P13 1.618206 1_555
O34 P14 1.605174 1_555
O35 P12 1.610773 1_555
O36 P17 1.514950 1_655
O37 P15 1.520835 1_545
O38 P16 1.535116 1_555
O39 P13 1.514959 1_655
O40 P14 1.535111 1_545
O41 P12 1.520832 1_555
O42 P6 1.611230 1_555
O43 P7 1.602211 1_555
O44 P8 1.585315 1_555
O45 P9 1.611239 1_555
O46 P10 1.585311 1_555
O47 P11 1.602207 1_555
O48 P5 1.533893 1_545
O49 P3 1.516742 1_555
O50 P4 1.519190 1_655
O51 P1 1.533902 1_555
O52 P2 1.519184 1_655
O53 P0 1.516738 1_545
O54 P12 1.608758 1_555
O55 P13 1.601916 1_655
O56 P14 1.588324 1_545
O57 P15 1.608740 1_545
O58 P16 1.588334 1_555
O59 P17 1.601926 1_655
O60 P11 1.517024 1_555
O61 P9 1.523528 1_455
O62 P10 1.530220 1_565
O63 P7 1.517006 1_565
O64 P8 1.530233 1_555
O65 P6 1.523533 1_455
O66 P0 1.600671 1_555
O67 P1 1.586973 1_555
O68 P2 1.608811 1_555
O69 P3 1.600680 1_555
O70 P4 1.608807 1_555
O71 P5 1.586968 1_555
