# generated using pymatgen
data_Na2GaSn(PO4)3
_symmetry_space_group_name_H-M   'P 1'
_cell_length_a   8.75864339
_cell_length_b   8.75864311
_cell_length_c   22.34268139
_cell_angle_alpha   90.07390153
_cell_angle_beta   89.92609847
_cell_angle_gamma   120.41472307
_symmetry_Int_Tables_number   1
_chemical_formula_structural   Na2GaSn(PO4)3
_chemical_formula_sum   'Na12 Ga6 Sn6 P18 O72'
_cell_volume   1478.11757327
_cell_formula_units_Z   6
loop_
 _symmetry_equiv_pos_site_id
 _symmetry_equiv_pos_as_xyz
  1  'x, y, z'
loop_
 _atom_site_type_symbol
 _atom_site_label
 _atom_site_symmetry_multiplicity
 _atom_site_fract_x
 _atom_site_fract_y
 _atom_site_fract_z
 _atom_site_occupancy
  Na  Na0  1  0.36545098  0.36223767  0.24893020  1
  Na  Na1  1  0.63776233  0.63454902  0.74893020  1
  Na  Na2  1  0.03211798  0.69557067  0.58226320  1
  Na  Na3  1  0.30442933  0.96788202  0.08226320  1
  Na  Na4  1  0.69878398  0.02890467  0.91559720  1
  Na  Na5  1  0.97109533  0.30121602  0.41559720  1
  Na  Na6  1  0.00002134  0.99939034  0.49737267  1
  Na  Na7  1  0.00060966  -0.00002134  0.99737267  1
  Na  Na8  1  0.66668834  0.33272334  0.83070567  1
  Na  Na9  1  0.66727666  0.33331166  0.33070567  1
  Na  Na10  1  0.33335434  0.66605734  0.16403967  1
  Na  Na11  1  0.33394266  0.66664566  0.66403967  1
  Ga  Ga0  1  0.99856775  0.99278392  0.35187712  1
  Ga  Ga1  1  0.00721608  0.00143225  0.85187712  1
  Ga  Ga2  1  0.66523475  0.32611692  0.68521012  1
  Ga  Ga3  1  0.67388308  0.33476525  0.18521012  1
  Ga  Ga4  1  0.33190075  0.65945092  0.01854412  1
  Ga  Ga5  1  0.34054908  0.66809925  0.51854412  1
  Sn  Sn0  1  0.00146998  0.00653466  0.64857882  1
  Sn  Sn1  1  0.99346534  0.99853002  0.14857882  1
  Sn  Sn2  1  0.66813698  0.33986766  0.98191182  1
  Sn  Sn3  1  0.66013234  0.33186302  0.48191182  1
  Sn  Sn4  1  0.33480298  0.67320166  0.31524582  1
  Sn  Sn5  1  0.32679834  0.66519702  0.81524582  1
  P  P0  1  0.29252645  0.00166933  0.25011466  1
  P  P1  1  0.71110631  0.70653128  0.25152071  1
  P  P2  1  0.99279797  0.28910732  0.25219889  1
  P  P3  1  0.29346872  0.28889369  0.75152071  1
  P  P4  1  0.99833067  0.70747355  0.75011466  1
  P  P5  1  0.71089268  0.00720203  0.75219889  1
  P  P6  1  0.95919345  0.33500233  0.58344766  1
  P  P7  1  0.37777331  0.03986428  0.58485371  1
  P  P8  1  0.65946497  0.62244032  0.58553189  1
  P  P9  1  0.96013572  0.62222669  0.08485371  1
  P  P10  1  0.66499767  0.04080655  0.08344766  1
  P  P11  1  0.37755968  0.34053503  0.08553189  1
  P  P12  1  0.62585945  0.66833633  0.91678166  1
  P  P13  1  0.04443931  0.37319828  0.91818771  1
  P  P14  1  0.32613097  0.95577432  0.91886589  1
  P  P15  1  0.62680172  0.95556069  0.41818771  1
  P  P16  1  0.33166367  0.37414055  0.41678166  1
  P  P17  1  0.04422568  0.67386903  0.41886589  1
  O  O0  1  0.20626973  0.03744019  0.30416394  1
  O  O1  1  0.82497825  0.79290567  0.30665312  1
  O  O2  1  0.96845470  0.17958266  0.30894815  1
  O  O3  1  0.20709433  0.17502175  0.80665312  1
  O  O4  1  0.96255981  0.79373027  0.80416394  1
  O  O5  1  0.82041734  0.03154530  0.80894815  1
  O  O6  1  0.78499159  0.95884367  0.69614736  1
  O  O7  1  0.18135767  0.21793405  0.69386303  1
  O  O8  1  0.03329100  0.81658588  0.69136070  1
  O  O9  1  0.78206595  0.81864233  0.19386303  1
  O  O10  1  0.04115633  0.21500841  0.19614736  1
  O  O11  1  0.18341412  0.96670900  0.19136070  1
  O  O12  1  0.87293673  0.37077319  0.63749694  1
  O  O13  1  0.49164525  0.12623867  0.63998612  1
  O  O14  1  0.63512170  0.51291566  0.64228115  1
  O  O15  1  0.87376133  0.50835475  0.13998612  1
  O  O16  1  0.62922681  0.12706327  0.13749694  1
  O  O17  1  0.48708434  0.36487830  0.14228115  1
  O  O18  1  0.45165859  0.29217667  0.02948036  1
  O  O19  1  0.84802467  0.55126705  0.02719603  1
  O  O20  1  0.69995800  0.14991888  0.02469370  1
  O  O21  1  0.44873295  0.15197533  0.52719603  1
  O  O22  1  0.70782333  0.54834141  0.52948036  1
  O  O23  1  0.85008112  0.30004200  0.52469370  1
  O  O24  1  0.53960273  0.70410719  0.97083094  1
  O  O25  1  0.15831125  0.45957267  0.97332012  1
  O  O26  1  0.30178770  0.84624966  0.97561515  1
  O  O27  1  0.54042733  0.84168875  0.47332012  1
  O  O28  1  0.29589281  0.46039727  0.47083094  1
  O  O29  1  0.15375034  0.69821230  0.47561515  1
  O  O30  1  0.11832459  0.62551067  0.36281436  1
  O  O31  1  0.51469067  0.88460105  0.36053003  1
  O  O32  1  0.36662400  0.48325288  0.35802770  1
  O  O33  1  0.11539895  0.48530933  0.86053003  1
  O  O34  1  0.37448933  0.88167541  0.86281436  1
  O  O35  1  0.51674712  0.63337600  0.85802770  1
  O  O36  1  0.02574543  0.83673867  0.41038520  1
  O  O37  1  0.81442109  0.98166237  0.41101841  1
  O  O38  1  0.16216185  0.19042918  0.41002647  1
  O  O39  1  0.01833763  0.18557891  0.91101841  1
  O  O40  1  0.16326133  0.97425457  0.91038520  1
  O  O41  1  0.80957082  0.83783815  0.91002647  1
  O  O42  1  0.97628706  0.16783876  0.58828951  1
  O  O43  1  0.18668578  0.01421851  0.58910303  1
  O  O44  1  0.83410966  0.80826043  0.58944803  1
  O  O45  1  0.98578149  0.81331422  0.08910303  1
  O  O46  1  0.83216124  0.02371294  0.08828951  1
  O  O47  1  0.19173957  0.16589034  0.08944803  1
  O  O48  1  0.69241243  0.17007167  0.74371820  1
  O  O49  1  0.48108809  0.31499537  0.74435141  1
  O  O50  1  0.82882885  0.52376218  0.74335947  1
  O  O51  1  0.68500463  0.51891191  0.24435141  1
  O  O52  1  0.82992833  0.30758757  0.24371820  1
  O  O53  1  0.47623782  0.17117115  0.24335947  1
  O  O54  1  0.64295406  0.50117176  0.92162251  1
  O  O55  1  0.85335278  0.34755151  0.92243603  1
  O  O56  1  0.50077666  0.14159343  0.92278103  1
  O  O57  1  0.65244849  0.14664722  0.42243603  1
  O  O58  1  0.49882824  0.35704594  0.42162251  1
  O  O59  1  0.85840657  0.49922334  0.42278103  1
  O  O60  1  0.35907843  0.50340567  0.07705220  1
  O  O61  1  0.14775409  0.64832937  0.07768541  1
  O  O62  1  0.49549485  0.85709618  0.07669347  1
  O  O63  1  0.35167063  0.85224591  0.57768541  1
  O  O64  1  0.49659433  0.64092157  0.57705220  1
  O  O65  1  0.14290382  0.50450515  0.57669347  1
  O  O66  1  0.30962006  0.83450576  0.25495651  1
  O  O67  1  0.52001878  0.68088551  0.25577003  1
  O  O68  1  0.16744266  0.47492743  0.25611503  1
  O  O69  1  0.31911449  0.47998122  0.75577003  1
  O  O70  1  0.16549424  0.69037994  0.75495651  1
  O  O71  1  0.52507257  0.83255734  0.75611503  1
loop_
_geom_bond_atom_site_label_1
_geom_bond_atom_site_label_2
_geom_bond_distance
_geom_bond_site_symmetry_2
Na0 O53 2.323988 1_555
Na0 O68 2.395776 1_555
Na0 O67 2.412300 1_555
Na0 O51 2.416190 1_555
Na0 O17 2.604226 1_555
Na0 O32 2.654710 1_555
Na0 O10 2.723520 1_555
Na0 O0 2.747421 1_555
Na1 O50 2.323988 1_555
Na1 O71 2.395776 1_555
Na1 O69 2.412300 1_555
Na1 O49 2.416190 1_555
Na1 O14 2.604226 1_555
Na1 O35 2.654710 1_555
Na1 O6 2.723520 1_555
Na1 O4 2.747421 1_555
Na2 O65 2.323972 1_555
Na2 O44 2.395776 1_455
Na2 O43 2.412300 1_565
Na2 O63 2.416182 1_555
Na2 O29 2.604201 1_555
Na2 O8 2.654710 1_555
Na2 O22 2.723520 1_455
Na2 O12 2.747421 1_455
Na3 O62 2.323972 1_555
Na3 O47 2.395776 1_565
Na3 O45 2.412300 1_455
Na3 O61 2.416181 1_555
Na3 O26 2.604201 1_554
Na3 O11 2.654710 1_555
Na3 O18 2.723520 1_565
Na3 O16 2.747421 1_565
Na4 O41 2.323988 1_545
Na4 O56 2.395759 1_555
Na4 O55 2.412290 1_555
Na4 O39 2.416190 1_655
Na4 O5 2.604226 1_555
Na4 O20 2.654684 1_556
Na4 O34 2.723520 1_545
Na4 O24 2.747421 1_545
Na5 O38 2.323988 1_655
Na5 O59 2.395759 1_555
Na5 O57 2.412290 1_555
Na5 O37 2.416190 1_545
Na5 O2 2.604226 1_555
Na5 O23 2.654684 1_555
Na5 O30 2.723520 1_655
Na5 O28 2.747421 1_655
Na6 O37 2.478101 1_455
Na6 O36 2.484816 1_555
Na6 O38 2.494068 1_565
Na6 O42 2.578364 1_465
Na6 O43 2.585204 1_565
Na6 O44 2.585399 1_455
Na7 O39 2.478101 1_555
Na7 O40 2.484816 1_545
Na7 O41 2.494068 1_445
Na7 O46 2.578364 1_456
Na7 O45 2.585204 1_446
Na7 O47 2.585399 1_556
Na8 O49 2.478101 1_555
Na8 O48 2.484816 1_555
Na8 O50 2.494068 1_555
Na8 O54 2.578364 1_555
Na8 O55 2.585204 1_555
Na8 O56 2.585399 1_555
Na9 O51 2.478101 1_555
Na9 O52 2.484816 1_555
Na9 O53 2.494068 1_555
Na9 O58 2.578364 1_555
Na9 O57 2.585204 1_555
Na9 O59 2.585399 1_555
Na10 O61 2.478101 1_555
Na10 O60 2.484816 1_555
Na10 O62 2.494068 1_555
Na10 O66 2.578364 1_555
Na10 O67 2.585204 1_555
Na10 O68 2.585399 1_555
Na11 O63 2.478101 1_555
Na11 O64 2.484816 1_555
Na11 O65 2.494068 1_555
Na11 O70 2.578364 1_555
Na11 O69 2.585204 1_555
Na11 O71 2.585399 1_555
Ga0 O1 1.924006 1_555
Ga0 O0 1.968375 1_665
Ga0 O36 1.992064 1_655
Ga0 O2 2.026816 1_565
Ga0 O37 2.047595 1_555
Ga0 O38 2.055554 1_665
Ga1 O3 1.924006 1_555
Ga1 O4 1.968375 1_445
Ga1 O40 1.992064 1_545
Ga1 O5 2.026816 1_455
Ga1 O39 2.047595 1_555
Ga1 O41 2.055554 1_445
Ga2 O13 1.924006 1_555
Ga2 O12 1.968375 1_555
Ga2 O48 1.992064 1_555
Ga2 O14 2.026816 1_555
Ga2 O49 2.047595 1_555
Ga2 O50 2.055554 1_555
Ga3 O15 1.924006 1_555
Ga3 O16 1.968375 1_555
Ga3 O52 1.992064 1_555
Ga3 O17 2.026816 1_555
Ga3 O51 2.047595 1_555
Ga3 O53 2.055554 1_555
Ga4 O25 1.924006 1_554
Ga4 O24 1.968375 1_554
Ga4 O60 1.992064 1_555
Ga4 O26 2.026816 1_554
Ga4 O61 2.047595 1_555
Ga4 O62 2.055554 1_555
Ga5 O27 1.924006 1_555
Ga5 O28 1.968375 1_555
Ga5 O64 1.992064 1_555
Ga5 O29 2.026816 1_555
Ga5 O63 2.047595 1_555
Ga5 O65 2.055554 1_555
O0 P0 1.537391 1_555
O1 P1 1.523550 1_555
O2 P2 1.539054 1_555
O3 P3 1.523550 1_555
O4 P4 1.537391 1_555
O5 P5 1.539054 1_555
O6 P5 1.563275 1_565
O6 Sn0 2.023145 1_665
O7 P3 1.547026 1_555
O7 Sn0 1.994974 1_555
O8 P4 1.560840 1_455
O8 Sn0 2.057548 1_565
O9 P1 1.547026 1_555
O9 Sn1 1.994974 1_555
O10 P2 1.563275 1_455
O10 Sn1 2.023145 1_445
O11 P0 1.560840 1_565
O11 Sn1 2.057548 1_455
O12 P6 1.537391 1_555
O13 P7 1.523550 1_555
O14 P8 1.539054 1_555
O15 P9 1.523550 1_555
O16 P10 1.537391 1_555
O17 P11 1.539054 1_555
O18 P11 1.563275 1_555
O18 Sn2 2.023145 1_554
O19 P9 1.547026 1_555
O19 Sn2 1.994974 1_554
O20 P10 1.560840 1_555
O20 Sn2 2.057548 1_554
O21 P7 1.547026 1_555
O21 Sn3 1.994974 1_555
O22 P8 1.563275 1_555
O22 Sn3 2.023145 1_555
O23 P6 1.560840 1_555
O23 Sn3 2.057548 1_555
O24 P12 1.537391 1_555
O25 P13 1.523550 1_555
O26 P14 1.539054 1_555
O27 P15 1.523550 1_555
O28 P16 1.537391 1_555
O29 P17 1.539054 1_555
O30 P17 1.563275 1_555
O30 Sn4 2.023145 1_555
O31 P15 1.547026 1_555
O31 Sn4 1.994974 1_555
O32 P16 1.560840 1_555
O32 Sn4 2.057548 1_555
O33 P13 1.547026 1_555
O33 Sn5 1.994974 1_555
O34 P14 1.563275 1_555
O34 Sn5 2.023145 1_555
O35 P12 1.560840 1_555
O35 Sn5 2.057548 1_555
O36 P17 1.526963 1_555
O37 P15 1.548342 1_555
O38 P16 1.548276 1_555
O39 P13 1.548342 1_555
O40 P14 1.526963 1_555
O41 P12 1.548276 1_555
O42 P6 1.549252 1_555
O42 Sn0 2.044588 1_655
O43 P7 1.574684 1_555
O43 Sn0 2.070303 1_555
O44 P8 1.573411 1_555
O44 Sn0 2.081242 1_665
O45 P9 1.574684 1_555
O45 Sn1 2.070303 1_555
O46 P10 1.549252 1_555
O46 Sn1 2.044588 1_545
O47 P11 1.573411 1_555
O47 Sn1 2.081242 1_445
O48 P5 1.526963 1_555
O49 P3 1.548342 1_555
O50 P4 1.548276 1_555
O51 P1 1.548342 1_555
O52 P2 1.526963 1_555
O53 P0 1.548276 1_555
O54 P12 1.549264 1_555
O54 Sn2 2.044588 1_555
O55 P13 1.574671 1_655
O55 Sn2 2.070303 1_555
O56 P14 1.573409 1_545
O56 Sn2 2.081242 1_555
O57 P15 1.574671 1_545
O57 Sn3 2.070303 1_555
O58 P16 1.549264 1_555
O58 Sn3 2.044588 1_555
O59 P17 1.573409 1_655
O59 Sn3 2.081242 1_555
O60 P11 1.526974 1_555
O61 P9 1.548328 1_455
O62 P10 1.548273 1_565
O63 P7 1.548328 1_565
O64 P8 1.526974 1_555
O65 P6 1.548273 1_455
O66 P0 1.549252 1_565
O66 Sn4 2.044588 1_555
O67 P1 1.574684 1_555
O67 Sn4 2.070303 1_555
O68 P2 1.573411 1_455
O68 Sn4 2.081242 1_555
O69 P3 1.574684 1_555
O69 Sn5 2.070303 1_555
O70 P4 1.549252 1_455
O70 Sn5 2.044588 1_555
O71 P5 1.573411 1_565
O71 Sn5 2.081242 1_555
