# generated using pymatgen
data_Mn3(Ni10P3)2
_symmetry_space_group_name_H-M   'P 1'
_cell_length_a   7.75772365
_cell_length_b   7.75772365
_cell_length_c   7.75772365
_cell_angle_alpha   60.00000000
_cell_angle_beta   60.00000000
_cell_angle_gamma   60.00000000
_symmetry_Int_Tables_number   1
_chemical_formula_structural   Mn3(Ni10P3)2
_chemical_formula_sum   'Mn3 Ni20 P6'
_cell_volume   330.13222343
_cell_formula_units_Z   1
loop_
 _symmetry_equiv_pos_site_id
 _symmetry_equiv_pos_as_xyz
  1  'x, y, z'
loop_
 _atom_site_type_symbol
 _atom_site_label
 _atom_site_symmetry_multiplicity
 _atom_site_fract_x
 _atom_site_fract_y
 _atom_site_fract_z
 _atom_site_occupancy
  Mn  Mn0  1  0.75000000  0.75000000  0.75000000  1
  Mn  Mn1  1  0.25000000  0.25000000  0.25000000  1
  Mn  Mn2  1  0.00000000  0.00000000  0.00000000  1
  Ni  Ni0  1  0.37957400  0.37957400  0.86127900  1
  Ni  Ni1  1  0.62042600  0.62042600  0.62042600  1
  Ni  Ni2  1  0.00000000  0.34775600  0.00000000  1
  Ni  Ni3  1  0.34775600  0.00000000  0.00000000  1
  Ni  Ni4  1  0.00000000  0.34775600  0.65224400  1
  Ni  Ni5  1  0.86127900  0.37957400  0.37957400  1
  Ni  Ni6  1  0.34775600  0.00000000  0.65224400  1
  Ni  Ni7  1  0.00000000  0.00000000  0.34775600  1
  Ni  Ni8  1  0.65224400  0.34775600  0.00000000  1
  Ni  Ni9  1  0.00000000  0.65224400  0.34775600  1
  Ni  Ni10  1  0.00000000  0.00000000  0.65224400  1
  Ni  Ni11  1  0.34775600  0.65224400  0.00000000  1
  Ni  Ni12  1  0.65224400  0.00000000  0.00000000  1
  Ni  Ni13  1  0.00000000  0.65224400  0.00000000  1
  Ni  Ni14  1  0.37957400  0.86127900  0.37957400  1
  Ni  Ni15  1  0.62042600  0.62042600  0.13872100  1
  Ni  Ni16  1  0.62042600  0.13872100  0.62042600  1
  Ni  Ni17  1  0.13872100  0.62042600  0.62042600  1
  Ni  Ni18  1  0.37957400  0.37957400  0.37957400  1
  Ni  Ni19  1  0.65224400  0.00000000  0.34775600  1
  P  P0  1  0.73592200  0.26407800  0.73592200  1
  P  P1  1  0.26407800  0.73592200  0.26407800  1
  P  P2  1  0.26407800  0.73592200  0.73592200  1
  P  P3  1  0.26407800  0.26407800  0.73592200  1
  P  P4  1  0.73592200  0.73592200  0.26407800  1
  P  P5  1  0.73592200  0.26407800  0.26407800  1
loop_
_geom_bond_atom_site_label_1
_geom_bond_atom_site_label_2
_geom_bond_distance
_geom_bond_site_symmetry_2
Mn0 Ni15 2.462219 1_556
Mn0 Ni17 2.462219 1_655
Mn0 Ni16 2.462219 1_565
Mn0 Ni1 2.462225 1_555
Mn1 Ni0 2.462219 1_554
Mn1 Ni5 2.462219 1_455
Mn1 Ni14 2.462219 1_545
Mn1 Ni18 2.462225 1_555
Mn2 Ni3 2.697795 1_555
Mn2 Ni7 2.697795 1_555
Mn2 Ni2 2.697795 1_555
Mn2 Ni8 2.697795 1_455
Mn2 Ni11 2.697795 1_545
Mn2 Ni6 2.697795 1_554
Mn2 Ni4 2.697795 1_554
Mn2 Ni9 2.697795 1_545
Mn2 Ni19 2.697795 1_455
Mn2 Ni10 2.697795 1_554
Mn2 Ni12 2.697795 1_455
Mn2 Ni13 2.697795 1_545
Mn2 P3 2.897220 1_554
Mn2 P1 2.897220 1_545
Mn2 P5 2.897220 1_455
Mn2 P2 2.897220 1_544
Mn2 P0 2.897220 1_454
Mn2 P4 2.897220 1_445
Ni0 P0 2.257596 1_555
Ni0 P2 2.257596 1_555
Ni0 P3 2.257602 1_555
Ni1 P0 2.257595 1_555
Ni1 P4 2.257595 1_555
Ni1 P2 2.257595 1_555
Ni2 P3 2.149032 1_554
Ni2 P5 2.149032 1_455
Ni3 P3 2.149032 1_554
Ni3 P1 2.149032 1_545
Ni4 P0 2.149032 1_455
Ni4 P3 2.149032 1_555
Ni5 P0 2.257596 1_555
Ni5 P4 2.257596 1_555
Ni5 P5 2.257602 1_555
Ni6 P2 2.149032 1_545
Ni6 P3 2.149032 1_555
Ni7 P1 2.149032 1_545
Ni7 P5 2.149032 1_455
Ni8 P0 2.149032 1_554
Ni8 P5 2.149032 1_555
Ni9 P4 2.149032 1_455
Ni9 P1 2.149032 1_555
Ni10 P0 2.149032 1_455
Ni10 P2 2.149032 1_545
Ni11 P2 2.149032 1_554
Ni11 P1 2.149032 1_555
Ni12 P4 2.149032 1_545
Ni12 P0 2.149032 1_554
Ni13 P4 2.149032 1_455
Ni13 P2 2.149032 1_554
Ni14 P2 2.257596 1_555
Ni14 P4 2.257596 1_555
Ni14 P1 2.257602 1_555
Ni15 P5 2.257596 1_555
Ni15 P1 2.257596 1_555
Ni15 P4 2.257602 1_555
Ni16 P5 2.257596 1_555
Ni16 P3 2.257596 1_555
Ni16 P0 2.257602 1_555
Ni17 P1 2.257596 1_555
Ni17 P3 2.257596 1_555
Ni17 P2 2.257602 1_555
Ni18 P5 2.257595 1_555
Ni18 P1 2.257595 1_555
Ni18 P3 2.257595 1_555
Ni19 P4 2.149032 1_545
Ni19 P5 2.149032 1_555
