# generated using pymatgen
data_Na6Zn3SnP4(SO12)2
_symmetry_space_group_name_H-M   'P 1'
_cell_length_a   9.03690432
_cell_length_b   9.00398618
_cell_length_c   22.10522071
_cell_angle_alpha   89.97117851
_cell_angle_beta   89.73132382
_cell_angle_gamma   120.06173895
_symmetry_Int_Tables_number   1
_chemical_formula_structural   Na6Zn3SnP4(SO12)2
_chemical_formula_sum   'Na18 Zn9 Sn3 P12 S6 O72'
_cell_volume   1556.69072188
_cell_formula_units_Z   3
loop_
 _symmetry_equiv_pos_site_id
 _symmetry_equiv_pos_as_xyz
  1  'x, y, z'
loop_
 _atom_site_type_symbol
 _atom_site_label
 _atom_site_symmetry_multiplicity
 _atom_site_fract_x
 _atom_site_fract_y
 _atom_site_fract_z
 _atom_site_occupancy
  Na  Na0  1  0.36493913  0.36684263  0.25313218  1
  Na  Na1  1  0.64044847  0.63439497  0.74553301  1
  Na  Na2  1  0.99283041  0.34968397  0.74869853  1
  Na  Na3  1  0.29462266  0.34134853  0.58444412  1
  Na  Na4  1  0.03105734  0.69689211  0.58041258  1
  Na  Na5  1  0.67208051  0.95883176  0.58154848  1
  Na  Na6  1  0.28917579  0.96024213  0.08038874  1
  Na  Na7  1  0.66432214  0.69624393  0.08224781  1
  Na  Na8  1  0.04572785  0.34182768  0.08415821  1
  Na  Na9  1  0.32246171  0.29445550  0.91147538  1
  Na  Na10  1  0.97826856  0.30287993  0.41080148  1
  Na  Na11  1  0.69803479  0.67765164  0.41129085  1
  Na  Na12  1  0.00528151  0.99962092  0.49423237  1
  Na  Na13  1  0.99324751  0.98562820  0.99180905  1
  Na  Na14  1  0.65591922  0.30949997  0.83001062  1
  Na  Na15  1  0.66690690  0.31873224  0.32848911  1
  Na  Na16  1  0.32403879  0.67125186  0.17148810  1
  Na  Na17  1  0.33864940  0.66944898  0.66400359  1
  Zn  Zn0  1  0.00738892  0.99727764  0.35128367  1
  Zn  Zn1  1  0.99472745  0.00381753  0.85143718  1
  Zn  Zn2  1  0.99043677  0.00990397  0.65671090  1
  Zn  Zn3  1  0.00779628  0.99518467  0.15416050  1
  Zn  Zn4  1  0.65816885  0.32561251  0.68425150  1
  Zn  Zn5  1  0.67377471  0.34389847  0.18212127  1
  Zn  Zn6  1  0.32899960  0.66435570  0.01038353  1
  Zn  Zn7  1  0.33020966  0.66167021  0.50609591  1
  Zn  Zn8  1  0.33439551  0.67779216  0.32526243  1
  Sn  Sn0  1  0.67038780  0.33855552  0.98047000  1
  Sn  Sn1  1  0.66670468  0.33285612  0.48181828  1
  Sn  Sn2  1  0.33634022  0.67315766  0.82024362  1
  P  P0  1  0.29840667  0.29895178  0.75175833  1
  P  P1  1  0.69880692  0.99831720  0.75005868  1
  P  P2  1  0.96345777  0.33498017  0.58539244  1
  P  P3  1  0.66840178  0.63059016  0.58570835  1
  P  P4  1  0.96266839  0.62819029  0.08476988  1
  P  P5  1  0.37017075  0.33297829  0.08556835  1
  P  P6  1  0.63398410  0.66978500  0.91921087  1
  P  P7  1  0.03260897  0.36831869  0.91814243  1
  P  P8  1  0.33359464  0.96606242  0.92064107  1
  P  P9  1  0.63058061  0.96534583  0.41831131  1
  P  P10  1  0.33414358  0.36634329  0.41630700  1
  P  P11  1  0.03705528  0.66794369  0.41883020  1
  S  S0  1  0.30093789  -0.00083975  0.24874087  1
  S  S1  1  0.70013470  0.70295534  0.24990674  1
  S  S2  1  0.99836728  0.29619462  0.24951560  1
  S  S3  1  0.00638969  0.70836996  0.74985726  1
  S  S4  1  0.36997484  0.03681061  0.58458738  1
  S  S5  1  0.66725683  0.04091552  0.08497867  1
  O  O0  1  0.21088559  0.02535035  0.30013136  1
  O  O1  1  0.80095975  0.78889936  0.30437577  1
  O  O2  1  0.98196867  0.19415782  0.30461330  1
  O  O3  1  0.21354194  0.19516729  0.80853418  1
  O  O4  1  0.98648420  0.79472016  0.80244271  1
  O  O5  1  0.81639847  0.02421437  0.80270645  1
  O  O6  1  0.76211984  0.95531864  0.69016021  1
  O  O7  1  0.19205334  0.22336704  0.69314440  1
  O  O8  1  0.02986314  0.80292403  0.69236471  1
  O  O9  1  0.78271708  0.80052067  0.19327883  1
  O  O10  1  0.01983583  0.21279963  0.19370414  1
  O  O11  1  0.20733599  0.97869791  0.19060545  1
  O  O12  1  0.87677376  0.35960695  0.64123295  1
  O  O13  1  0.47831114  0.11805155  0.63710554  1
  O  O14  1  0.63938275  0.51581438  0.64103147  1
  O  O15  1  0.88033658  0.50708041  0.13839374  1
  O  O16  1  0.63901975  0.12261179  0.13774869  1
  O  O17  1  0.48105119  0.35855594  0.14126759  1
  O  O18  1  0.45280896  0.29746091  0.02750520  1
  O  O19  1  0.84579315  0.54815496  0.02692486  1
  O  O20  1  0.69979826  0.15017480  0.02876592  1
  O  O21  1  0.44734340  0.14674825  0.52851428  1
  O  O22  1  0.69466060  0.54498926  0.52666572  1
  O  O23  1  0.84715157  0.30086730  0.52749382  1
  O  O24  1  0.54898400  0.68735410  0.97681273  1
  O  O25  1  0.13947228  0.45138021  0.97466047  1
  O  O26  1  0.31767562  0.86810909  0.97888121  1
  O  O27  1  0.55453349  0.86394980  0.47791939  1
  O  O28  1  0.30628451  0.44310664  0.47511068  1
  O  O29  1  0.13157891  0.68981225  0.47901194  1
  O  O30  1  0.11819297  0.62777271  0.36525834  1
  O  O31  1  0.52109306  0.88261188  0.36322844  1
  O  O32  1  0.37062550  0.48179161  0.36014815  1
  O  O33  1  0.11618070  0.48122460  0.85929690  1
  O  O34  1  0.36458855  0.88230302  0.86339797  1
  O  O35  1  0.51508795  0.63217490  0.86167961  1
  O  O36  1  0.00219219  0.81810001  0.41181738  1
  O  O37  1  0.81348084  0.98960468  0.41276699  1
  O  O38  1  0.17341221  0.18843773  0.41004579  1
  O  O39  1  0.02018607  0.19363163  0.91168545  1
  O  O40  1  0.18038610  0.99291729  0.91350539  1
  O  O41  1  0.81150909  0.82164399  0.91083541  1
  O  O42  1  0.98298056  0.17284813  0.58720645  1
  O  O43  1  0.19833002  0.02023539  0.58889200  1
  O  O44  1  0.83572975  0.80744716  0.58776321  1
  O  O45  1  0.97393980  0.80633259  0.08926878  1
  O  O46  1  0.82216695  0.02390224  0.08887083  1
  O  O47  1  0.18846062  0.17146483  0.08840571  1
  O  O48  1  0.68368369  0.16134277  0.74474159  1
  O  O49  1  0.48488700  0.33634152  0.74705327  1
  O  O50  1  0.85309894  0.53222734  0.74739068  1
  O  O51  1  0.67935145  0.52649511  0.24824352  1
  O  O52  1  0.84444148  0.31390041  0.24590876  1
  O  O53  1  0.47198710  0.16013770  0.24571374  1
  O  O54  1  0.63567021  0.49404280  0.92022978  1
  O  O55  1  0.85181695  0.35201269  0.92030774  1
  O  O56  1  0.49998123  0.15166912  0.92100192  1
  O  O57  1  0.65716358  0.15374503  0.42190424  1
  O  O58  1  0.50321870  0.35498965  0.42191875  1
  O  O59  1  0.85081260  0.49788232  0.42142196  1
  O  O60  1  0.35630611  0.49670798  0.07889453  1
  O  O61  1  0.14392708  0.65241178  0.07785767  1
  O  O62  1  0.51396596  0.86883211  0.07869503  1
  O  O63  1  0.35324364  0.86570959  0.57776720  1
  O  O64  1  0.50915616  0.65121463  0.57975744  1
  O  O65  1  0.14123638  0.49828166  0.57857067  1
  O  O66  1  0.31818353  0.84530098  0.25520616  1
  O  O67  1  0.52487274  0.68053028  0.25241347  1
  O  O68  1  0.15848447  0.46717834  0.25250282  1
  O  O69  1  0.30970806  0.48480097  0.75537393  1
  O  O70  1  0.16067936  0.68304326  0.75437825  1
  O  O71  1  0.51617408  0.82971849  0.75687692  1
loop_
_geom_bond_atom_site_label_1
_geom_bond_atom_site_label_2
_geom_bond_distance
_geom_bond_site_symmetry_2
Na0 O67 2.444701 1_555
Na0 O68 2.446659 1_555
Na0 O51 2.460915 1_555
Na0 O53 2.495858 1_555
Na0 O32 2.572994 1_555
Na0 O17 2.697327 1_555
Na0 O0 2.857701 1_555
Na1 O49 2.323619 1_555
Na1 O50 2.512504 1_555
Na1 O71 2.528581 1_555
Na1 O14 2.543363 1_555
Na1 O69 2.599072 1_555
Na1 O35 2.797420 1_555
Na1 O6 2.803150 1_555
Na2 O48 2.438098 1_555
Na2 O69 2.493162 1_655
Na2 O50 2.525165 1_555
Na2 O70 2.601293 1_655
Na2 O12 2.620729 1_555
Na2 O33 2.707058 1_655
Na2 O5 2.802295 1_555
Na2 O7 2.841669 1_655
Na3 O65 2.428718 1_555
Na3 O42 2.440187 1_455
Na3 O64 2.476344 1_555
Na3 O28 2.567166 1_555
Na3 O43 2.569970 1_555
Na3 O7 2.598337 1_555
Na4 O44 2.427123 1_455
Na4 O29 2.427462 1_555
Na4 O65 2.444293 1_555
Na4 O63 2.521016 1_555
Na4 O43 2.527914 1_565
Na4 O8 2.654865 1_555
Na4 O22 2.897174 1_455
Na4 O12 2.951356 1_455
Na5 O64 2.399172 1_555
Na5 O44 2.466820 1_555
Na5 O42 2.490395 1_565
Na5 O27 2.494264 1_555
Na5 O6 2.543886 1_555
Na5 O63 2.567847 1_555
Na6 O61 2.400895 1_555
Na6 O26 2.449462 1_554
Na6 O45 2.472590 1_455
Na6 O47 2.491953 1_565
Na6 O62 2.545551 1_555
Na6 O11 2.572373 1_555
Na6 O18 2.873040 1_565
Na7 O60 2.443992 1_555
Na7 O45 2.461899 1_555
Na7 O62 2.526566 1_555
Na7 O24 2.542476 1_554
Na7 O46 2.558563 1_565
Na7 O9 2.659080 1_555
Na7 O19 2.852448 1_555
Na7 O17 2.936082 1_555
Na8 O60 2.431279 1_555
Na8 O47 2.451287 1_555
Na8 O61 2.477792 1_555
Na8 O46 2.547656 1_455
Na8 O25 2.586605 1_554
Na8 O10 2.643446 1_555
Na8 O15 2.845738 1_455
Na8 O20 2.980473 1_455
Na9 O40 2.351355 1_545
Na9 O39 2.408612 1_555
Na9 O3 2.467304 1_555
Na9 O54 2.487527 1_555
Na9 O56 2.517934 1_555
Na9 O18 2.821926 1_556
Na9 O35 2.857257 1_555
Na9 O25 3.000508 1_555
Na10 O37 2.442724 1_545
Na10 O38 2.447915 1_655
Na10 O57 2.524470 1_555
Na10 O59 2.547273 1_555
Na10 O2 2.550230 1_555
Na10 O30 2.729316 1_655
Na10 O23 2.829831 1_555
Na10 O28 2.948469 1_655
Na11 O36 2.381654 1_655
Na11 O37 2.458360 1_555
Na11 O58 2.542878 1_555
Na11 O1 2.549046 1_555
Na11 O59 2.611087 1_555
Na11 O22 2.809257 1_555
Na11 O32 2.819251 1_555
Na11 O27 2.971305 1_555
Na12 O36 2.439016 1_555
Na12 O38 2.458542 1_565
Na12 O37 2.475511 1_455
Na12 O44 2.631897 1_455
Na12 O42 2.647933 1_465
Na12 O43 2.677050 1_565
Na13 O41 2.383704 1_555
Na13 O40 2.391992 1_655
Na13 O39 2.497935 1_665
Na13 O45 2.643620 1_556
Na13 O47 2.748270 1_666
Na13 O46 2.759692 1_566
Na14 O48 2.393484 1_555
Na14 O56 2.452596 1_555
Na14 O49 2.492079 1_555
Na14 O55 2.572874 1_555
Na14 O50 2.630220 1_555
Na14 O54 2.660131 1_555
Na15 O52 2.439407 1_555
Na15 O53 2.450057 1_555
Na15 O57 2.518496 1_555
Na15 O51 2.538246 1_555
Na15 O59 2.633193 1_555
Na15 O58 2.648763 1_555
Na16 O66 2.443058 1_555
Na16 O68 2.457469 1_555
Na16 O67 2.525800 1_555
Na16 O61 2.591737 1_555
Na16 O60 2.683484 1_555
Na16 O62 2.687456 1_555
Na17 O64 2.469032 1_555
Na17 O65 2.530676 1_555
Na17 O69 2.543226 1_555
Na17 O63 2.556321 1_555
Na17 O71 2.566195 1_555
Na17 O70 2.599992 1_555
O0 S0 1.480616 1_555
O0 Zn0 2.058836 1_545
O1 S1 1.477694 1_555
O1 Zn0 2.142182 1_655
O2 S2 1.486678 1_555
O2 Zn0 2.160544 1_645
O3 P0 1.519318 1_555
O3 Zn1 2.084586 1_455
O4 S3 1.458469 1_655
O4 Zn1 2.141356 1_565
O5 P1 1.517120 1_545
O5 Zn1 2.025774 1_555
O6 P1 1.563888 1_555
O6 Zn2 2.003686 1_565
O7 P0 1.556571 1_555
O7 Zn2 2.041889 1_455
O8 S3 1.483380 1_555
O8 Zn2 2.210807 1_465
O9 S1 1.492955 1_555
O9 Zn3 2.089811 1_655
O10 S2 1.506050 1_455
O10 Zn3 2.098622 1_545
O11 S0 1.501737 1_565
O11 Zn3 2.050453 1_555
O12 P2 1.533527 1_555
O12 Zn4 2.068066 1_555
O13 S4 1.461283 1_555
O13 Zn4 2.048217 1_555
O14 P3 1.535099 1_555
O14 Zn4 2.040995 1_555
O15 P4 1.524917 1_555
O15 Zn5 1.952299 1_555
O16 S5 1.467325 1_555
O16 Zn5 2.099654 1_555
O17 P5 1.534176 1_555
O17 Zn5 2.027594 1_555
O18 P5 1.593120 1_555
O18 Sn0 2.082205 1_554
O19 P4 1.587738 1_555
O19 Sn0 2.036887 1_554
O20 S5 1.517836 1_555
O20 Sn0 2.130704 1_554
O21 S4 1.517343 1_555
O21 Sn1 2.110504 1_555
O22 P3 1.592209 1_555
O22 Sn1 2.053217 1_555
O23 P2 1.589550 1_555
O23 Sn1 2.060877 1_555
O24 P6 1.532686 1_555
O24 Zn6 2.029584 1_556
O25 P7 1.530183 1_555
O25 Zn6 1.989480 1_556
O26 P8 1.525123 1_555
O26 Zn6 2.012114 1_556
O27 P9 1.550389 1_555
O27 Zn7 2.025493 1_555
O28 P10 1.550140 1_555
O28 Zn7 1.991268 1_555
O29 P11 1.542926 1_555
O29 Zn7 2.027389 1_555
O30 P11 1.526048 1_555
O30 Zn8 1.975768 1_555
O31 P9 1.513364 1_555
O31 Zn8 1.962011 1_555
O32 P10 1.543322 1_555
O32 Zn8 2.096718 1_555
O33 P7 1.586245 1_555
O33 Sn2 2.056172 1_555
O34 P8 1.567689 1_555
O34 Sn2 2.010934 1_555
O35 P6 1.592221 1_555
O35 Sn2 2.048202 1_555
O36 P11 1.542143 1_555
O36 Zn0 2.077705 1_555
O37 P9 1.559174 1_555
O37 Zn0 2.186062 1_655
O38 P10 1.538165 1_555
O38 Zn0 2.081861 1_545
O39 P7 1.526563 1_555
O39 Zn1 2.087778 1_455
O40 P8 1.528950 1_555
O40 Zn1 2.212120 1_465
O41 P6 1.508930 1_555
O41 Zn1 2.100591 1_565
O42 P2 1.556243 1_555
O42 Zn2 2.148340 1_555
O43 S4 1.484597 1_555
O43 Zn2 2.363053 1_455
O44 P3 1.553278 1_555
O44 Zn2 2.251662 1_565
O45 P4 1.558725 1_555
O45 Zn3 2.127915 1_655
O46 S5 1.485455 1_555
O46 Zn3 2.328253 1_645
O47 P5 1.556196 1_555
O47 Zn3 2.162582 1_545
O48 P1 1.545356 1_545
O48 Zn4 2.090787 1_555
O49 P0 1.547255 1_555
O49 Zn4 2.126031 1_555
O50 S3 1.495653 1_655
O50 Zn4 2.292259 1_555
O51 S1 1.504065 1_555
O51 Zn5 2.182225 1_555
O52 S2 1.479827 1_555
O52 Zn5 2.208441 1_555
O53 S0 1.499661 1_555
O53 Zn5 2.233783 1_555
O54 P6 1.590217 1_555
O54 Sn0 2.067309 1_555
O55 P7 1.565915 1_655
O55 Sn0 2.061995 1_555
O56 P8 1.592619 1_545
O56 Sn0 2.087132 1_555
O57 P9 1.591743 1_545
O57 Sn1 2.055787 1_555
O58 P10 1.587015 1_555
O58 Sn1 2.070925 1_555
O59 P11 1.611732 1_655
O59 Sn1 2.063686 1_555
O60 P5 1.547836 1_555
O60 Zn6 2.237729 1_555
O61 P4 1.547168 1_455
O61 Zn6 2.197651 1_555
O62 S5 1.480086 1_565
O62 Zn6 2.325329 1_555
O63 S4 1.478543 1_565
O63 Zn7 2.356150 1_555
O64 P3 1.546691 1_555
O64 Zn7 2.335035 1_555
O65 P2 1.548105 1_455
O65 Zn7 2.258808 1_555
O66 S0 1.476555 1_565
O66 Zn8 2.217120 1_555
O67 S1 1.493692 1_555
O67 Zn8 2.342694 1_555
O68 S2 1.495802 1_455
O68 Zn8 2.391014 1_555
O69 P0 1.626659 1_555
O69 Sn2 2.141774 1_555
O70 S3 1.525090 1_555
O70 Sn2 2.193356 1_555
O71 P1 1.593255 1_555
O71 Sn2 2.066831 1_555
