# generated using pymatgen
data_K3AlH6
_symmetry_space_group_name_H-M   'P 1'
_cell_length_a   5.97514397
_cell_length_b   6.01243194
_cell_length_c   8.48135536
_cell_angle_alpha   90.00000000
_cell_angle_beta   90.56384309
_cell_angle_gamma   90.00000000
_symmetry_Int_Tables_number   1
_chemical_formula_structural   K3AlH6
_chemical_formula_sum   'K6 Al2 H12'
_cell_volume   304.67917960
_cell_formula_units_Z   2
loop_
 _symmetry_equiv_pos_site_id
 _symmetry_equiv_pos_as_xyz
  1  'x, y, z'
loop_
 _atom_site_type_symbol
 _atom_site_label
 _atom_site_symmetry_multiplicity
 _atom_site_fract_x
 _atom_site_fract_y
 _atom_site_fract_z
 _atom_site_occupancy
  K  K0  1  0.50000000  0.50000000  0.00000000  1
  K  K1  1  0.00000000  0.00000000  0.50000000  1
  K  K2  1  0.49387254  0.97169283  0.25094379  1
  K  K3  1  0.00612746  0.47169283  0.24905621  1
  K  K4  1  0.50612746  0.02830717  0.74905621  1
  K  K5  1  0.99387254  0.52830717  0.75094379  1
  Al  Al0  1  0.50000000  0.50000000  0.50000000  1
  Al  Al1  1  0.00000000  0.00000000  0.00000000  1
  H  H0  1  0.66694296  0.73823232  0.53576786  1
  H  H1  1  0.83305704  0.23823232  0.96423214  1
  H  H2  1  0.33305704  0.26176768  0.46423214  1
  H  H3  1  0.16694296  0.76176768  0.03576786  1
  H  H4  1  0.76353331  0.82886868  0.97091877  1
  H  H5  1  0.73646669  0.32886868  0.52908123  1
  H  H6  1  0.23646669  0.17113132  0.02908123  1
  H  H7  1  0.26353331  0.67113132  0.47091877  1
  H  H8  1  0.05899851  0.98053940  0.79702226  1
  H  H9  1  0.44100149  0.48053940  0.70297774  1
  H  H10  1  0.94100149  0.01946060  0.20297774  1
  H  H11  1  0.55899851  0.51946060  0.29702226  1
loop_
_geom_bond_atom_site_label_1
_geom_bond_atom_site_label_2
_geom_bond_distance
_geom_bond_site_symmetry_2
Al0 H7 1.763234 1_555
Al0 H5 1.763234 1_555
Al0 H11 1.764529 1_555
Al0 H9 1.764529 1_555
Al0 H2 1.769954 1_555
Al0 H0 1.769954 1_555
Al1 H4 1.763234 1_444
Al1 H6 1.763234 1_555
Al1 H10 1.764529 1_455
Al1 H8 1.764529 1_544
Al1 H1 1.769954 1_454
Al1 H3 1.769954 1_545
H0 K1 2.557596 1_665
H0 K4 2.696599 1_565
H0 K5 2.944388 1_555
H0 K2 2.970874 1_555
H1 K0 2.557596 1_556
H1 K5 2.696599 1_555
H1 K4 2.944388 1_555
H1 K3 2.970874 1_656
H2 K1 2.557596 1_555
H2 K2 2.696599 1_545
H2 K3 2.944388 1_555
H2 K4 2.970874 1_555
H3 K0 2.557596 1_555
H3 K3 2.696599 1_555
H3 K2 2.944388 1_555
H3 K5 2.970874 1_454
H4 K0 2.541204 1_556
H4 K4 2.699489 1_565
H4 K5 2.948081 1_555
H4 K2 3.008233 1_556
H5 K1 2.541204 1_655
H5 K5 2.699489 1_555
H5 K4 2.948081 1_555
H5 K3 3.008233 1_655
H6 K0 2.541204 1_555
H6 K2 2.699489 1_545
H6 K3 2.948081 1_555
H6 K4 3.008233 1_554
H7 K1 2.541204 1_565
H7 K3 2.699489 1_555
H7 K2 2.948081 1_555
H7 K5 3.008233 1_455
H8 K1 2.542953 1_565
H8 K4 2.721607 1_565
H8 K5 2.773844 1_455
H9 K0 2.542953 1_556
H9 K5 2.721607 1_455
H9 K4 2.773844 1_555
H10 K1 2.542953 1_655
H10 K2 2.721607 1_545
H10 K3 2.773844 1_655
H11 K0 2.542953 1_555
H11 K3 2.721607 1_655
H11 K2 2.773844 1_555
