# generated using pymatgen
data_MgCo2(SbS)2
_symmetry_space_group_name_H-M   'P 1'
_cell_length_a   3.52306113
_cell_length_b   5.14493589
_cell_length_c   7.18555389
_cell_angle_alpha   104.11242446
_cell_angle_beta   90.00000000
_cell_angle_gamma   90.00000000
_symmetry_Int_Tables_number   1
_chemical_formula_structural   MgCo2(SbS)2
_chemical_formula_sum   'Mg1 Co2 Sb2 S2'
_cell_volume   126.31390446
_cell_formula_units_Z   1
loop_
 _symmetry_equiv_pos_site_id
 _symmetry_equiv_pos_as_xyz
  1  'x, y, z'
loop_
 _atom_site_type_symbol
 _atom_site_label
 _atom_site_symmetry_multiplicity
 _atom_site_fract_x
 _atom_site_fract_y
 _atom_site_fract_z
 _atom_site_occupancy
  Mg  Mg0  1  0.00000000  0.64508699  0.96209715  1
  Co  Co0  1  0.00000000  0.19616517  0.07954145  1
  Co  Co1  1  0.50000000  0.75296022  0.49524926  1
  Sb  Sb0  1  0.00000000  0.04182556  0.38479383  1
  Sb  Sb1  1  0.50000000  0.07022249  0.82593300  1
  S  S0  1  0.50000000  0.49326195  0.19278716  1
  S  S1  1  0.00000000  0.53658862  0.59583115  1
loop_
_geom_bond_atom_site_label_1
_geom_bond_atom_site_label_2
_geom_bond_distance
_geom_bond_site_symmetry_2
Mg0 S1 2.553759 1_555
Mg0 S0 2.663144 1_556
Mg0 S0 2.663144 1_456
Mg0 Sb1 3.144544 1_465
Mg0 Sb1 3.144544 1_565
Mg0 Sb1 3.375909 1_455
Mg0 Sb1 3.375909 1_555
Co0 S0 2.344151 1_455
Co0 S0 2.344151 1_555
Co0 Sb1 2.503572 1_554
Co0 Sb1 2.503572 1_454
Co0 Sb0 2.508172 1_555
Co0 Mg0 2.645234 1_554
Co0 Mg0 2.753922 1_544
Co1 S0 2.256689 1_555
Co1 S1 2.292801 1_655
Co1 S1 2.292801 1_555
Co1 Sb1 2.533588 1_565
Co1 Sb0 2.552824 1_665
Co1 Sb0 2.552824 1_565
S0 Sb1 2.981295 1_554
S1 Sb0 2.626186 1_555
