# generated using pymatgen
data_Na6Mg(BiO4)2
_symmetry_space_group_name_H-M   'P 1'
_cell_length_a   6.18288959
_cell_length_b   6.23261766
_cell_length_c   6.71786872
_cell_angle_alpha   90.44114995
_cell_angle_beta   90.95556607
_cell_angle_gamma   113.51966970
_symmetry_Int_Tables_number   1
_chemical_formula_structural   Na6Mg(BiO4)2
_chemical_formula_sum   'Na6 Mg1 Bi2 O8'
_cell_volume   237.30821603
_cell_formula_units_Z   1
loop_
 _symmetry_equiv_pos_site_id
 _symmetry_equiv_pos_as_xyz
  1  'x, y, z'
loop_
 _atom_site_type_symbol
 _atom_site_label
 _atom_site_symmetry_multiplicity
 _atom_site_fract_x
 _atom_site_fract_y
 _atom_site_fract_z
 _atom_site_occupancy
  Na  Na0  1  0.76979088  0.99658691  0.37560141  1
  Na  Na1  1  0.24063934  0.52531184  0.33290444  1
  Na  Na2  1  0.72452035  0.51003918  0.12739258  1
  Na  Na3  1  0.19600148  0.53458282  0.92224673  1
  Na  Na4  1  0.27651158  0.89164593  0.62010145  1
  Na  Na5  1  0.82151921  0.52764621  0.59053238  1
  Mg  Mg0  1  0.35316108  0.34279689  0.64536832  1
  Bi  Bi0  1  0.76921969  0.99338394  0.85294653  1
  Bi  Bi1  1  0.25158169  0.01785823  0.13912730  1
  O  O0  1  0.01215207  0.26987598  0.64143997  1
  O  O1  1  0.51924375  0.68880334  0.63820489  1
  O  O2  1  0.02829851  0.76846272  0.33969282  1
  O  O3  1  0.45891077  0.24487462  0.38555569  1
  O  O4  1  0.46345623  0.22818958  0.89143024  1
  O  O5  1  0.00167088  0.79216835  0.89457472  1
  O  O6  1  0.02785841  0.20926230  0.12054154  1
  O  O7  1  0.47088206  0.82309417  0.12122798  1
loop_
_geom_bond_atom_site_label_1
_geom_bond_atom_site_label_2
_geom_bond_distance
_geom_bond_site_symmetry_2
Na0 O6 2.382650 1_665
Na0 O7 2.403368 1_555
Na0 O0 2.482503 1_665
Na0 O2 2.540810 1_655
Na0 O1 2.638802 1_555
Na0 O3 2.910411 1_565
Na1 O6 2.339236 1_555
Na1 O7 2.343652 1_555
Na1 O2 2.368814 1_555
Na1 O1 2.580915 1_555
Na1 O3 2.622524 1_555
Na1 O0 2.679522 1_555
Na2 O2 2.369981 1_655
Na2 O4 2.410959 1_554
Na2 O5 2.490268 1_654
Na2 O3 2.531605 1_555
Na2 O7 2.951140 1_555
Na3 O7 2.314484 1_556
Na3 O6 2.317733 1_556
Na3 O5 2.364813 1_555
Na3 O0 2.440569 1_555
Na3 O1 2.679826 1_555
Na4 O1 2.318634 1_555
Na4 O2 2.331113 1_555
Na4 O5 2.439909 1_555
Na4 O3 2.594681 1_565
Na4 O4 2.644609 1_565
Na5 O2 2.303509 1_655
Na5 O0 2.365096 1_655
Na5 O1 2.473386 1_555
Na5 O5 2.556804 1_655
Na5 O3 2.595129 1_555
Mg0 O0 1.971255 1_555
Mg0 O1 1.985748 1_555
Mg0 O4 2.019180 1_555
Mg0 O3 2.046097 1_555
Bi0 O5 2.268728 1_655
Bi0 O0 2.299486 1_665
Bi0 O1 2.369668 1_555
Bi0 O6 2.397662 1_666
Bi0 O7 2.520910 1_556
Bi1 O2 2.125796 1_545
Bi1 O7 2.154838 1_545
Bi1 O6 2.160018 1_555
Bi1 O3 2.198031 1_555
Bi1 O4 2.222420 1_554
Bi1 O5 2.282593 1_544
