# generated using pymatgen
data_Rb2CaH4
_symmetry_space_group_name_H-M   'P 1'
_cell_length_a   4.49202270
_cell_length_b   4.49202330
_cell_length_c   8.05808920
_cell_angle_alpha   106.18428436
_cell_angle_beta   106.18428771
_cell_angle_gamma   89.99999385
_symmetry_Int_Tables_number   1
_chemical_formula_structural   Rb2CaH4
_chemical_formula_sum   'Rb2 Ca1 H4'
_cell_volume   149.43321404
_cell_formula_units_Z   1
loop_
 _symmetry_equiv_pos_site_id
 _symmetry_equiv_pos_as_xyz
  1  'x, y, z'
loop_
 _atom_site_type_symbol
 _atom_site_label
 _atom_site_symmetry_multiplicity
 _atom_site_fract_x
 _atom_site_fract_y
 _atom_site_fract_z
 _atom_site_occupancy
  Rb  Rb0  1  0.64773427  0.64773427  0.29546754  1
  Rb  Rb1  1  0.35226573  0.35226573  0.70453246  1
  Ca  Ca0  1  -0.00000000  -0.00000000  -0.00000000  1
  H  H0  1  0.50000000  -0.00000000  -0.00000000  1
  H  H1  1  -0.00000000  0.50000000  -0.00000000  1
  H  H2  1  0.84379431  0.84379431  0.68758861  1
  H  H3  1  0.15620569  0.15620569  0.31241139  1
loop_
_geom_bond_atom_site_label_1
_geom_bond_atom_site_label_2
_geom_bond_distance
_geom_bond_site_symmetry_2
Ca0 H0 2.246011 1_555
Ca0 H0 2.246011 1_455
Ca0 H1 2.246012 1_555
Ca0 H1 2.246012 1_545
Ca0 H2 2.313609 1_444
Ca0 H3 2.313609 1_555
H0 Rb1 3.135677 1_554
H0 Rb0 3.135677 1_545
H0 Rb1 3.135680 1_544
H0 Rb0 3.135680 1_555
H1 Rb1 3.135677 1_554
H1 Rb0 3.135677 1_455
H1 Rb1 3.135679 1_454
H1 Rb0 3.135679 1_555
H2 Rb0 2.903911 1_555
H2 Rb1 3.178814 1_665
H2 Rb1 3.178817 1_655
H2 Rb1 3.178817 1_565
H2 Rb1 3.178821 1_555
H3 Rb1 2.903911 1_555
H3 Rb0 3.178814 1_445
H3 Rb0 3.178817 1_455
H3 Rb0 3.178817 1_545
H3 Rb0 3.178821 1_555
