# generated using pymatgen
data_CsNiCl3
_symmetry_space_group_name_H-M   'P 1'
_cell_length_a   7.20877398
_cell_length_b   7.20878030
_cell_length_c   5.94015344
_cell_angle_alpha   90.00000375
_cell_angle_beta   90.00001846
_cell_angle_gamma   120.00003263
_symmetry_Int_Tables_number   1
_chemical_formula_structural   CsNiCl3
_chemical_formula_sum   'Cs2 Ni2 Cl6'
_cell_volume   267.33224842
_cell_formula_units_Z   2
loop_
 _symmetry_equiv_pos_site_id
 _symmetry_equiv_pos_as_xyz
  1  'x, y, z'
loop_
 _atom_site_type_symbol
 _atom_site_label
 _atom_site_symmetry_multiplicity
 _atom_site_fract_x
 _atom_site_fract_y
 _atom_site_fract_z
 _atom_site_occupancy
  Cs  Cs0  1  0.66666700  0.33333300  0.25000000  1
  Cs  Cs1  1  0.33333300  0.66666700  0.75000000  1
  Ni  Ni0  1  -0.00000000  0.00000000  0.50000000  1
  Ni  Ni1  1  -0.00000000  0.00000000  0.00000000  1
  Cl  Cl0  1  0.84794685  0.69589269  0.75000100  1
  Cl  Cl1  1  0.15205315  0.84794685  0.24999900  1
  Cl  Cl2  1  0.69589269  0.84794685  0.24999900  1
  Cl  Cl3  1  0.30410731  0.15205315  0.75000100  1
  Cl  Cl4  1  0.15205315  0.30410731  0.24999900  1
  Cl  Cl5  1  0.84794685  0.15205315  0.75000100  1
loop_
_geom_bond_atom_site_label_1
_geom_bond_atom_site_label_2
_geom_bond_distance
_geom_bond_site_symmetry_2
Cl0 Ni1 2.410345 1_666
Cl0 Ni0 2.410353 1_665
Cl0 Cs1 3.608995 1_655
Cl0 Cs1 3.609009 1_555
Cl0 Cs0 3.734240 1_556
Cl0 Cs0 3.734249 1_555
Cl1 Ni1 2.410340 1_565
Cl1 Ni0 2.410348 1_565
Cl1 Cs0 3.609002 1_565
Cl1 Cs0 3.609003 1_455
Cl1 Cs1 3.734240 1_554
Cl1 Cs1 3.734249 1_555
Cl2 Ni1 2.410345 1_665
Cl2 Ni0 2.410351 1_665
Cl2 Cs0 3.608998 1_565
Cl2 Cs0 3.609012 1_555
Cl2 Cs1 3.734238 1_554
Cl2 Cs1 3.734249 1_555
Cl3 Ni1 2.410345 1_556
Cl3 Ni0 2.410351 1_555
Cl3 Cs1 3.608998 1_545
Cl3 Cs1 3.609012 1_555
Cl3 Cs0 3.734238 1_556
Cl3 Cs0 3.734249 1_555
Cl4 Ni1 2.410345 1_555
Cl4 Ni0 2.410353 1_555
Cl4 Cs0 3.608995 1_455
Cl4 Cs0 3.609009 1_555
Cl4 Cs1 3.734240 1_554
Cl4 Cs1 3.734249 1_555
Cl5 Ni1 2.410340 1_656
Cl5 Ni0 2.410348 1_655
Cl5 Cs1 3.609002 1_545
Cl5 Cs1 3.609003 1_655
Cl5 Cs0 3.734240 1_556
Cl5 Cs0 3.734249 1_555
