# generated using pymatgen
data_K2Mo9S11
_symmetry_space_group_name_H-M   'P 1'
_cell_length_a   13.22665278
_cell_length_b   13.22665278
_cell_length_c   13.22665311
_cell_angle_alpha   41.65874757
_cell_angle_beta   41.65874757
_cell_angle_gamma   41.65874912
_symmetry_Int_Tables_number   1
_chemical_formula_structural   K2Mo9S11
_chemical_formula_sum   'K4 Mo18 S22'
_cell_volume   924.14089827
_cell_formula_units_Z   2
loop_
 _symmetry_equiv_pos_site_id
 _symmetry_equiv_pos_as_xyz
  1  'x, y, z'
loop_
 _atom_site_type_symbol
 _atom_site_label
 _atom_site_symmetry_multiplicity
 _atom_site_fract_x
 _atom_site_fract_y
 _atom_site_fract_z
 _atom_site_occupancy
  K  K0  1  0.05357200  0.05357200  0.05357200  1
  K  K1  1  0.94642800  0.94642800  0.94642800  1
  K  K2  1  0.44642800  0.44642800  0.44642800  1
  K  K3  1  0.55357200  0.55357200  0.55357200  1
  Mo  Mo0  1  0.02825800  0.35577300  0.17693100  1
  Mo  Mo1  1  0.17693100  0.02825800  0.35577300  1
  Mo  Mo2  1  0.35577300  0.17693100  0.02825800  1
  Mo  Mo3  1  0.47174200  0.32306900  0.14422700  1
  Mo  Mo4  1  0.14422700  0.47174200  0.32306900  1
  Mo  Mo5  1  0.32306900  0.14422700  0.47174200  1
  Mo  Mo6  1  0.97174200  0.64422700  0.82306900  1
  Mo  Mo7  1  0.82306900  0.97174200  0.64422700  1
  Mo  Mo8  1  0.64422700  0.82306900  0.97174200  1
  Mo  Mo9  1  0.52825800  0.67693100  0.85577300  1
  Mo  Mo10  1  0.85577300  0.52825800  0.67693100  1
  Mo  Mo11  1  0.67693100  0.85577300  0.52825800  1
  Mo  Mo12  1  0.41763300  0.08236700  0.25000000  1
  Mo  Mo13  1  0.25000000  0.41763300  0.08236700  1
  Mo  Mo14  1  0.08236700  0.25000000  0.41763300  1
  Mo  Mo15  1  0.58236700  0.91763300  0.75000000  1
  Mo  Mo16  1  0.75000000  0.58236700  0.91763300  1
  Mo  Mo17  1  0.91763300  0.75000000  0.58236700  1
  S  S0  1  0.94653900  0.55346100  0.25000000  1
  S  S1  1  0.98344700  0.71392300  0.37886200  1
  S  S2  1  0.55346100  0.25000000  0.94653900  1
  S  S3  1  0.71392300  0.37886200  0.98344700  1
  S  S4  1  0.13618600  0.13618600  0.13618600  1
  S  S5  1  0.36381400  0.36381400  0.36381400  1
  S  S6  1  0.86381400  0.86381400  0.86381400  1
  S  S7  1  0.63618600  0.63618600  0.63618600  1
  S  S8  1  0.87886200  0.21392300  0.48344700  1
  S  S9  1  0.48344700  0.87886200  0.21392300  1
  S  S10  1  0.21392300  0.48344700  0.87886200  1
  S  S11  1  0.62113800  0.01655300  0.28607700  1
  S  S12  1  0.28607700  0.62113800  0.01655300  1
  S  S13  1  0.01655300  0.28607700  0.62113800  1
  S  S14  1  0.12113800  0.78607700  0.51655300  1
  S  S15  1  0.51655300  0.12113800  0.78607700  1
  S  S16  1  0.78607700  0.51655300  0.12113800  1
  S  S17  1  0.37886200  0.98344700  0.71392300  1
  S  S18  1  0.75000000  0.05346100  0.44653900  1
  S  S19  1  0.05346100  0.44653900  0.75000000  1
  S  S20  1  0.44653900  0.75000000  0.05346100  1
  S  S21  1  0.25000000  0.94653900  0.55346100  1
loop_
_geom_bond_atom_site_label_1
_geom_bond_atom_site_label_2
_geom_bond_distance
_geom_bond_site_symmetry_2
K0 S4 2.989048 1_555
K0 S1 3.306863 1_445
K0 S17 3.306863 1_544
K0 S3 3.306863 1_454
K0 S19 3.456977 1_554
K0 S18 3.456978 1_455
K0 S20 3.456978 1_545
K1 S6 2.989048 1_555
K1 S13 3.306863 1_665
K1 S11 3.306863 1_566
K1 S12 3.306863 1_656
K1 S0 3.456977 1_556
K1 S21 3.456978 1_655
K1 S2 3.456978 1_565
K2 S5 2.989048 1_555
K2 S16 3.306863 1_555
K2 S15 3.306863 1_555
K2 S14 3.306863 1_555
K2 S19 3.456977 1_555
K2 S20 3.456978 1_555
K2 S18 3.456978 1_555
K3 S7 2.989048 1_555
K3 S10 3.306863 1_555
K3 S9 3.306863 1_555
K3 S8 3.306863 1_555
K3 S0 3.456977 1_555
K3 S2 3.456978 1_555
K3 S21 3.456978 1_555
Mo0 S4 2.399550 1_555
Mo0 S8 2.462631 1_455
Mo0 S10 2.491427 1_554
Mo0 S16 2.517191 1_455
Mo0 S0 2.632743 1_455
Mo1 S4 2.399550 1_555
Mo1 S9 2.462631 1_545
Mo1 S8 2.491427 1_455
Mo1 S14 2.517191 1_545
Mo1 S21 2.632743 1_545
Mo2 S4 2.399550 1_555
Mo2 S10 2.462631 1_554
Mo2 S9 2.491427 1_545
Mo2 S15 2.517191 1_554
Mo2 S2 2.632742 1_554
Mo3 S5 2.399550 1_555
Mo3 S11 2.462631 1_555
Mo3 S12 2.491427 1_555
Mo3 S3 2.517191 1_554
Mo3 S2 2.632743 1_554
Mo4 S5 2.399550 1_555
Mo4 S12 2.462631 1_555
Mo4 S13 2.491427 1_555
Mo4 S1 2.517191 1_455
Mo4 S0 2.632743 1_455
Mo5 S5 2.399550 1_555
Mo5 S13 2.462631 1_555
Mo5 S11 2.491427 1_555
Mo5 S17 2.517191 1_545
Mo5 S21 2.632742 1_545
Mo6 S6 2.399550 1_555
Mo6 S14 2.462631 1_655
Mo6 S16 2.491427 1_556
Mo6 S10 2.517191 1_655
Mo6 S19 2.632743 1_655
Mo7 S6 2.399550 1_555
Mo7 S15 2.462631 1_565
Mo7 S14 2.491427 1_655
Mo7 S8 2.517191 1_565
Mo7 S18 2.632743 1_565
Mo8 S6 2.399550 1_555
Mo8 S16 2.462631 1_556
Mo8 S15 2.491427 1_565
Mo8 S9 2.517191 1_556
Mo8 S20 2.632742 1_556
Mo9 S7 2.399550 1_555
Mo9 S17 2.462631 1_555
Mo9 S3 2.491427 1_555
Mo9 S12 2.517191 1_556
Mo9 S20 2.632743 1_556
Mo10 S7 2.399550 1_555
Mo10 S3 2.462631 1_555
Mo10 S1 2.491427 1_555
Mo10 S13 2.517191 1_655
Mo10 S19 2.632743 1_655
Mo11 S7 2.399550 1_555
Mo11 S1 2.462631 1_555
Mo11 S17 2.491427 1_555
Mo11 S11 2.517191 1_565
Mo11 S18 2.632742 1_565
Mo12 S9 2.455207 1_545
Mo12 S11 2.455207 1_555
Mo12 S21 2.476578 1_545
Mo12 S2 2.476578 1_554
Mo13 S12 2.455207 1_555
Mo13 S10 2.455207 1_554
Mo13 S0 2.476578 1_455
Mo13 S2 2.476578 1_554
Mo14 S8 2.455207 1_455
Mo14 S13 2.455207 1_555
Mo14 S0 2.476578 1_455
Mo14 S21 2.476578 1_545
Mo15 S15 2.455207 1_565
Mo15 S17 2.455207 1_555
Mo15 S18 2.476578 1_565
Mo15 S20 2.476578 1_556
Mo16 S3 2.455207 1_555
Mo16 S16 2.455207 1_556
Mo16 S19 2.476578 1_655
Mo16 S20 2.476578 1_556
Mo17 S14 2.455207 1_655
Mo17 S1 2.455207 1_555
Mo17 S19 2.476578 1_655
Mo17 S18 2.476578 1_565
