# generated using pymatgen
data_MgFe6(OF)6
_symmetry_space_group_name_H-M   'P 1'
_cell_length_a   5.10390874
_cell_length_b   14.45300118
_cell_length_c   3.12627827
_cell_angle_alpha   96.15321105
_cell_angle_beta   89.97533352
_cell_angle_gamma   96.60941646
_symmetry_Int_Tables_number   1
_chemical_formula_structural   MgFe6(OF)6
_chemical_formula_sum   'Mg1 Fe6 O6 F6'
_cell_volume   227.74649957
_cell_formula_units_Z   1
loop_
 _symmetry_equiv_pos_site_id
 _symmetry_equiv_pos_as_xyz
  1  'x, y, z'
loop_
 _atom_site_type_symbol
 _atom_site_label
 _atom_site_symmetry_multiplicity
 _atom_site_fract_x
 _atom_site_fract_y
 _atom_site_fract_z
 _atom_site_occupancy
  Mg  Mg0  1  0.55319287  0.34477902  0.69177474  1
  Fe  Fe0  1  0.05054612  0.98850325  0.01684609  1
  Fe  Fe1  1  0.04606365  0.31626856  0.17208624  1
  Fe  Fe2  1  0.93735910  0.68375833  0.86289831  1
  Fe  Fe3  1  0.53562078  0.14462717  0.58686683  1
  Fe  Fe4  1  0.43828531  0.53922849  0.29032717  1
  Fe  Fe5  1  0.43123516  0.83266295  0.43870118  1
  O  O0  1  0.17132882  0.92774764  0.48611341  1
  O  O1  1  0.27815201  0.76891187  0.90678373  1
  O  O2  1  0.35130296  0.08735265  0.05965356  1
  O  O3  1  0.39550190  0.40675692  0.22175336  1
  O  O4  1  0.61676665  0.58143197  0.81116470  1
  O  O5  1  0.68385777  0.24096834  0.13070019  1
  F  F0  1  0.23598788  0.24548873  0.63785318  1
  F  F1  1  0.11085475  0.59460490  0.31935021  1
  F  F2  1  0.67067962  0.90993720  0.97728210  1
  F  F3  1  0.91355884  0.40023272  0.71327566  1
  F  F4  1  0.74511324  0.75360145  0.39799142  1
  F  F5  1  0.84848558  0.06646983  0.54941092  1
loop_
_geom_bond_atom_site_label_1
_geom_bond_atom_site_label_2
_geom_bond_distance
_geom_bond_site_symmetry_2
Mg0 O3 2.010473 1_556
Mg0 O3 2.014574 1_555
Mg0 O5 2.291575 1_556
Mg0 O5 2.331912 1_555
Fe0 O0 1.924814 1_555
Fe0 O0 1.927560 1_554
Fe0 O2 1.967152 1_565
Fe1 O5 2.031159 1_455
Fe1 O3 2.082105 1_555
Fe2 O1 2.007524 1_655
Fe2 O4 2.069456 1_555
Fe3 O2 1.953567 1_555
Fe3 O2 1.958757 1_556
Fe3 O5 2.157068 1_556
Fe3 O5 2.174230 1_555
Fe4 O4 1.874214 1_554
Fe4 O4 1.874473 1_555
Fe4 O3 1.890816 1_555
Fe5 O1 1.929556 1_555
Fe5 O1 1.931753 1_554
Fe5 O0 2.011488 1_555
F0 Mg0 2.030376 1_555
F0 Fe1 2.153182 1_556
F0 Fe1 2.157600 1_555
F0 Fe3 2.225394 1_555
F1 Fe4 1.932313 1_555
F1 Fe2 2.263620 1_455
F1 Fe2 2.266867 1_454
F2 Fe0 2.127664 1_656
F2 Fe5 2.202592 1_556
F2 Fe5 2.204619 1_555
F3 Mg0 1.918077 1_555
F3 Fe1 2.130817 1_655
F3 Fe1 2.133159 1_656
F4 Fe5 2.068423 1_555
F4 Fe2 2.153590 1_555
F4 Fe2 2.155170 1_554
F5 Fe3 2.055802 1_555
F5 Fe0 2.229183 1_645
F5 Fe0 2.256256 1_646
