# generated using pymatgen
data_Sm4Mg(Cu2O5)2
_symmetry_space_group_name_H-M   'P 1'
_cell_length_a   5.43626396
_cell_length_b   5.64037194
_cell_length_c   8.82182714
_cell_angle_alpha   106.47157038
_cell_angle_beta   108.12863939
_cell_angle_gamma   90.83834513
_symmetry_Int_Tables_number   1
_chemical_formula_structural   Sm4Mg(Cu2O5)2
_chemical_formula_sum   'Sm4 Mg1 Cu4 O10'
_cell_volume   244.94706767
_cell_formula_units_Z   1
loop_
 _symmetry_equiv_pos_site_id
 _symmetry_equiv_pos_as_xyz
  1  'x, y, z'
loop_
 _atom_site_type_symbol
 _atom_site_label
 _atom_site_symmetry_multiplicity
 _atom_site_fract_x
 _atom_site_fract_y
 _atom_site_fract_z
 _atom_site_occupancy
  Sm  Sm0  1  0.57242825  0.10252224  0.19358161  1
  Sm  Sm1  1  0.36723611  0.84778357  0.76304528  1
  Sm  Sm2  1  0.06721813  0.59948555  0.24370123  1
  Sm  Sm3  1  0.88986835  0.41636863  0.80879303  1
  Mg  Mg0  1  0.57668777  0.50630430  0.48886509  1
  Cu  Cu0  1  0.98765644  0.98664798  0.99933458  1
  Cu  Cu1  1  0.48463727  0.48671194  0.01032285  1
  Cu  Cu2  1  0.17939974  0.15083388  0.49342830  1
  Cu  Cu3  1  0.82954418  0.93795905  0.55699178  1
  O  O0  1  0.23362357  0.18816448  0.95082774  1
  O  O1  1  0.22517089  0.72726718  0.03616836  1
  O  O2  1  0.73808109  0.22883402  0.97998040  1
  O  O3  1  0.73094283  0.76519251  0.02022678  1
  O  O4  1  0.25258687  0.26581670  0.30652470  1
  O  O5  1  0.91859638  0.72223401  0.68430490  1
  O  O6  1  0.69136136  0.53943988  0.29036618  1
  O  O7  1  0.45651444  0.44491815  0.68206307  1
  O  O8  1  0.80434977  0.21314903  0.48561577  1
  O  O9  1  0.35959657  0.82274889  0.49871135  1
loop_
_geom_bond_atom_site_label_1
_geom_bond_atom_site_label_2
_geom_bond_distance
_geom_bond_site_symmetry_2
Mg0 O8 2.078873 1_555
Mg0 O6 2.086025 1_555
Mg0 O4 2.112052 1_555
Mg0 O7 2.114815 1_555
Mg0 O9 2.150254 1_555
Mg0 O5 2.158579 1_555
Cu0 O2 1.943782 1_565
Cu0 O3 1.944582 1_556
Cu0 O0 1.962245 1_665
Cu0 O1 1.994219 1_656
Cu0 O4 2.642466 1_666
Cu1 O0 1.989722 1_554
Cu1 O1 1.990790 1_555
Cu1 O3 2.013837 1_555
Cu1 O2 2.037881 1_554
Cu1 O6 2.302295 1_555
Cu2 O8 2.057315 1_455
Cu2 O4 2.074763 1_555
Cu2 O9 2.111813 1_545
Cu2 O7 2.142805 1_555
Cu3 O8 1.825177 1_565
Cu3 O5 1.852071 1_555
Cu3 O9 2.481526 1_555
O0 Sm1 2.437996 1_545
O0 Sm3 2.499366 1_455
O0 Sm0 2.523873 1_556
O1 Sm3 2.461220 1_454
O1 Sm2 2.513395 1_555
O1 Sm0 2.560656 1_565
O1 Sm1 2.989208 1_554
O2 Sm3 2.395038 1_555
O2 Sm0 2.582218 1_556
O2 Sm1 2.736036 1_545
O2 Sm2 2.743474 1_656
O3 Sm0 2.433002 1_565
O3 Sm2 2.637085 1_655
O3 Sm3 2.658580 1_554
O3 Sm1 2.666190 1_554
O4 Sm2 2.272458 1_555
O4 Sm0 2.338554 1_555
O5 Sm3 2.319485 1_555
O5 Sm1 2.355540 1_655
O6 Sm2 2.245292 1_655
O6 Sm0 2.374200 1_555
O7 Sm1 2.288406 1_555
O7 Sm3 2.302157 1_555
O8 Sm0 2.379113 1_555
O8 Sm3 2.639067 1_555
O9 Sm1 2.283045 1_555
O9 Sm2 2.298442 1_555
