# generated using pymatgen
data_MgCo6(OF)6
_symmetry_space_group_name_H-M   'P 1'
_cell_length_a   5.06496272
_cell_length_b   14.35927201
_cell_length_c   3.05353999
_cell_angle_alpha   84.46677328
_cell_angle_beta   90.10831175
_cell_angle_gamma   96.44660597
_symmetry_Int_Tables_number   1
_chemical_formula_structural   MgCo6(OF)6
_chemical_formula_sum   'Mg1 Co6 O6 F6'
_cell_volume   219.63999165
_cell_formula_units_Z   1
loop_
 _symmetry_equiv_pos_site_id
 _symmetry_equiv_pos_as_xyz
  1  'x, y, z'
loop_
 _atom_site_type_symbol
 _atom_site_label
 _atom_site_symmetry_multiplicity
 _atom_site_fract_x
 _atom_site_fract_y
 _atom_site_fract_z
 _atom_site_occupancy
  Mg  Mg0  1  0.21797223  0.16182714  0.15694341  1
  Co  Co0  1  0.97169557  0.95700816  0.80741019  1
  Co  Co1  1  0.91102041  0.37621293  0.06533083  1
  Co  Co2  1  0.88161122  0.66789122  0.94412251  1
  Co  Co3  1  0.74092430  0.16815426  0.65679342  1
  Co  Co4  1  0.40161165  0.51650825  0.50754835  1
  Co  Co5  1  0.36177682  0.82040868  0.37636141  1
  O  O0  1  0.14634674  0.91655367  0.32646621  1
  O  O1  1  0.19056615  0.75356606  0.90541710  1
  O  O2  1  0.24068129  0.44900866  0.03735127  1
  O  O3  1  0.57866916  0.57958264  0.98003700  1
  O  O4  1  0.89812164  0.23833548  0.12559984  1
  O  O5  1  0.01597173  0.09386901  0.68682864  1
  F  F0  1  0.42207656  0.23257037  0.62398852  1
  F  F1  1  0.04320214  0.59769034  0.47505423  1
  F  F2  1  0.55430814  0.09566465  0.18425444  1
  F  F3  1  0.60389377  0.89085104  0.84523552  1
  F  F4  1  0.69986649  0.41303390  0.54917625  1
  F  F5  1  0.70301699  0.73793054  0.41274787  1
loop_
_geom_bond_atom_site_label_1
_geom_bond_atom_site_label_2
_geom_bond_distance
_geom_bond_site_symmetry_2
Mg0 O5 2.023515 1_555
Mg0 O5 2.024876 1_554
Mg0 O4 2.054114 1_455
Co0 O0 1.887197 1_655
Co0 O0 1.888012 1_656
Co0 O5 1.951862 1_665
Co0 F3 1.992096 1_555
Co1 O2 1.865287 1_655
Co1 O4 1.964322 1_555
Co1 F4 1.966555 1_554
Co1 F4 1.972251 1_555
Co2 O3 1.873828 1_555
Co2 O1 1.875243 1_655
Co2 F1 2.044369 1_656
Co2 F1 2.050772 1_655
Co2 F5 2.084826 1_555
Co2 F5 2.089041 1_556
Co3 O5 1.844262 1_655
Co3 O4 1.946774 1_555
Co3 F0 1.946953 1_555
Co3 O4 1.947424 1_556
Co3 F2 2.008110 1_556
Co3 F2 2.030380 1_555
Co4 O2 1.935516 1_556
Co4 O2 1.936954 1_555
Co4 O3 1.939295 1_554
Co4 O3 1.941857 1_555
Co4 F4 2.229965 1_555
Co4 F1 2.261940 1_555
Co5 O0 1.848477 1_555
Co5 O1 1.949980 1_555
Co5 O1 1.953400 1_554
Co5 F3 2.137728 1_554
Co5 F3 2.137970 1_555
Co5 F5 2.199041 1_555
F0 Mg0 2.042661 1_555
F0 Mg0 2.049578 1_556
F2 Mg0 2.039402 1_555
