# generated using pymatgen
data_Sr(MnSb)2
_symmetry_space_group_name_H-M   'P 1'
_cell_length_a   4.55451552
_cell_length_b   4.55451552
_cell_length_c   7.89552000
_cell_angle_alpha   90.00000000
_cell_angle_beta   90.00000000
_cell_angle_gamma   119.99999298
_symmetry_Int_Tables_number   1
_chemical_formula_structural   Sr(MnSb)2
_chemical_formula_sum   'Sr1 Mn2 Sb2'
_cell_volume   141.83903648
_cell_formula_units_Z   1
loop_
 _symmetry_equiv_pos_site_id
 _symmetry_equiv_pos_as_xyz
  1  'x, y, z'
loop_
 _atom_site_type_symbol
 _atom_site_label
 _atom_site_symmetry_multiplicity
 _atom_site_fract_x
 _atom_site_fract_y
 _atom_site_fract_z
 _atom_site_occupancy
  Sr  Sr0  1  0.00000000  0.00000000  0.00000000  1
  Mn  Mn0  1  0.66666700  0.33333300  0.37982500  1
  Mn  Mn1  1  0.33333300  0.66666700  0.62017500  1
  Sb  Sb0  1  0.66666700  0.33333300  0.73180800  1
  Sb  Sb1  1  0.33333300  0.66666700  0.26819200  1
loop_
_geom_bond_atom_site_label_1
_geom_bond_atom_site_label_2
_geom_bond_distance
_geom_bond_site_symmetry_2
Mn0 Sb1 2.773336 1_545
Mn0 Sb1 2.773336 1_655
Mn0 Sb1 2.773343 1_555
Mn0 Sb0 2.779089 1_555
Mn1 Sb0 2.773336 1_455
Mn1 Sb0 2.773336 1_565
Mn1 Sb0 2.773343 1_555
Mn1 Sb1 2.779089 1_555
Sb0 Sr0 3.376151 1_656
Sb0 Sr0 3.376154 1_556
Sb0 Sr0 3.376154 1_666
Sb1 Sr0 3.376151 1_565
Sb1 Sr0 3.376154 1_555
Sb1 Sr0 3.376154 1_665
