# generated using pymatgen
data_Na2Al8SiS11O48
_symmetry_space_group_name_H-M   'P 1'
_cell_length_a   16.61287703
_cell_length_b   8.30190576
_cell_length_c   21.65303030
_cell_angle_alpha   89.99515416
_cell_angle_beta   89.98022112
_cell_angle_gamma   120.04331137
_symmetry_Int_Tables_number   1
_chemical_formula_structural   Na2Al8SiS11O48
_chemical_formula_sum   'Na6 Al24 Si3 S33 O144'
_cell_volume   2585.12896404
_cell_formula_units_Z   3
loop_
 _symmetry_equiv_pos_site_id
 _symmetry_equiv_pos_as_xyz
  1  'x, y, z'
loop_
 _atom_site_type_symbol
 _atom_site_label
 _atom_site_symmetry_multiplicity
 _atom_site_fract_x
 _atom_site_fract_y
 _atom_site_fract_z
 _atom_site_occupancy
  Na  Na0  1  0.00105857  0.99278973  0.49948696  1
  Na  Na1  1  0.50106693  0.00922259  0.99634148  1
  Na  Na2  1  0.33711259  0.33341500  0.83504538  1
  Na  Na3  1  0.83774503  0.34401562  0.83011823  1
  Na  Na4  1  0.33170926  0.33107700  0.33404082  1
  Na  Na5  1  0.83923672  0.34248459  0.33625460  1
  Al  Al0  1  0.00151180  0.99373947  0.35489181  1
  Al  Al1  1  0.49914813  0.99992125  0.35577872  1
  Al  Al2  1  0.99783291  0.98822709  0.85215361  1
  Al  Al3  1  0.50104302  0.01049793  0.85379309  1
  Al  Al4  1  0.00022932  0.99472628  0.65070191  1
  Al  Al5  1  0.50084695  -0.00014819  0.64570109  1
  Al  Al6  1  -0.00001193  0.00152155  0.14431905  1
  Al  Al7  1  0.50005862  0.99920248  0.14672676  1
  Al  Al8  1  0.33226097  0.33337264  0.68642328  1
  Al  Al9  1  0.83742103  0.34060429  0.68868710  1
  Al  Al10  1  0.33182686  0.33324281  0.18421067  1
  Al  Al11  1  0.83486661  0.33290018  0.18460932  1
  Al  Al12  1  0.33617404  0.33301419  0.97709947  1
  Al  Al13  1  0.83395550  0.33455530  0.97951174  1
  Al  Al14  1  0.33250583  0.33214174  0.48288765  1
  Al  Al15  1  0.83895839  0.34217028  0.48087687  1
  Al  Al16  1  0.16533329  0.66512535  0.01945674  1
  Al  Al17  1  0.66453721  0.65773742  0.01791027  1
  Al  Al18  1  0.16183603  0.66942068  0.52181209  1
  Al  Al19  1  0.66705395  0.66784302  0.52374830  1
  Al  Al20  1  0.16093854  0.66372703  0.31432648  1
  Al  Al21  1  0.66734144  0.66604582  0.31268466  1
  Al  Al22  1  0.16274516  0.66763180  0.80875601  1
  Al  Al23  1  0.66290863  0.65831724  0.81268731  1
  Si  Si0  1  0.99993494  0.71053831  0.74974078  1
  Si  Si1  1  0.52270747  0.37831078  0.91644248  1
  Si  Si2  1  0.02157386  0.66544649  0.41699915  1
  S  S0  1  0.14486308  0.00009942  0.24891629  1
  S  S1  1  0.64413999  0.99934530  0.25043895  1
  S  S2  1  0.35467345  0.71184118  0.25044125  1
  S  S3  1  0.85506242  0.71125880  0.24930215  1
  S  S4  1  0.00084309  0.28716569  0.24988779  1
  S  S5  1  0.50032974  0.28911680  0.25004379  1
  S  S6  1  0.14499560  0.28977725  0.75029052  1
  S  S7  1  0.64353075  0.28758973  0.74897984  1
  S  S8  1  0.50078809  0.71420610  0.75000419  1
  S  S9  1  0.35626145  -0.00042598  0.74911449  1
  S  S10  1  0.85347569  0.99595803  0.75076580  1
  S  S11  1  0.47774904  0.33253381  0.58360532  1
  S  S12  1  0.97833416  0.33035227  0.58415914  1
  S  S13  1  0.18895736  0.04438368  0.58376467  1
  S  S14  1  0.69010221  0.04806277  0.58331316  1
  S  S15  1  0.33300055  0.62391264  0.58329678  1
  S  S16  1  0.83241797  0.62251425  0.58336381  1
  S  S17  1  0.47827879  0.62276616  0.08376467  1
  S  S18  1  0.97852800  0.62358363  0.08315096  1
  S  S19  1  0.33224313  0.04227269  0.08351527  1
  S  S20  1  0.83252777  0.04217558  0.08290370  1
  S  S21  1  0.18909686  0.33394001  0.08231077  1
  S  S22  1  0.68965996  0.33526966  0.08394129  1
  S  S23  1  0.30837810  0.66539912  0.91613146  1
  S  S24  1  0.81236577  0.67011892  0.91722166  1
  S  S25  1  0.02257377  0.37450859  0.91675426  1
  S  S26  1  0.16501861  0.95357852  0.91717490  1
  S  S27  1  0.66788533  0.95496226  0.91658300  1
  S  S28  1  0.31174527  0.95513752  0.41669980  1
  S  S29  1  0.80892946  0.95322550  0.41675161  1
  S  S30  1  0.16825107  0.38144997  0.41665188  1
  S  S31  1  0.66485697  0.37705066  0.41676796  1
  S  S32  1  0.52284255  0.66726706  0.41669582  1
  O  O0  1  0.10552828  0.04079717  0.30388247  1
  O  O1  1  0.60304157  0.03579196  0.30563188  1
  O  O2  1  0.41508965  0.79337295  0.30543961  1
  O  O3  1  0.91297834  0.79237430  0.30450248  1
  O  O4  1  0.48204894  0.17114681  0.30529862  1
  O  O5  1  0.98206337  0.16907913  0.30536354  1
  O  O6  1  0.10531223  0.17485573  0.80609912  1
  O  O7  1  0.60344743  0.16918203  0.80431542  1
  O  O8  1  0.48199849  0.79483152  0.80544758  1
  O  O9  1  0.97864347  0.79631966  0.81073343  1
  O  O10  1  0.41506158  0.03774752  0.80433570  1
  O  O11  1  0.91322904  0.04021969  0.80614152  1
  O  O12  1  0.39778953  0.96899228  0.69316996  1
  O  O13  1  0.89431917  0.96686436  0.69442245  1
  O  O14  1  0.08847643  0.21388579  0.69404694  1
  O  O15  1  0.58430855  0.20491593  0.69374546  1
  O  O16  1  0.01859567  0.83637608  0.68866886  1
  O  O17  1  0.51475963  0.82741399  0.69404751  1
  O  O18  1  0.39693601  0.82729861  0.19487300  1
  O  O19  1  0.89602859  0.82576351  0.19369715  1
  O  O20  1  0.01464526  0.20135098  0.19411019  1
  O  O21  1  0.51683110  0.20655941  0.19459846  1
  O  O22  1  0.08666578  0.96805318  0.19372699  1
  O  O23  1  0.58645703  0.96635118  0.19490593  1
  O  O24  1  0.43637862  0.36924364  0.63831878  1
  O  O25  1  0.93606105  0.36386143  0.63814141  1
  O  O26  1  0.24766819  0.13092414  0.63847916  1
  O  O27  1  0.74848435  0.12923761  0.63830608  1
  O  O28  1  0.31572521  0.50493496  0.63811138  1
  O  O29  1  0.81403467  0.50512234  0.63781609  1
  O  O30  1  0.43636759  0.50698834  0.13990993  1
  O  O31  1  0.93723386  0.50561719  0.13885577  1
  O  O32  1  0.31666031  0.12464091  0.13991985  1
  O  O33  1  0.81549875  0.12561861  0.13881605  1
  O  O34  1  0.24724957  0.36919392  0.13864224  1
  O  O35  1  0.74673437  0.36277986  0.13979128  1
  O  O36  1  0.23145647  0.29818720  0.02834722  1
  O  O37  1  0.72954380  0.29625936  0.02874163  1
  O  O38  1  0.41789208  0.54279019  0.02966096  1
  O  O39  1  0.91859321  0.54012933  0.02855896  1
  O  O40  1  0.35075423  0.16070116  0.02921723  1
  O  O41  1  0.85124778  0.16369091  0.02852039  1
  O  O42  1  0.23104836  0.16157010  0.52747543  1
  O  O43  1  0.73120855  0.16379897  0.52732109  1
  O  O44  1  0.35170815  0.54111210  0.52781730  1
  O  O45  1  0.84925843  0.54067175  0.52752579  1
  O  O46  1  0.41947095  0.29820176  0.52766405  1
  O  O47  1  0.91952532  0.29237366  0.52824667  1
  O  O48  1  0.26937695  0.70199940  0.97278498  1
  O  O49  1  0.77181378  0.70187602  0.97357100  1
  O  O50  1  0.07905998  0.45734192  0.97330125  1
  O  O51  1  0.58408625  0.46284834  0.97857667  1
  O  O52  1  0.14957780  0.83813605  0.97335160  1
  O  O53  1  0.65251697  0.84568216  0.97359138  1
  O  O54  1  0.27362391  0.84155456  0.47239376  1
  O  O55  1  0.76838573  0.83455566  0.47187383  1
  O  O56  1  0.15308991  0.46078763  0.47296780  1
  O  O57  1  0.64803987  0.46103929  0.47159930  1
  O  O58  1  0.08603936  0.70564215  0.47721711  1
  O  O59  1  0.58059618  0.70022627  0.47177719  1
  O  O60  1  0.06456503  0.62664836  0.35538080  1
  O  O61  1  0.56296037  0.63087997  0.36064965  1
  O  O62  1  0.25565491  0.87741848  0.36018092  1
  O  O63  1  0.75162262  0.87041243  0.36042868  1
  O  O64  1  0.18860946  0.49546162  0.36022338  1
  O  O65  1  0.68299228  0.49451524  0.36062599  1
  O  O66  1  0.06358240  0.49417911  0.86266874  1
  O  O67  1  0.56669117  0.50612260  0.85584986  1
  O  O68  1  0.18649350  0.87430282  0.86308719  1
  O  O69  1  0.68817127  0.88107497  0.86086164  1
  O  O70  1  0.25110390  0.63376197  0.86086017  1
  O  O71  1  0.75471542  0.63196056  0.86158948  1
  O  O72  1  0.01080255  0.84888073  0.40890552  1
  O  O73  1  0.51335125  0.83228459  0.40731993  1
  O  O74  1  0.40482388  0.97690646  0.40723488  1
  O  O75  1  0.90191616  0.97668953  0.40831054  1
  O  O76  1  0.08392963  0.19838433  0.40822927  1
  O  O77  1  0.58136960  0.19380004  0.40695939  1
  O  O78  1  0.01205707  0.19002218  0.90818836  1
  O  O79  1  0.51090512  0.17235182  0.90933211  1
  O  O80  1  0.08343554  0.97523758  0.91012556  1
  O  O81  1  0.58363724  0.96966712  0.90890225  1
  O  O82  1  0.40242388  0.82735712  0.90885358  1
  O  O83  1  0.90374348  0.83686608  0.91110227  1
  O  O84  1  0.48712102  0.16740500  0.59210890  1
  O  O85  1  0.98755744  0.16208370  0.59167567  1
  O  O86  1  0.09759796  0.03216819  0.58847164  1
  O  O87  1  0.59691303  0.02587370  0.59197068  1
  O  O88  1  0.41648926  0.80713011  0.59223109  1
  O  O89  1  0.91464799  0.81074775  0.58901752  1
  O  O90  1  0.48643828  0.80944958  0.09234198  1
  O  O91  1  0.98707357  0.80698288  0.09284911  1
  O  O92  1  0.41677214  0.02485380  0.09218109  1
  O  O93  1  0.91616089  0.02652114  0.09259128  1
  O  O94  1  0.09710295  0.16782894  0.09242000  1
  O  O95  1  0.59613747  0.16570345  0.09195282  1
  O  O96  1  0.34697359  0.16836864  0.74112651  1
  O  O97  1  0.84148836  0.15922360  0.74190731  1
  O  O98  1  0.23851947  0.30586792  0.74183383  1
  O  O99  1  0.73424196  0.29951174  0.74080359  1
  O  O100  1  0.41634551  0.52651999  0.74196233  1
  O  O101  1  0.90754797  0.50593452  0.74248758  1
  O  O102  1  0.34660115  0.52557629  0.24225210  1
  O  O103  1  0.84495574  0.52336107  0.24136081  1
  O  O104  1  0.41640530  0.30791406  0.24208776  1
  O  O105  1  0.91632219  0.30622443  0.24209283  1
  O  O106  1  0.23876404  0.17065506  0.24120436  1
  O  O107  1  0.73744671  0.16696937  0.24237308  1
  O  O108  1  0.31502011  0.49644933  0.92505455  1
  O  O109  1  0.82060457  0.49925080  0.92567712  1
  O  O110  1  0.42030127  0.35665844  0.92437740  1
  O  O111  1  0.92933261  0.35820844  0.92563619  1
  O  O112  1  0.24781421  0.13963739  0.92608839  1
  O  O113  1  0.75108177  0.14455535  0.92501187  1
  O  O114  1  0.32214016  0.14400261  0.42436038  1
  O  O115  1  0.81484994  0.13455098  0.42445373  1
  O  O116  1  0.25152904  0.35773934  0.42419477  1
  O  O117  1  0.74623662  0.35423733  0.42429968  1
  O  O118  1  0.42918641  0.49950673  0.42421903  1
  O  O119  1  0.91874962  0.48254120  0.42421086  1
  O  O120  1  0.17964108  0.49968124  0.07405142  1
  O  O121  1  0.68243286  0.50267029  0.07793912  1
  O  O122  1  0.07026611  0.64121795  0.07452844  1
  O  O123  1  0.57127997  0.64677452  0.07707348  1
  O  O124  1  0.25003189  0.85720529  0.07539049  1
  O  O125  1  0.74980530  0.85875013  0.07404170  1
  O  O126  1  0.18388154  0.86374780  0.57708416  1
  O  O127  1  0.67949762  0.86167298  0.57374294  1
  O  O128  1  0.25008708  0.64071443  0.57323311  1
  O  O129  1  0.74872429  0.63984844  0.57402082  1
  O  O130  1  0.07113136  0.49459483  0.57596240  1
  O  O131  1  0.56954948  0.49922513  0.57395644  1
  O  O132  1  0.15688135  0.83832887  0.25646628  1
  O  O133  1  0.65329776  0.83343624  0.25919285  1
  O  O134  1  0.26307827  0.69270845  0.25930702  1
  O  O135  1  0.76230461  0.69091287  0.25827156  1
  O  O136  1  0.08466591  0.46970893  0.25601145  1
  O  O137  1  0.58302463  0.47367788  0.25887786  1
  O  O138  1  0.15845189  0.47569774  0.75943085  1
  O  O139  1  0.65479915  0.47305693  0.75648724  1
  O  O140  1  0.08979018  0.68978961  0.75932908  1
  O  O141  1  0.58446354  0.69949302  0.75617071  1
  O  O142  1  0.26593919  0.83447199  0.75831982  1
  O  O143  1  0.76183948  0.82842985  0.76033902  1
loop_
_geom_bond_atom_site_label_1
_geom_bond_atom_site_label_2
_geom_bond_distance
_geom_bond_site_symmetry_2
Na0 O72 2.343998 1_555
Na0 O86 2.422560 1_565
Na0 O89 2.434788 1_455
Na0 O85 2.515178 1_465
Na0 O76 2.521482 1_565
Na0 O75 2.531819 1_455
Na1 O79 2.277726 1_555
Na1 O81 2.454285 1_545
Na1 O82 2.465543 1_545
Na1 O95 2.533064 1_556
Na1 O92 2.542525 1_556
Na1 O90 2.593484 1_546
Na2 O110 2.328863 1_555
Na2 O100 2.499939 1_555
Na2 O108 2.502500 1_555
Na2 O96 2.502984 1_555
Na2 O112 2.506550 1_555
Na2 O98 2.536916 1_555
Na3 O101 2.278001 1_555
Na3 O97 2.470138 1_555
Na3 O99 2.489883 1_555
Na3 O109 2.528002 1_555
Na3 O111 2.535610 1_555
Na3 O113 2.578172 1_555
Na4 O116 2.434647 1_555
Na4 O114 2.452366 1_555
Na4 O118 2.475012 1_555
Na4 O106 2.478359 1_555
Na4 O102 2.493552 1_555
Na4 O104 2.500027 1_555
Na5 O119 2.277768 1_555
Na5 O115 2.467781 1_555
Na5 O117 2.485962 1_555
Na5 O105 2.504387 1_555
Na5 O103 2.518397 1_555
Na5 O107 2.578901 1_555
Al0 O72 1.738878 1_555
Al0 O0 1.918654 1_565
Al0 O3 1.920358 1_455
Al0 O76 1.940910 1_565
Al0 O5 1.960699 1_465
Al0 O75 1.964608 1_455
Al1 O74 1.852661 1_555
Al1 O77 1.866689 1_565
Al1 O73 1.888584 1_555
Al1 O2 1.918903 1_555
Al1 O4 1.923638 1_565
Al1 O1 1.931495 1_565
Al2 O9 1.713523 1_555
Al2 O83 1.919149 1_555
Al2 O11 1.939783 1_565
Al2 O80 1.940227 1_655
Al2 O6 1.952326 1_665
Al2 O78 1.984619 1_665
Al3 O79 1.748872 1_555
Al3 O7 1.879323 1_555
Al3 O10 1.887567 1_555
Al3 O8 1.958307 1_545
Al3 O81 1.971888 1_545
Al3 O82 1.980245 1_545
Al4 O16 1.702576 1_555
Al4 O13 1.907028 1_455
Al4 O14 1.915957 1_565
Al4 O85 1.975094 1_465
Al4 O89 1.991353 1_455
Al4 O86 2.005944 1_565
Al5 O17 1.878804 1_545
Al5 O15 1.881675 1_555
Al5 O87 1.897548 1_555
Al5 O12 1.900753 1_545
Al5 O88 1.902789 1_545
Al5 O84 1.910766 1_555
Al6 O93 1.878144 1_455
Al6 O94 1.881512 1_555
Al6 O91 1.884136 1_445
Al6 O20 1.889396 1_555
Al6 O22 1.922726 1_545
Al6 O19 1.931352 1_445
Al7 O90 1.887621 1_555
Al7 O18 1.899702 1_555
Al7 O23 1.901529 1_555
Al7 O21 1.906761 1_565
Al7 O92 1.910719 1_565
Al7 O95 1.911604 1_565
Al8 O26 1.874491 1_555
Al8 O98 1.886665 1_555
Al8 O28 1.894762 1_555
Al8 O24 1.910079 1_555
Al8 O96 1.916878 1_555
Al8 O100 1.930636 1_555
Al9 O101 1.731567 1_555
Al9 O25 1.897992 1_555
Al9 O97 1.923963 1_555
Al9 O99 1.934183 1_555
Al9 O29 1.939353 1_555
Al9 O27 1.964079 1_555
Al10 O34 1.859487 1_555
Al10 O30 1.872748 1_555
Al10 O32 1.883047 1_555
Al10 O106 1.908921 1_555
Al10 O102 1.948695 1_555
Al10 O104 1.971309 1_555
Al11 O31 1.867223 1_555
Al11 O33 1.869247 1_555
Al11 O35 1.873921 1_555
Al11 O105 1.931495 1_555
Al11 O103 1.942525 1_555
Al11 O107 1.961445 1_555
Al12 O110 1.737585 1_555
Al12 O112 1.895741 1_555
Al12 O108 1.926631 1_555
Al12 O40 1.930149 1_556
Al12 O38 1.950721 1_556
Al12 O36 1.958659 1_556
Al13 O109 1.892366 1_555
Al13 O111 1.896624 1_555
Al13 O113 1.898184 1_555
Al13 O39 1.901610 1_556
Al13 O41 1.904934 1_556
Al13 O37 1.921619 1_556
Al14 O42 1.840384 1_555
Al14 O44 1.871974 1_555
Al14 O46 1.874892 1_555
Al14 O116 1.938401 1_555
Al14 O114 1.951006 1_555
Al14 O118 1.971745 1_555
Al15 O119 1.752863 1_555
Al15 O45 1.866365 1_555
Al15 O47 1.889268 1_555
Al15 O43 1.937194 1_555
Al15 O115 1.983284 1_555
Al15 O117 2.009821 1_555
Al16 O52 1.872040 1_554
Al16 O50 1.885292 1_554
Al16 O48 1.889843 1_554
Al16 O122 1.908003 1_555
Al16 O120 1.915014 1_555
Al16 O124 1.935037 1_555
Al17 O51 1.721974 1_554
Al17 O49 1.891301 1_554
Al17 O53 1.925404 1_554
Al17 O121 1.954066 1_555
Al17 O125 1.975656 1_555
Al17 O123 1.976630 1_555
Al18 O58 1.728688 1_555
Al18 O130 1.886943 1_555
Al18 O126 1.891607 1_555
Al18 O128 1.948563 1_555
Al18 O56 1.971830 1_555
Al18 O54 1.994258 1_555
Al19 O129 1.842967 1_555
Al19 O127 1.863161 1_555
Al19 O131 1.869059 1_555
Al19 O55 1.917440 1_555
Al19 O57 1.944223 1_555
Al19 O59 1.946626 1_555
Al20 O60 1.718665 1_555
Al20 O136 1.937061 1_555
Al20 O132 1.942391 1_555
Al20 O64 1.947677 1_555
Al20 O62 1.953265 1_555
Al20 O134 1.986501 1_555
Al21 O63 1.878930 1_555
Al21 O65 1.882483 1_555
Al21 O135 1.895313 1_555
Al21 O137 1.905641 1_555
Al21 O133 1.910944 1_555
Al21 O61 1.913814 1_555
Al22 O140 1.694782 1_555
Al22 O138 1.889794 1_555
Al22 O142 1.915975 1_555
Al22 O66 1.942488 1_555
Al22 O68 1.950988 1_555
Al22 O70 1.980156 1_555
Al23 O67 1.732466 1_555
Al23 O143 1.911751 1_555
Al23 O139 1.912444 1_555
Al23 O141 1.939034 1_555
Al23 O71 1.957167 1_555
Al23 O69 1.976785 1_555
O0 S0 1.475912 1_555
O1 S1 1.480650 1_545
O2 S2 1.484737 1_555
O3 S3 1.469697 1_555
O4 S5 1.478037 1_555
O5 S4 1.481426 1_655
O6 S6 1.474656 1_555
O7 S7 1.479588 1_555
O8 S8 1.481819 1_555
O9 Si0 1.621270 1_555
O10 S9 1.474875 1_555
O11 S10 1.481151 1_545
O12 S9 1.477395 1_565
O13 S10 1.473339 1_555
O14 S6 1.473189 1_555
O15 S7 1.481296 1_555
O16 Si0 1.615985 1_455
O17 S8 1.478651 1_555
O18 S2 1.478109 1_555
O19 S3 1.472387 1_555
O20 S4 1.477267 1_555
O21 S5 1.474547 1_555
O22 S0 1.475428 1_565
O23 S1 1.475553 1_555
O24 S11 1.475808 1_555
O25 S12 1.460128 1_555
O26 S13 1.473216 1_555
O27 S14 1.469429 1_555
O28 S15 1.477314 1_555
O29 S16 1.461087 1_555
O30 S17 1.488528 1_555
O31 S18 1.486978 1_555
O32 S19 1.484399 1_555
O33 S20 1.490564 1_555
O34 S21 1.491481 1_555
O35 S22 1.482448 1_555
O36 S21 1.468770 1_555
O37 S22 1.478813 1_555
O38 S17 1.467538 1_555
O39 S18 1.476121 1_555
O40 S19 1.462989 1_555
O41 S20 1.478672 1_555
O42 S13 1.496336 1_555
O43 S14 1.483805 1_555
O44 S15 1.491988 1_555
O45 S16 1.480539 1_555
O46 S11 1.486737 1_555
O47 S12 1.487307 1_555
O48 S23 1.487822 1_555
O49 S24 1.479669 1_555
O50 S25 1.485751 1_555
O51 Si1 1.620777 1_555
O52 S26 1.489080 1_555
O53 S27 1.476371 1_555
O54 S28 1.464875 1_555
O55 S29 1.477721 1_555
O56 S30 1.466377 1_555
O57 S31 1.472684 1_555
O58 Si2 1.612965 1_555
O59 S32 1.468290 1_555
O60 Si2 1.619800 1_555
O61 S32 1.486367 1_555
O62 S28 1.476889 1_555
O63 S29 1.487252 1_555
O64 S30 1.477216 1_555
O65 S31 1.491608 1_555
O66 S25 1.464308 1_555
O67 Si1 1.613676 1_555
O68 S26 1.472071 1_555
O69 S27 1.467109 1_555
O70 S23 1.468751 1_555
O71 S24 1.471650 1_555
O72 Si2 1.629311 1_555
O73 S32 1.469401 1_555
O74 S28 1.478402 1_555
O75 S29 1.468392 1_555
O76 S30 1.474385 1_555
O77 S31 1.473326 1_555
O78 S25 1.463838 1_555
O79 Si1 1.627918 1_555
O80 S26 1.461749 1_555
O81 S27 1.474006 1_555
O82 S23 1.473099 1_555
O83 S24 1.460815 1_555
O84 S11 1.466685 1_555
O85 S12 1.488537 1_555
O86 S13 1.473088 1_555
O87 S14 1.476499 1_555
O88 S15 1.470563 1_555
O89 S16 1.478433 1_555
O90 S17 1.498180 1_555
O91 S18 1.471764 1_555
O92 S19 1.493858 1_555
O93 S20 1.473868 1_555
O94 S21 1.474690 1_555
O95 S22 1.495143 1_555
O96 S9 1.494622 1_555
O97 S10 1.477789 1_545
O98 S6 1.502445 1_555
O99 S7 1.470570 1_555
O100 S8 1.495870 1_555
O101 Si0 1.629518 1_555
O102 S2 1.494341 1_555
O103 S3 1.492946 1_555
O104 S5 1.488596 1_555
O105 S4 1.499245 1_655
O106 S0 1.501442 1_555
O107 S1 1.486499 1_545
O108 S23 1.473685 1_555
O109 S24 1.502953 1_555
O110 Si1 1.627791 1_555
O111 S25 1.498203 1_655
O112 S26 1.479168 1_545
O113 S27 1.497647 1_545
O114 S28 1.498238 1_545
O115 S29 1.468113 1_545
O116 S30 1.500765 1_555
O117 S31 1.465186 1_555
O118 S32 1.488978 1_555
O119 Si2 1.628071 1_655
O120 S21 1.471855 1_555
O121 S22 1.459366 1_555
O122 S18 1.468115 1_455
O123 S17 1.462631 1_555
O124 S19 1.468303 1_565
O125 S20 1.465969 1_565
O126 S13 1.466399 1_565
O127 S14 1.481726 1_565
O128 S15 1.468620 1_555
O129 S16 1.481677 1_555
O130 S12 1.470473 1_455
O131 S11 1.473444 1_555
O132 S0 1.462439 1_565
O133 S1 1.471732 1_555
O134 S2 1.461270 1_555
O135 S3 1.476486 1_555
O136 S4 1.463018 1_555
O137 S5 1.471090 1_555
O138 S6 1.458117 1_555
O139 S7 1.464134 1_555
O140 Si0 1.599615 1_455
O141 S8 1.461246 1_555
O142 S9 1.452701 1_565
O143 S10 1.474622 1_555
