# generated using pymatgen
data_MgZn2(FeO2)4
_symmetry_space_group_name_H-M   'P 1'
_cell_length_a   6.19713570
_cell_length_b   6.19713564
_cell_length_c   6.43032000
_cell_angle_alpha   58.74726657
_cell_angle_beta   58.74726690
_cell_angle_gamma   58.95909029
_symmetry_Int_Tables_number   1
_chemical_formula_structural   MgZn2(FeO2)4
_chemical_formula_sum   'Mg1 Zn2 Fe4 O8'
_cell_volume   169.90701480
_cell_formula_units_Z   1
loop_
 _symmetry_equiv_pos_site_id
 _symmetry_equiv_pos_as_xyz
  1  'x, y, z'
loop_
 _atom_site_type_symbol
 _atom_site_label
 _atom_site_symmetry_multiplicity
 _atom_site_fract_x
 _atom_site_fract_y
 _atom_site_fract_z
 _atom_site_occupancy
  Mg  Mg0  1  0.20415900  0.20415900  0.79584100  1
  Zn  Zn0  1  0.16513100  0.71838800  0.55824100  1
  Zn  Zn1  1  0.71838800  0.16513100  0.55824100  1
  Fe  Fe0  1  0.88873400  0.88873300  0.11126700  1
  Fe  Fe1  1  0.29742700  0.29742800  0.20257200  1
  Fe  Fe2  1  0.62568100  0.62568100  0.08387100  1
  Fe  Fe3  1  0.62568100  0.62568100  0.66476600  1
  O  O0  1  0.38127000  0.38127000  0.40916500  1
  O  O1  1  0.38127000  0.38127000  0.82829400  1
  O  O2  1  0.42922800  0.90656300  0.33210400  1
  O  O3  1  0.90656200  0.42923100  0.33210300  1
  O  O4  1  0.33283000  0.81276800  0.92720200  1
  O  O5  1  0.81277100  0.33282900  0.92720100  1
  O  O6  1  0.85501700  0.85501700  0.44413300  1
  O  O7  1  0.85501700  0.85501700  0.84583400  1
loop_
_geom_bond_atom_site_label_1
_geom_bond_atom_site_label_2
_geom_bond_distance
_geom_bond_site_symmetry_2
Mg0 O5 1.952110 1_455
Mg0 O4 1.952125 1_545
Mg0 O1 2.042214 1_555
Mg0 O0 2.042218 1_555
Fe0 O6 1.945681 1_555
Fe0 O7 1.945682 1_554
Fe0 O4 2.249163 1_654
Fe0 O5 2.249165 1_564
Fe0 O3 2.404164 1_555
Fe0 O2 2.404182 1_555
Fe1 O2 1.949421 1_545
Fe1 O3 1.949421 1_455
Fe1 O1 2.003893 1_554
Fe1 O0 2.003894 1_555
Fe2 O7 1.987776 1_554
Fe2 O4 2.041552 1_554
Fe2 O5 2.041558 1_554
Fe2 O0 2.180535 1_555
Fe2 O3 2.396053 1_555
Fe2 O2 2.396059 1_555
Fe3 O6 1.987776 1_555
Fe3 O4 2.041564 1_555
Fe3 O5 2.041571 1_555
Fe3 O1 2.180536 1_555
Fe3 O3 2.396053 1_555
Fe3 O2 2.396059 1_555
O0 Zn0 2.222043 1_555
O0 Zn1 2.222043 1_555
O1 Zn0 2.222035 1_555
O1 Zn1 2.222035 1_555
O2 Zn0 1.972897 1_555
O3 Zn1 1.972907 1_555
O6 Zn1 2.022149 1_565
O6 Zn0 2.022149 1_655
O7 Zn1 2.022149 1_565
O7 Zn0 2.022149 1_655
