# generated using pymatgen
data_MgV4P2O13
_symmetry_space_group_name_H-M   'P 1'
_cell_length_a   4.98045443
_cell_length_b   5.24454493
_cell_length_c   8.88370096
_cell_angle_alpha   88.48439102
_cell_angle_beta   99.02947418
_cell_angle_gamma   78.59180185
_symmetry_Int_Tables_number   1
_chemical_formula_structural   MgV4P2O13
_chemical_formula_sum   'Mg1 V4 P2 O13'
_cell_volume   224.24445126
_cell_formula_units_Z   1
loop_
 _symmetry_equiv_pos_site_id
 _symmetry_equiv_pos_as_xyz
  1  'x, y, z'
loop_
 _atom_site_type_symbol
 _atom_site_label
 _atom_site_symmetry_multiplicity
 _atom_site_fract_x
 _atom_site_fract_y
 _atom_site_fract_z
 _atom_site_occupancy
  Mg  Mg0  1  0.63818900  0.72068200  0.20957900  1
  V  V0  1  0.24498100  0.05173700  0.68722400  1
  V  V1  1  0.09247900  0.84133400  0.37439500  1
  V  V2  1  0.56080900  0.51915300  0.91470700  1
  V  V3  1  0.39386600  0.27507200  0.29011600  1
  P  P0  1  0.01946300  0.97020400  0.00500900  1
  P  P1  1  0.74923300  0.57884500  0.58259600  1
  O  O0  1  0.97857600  0.74153400  0.57137000  1
  O  O1  1  0.20334600  0.84717600  0.88571000  1
  O  O2  1  0.05047700  0.54066200  0.29314200  1
  O  O3  1  0.28412900  0.08247700  0.47380500  1
  O  O4  1  0.40218400  0.26203700  0.78691300  1
  O  O5  1  0.21977100  0.96095000  0.16831100  1
  O  O6  1  0.56930600  0.70932000  0.70193600  1
  O  O7  1  0.54985600  0.58461600  0.42466200  1
  O  O8  1  0.47108300  0.45100900  0.10893400  1
  O  O9  1  0.74334500  0.03116800  0.31017900  1
  O  O10  1  0.91257400  0.25785200  0.95831700  1
  O  O11  1  0.87506100  0.29586300  0.63604200  1
  O  O12  1  0.79425000  0.81108700  0.01767200  1
loop_
_geom_bond_atom_site_label_1
_geom_bond_atom_site_label_2
_geom_bond_distance
_geom_bond_site_symmetry_2
Mg0 O8 1.947133 1_555
Mg0 O9 1.997992 1_565
Mg0 O12 2.062614 1_555
Mg0 O2 2.091977 1_655
Mg0 O7 2.160925 1_555
Mg0 O5 2.182175 1_555
O0 P1 1.568259 1_555
O0 V1 2.009578 1_655
O0 V0 2.445465 1_665
O1 P0 1.576491 1_556
O1 V0 2.099014 1_565
O1 V2 2.194644 1_555
O2 V1 1.787367 1_555
O2 V3 1.984898 1_555
O3 V1 1.887447 1_545
O3 V0 1.941889 1_555
O3 V3 2.095946 1_555
O4 V0 1.670145 1_555
O4 V2 1.988022 1_555
O5 P0 1.620203 1_555
O5 V1 2.146659 1_555
O5 V3 2.236428 1_565
O6 P1 1.577738 1_555
O6 V2 2.124004 1_555
O6 V0 2.150580 1_565
O7 P1 1.582409 1_555
O7 V3 2.231105 1_555
O7 V1 2.374192 1_555
O8 V2 1.891349 1_554
O8 V3 1.961149 1_555
O9 V1 1.820433 1_645
O9 V3 1.925455 1_555
O10 P0 1.520252 1_646
O10 V2 1.976492 1_555
O11 P1 1.523860 1_555
O11 V0 2.003354 1_655
O12 P0 1.540160 1_655
O12 V2 2.230928 1_554
