# generated using pymatgen
data_Ba9(AuO6)2
_symmetry_space_group_name_H-M   'P 1'
_cell_length_a   7.23924400
_cell_length_b   14.40459600
_cell_length_c   17.49547600
_cell_angle_alpha   90.00000000
_cell_angle_beta   90.00000000
_cell_angle_gamma   90.00000000
_symmetry_Int_Tables_number   1
_chemical_formula_structural   Ba9(AuO6)2
_chemical_formula_sum   'Ba36 Au8 O48'
_cell_volume   1824.39998498
_cell_formula_units_Z   4
loop_
 _symmetry_equiv_pos_site_id
 _symmetry_equiv_pos_as_xyz
  1  'x, y, z'
loop_
 _atom_site_type_symbol
 _atom_site_label
 _atom_site_symmetry_multiplicity
 _atom_site_fract_x
 _atom_site_fract_y
 _atom_site_fract_z
 _atom_site_occupancy
  Ba  Ba0  1  0.18288500  0.82203600  0.55673700  1
  Ba  Ba1  1  0.68288500  0.67796400  0.94326300  1
  Ba  Ba2  1  0.31711500  0.32203600  0.44326300  1
  Ba  Ba3  1  0.81711500  0.17796400  0.05673700  1
  Ba  Ba4  1  0.81711500  0.17796400  0.44326300  1
  Ba  Ba5  1  0.31711500  0.32203600  0.05673700  1
  Ba  Ba6  1  0.68288500  0.67796400  0.55673700  1
  Ba  Ba7  1  0.18288500  0.82203600  0.94326300  1
  Ba  Ba8  1  0.15620500  0.18228000  0.25000000  1
  Ba  Ba9  1  0.65620500  0.31772000  0.25000000  1
  Ba  Ba10  1  0.34379500  0.68228000  0.75000000  1
  Ba  Ba11  1  0.84379500  0.81772000  0.75000000  1
  Ba  Ba12  1  0.17263000  0.43650600  0.25000000  1
  Ba  Ba13  1  0.67263000  0.06349400  0.25000000  1
  Ba  Ba14  1  0.32737000  0.93650600  0.75000000  1
  Ba  Ba15  1  0.82737000  0.56349400  0.75000000  1
  Ba  Ba16  1  0.33124800  0.05121300  0.42063100  1
  Ba  Ba17  1  0.83124800  0.44878700  0.07936900  1
  Ba  Ba18  1  0.16875200  0.55121300  0.57936900  1
  Ba  Ba19  1  0.66875200  0.94878700  0.92063100  1
  Ba  Ba20  1  0.66875200  0.94878700  0.57936900  1
  Ba  Ba21  1  0.16875200  0.55121300  0.92063100  1
  Ba  Ba22  1  0.83124800  0.44878700  0.42063100  1
  Ba  Ba23  1  0.33124800  0.05121300  0.07936900  1
  Ba  Ba24  1  0.89213400  0.09951300  0.75000000  1
  Ba  Ba25  1  0.39213400  0.40048700  0.75000000  1
  Ba  Ba26  1  0.60786600  0.59951300  0.25000000  1
  Ba  Ba27  1  0.10786600  0.90048700  0.25000000  1
  Ba  Ba28  1  0.46795600  0.18689200  0.64197000  1
  Ba  Ba29  1  0.96795600  0.31310800  0.85803000  1
  Ba  Ba30  1  0.03204400  0.68689200  0.35803000  1
  Ba  Ba31  1  0.53204400  0.81310800  0.14197000  1
  Ba  Ba32  1  0.53204400  0.81310800  0.35803000  1
  Ba  Ba33  1  0.03204400  0.68689200  0.14197000  1
  Ba  Ba34  1  0.96795600  0.31310800  0.64197000  1
  Ba  Ba35  1  0.46795600  0.18689200  0.85803000  1
  Au  Au0  1  0.08059000  0.06416400  0.58380100  1
  Au  Au1  1  0.58059000  0.43583600  0.91619900  1
  Au  Au2  1  0.41941000  0.56416400  0.41619900  1
  Au  Au3  1  0.91941000  0.93583600  0.08380100  1
  Au  Au4  1  0.91941000  0.93583600  0.41619900  1
  Au  Au5  1  0.41941000  0.56416400  0.08380100  1
  Au  Au6  1  0.58059000  0.43583600  0.58380100  1
  Au  Au7  1  0.08059000  0.06416400  0.91619900  1
  O  O0  1  0.99615600  0.04800500  0.34745100  1
  O  O1  1  0.49615600  0.45199500  0.15254900  1
  O  O2  1  0.50384400  0.54800500  0.65254900  1
  O  O3  1  0.00384400  0.95199500  0.84745100  1
  O  O4  1  0.00384400  0.95199500  0.65254900  1
  O  O5  1  0.50384400  0.54800500  0.84745100  1
  O  O6  1  0.49615600  0.45199500  0.34745100  1
  O  O7  1  0.99615600  0.04800500  0.15254900  1
  O  O8  1  0.29579300  0.72783700  0.25000000  1
  O  O9  1  0.79579400  0.77216300  0.25000000  1
  O  O10  1  0.20420700  0.22783700  0.75000000  1
  O  O11  1  0.70420600  0.27216300  0.75000000  1
  O  O12  1  0.33680500  0.67617600  0.48011600  1
  O  O13  1  0.83680500  0.82382400  0.01988400  1
  O  O14  1  0.16319500  0.17617600  0.51988400  1
  O  O15  1  0.66319500  0.32382400  0.98011600  1
  O  O16  1  0.66319500  0.32382400  0.51988400  1
  O  O17  1  0.16319500  0.17617600  0.98011600  1
  O  O18  1  0.83680500  0.82382400  0.48011600  1
  O  O19  1  0.33680500  0.67617600  0.01988400  1
  O  O20  1  0.17742000  0.87684400  0.40524900  1
  O  O21  1  0.67742000  0.62315600  0.09475100  1
  O  O22  1  0.32258000  0.37684400  0.59475100  1
  O  O23  1  0.82258000  0.12315600  0.90524900  1
  O  O24  1  0.82258000  0.12315600  0.59475100  1
  O  O25  1  0.32258000  0.37684400  0.90524900  1
  O  O26  1  0.67742000  0.62315600  0.40524900  1
  O  O27  1  0.17742000  0.87684400  0.09475100  1
  O  O28  1  0.98814000  0.30029600  0.15473100  1
  O  O29  1  0.48814000  0.19970400  0.34526900  1
  O  O30  1  0.51186000  0.80029600  0.84526900  1
  O  O31  1  0.01186000  0.69970400  0.65473100  1
  O  O32  1  0.01186000  0.69970400  0.84526900  1
  O  O33  1  0.51186000  0.80029600  0.65473100  1
  O  O34  1  0.48814000  0.19970400  0.15473100  1
  O  O35  1  0.98814000  0.30029600  0.34526900  1
  O  O36  1  0.66263700  0.99181300  0.42534700  1
  O  O37  1  0.16263700  0.50818700  0.07465300  1
  O  O38  1  0.83736300  0.49181300  0.57465300  1
  O  O39  1  0.33736300  0.00818700  0.92534700  1
  O  O40  1  0.33736300  0.00818700  0.57465300  1
  O  O41  1  0.83736300  0.49181300  0.92534700  1
  O  O42  1  0.16263700  0.50818700  0.42534700  1
  O  O43  1  0.66263700  0.99181300  0.07465300  1
  O  O44  1  0.44307400  0.94619400  0.25000000  1
  O  O45  1  0.94307400  0.55380600  0.25000000  1
  O  O46  1  0.05692600  0.44619400  0.75000000  1
  O  O47  1  0.55692600  0.05380600  0.75000000  1
loop_
_geom_bond_atom_site_label_1
_geom_bond_atom_site_label_2
_geom_bond_distance
_geom_bond_site_symmetry_2
Ba0 O12 2.730020 1_555
Ba0 O31 2.752701 1_555
Ba0 O20 2.765725 1_555
Ba0 O4 2.827409 1_555
Ba0 O18 2.841562 1_455
Ba0 O40 2.922143 1_565
Ba0 O33 2.951118 1_555
Ba1 O13 2.730020 1_556
Ba1 O30 2.752701 1_555
Ba1 O21 2.765725 1_556
Ba1 O5 2.827409 1_555
Ba1 O19 2.841562 1_556
Ba1 O41 2.922143 1_555
Ba1 O32 2.951118 1_655
Ba2 O14 2.730020 1_555
Ba2 O29 2.752701 1_555
Ba2 O22 2.765725 1_555
Ba2 O6 2.827409 1_555
Ba2 O16 2.841562 1_555
Ba2 O42 2.922143 1_555
Ba2 O35 2.951118 1_455
Ba3 O15 2.730020 1_554
Ba3 O28 2.752701 1_555
Ba3 O23 2.765725 1_554
Ba3 O7 2.827409 1_555
Ba3 O17 2.841562 1_654
Ba3 O43 2.922143 1_545
Ba3 O34 2.951118 1_555
Ba4 O16 2.730020 1_555
Ba4 O35 2.752701 1_555
Ba4 O24 2.765725 1_555
Ba4 O0 2.827409 1_555
Ba4 O14 2.841562 1_655
Ba4 O36 2.922143 1_545
Ba4 O29 2.951118 1_555
Ba5 O17 2.730020 1_554
Ba5 O34 2.752701 1_555
Ba5 O25 2.765725 1_554
Ba5 O1 2.827409 1_555
Ba5 O15 2.841562 1_554
Ba5 O37 2.922143 1_555
Ba5 O28 2.951118 1_455
Ba6 O18 2.730020 1_555
Ba6 O33 2.752701 1_555
Ba6 O26 2.765725 1_555
Ba6 O2 2.827409 1_555
Ba6 O12 2.841562 1_555
Ba6 O38 2.922143 1_555
Ba6 O31 2.951118 1_655
Ba7 O19 2.730020 1_556
Ba7 O32 2.752701 1_555
Ba7 O27 2.765725 1_556
Ba7 O3 2.827409 1_555
Ba7 O13 2.841562 1_456
Ba7 O39 2.922143 1_565
Ba7 O30 2.951118 1_555
Ba8 O28 2.673635 1_455
Ba8 O35 2.673635 1_455
Ba8 O7 2.826718 1_455
Ba8 O0 2.826718 1_455
Ba8 O29 2.935191 1_555
Ba8 O34 2.935191 1_555
Ba9 O34 2.673635 1_555
Ba9 O29 2.673635 1_555
Ba9 O1 2.826718 1_555
Ba9 O6 2.826718 1_555
Ba9 O35 2.935191 1_555
Ba9 O28 2.935191 1_555
Ba10 O33 2.673635 1_555
Ba10 O30 2.673635 1_555
Ba10 O5 2.826718 1_555
Ba10 O2 2.826718 1_555
Ba10 O32 2.935191 1_555
Ba10 O31 2.935191 1_555
Ba11 O31 2.673635 1_655
Ba11 O32 2.673635 1_655
Ba11 O3 2.826718 1_655
Ba11 O4 2.826718 1_655
Ba11 O33 2.935191 1_555
Ba11 O30 2.935191 1_555
Ba12 O45 2.369930 1_455
Ba12 O28 2.900263 1_455
Ba12 O35 2.900263 1_455
Ba12 O1 2.905511 1_555
Ba12 O6 2.905511 1_555
Ba12 O42 3.237689 1_555
Ba12 O37 3.237689 1_555
Ba13 O44 2.369930 1_545
Ba13 O29 2.900263 1_555
Ba13 O34 2.900263 1_555
Ba13 O7 2.905511 1_555
Ba13 O0 2.905511 1_555
Ba13 O43 3.237689 1_545
Ba13 O36 3.237689 1_545
Ba14 O47 2.369930 1_565
Ba14 O33 2.900263 1_555
Ba14 O30 2.900263 1_555
Ba14 O4 2.905511 1_555
Ba14 O3 2.905511 1_555
Ba14 O39 3.237689 1_565
Ba14 O40 3.237689 1_565
Ba15 O46 2.369930 1_655
Ba15 O32 2.900263 1_655
Ba15 O31 2.900263 1_655
Ba15 O5 2.905511 1_555
Ba15 O2 2.905511 1_555
Ba15 O41 3.237689 1_555
Ba15 O38 3.237689 1_555
Ba16 O36 2.548361 1_545
Ba16 O0 2.743341 1_455
Ba16 O29 2.757452 1_555
Ba16 O20 2.760659 1_545
Ba16 O40 2.765397 1_555
Ba16 O14 2.781289 1_555
Ba17 O37 2.548361 1_655
Ba17 O1 2.743341 1_555
Ba17 O28 2.757452 1_555
Ba17 O21 2.760659 1_555
Ba17 O41 2.765397 1_554
Ba17 O15 2.781289 1_554
Ba18 O38 2.548361 1_455
Ba18 O2 2.743341 1_555
Ba18 O31 2.757452 1_555
Ba18 O22 2.760659 1_555
Ba18 O42 2.765397 1_555
Ba18 O12 2.781289 1_555
Ba19 O39 2.548361 1_565
Ba19 O3 2.743341 1_655
Ba19 O30 2.757452 1_555
Ba19 O23 2.760659 1_565
Ba19 O43 2.765397 1_556
Ba19 O13 2.781289 1_556
Ba20 O40 2.548361 1_565
Ba20 O4 2.743341 1_655
Ba20 O33 2.757452 1_555
Ba20 O24 2.760659 1_565
Ba20 O36 2.765397 1_555
Ba20 O18 2.781289 1_555
Ba21 O41 2.548361 1_455
Ba21 O5 2.743341 1_555
Ba21 O32 2.757452 1_555
Ba21 O25 2.760659 1_555
Ba21 O37 2.765397 1_556
Ba21 O19 2.781289 1_556
Ba22 O42 2.548361 1_655
Ba22 O6 2.743341 1_555
Ba22 O35 2.757452 1_555
Ba22 O26 2.760659 1_555
Ba22 O38 2.765397 1_555
Ba22 O16 2.781289 1_555
Ba23 O43 2.548361 1_545
Ba23 O7 2.743341 1_455
Ba23 O34 2.757452 1_555
Ba23 O27 2.760659 1_545
Ba23 O39 2.765397 1_554
Ba23 O17 2.781289 1_554
Ba24 O47 2.514383 1_555
Ba24 O23 2.783346 1_555
Ba24 O24 2.783346 1_555
Ba24 O11 2.834745 1_555
Ba24 O3 2.841867 1_645
Ba24 O4 2.841867 1_645
Ba24 O10 2.919015 1_655
Ba25 O46 2.514383 1_555
Ba25 O22 2.783346 1_555
Ba25 O25 2.783346 1_555
Ba25 O10 2.834742 1_555
Ba25 O5 2.841867 1_555
Ba25 O2 2.841867 1_555
Ba25 O11 2.919009 1_555
Ba26 O45 2.514383 1_555
Ba26 O21 2.783346 1_555
Ba26 O26 2.783346 1_555
Ba26 O9 2.834745 1_555
Ba26 O6 2.841867 1_555
Ba26 O1 2.841867 1_555
Ba26 O8 2.919015 1_555
Ba27 O44 2.514383 1_555
Ba27 O27 2.783346 1_555
Ba27 O20 2.783346 1_555
Ba27 O8 2.834742 1_555
Ba27 O7 2.841867 1_465
Ba27 O0 2.841867 1_465
Ba27 O9 2.919009 1_455
Ba28 O10 2.750580 1_555
Ba28 O47 2.768059 1_555
Ba28 O11 2.829483 1_555
Ba28 O24 2.848847 1_555
Ba28 O40 2.984496 1_555
Ba28 O22 3.045773 1_555
Ba28 O14 3.074673 1_555
Ba28 O16 3.232724 1_555
Ba29 O11 2.750585 1_555
Ba29 O46 2.768059 1_655
Ba29 O10 2.829487 1_655
Ba29 O25 2.848847 1_655
Ba29 O41 2.984496 1_555
Ba29 O23 3.045773 1_555
Ba29 O15 3.074673 1_555
Ba29 O17 3.232724 1_655
Ba30 O8 2.750580 1_555
Ba30 O45 2.768059 1_455
Ba30 O9 2.829483 1_455
Ba30 O26 2.848847 1_455
Ba30 O42 2.984496 1_555
Ba30 O20 3.045773 1_555
Ba30 O12 3.074673 1_555
Ba30 O18 3.232724 1_455
Ba31 O9 2.750585 1_555
Ba31 O44 2.768059 1_555
Ba31 O8 2.829487 1_555
Ba31 O27 2.848847 1_555
Ba31 O43 2.984496 1_555
Ba31 O21 3.045773 1_555
Ba31 O13 3.074673 1_555
Ba31 O19 3.232724 1_555
Ba32 O9 2.750585 1_555
Ba32 O44 2.768059 1_555
Ba32 O8 2.829487 1_555
Ba32 O20 2.848847 1_555
Ba32 O36 2.984496 1_555
Ba32 O26 3.045773 1_555
Ba32 O18 3.074673 1_555
Ba32 O12 3.232724 1_555
Ba33 O8 2.750580 1_555
Ba33 O45 2.768059 1_455
Ba33 O9 2.829483 1_455
Ba33 O21 2.848847 1_455
Ba33 O37 2.984496 1_555
Ba33 O27 3.045773 1_555
Ba33 O19 3.074673 1_555
Ba33 O13 3.232724 1_455
Ba34 O11 2.750585 1_555
Ba34 O46 2.768059 1_655
Ba34 O10 2.829487 1_655
Ba34 O22 2.848847 1_655
Ba34 O38 2.984496 1_555
Ba34 O24 3.045773 1_555
Ba34 O16 3.074673 1_555
Ba34 O14 3.232724 1_655
Ba35 O10 2.750580 1_555
Ba35 O47 2.768059 1_555
Ba35 O11 2.829483 1_555
Ba35 O23 2.848847 1_555
Ba35 O39 2.984496 1_555
Ba35 O25 3.045773 1_555
Ba35 O17 3.074673 1_555
Ba35 O15 3.232724 1_555
Au0 O40 2.032504 1_555
Au0 O14 2.052181 1_555
Au0 O24 2.060935 1_455
Au0 O4 2.089496 1_545
Au1 O41 2.032504 1_555
Au1 O15 2.052181 1_555
Au1 O25 2.060935 1_555
Au1 O5 2.089496 1_555
Au2 O42 2.032504 1_555
Au2 O12 2.052181 1_555
Au2 O26 2.060935 1_555
Au2 O6 2.089496 1_555
Au3 O43 2.032504 1_555
Au3 O13 2.052181 1_555
Au3 O27 2.060935 1_655
Au3 O7 2.089496 1_565
Au4 O36 2.032504 1_555
Au4 O18 2.052181 1_555
Au4 O20 2.060935 1_655
Au4 O0 2.089496 1_565
Au5 O37 2.032504 1_555
Au5 O19 2.052181 1_555
Au5 O21 2.060935 1_555
Au5 O1 2.089496 1_555
Au6 O38 2.032504 1_555
Au6 O16 2.052181 1_555
Au6 O22 2.060935 1_555
Au6 O2 2.089496 1_555
Au7 O39 2.032504 1_555
Au7 O17 2.052181 1_555
Au7 O23 2.060935 1_455
Au7 O3 2.089496 1_545
