# generated using pymatgen
data_Na3HfAlSi(PO6)2
_symmetry_space_group_name_H-M   'P 1'
_cell_length_a   15.48019067
_cell_length_b   8.83965036
_cell_length_c   8.90411310
_cell_angle_alpha   90.00000000
_cell_angle_beta   124.45412423
_cell_angle_gamma   90.00000000
_symmetry_Int_Tables_number   1
_chemical_formula_structural   Na3HfAlSi(PO6)2
_chemical_formula_sum   'Na12 Hf4 Al4 Si4 P8 O48'
_cell_volume   1004.69573999
_cell_formula_units_Z   4
loop_
 _symmetry_equiv_pos_site_id
 _symmetry_equiv_pos_as_xyz
  1  'x, y, z'
loop_
 _atom_site_type_symbol
 _atom_site_label
 _atom_site_symmetry_multiplicity
 _atom_site_fract_x
 _atom_site_fract_y
 _atom_site_fract_z
 _atom_site_occupancy
  Na  Na0  1  0.24961799  0.72119677  0.99252619  1
  Na  Na1  1  0.74961799  0.77880323  0.49252619  1
  Na  Na2  1  0.74961799  0.22119677  0.99252619  1
  Na  Na3  1  0.24961799  0.27880323  0.49252619  1
  Na  Na4  1  0.50343952  0.10595605  0.76014911  1
  Na  Na5  1  0.50343952  0.89404395  0.26014911  1
  Na  Na6  1  0.00343952  0.60595605  0.76014911  1
  Na  Na7  1  0.00343952  0.39404395  0.26014911  1
  Na  Na8  1  0.18726158  0.92919701  0.28020356  1
  Na  Na9  1  0.18726158  0.07080299  0.78020356  1
  Na  Na10  1  0.68726158  0.42919701  0.28020356  1
  Na  Na11  1  0.68726158  0.57080299  0.78020356  1
  Hf  Hf0  1  0.89487364  0.75702743  0.93711832  1
  Hf  Hf1  1  0.89487364  0.24297257  0.43711832  1
  Hf  Hf2  1  0.39487364  0.25702743  0.93711832  1
  Hf  Hf3  1  0.39487364  0.74297257  0.43711832  1
  Al  Al0  1  0.10575733  0.74061700  0.56234489  1
  Al  Al1  1  0.10575733  0.25938300  0.06234489  1
  Al  Al2  1  0.60575733  0.24061700  0.56234489  1
  Al  Al3  1  0.60575733  0.75938300  0.06234489  1
  Si  Si0  1  0.64151263  0.90196493  0.74483903  1
  Si  Si1  1  0.64151263  0.09803507  0.24483903  1
  Si  Si2  1  0.14151263  0.40196493  0.74483903  1
  Si  Si3  1  0.14151263  0.59803507  0.24483903  1
  P  P0  1  0.00808641  0.95800989  0.76104414  1
  P  P1  1  0.00808641  0.04199011  0.26104414  1
  P  P2  1  0.50808641  0.45800989  0.76104414  1
  P  P3  1  0.50808641  0.54199011  0.26104414  1
  P  P4  1  0.35136646  0.88232978  0.76027944  1
  P  P5  1  0.35136646  0.11767022  0.26027944  1
  P  P6  1  0.85136646  0.38232978  0.76027944  1
  P  P7  1  0.85136646  0.61767022  0.26027944  1
  O  O0  1  0.14185350  0.58588187  0.73126317  1
  O  O1  1  0.84493899  0.56032149  0.76520673  1
  O  O2  1  0.84493899  0.43967851  0.26520673  1
  O  O3  1  0.14185350  0.41411813  0.23126317  1
  O  O4  1  0.64185350  0.08588187  0.73126317  1
  O  O5  1  0.34493899  0.06032149  0.76520673  1
  O  O6  1  0.34493899  0.93967851  0.26520673  1
  O  O7  1  0.64185350  0.91411813  0.23126317  1
  O  O8  1  0.44280350  0.55846743  0.59014086  1
  O  O9  1  0.57147300  0.55613202  0.93334205  1
  O  O10  1  0.57147300  0.44386798  0.43334205  1
  O  O11  1  0.44280350  0.44153257  0.09014086  1
  O  O12  1  0.94280350  0.05846743  0.59014086  1
  O  O13  1  0.07147300  0.05613202  0.93334205  1
  O  O14  1  0.07147300  0.94386798  0.43334205  1
  O  O15  1  0.94280350  0.94153257  0.09014086  1
  O  O16  1  0.25276331  0.82050188  0.74128034  1
  O  O17  1  0.74126581  0.82065369  0.75726025  1
  O  O18  1  0.74126581  0.17934631  0.25726025  1
  O  O19  1  0.25276331  0.17949812  0.24128034  1
  O  O20  1  0.75276331  0.32050188  0.74128034  1
  O  O21  1  0.24126581  0.32065369  0.75726025  1
  O  O22  1  0.24126581  0.67934631  0.25726025  1
  O  O23  1  0.75276331  0.67949812  0.24128034  1
  O  O24  1  0.34926487  0.85325678  0.58564872  1
  O  O25  1  0.63221103  0.85195047  0.91118206  1
  O  O26  1  0.63221103  0.14804953  0.41118206  1
  O  O27  1  0.34926487  0.14674322  0.08564872  1
  O  O28  1  0.84926487  0.35325678  0.58564872  1
  O  O29  1  0.13221103  0.35195047  0.91118206  1
  O  O30  1  0.13221103  0.64804953  0.41118206  1
  O  O31  1  0.84926487  0.64674322  0.08564872  1
  O  O32  1  0.45310480  0.82132385  0.93052221  1
  O  O33  1  0.53695770  0.83616255  0.55625098  1
  O  O34  1  0.53695770  0.16383745  0.05625098  1
  O  O35  1  0.45310480  0.17867615  0.43052221  1
  O  O36  1  0.95310480  0.32132385  0.93052221  1
  O  O37  1  0.03695770  0.33616255  0.55625098  1
  O  O38  1  0.03695770  0.66383745  0.05625098  1
  O  O39  1  0.95310480  0.67867615  0.43052221  1
  O  O40  1  0.08492323  0.86042364  0.74294827  1
  O  O41  1  0.92652467  0.85071750  0.75644968  1
  O  O42  1  0.92652467  0.14928250  0.25644968  1
  O  O43  1  0.08492323  0.13957636  0.24294827  1
  O  O44  1  0.58492323  0.36042364  0.74294827  1
  O  O45  1  0.42652467  0.35071750  0.75644968  1
  O  O46  1  0.42652467  0.64928250  0.25644968  1
  O  O47  1  0.58492323  0.63957636  0.24294827  1
loop_
_geom_bond_atom_site_label_1
_geom_bond_atom_site_label_2
_geom_bond_distance
_geom_bond_site_symmetry_2
Na0 O0 2.287868 1_555
Na0 O16 2.429178 1_555
Na0 O22 2.460674 1_556
Na0 O46 2.478800 1_556
Na0 O40 2.557820 1_555
Na0 O6 2.783626 1_556
Na1 O7 2.287868 1_555
Na1 O23 2.429178 1_555
Na1 O17 2.460674 1_555
Na1 O41 2.478800 1_555
Na1 O47 2.557820 1_555
Na1 O1 2.783626 1_555
Na2 O4 2.287868 1_555
Na2 O20 2.429178 1_555
Na2 O18 2.460674 1_556
Na2 O42 2.478800 1_556
Na2 O44 2.557820 1_555
Na2 O2 2.783626 1_556
Na3 O3 2.287868 1_555
Na3 O19 2.429178 1_555
Na3 O21 2.460674 1_555
Na3 O45 2.478800 1_555
Na3 O43 2.557820 1_555
Na3 O5 2.783626 1_555
Na4 O4 2.304836 1_555
Na4 O34 2.436059 1_556
Na4 O45 2.460805 1_555
Na4 O5 2.511976 1_555
Na4 O44 2.625445 1_555
Na4 O35 2.654641 1_555
Na4 O25 2.791129 1_545
Na4 O24 2.983979 1_545
Na5 O7 2.304836 1_555
Na5 O33 2.436059 1_555
Na5 O46 2.460805 1_555
Na5 O6 2.511976 1_555
Na5 O47 2.625445 1_555
Na5 O32 2.654641 1_554
Na5 O26 2.791129 1_565
Na5 O27 2.983979 1_565
Na6 O0 2.304836 1_555
Na6 O38 2.436059 1_556
Na6 O41 2.460805 1_455
Na6 O1 2.511976 1_455
Na6 O40 2.625445 1_555
Na6 O39 2.654641 1_455
Na6 O29 2.791129 1_555
Na6 O28 2.983979 1_455
Na7 O3 2.304836 1_555
Na7 O37 2.436059 1_555
Na7 O42 2.460805 1_455
Na7 O2 2.511976 1_455
Na7 O43 2.625445 1_555
Na7 O36 2.654641 1_454
Na7 O30 2.791129 1_555
Na7 O31 2.983979 1_455
Na8 O43 2.341702 1_565
Na8 O22 2.410757 1_555
Na8 O6 2.520534 1_555
Na8 O24 2.533630 1_555
Na8 O19 2.537988 1_565
Na8 O13 2.783304 1_564
Na8 O14 2.802569 1_555
Na9 O40 2.341702 1_545
Na9 O21 2.410757 1_555
Na9 O5 2.520534 1_555
Na9 O27 2.533630 1_556
Na9 O16 2.537988 1_545
Na9 O14 2.783304 1_545
Na9 O13 2.802569 1_555
Na10 O47 2.341702 1_555
Na10 O18 2.410757 1_555
Na10 O2 2.520534 1_555
Na10 O28 2.533630 1_555
Na10 O23 2.537988 1_555
Na10 O9 2.783304 1_554
Na10 O10 2.802569 1_555
Na11 O44 2.341702 1_555
Na11 O17 2.410757 1_555
Na11 O1 2.520534 1_555
Na11 O31 2.533630 1_556
Na11 O20 2.537988 1_555
Na11 O10 2.783304 1_555
Na11 O9 2.802569 1_555
Hf0 O15 1.980695 1_556
Hf0 O38 2.000408 1_656
Hf0 O17 2.055848 1_555
Hf0 O31 2.062639 1_556
Hf0 O41 2.098976 1_555
Hf0 O1 2.150643 1_555
Hf1 O12 1.980695 1_555
Hf1 O37 2.000408 1_655
Hf1 O18 2.055848 1_555
Hf1 O28 2.062639 1_555
Hf1 O42 2.098976 1_555
Hf1 O2 2.150643 1_555
Hf2 O11 1.980695 1_556
Hf2 O34 2.000408 1_556
Hf2 O21 2.055848 1_555
Hf2 O27 2.062639 1_556
Hf2 O45 2.098976 1_555
Hf2 O5 2.150643 1_555
Hf3 O8 1.980695 1_555
Hf3 O33 2.000408 1_555
Hf3 O22 2.055848 1_555
Hf3 O24 2.062639 1_555
Hf3 O46 2.098976 1_555
Hf3 O6 2.150643 1_555
Al0 O30 1.809020 1_555
Al0 O0 1.869329 1_555
Al0 O16 2.028138 1_555
Al0 O39 2.030586 1_455
Al0 O14 2.034530 1_555
Al0 O40 2.097252 1_555
Al1 O29 1.809020 1_554
Al1 O3 1.869329 1_555
Al1 O19 2.028138 1_555
Al1 O36 2.030586 1_454
Al1 O13 2.034530 1_554
Al1 O43 2.097252 1_555
Al2 O26 1.809020 1_555
Al2 O4 1.869329 1_555
Al2 O20 2.028138 1_555
Al2 O35 2.030586 1_555
Al2 O10 2.034530 1_555
Al2 O44 2.097252 1_555
Al3 O25 1.809020 1_554
Al3 O7 1.869329 1_555
Al3 O23 2.028138 1_555
Al3 O32 2.030586 1_554
Al3 O9 2.034530 1_554
Al3 O47 2.097252 1_555
O0 Si2 1.630479 1_555
O1 P6 1.578703 1_555
O2 P7 1.578703 1_555
O3 Si3 1.630479 1_555
O4 Si0 1.630479 1_545
O5 P4 1.578703 1_545
O6 P5 1.578703 1_565
O7 Si1 1.630479 1_565
O8 P2 1.544500 1_555
O9 P2 1.538010 1_555
O10 P3 1.538010 1_555
O11 P3 1.544500 1_555
O12 P0 1.544500 1_645
O13 P0 1.538010 1_545
O14 P1 1.538010 1_565
O15 P1 1.544500 1_665
O16 P4 1.537865 1_555
O17 Si0 1.649289 1_555
O18 Si1 1.649289 1_555
O19 P5 1.537865 1_555
O20 P6 1.537865 1_555
O21 Si2 1.649289 1_555
O22 Si3 1.649289 1_555
O23 P7 1.537865 1_555
O24 P4 1.558101 1_555
O25 Si0 1.628274 1_555
O26 Si1 1.628274 1_555
O27 P5 1.558101 1_555
O28 P6 1.558101 1_555
O29 Si2 1.628274 1_555
O30 Si3 1.628274 1_555
O31 P7 1.558101 1_555
O32 P4 1.538751 1_555
O33 Si0 1.643927 1_555
O34 Si1 1.643927 1_555
O35 P5 1.538751 1_555
O36 P6 1.538751 1_555
O37 Si2 1.643927 1_555
O38 Si3 1.643927 1_555
O39 P7 1.538751 1_555
O40 P0 1.549752 1_555
O41 P0 1.561051 1_655
O42 P1 1.561051 1_655
O43 P1 1.549752 1_555
O44 P2 1.549752 1_555
O45 P2 1.561051 1_555
O46 P3 1.561051 1_555
O47 P3 1.549752 1_555
