# generated using pymatgen
data_MgMo2(WS4)2
_symmetry_space_group_name_H-M   'P 1'
_cell_length_a   3.19066600
_cell_length_b   3.19066581
_cell_length_c   44.40803913
_cell_angle_alpha   90.00840138
_cell_angle_beta   89.99810285
_cell_angle_gamma   120.00004078
_symmetry_Int_Tables_number   1
_chemical_formula_structural   MgMo2(WS4)2
_chemical_formula_sum   'Mg1 Mo2 W2 S8'
_cell_volume   391.52068132
_cell_formula_units_Z   1
loop_
 _symmetry_equiv_pos_site_id
 _symmetry_equiv_pos_as_xyz
  1  'x, y, z'
loop_
 _atom_site_type_symbol
 _atom_site_label
 _atom_site_symmetry_multiplicity
 _atom_site_fract_x
 _atom_site_fract_y
 _atom_site_fract_z
 _atom_site_occupancy
  Mg  Mg0  1  0.99999400  0.00000700  0.38032800  1
  Mo  Mo0  1  0.33329600  0.66656100  0.09378800  1
  Mo  Mo1  1  0.33329700  0.66661500  0.47733600  1
  W  W0  1  0.66676400  0.33355300  0.27273100  1
  W  W1  1  0.66664500  0.33327000  0.65770300  1
  S  S0  1  0.33346400  0.66696800  0.30830500  1
  S  S1  1  0.33333100  0.66666700  0.69307600  1
  S  S2  1  0.66658200  0.33308400  0.05856600  1
  S  S3  1  0.66662000  0.33322200  0.44171300  1
  S  S4  1  0.66667500  0.33336800  0.12900600  1
  S  S5  1  0.66663900  0.33333800  0.51244600  1
  S  S6  1  0.33339900  0.66681100  0.23735300  1
  S  S7  1  0.33329300  0.66653900  0.62232300  1
loop_
_geom_bond_atom_site_label_1
_geom_bond_atom_site_label_2
_geom_bond_distance
_geom_bond_site_symmetry_2
Mo0 S4 2.416415 1_555
Mo0 S4 2.416449 1_455
Mo0 S2 2.416482 1_565
Mo0 S4 2.416607 1_565
Mo0 S2 2.416650 1_455
Mo0 S2 2.416685 1_555
Mo1 S5 2.413329 1_565
Mo1 S5 2.413413 1_555
Mo1 S5 2.413426 1_455
Mo1 S3 2.428135 1_455
Mo1 S3 2.428149 1_555
Mo1 S3 2.428224 1_565
S0 W0 2.426730 1_555
S0 W0 2.426761 1_565
S0 W0 2.426766 1_455
S1 W1 2.420921 1_555
S1 W1 2.420936 1_455
S1 W1 2.420996 1_565
S6 W0 2.421074 1_565
S6 W0 2.421084 1_455
S6 W0 2.421128 1_555
S7 W1 2.421108 1_565
S7 W1 2.421169 1_455
S7 W1 2.421181 1_555
