# generated using pymatgen
data_Na2MgSiSn(SO6)2
_symmetry_space_group_name_H-M   'P 1'
_cell_length_a   8.95656685
_cell_length_b   8.88311292
_cell_length_c   22.71022199
_cell_angle_alpha   90.72229462
_cell_angle_beta   90.00000000
_cell_angle_gamma   120.27391343
_symmetry_Int_Tables_number   1
_chemical_formula_structural   Na2MgSiSn(SO6)2
_chemical_formula_sum   'Na12 Mg6 Si6 Sn6 S12 O72'
_cell_volume   1560.29657290
_cell_formula_units_Z   6
loop_
 _symmetry_equiv_pos_site_id
 _symmetry_equiv_pos_as_xyz
  1  'x, y, z'
loop_
 _atom_site_type_symbol
 _atom_site_label
 _atom_site_symmetry_multiplicity
 _atom_site_fract_x
 _atom_site_fract_y
 _atom_site_fract_z
 _atom_site_occupancy
  Na  Na0  1  0.00032533  0.63969118  0.24105999  1
  Na  Na1  1  0.63936585  0.63969118  0.74105999  1
  Na  Na2  1  0.65735864  0.95110273  0.57890943  1
  Na  Na3  1  0.29374510  0.95110273  0.07890943  1
  Na  Na4  1  0.69161091  0.02702620  0.90828637  1
  Na  Na5  1  0.33541429  0.02702620  0.40828637  1
  Na  Na6  1  0.97612196  0.98697986  0.49487114  1
  Na  Na7  1  0.01085790  0.98697986  0.99487114  1
  Na  Na8  1  0.66001268  0.31126341  0.82834418  1
  Na  Na9  1  0.65125173  0.31126341  0.32834418  1
  Na  Na10  1  0.32564871  0.66286155  0.16208836  1
  Na  Na11  1  0.33721184  0.66286155  0.66208836  1
  Mg  Mg0  1  0.99758083  0.00519764  0.35194807  1
  Mg  Mg1  1  0.00761681  0.00519764  0.85194807  1
  Mg  Mg2  1  0.66748051  0.32772088  0.68501730  1
  Mg  Mg3  1  0.66024138  0.32772088  0.18501730  1
  Mg  Mg4  1  0.31501474  0.66617240  0.01917135  1
  Mg  Mg5  1  0.35115666  0.66617240  0.51917135  1
  Si  Si0  1  0.30130218  0.00893091  0.25430283  1
  Si  Si1  1  0.70762873  0.00893091  0.75430283  1
  Si  Si2  1  0.66177483  0.62043720  0.58830650  1
  Si  Si3  1  0.95866336  0.62043720  0.08830650  1
  Si  Si4  1  0.32666144  0.96635617  0.92230346  1
  Si  Si5  1  0.63969373  0.96635617  0.42230346  1
  Sn  Sn0  1  0.98844173  0.98788357  0.65046317  1
  Sn  Sn1  1  0.99944184  0.98788357  0.15046317  1
  Sn  Sn2  1  0.66660992  0.34043483  0.98379055  1
  Sn  Sn3  1  0.67382592  0.34043483  0.48379055  1
  Sn  Sn4  1  0.34560066  0.68652894  0.31667496  1
  Sn  Sn5  1  0.34092728  0.68652894  0.81667496  1
  S  S0  1  0.70450264  0.70597889  0.25153142  1
  S  S1  1  0.00084180  0.29079599  0.25140591  1
  S  S2  1  0.28995420  0.29079599  0.75140591  1
  S  S3  1  0.00147624  0.70597889  0.75153142  1
  S  S4  1  0.96574274  0.33893343  0.58492070  1
  S  S5  1  0.36796454  0.03969368  0.58464856  1
  S  S6  1  0.67173013  0.03969368  0.08464856  1
  S  S7  1  0.37319169  0.33893343  0.08492070  1
  S  S8  1  0.62229906  0.66420159  0.91773417  1
  S  S9  1  0.04568675  0.37656050  0.91661562  1
  S  S10  1  0.33087276  0.37656050  0.41661562  1
  S  S11  1  0.04190154  0.66420159  0.41773417  1
  O  O0  1  0.20379079  0.01857765  0.31221325  1
  O  O1  1  0.81371006  0.79418002  0.30243966  1
  O  O2  1  0.97804512  0.18341986  0.30207982  1
  O  O3  1  0.20537474  0.18341986  0.80207982  1
  O  O4  1  0.98046996  0.79418002  0.80243966  1
  O  O5  1  0.81478686  0.01857765  0.81221325  1
  O  O6  1  0.78305642  0.95821654  0.69294591  1
  O  O7  1  0.18680169  0.21419271  0.69512667  1
  O  O8  1  0.04313266  0.81493028  0.69666707  1
  O  O9  1  0.77179762  0.81493028  0.19666707  1
  O  O10  1  0.02739101  0.21419271  0.19512667  1
  O  O11  1  0.17516012  0.95821654  0.19294591  1
  O  O12  1  0.88078282  0.35850806  0.63641395  1
  O  O13  1  0.48439389  0.12499218  0.63411580  1
  O  O14  1  0.64875794  0.51563930  0.64633065  1
  O  O15  1  0.86688236  0.51563930  0.14633065  1
  O  O16  1  0.64059929  0.12499218  0.13411580  1
  O  O17  1  0.47772624  0.35850806  0.13641395  1
  O  O18  1  0.43996144  0.29008009  0.03035335  1
  O  O19  1  0.83919782  0.54176269  0.02653647  1
  O  O20  1  0.70243340  0.14051909  0.02831475  1
  O  O21  1  0.43808669  0.14051909  0.52831475  1
  O  O22  1  0.70256586  0.54176269  0.52653647  1
  O  O23  1  0.85011964  0.29008009  0.53035335  1
  O  O24  1  0.53382520  0.68394211  0.96821893  1
  O  O25  1  0.15169402  0.46065349  0.96836936  1
  O  O26  1  0.31730978  0.86069007  0.97981978  1
  O  O27  1  0.54337929  0.86069007  0.47981978  1
  O  O28  1  0.30895847  0.46065349  0.46836936  1
  O  O29  1  0.15011592  0.68394211  0.46821893  1
  O  O30  1  0.11054421  0.62857028  0.36096809  1
  O  O31  1  0.50746994  0.89259507  0.36270328  1
  O  O32  1  0.35833557  0.48091098  0.36148017  1
  O  O33  1  0.12257440  0.48091098  0.86148017  1
  O  O34  1  0.38512413  0.89259507  0.86270328  1
  O  O35  1  0.51802506  0.62857028  0.86096809  1
  O  O36  1  0.03046638  0.82288726  0.41184566  1
  O  O37  1  0.82553134  0.98832938  0.41135508  1
  O  O38  1  0.18152977  0.19958978  0.41062366  1
  O  O39  1  0.01806002  0.19958978  0.91062366  1
  O  O40  1  0.16279804  0.98832938  0.91135508  1
  O  O41  1  0.79242089  0.82288726  0.91184566  1
  O  O42  1  0.98308372  0.17743621  0.58952877  1
  O  O43  1  0.19627705  0.03034713  0.59189881  1
  O  O44  1  0.84248726  0.82437616  0.58601393  1
  O  O45  1  0.98188890  0.82437616  0.08601393  1
  O  O46  1  0.83407008  0.03034713  0.09189881  1
  O  O47  1  0.19435249  0.17743621  0.08952877  1
  O  O48  1  0.68191351  0.17233967  0.74453546  1
  O  O49  1  0.46492521  0.31862842  0.74536495  1
  O  O50  1  0.84310703  0.53697115  0.74388099  1
  O  O51  1  0.69386512  0.53697115  0.24388099  1
  O  O52  1  0.85370421  0.31862842  0.24536495  1
  O  O53  1  0.49042716  0.17233967  0.24453546  1
  O  O54  1  0.64309503  0.50685961  0.92042299  1
  O  O55  1  0.86825344  0.35804989  0.92057970  1
  O  O56  1  0.52159625  0.16103056  0.92460925  1
  O  O57  1  0.63943531  0.16103056  0.42460925  1
  O  O58  1  0.48979745  0.35804989  0.42057970  1
  O  O59  1  0.86376558  0.50685961  0.42042299  1
  O  O60  1  0.36038951  0.49325319  0.07540725  1
  O  O61  1  0.15314230  0.65296044  0.08229198  1
  O  O62  1  0.52110647  0.86325417  0.07753475  1
  O  O63  1  0.34214670  0.86325417  0.57753475  1
  O  O64  1  0.49981715  0.65296044  0.58229198  1
  O  O65  1  0.13286268  0.49325319  0.57540725  1
  O  O66  1  0.29831164  0.81306527  0.25366398  1
  O  O67  1  0.52510930  0.67915008  0.25616703  1
  O  O68  1  0.16318870  0.46903962  0.25678477  1
  O  O69  1  0.30584992  0.46903962  0.75678477  1
  O  O70  1  0.15403978  0.67915008  0.75616703  1
  O  O71  1  0.51475263  0.81306527  0.75366398  1
loop_
_geom_bond_atom_site_label_1
_geom_bond_atom_site_label_2
_geom_bond_distance
_geom_bond_site_symmetry_2
Na0 O66 2.328416 1_555
Na0 O51 2.418055 1_455
Na0 O15 2.425549 1_455
Na0 O52 2.469600 1_455
Na0 O68 2.607015 1_555
Na0 O11 2.694932 1_555
Na0 O30 2.916314 1_555
Na0 O1 2.980706 1_455
Na1 O71 2.328424 1_555
Na1 O50 2.418063 1_555
Na1 O14 2.425551 1_555
Na1 O49 2.469600 1_555
Na1 O69 2.607023 1_555
Na1 O6 2.694932 1_555
Na1 O35 2.916317 1_555
Na1 O4 2.980706 1_555
Na2 O64 2.290919 1_555
Na2 O27 2.424670 1_555
Na2 O44 2.435004 1_555
Na2 O63 2.521611 1_555
Na2 O42 2.585595 1_565
Na2 O6 2.811163 1_555
Na2 O23 2.847084 1_565
Na2 O13 2.953266 1_565
Na3 O61 2.290918 1_555
Na3 O26 2.424665 1_554
Na3 O45 2.435012 1_455
Na3 O62 2.521593 1_555
Na3 O47 2.585602 1_565
Na3 O11 2.811167 1_555
Na3 O18 2.847084 1_565
Na3 O16 2.953266 1_565
Na4 O56 2.385304 1_555
Na4 O41 2.400985 1_545
Na4 O5 2.462223 1_555
Na4 O39 2.525960 1_655
Na4 O55 2.552701 1_555
Na4 O34 2.587806 1_545
Na4 O20 2.878951 1_556
Na5 O57 2.385320 1_555
Na5 O36 2.400978 1_545
Na5 O0 2.462219 1_555
Na5 O38 2.525952 1_555
Na5 O58 2.552701 1_555
Na5 O31 2.587806 1_545
Na5 O21 2.878953 1_555
Na6 O37 2.331001 1_555
Na6 O44 2.477008 1_555
Na6 O36 2.561826 1_655
Na6 O38 2.683285 1_665
Na6 O42 2.699882 1_565
Na6 O43 2.846881 1_665
Na7 O40 2.331001 1_555
Na7 O45 2.477008 1_456
Na7 O41 2.561825 1_455
Na7 O39 2.683285 1_565
Na7 O47 2.699882 1_566
Na7 O46 2.846881 1_466
Na8 O48 2.317084 1_555
Na8 O56 2.550061 1_555
Na8 O49 2.593648 1_555
Na8 O50 2.677769 1_555
Na8 O55 2.689910 1_555
Na8 O54 2.754732 1_555
Na9 O53 2.317084 1_555
Na9 O57 2.550061 1_555
Na9 O52 2.593648 1_555
Na9 O51 2.677769 1_555
Na9 O58 2.689910 1_555
Na9 O59 2.754732 1_555
Na10 O61 2.353290 1_555
Na10 O66 2.534727 1_555
Na10 O60 2.576800 1_555
Na10 O62 2.620092 1_555
Na10 O68 2.697036 1_555
Na10 O67 2.740231 1_555
Na11 O64 2.353290 1_555
Na11 O71 2.534727 1_555
Na11 O65 2.576800 1_555
Na11 O63 2.620092 1_555
Na11 O69 2.697036 1_555
Na11 O70 2.740231 1_555
Mg0 O37 1.997381 1_545
Mg0 O0 2.005233 1_655
Mg0 O2 2.035717 1_555
Mg0 O1 2.079501 1_545
Mg0 O38 2.131994 1_655
Mg0 O36 2.257511 1_645
Mg1 O40 1.997381 1_545
Mg1 O5 2.005233 1_455
Mg1 O3 2.035717 1_555
Mg1 O4 2.079501 1_445
Mg1 O39 2.131994 1_555
Mg1 O41 2.257511 1_445
Mg2 O14 1.976312 1_555
Mg2 O48 1.993943 1_555
Mg2 O13 2.058745 1_555
Mg2 O12 2.103284 1_555
Mg2 O50 2.169286 1_555
Mg2 O49 2.243031 1_555
Mg3 O15 1.976312 1_555
Mg3 O53 1.993943 1_555
Mg3 O16 2.058745 1_555
Mg3 O17 2.103284 1_555
Mg3 O51 2.169286 1_555
Mg3 O52 2.243031 1_555
Mg4 O26 1.946260 1_554
Mg4 O61 2.000827 1_555
Mg4 O25 2.014473 1_554
Mg4 O60 2.198769 1_555
Mg4 O24 2.212999 1_554
Mg4 O62 2.216351 1_555
Mg5 O27 1.946260 1_555
Mg5 O64 2.000827 1_555
Mg5 O28 2.014473 1_555
Mg5 O65 2.198769 1_555
Mg5 O29 2.212999 1_555
Mg5 O63 2.216351 1_555
O0 Si0 1.603862 1_555
O1 S0 1.453175 1_555
O2 S1 1.451612 1_655
O3 S2 1.451612 1_555
O4 S3 1.453175 1_655
O5 Si1 1.603862 1_555
O6 Si1 1.700598 1_565
O6 Sn0 1.975304 1_555
O7 S2 1.514723 1_555
O7 Sn0 2.138718 1_445
O8 S3 1.514822 1_555
O8 Sn0 2.121517 1_455
O9 S0 1.514822 1_555
O9 Sn1 2.121517 1_555
O10 S1 1.514723 1_555
O10 Sn1 2.138718 1_445
O11 Si0 1.700598 1_565
O11 Sn1 1.975304 1_455
O12 S4 1.450901 1_555
O13 S5 1.451030 1_555
O14 Si2 1.593162 1_555
O15 Si3 1.593162 1_555
O16 S6 1.451030 1_555
O17 S7 1.450901 1_555
O18 S7 1.526364 1_555
O18 Sn2 2.129682 1_554
O19 Si3 1.680032 1_555
O19 Sn2 1.923319 1_554
O20 S6 1.514959 1_555
O20 Sn2 2.213344 1_554
O21 S5 1.514959 1_555
O21 Sn3 2.213345 1_555
O22 Si2 1.680032 1_555
O22 Sn3 1.923319 1_555
O23 S4 1.526364 1_555
O23 Sn3 2.129681 1_555
O24 S8 1.451974 1_555
O25 S9 1.450401 1_555
O26 Si4 1.595585 1_555
O27 Si5 1.595585 1_555
O28 S10 1.450401 1_555
O29 S11 1.451974 1_555
O30 S11 1.525137 1_555
O30 Sn4 2.151599 1_555
O31 Si5 1.690896 1_555
O31 Sn4 1.954814 1_555
O32 S10 1.512275 1_555
O32 Sn4 2.154416 1_555
O33 S9 1.512274 1_555
O33 Sn5 2.154416 1_555
O34 Si4 1.690896 1_555
O34 Sn5 1.954814 1_555
O35 S8 1.525137 1_555
O35 Sn5 2.151599 1_555
O36 S11 1.471642 1_555
O37 Si5 1.594999 1_555
O38 S10 1.467474 1_555
O39 S9 1.467477 1_555
O40 Si4 1.594990 1_555
O41 S8 1.471647 1_555
O42 S4 1.523676 1_555
O42 Sn0 2.211959 1_545
O43 S5 1.506730 1_555
O43 Sn0 2.163569 1_445
O44 Si2 1.717650 1_555
O44 Sn0 1.998199 1_555
O45 Si3 1.717653 1_555
O45 Sn1 1.998199 1_555
O46 S6 1.506722 1_555
O46 Sn1 2.163569 1_545
O47 S7 1.523681 1_555
O47 Sn1 2.211959 1_445
O48 Si1 1.598293 1_555
O49 S2 1.464947 1_555
O50 S3 1.463694 1_655
O51 S0 1.463698 1_555
O52 S1 1.464938 1_655
O53 Si0 1.598299 1_555
O54 S8 1.502194 1_555
O54 Sn2 2.160671 1_555
O55 S9 1.515776 1_655
O55 Sn2 2.251160 1_555
O56 Si4 1.730624 1_545
O56 Sn2 1.972841 1_555
O57 Si5 1.730615 1_545
O57 Sn3 1.972841 1_555
O58 S10 1.515793 1_555
O58 Sn3 2.251160 1_555
O59 S11 1.502184 1_655
O59 Sn3 2.160670 1_555
O60 S7 1.450855 1_555
O61 Si3 1.621669 1_455
O62 S6 1.471160 1_565
O63 S5 1.471153 1_565
O64 Si2 1.621686 1_555
O65 S4 1.450845 1_455
O66 Si0 1.726425 1_565
O66 Sn4 2.002789 1_555
O67 S0 1.504680 1_555
O67 Sn4 2.140450 1_555
O68 S1 1.519881 1_555
O68 Sn4 2.236725 1_555
O69 S2 1.519885 1_555
O69 Sn5 2.236725 1_555
O70 S3 1.504671 1_555
O70 Sn5 2.140450 1_555
O71 Si1 1.726429 1_565
O71 Sn5 2.002789 1_555
