# generated using pymatgen
data_K3FeO4
_symmetry_space_group_name_H-M   'P 1'
_cell_length_a   7.62848244
_cell_length_b   7.77806358
_cell_length_c   9.02634897
_cell_angle_alpha   90.00016740
_cell_angle_beta   89.99994293
_cell_angle_gamma   89.99989881
_symmetry_Int_Tables_number   1
_chemical_formula_structural   K3FeO4
_chemical_formula_sum   'K12 Fe4 O16'
_cell_volume   535.57680436
_cell_formula_units_Z   4
loop_
 _symmetry_equiv_pos_site_id
 _symmetry_equiv_pos_as_xyz
  1  'x, y, z'
loop_
 _atom_site_type_symbol
 _atom_site_label
 _atom_site_symmetry_multiplicity
 _atom_site_fract_x
 _atom_site_fract_y
 _atom_site_fract_z
 _atom_site_occupancy
  K  K0  1  0.03654759  0.28122492  0.03557506  1
  K  K1  1  0.83137789  0.94252260  0.24999924  1
  K  K2  1  0.16862001  0.05748549  0.74999428  1
  K  K3  1  0.66861780  0.44251701  0.74999815  1
  K  K4  1  0.96344548  0.71880228  0.96442231  1
  K  K5  1  0.46344090  0.78119767  0.53558099  1
  K  K6  1  0.53655145  0.21877443  0.03557663  1
  K  K7  1  0.03655813  0.28122451  0.46442253  1
  K  K8  1  0.96345029  0.71880475  0.53557699  1
  K  K9  1  0.53655795  0.21877375  0.46442419  1
  K  K10  1  0.46344190  0.78119200  0.96441559  1
  K  K11  1  0.33138322  0.55748878  0.24999834  1
  Fe  Fe0  1  0.27355079  0.00740357  0.25000106  1
  Fe  Fe1  1  0.77355008  0.49259725  0.25000188  1
  Fe  Fe2  1  0.22645003  0.50740281  0.74999848  1
  Fe  Fe3  1  0.72645175  0.99259409  0.74999947  1
  O  O0  1  0.28729308  0.22482974  0.24999958  1
  O  O1  1  0.78729189  0.27517007  0.24999765  1
  O  O2  1  0.21271269  0.72482122  0.75000292  1
  O  O3  1  0.71271051  0.77518340  0.75000257  1
  O  O4  1  0.97853898  0.57823074  0.25000147  1
  O  O5  1  0.47853869  0.92176324  0.25000070  1
  O  O6  1  0.52146269  0.07821772  0.74999894  1
  O  O7  1  0.02146110  0.42178312  0.74999901  1
  O  O8  1  0.81541870  0.04231403  0.57903489  1
  O  O9  1  0.31541844  0.45769373  0.92097134  1
  O  O10  1  0.68458317  0.54230688  0.42097572  1
  O  O11  1  0.18457884  0.95769125  0.07902211  1
  O  O12  1  0.18457956  0.95769115  0.42097952  1
  O  O13  1  0.81541755  0.04230802  0.92096918  1
  O  O14  1  0.31541862  0.45768640  0.57903526  1
  O  O15  1  0.68458020  0.54230237  0.07902297  1
loop_
_geom_bond_atom_site_label_1
_geom_bond_atom_site_label_2
_geom_bond_distance
_geom_bond_site_symmetry_2
K0 O1 2.713609 1_455
K0 O13 2.714598 1_454
K0 O9 2.734916 1_554
K0 O0 2.756320 1_555
K0 O11 2.785966 1_545
K0 O7 2.802336 1_554
K0 O4 3.046080 1_455
K1 O1 2.609118 1_565
K1 O5 2.696467 1_555
K1 O4 3.047769 1_555
K1 O13 3.072096 1_564
K1 O8 3.072151 1_565
K1 O11 3.107315 1_655
K1 O12 3.107337 1_655
K2 O2 2.609254 1_545
K2 O6 2.696481 1_555
K2 O7 3.047804 1_555
K2 O12 3.071975 1_545
K2 O11 3.072093 1_546
K2 O8 3.107241 1_455
K2 O13 3.107318 1_455
K3 O3 2.609272 1_555
K3 O7 2.696486 1_655
K3 O6 3.047809 1_555
K3 O10 3.072039 1_555
K3 O15 3.072046 1_556
K3 O14 3.107242 1_555
K3 O9 3.107289 1_555
K4 O2 2.713645 1_655
K4 O11 2.714444 1_656
K4 O15 2.734994 1_556
K4 O3 2.756216 1_555
K4 O13 2.785767 1_565
K4 O4 2.802404 1_556
K4 O7 3.046149 1_655
K5 O3 2.713674 1_555
K5 O10 2.714510 1_555
K5 O12 2.734946 1_555
K5 O2 2.756187 1_555
K5 O14 2.785793 1_555
K5 O5 2.802397 1_555
K5 O6 3.046132 1_565
K6 O0 2.713626 1_555
K6 O9 2.714623 1_554
K6 O13 2.734884 1_554
K6 O1 2.756271 1_555
K6 O15 2.785918 1_555
K6 O6 2.802340 1_554
K6 O5 3.046113 1_545
K7 O1 2.713683 1_455
K7 O8 2.714634 1_455
K7 O14 2.734857 1_555
K7 O0 2.756249 1_555
K7 O12 2.785926 1_545
K7 O7 2.802338 1_555
K7 O4 3.046073 1_455
K8 O2 2.713664 1_655
K8 O12 2.714406 1_655
K8 O10 2.734997 1_555
K8 O3 2.756271 1_555
K8 O8 2.785807 1_565
K8 O4 2.802374 1_555
K8 O7 3.046160 1_655
K9 O0 2.713674 1_555
K9 O14 2.714632 1_555
K9 O8 2.734842 1_555
K9 O1 2.756271 1_555
K9 O10 2.785948 1_555
K9 O6 2.802321 1_555
K9 O5 3.046105 1_545
K10 O3 2.713610 1_555
K10 O15 2.714497 1_556
K10 O11 2.734991 1_556
K10 O2 2.756127 1_555
K10 O9 2.785691 1_555
K10 O5 2.802448 1_556
K10 O6 3.046165 1_565
K11 O0 2.609213 1_555
K11 O4 2.696496 1_455
K11 O5 3.047631 1_555
K11 O9 3.072085 1_554
K11 O14 3.072190 1_555
K11 O15 3.107286 1_555
K11 O10 3.107316 1_555
Fe0 O0 1.694401 1_555
Fe0 O5 1.699709 1_545
Fe0 O12 1.729733 1_545
Fe0 O11 1.729738 1_545
Fe1 O1 1.694408 1_555
Fe1 O4 1.699697 1_555
Fe1 O10 1.729676 1_555
Fe1 O15 1.729721 1_555
Fe2 O2 1.694338 1_555
Fe2 O7 1.699655 1_555
Fe2 O14 1.729607 1_555
Fe2 O9 1.729675 1_555
Fe3 O3 1.694280 1_555
Fe3 O6 1.699666 1_565
Fe3 O8 1.729622 1_565
Fe3 O13 1.729648 1_565
