# generated using pymatgen
data_Na5Mg2Sc2P3(SO8)3
_symmetry_space_group_name_H-M   'P 1'
_cell_length_a   8.95621667
_cell_length_b   8.93041621
_cell_length_c   22.54086932
_cell_angle_alpha   90.17789729
_cell_angle_beta   90.09845831
_cell_angle_gamma   120.08110643
_symmetry_Int_Tables_number   1
_chemical_formula_structural   Na5Mg2Sc2P3(SO8)3
_chemical_formula_sum   'Na15 Mg6 Sc6 P9 S9 O72'
_cell_volume   1560.04404270
_cell_formula_units_Z   3
loop_
 _symmetry_equiv_pos_site_id
 _symmetry_equiv_pos_as_xyz
  1  'x, y, z'
loop_
 _atom_site_type_symbol
 _atom_site_label
 _atom_site_symmetry_multiplicity
 _atom_site_fract_x
 _atom_site_fract_y
 _atom_site_fract_z
 _atom_site_occupancy
  Na  Na0  1  0.64039666  0.01359343  0.25299800  1
  Na  Na1  1  0.00165568  0.63263416  0.24352093  1
  Na  Na2  1  0.63099344  0.63066111  0.74450082  1
  Na  Na3  1  0.99776110  0.35384238  0.74646625  1
  Na  Na4  1  0.30598325  0.34504167  0.58590969  1
  Na  Na5  1  0.66853971  0.96574469  0.57862306  1
  Na  Na6  1  0.29713734  0.95810811  0.07988152  1
  Na  Na7  1  0.69148953  0.02728653  0.91191066  1
  Na  Na8  1  0.96313740  0.29097063  0.41378522  1
  Na  Na9  1  0.98393548  0.97279634  0.49608320  1
  Na  Na10  1  0.00779190  0.98925182  0.99642746  1
  Na  Na11  1  0.63508296  0.31232758  0.83013614  1
  Na  Na12  1  0.64017723  0.31843402  0.33128987  1
  Na  Na13  1  0.31631572  0.63865765  0.16272321  1
  Na  Na14  1  0.32709405  0.66921131  0.66343912  1
  Mg  Mg0  1  0.00291571  0.00354969  0.34941940  1
  Mg  Mg1  1  0.02020102  0.00919817  0.85061313  1
  Mg  Mg2  1  0.66246224  0.32895998  0.68335754  1
  Mg  Mg3  1  0.66915610  0.33569094  0.18341453  1
  Mg  Mg4  1  0.31942274  0.66278191  0.01716952  1
  Mg  Mg5  1  0.33725070  0.66949814  0.51656269  1
  Sc  Sc0  1  0.99558124  0.00158755  0.64982394  1
  Sc  Sc1  1  0.00548445  0.00413305  0.14975234  1
  Sc  Sc2  1  0.67160339  0.34531824  0.98258867  1
  Sc  Sc3  1  0.67080798  0.33597160  0.48304639  1
  Sc  Sc4  1  0.33691068  0.67231386  0.31593913  1
  Sc  Sc5  1  0.33818713  0.67900483  0.81609914  1
  P  P0  1  0.29716085  0.00516689  0.25061979  1
  P  P1  1  0.99853589  0.29504836  0.25225376  1
  P  P2  1  0.29910520  0.29616929  0.75009963  1
  P  P3  1  0.70608809  0.00333638  0.75262503  1
  P  P4  1  0.96624446  0.33980720  0.58472510  1
  P  P5  1  0.66578944  0.62735307  0.58524758  1
  P  P6  1  0.96392129  0.62888133  0.08652978  1
  P  P7  1  0.33097341  0.96397914  0.92072949  1
  P  P8  1  0.63363687  0.96294115  0.41840755  1
  S  S0  1  0.70757212  0.70569560  0.25074424  1
  S  S1  1  0.99852087  0.70654271  0.75099540  1
  S  S2  1  0.37235371  0.03777444  0.58352158  1
  S  S3  1  0.66658376  0.03674980  0.08314066  1
  S  S4  1  0.37658607  0.33880475  0.08397015  1
  S  S5  1  0.62748885  0.66880201  0.91690087  1
  S  S6  1  0.03903931  0.36998737  0.91663412  1
  S  S7  1  0.33262634  0.37105617  0.41789058  1
  S  S8  1  0.04146038  0.67103473  0.41711437  1
  O  O0  1  0.20441380  0.02121429  0.30433319  1
  O  O1  1  0.81506687  0.78644563  0.30348851  1
  O  O2  1  0.96834676  0.18615731  0.30831421  1
  O  O3  1  0.20814539  0.18429023  0.80321764  1
  O  O4  1  0.97329441  0.78871965  0.80343063  1
  O  O5  1  0.81530522  0.02469212  0.80809415  1
  O  O6  1  0.78861638  0.97003195  0.69615468  1
  O  O7  1  0.19002365  0.21648280  0.69202716  1
  O  O8  1  0.02583737  0.81079068  0.69697337  1
  O  O9  1  0.78608268  0.81527640  0.19739936  1
  O  O10  1  0.01992670  0.20254310  0.19729476  1
  O  O11  1  0.18557835  0.96911723  0.19299176  1
  O  O12  1  0.88006275  0.35618887  0.64096459  1
  O  O13  1  0.48085473  0.11802065  0.63631418  1
  O  O14  1  0.63743333  0.51916566  0.64136257  1
  O  O15  1  0.87978160  0.52849587  0.14332212  1
  O  O16  1  0.63999044  0.11903193  0.13626639  1
  O  O17  1  0.47802873  0.35804844  0.13727916  1
  O  O18  1  0.45593081  0.30689795  0.03064956  1
  O  O19  1  0.84917817  0.53507600  0.03155905  1
  O  O20  1  0.68755663  0.14134753  0.02900662  1
  O  O21  1  0.45167489  0.14745203  0.53030891  1
  O  O22  1  0.68425797  0.53357350  0.53024603  1
  O  O23  1  0.84974135  0.30535855  0.52870801  1
  O  O24  1  0.53844898  0.68988612  0.96838962  1
  O  O25  1  0.14660161  0.45659067  0.96844108  1
  O  O26  1  0.31533929  0.86165465  0.97727475  1
  O  O27  1  0.54440687  0.85935221  0.47417792  1
  O  O28  1  0.30767182  0.45080669  0.47201763  1
  O  O29  1  0.14648549  0.68837697  0.46914220  1
  O  O30  1  0.11747138  0.64059517  0.36210895  1
  O  O31  1  0.52486089  0.87537442  0.36116760  1
  O  O32  1  0.35294766  0.47875924  0.36515519  1
  O  O33  1  0.11613837  0.46962144  0.86131065  1
  O  O34  1  0.36287003  0.87299540  0.86624548  1
  O  O35  1  0.52593188  0.64311053  0.86113789  1
  O  O36  1  0.02060766  0.82363536  0.41087284  1
  O  O37  1  0.81751646  0.98799161  0.41315834  1
  O  O38  1  0.17474210  0.19810904  0.41186216  1
  O  O39  1  0.01100487  0.19133882  0.91245826  1
  O  O40  1  0.17132743  0.98215285  0.91265708  1
  O  O41  1  0.79908104  0.82811306  0.91174459  1
  O  O42  1  0.98263955  0.17071564  0.58758044  1
  O  O43  1  0.20007295  0.02360224  0.58908114  1
  O  O44  1  0.82843605  0.81225944  0.58811488  1
  O  O45  1  0.98694380  0.81592488  0.08771764  1
  O  O46  1  0.82279242  0.02057690  0.08826200  1
  O  O47  1  0.20185405  0.17705012  0.08763817  1
  O  O48  1  0.69366726  0.16793282  0.74495625  1
  O  O49  1  0.48475791  0.32895105  0.74467505  1
  O  O50  1  0.84291904  0.53116225  0.74510052  1
  O  O51  1  0.68861537  0.53222749  0.24359775  1
  O  O52  1  0.83717947  0.31699822  0.24518281  1
  O  O53  1  0.48175973  0.16020501  0.24356909  1
  O  O54  1  0.64729919  0.51352659  0.92147901  1
  O  O55  1  0.86226886  0.35047874  0.92168860  1
  O  O56  1  0.50355788  0.14456216  0.92340284  1
  O  O57  1  0.65493016  0.14957231  0.42081155  1
  O  O58  1  0.48836187  0.35344789  0.42185408  1
  O  O59  1  0.86751385  0.50866148  0.42119875  1
  O  O60  1  0.35674326  0.49209358  0.07611568  1
  O  O61  1  0.14767854  0.65320450  0.08039095  1
  O  O62  1  0.50962387  0.86262820  0.07741570  1
  O  O63  1  0.35517379  0.86490119  0.57637384  1
  O  O64  1  0.50489068  0.65074350  0.57887957  1
  O  O65  1  0.14980821  0.49541761  0.57705894  1
  O  O66  1  0.31546984  0.83695175  0.25522840  1
  O  O67  1  0.53421590  0.69109773  0.25588575  1
  O  O68  1  0.16047428  0.48029142  0.25626504  1
  O  O69  1  0.30992049  0.47877227  0.75525934  1
  O  O70  1  0.15094505  0.68045480  0.75625602  1
  O  O71  1  0.52520909  0.83443882  0.75563311  1
loop_
_geom_bond_atom_site_label_1
_geom_bond_atom_site_label_2
_geom_bond_distance
_geom_bond_site_symmetry_2
Na0 O53 2.375620 1_555
Na0 O52 2.386571 1_555
Na0 O66 2.521673 1_545
Na0 O67 2.541445 1_545
Na0 O31 2.699320 1_545
Na0 O16 2.798001 1_555
Na0 O2 2.827483 1_555
Na0 O9 2.952643 1_545
Na1 O68 2.428505 1_555
Na1 O52 2.440325 1_455
Na1 O15 2.473528 1_455
Na1 O51 2.478794 1_455
Na1 O66 2.480310 1_555
Na1 O11 2.847105 1_555
Na1 O30 2.853365 1_555
Na1 O1 2.967141 1_455
Na2 O49 2.331884 1_555
Na2 O71 2.449221 1_555
Na2 O50 2.466373 1_555
Na2 O69 2.502421 1_555
Na2 O14 2.538349 1_555
Na2 O35 2.814513 1_555
Na2 O6 2.846507 1_555
Na2 O4 2.965118 1_555
Na3 O48 2.375229 1_555
Na3 O69 2.443407 1_655
Na3 O70 2.534176 1_655
Na3 O50 2.575529 1_555
Na3 O12 2.604002 1_555
Na3 O33 2.787381 1_655
Na3 O7 2.844465 1_655
Na3 O5 2.908334 1_555
Na4 O65 2.383989 1_555
Na4 O64 2.404189 1_555
Na4 O42 2.508543 1_455
Na4 O43 2.533193 1_555
Na4 O7 2.636017 1_555
Na4 O28 2.735668 1_555
Na4 O14 2.853143 1_555
Na4 O21 2.947377 1_555
Na5 O64 2.434886 1_555
Na5 O44 2.438005 1_555
Na5 O42 2.477688 1_565
Na5 O63 2.481121 1_555
Na5 O27 2.568973 1_555
Na5 O6 2.850426 1_555
Na5 O23 2.862075 1_565
Na5 O13 2.941764 1_565
Na6 O61 2.356411 1_555
Na6 O45 2.414229 1_455
Na6 O62 2.445116 1_555
Na6 O26 2.499496 1_554
Na6 O47 2.500568 1_565
Na6 O11 2.759367 1_555
Na6 O18 2.922753 1_565
Na6 O16 2.942987 1_565
Na7 O56 2.400820 1_555
Na7 O41 2.410497 1_545
Na7 O39 2.476407 1_655
Na7 O55 2.507570 1_555
Na7 O5 2.596288 1_555
Na7 O34 2.745162 1_545
Na7 O20 2.832856 1_556
Na7 O24 2.910001 1_545
Na8 O37 2.341867 1_545
Na8 O57 2.397460 1_555
Na8 O38 2.420097 1_655
Na8 O59 2.491647 1_555
Na8 O2 2.561393 1_555
Na8 O23 2.810022 1_555
Na8 O30 2.952610 1_655
Na8 O28 2.973415 1_655
Na9 O37 2.434875 1_555
Na9 O36 2.448734 1_655
Na9 O44 2.515008 1_555
Na9 O38 2.675990 1_665
Na9 O42 2.715845 1_565
Na9 O43 2.728931 1_665
Na10 O40 2.411764 1_555
Na10 O45 2.529140 1_456
Na10 O41 2.546120 1_455
Na10 O39 2.609530 1_565
Na10 O47 2.665487 1_566
Na10 O46 2.753439 1_466
Na11 O49 2.395578 1_555
Na11 O48 2.508182 1_555
Na11 O56 2.512144 1_555
Na11 O54 2.694230 1_555
Na11 O50 2.710538 1_555
Na11 O55 2.793062 1_555
Na12 O53 2.425432 1_555
Na12 O58 2.558439 1_555
Na12 O57 2.565378 1_555
Na12 O52 2.629591 1_555
Na12 O51 2.633768 1_555
Na12 O59 2.763299 1_555
Na13 O61 2.435310 1_555
Na13 O60 2.473261 1_555
Na13 O68 2.538493 1_555
Na13 O62 2.694357 1_555
Na13 O66 2.733931 1_555
Na13 O67 2.738866 1_555
Na14 O65 2.494263 1_555
Na14 O64 2.543157 1_555
Na14 O63 2.559542 1_555
Na14 O69 2.638267 1_555
Na14 O71 2.643473 1_555
Na14 O70 2.654246 1_555
Mg0 O0 2.009086 1_555
Mg0 O2 2.031812 1_455
Mg0 O1 2.091198 1_445
Mg0 O37 2.149150 1_445
Mg0 O38 2.159908 1_555
Mg0 O36 2.189457 1_545
Mg1 O3 1.948792 1_555
Mg1 O40 2.041942 1_545
Mg1 O4 2.083429 1_445
Mg1 O5 2.134147 1_455
Mg1 O39 2.171763 1_555
Mg1 O41 2.291004 1_445
Mg2 O14 2.054887 1_555
Mg2 O13 2.056399 1_555
Mg2 O12 2.074405 1_555
Mg2 O49 2.109699 1_555
Mg2 O48 2.118471 1_555
Mg2 O50 2.204734 1_555
Mg3 O15 2.024703 1_555
Mg3 O17 2.095064 1_555
Mg3 O16 2.102613 1_555
Mg3 O52 2.115904 1_555
Mg3 O53 2.120322 1_555
Mg3 O51 2.151514 1_555
Mg4 O26 2.009767 1_554
Mg4 O25 2.029125 1_554
Mg4 O61 2.068944 1_555
Mg4 O24 2.156089 1_554
Mg4 O60 2.173134 1_555
Mg4 O62 2.204663 1_555
Mg5 O27 2.022979 1_555
Mg5 O28 2.088266 1_555
Mg5 O29 2.091330 1_555
Mg5 O65 2.121180 1_555
Mg5 O64 2.121727 1_555
Mg5 O63 2.142982 1_555
O0 P0 1.515968 1_555
O1 S0 1.468050 1_555
O2 P1 1.536488 1_555
O3 P2 1.513390 1_555
O4 S1 1.465720 1_555
O5 P3 1.537467 1_555
O6 P3 1.573626 1_565
O6 Sc0 2.022574 1_565
O7 P2 1.570745 1_555
O7 Sc0 2.062367 1_455
O8 S1 1.479566 1_455
O8 Sc0 2.139935 1_465
O9 S0 1.489419 1_555
O9 Sc1 2.134366 1_665
O10 P1 1.551438 1_455
O10 Sc1 2.015618 1_555
O11 P0 1.568485 1_565
O11 Sc1 2.037519 1_565
O12 P4 1.529579 1_555
O13 S2 1.471932 1_555
O14 P5 1.536426 1_555
O15 P6 1.530868 1_555
O16 S3 1.483794 1_555
O17 S4 1.461967 1_555
O18 S4 1.494832 1_555
O18 Sc2 2.089875 1_554
O19 P6 1.555436 1_555
O19 Sc2 1.974885 1_554
O20 S3 1.492904 1_555
O20 Sc2 2.169194 1_554
O21 S2 1.488435 1_555
O21 Sc3 2.127721 1_555
O22 P5 1.548850 1_555
O22 Sc3 2.008804 1_555
O23 P4 1.564928 1_555
O23 Sc3 2.034107 1_555
O24 S5 1.473342 1_555
O25 S6 1.460662 1_555
O26 P7 1.535829 1_555
O27 P8 1.531128 1_555
O28 S7 1.483532 1_555
O29 S8 1.460534 1_555
O30 S8 1.503643 1_555
O30 Sc4 2.115818 1_555
O31 P8 1.565585 1_555
O31 Sc4 2.020887 1_555
O32 S7 1.484459 1_555
O32 Sc4 2.121171 1_555
O33 S6 1.489146 1_555
O33 Sc5 2.186561 1_555
O34 P7 1.574093 1_555
O34 Sc5 1.982644 1_555
O35 S5 1.498315 1_555
O35 Sc5 2.120677 1_555
O36 S8 1.472448 1_555
O37 P8 1.551683 1_555
O38 S7 1.487328 1_555
O39 S6 1.488169 1_555
O40 P7 1.528320 1_555
O41 S5 1.486358 1_555
O42 P4 1.590229 1_555
O42 Sc0 2.109802 1_555
O43 S2 1.489134 1_555
O43 Sc0 2.217426 1_455
O44 P5 1.562240 1_555
O44 Sc0 2.115533 1_565
O45 P6 1.577285 1_555
O45 Sc1 2.124311 1_665
O46 S3 1.481082 1_555
O46 Sc1 2.203242 1_655
O47 S4 1.509168 1_555
O47 Sc1 2.176560 1_555
O48 P3 1.538940 1_555
O49 P2 1.542184 1_555
O50 S1 1.490928 1_555
O51 S0 1.479633 1_555
O52 P1 1.560654 1_555
O53 P0 1.543775 1_555
O54 S5 1.487432 1_555
O54 Sc2 2.130941 1_555
O55 S6 1.508006 1_655
O55 Sc2 2.175348 1_555
O56 P7 1.579181 1_545
O56 Sc2 2.128987 1_555
O57 P8 1.580490 1_545
O57 Sc3 2.122883 1_555
O58 S7 1.482467 1_555
O58 Sc3 2.201406 1_555
O59 S8 1.508292 1_655
O59 Sc3 2.173428 1_555
O60 S4 1.477221 1_555
O61 P6 1.554829 1_455
O62 S3 1.489170 1_565
O63 S2 1.480975 1_565
O64 P5 1.562713 1_555
O65 P4 1.541459 1_455
O66 P0 1.594437 1_565
O66 Sc4 2.089486 1_555
O67 S0 1.496279 1_555
O67 Sc4 2.166950 1_555
O68 P1 1.562635 1_455
O68 Sc4 2.123432 1_555
O69 P2 1.588269 1_555
O69 Sc5 2.161497 1_555
O70 S1 1.500132 1_455
O70 Sc5 2.155483 1_555
O71 P3 1.567024 1_565
O71 Sc5 2.068558 1_555
