# generated using pymatgen
data_Na2Mg2(SO4)3
_symmetry_space_group_name_H-M   'P 1'
_cell_length_a   8.80396658
_cell_length_b   8.80396630
_cell_length_c   22.49239854
_cell_angle_alpha   90.25647407
_cell_angle_beta   89.74352594
_cell_angle_gamma   120.59950332
_symmetry_Int_Tables_number   1
_chemical_formula_structural   Na2Mg2(SO4)3
_chemical_formula_sum   'Na12 Mg12 S18 O72'
_cell_volume   1500.58981763
_cell_formula_units_Z   6
loop_
 _symmetry_equiv_pos_site_id
 _symmetry_equiv_pos_as_xyz
  1  'x, y, z'
loop_
 _atom_site_type_symbol
 _atom_site_label
 _atom_site_symmetry_multiplicity
 _atom_site_fract_x
 _atom_site_fract_y
 _atom_site_fract_z
 _atom_site_occupancy
  Na  Na0  1  0.36374717  0.36374717  0.25000000  1
  Na  Na1  1  0.63625283  0.63625283  0.75000000  1
  Na  Na2  1  0.03041417  0.69708017  0.58333300  1
  Na  Na3  1  0.30291983  0.96958583  0.08333300  1
  Na  Na4  1  0.69708017  0.03041417  0.91666700  1
  Na  Na5  1  0.96958583  0.30291983  0.41666700  1
  Na  Na6  1  -0.00000000  0.00000000  0.50000000  1
  Na  Na7  1  -0.00000000  0.00000000  0.00000000  1
  Na  Na8  1  0.66666700  0.33333300  0.83333300  1
  Na  Na9  1  0.66666700  0.33333300  0.33333300  1
  Na  Na10  1  0.33333300  0.66666700  0.16666700  1
  Na  Na11  1  0.33333300  0.66666700  0.66666700  1
  Mg  Mg0  1  0.99758057  0.99130726  0.35041249  1
  Mg  Mg1  1  0.00869274  0.00241943  0.85041249  1
  Mg  Mg2  1  0.00241943  0.00869274  0.64958751  1
  Mg  Mg3  1  0.99130726  0.99758057  0.14958751  1
  Mg  Mg4  1  0.66424757  0.32464026  0.68374549  1
  Mg  Mg5  1  0.67535974  0.33575243  0.18374549  1
  Mg  Mg6  1  0.66908643  0.34202574  0.98292051  1
  Mg  Mg7  1  0.65797426  0.33091357  0.48292051  1
  Mg  Mg8  1  0.33091357  0.65797426  0.01707949  1
  Mg  Mg9  1  0.34202574  0.66908643  0.51707949  1
  Mg  Mg10  1  0.33575243  0.67535974  0.31625451  1
  Mg  Mg11  1  0.32464026  0.66424757  0.81625451  1
  S  S0  1  0.29211926  0.99812746  0.24911172  1
  S  S1  1  0.70727169  0.70727169  0.25000000  1
  S  S2  1  0.99812746  0.29211926  0.25088828  1
  S  S3  1  0.29272831  0.29272831  0.75000000  1
  S  S4  1  0.00187254  0.70788074  0.74911172  1
  S  S5  1  0.70788074  0.00187254  0.75088828  1
  S  S6  1  0.95878626  0.33146046  0.58244472  1
  S  S7  1  0.37393869  0.04060469  0.58333300  1
  S  S8  1  0.66479446  0.62545226  0.58422128  1
  S  S9  1  0.95939531  0.62606131  0.08333300  1
  S  S10  1  0.66853954  0.04121374  0.08244472  1
  S  S11  1  0.37454774  0.33520554  0.08422128  1
  S  S12  1  0.62545226  0.66479446  0.91577872  1
  S  S13  1  0.04060469  0.37393869  0.91666700  1
  S  S14  1  0.33146046  0.95878626  0.91755528  1
  S  S15  1  0.62606131  0.95939531  0.41666700  1
  S  S16  1  0.33520554  0.37454774  0.41577872  1
  S  S17  1  0.04121374  0.66853954  0.41755528  1
  O  O0  1  0.21053848  0.03063504  0.30154352  1
  O  O1  1  0.81387972  0.78720477  0.30328404  1
  O  O2  1  0.97285582  0.18817708  0.30548017  1
  O  O3  1  0.21279523  0.18612028  0.80328404  1
  O  O4  1  0.96936496  0.78946152  0.80154352  1
  O  O5  1  0.81182292  0.02714418  0.80548017  1
  O  O6  1  0.78946152  0.96936496  0.69845648  1
  O  O7  1  0.18612028  0.21279523  0.69671596  1
  O  O8  1  0.02714418  0.81182292  0.69451983  1
  O  O9  1  0.78720477  0.81387972  0.19671596  1
  O  O10  1  0.03063504  0.21053848  0.19845648  1
  O  O11  1  0.18817708  0.97285582  0.19451983  1
  O  O12  1  0.87720548  0.36396804  0.63487652  1
  O  O13  1  0.48054672  0.12053777  0.63661704  1
  O  O14  1  0.63952282  0.52151008  0.63881317  1
  O  O15  1  0.87946223  0.51945328  0.13661704  1
  O  O16  1  0.63603196  0.12279452  0.13487652  1
  O  O17  1  0.47848992  0.36047718  0.13881317  1
  O  O18  1  0.45612852  0.30269796  0.03178948  1
  O  O19  1  0.85278728  0.54612823  0.03004896  1
  O  O20  1  0.69381118  0.14515592  0.02785283  1
  O  O21  1  0.45387177  0.14721272  0.53004896  1
  O  O22  1  0.69730204  0.54387148  0.53178948  1
  O  O23  1  0.85484408  0.30618882  0.52785283  1
  O  O24  1  0.54387148  0.69730204  0.96821052  1
  O  O25  1  0.14721272  0.45387177  0.96995104  1
  O  O26  1  0.30618882  0.85484408  0.97214717  1
  O  O27  1  0.54612823  0.85278728  0.46995104  1
  O  O28  1  0.30269796  0.45612852  0.46821052  1
  O  O29  1  0.14515592  0.69381118  0.47214717  1
  O  O30  1  0.12279452  0.63603196  0.36512348  1
  O  O31  1  0.51945328  0.87946223  0.36338296  1
  O  O32  1  0.36047718  0.47848992  0.36118683  1
  O  O33  1  0.12053777  0.48054672  0.86338296  1
  O  O34  1  0.36396804  0.87720548  0.86512348  1
  O  O35  1  0.52151008  0.63952282  0.86118683  1
  O  O36  1  0.02239220  0.82470323  0.41040711  1
  O  O37  1  0.80738978  0.98439251  0.41053514  1
  O  O38  1  0.17072019  0.19640885  0.40995497  1
  O  O39  1  0.01560749  0.19261022  0.91053514  1
  O  O40  1  0.17529677  0.97760780  0.91040711  1
  O  O41  1  0.80359115  0.82927981  0.90995497  1
  O  O42  1  0.97760780  0.17529677  0.58959289  1
  O  O43  1  0.19261022  0.01560749  0.58946486  1
  O  O44  1  0.82927981  0.80359115  0.59004503  1
  O  O45  1  0.98439251  0.80738978  0.08946486  1
  O  O46  1  0.82470323  0.02239220  0.08959289  1
  O  O47  1  0.19640885  0.17072019  0.09004503  1
  O  O48  1  0.68905920  0.15803623  0.74374011  1
  O  O49  1  0.47405678  0.31772551  0.74386814  1
  O  O50  1  0.83738719  0.52974185  0.74328797  1
  O  O51  1  0.68227449  0.52594322  0.24386814  1
  O  O52  1  0.84196377  0.31094080  0.24374011  1
  O  O53  1  0.47025815  0.16261281  0.24328797  1
  O  O54  1  0.64427480  0.50862977  0.92292589  1
  O  O55  1  0.85927722  0.34894049  0.92279786  1
  O  O56  1  0.49594681  0.13692415  0.92337803  1
  O  O57  1  0.65105951  0.14072278  0.42279786  1
  O  O58  1  0.49137023  0.35572520  0.42292589  1
  O  O59  1  0.86307585  0.50405319  0.42337803  1
  O  O60  1  0.35572520  0.49137023  0.07707411  1
  O  O61  1  0.14072278  0.65105951  0.07720214  1
  O  O62  1  0.50405319  0.86307585  0.07662197  1
  O  O63  1  0.34894049  0.85927722  0.57720214  1
  O  O64  1  0.50862977  0.64427480  0.57707411  1
  O  O65  1  0.13692415  0.49594681  0.57662197  1
  O  O66  1  0.31094080  0.84196377  0.25625989  1
  O  O67  1  0.52594322  0.68227449  0.25613186  1
  O  O68  1  0.16261281  0.47025815  0.25671203  1
  O  O69  1  0.31772551  0.47405678  0.75613186  1
  O  O70  1  0.15803623  0.68905920  0.75625989  1
  O  O71  1  0.52974185  0.83738719  0.75671203  1
loop_
_geom_bond_atom_site_label_1
_geom_bond_atom_site_label_2
_geom_bond_distance
_geom_bond_site_symmetry_2
Na0 O53 2.392615 1_555
Na0 O68 2.392615 1_555
Na0 O67 2.417380 1_555
Na0 O51 2.417380 1_555
Na0 O32 2.698510 1_555
Na0 O17 2.698510 1_555
Na0 O0 2.784496 1_555
Na0 O10 2.784497 1_555
Na1 O71 2.392615 1_555
Na1 O50 2.392615 1_555
Na1 O49 2.417380 1_555
Na1 O69 2.417380 1_555
Na1 O14 2.698510 1_555
Na1 O35 2.698510 1_555
Na1 O6 2.784496 1_555
Na1 O4 2.784497 1_555
Na2 O65 2.392599 1_555
Na2 O44 2.392615 1_455
Na2 O63 2.417371 1_555
Na2 O43 2.417380 1_565
Na2 O29 2.698484 1_555
Na2 O8 2.698510 1_555
Na2 O12 2.784496 1_455
Na2 O22 2.784497 1_455
Na3 O62 2.392599 1_555
Na3 O47 2.392615 1_565
Na3 O61 2.417371 1_555
Na3 O45 2.417380 1_455
Na3 O26 2.698484 1_554
Na3 O11 2.698510 1_555
Na3 O18 2.784496 1_565
Na3 O16 2.784497 1_565
Na4 O56 2.392599 1_555
Na4 O41 2.392615 1_545
Na4 O55 2.417371 1_555
Na4 O39 2.417380 1_655
Na4 O20 2.698484 1_556
Na4 O5 2.698510 1_555
Na4 O24 2.784496 1_545
Na4 O34 2.784497 1_545
Na5 O59 2.392599 1_555
Na5 O38 2.392615 1_655
Na5 O57 2.417371 1_555
Na5 O37 2.417380 1_545
Na5 O23 2.698484 1_555
Na5 O2 2.698510 1_555
Na5 O30 2.784496 1_655
Na5 O28 2.784497 1_655
Na6 O44 2.590218 1_445
Na6 O38 2.590218 1_555
Na6 O43 2.595095 1_555
Na6 O37 2.595095 1_445
Na6 O36 2.599975 1_545
Na6 O42 2.599975 1_455
Na7 O41 2.590218 1_444
Na7 O47 2.590218 1_555
Na7 O39 2.595095 1_554
Na7 O45 2.595095 1_445
Na7 O40 2.599975 1_544
Na7 O46 2.599975 1_455
Na8 O50 2.590218 1_555
Na8 O56 2.590218 1_555
Na8 O55 2.595095 1_555
Na8 O49 2.595095 1_555
Na8 O54 2.599975 1_555
Na8 O48 2.599975 1_555
Na9 O53 2.590218 1_555
Na9 O59 2.590218 1_555
Na9 O51 2.595095 1_555
Na9 O57 2.595095 1_555
Na9 O52 2.599975 1_555
Na9 O58 2.599975 1_555
Na10 O68 2.590218 1_555
Na10 O62 2.590218 1_555
Na10 O67 2.595095 1_555
Na10 O61 2.595095 1_555
Na10 O66 2.599975 1_555
Na10 O60 2.599975 1_555
Na11 O71 2.590218 1_555
Na11 O65 2.590218 1_555
Na11 O63 2.595095 1_555
Na11 O69 2.595095 1_555
Na11 O70 2.599975 1_555
Na11 O64 2.599975 1_555
Mg0 O1 2.001963 1_555
Mg0 O0 2.041398 1_665
Mg0 O36 2.089651 1_655
Mg0 O2 2.115331 1_565
Mg0 O37 2.124346 1_555
Mg0 O38 2.138257 1_665
Mg1 O3 2.001963 1_555
Mg1 O4 2.041398 1_445
Mg1 O40 2.089651 1_545
Mg1 O5 2.115331 1_455
Mg1 O39 2.124346 1_555
Mg1 O41 2.138257 1_445
Mg2 O7 2.001963 1_555
Mg2 O6 2.041398 1_445
Mg2 O42 2.089651 1_455
Mg2 O8 2.115331 1_545
Mg2 O43 2.124346 1_555
Mg2 O44 2.138257 1_445
Mg3 O9 2.001963 1_555
Mg3 O10 2.041398 1_665
Mg3 O46 2.089651 1_565
Mg3 O11 2.115331 1_655
Mg3 O45 2.124346 1_555
Mg3 O47 2.138257 1_665
Mg4 O13 2.001963 1_555
Mg4 O12 2.041398 1_555
Mg4 O48 2.089651 1_555
Mg4 O14 2.115331 1_555
Mg4 O49 2.124346 1_555
Mg4 O50 2.138257 1_555
Mg5 O15 2.001963 1_555
Mg5 O16 2.041398 1_555
Mg5 O52 2.089651 1_555
Mg5 O17 2.115331 1_555
Mg5 O51 2.124346 1_555
Mg5 O53 2.138257 1_555
Mg6 O19 2.001963 1_556
Mg6 O18 2.041398 1_556
Mg6 O54 2.089651 1_555
Mg6 O20 2.115331 1_556
Mg6 O55 2.124346 1_555
Mg6 O56 2.138257 1_555
Mg7 O21 2.001963 1_555
Mg7 O22 2.041398 1_555
Mg7 O58 2.089651 1_555
Mg7 O23 2.115331 1_555
Mg7 O57 2.124346 1_555
Mg7 O59 2.138257 1_555
Mg8 O25 2.001963 1_554
Mg8 O24 2.041398 1_554
Mg8 O60 2.089651 1_555
Mg8 O26 2.115331 1_554
Mg8 O61 2.124346 1_555
Mg8 O62 2.138257 1_555
Mg9 O27 2.001963 1_555
Mg9 O28 2.041398 1_555
Mg9 O64 2.089651 1_555
Mg9 O29 2.115331 1_555
Mg9 O63 2.124346 1_555
Mg9 O65 2.138257 1_555
Mg10 O31 2.001963 1_555
Mg10 O30 2.041398 1_555
Mg10 O66 2.089651 1_555
Mg10 O32 2.115331 1_555
Mg10 O67 2.124346 1_555
Mg10 O68 2.138257 1_555
Mg11 O33 2.001963 1_555
Mg11 O34 2.041398 1_555
Mg11 O70 2.089651 1_555
Mg11 O35 2.115331 1_555
Mg11 O69 2.124346 1_555
Mg11 O71 2.138257 1_555
O0 S0 1.478926 1_545
O1 S1 1.463765 1_555
O2 S2 1.481551 1_555
O3 S3 1.463765 1_555
O4 S4 1.478926 1_655
O5 S5 1.481551 1_555
O6 S5 1.478926 1_565
O7 S3 1.463765 1_555
O8 S4 1.481551 1_555
O9 S1 1.463765 1_555
O10 S2 1.478926 1_455
O11 S0 1.481551 1_555
O12 S6 1.478926 1_555
O13 S7 1.463765 1_555
O14 S8 1.481551 1_555
O15 S9 1.463765 1_555
O16 S10 1.478926 1_555
O17 S11 1.481551 1_555
O18 S11 1.478926 1_555
O19 S9 1.463765 1_555
O20 S10 1.481551 1_555
O21 S7 1.463765 1_555
O22 S8 1.478926 1_555
O23 S6 1.481551 1_555
O24 S12 1.478926 1_555
O25 S13 1.463765 1_555
O26 S14 1.481551 1_555
O27 S15 1.463765 1_555
O28 S16 1.478926 1_555
O29 S17 1.481551 1_555
O30 S17 1.478926 1_555
O31 S15 1.463765 1_555
O32 S16 1.481551 1_555
O33 S13 1.463765 1_555
O34 S14 1.478926 1_555
O35 S12 1.481551 1_555
O36 S17 1.475704 1_555
O37 S15 1.502199 1_555
O38 S16 1.503850 1_555
O39 S13 1.502199 1_555
O40 S14 1.475704 1_555
O41 S12 1.503850 1_555
O42 S6 1.475704 1_555
O43 S7 1.502199 1_555
O44 S8 1.503850 1_555
O45 S9 1.502199 1_555
O46 S10 1.475704 1_555
O47 S11 1.503850 1_555
O48 S5 1.475704 1_555
O49 S3 1.502199 1_555
O50 S4 1.503850 1_655
O51 S1 1.502199 1_555
O52 S2 1.475704 1_555
O53 S0 1.503850 1_545
O54 S12 1.475715 1_555
O55 S13 1.502185 1_655
O56 S14 1.503847 1_545
O57 S15 1.502185 1_545
O58 S16 1.475715 1_555
O59 S17 1.503847 1_655
O60 S11 1.475715 1_555
O61 S9 1.502185 1_455
O62 S10 1.503847 1_565
O63 S7 1.502185 1_565
O64 S8 1.475715 1_555
O65 S6 1.503847 1_455
O66 S0 1.475704 1_555
O67 S1 1.502199 1_555
O68 S2 1.503850 1_455
O69 S3 1.502199 1_555
O70 S4 1.475704 1_555
O71 S5 1.503850 1_565
