# generated using pymatgen
data_La(BH4)3
_symmetry_space_group_name_H-M   'P 1'
_cell_length_a   11.47611500
_cell_length_b   11.47611500
_cell_length_c   11.47611500
_cell_angle_alpha   90.00000000
_cell_angle_beta   90.00000000
_cell_angle_gamma   90.00000000
_symmetry_Int_Tables_number   1
_chemical_formula_structural   La(BH4)3
_chemical_formula_sum   'La8 B24 H96'
_cell_volume   1511.41829464
_cell_formula_units_Z   8
loop_
 _symmetry_equiv_pos_site_id
 _symmetry_equiv_pos_as_xyz
  1  'x, y, z'
loop_
 _atom_site_type_symbol
 _atom_site_label
 _atom_site_symmetry_multiplicity
 _atom_site_fract_x
 _atom_site_fract_y
 _atom_site_fract_z
 _atom_site_occupancy
  La  La0  1  0.78105900  0.71894100  0.28105900  1
  La  La1  1  0.71894100  0.21894100  0.28105900  1
  La  La2  1  0.28105900  0.71894100  0.21894100  1
  La  La3  1  0.21894100  0.21894100  0.21894100  1
  La  La4  1  0.21894100  0.28105900  0.71894100  1
  La  La5  1  0.28105900  0.78105900  0.71894100  1
  La  La6  1  0.78105900  0.78105900  0.78105900  1
  La  La7  1  0.71894100  0.28105900  0.78105900  1
  B  B0  1  0.25382000  0.03181000  0.69076100  1
  B  B1  1  0.24618000  0.96819000  0.19076100  1
  B  B2  1  0.25382000  0.46819000  0.19076100  1
  B  B3  1  0.46819000  0.30923900  0.75382000  1
  B  B4  1  0.80923900  0.74618000  0.53181000  1
  B  B5  1  0.03181000  0.80923900  0.75382000  1
  B  B6  1  0.74618000  0.96819000  0.30923900  1
  B  B7  1  0.03181000  0.69076100  0.25382000  1
  B  B8  1  0.75382000  0.46819000  0.30923900  1
  B  B9  1  0.96819000  0.30923900  0.74618000  1
  B  B10  1  0.24618000  0.53181000  0.69076100  1
  B  B11  1  0.53181000  0.80923900  0.74618000  1
  B  B12  1  0.69076100  0.24618000  0.53181000  1
  B  B13  1  0.96819000  0.19076100  0.24618000  1
  B  B14  1  0.19076100  0.25382000  0.46819000  1
  B  B15  1  0.74618000  0.53181000  0.80923900  1
  B  B16  1  0.19076100  0.24618000  0.96819000  1
  B  B17  1  0.53181000  0.69076100  0.24618000  1
  B  B18  1  0.30923900  0.74618000  0.96819000  1
  B  B19  1  0.30923900  0.75382000  0.46819000  1
  B  B20  1  0.69076100  0.25382000  0.03181000  1
  B  B21  1  0.46819000  0.19076100  0.25382000  1
  B  B22  1  0.80923900  0.75382000  0.03181000  1
  B  B23  1  0.75382000  0.03181000  0.80923900  1
  H  H0  1  0.27177100  0.53434000  0.10823400  1
  H  H1  1  0.33504500  0.10176000  0.69429000  1
  H  H2  1  0.92097600  0.32560000  0.84113900  1
  H  H3  1  0.32560000  0.84113900  0.92097600  1
  H  H4  1  0.82560000  0.65886100  0.07902400  1
  H  H5  1  0.74972800  0.51893300  0.21469200  1
  H  H6  1  0.07902400  0.67440000  0.15886100  1
  H  H7  1  0.72822900  0.46566000  0.89176600  1
  H  H8  1  0.72822900  0.03434000  0.39176600  1
  H  H9  1  0.16495500  0.89824000  0.19429000  1
  H  H10  1  0.92097600  0.17440000  0.34113900  1
  H  H11  1  0.69429000  0.16495500  0.60176000  1
  H  H12  1  0.67440000  0.15886100  0.07902400  1
  H  H13  1  0.07902400  0.82560000  0.65886100  1
  H  H14  1  0.42097600  0.32560000  0.65886100  1
  H  H15  1  0.24972800  0.51893300  0.28530800  1
  H  H16  1  0.28530800  0.25027100  0.01893300  1
  H  H17  1  0.10176000  0.69429000  0.33504500  1
  H  H18  1  0.34113900  0.57902400  0.67440000  1
  H  H19  1  0.78530800  0.24972800  0.98106700  1
  H  H20  1  0.28530800  0.24972800  0.51893300  1
  H  H21  1  0.89176600  0.72822900  0.46566000  1
  H  H22  1  0.39176600  0.72822900  0.03434000  1
  H  H23  1  0.80571000  0.83504500  0.10176000  1
  H  H24  1  0.60176000  0.80571000  0.66495500  1
  H  H25  1  0.75027200  0.01893300  0.21469200  1
  H  H26  1  0.48106700  0.78530800  0.25027100  1
  H  H27  1  0.51893300  0.28530800  0.24972800  1
  H  H28  1  0.15886100  0.07902400  0.67440000  1
  H  H29  1  0.16495500  0.60176000  0.69429000  1
  H  H30  1  0.24972800  0.98106700  0.78530800  1
  H  H31  1  0.15886100  0.42097600  0.17440000  1
  H  H32  1  0.53434000  0.39176600  0.77177100  1
  H  H33  1  0.19429000  0.33504500  0.39824000  1
  H  H34  1  0.25027100  0.48106700  0.78530800  1
  H  H35  1  0.69429000  0.33504500  0.10176000  1
  H  H36  1  0.65886100  0.07902400  0.82560000  1
  H  H37  1  0.83504500  0.10176000  0.80571000  1
  H  H38  1  0.96566000  0.89176600  0.77177100  1
  H  H39  1  0.32560000  0.65886100  0.42097600  1
  H  H40  1  0.77177100  0.53434000  0.39176600  1
  H  H41  1  0.75027200  0.48106700  0.71469200  1
  H  H42  1  0.51893300  0.21469200  0.74972800  1
  H  H43  1  0.57902400  0.67440000  0.34113900  1
  H  H44  1  0.66495500  0.89824000  0.30571000  1
  H  H45  1  0.25027100  0.01893300  0.28530800  1
  H  H46  1  0.53434000  0.10823400  0.27177100  1
  H  H47  1  0.46566000  0.89176600  0.72822900  1
  H  H48  1  0.60823400  0.27177100  0.96566000  1
  H  H49  1  0.71469200  0.74972800  0.98106700  1
  H  H50  1  0.89824000  0.19429000  0.16495500  1
  H  H51  1  0.22822900  0.46566000  0.60823400  1
  H  H52  1  0.66495500  0.60176000  0.80571000  1
  H  H53  1  0.03434000  0.10823400  0.22822900  1
  H  H54  1  0.10176000  0.80571000  0.83504500  1
  H  H55  1  0.84113900  0.92097600  0.32560000  1
  H  H56  1  0.60823400  0.22822900  0.46566000  1
  H  H57  1  0.10823400  0.22822900  0.03434000  1
  H  H58  1  0.77177100  0.96566000  0.89176600  1
  H  H59  1  0.71469200  0.75027200  0.48106700  1
  H  H60  1  0.84113900  0.57902400  0.82560000  1
  H  H61  1  0.39824000  0.19429000  0.33504500  1
  H  H62  1  0.80571000  0.66495500  0.60176000  1
  H  H63  1  0.42097600  0.17440000  0.15886100  1
  H  H64  1  0.96566000  0.60823400  0.27177100  1
  H  H65  1  0.01893300  0.28530800  0.25027100  1
  H  H66  1  0.01893300  0.21469200  0.75027200  1
  H  H67  1  0.19429000  0.16495500  0.89824000  1
  H  H68  1  0.39176600  0.77177100  0.53434000  1
  H  H69  1  0.98106700  0.78530800  0.24972800  1
  H  H70  1  0.74972800  0.98106700  0.71469200  1
  H  H71  1  0.65886100  0.42097600  0.32560000  1
  H  H72  1  0.57902400  0.82560000  0.84113900  1
  H  H73  1  0.30571000  0.66495500  0.89824000  1
  H  H74  1  0.10823400  0.27177100  0.53434000  1
  H  H75  1  0.30571000  0.83504500  0.39824000  1
  H  H76  1  0.82560000  0.84113900  0.57902400  1
  H  H77  1  0.78530800  0.25027100  0.48106700  1
  H  H78  1  0.46566000  0.60823400  0.22822900  1
  H  H79  1  0.21469200  0.75027200  0.01893300  1
  H  H80  1  0.98106700  0.71469200  0.74972800  1
  H  H81  1  0.60176000  0.69429000  0.16495500  1
  H  H82  1  0.22822900  0.03434000  0.10823400  1
  H  H83  1  0.21469200  0.74972800  0.51893300  1
  H  H84  1  0.34113900  0.92097600  0.17440000  1
  H  H85  1  0.39824000  0.30571000  0.83504500  1
  H  H86  1  0.89824000  0.30571000  0.66495500  1
  H  H87  1  0.48106700  0.71469200  0.75027200  1
  H  H88  1  0.27177100  0.96566000  0.60823400  1
  H  H89  1  0.83504500  0.39824000  0.30571000  1
  H  H90  1  0.17440000  0.34113900  0.92097600  1
  H  H91  1  0.67440000  0.34113900  0.57902400  1
  H  H92  1  0.89176600  0.77177100  0.96566000  1
  H  H93  1  0.17440000  0.15886100  0.42097600  1
  H  H94  1  0.33504500  0.39824000  0.19429000  1
  H  H95  1  0.03434000  0.39176600  0.72822900  1
loop_
_geom_bond_atom_site_label_1
_geom_bond_atom_site_label_2
_geom_bond_distance
_geom_bond_site_symmetry_2
B0 H1 1.230834 1_555
B0 H88 1.231145 1_545
B0 H28 1.231428 1_555
B0 H30 1.232320 1_545
B1 H9 1.230834 1_555
B1 H82 1.231145 1_565
B1 H84 1.231428 1_555
B1 H45 1.232319 1_565
B2 H94 1.230834 1_555
B2 H0 1.231145 1_555
B2 H31 1.231428 1_555
B2 H15 1.232320 1_555
B3 H85 1.230834 1_555
B3 H32 1.231145 1_555
B3 H14 1.231428 1_555
B3 H42 1.232320 1_555
B4 H62 1.230834 1_555
B4 H21 1.231145 1_555
B4 H76 1.231428 1_555
B4 H59 1.232320 1_555
B5 H54 1.230834 1_555
B5 H38 1.231145 1_455
B5 H13 1.231428 1_555
B5 H80 1.232320 1_455
B6 H44 1.230834 1_555
B6 H8 1.231145 1_565
B6 H55 1.231428 1_555
B6 H25 1.232320 1_565
B7 H17 1.230834 1_555
B7 H64 1.231145 1_455
B7 H6 1.231428 1_555
B7 H69 1.232320 1_455
B8 H89 1.230834 1_555
B8 H40 1.231145 1_555
B8 H71 1.231428 1_555
B8 H5 1.232320 1_555
B9 H86 1.230834 1_555
B9 H95 1.231145 1_655
B9 H2 1.231428 1_555
B9 H66 1.232320 1_655
B10 H29 1.230834 1_555
B10 H51 1.231145 1_555
B10 H18 1.231428 1_555
B10 H34 1.232319 1_555
B11 H24 1.230834 1_555
B11 H47 1.231145 1_555
B11 H72 1.231428 1_555
B11 H87 1.232320 1_555
B12 H11 1.230834 1_555
B12 H56 1.231145 1_555
B12 H91 1.231428 1_555
B12 H77 1.232319 1_555
B13 H50 1.230834 1_555
B13 H53 1.231145 1_655
B13 H10 1.231428 1_555
B13 H65 1.232319 1_655
B14 H33 1.230834 1_555
B14 H74 1.231145 1_555
B14 H93 1.231428 1_555
B14 H20 1.232320 1_555
B15 H52 1.230834 1_555
B15 H7 1.231145 1_555
B15 H60 1.231428 1_555
B15 H41 1.232320 1_555
B16 H67 1.230834 1_555
B16 H57 1.231145 1_556
B16 H90 1.231428 1_555
B16 H16 1.232319 1_556
B17 H81 1.230834 1_555
B17 H78 1.231145 1_555
B17 H43 1.231428 1_555
B17 H26 1.232319 1_555
B18 H73 1.230834 1_555
B18 H22 1.231145 1_556
B18 H3 1.231428 1_555
B18 H79 1.232320 1_556
B19 H75 1.230834 1_555
B19 H68 1.231145 1_555
B19 H39 1.231428 1_555
B19 H83 1.232320 1_555
B20 H35 1.230834 1_555
B20 H48 1.231145 1_554
B20 H12 1.231428 1_555
B20 H19 1.232320 1_554
B21 H61 1.230834 1_555
B21 H46 1.231145 1_555
B21 H63 1.231428 1_555
B21 H27 1.232320 1_555
B22 H23 1.230834 1_555
B22 H92 1.231145 1_554
B22 H4 1.231428 1_555
B22 H49 1.232320 1_554
B23 H37 1.230834 1_555
B23 H58 1.231145 1_545
B23 H36 1.231428 1_555
B23 H70 1.232320 1_545
H0 La2 2.472559 1_555
H1 La4 2.467657 1_555
H2 La7 2.472341 1_555
H3 La5 2.472341 1_555
H4 La0 2.472341 1_555
H5 La0 2.444962 1_555
H6 La2 2.472341 1_555
H7 La7 2.472559 1_555
H8 La1 2.472559 1_555
H9 La2 2.467657 1_555
H10 La1 2.472341 1_555
H11 La7 2.467657 1_555
H12 La1 2.472341 1_555
H13 La5 2.472341 1_555
H14 La4 2.472341 1_555
H15 La2 2.444962 1_555
H16 La3 2.444961 1_555
H17 La2 2.467657 1_555
H18 La5 2.472341 1_555
H19 La7 2.444962 1_555
H20 La4 2.444962 1_555
H21 La0 2.472559 1_555
H22 La2 2.472559 1_555
H23 La0 2.467657 1_555
H24 La6 2.467657 1_555
H25 La1 2.444962 1_555
H26 La2 2.444961 1_555
H27 La1 2.444962 1_555
H28 La4 2.472341 1_555
H29 La5 2.467657 1_555
H30 La5 2.444962 1_555
H31 La3 2.472341 1_555
H32 La7 2.472559 1_555
H33 La3 2.467657 1_555
H34 La4 2.444961 1_555
H35 La1 2.467657 1_555
H36 La7 2.472341 1_555
H37 La7 2.467657 1_555
H38 La6 2.472559 1_555
H39 La2 2.472341 1_555
H40 La0 2.472559 1_555
H41 La7 2.444962 1_555
H42 La7 2.444962 1_555
H43 La0 2.472341 1_555
H44 La0 2.467657 1_555
H45 La3 2.444961 1_555
H46 La1 2.472559 1_555
H47 La5 2.472559 1_555
H48 La7 2.472559 1_555
H49 La6 2.444962 1_555
H50 La1 2.467657 1_555
H51 La4 2.472559 1_555
H52 La6 2.467657 1_555
H53 La3 2.472559 1_555
H54 La5 2.467657 1_555
H55 La0 2.472341 1_555
H56 La1 2.472559 1_555
H57 La3 2.472559 1_555
H58 La6 2.472559 1_555
H59 La0 2.444962 1_555
H60 La6 2.472341 1_555
H61 La3 2.467657 1_555
H62 La6 2.467657 1_555
H63 La3 2.472341 1_555
H64 La0 2.472559 1_555
H65 La3 2.444961 1_555
H66 La4 2.444962 1_555
H67 La4 2.467657 1_555
H68 La5 2.472559 1_555
H69 La0 2.444962 1_555
H70 La6 2.444962 1_555
H71 La1 2.472341 1_555
H72 La6 2.472341 1_555
H73 La5 2.467657 1_555
H74 La4 2.472559 1_555
H75 La2 2.467657 1_555
H76 La6 2.472341 1_555
H77 La1 2.444961 1_555
H78 La2 2.472559 1_555
H79 La2 2.444962 1_555
H80 La6 2.444962 1_555
H81 La0 2.467657 1_555
H82 La3 2.472559 1_555
H83 La5 2.444962 1_555
H84 La2 2.472341 1_555
H85 La4 2.467657 1_555
H86 La7 2.467657 1_555
H87 La5 2.444962 1_555
H88 La5 2.472559 1_555
H89 La1 2.467657 1_555
H90 La4 2.472341 1_555
H91 La7 2.472341 1_555
H92 La6 2.472559 1_555
H93 La3 2.472341 1_555
H94 La3 2.467657 1_555
H95 La4 2.472559 1_555
