# generated using pymatgen
data_WF4
_symmetry_space_group_name_H-M   'P 1'
_cell_length_a   5.01264501
_cell_length_b   5.81071983
_cell_length_c   5.31650389
_cell_angle_alpha   121.55166327
_cell_angle_beta   90.24355528
_cell_angle_gamma   90.01431303
_symmetry_Int_Tables_number   1
_chemical_formula_structural   WF4
_chemical_formula_sum   'W2 F8'
_cell_volume   131.96016149
_cell_formula_units_Z   2
loop_
 _symmetry_equiv_pos_site_id
 _symmetry_equiv_pos_as_xyz
  1  'x, y, z'
loop_
 _atom_site_type_symbol
 _atom_site_label
 _atom_site_symmetry_multiplicity
 _atom_site_fract_x
 _atom_site_fract_y
 _atom_site_fract_z
 _atom_site_occupancy
  W  W0  1  0.00162186  0.50046025  0.00125161  1
  W  W1  1  0.50162839  0.00051691  0.00141394  1
  F  F0  1  0.18590077  0.13961157  0.88941893  1
  F  F1  1  0.16979849  0.61219908  0.36846697  1
  F  F2  1  0.81728336  0.86134959  0.11308527  1
  F  F3  1  0.68623017  0.36177479  0.11255014  1
  F  F4  1  0.83331648  0.38896800  0.63409638  1
  F  F5  1  0.66834109  0.88973936  0.63517113  1
  F  F6  1  0.31701836  0.63913687  0.88999795  1
  F  F7  1  0.33421302  0.11141359  0.36707667  1
loop_
_geom_bond_atom_site_label_1
_geom_bond_atom_site_label_2
_geom_bond_distance
_geom_bond_site_symmetry_2
F0 W1 2.002190 1_556
F0 W0 2.074670 1_556
F1 W0 1.898122 1_555
F2 W1 2.001270 1_565
F2 W0 2.075006 1_655
F3 W0 2.001322 1_655
F3 W1 2.075629 1_555
F4 W0 1.898417 1_656
F5 W1 1.899060 1_566
F6 W0 2.001190 1_556
F6 W1 2.075893 1_566
F7 W1 1.897874 1_555
