# generated using pymatgen
data_MgSc4Ti2O10
_symmetry_space_group_name_H-M   'P 1'
_cell_length_a   3.96252400
_cell_length_b   5.51576781
_cell_length_c   10.68522686
_cell_angle_alpha   91.51369273
_cell_angle_beta   90.00072396
_cell_angle_gamma   111.04621084
_symmetry_Int_Tables_number   1
_chemical_formula_structural   MgSc4Ti2O10
_chemical_formula_sum   'Mg1 Sc4 Ti2 O10'
_cell_volume   217.87362477
_cell_formula_units_Z   1
loop_
 _symmetry_equiv_pos_site_id
 _symmetry_equiv_pos_as_xyz
  1  'x, y, z'
loop_
 _atom_site_type_symbol
 _atom_site_label
 _atom_site_symmetry_multiplicity
 _atom_site_fract_x
 _atom_site_fract_y
 _atom_site_fract_z
 _atom_site_occupancy
  Mg  Mg0  1  0.95527200  0.91045200  0.61403100  1
  Sc  Sc0  1  0.38195800  0.76391600  0.40863300  1
  Sc  Sc1  1  0.29706500  0.59408400  0.75481500  1
  Sc  Sc2  1  0.69203700  0.38406000  0.23467500  1
  Sc  Sc3  1  0.62516000  0.25046500  0.94902500  1
  Ti  Ti0  1  0.35307400  0.70631000  0.04956900  1
  Ti  Ti1  1  0.65535100  0.31058300  0.54913800  1
  O  O0  1  0.44062600  0.88169100  0.88621700  1
  O  O1  1  0.15324200  0.30621900  0.58694500  1
  O  O2  1  0.26989900  0.53977900  0.24491800  1
  O  O3  1  0.18088800  0.36196700  0.91008600  1
  O  O4  1  0.45549100  0.91081600  0.60803000  1
  O  O5  1  0.78385300  0.56767500  0.71191900  1
  O  O6  1  0.80280300  0.60571200  0.06548000  1
  O  O7  1  0.57007200  0.14019700  0.38230000  1
  O  O8  1  0.53708400  0.07426600  0.11545600  1
  O  O9  1  0.83279100  0.66561700  0.44626600  1
loop_
_geom_bond_atom_site_label_1
_geom_bond_atom_site_label_2
_geom_bond_distance
_geom_bond_site_symmetry_2
Mg0 O4 1.982154 1_555
Mg0 O4 1.982449 1_655
Mg0 O1 2.065886 1_665
Mg0 O5 2.076576 1_555
Mg0 O9 2.161954 1_555
O0 Ti0 1.987694 1_556
O0 Sc3 1.995524 1_565
O0 Sc1 2.011396 1_555
O1 Ti1 2.022003 1_555
O1 Ti1 2.022556 1_455
O1 Sc1 2.294107 1_555
O2 Sc0 2.068134 1_555
O2 Sc2 2.138853 1_555
O2 Sc2 2.138994 1_455
O2 Ti0 2.278870 1_555
O3 Sc1 2.071871 1_555
O3 Sc3 2.107452 1_455
O3 Sc3 2.107523 1_555
O3 Ti0 2.283396 1_556
O4 Ti1 2.168956 1_565
O4 Sc0 2.240559 1_555
O4 Sc1 2.294172 1_555
O5 Sc1 2.037229 1_555
O5 Sc1 2.037298 1_655
O5 Ti1 2.155590 1_555
O6 Ti0 2.056018 1_655
O6 Ti0 2.056143 1_555
O6 Sc2 2.164991 1_555
O6 Sc3 2.182631 1_554
O7 Ti1 1.964390 1_555
O7 Sc0 1.965222 1_545
O7 Sc2 2.043590 1_555
O8 Ti0 2.002004 1_545
O8 Sc2 2.012715 1_555
O8 Sc3 2.019056 1_554
O9 Sc0 2.086676 1_555
O9 Sc0 2.086898 1_655
O9 Ti1 2.159239 1_555
O9 Sc2 2.650830 1_555
