# generated using pymatgen
data_LiCoPCO7
_symmetry_space_group_name_H-M   'P 1'
_cell_length_a   6.07114300
_cell_length_b   5.03185900
_cell_length_c   8.59965663
_cell_angle_alpha   85.79553973
_cell_angle_beta   90.00000000
_cell_angle_gamma   90.00000000
_symmetry_Int_Tables_number   1
_chemical_formula_structural   LiCoPCO7
_chemical_formula_sum   'Li2 Co2 P2 C2 O14'
_cell_volume   262.00505814
_cell_formula_units_Z   2
loop_
 _symmetry_equiv_pos_site_id
 _symmetry_equiv_pos_as_xyz
  1  'x, y, z'
loop_
 _atom_site_type_symbol
 _atom_site_label
 _atom_site_symmetry_multiplicity
 _atom_site_fract_x
 _atom_site_fract_y
 _atom_site_fract_z
 _atom_site_occupancy
  Li  Li0  1  0.99001400  0.21977900  0.22036300  1
  Li  Li1  1  0.49001400  0.78022100  0.77963700  1
  Co  Co0  1  0.74975900  0.79075800  0.33427400  1
  Co  Co1  1  0.24975900  0.20924200  0.66572600  1
  P  P0  1  0.25480000  0.72181600  0.42966400  1
  P  P1  1  0.75480000  0.27818400  0.57033600  1
  C  C0  1  0.74894200  0.72542000  0.06634900  1
  C  C1  1  0.24894200  0.27458000  0.93365100  1
  O  O0  1  0.56044400  0.18040000  0.67840500  1
  O  O1  1  0.75321600  0.95978800  0.12562000  1
  O  O2  1  0.26687400  0.46402100  0.81758500  1
  O  O3  1  0.76687400  0.53597900  0.18241500  1
  O  O4  1  0.44929600  0.79195500  0.31543900  1
  O  O5  1  0.76533600  0.13745900  0.41760400  1
  O  O6  1  0.94929600  0.20804500  0.68456100  1
  O  O7  1  0.26533600  0.86254100  0.58239600  1
  O  O8  1  0.06044400  0.81960000  0.32159500  1
  O  O9  1  0.23961200  0.41636700  0.46827300  1
  O  O10  1  0.72490800  0.68340800  0.92824300  1
  O  O11  1  0.22490800  0.31659200  0.07175700  1
  O  O12  1  0.73961200  0.58363300  0.53172700  1
  O  O13  1  0.25321600  0.04021200  0.87438000  1
loop_
_geom_bond_atom_site_label_1
_geom_bond_atom_site_label_2
_geom_bond_distance
_geom_bond_site_symmetry_2
Li0 O11 1.952665 1_655
Li0 O3 2.096934 1_555
Li0 O1 2.144389 1_545
Li0 O8 2.176793 1_645
Li0 O5 2.192329 1_555
Li1 O10 1.952665 1_555
Li1 O2 2.096934 1_555
Li1 O13 2.144389 1_565
Li1 O0 2.176793 1_565
Li1 O7 2.192329 1_555
Co0 O4 1.831302 1_555
Co0 O8 1.894315 1_655
Co0 O3 1.898766 1_555
Co0 O12 1.927129 1_555
Co0 O1 1.928670 1_555
Co0 O5 1.936296 1_565
Co1 O6 1.831302 1_455
Co1 O0 1.894315 1_555
Co1 O2 1.898766 1_555
Co1 O9 1.927129 1_555
Co1 O13 1.928670 1_555
Co1 O7 1.936296 1_545
C0 O10 1.230179 1_554
C0 O1 1.318857 1_555
C0 O3 1.333141 1_555
C1 O11 1.230179 1_556
C1 O13 1.318857 1_555
C1 O2 1.333141 1_555
O0 P1 1.559187 1_555
O4 P0 1.559791 1_555
O5 P1 1.538511 1_555
O6 P1 1.559791 1_555
O7 P0 1.538511 1_555
O8 P0 1.559187 1_555
O9 P0 1.551196 1_555
O12 P1 1.551196 1_555
