# generated using pymatgen
data_NaTaGe3(PO4)6
_symmetry_space_group_name_H-M   'P 1'
_cell_length_a   8.45388644
_cell_length_b   8.45388619
_cell_length_c   21.96157939
_cell_angle_alpha   90.00000000
_cell_angle_beta   90.00000000
_cell_angle_gamma   120.00000098
_symmetry_Int_Tables_number   1
_chemical_formula_structural   NaTaGe3(PO4)6
_chemical_formula_sum   'Na3 Ta3 Ge9 P18 O72'
_cell_volume   1359.27398070
_cell_formula_units_Z   3
loop_
 _symmetry_equiv_pos_site_id
 _symmetry_equiv_pos_as_xyz
  1  'x, y, z'
loop_
 _atom_site_type_symbol
 _atom_site_label
 _atom_site_symmetry_multiplicity
 _atom_site_fract_x
 _atom_site_fract_y
 _atom_site_fract_z
 _atom_site_occupancy
  Na  Na0  1  -0.00000000  0.00000000  0.99656709  1
  Na  Na1  1  0.66666700  0.33333300  0.83430501  1
  Na  Na2  1  0.66666700  0.33333300  0.33260568  1
  Ta  Ta0  1  -0.00000000  0.00000000  0.64396382  1
  Ta  Ta1  1  -0.00000000  0.00000000  0.14486978  1
  Ta  Ta2  1  0.33333300  0.66666700  0.52255554  1
  Ge  Ge0  1  -0.00000000  0.00000000  0.35446406  1
  Ge  Ge1  1  -0.00000000  0.00000000  0.85410378  1
  Ge  Ge2  1  0.66666700  0.33333300  0.68992343  1
  Ge  Ge3  1  0.66666700  0.33333300  0.18656127  1
  Ge  Ge4  1  0.66666700  0.33333300  0.97776446  1
  Ge  Ge5  1  0.66666700  0.33333300  0.47666720  1
  Ge  Ge6  1  0.33333300  0.66666700  0.02095600  1
  Ge  Ge7  1  0.33333300  0.66666700  0.31172610  1
  Ge  Ge8  1  0.33333300  0.66666700  0.81292174  1
  P  P0  1  0.29284858  0.99982858  0.25259361  1
  P  P1  1  0.70698000  0.70715142  0.25259361  1
  P  P2  1  0.00017142  0.29302000  0.25259361  1
  P  P3  1  0.29154695  0.29271305  0.75298606  1
  P  P4  1  0.00116610  0.70845305  0.75298606  1
  P  P5  1  0.70728695  0.99883390  0.75298606  1
  P  P6  1  0.93954278  0.33347758  0.58331967  1
  P  P7  1  0.39393580  0.06045722  0.58331967  1
  P  P8  1  0.66652242  0.60606420  0.58331967  1
  P  P9  1  0.95278452  0.60901226  0.08139687  1
  P  P10  1  0.65622874  0.04721548  0.08139687  1
  P  P11  1  0.39098774  0.34377126  0.08139687  1
  P  P12  1  0.61915324  0.66706463  0.91660929  1
  P  P13  1  0.04791039  0.38084676  0.91660929  1
  P  P14  1  0.33293537  0.95208961  0.91660929  1
  P  P15  1  0.62589646  0.95816797  0.41378055  1
  P  P16  1  0.33227051  0.37410354  0.41378055  1
  P  P17  1  0.04183203  0.66772949  0.41378055  1
  O  O0  1  0.20785980  0.04214532  0.30802062  1
  O  O1  1  0.83428552  0.79214020  0.30802062  1
  O  O2  1  0.95785468  0.16571448  0.30802062  1
  O  O3  1  0.20726113  0.16566221  0.80869390  1
  O  O4  1  0.95840108  0.79273887  0.80869390  1
  O  O5  1  0.83433779  0.04159892  0.80869390  1
  O  O6  1  0.79494209  0.96800213  0.69534168  1
  O  O7  1  0.17306004  0.20505791  0.69534168  1
  O  O8  1  0.03199787  0.82693996  0.69534168  1
  O  O9  1  0.79521241  0.82691889  0.19499814  1
  O  O10  1  0.03170648  0.20478759  0.19499814  1
  O  O11  1  0.17308111  0.96829352  0.19499814  1
  O  O12  1  0.86531160  0.37129918  0.64164233  1
  O  O13  1  0.50598858  0.13468840  0.64164233  1
  O  O14  1  0.62870082  0.49401142  0.64164233  1
  O  O15  1  0.87110503  0.49719748  0.14008950  1
  O  O16  1  0.62609345  0.12889497  0.14008950  1
  O  O17  1  0.50280252  0.37390655  0.14008950  1
  O  O18  1  0.46541886  0.29604357  0.02449318  1
  O  O19  1  0.83062571  0.53458114  0.02449318  1
  O  O20  1  0.70395643  0.16937429  0.02449318  1
  O  O21  1  0.46804490  0.17272166  0.52513108  1
  O  O22  1  0.70467775  0.53195510  0.52513108  1
  O  O23  1  0.82727834  0.29532225  0.52513108  1
  O  O24  1  0.53962744  0.70571026  0.97417388  1
  O  O25  1  0.16608182  0.46037256  0.97417388  1
  O  O26  1  0.29428974  0.83391818  0.97417388  1
  O  O27  1  0.53855476  0.84004510  0.47160738  1
  O  O28  1  0.30148934  0.46144524  0.47160738  1
  O  O29  1  0.15995490  0.69851066  0.47160738  1
  O  O30  1  0.12631995  0.62512047  0.35850419  1
  O  O31  1  0.49879951  0.87368005  0.35850419  1
  O  O32  1  0.37487953  0.50120049  0.35850419  1
  O  O33  1  0.12798853  0.49959276  0.85920407  1
  O  O34  1  0.37160323  0.87201147  0.85920407  1
  O  O35  1  0.50040724  0.62839677  0.85920407  1
  O  O36  1  0.02647136  0.83894905  0.40694153  1
  O  O37  1  0.81247769  0.97352864  0.40694153  1
  O  O38  1  0.16105095  0.18752231  0.40694153  1
  O  O39  1  0.02803229  0.18819772  0.90976096  1
  O  O40  1  0.16016543  0.97196771  0.90976096  1
  O  O41  1  0.81180228  0.83983457  0.90976096  1
  O  O42  1  0.96405718  0.16586964  0.59152385  1
  O  O43  1  0.20181246  0.03594282  0.59152385  1
  O  O44  1  0.83413036  0.79818754  0.59152385  1
  O  O45  1  0.97269012  0.80237387  0.08942113  1
  O  O46  1  0.82968375  0.02730988  0.08942113  1
  O  O47  1  0.19762613  0.17031625  0.08942113  1
  O  O48  1  0.69144546  0.17261384  0.74477357  1
  O  O49  1  0.48116937  0.30855454  0.74477357  1
  O  O50  1  0.82738616  0.51883063  0.74477357  1
  O  O51  1  0.69127621  0.51805797  0.24343269  1
  O  O52  1  0.82678276  0.30872379  0.24343269  1
  O  O53  1  0.48194203  0.17321724  0.24343269  1
  O  O54  1  0.63929997  0.49423246  0.92298318  1
  O  O55  1  0.85493349  0.36070003  0.92298318  1
  O  O56  1  0.50576754  0.14506651  0.92298318  1
  O  O57  1  0.64224011  0.14810936  0.42202633  1
  O  O58  1  0.50587025  0.35775989  0.42202633  1
  O  O59  1  0.85189064  0.49412975  0.42202633  1
  O  O60  1  0.36782693  0.51035875  0.07361985  1
  O  O61  1  0.14253082  0.63217307  0.07361985  1
  O  O62  1  0.48964125  0.85746918  0.07361985  1
  O  O63  1  0.36925389  0.86839944  0.57527130  1
  O  O64  1  0.49914455  0.63074611  0.57527130  1
  O  O65  1  0.13160056  0.50085545  0.57527130  1
  O  O66  1  0.30690224  0.82812969  0.25976050  1
  O  O67  1  0.52122645  0.69309776  0.25976050  1
  O  O68  1  0.17187031  0.47877355  0.25976050  1
  O  O69  1  0.30702369  0.47915186  0.76013613  1
  O  O70  1  0.17212717  0.69297631  0.76013613  1
  O  O71  1  0.52084814  0.82787283  0.76013613  1
loop_
_geom_bond_atom_site_label_1
_geom_bond_atom_site_label_2
_geom_bond_distance
_geom_bond_site_symmetry_2
Na0 O39 2.417596 1_555
Na0 O41 2.417596 1_445
Na0 O40 2.417596 1_545
Na0 O45 2.572406 1_446
Na0 O47 2.572406 1_556
Na0 O46 2.572406 1_456
Na1 O56 2.451784 1_555
Na1 O54 2.451784 1_555
Na1 O55 2.451784 1_555
Na1 O48 2.457785 1_555
Na1 O50 2.457785 1_555
Na1 O49 2.457785 1_555
Na2 O51 2.447933 1_555
Na2 O53 2.447933 1_555
Na2 O52 2.447933 1_555
Na2 O57 2.455156 1_555
Na2 O59 2.455156 1_555
Na2 O58 2.455156 1_555
Ge0 O38 1.880610 1_555
Ge0 O36 1.880610 1_545
Ge0 O37 1.880610 1_445
Ge0 O1 1.905002 1_445
Ge0 O2 1.905002 1_455
Ge0 O0 1.905002 1_555
Ge1 O4 1.890003 1_445
Ge1 O3 1.890003 1_555
Ge1 O5 1.890003 1_455
Ge1 O39 1.924701 1_555
Ge1 O41 1.924701 1_445
Ge1 O40 1.924701 1_545
Ge2 O13 1.873080 1_555
Ge2 O14 1.873080 1_555
Ge2 O12 1.873080 1_555
Ge2 O48 1.904104 1_555
Ge2 O50 1.904104 1_555
Ge2 O49 1.904104 1_555
Ge3 O16 1.885061 1_555
Ge3 O15 1.885061 1_555
Ge3 O17 1.885061 1_555
Ge3 O51 1.927976 1_555
Ge3 O53 1.927976 1_555
Ge3 O52 1.927976 1_555
Ge4 O19 1.873694 1_556
Ge4 O20 1.873694 1_556
Ge4 O18 1.873694 1_556
Ge4 O56 1.914641 1_555
Ge4 O54 1.914641 1_555
Ge4 O55 1.914641 1_555
Ge5 O23 1.875097 1_555
Ge5 O21 1.875097 1_555
Ge5 O22 1.875097 1_555
Ge5 O57 1.900317 1_555
Ge5 O59 1.900317 1_555
Ge5 O58 1.900317 1_555
Ge6 O62 1.885253 1_555
Ge6 O60 1.885253 1_555
Ge6 O61 1.885253 1_555
Ge6 O25 1.905356 1_554
Ge6 O26 1.905356 1_554
Ge6 O24 1.905356 1_554
Ge7 O68 1.876315 1_555
Ge7 O66 1.876315 1_555
Ge7 O67 1.876315 1_555
Ge7 O32 1.904416 1_555
Ge7 O31 1.904416 1_555
Ge7 O30 1.904417 1_555
Ge8 O69 1.885131 1_555
Ge8 O71 1.885131 1_555
Ge8 O70 1.885131 1_555
Ge8 O34 1.894657 1_555
Ge8 O33 1.894657 1_555
Ge8 O35 1.894657 1_555
O0 P0 1.543685 1_545
O1 P1 1.543685 1_555
O2 P2 1.543685 1_655
O3 P3 1.546872 1_555
O4 P4 1.546872 1_655
O5 P5 1.546872 1_545
O6 P5 1.553340 1_555
O6 Ta0 1.970416 1_665
O7 P3 1.553340 1_555
O7 Ta0 1.970416 1_555
O8 P4 1.553340 1_555
O8 Ta0 1.970416 1_565
O9 P1 1.557640 1_555
O9 Ta1 1.953715 1_665
O10 P2 1.557640 1_555
O10 Ta1 1.953715 1_555
O11 P0 1.557640 1_555
O11 Ta1 1.953715 1_565
O12 P6 1.528819 1_555
O13 P7 1.528819 1_555
O14 P8 1.528819 1_555
O15 P9 1.542432 1_555
O16 P10 1.542432 1_555
O17 P11 1.542432 1_555
O18 P11 1.540894 1_555
O19 P9 1.540894 1_555
O20 P10 1.540894 1_555
O21 P7 1.526994 1_555
O22 P8 1.526994 1_555
O23 P6 1.526994 1_555
O24 P12 1.541622 1_555
O25 P13 1.541622 1_555
O26 P14 1.541621 1_555
O27 P15 1.554952 1_555
O27 Ta2 1.966550 1_555
O28 P16 1.554952 1_555
O28 Ta2 1.966550 1_555
O29 P17 1.554952 1_555
O29 Ta2 1.966550 1_555
O30 P17 1.539766 1_555
O31 P15 1.539766 1_555
O32 P16 1.539766 1_555
O33 P13 1.541375 1_555
O34 P14 1.541375 1_555
O35 P12 1.541375 1_555
O36 P17 1.523994 1_555
O37 P15 1.524002 1_555
O38 P16 1.523999 1_555
O39 P13 1.558723 1_555
O40 P14 1.558715 1_555
O41 P12 1.558720 1_555
O42 P6 1.541680 1_555
O42 Ta0 1.952185 1_655
O43 P7 1.541688 1_555
O43 Ta0 1.952185 1_555
O44 P8 1.541685 1_555
O44 Ta0 1.952185 1_665
O45 P9 1.567290 1_555
O45 Ta1 1.985381 1_665
O46 P10 1.567282 1_555
O46 Ta1 1.985381 1_655
O47 P11 1.567286 1_555
O47 Ta1 1.985381 1_555
O48 P5 1.550972 1_545
O49 P3 1.550980 1_555
O50 P4 1.550976 1_655
O51 P1 1.549619 1_555
O52 P2 1.549610 1_655
O53 P0 1.549615 1_545
O54 P12 1.559576 1_555
O55 P13 1.559560 1_655
O56 P14 1.559567 1_545
O57 P15 1.551913 1_545
O58 P16 1.551929 1_555
O59 P17 1.551920 1_655
O60 P11 1.525318 1_555
O61 P9 1.525302 1_455
O62 P10 1.525308 1_565
O63 P7 1.540190 1_565
O63 Ta2 1.955279 1_555
O64 P8 1.540207 1_555
O64 Ta2 1.955279 1_555
O65 P6 1.540197 1_455
O65 Ta2 1.955279 1_555
O66 P0 1.522583 1_555
O67 P1 1.522592 1_555
O68 P2 1.522588 1_555
O69 P3 1.523073 1_555
O70 P4 1.523064 1_555
O71 P5 1.523069 1_555
