# generated using pymatgen
data_Na6Hf3ZnSi2(PO6)4
_symmetry_space_group_name_H-M   'P 1'
_cell_length_a   15.70743705
_cell_length_b   9.06916817
_cell_length_c   9.08812926
_cell_angle_alpha   90.40586654
_cell_angle_beta   124.70707958
_cell_angle_gamma   89.85798931
_symmetry_Int_Tables_number   1
_chemical_formula_structural   Na6Hf3ZnSi2(PO6)4
_chemical_formula_sum   'Na12 Hf6 Zn2 Si4 P8 O48'
_cell_volume   1064.25661028
_cell_formula_units_Z   2
loop_
 _symmetry_equiv_pos_site_id
 _symmetry_equiv_pos_as_xyz
  1  'x, y, z'
loop_
 _atom_site_type_symbol
 _atom_site_label
 _atom_site_symmetry_multiplicity
 _atom_site_fract_x
 _atom_site_fract_y
 _atom_site_fract_z
 _atom_site_occupancy
  Na  Na0  1  0.25022884  0.74844239  0.99895779  1
  Na  Na1  1  0.74071826  0.74672921  0.47519982  1
  Na  Na2  1  0.75022884  0.24844239  0.99895779  1
  Na  Na3  1  0.24071826  0.24672921  0.47519982  1
  Na  Na4  1  0.51005947  0.08864817  0.76939986  1
  Na  Na5  1  0.49830210  0.88545454  0.23144904  1
  Na  Na6  1  0.01005947  0.58864817  0.76939986  1
  Na  Na7  1  0.99830210  0.38545454  0.23144904  1
  Na  Na8  1  0.79810547  0.92495014  0.20990006  1
  Na  Na9  1  0.18434845  0.08124262  0.80893147  1
  Na  Na10  1  0.29810547  0.42495014  0.20990006  1
  Na  Na11  1  0.68434845  0.58124262  0.80893147  1
  Hf  Hf0  1  0.10410918  0.74895557  0.55773420  1
  Hf  Hf1  1  0.89470823  0.75486194  0.93495334  1
  Hf  Hf2  1  0.89602909  0.25325723  0.44195094  1
  Hf  Hf3  1  0.60410918  0.24895557  0.55773420  1
  Hf  Hf4  1  0.39470823  0.25486194  0.93495334  1
  Hf  Hf5  1  0.39602909  0.75325723  0.44195094  1
  Zn  Zn0  1  0.10492212  0.24178214  0.05568960  1
  Zn  Zn1  1  0.60492212  0.74178214  0.05568960  1
  Si  Si0  1  0.64983837  0.89928196  0.75118482  1
  Si  Si1  1  0.35121233  0.10065164  0.25118450  1
  Si  Si2  1  0.14983837  0.39928196  0.75118482  1
  Si  Si3  1  0.85121233  0.60065164  0.25118450  1
  P  P0  1  0.99814705  0.95687540  0.74670992  1
  P  P1  1  0.00179010  0.04571852  0.25509589  1
  P  P2  1  0.49814705  0.45687540  0.74670992  1
  P  P3  1  0.50179010  0.54571852  0.25509589  1
  P  P4  1  0.35703889  0.89605878  0.76558548  1
  P  P5  1  0.64600746  0.10723240  0.24186262  1
  P  P6  1  0.85703889  0.39605878  0.76558548  1
  P  P7  1  0.14600746  0.60723240  0.24186262  1
  O  O0  1  0.15708864  0.57932785  0.73629223  1
  O  O1  1  0.85347705  0.56948403  0.75707561  1
  O  O2  1  0.84962925  0.41810792  0.25710713  1
  O  O3  1  0.15272114  0.43875704  0.25331212  1
  O  O4  1  0.65708864  0.07932785  0.73629223  1
  O  O5  1  0.35347705  0.06948403  0.75707561  1
  O  O6  1  0.34962925  0.91810792  0.25710713  1
  O  O7  1  0.65272114  0.93875704  0.25331212  1
  O  O8  1  0.43089177  0.54922370  0.57390666  1
  O  O9  1  0.56535828  0.55387786  0.91105668  1
  O  O10  1  0.56341825  0.45203636  0.42599763  1
  O  O11  1  0.44211966  0.43775061  0.09136504  1
  O  O12  1  0.93089177  0.04922370  0.57390666  1
  O  O13  1  0.06535828  0.05387786  0.91105668  1
  O  O14  1  0.06341825  0.95203636  0.42599763  1
  O  O15  1  0.94211966  0.93775061  0.09136504  1
  O  O16  1  0.25550090  0.84539048  0.74184472  1
  O  O17  1  0.74496345  0.81598561  0.75648108  1
  O  O18  1  0.74158441  0.16982466  0.25224314  1
  O  O19  1  0.25890335  0.18347649  0.24622352  1
  O  O20  1  0.75550090  0.34539048  0.74184472  1
  O  O21  1  0.24496345  0.31598561  0.75648108  1
  O  O22  1  0.24158441  0.66982466  0.25224314  1
  O  O23  1  0.75890335  0.68347649  0.24622352  1
  O  O24  1  0.36039297  0.84813242  0.60321720  1
  O  O25  1  0.64982524  0.87031776  0.92616589  1
  O  O26  1  0.64538679  0.16625161  0.40125704  1
  O  O27  1  0.35339877  0.13952969  0.07408684  1
  O  O28  1  0.86039297  0.34813242  0.60321720  1
  O  O29  1  0.14982524  0.37031776  0.92616589  1
  O  O30  1  0.14538679  0.66625161  0.40125704  1
  O  O31  1  0.85339877  0.63952969  0.07408684  1
  O  O32  1  0.45113591  0.84037342  0.94014876  1
  O  O33  1  0.54083014  0.82985998  0.57368736  1
  O  O34  1  0.54629899  0.16181041  0.06596725  1
  O  O35  1  0.46383529  0.15882254  0.42552366  1
  O  O36  1  0.95113591  0.34037342  0.94014876  1
  O  O37  1  0.04083014  0.32985998  0.57368736  1
  O  O38  1  0.04629899  0.66181041  0.06596725  1
  O  O39  1  0.96383529  0.65882254  0.42552366  1
  O  O40  1  0.07695001  0.85873491  0.73435591  1
  O  O41  1  0.92656737  0.84636187  0.75720023  1
  O  O42  1  0.91371051  0.13022314  0.25514871  1
  O  O43  1  0.07044643  0.15619702  0.24454622  1
  O  O44  1  0.57695001  0.35873491  0.73435591  1
  O  O45  1  0.42656737  0.34636187  0.75720023  1
  O  O46  1  0.41371051  0.63022314  0.25514871  1
  O  O47  1  0.57044643  0.65619702  0.24454622  1
loop_
_geom_bond_atom_site_label_1
_geom_bond_atom_site_label_2
_geom_bond_distance
_geom_bond_site_symmetry_2
Na0 O6 2.469622 1_556
Na0 O0 2.484629 1_555
Na0 O22 2.491015 1_556
Na0 O46 2.525426 1_556
Na0 O16 2.547508 1_555
Na0 O40 2.599717 1_555
Na1 O23 2.323844 1_555
Na1 O47 2.413196 1_555
Na1 O7 2.423562 1_555
Na1 O17 2.591732 1_555
Na1 O1 2.675965 1_555
Na1 O41 2.714239 1_555
Na2 O2 2.469622 1_556
Na2 O4 2.484629 1_555
Na2 O18 2.491015 1_556
Na2 O42 2.525426 1_556
Na2 O20 2.547508 1_555
Na2 O44 2.599717 1_555
Na3 O19 2.323844 1_555
Na3 O43 2.413196 1_555
Na3 O3 2.423562 1_555
Na3 O21 2.591732 1_555
Na3 O5 2.675965 1_555
Na3 O45 2.714239 1_555
Na4 O5 2.404179 1_555
Na4 O4 2.494238 1_555
Na4 O34 2.501609 1_556
Na4 O45 2.649116 1_555
Na4 O25 2.688263 1_545
Na4 O44 2.758639 1_555
Na4 O35 2.853237 1_555
Na4 O24 2.915671 1_545
Na5 O47 2.336560 1_555
Na5 O32 2.340363 1_554
Na5 O7 2.368963 1_555
Na5 O6 2.492240 1_555
Na5 O46 2.741914 1_555
Na5 O33 2.833547 1_555
Na5 O27 2.974767 1_565
Na6 O1 2.404179 1_455
Na6 O0 2.494238 1_555
Na6 O38 2.501609 1_556
Na6 O41 2.649116 1_455
Na6 O29 2.688263 1_555
Na6 O40 2.758639 1_555
Na6 O39 2.853237 1_455
Na6 O28 2.915671 1_455
Na7 O43 2.336560 1_655
Na7 O36 2.340363 1_554
Na7 O3 2.368963 1_655
Na7 O2 2.492240 1_555
Na7 O42 2.741914 1_555
Na7 O37 2.833547 1_655
Na7 O31 2.974767 1_555
Na8 O25 2.338340 1_554
Na8 O23 2.352125 1_555
Na8 O42 2.467342 1_565
Na8 O18 2.497085 1_565
Na8 O7 2.531818 1_555
Na9 O27 2.416509 1_556
Na9 O40 2.464312 1_545
Na9 O21 2.491443 1_555
Na9 O13 2.529280 1_555
Na9 O16 2.634708 1_545
Na10 O29 2.338340 1_554
Na10 O19 2.352125 1_555
Na10 O46 2.467342 1_555
Na10 O22 2.497085 1_555
Na10 O3 2.531818 1_555
Na11 O31 2.416509 1_556
Na11 O44 2.464312 1_555
Na11 O17 2.491443 1_555
Na11 O9 2.529280 1_555
Na11 O20 2.634708 1_555
Hf0 O39 1.986671 1_455
Hf0 O30 2.009412 1_555
Hf0 O0 2.045409 1_555
Hf0 O14 2.094763 1_555
Hf0 O40 2.122451 1_555
Hf0 O16 2.162849 1_555
Hf1 O31 2.017513 1_556
Hf1 O15 2.023257 1_556
Hf1 O17 2.032815 1_555
Hf1 O41 2.119041 1_555
Hf1 O38 2.138988 1_656
Hf1 O1 2.152655 1_555
Hf2 O37 1.996068 1_655
Hf2 O28 2.028706 1_555
Hf2 O2 2.055321 1_555
Hf2 O12 2.107284 1_555
Hf2 O18 2.158213 1_555
Hf2 O42 2.170912 1_555
Hf3 O35 1.986671 1_555
Hf3 O26 2.009412 1_555
Hf3 O4 2.045409 1_555
Hf3 O10 2.094763 1_555
Hf3 O44 2.122451 1_555
Hf3 O20 2.162849 1_555
Hf4 O27 2.017513 1_556
Hf4 O11 2.023257 1_556
Hf4 O21 2.032815 1_555
Hf4 O45 2.119041 1_555
Hf4 O34 2.138988 1_556
Hf4 O5 2.152655 1_555
Hf5 O33 1.996068 1_555
Hf5 O24 2.028706 1_555
Hf5 O6 2.055321 1_555
Hf5 O8 2.107284 1_555
Hf5 O22 2.158213 1_555
Hf5 O46 2.170912 1_555
O0 Si2 1.648983 1_555
O1 P6 1.574561 1_555
O2 Si3 1.657484 1_555
O3 P7 1.531496 1_555
O3 Zn0 2.325131 1_555
O4 Si0 1.648983 1_545
O5 P4 1.574561 1_545
O6 Si1 1.657484 1_565
O7 P5 1.531496 1_565
O7 Zn1 2.325131 1_555
O8 P2 1.552022 1_555
O9 P2 1.519764 1_555
O9 Zn1 2.015278 1_556
O10 P3 1.540700 1_555
O11 P3 1.564336 1_555
O12 P0 1.552022 1_545
O13 P0 1.519764 1_445
O13 Zn0 2.015278 1_556
O14 P1 1.540700 1_565
O15 P1 1.564336 1_665
O16 P4 1.552992 1_555
O17 Si0 1.648805 1_555
O18 P5 1.557925 1_555
O19 Si1 1.609105 1_555
O19 Zn0 2.089321 1_555
O20 P6 1.552992 1_555
O21 Si2 1.648805 1_555
O22 P7 1.557925 1_555
O23 Si3 1.609105 1_555
O23 Zn1 2.089321 1_555
O24 P4 1.564766 1_555
O25 Si0 1.613750 1_555
O25 Zn1 2.052059 1_556
O26 P5 1.545994 1_555
O27 Si1 1.669429 1_555
O28 P6 1.564766 1_555
O29 Si2 1.613750 1_555
O29 Zn0 2.052059 1_556
O30 P7 1.545994 1_555
O31 Si3 1.669429 1_555
O32 P4 1.514561 1_555
O32 Zn1 2.202565 1_556
O33 Si0 1.666120 1_555
O34 P5 1.552295 1_555
O35 Si1 1.648974 1_555
O36 P6 1.514561 1_555
O36 Zn0 2.202565 1_656
O37 Si2 1.666120 1_555
O38 P7 1.552295 1_555
O39 Si3 1.648974 1_555
O40 P0 1.577438 1_455
O41 P0 1.551372 1_555
O42 P1 1.580167 1_655
O43 P1 1.516750 1_555
O43 Zn0 2.218324 1_555
O44 P2 1.577438 1_555
O45 P2 1.551372 1_555
O46 P3 1.580167 1_555
O47 P3 1.516750 1_555
O47 Zn1 2.218324 1_555
