# generated using pymatgen
data_Ca2HN
_symmetry_space_group_name_H-M   'P 1'
_cell_length_a   7.13346421
_cell_length_b   7.13346441
_cell_length_c   7.13346410
_cell_angle_alpha   60.00000619
_cell_angle_beta   60.00000532
_cell_angle_gamma   60.00000442
_symmetry_Int_Tables_number   1
_chemical_formula_structural   Ca2HN
_chemical_formula_sum   'Ca8 H4 N4'
_cell_volume   256.67674305
_cell_formula_units_Z   4
loop_
 _symmetry_equiv_pos_site_id
 _symmetry_equiv_pos_as_xyz
  1  'x, y, z'
loop_
 _atom_site_type_symbol
 _atom_site_label
 _atom_site_symmetry_multiplicity
 _atom_site_fract_x
 _atom_site_fract_y
 _atom_site_fract_z
 _atom_site_occupancy
  Ca  Ca0  1  0.73803724  0.73803724  0.73803724  1
  Ca  Ca1  1  0.26196276  0.26196276  0.71411271  1
  Ca  Ca2  1  0.26196276  0.71411271  0.26196276  1
  Ca  Ca3  1  0.71411271  0.26196276  0.26196276  1
  Ca  Ca4  1  0.73803724  0.28588729  0.73803724  1
  Ca  Ca5  1  0.28588729  0.73803724  0.73803724  1
  Ca  Ca6  1  0.73803724  0.73803724  0.28588729  1
  Ca  Ca7  1  0.26196276  0.26196276  0.26196276  1
  H  H0  1  0.00000000  0.50000000  -0.00000000  1
  H  H1  1  0.50000000  0.00000000  -0.00000000  1
  H  H2  1  0.00000000  0.00000000  0.50000000  1
  H  H3  1  0.00000000  0.00000000  -0.00000000  1
  N  N0  1  0.50000000  0.00000000  0.50000000  1
  N  N1  1  0.00000000  0.50000000  0.50000000  1
  N  N2  1  0.50000000  0.50000000  -0.00000000  1
  N  N3  1  0.50000000  0.50000000  0.50000000  1
loop_
_geom_bond_atom_site_label_1
_geom_bond_atom_site_label_2
_geom_bond_distance
_geom_bond_site_symmetry_2
Ca0 N1 2.407435 1_655
Ca0 N0 2.407435 1_565
Ca0 N2 2.407435 1_556
Ca0 H0 2.648249 1_656
Ca0 H1 2.648249 1_566
Ca0 H2 2.648249 1_665
Ca1 N3 2.407434 1_555
Ca1 N1 2.407439 1_555
Ca1 N0 2.407439 1_555
Ca1 H0 2.648244 1_556
Ca1 H1 2.648244 1_556
Ca1 H3 2.648249 1_556
Ca2 N3 2.407434 1_555
Ca2 N2 2.407439 1_555
Ca2 N1 2.407440 1_555
Ca2 H2 2.648244 1_565
Ca2 H1 2.648244 1_565
Ca2 H3 2.648249 1_565
Ca3 N3 2.407434 1_555
Ca3 N2 2.407439 1_555
Ca3 N0 2.407440 1_555
Ca3 H2 2.648244 1_655
Ca3 H0 2.648244 1_655
Ca3 H3 2.648249 1_655
Ca4 N3 2.407434 1_555
Ca4 N2 2.407439 1_556
Ca4 N1 2.407440 1_655
Ca4 H2 2.648244 1_655
Ca4 H1 2.648244 1_556
Ca4 H3 2.648249 1_656
Ca5 N3 2.407434 1_555
Ca5 N2 2.407439 1_556
Ca5 N0 2.407440 1_565
Ca5 H2 2.648244 1_565
Ca5 H0 2.648244 1_556
Ca5 H3 2.648249 1_566
Ca6 N3 2.407434 1_555
Ca6 N1 2.407439 1_655
Ca6 N0 2.407439 1_565
Ca6 H0 2.648244 1_655
Ca6 H1 2.648244 1_565
Ca6 H3 2.648249 1_665
Ca7 N1 2.407435 1_555
Ca7 N0 2.407435 1_555
Ca7 N2 2.407435 1_555
Ca7 H0 2.648249 1_555
Ca7 H1 2.648249 1_555
Ca7 H2 2.648249 1_555
