# generated using pymatgen
data_CoSnH12(OF)6
_symmetry_space_group_name_H-M   'P 1'
_cell_length_a   6.65086891
_cell_length_b   6.65086891
_cell_length_c   6.65086868
_cell_angle_alpha   96.64609489
_cell_angle_beta   96.64609489
_cell_angle_gamma   96.64609525
_symmetry_Int_Tables_number   1
_chemical_formula_structural   CoSnH12(OF)6
_chemical_formula_sum   'Co1 Sn1 H12 O6 F6'
_cell_volume   287.75732688
_cell_formula_units_Z   1
loop_
 _symmetry_equiv_pos_site_id
 _symmetry_equiv_pos_as_xyz
  1  'x, y, z'
loop_
 _atom_site_type_symbol
 _atom_site_label
 _atom_site_symmetry_multiplicity
 _atom_site_fract_x
 _atom_site_fract_y
 _atom_site_fract_z
 _atom_site_occupancy
  Co  Co0  1  0.50000000  0.50000000  0.50000000  1
  Sn  Sn0  1  0.00000000  0.00000000  0.00000000  1
  H  H0  1  0.89384100  0.69708800  0.54381800  1
  H  H1  1  0.54381800  0.89384100  0.69708800  1
  H  H2  1  0.69708800  0.54381800  0.89384100  1
  H  H3  1  0.10615900  0.30291200  0.45618200  1
  H  H4  1  0.45618200  0.10615900  0.30291200  1
  H  H5  1  0.30291200  0.45618200  0.10615900  1
  H  H6  1  0.80328100  0.66969000  0.30826100  1
  H  H7  1  0.30826100  0.80328100  0.66969000  1
  H  H8  1  0.66969000  0.30826100  0.80328100  1
  H  H9  1  0.69173900  0.19671900  0.33031000  1
  H  H10  1  0.33031000  0.69173900  0.19671900  1
  H  H11  1  0.19671900  0.33031000  0.69173900  1
  O  O0  1  0.43886900  0.79002100  0.61658700  1
  O  O1  1  0.61658700  0.43886900  0.79002100  1
  O  O2  1  0.20997900  0.38341300  0.56113100  1
  O  O3  1  0.56113100  0.20997900  0.38341300  1
  O  O4  1  0.38341300  0.56113100  0.20997900  1
  O  O5  1  0.79002100  0.61658700  0.43886900  1
  F  F0  1  0.06659300  0.84310900  0.74476600  1
  F  F1  1  0.74476600  0.06659300  0.84310900  1
  F  F2  1  0.84310900  0.74476600  0.06659300  1
  F  F3  1  0.93340700  0.15689100  0.25523400  1
  F  F4  1  0.15689100  0.25523400  0.93340700  1
  F  F5  1  0.25523400  0.93340700  0.15689100  1
loop_
_geom_bond_atom_site_label_1
_geom_bond_atom_site_label_2
_geom_bond_distance
_geom_bond_site_symmetry_2
Co0 O1 2.096539 1_555
Co0 O4 2.096539 1_555
Co0 O2 2.096539 1_555
Co0 O5 2.096539 1_555
Co0 O3 2.096539 1_555
Co0 O0 2.096539 1_555
H0 O5 0.983363 1_555
H1 O0 0.983363 1_555
H2 O1 0.983363 1_555
H3 O2 0.983363 1_555
H4 O3 0.983363 1_555
H5 O4 0.983363 1_555
H6 O5 0.984183 1_555
H7 O0 0.984183 1_555
H8 O1 0.984183 1_555
H9 O3 0.984183 1_555
H10 O4 0.984183 1_555
H11 O2 0.984183 1_555
F0 Sn0 2.009371 1_566
F1 Sn0 2.009371 1_656
F2 Sn0 2.009371 1_665
F3 Sn0 2.009371 1_655
F4 Sn0 2.009371 1_556
F5 Sn0 2.009371 1_565
