# generated using pymatgen
data_Na10Zn4Si5Sn4S7O48
_symmetry_space_group_name_H-M   'P 1'
_cell_length_a   17.93677087
_cell_length_b   9.02645364
_cell_length_c   22.48347770
_cell_angle_alpha   89.82554788
_cell_angle_beta   88.84088897
_cell_angle_gamma   120.12161062
_symmetry_Int_Tables_number   1
_chemical_formula_structural   Na10Zn4Si5Sn4S7O48
_chemical_formula_sum   'Na30 Zn12 Si15 Sn12 S21 O144'
_cell_volume   3147.62209712
_cell_formula_units_Z   3
loop_
 _symmetry_equiv_pos_site_id
 _symmetry_equiv_pos_as_xyz
  1  'x, y, z'
loop_
 _atom_site_type_symbol
 _atom_site_label
 _atom_site_symmetry_multiplicity
 _atom_site_fract_x
 _atom_site_fract_y
 _atom_site_fract_z
 _atom_site_occupancy
  Na  Na0  1  0.32326210  0.02421753  0.25371270  1
  Na  Na1  1  0.67773106  0.34501883  0.25307639  1
  Na  Na2  1  0.99867280  0.63771319  0.23832594  1
  Na  Na3  1  0.50006004  0.63378157  0.23701663  1
  Na  Na4  1  0.32049978  0.61770598  0.75592790  1
  Na  Na5  1  0.82017943  0.61755409  0.75467787  1
  Na  Na6  1  0.99879317  0.36579147  0.73851957  1
  Na  Na7  1  0.49906321  0.36627113  0.73762357  1
  Na  Na8  1  0.17753882  0.01235139  0.75119466  1
  Na  Na9  1  0.67842599  0.01285924  0.75010267  1
  Na  Na10  1  0.33434814  0.97133523  0.57031888  1
  Na  Na11  1  0.83376389  0.97164203  0.57016460  1
  Na  Na12  1  0.33422128  0.69781845  0.07035140  1
  Na  Na13  1  0.83275724  0.69550591  0.06932973  1
  Na  Na14  1  0.48135999  0.68076358  0.91055184  1
  Na  Na15  1  0.98152460  0.68119371  0.90967845  1
  Na  Na16  1  0.48357335  0.28468495  0.40873122  1
  Na  Na17  1  0.16606097  0.02711228  0.40543357  1
  Na  Na18  1  0.98782453  0.00688986  0.49381077  1
  Na  Na19  1  0.50125166  0.99584633  0.49334826  1
  Na  Na20  1  0.99817799  0.00380295  0.99251214  1
  Na  Na21  1  0.49737366  0.00256416  0.99388031  1
  Na  Na22  1  0.32455665  0.34253323  0.83006023  1
  Na  Na23  1  0.82450824  0.34296692  0.82928060  1
  Na  Na24  1  0.32756615  0.32667189  0.32419768  1
  Na  Na25  1  0.81825520  0.27761444  0.33062748  1
  Na  Na26  1  0.15414998  0.66551671  0.15811055  1
  Na  Na27  1  0.65321166  0.67944040  0.16032094  1
  Na  Na28  1  0.14850389  0.63094604  0.65938087  1
  Na  Na29  1  0.65042655  0.63326813  0.65787859  1
  Zn  Zn0  1  0.99543336  0.00167079  0.35214998  1
  Zn  Zn1  1  0.50192774  0.00954925  0.34810317  1
  Zn  Zn2  1  0.99820360  0.99003973  0.84903321  1
  Zn  Zn3  1  0.49823285  0.98985779  0.84935153  1
  Zn  Zn4  1  0.34382349  0.35615598  0.68475106  1
  Zn  Zn5  1  0.84359590  0.35601139  0.68409376  1
  Zn  Zn6  1  0.33992510  0.33159429  0.18596855  1
  Zn  Zn7  1  0.83525132  0.32408033  0.18269008  1
  Zn  Zn8  1  0.16327241  0.66532879  0.01780282  1
  Zn  Zn9  1  0.66271662  0.66431123  0.01775119  1
  Zn  Zn10  1  0.16255766  0.65527497  0.51824513  1
  Zn  Zn11  1  0.66703191  0.66395118  0.51666143  1
  Si  Si0  1  0.14645733  0.00205407  0.25622511  1
  Si  Si1  1  0.65113671  0.00608570  0.25156988  1
  Si  Si2  1  0.50193629  0.29725175  0.25438408  1
  Si  Si3  1  0.14709253  0.29219243  0.75249288  1
  Si  Si4  1  0.64728367  0.29304774  0.75289547  1
  Si  Si5  1  0.00159393  0.70754384  0.75440436  1
  Si  Si6  1  0.50170411  0.70774578  0.75452604  1
  Si  Si7  1  0.48637000  0.33438021  0.58520735  1
  Si  Si8  1  0.98444817  0.33279591  0.58659012  1
  Si  Si9  1  0.48463631  0.63634066  0.08579855  1
  Si  Si10  1  0.98337978  0.62791584  0.08639859  1
  Si  Si11  1  0.31436432  0.67313771  0.92160203  1
  Si  Si12  1  0.81457882  0.67324348  0.92147436  1
  Si  Si13  1  0.31530238  0.95732067  0.42277148  1
  Si  Si14  1  0.81578448  0.95838542  0.42047500  1
  Sn  Sn0  1  0.00802083  0.01328583  0.65006490  1
  Sn  Sn1  1  0.50957467  0.01608908  0.65030060  1
  Sn  Sn2  1  0.00473044  0.99380064  0.14908158  1
  Sn  Sn3  1  0.50800036  0.00255643  0.15071992  1
  Sn  Sn4  1  0.33352166  0.34663227  0.98410512  1
  Sn  Sn5  1  0.83406950  0.34411471  0.98300348  1
  Sn  Sn6  1  0.33819867  0.33105957  0.48434821  1
  Sn  Sn7  1  0.83670082  0.31886868  0.48202583  1
  Sn  Sn8  1  0.16765544  0.67271830  0.31924757  1
  Sn  Sn9  1  0.66985275  0.68161407  0.31547441  1
  Sn  Sn10  1  0.16655425  0.65783957  0.81763022  1
  Sn  Sn11  1  0.66642046  0.65797568  0.81785259  1
  S  S0  1  0.34888550  0.70545711  0.25135249  1
  S  S1  1  0.85274229  0.71013273  0.24991772  1
  S  S2  1  0.00371421  0.29540767  0.25144256  1
  S  S3  1  0.35149275  0.99491352  0.75030247  1
  S  S4  1  0.85136139  0.99493224  0.75075726  1
  S  S5  1  0.18433035  0.04154282  0.58462089  1
  S  S6  1  0.68477134  0.04146124  0.58557123  1
  S  S7  1  0.33558498  0.63084209  0.58496115  1
  S  S8  1  0.83574027  0.62790110  0.58417699  1
  S  S9  1  0.33520268  0.04243776  0.08497367  1
  S  S10  1  0.83720267  0.04351084  0.08491514  1
  S  S11  1  0.18466865  0.32661420  0.08672019  1
  S  S12  1  0.68334560  0.32792547  0.08493565  1
  S  S13  1  0.01597333  0.36619445  0.91894541  1
  S  S14  1  0.51543368  0.36582848  0.91896324  1
  S  S15  1  0.17214447  0.96864067  0.91868940  1
  S  S16  1  0.67225972  0.96870350  0.91859088  1
  S  S17  1  0.17036034  0.37619300  0.41900194  1
  S  S18  1  0.67294207  0.37631557  0.41823042  1
  S  S19  1  0.01562670  0.65895571  0.41809578  1
  S  S20  1  0.51721322  0.66700863  0.41799406  1
  O  O0  1  0.10039684  0.01476428  0.31659629  1
  O  O1  1  0.60476906  0.03822332  0.30774417  1
  O  O2  1  0.40093694  0.78865686  0.30281429  1
  O  O3  1  0.90708388  0.79918252  0.29957918  1
  O  O4  1  0.47948440  0.18127235  0.31353323  1
  O  O5  1  0.99420378  0.19465143  0.30403947  1
  O  O6  1  0.10104610  0.16944379  0.80882070  1
  O  O7  1  0.60069035  0.16883815  0.80879329  1
  O  O8  1  0.48026303  0.77739953  0.81395005  1
  O  O9  1  0.98103037  0.77834257  0.81387533  1
  O  O10  1  0.40492655  0.02191741  0.80150391  1
  O  O11  1  0.90497192  0.02184698  0.80185229  1
  O  O12  1  0.38762935  0.96117403  0.69404653  1
  O  O13  1  0.88734434  0.96081879  0.69450420  1
  O  O14  1  0.08407836  0.22530761  0.69361967  1
  O  O15  1  0.58398574  0.22802056  0.69396694  1
  O  O16  1  0.02233771  0.83711977  0.69522979  1
  O  O17  1  0.52147703  0.83660538  0.69533216  1
  O  O18  1  0.38484175  0.81345314  0.19501227  1
  O  O19  1  0.88665432  0.81235312  0.19194194  1
  O  O20  1  0.01420213  0.21766494  0.19470163  1
  O  O21  1  0.52070313  0.20612117  0.19541141  1
  O  O22  1  0.07970759  0.94798919  0.19908157  1
  O  O23  1  0.58750004  0.94993612  0.19256670  1
  O  O24  1  0.43801808  0.34364249  0.64502281  1
  O  O25  1  0.93967492  0.34383981  0.64786285  1
  O  O26  1  0.23364746  0.13166544  0.63655378  1
  O  O27  1  0.73110150  0.12610785  0.63934223  1
  O  O28  1  0.32491775  0.53155708  0.63927222  1
  O  O29  1  0.82603608  0.53358380  0.63977263  1
  O  O30  1  0.43643593  0.53084243  0.14557024  1
  O  O31  1  0.93625662  0.52280792  0.14707518  1
  O  O32  1  0.32539334  0.11956198  0.13954625  1
  O  O33  1  0.82594497  0.12261994  0.13778560  1
  O  O34  1  0.23497414  0.33492386  0.13765683  1
  O  O35  1  0.73144163  0.33964396  0.13819994  1
  O  O36  1  0.21887151  0.29199783  0.02935053  1
  O  O37  1  0.72345516  0.29759986  0.02986573  1
  O  O38  1  0.42102898  0.55241825  0.02624774  1
  O  O39  1  0.92010115  0.54514652  0.02735625  1
  O  O40  1  0.34331102  0.14599168  0.02980585  1
  O  O41  1  0.84711596  0.14422817  0.02864222  1
  O  O42  1  0.22333569  0.14583614  0.52721087  1
  O  O43  1  0.72456633  0.15008422  0.53044777  1
  O  O44  1  0.34409508  0.54429697  0.52958822  1
  O  O45  1  0.84403097  0.53962731  0.53017516  1
  O  O46  1  0.42217256  0.28975624  0.52585557  1
  O  O47  1  0.91705299  0.28613836  0.53054450  1
  O  O48  1  0.26434864  0.67617287  0.98123136  1
  O  O49  1  0.76451688  0.67715600  0.98088412  1
  O  O50  1  0.06666602  0.45539175  0.96988758  1
  O  O51  1  0.56673845  0.45498508  0.96964065  1
  O  O52  1  0.15926409  0.85386154  0.96846802  1
  O  O53  1  0.66013044  0.85498866  0.96841500  1
  O  O54  1  0.26320312  0.85079945  0.48138643  1
  O  O55  1  0.77032154  0.85707163  0.48193921  1
  O  O56  1  0.16031471  0.45953378  0.47041741  1
  O  O57  1  0.65902905  0.46445485  0.46776736  1
  O  O58  1  0.06991684  0.67324280  0.46728164  1
  O  O59  1  0.56640882  0.67844575  0.46992873  1
  O  O60  1  0.04992886  0.62391055  0.35971048  1
  O  O61  1  0.55242214  0.62633985  0.36205400  1
  O  O62  1  0.25476466  0.87984316  0.36146423  1
  O  O63  1  0.75558930  0.86855755  0.36171068  1
  O  O64  1  0.18104265  0.47493009  0.36132597  1
  O  O65  1  0.68305778  0.46964905  0.35965024  1
  O  O66  1  0.05133870  0.47777752  0.86223124  1
  O  O67  1  0.55063304  0.47745962  0.86212144  1
  O  O68  1  0.18325122  0.89575802  0.86015867  1
  O  O69  1  0.68345172  0.89634387  0.86006290  1
  O  O70  1  0.26039988  0.64759726  0.85873424  1
  O  O71  1  0.76041979  0.64779269  0.85880687  1
  O  O72  1  0.01181986  0.81633252  0.41311473  1
  O  O73  1  0.50601937  0.81399791  0.41066546  1
  O  O74  1  0.41230391  0.98979417  0.41696557  1
  O  O75  1  0.91156617  0.98405948  0.41121696  1
  O  O76  1  0.09784335  0.20002040  0.41502594  1
  O  O77  1  0.59788637  0.20245714  0.41602914  1
  O  O78  1  0.00687977  0.19880399  0.91170991  1
  O  O79  1  0.50625986  0.19827033  0.91148976  1
  O  O80  1  0.09712764  0.99172971  0.91590502  1
  O  O81  1  0.59740621  0.99222592  0.91596628  1
  O  O82  1  0.41177170  0.83718110  0.91657631  1
  O  O83  1  0.91202915  0.83750043  0.91646254  1
  O  O84  1  0.48465541  0.14367609  0.58640562  1
  O  O85  1  0.98411984  0.14331810  0.58688513  1
  O  O86  1  0.09585730  0.01893820  0.58399408  1
  O  O87  1  0.59540338  0.01718447  0.58450223  1
  O  O88  1  0.41692097  0.80290837  0.58539755  1
  O  O89  1  0.91719446  0.80239406  0.58469501  1
  O  O90  1  0.48369717  0.82501808  0.08685147  1
  O  O91  1  0.98362013  0.81775178  0.08656890  1
  O  O92  1  0.41671975  0.03195087  0.08520885  1
  O  O93  1  0.92028176  0.03544213  0.08708124  1
  O  O94  1  0.09375899  0.17503477  0.08857950  1
  O  O95  1  0.59473134  0.17417299  0.08444986  1
  O  O96  1  0.33710156  0.14060139  0.74411955  1
  O  O97  1  0.83703072  0.14063235  0.74476390  1
  O  O98  1  0.24262298  0.31345168  0.74229443  1
  O  O99  1  0.74253770  0.31392748  0.74250582  1
  O  O100  1  0.42221955  0.51365887  0.74735758  1
  O  O101  1  0.92177564  0.51420993  0.74751775  1
  O  O102  1  0.33774013  0.53492523  0.24515054  1
  O  O103  1  0.84529617  0.54061952  0.24528838  1
  O  O104  1  0.42284983  0.33372776  0.24694405  1
  O  O105  1  0.93075927  0.32651293  0.24759857  1
  O  O106  1  0.24348863  0.15970941  0.24528109  1
  O  O107  1  0.74466092  0.18025047  0.24153582  1
  O  O108  1  0.32524041  0.49481021  0.91993999  1
  O  O109  1  0.82633459  0.49587253  0.91997119  1
  O  O110  1  0.42716380  0.35131599  0.92235064  1
  O  O111  1  0.92765019  0.35165591  0.92169114  1
  O  O112  1  0.25439623  0.13909616  0.92288732  1
  O  O113  1  0.75476261  0.13962103  0.92257346  1
  O  O114  1  0.32013164  0.15389788  0.42126080  1
  O  O115  1  0.82222183  0.15206284  0.41942930  1
  O  O116  1  0.25272904  0.36572141  0.42089951  1
  O  O117  1  0.75524234  0.37080020  0.42314079  1
  O  O118  1  0.42799352  0.50275996  0.42094578  1
  O  O119  1  0.92642781  0.50816229  0.42187147  1
  O  O120  1  0.18027157  0.48395047  0.08189511  1
  O  O121  1  0.67894620  0.48499967  0.07951567  1
  O  O122  1  0.07848059  0.65406670  0.07636345  1
  O  O123  1  0.57944553  0.66044552  0.07559434  1
  O  O124  1  0.26185483  0.86667866  0.08110276  1
  O  O125  1  0.76544767  0.86683551  0.08103906  1
  O  O126  1  0.17979235  0.87527217  0.58083654  1
  O  O127  1  0.68001456  0.87485092  0.58091895  1
  O  O128  1  0.26216005  0.65920334  0.58077638  1
  O  O129  1  0.76221769  0.65686518  0.58054671  1
  O  O130  1  0.07853587  0.49853512  0.57577269  1
  O  O131  1  0.58013163  0.50042746  0.57425926  1
  O  O132  1  0.15256058  0.81738272  0.25651386  1
  O  O133  1  0.65578117  0.82670178  0.25440480  1
  O  O134  1  0.26105491  0.69312160  0.25542834  1
  O  O135  1  0.76326999  0.68162945  0.25400482  1
  O  O136  1  0.08565716  0.47215322  0.25358836  1
  O  O137  1  0.59472961  0.48526320  0.25853015  1
  O  O138  1  0.15977034  0.48924230  0.75578553  1
  O  O139  1  0.65997788  0.48991890  0.75616622  1
  O  O140  1  0.09440570  0.70306065  0.75815662  1
  O  O141  1  0.59445120  0.70360995  0.75824095  1
  O  O142  1  0.26428208  0.83451862  0.75500095  1
  O  O143  1  0.76417817  0.83459376  0.75536996  1
loop_
_geom_bond_atom_site_label_1
_geom_bond_atom_site_label_2
_geom_bond_distance
_geom_bond_site_symmetry_2
Na0 O106 2.311943 1_555
Na0 O104 2.448830 1_555
Na0 O134 2.613228 1_545
Na0 O132 2.668053 1_545
Na0 O32 2.698232 1_555
Na0 O62 2.707451 1_545
Na0 O4 2.801365 1_555
Na0 O18 2.940503 1_545
Na1 O107 2.345701 1_555
Na1 O137 2.391477 1_555
Na1 O103 2.613842 1_555
Na1 O135 2.628521 1_555
Na1 O65 2.633253 1_555
Na1 O1 2.677508 1_555
Na1 O35 2.747445 1_555
Na1 O21 2.792722 1_555
Na2 O31 2.340680 1_555
Na2 O103 2.433692 1_555
Na2 O105 2.443316 1_555
Na2 O132 2.443995 1_655
Na2 O22 2.565615 1_655
Na2 O136 2.672836 1_655
Na2 O60 2.919487 1_655
Na3 O30 2.331369 1_555
Na3 O104 2.349990 1_555
Na3 O133 2.480603 1_555
Na3 O102 2.583876 1_555
Na3 O23 2.651323 1_555
Na3 O137 2.688615 1_555
Na3 O61 2.993139 1_555
Na4 O98 2.399927 1_555
Na4 O100 2.440245 1_555
Na4 O138 2.510224 1_555
Na4 O70 2.602415 1_555
Na4 O142 2.613148 1_555
Na4 O28 2.748826 1_555
Na4 O8 2.829898 1_555
Na5 O99 2.390568 1_555
Na5 O101 2.431480 1_555
Na5 O139 2.501721 1_555
Na5 O143 2.611887 1_555
Na5 O71 2.626899 1_555
Na5 O29 2.709373 1_555
Na5 O9 2.857680 1_555
Na6 O25 2.279756 1_555
Na6 O101 2.364731 1_555
Na6 O138 2.558947 1_655
Na6 O97 2.575294 1_555
Na6 O14 2.619060 1_655
Na6 O140 2.683797 1_655
Na7 O24 2.333594 1_555
Na7 O100 2.355341 1_555
Na7 O139 2.562898 1_555
Na7 O96 2.579104 1_555
Na7 O15 2.587624 1_555
Na7 O141 2.688092 1_555
Na8 O98 2.364828 1_555
Na8 O140 2.419045 1_545
Na8 O96 2.492345 1_555
Na8 O68 2.687516 1_545
Na8 O6 2.731990 1_555
Na8 O142 2.741540 1_545
Na8 O16 2.751210 1_545
Na8 O26 2.758019 1_555
Na9 O99 2.364203 1_555
Na9 O141 2.420749 1_545
Na9 O97 2.475886 1_555
Na9 O27 2.656892 1_555
Na9 O69 2.704587 1_545
Na9 O143 2.731180 1_545
Na9 O7 2.752254 1_555
Na9 O17 2.762175 1_545
Na10 O54 2.352281 1_555
Na10 O84 2.377564 1_565
Na10 O128 2.447855 1_555
Na10 O126 2.460211 1_555
Na10 O88 2.626216 1_555
Na10 O46 2.667668 1_565
Na10 O12 2.975620 1_555
Na11 O55 2.285129 1_555
Na11 O85 2.380329 1_565
Na11 O127 2.445513 1_555
Na11 O129 2.469538 1_555
Na11 O47 2.599671 1_565
Na11 O89 2.644122 1_555
Na11 O13 2.991615 1_555
Na12 O48 2.341378 1_554
Na12 O90 2.365893 1_555
Na12 O120 2.456997 1_555
Na12 O124 2.458002 1_555
Na12 O92 2.635233 1_565
Na12 O38 2.669591 1_555
Na12 O18 2.989848 1_555
Na13 O49 2.318842 1_554
Na13 O91 2.395490 1_555
Na13 O125 2.404615 1_555
Na13 O121 2.446350 1_555
Na13 O93 2.690180 1_565
Na13 O39 2.696137 1_555
Na13 O19 2.957841 1_555
Na14 O82 2.309304 1_555
Na14 O8 2.342225 1_555
Na14 O108 2.441286 1_555
Na14 O81 2.527911 1_555
Na14 O110 2.634741 1_555
Na14 O38 2.808761 1_556
Na14 O67 2.888460 1_555
Na15 O83 2.307923 1_555
Na15 O9 2.325034 1_555
Na15 O109 2.428649 1_555
Na15 O80 2.521263 1_655
Na15 O111 2.637103 1_555
Na15 O39 2.868189 1_556
Na15 O66 2.888439 1_655
Na16 O74 2.307795 1_545
Na16 O4 2.325456 1_555
Na16 O77 2.514421 1_555
Na16 O114 2.560930 1_555
Na16 O118 2.627900 1_555
Na16 O46 2.843171 1_555
Na16 O61 2.870975 1_555
Na17 O0 2.313851 1_555
Na17 O76 2.426474 1_555
Na17 O114 2.437505 1_555
Na17 O72 2.449353 1_545
Na17 O116 2.671865 1_555
Na17 O62 2.709798 1_545
Na17 O42 2.954157 1_555
Na18 O75 2.276848 1_545
Na18 O85 2.447905 1_555
Na18 O76 2.541250 1_655
Na18 O89 2.590925 1_545
Na18 O72 2.676951 1_645
Na18 O86 2.797647 1_655
Na19 O74 2.349815 1_555
Na19 O77 2.473543 1_565
Na19 O73 2.512084 1_555
Na19 O84 2.576274 1_565
Na19 O88 2.609908 1_555
Na19 O87 2.627796 1_565
Na20 O83 2.314984 1_545
Na20 O78 2.473120 1_655
Na20 O80 2.490012 1_645
Na20 O93 2.615082 1_556
Na20 O91 2.622301 1_546
Na20 O94 2.739347 1_656
Na21 O82 2.330266 1_545
Na21 O79 2.502609 1_555
Na21 O81 2.517675 1_545
Na21 O90 2.561685 1_546
Na21 O92 2.578349 1_556
Na21 O95 2.653991 1_556
Na22 O98 2.419881 1_555
Na22 O108 2.444203 1_555
Na22 O100 2.459079 1_555
Na22 O112 2.619663 1_555
Na22 O96 2.742635 1_555
Na22 O110 2.776371 1_555
Na23 O99 2.401917 1_555
Na23 O101 2.441057 1_555
Na23 O109 2.457266 1_555
Na23 O113 2.626690 1_555
Na23 O97 2.722595 1_555
Na23 O111 2.785054 1_555
Na24 O106 2.353125 1_555
Na24 O104 2.389962 1_555
Na24 O102 2.519480 1_555
Na24 O114 2.640306 1_555
Na24 O116 2.648528 1_555
Na24 O118 2.794414 1_555
Na25 O115 2.312704 1_555
Na25 O107 2.341064 1_555
Na25 O105 2.588524 1_555
Na25 O117 2.679773 1_555
Na25 O103 2.886443 1_555
Na25 O119 2.904884 1_555
Na26 O122 2.278647 1_555
Na26 O124 2.520266 1_555
Na26 O120 2.568507 1_555
Na26 O132 2.613428 1_555
Na26 O136 2.623399 1_555
Na26 O134 2.867063 1_555
Na27 O123 2.298948 1_555
Na27 O133 2.490629 1_555
Na27 O125 2.551488 1_555
Na27 O137 2.661851 1_555
Na27 O121 2.718970 1_555
Na27 O135 2.909196 1_555
Na28 O130 2.267340 1_555
Na28 O138 2.575901 1_555
Na28 O128 2.583410 1_555
Na28 O140 2.617809 1_555
Na28 O126 2.644099 1_555
Na28 O142 2.947168 1_555
Na29 O131 2.270324 1_555
Na29 O129 2.552871 1_555
Na29 O139 2.609107 1_555
Na29 O127 2.609437 1_555
Na29 O141 2.657040 1_555
Na29 O143 2.958678 1_555
O0 Si0 1.608991 1_555
O0 Zn0 1.978067 1_455
O1 Si1 1.604022 1_555
O1 Zn1 1.935133 1_555
O2 S0 1.455911 1_555
O2 Zn1 2.180742 1_565
O3 S1 1.451212 1_555
O3 Zn0 2.104964 1_565
O4 Si2 1.604191 1_555
O4 Zn1 1.949471 1_555
O5 S2 1.443699 1_655
O5 Zn0 2.057405 1_555
O6 Si3 1.595095 1_555
O6 Zn2 1.941141 1_445
O7 Si4 1.594819 1_555
O7 Zn3 1.939649 1_545
O8 Si6 1.598520 1_555
O8 Zn3 1.953060 1_555
O9 Si5 1.598171 1_655
O9 Zn2 1.949217 1_555
O10 S3 1.454340 1_545
O10 Zn3 2.144545 1_545
O11 S4 1.454422 1_545
O11 Zn2 2.134482 1_545
O12 S3 1.509958 1_555
O12 Sn1 2.195265 1_565
O13 S4 1.509909 1_555
O13 Sn0 2.188286 1_665
O14 Si3 1.665721 1_555
O14 Sn0 1.981849 1_555
O15 Si4 1.669044 1_555
O15 Sn1 1.976519 1_555
O16 Si5 1.676377 1_555
O16 Sn0 2.009047 1_565
O17 Si6 1.675525 1_555
O17 Sn1 2.010298 1_565
O18 S0 1.516321 1_555
O18 Sn3 2.213904 1_565
O19 S1 1.522413 1_555
O19 Sn2 2.126718 1_655
O20 S2 1.511146 1_555
O20 Sn2 2.199832 1_545
O21 Si2 1.677646 1_555
O21 Sn3 2.009520 1_555
O22 Si0 1.673893 1_565
O22 Sn2 1.964655 1_555
O23 Si1 1.674613 1_565
O23 Sn3 1.968642 1_565
O24 Si7 1.610614 1_555
O24 Zn4 1.948405 1_555
O25 Si8 1.609087 1_555
O25 Zn5 1.944054 1_555
O26 S5 1.460463 1_555
O26 Zn4 2.294903 1_555
O27 S6 1.464564 1_555
O27 Zn5 2.298365 1_555
O28 S7 1.463775 1_555
O28 Zn4 2.051892 1_555
O29 S8 1.467494 1_555
O29 Zn5 2.042302 1_555
O30 Si9 1.605979 1_555
O30 Zn6 1.964159 1_555
O31 Si10 1.617484 1_555
O31 Zn7 1.952432 1_555
O32 S9 1.463039 1_555
O32 Zn6 2.083941 1_555
O33 S10 1.450480 1_555
O33 Zn7 2.016767 1_555
O34 S11 1.451125 1_555
O34 Zn6 2.205406 1_555
O35 S12 1.463067 1_555
O35 Zn7 2.196463 1_555
O36 S11 1.516773 1_555
O36 Sn4 2.097971 1_554
O37 S12 1.513026 1_555
O37 Sn5 2.073537 1_554
O38 Si9 1.693733 1_555
O38 Sn4 1.989073 1_554
O39 Si10 1.680634 1_555
O39 Sn5 1.982744 1_554
O40 S9 1.510816 1_555
O40 Sn4 2.163732 1_554
O41 S10 1.510140 1_555
O41 Sn5 2.187525 1_554
O42 S5 1.528670 1_555
O42 Sn6 2.102698 1_555
O43 S6 1.503746 1_555
O43 Sn7 2.092264 1_555
O44 S7 1.517053 1_555
O44 Sn6 2.136003 1_555
O45 S8 1.499558 1_555
O45 Sn7 2.217182 1_555
O46 Si7 1.693759 1_555
O46 Sn6 1.974077 1_555
O47 Si8 1.667460 1_555
O47 Sn7 1.960489 1_555
O48 Si11 1.605993 1_555
O48 Zn8 1.932270 1_556
O49 Si12 1.604789 1_555
O49 Zn9 1.939168 1_556
O50 S13 1.449077 1_555
O50 Zn8 2.132233 1_556
O51 S14 1.448255 1_555
O51 Zn9 2.127650 1_556
O52 S15 1.456575 1_555
O52 Zn8 2.060614 1_556
O53 S16 1.454239 1_555
O53 Zn9 2.065309 1_556
O54 Si13 1.604739 1_555
O54 Zn10 1.947648 1_555
O55 Si14 1.615317 1_555
O55 Zn11 1.942256 1_555
O56 S17 1.437925 1_555
O56 Zn10 2.054676 1_555
O57 S18 1.459151 1_555
O57 Zn11 2.056883 1_555
O58 S19 1.451288 1_555
O58 Zn10 2.108745 1_555
O59 S20 1.450432 1_555
O59 Zn11 2.165988 1_555
O60 S19 1.538511 1_555
O60 Sn8 2.113492 1_555
O61 S20 1.522771 1_555
O61 Sn9 2.152933 1_555
O62 Si13 1.694814 1_555
O62 Sn8 1.994123 1_555
O63 Si14 1.659642 1_555
O63 Sn9 1.940071 1_555
O64 S17 1.524508 1_555
O64 Sn8 2.137586 1_555
O65 S18 1.519061 1_555
O65 Sn9 2.270698 1_555
O66 S13 1.536554 1_555
O66 Sn10 2.110231 1_555
O67 S14 1.538904 1_555
O67 Sn11 2.113996 1_555
O68 S15 1.526591 1_555
O68 Sn10 2.234851 1_555
O69 S16 1.524690 1_555
O69 Sn11 2.233364 1_555
O70 Si11 1.679697 1_555
O70 Sn10 1.978558 1_555
O71 Si12 1.677814 1_555
O71 Sn11 1.979115 1_555
O72 S19 1.460094 1_555
O72 Zn0 2.293429 1_465
O73 S20 1.447488 1_555
O73 Zn1 2.284456 1_565
O74 Si13 1.615208 1_555
O74 Zn1 2.150138 1_565
O75 Si14 1.623034 1_555
O75 Zn0 1.931256 1_565
O76 S17 1.469079 1_555
O76 Zn0 2.323316 1_455
O77 S18 1.469806 1_555
O77 Zn1 2.332675 1_555
O78 S13 1.446109 1_555
O78 Zn2 2.300372 1_445
O79 S14 1.447657 1_555
O79 Zn3 2.294314 1_545
O80 S15 1.463788 1_555
O80 Zn2 2.343096 1_455
O81 S16 1.463034 1_555
O81 Zn3 2.340466 1_555
O82 Si11 1.628601 1_555
O82 Zn3 2.082349 1_555
O83 Si12 1.629776 1_555
O83 Zn2 2.083218 1_555
O84 Si7 1.706276 1_555
O84 Sn1 2.030374 1_555
O85 Si8 1.707357 1_555
O85 Sn0 2.024543 1_655
O86 S5 1.495355 1_555
O86 Sn0 2.125017 1_555
O87 S6 1.505707 1_555
O87 Sn1 2.109780 1_555
O88 S7 1.505729 1_555
O88 Sn1 2.345133 1_565
O89 S8 1.518774 1_555
O89 Sn0 2.332213 1_665
O90 Si9 1.711834 1_555
O90 Sn3 2.039218 1_565
O91 Si10 1.711402 1_555
O91 Sn2 2.018725 1_655
O92 S9 1.511987 1_555
O92 Sn3 2.334901 1_555
O93 S10 1.529748 1_555
O93 Sn2 2.243341 1_645
O94 S11 1.513394 1_555
O94 Sn2 2.086443 1_545
O95 S12 1.496451 1_555
O95 Sn3 2.124448 1_555
O96 S3 1.468448 1_545
O96 Zn4 2.307422 1_555
O97 S4 1.467475 1_545
O97 Zn5 2.324157 1_555
O98 Si3 1.636864 1_555
O98 Zn4 2.077763 1_555
O99 Si4 1.633898 1_555
O99 Zn5 2.089103 1_555
O100 Si6 1.622324 1_555
O100 Zn4 2.016353 1_555
O101 Si5 1.619292 1_655
O101 Zn5 2.030392 1_555
O102 S0 1.456855 1_555
O102 Zn6 2.285951 1_555
O103 S1 1.471839 1_555
O103 Zn7 2.346755 1_555
O104 Si2 1.620718 1_555
O104 Zn6 2.036204 1_555
O105 S2 1.473723 1_655
O105 Zn7 2.264631 1_555
O106 Si0 1.615380 1_555
O106 Zn6 2.092388 1_555
O107 Si1 1.634646 1_555
O107 Zn7 1.965080 1_555
O108 Si11 1.716309 1_555
O108 Sn4 2.022030 1_555
O109 Si12 1.716910 1_555
O109 Sn5 2.022620 1_555
O110 S14 1.522045 1_555
O110 Sn4 2.141214 1_555
O111 S13 1.522548 1_655
O111 Sn5 2.124512 1_555
O112 S15 1.510314 1_545
O112 Sn4 2.200976 1_555
O113 S16 1.514217 1_545
O113 Sn5 2.175956 1_555
O114 Si13 1.732739 1_545
O114 Sn6 2.046089 1_555
O115 Si14 1.693280 1_545
O115 Sn7 1.987571 1_555
O116 S17 1.528475 1_555
O116 Sn6 2.247297 1_555
O117 S18 1.508031 1_555
O117 Sn7 2.206643 1_555
O118 S20 1.541833 1_555
O118 Sn6 2.101542 1_555
O119 S19 1.492569 1_655
O119 Sn7 2.115829 1_555
O120 S11 1.465180 1_555
O120 Zn8 2.313953 1_555
O121 S12 1.463875 1_555
O121 Zn9 2.260186 1_555
O122 Si10 1.611321 1_455
O122 Zn8 1.954481 1_555
O123 Si9 1.613834 1_555
O123 Zn9 1.947375 1_555
O124 S9 1.471719 1_565
O124 Zn8 2.312453 1_555
O125 S10 1.467190 1_565
O125 Zn9 2.345851 1_555
O126 S5 1.464518 1_565
O126 Zn10 2.331919 1_555
O127 S6 1.467130 1_565
O127 Zn11 2.313199 1_555
O128 S7 1.467023 1_555
O128 Zn10 2.282094 1_555
O129 S8 1.471193 1_555
O129 Zn11 2.278256 1_555
O130 Si8 1.610130 1_455
O130 Zn10 1.927649 1_555
O131 Si7 1.608258 1_555
O131 Zn11 1.970487 1_555
O132 Si0 1.724468 1_565
O132 Sn8 2.031491 1_555
O133 Si1 1.663666 1_565
O133 Sn9 1.999737 1_555
O134 S0 1.523388 1_555
O134 Sn8 2.119160 1_555
O135 S1 1.493197 1_555
O135 Sn9 2.150299 1_555
O136 S2 1.535483 1_555
O136 Sn8 2.247592 1_555
O137 Si2 1.682633 1_555
O137 Sn9 2.069477 1_555
O138 Si3 1.678201 1_555
O138 Sn10 2.024378 1_555
O139 Si4 1.676460 1_555
O139 Sn11 2.020253 1_555
O140 Si5 1.689202 1_555
O140 Sn10 2.055782 1_555
O141 Si6 1.686361 1_555
O141 Sn11 2.057367 1_555
O142 S3 1.507828 1_555
O142 Sn10 2.163225 1_555
O143 S4 1.507244 1_555
O143 Sn11 2.161191 1_555
