# generated using pymatgen
data_Na6Ca7Ti(SO4)12
_symmetry_space_group_name_H-M   'P 1'
_cell_length_a   18.36338009
_cell_length_b   9.17535103
_cell_length_c   23.75560106
_cell_angle_alpha   90.11435040
_cell_angle_beta   89.92156609
_cell_angle_gamma   120.04335464
_symmetry_Int_Tables_number   1
_chemical_formula_structural   Na6Ca7Ti(SO4)12
_chemical_formula_sum   'Na18 Ca21 Ti3 S36 O144'
_cell_volume   3464.82390079
_cell_formula_units_Z   3
loop_
 _symmetry_equiv_pos_site_id
 _symmetry_equiv_pos_as_xyz
  1  'x, y, z'
loop_
 _atom_site_type_symbol
 _atom_site_label
 _atom_site_symmetry_multiplicity
 _atom_site_fract_x
 _atom_site_fract_y
 _atom_site_fract_z
 _atom_site_occupancy
  Na  Na0  1  0.32067822  0.63774721  0.74774325  1
  Na  Na1  1  0.65504245  0.33465219  0.58491066  1
  Na  Na2  1  0.98845090  0.66866349  0.92116608  1
  Na  Na3  1  0.66560642  0.30728756  0.91612543  1
  Na  Na4  1  0.16563984  0.02531652  0.41833745  1
  Na  Na5  1  0.66689761  0.02774480  0.41940714  1
  Na  Na6  1  0.99043034  0.00453528  0.49780494  1
  Na  Na7  1  0.47669768  0.97408875  0.50245922  1
  Na  Na8  1  0.00462325  0.02643072  0.00140077  1
  Na  Na9  1  0.48541090  0.97453695  0.99615268  1
  Na  Na10  1  0.34130959  0.31873523  0.84100184  1
  Na  Na11  1  0.82579418  0.30509211  0.83122605  1
  Na  Na12  1  0.34491267  0.35633304  0.33791123  1
  Na  Na13  1  0.84448593  0.35527570  0.33719108  1
  Na  Na14  1  0.16734875  0.66754459  0.16438428  1
  Na  Na15  1  0.66545424  0.66641351  0.16471760  1
  Na  Na16  1  0.16240535  0.67209854  0.66238764  1
  Na  Na17  1  0.66080744  0.67883011  0.67011892  1
  Ca  Ca0  1  0.99539358  0.00057035  0.34976055  1
  Ca  Ca1  1  0.49512407  0.00231124  0.35093300  1
  Ca  Ca2  1  0.00238218  0.01331132  0.85115291  1
  Ca  Ca3  1  0.49628079  0.99512213  0.84905100  1
  Ca  Ca4  1  0.49903789  0.99534284  0.65190998  1
  Ca  Ca5  1  0.33702875  0.32620685  0.67996097  1
  Ca  Ca6  1  0.83231362  0.33160100  0.68454248  1
  Ca  Ca7  1  0.33273958  0.33204000  0.18258428  1
  Ca  Ca8  1  0.83221963  0.33175716  0.18206014  1
  Ca  Ca9  1  0.33366979  0.33538862  0.98850120  1
  Ca  Ca10  1  0.83221500  0.32125819  0.99387161  1
  Ca  Ca11  1  0.33525538  0.34004703  0.48723297  1
  Ca  Ca12  1  0.84704312  0.34830034  0.48753714  1
  Ca  Ca13  1  0.17127125  0.66793996  0.01867067  1
  Ca  Ca14  1  0.66668344  0.67373594  0.01883415  1
  Ca  Ca15  1  0.16578036  0.65623844  0.51830102  1
  Ca  Ca16  1  0.66752710  0.67104380  0.51527497  1
  Ca  Ca17  1  0.16751169  0.65914420  0.31051084  1
  Ca  Ca18  1  0.66660164  0.65866246  0.31119693  1
  Ca  Ca19  1  0.16240678  0.66615189  0.81586394  1
  Ca  Ca20  1  0.66930657  0.67317999  0.81559289  1
  Ti  Ti0  1  0.00068868  0.00171235  0.65188609  1
  Ti  Ti1  1  0.00079133  0.99964681  0.15197066  1
  Ti  Ti2  1  0.49981745  0.99991369  0.15125967  1
  S  S0  1  0.14242765  0.99521446  0.24713922  1
  S  S1  1  0.64206572  0.99632454  0.24703383  1
  S  S2  1  0.35512191  0.71465271  0.24452355  1
  S  S3  1  0.85495471  0.71356698  0.24437879  1
  S  S4  1  0.00212620  0.29088107  0.24406999  1
  S  S5  1  0.50234921  0.29083560  0.24425204  1
  S  S6  1  0.14514259  0.29501105  0.74378295  1
  S  S7  1  0.65495253  0.30816490  0.75084276  1
  S  S8  1  0.00212330  0.71748896  0.74694155  1
  S  S9  1  0.49789433  0.69093385  0.74967454  1
  S  S10  1  0.34505844  0.99361941  0.75011713  1
  S  S11  1  0.85606991  0.99720770  0.74524391  1
  S  S12  1  0.49008781  0.33294842  0.58257368  1
  S  S13  1  0.98654597  0.31730368  0.58939288  1
  S  S14  1  0.17000153  0.02158835  0.58569932  1
  S  S15  1  0.68214106  0.03582904  0.58016221  1
  S  S16  1  0.33210661  0.64082496  0.58770566  1
  S  S17  1  0.84017183  0.65042073  0.58790790  1
  S  S18  1  0.48632902  0.65464952  0.08890730  1
  S  S19  1  0.98755063  0.65575896  0.08589893  1
  S  S20  1  0.34124127  0.02764529  0.08876528  1
  S  S21  1  0.84131025  0.02381022  0.08923312  1
  S  S22  1  0.17270847  0.31779664  0.08895466  1
  S  S23  1  0.67148137  0.31830620  0.08611924  1
  S  S24  1  0.31728947  0.65884533  0.91357224  1
  S  S25  1  0.81787014  0.66140514  0.91903918  1
  S  S26  1  0.01285496  0.36899650  0.91913283  1
  S  S27  1  0.51749679  0.36729523  0.91779242  1
  S  S28  1  0.16560112  0.96743636  0.91827518  1
  S  S29  1  0.66933817  0.97837915  0.91722443  1
  S  S30  1  0.31278405  0.96699733  0.41700493  1
  S  S31  1  0.81546539  0.97158025  0.41578245  1
  S  S32  1  0.16750941  0.36029367  0.41553382  1
  S  S33  1  0.66980099  0.36155922  0.41939522  1
  S  S34  1  0.01903888  0.66889164  0.41498418  1
  S  S35  1  0.51691354  0.66740553  0.41436724  1
  O  O0  1  0.10451481  0.00230533  0.30101785  1
  O  O1  1  0.60468948  0.00385584  0.30103313  1
  O  O2  1  0.39801363  0.79366176  0.29726949  1
  O  O3  1  0.89764935  0.79163009  0.29730881  1
  O  O4  1  0.49934437  0.20593497  0.29695602  1
  O  O5  1  0.99832981  0.20511510  0.29684156  1
  O  O6  1  0.10659098  0.20664467  0.79616367  1
  O  O7  1  0.60854543  0.21442767  0.80196282  1
  O  O8  1  0.49331805  0.78135411  0.79986914  1
  O  O9  1  0.99870717  0.79230817  0.80098822  1
  O  O10  1  0.39205395  0.00536341  0.80180706  1
  O  O11  1  0.89816384  0.00047182  0.79793256  1
  O  O12  1  0.39094416  0.98801142  0.69971851  1
  O  O13  1  0.91109955  0.00001250  0.69618152  1
  O  O14  1  0.09109505  0.18855793  0.69459785  1
  O  O15  1  0.61035093  0.21986981  0.69836476  1
  O  O16  1  0.00282209  0.83132491  0.69894148  1
  O  O17  1  0.50250621  0.78376448  0.69788962  1
  O  O18  1  0.40891140  0.82344355  0.19538146  1
  O  O19  1  0.90922231  0.82274425  0.19553833  1
  O  O20  1  0.00157425  0.18113336  0.19507929  1
  O  O21  1  0.50155543  0.18198960  0.19506980  1
  O  O22  1  0.08612260  0.99521503  0.19897835  1
  O  O23  1  0.58605441  0.99602718  0.19888893  1
  O  O24  1  0.44749308  0.33947412  0.63420853  1
  O  O25  1  0.94260544  0.33893603  0.63712048  1
  O  O26  1  0.22756627  0.11658656  0.63147858  1
  O  O27  1  0.73325767  0.12942949  0.62943930  1
  O  O28  1  0.33181540  0.55758375  0.64149814  1
  O  O29  1  0.82737182  0.53877807  0.63566993  1
  O  O30  1  0.44398393  0.54693889  0.13721324  1
  O  O31  1  0.93977149  0.54018227  0.13146631  1
  O  O32  1  0.32961949  0.11093607  0.13759218  1
  O  O33  1  0.83000592  0.11108506  0.13705613  1
  O  O34  1  0.22589563  0.34037877  0.13751146  1
  O  O35  1  0.72921294  0.33977230  0.13191294  1
  O  O36  1  0.20625066  0.28710880  0.03657638  1
  O  O37  1  0.70235858  0.28991966  0.03150074  1
  O  O38  1  0.43745269  0.58839830  0.03655802  1
  O  O39  1  0.94272383  0.59493805  0.03112218  1
  O  O40  1  0.35602664  0.12552062  0.03666155  1
  O  O41  1  0.85690785  0.12028197  0.03642958  1
  O  O42  1  0.19899470  0.10874532  0.53094578  1
  O  O43  1  0.72465048  0.12851467  0.52735276  1
  O  O44  1  0.33169123  0.53991956  0.53899610  1
  O  O45  1  0.85870492  0.58754146  0.53561306  1
  O  O46  1  0.44282856  0.32909817  0.53202896  1
  O  O47  1  0.93931320  0.28437536  0.53620039  1
  O  O48  1  0.26800818  0.66445385  0.96180839  1
  O  O49  1  0.77631094  0.67737685  0.96963303  1
  O  O50  1  0.06214190  0.45695041  0.96937361  1
  O  O51  1  0.56725619  0.45717005  0.96812688  1
  O  O52  1  0.15866269  0.86431402  0.96785012  1
  O  O53  1  0.66684201  0.88514533  0.96811611  1
  O  O54  1  0.26989588  0.87312187  0.46842941  1
  O  O55  1  0.77369311  0.87826845  0.46736277  1
  O  O56  1  0.16421646  0.44691645  0.46650919  1
  O  O57  1  0.66646930  0.43964410  0.47337388  1
  O  O58  1  0.06541056  0.67362506  0.46629689  1
  O  O59  1  0.56579683  0.67773584  0.46502543  1
  O  O60  1  0.06218087  0.66036581  0.36366930  1
  O  O61  1  0.55948109  0.65660890  0.36288974  1
  O  O62  1  0.26492981  0.87796100  0.36589193  1
  O  O63  1  0.76632518  0.88158347  0.36521668  1
  O  O64  1  0.17011225  0.45187836  0.36400533  1
  O  O65  1  0.67226144  0.46270610  0.37057676  1
  O  O66  1  0.05462637  0.46247846  0.86698144  1
  O  O67  1  0.55908758  0.46234037  0.86619844  1
  O  O68  1  0.17001042  0.88494016  0.86584331  1
  O  O69  1  0.67482634  0.89555619  0.86549824  1
  O  O70  1  0.27512857  0.65237482  0.85908528  1
  O  O71  1  0.76943085  0.64809853  0.86781694  1
  O  O72  1  0.01545721  0.82907844  0.41451901  1
  O  O73  1  0.51318568  0.82721579  0.41342068  1
  O  O74  1  0.39946710  0.99384835  0.41600180  1
  O  O75  1  0.90199814  0.99725266  0.41450442  1
  O  O76  1  0.09213165  0.18526261  0.41545213  1
  O  O77  1  0.59468623  0.18769059  0.41646123  1
  O  O78  1  0.99950507  0.19552405  0.91758100  1
  O  O79  1  0.51457504  0.20051740  0.91628903  1
  O  O80  1  0.08572011  0.97631533  0.91720482  1
  O  O81  1  0.59371152  0.00008954  0.91621417  1
  O  O82  1  0.40212164  0.81324333  0.91568342  1
  O  O83  1  0.90619328  0.80547268  0.91560478  1
  O  O84  1  0.50064121  0.18147590  0.58225092  1
  O  O85  1  0.99481307  0.16071412  0.59915401  1
  O  O86  1  0.08427101  0.00715083  0.59796028  1
  O  O87  1  0.59973929  0.03158925  0.58261258  1
  O  O88  1  0.40899575  0.80992341  0.58389175  1
  O  O89  1  0.91457364  0.82477260  0.59890571  1
  O  O90  1  0.49475239  0.82797736  0.09868865  1
  O  O91  1  0.99501027  0.82683812  0.09724189  1
  O  O92  1  0.41974632  0.01170008  0.09784398  1
  O  O93  1  0.91959774  0.00876870  0.09849366  1
  O  O94  1  0.08615954  0.15977977  0.09829220  1
  O  O95  1  0.58678951  0.16092794  0.09745430  1
  O  O96  1  0.32964431  0.13719121  0.74836728  1
  O  O97  1  0.84821711  0.14896451  0.74197812  1
  O  O98  1  0.23091562  0.32131556  0.73812590  1
  O  O99  1  0.73963951  0.32187685  0.75255148  1
  O  O100  1  0.41765351  0.52349546  0.74925635  1
  O  O101  1  0.92718842  0.55082568  0.74065869  1
  O  O102  1  0.34591384  0.54662224  0.24017814  1
  O  O103  1  0.84598632  0.54581045  0.23965706  1
  O  O104  1  0.42807047  0.31092121  0.24032406  1
  O  O105  1  0.92780602  0.31088373  0.23977022  1
  O  O106  1  0.22588747  0.14510870  0.24159221  1
  O  O107  1  0.72578608  0.14661546  0.24123062  1
  O  O108  1  0.32638502  0.50655492  0.91739611  1
  O  O109  1  0.82291383  0.50250446  0.92279122  1
  O  O110  1  0.43072801  0.33988250  0.92135555  1
  O  O111  1  0.92966142  0.36344210  0.92181688  1
  O  O112  1  0.23985062  0.13866325  0.92204210  1
  O  O113  1  0.74472565  0.15391045  0.91923494  1
  O  O114  1  0.31604549  0.13420357  0.41831476  1
  O  O115  1  0.81967867  0.13949114  0.41712634  1
  O  O116  1  0.24298959  0.33712749  0.41630995  1
  O  O117  1  0.74597691  0.34096639  0.41863810  1
  O  O118  1  0.43044163  0.51984571  0.41689698  1
  O  O119  1  0.93212463  0.52156007  0.41610329  1
  O  O120  1  0.15774148  0.46114824  0.08392744  1
  O  O121  1  0.65757893  0.46310159  0.08317231  1
  O  O122  1  0.07366637  0.68254624  0.08311451  1
  O  O123  1  0.57291909  0.68396967  0.08385792  1
  O  O124  1  0.26950178  0.85388412  0.08376958  1
  O  O125  1  0.76888578  0.85157052  0.08451692  1
  O  O126  1  0.15541912  0.84815618  0.58343871  1
  O  O127  1  0.66907745  0.86358500  0.58030569  1
  O  O128  1  0.25644344  0.66047078  0.58675883  1
  O  O129  1  0.76337404  0.66361599  0.58166273  1
  O  O130  1  0.07237744  0.46199401  0.58493224  1
  O  O131  1  0.57758641  0.48277992  0.58251820  1
  O  O132  1  0.14552191  0.83815685  0.24181948  1
  O  O133  1  0.64591153  0.83959358  0.24199724  1
  O  O134  1  0.27287508  0.70684070  0.24029841  1
  O  O135  1  0.77275154  0.70584762  0.24031316  1
  O  O136  1  0.08086342  0.45433455  0.23960375  1
  O  O137  1  0.58135469  0.45474956  0.23978842  1
  O  O138  1  0.15011807  0.46164411  0.74126441  1
  O  O139  1  0.66458573  0.47871411  0.75037571  1
  O  O140  1  0.08016096  0.70974605  0.74162363  1
  O  O141  1  0.57197670  0.66726854  0.75146603  1
  O  O142  1  0.26296122  0.82932040  0.75023990  1
  O  O143  1  0.77352915  0.84300448  0.73995010  1
loop_
_geom_bond_atom_site_label_1
_geom_bond_atom_site_label_2
_geom_bond_distance
_geom_bond_site_symmetry_2
Na0 O142 2.466051 1_555
Na0 O100 2.478110 1_555
Na0 O98 2.530841 1_555
Na0 O28 2.663604 1_555
Na0 O138 2.716103 1_555
Na0 O70 2.796176 1_555
Na1 O131 2.410344 1_555
Na1 O87 2.436916 1_555
Na1 O84 2.455274 1_555
Na1 O129 2.657444 1_555
Na1 O57 2.792635 1_555
Na1 O15 2.861198 1_555
Na2 O83 2.403055 1_555
Na2 O111 2.445690 1_555
Na2 O80 2.473766 1_655
Na2 O109 2.631679 1_555
Na2 O39 2.723583 1_556
Na3 O79 2.435395 1_555
Na3 O81 2.441653 1_555
Na3 O113 2.478883 1_555
Na3 O109 2.529255 1_555
Na3 O37 2.847352 1_556
Na3 O7 2.878100 1_555
Na4 O114 2.421473 1_555
Na4 O72 2.425668 1_545
Na4 O76 2.442295 1_555
Na4 O116 2.477164 1_555
Na4 O42 2.764781 1_555
Na5 O77 2.422041 1_555
Na5 O115 2.458639 1_555
Na5 O73 2.484505 1_545
Na5 O117 2.487928 1_555
Na5 O43 2.751627 1_555
Na6 O75 2.541071 1_545
Na6 O76 2.639483 1_655
Na6 O72 2.728194 1_645
Na6 O85 2.779894 1_555
Na6 O89 2.852221 1_545
Na6 O86 2.932665 1_655
Na7 O88 2.384669 1_555
Na7 O74 2.555272 1_555
Na7 O84 2.560706 1_565
Na7 O73 2.761850 1_555
Na7 O87 2.797001 1_565
Na7 O77 2.908786 1_565
Na8 O78 2.557273 1_454
Na8 O80 2.665248 1_544
Na8 O94 2.683391 1_555
Na8 O93 2.742683 1_455
Na8 O83 2.802785 1_444
Na8 O91 2.874096 1_445
Na9 O82 2.431852 1_555
Na9 O79 2.662036 1_565
Na9 O81 2.672239 1_565
Na9 O92 2.794014 1_566
Na9 O90 2.831268 1_556
Na9 O95 2.998259 1_566
Na10 O110 2.462861 1_555
Na10 O108 2.607194 1_555
Na10 O112 2.613020 1_555
Na10 O96 2.700464 1_555
Na10 O100 2.759682 1_555
Na11 O99 2.504588 1_555
Na11 O113 2.539042 1_555
Na11 O97 2.700515 1_555
Na11 O111 2.745914 1_555
Na11 O109 2.845176 1_555
Na11 O101 2.997353 1_555
Na12 O118 2.423993 1_555
Na12 O116 2.581515 1_555
Na12 O114 2.648415 1_555
Na12 O102 2.902241 1_555
Na12 O104 2.916047 1_555
Na13 O119 2.443394 1_555
Na13 O117 2.605134 1_555
Na13 O115 2.615895 1_555
Na13 O103 2.897102 1_555
Na13 O105 2.910915 1_555
Na14 O136 2.537215 1_555
Na14 O134 2.538644 1_555
Na14 O132 2.570954 1_555
Na14 O124 2.627032 1_555
Na14 O120 2.631056 1_555
Na14 O122 2.636852 1_555
Na15 O137 2.517969 1_555
Na15 O135 2.555654 1_555
Na15 O133 2.565436 1_555
Na15 O123 2.624390 1_555
Na15 O125 2.625946 1_555
Na15 O121 2.640007 1_555
Na16 O126 2.522624 1_555
Na16 O128 2.529118 1_555
Na16 O140 2.540734 1_555
Na16 O130 2.576436 1_555
Na16 O138 2.620621 1_555
Na16 O142 2.679087 1_555
Na17 O143 2.486555 1_555
Na17 O141 2.495086 1_555
Na17 O131 2.672638 1_555
Na17 O139 2.674514 1_555
Na17 O127 2.684142 1_555
Na17 O129 2.869458 1_555
Ca0 O3 2.236205 1_545
Ca0 O5 2.239070 1_555
Ca0 O75 2.290975 1_545
Ca0 O0 2.306111 1_655
Ca0 O76 2.333551 1_655
Ca0 O72 2.360074 1_645
Ca1 O4 2.237210 1_555
Ca1 O2 2.246844 1_545
Ca1 O74 2.310287 1_545
Ca1 O1 2.327761 1_555
Ca1 O73 2.332168 1_545
Ca1 O77 2.354222 1_555
Ca2 O11 2.248376 1_455
Ca2 O6 2.262408 1_555
Ca2 O78 2.316424 1_455
Ca2 O9 2.321666 1_445
Ca2 O80 2.334137 1_545
Ca2 O83 2.394219 1_445
Ca3 O8 2.258150 1_555
Ca3 O10 2.262305 1_565
Ca3 O82 2.322487 1_555
Ca3 O7 2.323625 1_565
Ca3 O79 2.360358 1_565
Ca3 O81 2.382154 1_565
Ca4 O12 2.257191 1_555
Ca4 O17 2.257929 1_555
Ca4 O88 2.327840 1_555
Ca4 O15 2.328247 1_565
Ca4 O84 2.369960 1_565
Ca4 O87 2.370282 1_565
Ca5 O24 2.249036 1_555
Ca5 O26 2.278715 1_555
Ca5 O96 2.332815 1_555
Ca5 O100 2.343037 1_555
Ca5 O28 2.358494 1_555
Ca5 O98 2.369296 1_555
Ca6 O27 2.254206 1_555
Ca6 O29 2.269688 1_555
Ca6 O25 2.287608 1_555
Ca6 O97 2.292450 1_555
Ca6 O101 2.311938 1_555
Ca6 O99 2.314146 1_555
Ca7 O32 2.266367 1_555
Ca7 O34 2.271171 1_555
Ca7 O30 2.278573 1_555
Ca7 O102 2.306531 1_555
Ca7 O104 2.308861 1_555
Ca7 O106 2.321433 1_555
Ca8 O35 2.268992 1_555
Ca8 O33 2.270082 1_555
Ca8 O31 2.285421 1_555
Ca8 O103 2.299223 1_555
Ca8 O105 2.311156 1_555
Ca8 O107 2.314954 1_555
Ca9 O108 2.357792 1_555
Ca9 O112 2.366653 1_555
Ca9 O110 2.375193 1_555
Ca9 O38 2.426906 1_556
Ca9 O36 2.435618 1_556
Ca9 O40 2.446859 1_556
Ca10 O41 2.339681 1_556
Ca10 O111 2.362752 1_555
Ca10 O113 2.368400 1_555
Ca10 O37 2.424189 1_556
Ca10 O109 2.437698 1_555
Ca10 O39 2.469897 1_556
Ca11 O44 2.233946 1_555
Ca11 O46 2.291210 1_555
Ca11 O116 2.381641 1_555
Ca11 O118 2.384177 1_555
Ca11 O114 2.386230 1_555
Ca11 O42 2.554949 1_555
Ca12 O119 2.316119 1_555
Ca12 O43 2.340133 1_555
Ca12 O47 2.356812 1_555
Ca12 O45 2.385101 1_555
Ca12 O115 2.397173 1_555
Ca12 O117 2.451672 1_555
Ca13 O48 2.243098 1_554
Ca13 O52 2.277011 1_554
Ca13 O50 2.290825 1_554
Ca13 O124 2.339171 1_555
Ca13 O120 2.367198 1_555
Ca13 O122 2.409637 1_555
Ca14 O51 2.257601 1_554
Ca14 O53 2.284285 1_554
Ca14 O49 2.312204 1_554
Ca14 O123 2.348101 1_555
Ca14 O125 2.356031 1_555
Ca14 O121 2.405534 1_555
Ca15 O56 2.266876 1_555
Ca15 O54 2.283106 1_555
Ca15 O58 2.291331 1_555
Ca15 O128 2.315269 1_555
Ca15 O130 2.359386 1_555
Ca15 O126 2.419755 1_555
Ca16 O55 2.236586 1_555
Ca16 O59 2.244951 1_555
Ca16 O131 2.326042 1_555
Ca16 O127 2.333926 1_555
Ca16 O57 2.334386 1_555
Ca16 O129 2.391198 1_555
Ca17 O64 2.309664 1_555
Ca17 O60 2.313229 1_555
Ca17 O62 2.315505 1_555
Ca17 O134 2.421430 1_555
Ca17 O136 2.429237 1_555
Ca17 O132 2.490038 1_555
Ca18 O61 2.309579 1_555
Ca18 O63 2.330087 1_555
Ca18 O65 2.330436 1_555
Ca18 O137 2.427055 1_555
Ca18 O135 2.443659 1_555
Ca18 O133 2.499364 1_555
Ca19 O68 2.273614 1_555
Ca19 O66 2.276647 1_555
Ca19 O142 2.305353 1_555
Ca19 O70 2.371337 1_555
Ca19 O140 2.483226 1_555
Ca19 O138 2.505251 1_555
Ca20 O69 2.315706 1_555
Ca20 O67 2.316499 1_555
Ca20 O71 2.324580 1_555
Ca20 O139 2.329359 1_555
Ca20 O141 2.329833 1_555
Ca20 O143 2.517054 1_555
O0 S0 1.472995 1_545
O1 S1 1.471775 1_545
O2 S2 1.463996 1_555
O3 S3 1.464764 1_555
O4 S5 1.462217 1_555
O5 S4 1.464395 1_655
O6 S6 1.460755 1_555
O7 S7 1.485975 1_555
O8 S9 1.477421 1_555
O9 S8 1.470720 1_655
O10 S10 1.474257 1_545
O11 S11 1.464361 1_545
O12 S10 1.478669 1_555
O13 S11 1.533328 1_545
O13 Ti0 1.945170 1_655
O14 S6 1.527161 1_555
O14 Ti0 1.967873 1_555
O15 S7 1.488501 1_555
O16 S8 1.543575 1_555
O16 Ti0 1.940002 1_565
O17 S9 1.475694 1_555
O18 S2 1.532680 1_555
O18 Ti2 1.950003 1_555
O19 S3 1.531211 1_555
O19 Ti1 1.949946 1_655
O20 S4 1.534168 1_555
O20 Ti1 1.947072 1_545
O21 S5 1.530842 1_555
O21 Ti2 1.953165 1_545
O22 S0 1.543127 1_555
O22 Ti1 1.942378 1_555
O23 S1 1.538314 1_555
O23 Ti2 1.962367 1_555
O24 S12 1.471040 1_555
O25 S13 1.460458 1_555
O26 S14 1.461721 1_555
O27 S15 1.476748 1_555
O28 S16 1.488662 1_555
O29 S17 1.467901 1_555
O30 S18 1.459723 1_555
O31 S19 1.461667 1_555
O32 S20 1.460847 1_555
O33 S21 1.461899 1_555
O34 S22 1.458394 1_555
O35 S23 1.462655 1_555
O36 S22 1.475488 1_555
O37 S23 1.489075 1_555
O38 S18 1.474900 1_555
O39 S19 1.490757 1_555
O40 S20 1.473636 1_555
O41 S21 1.479393 1_555
O42 S14 1.480113 1_555
O43 S15 1.497750 1_555
O44 S16 1.478126 1_555
O45 S17 1.478029 1_555
O46 S12 1.472449 1_555
O47 S13 1.476279 1_555
O48 S24 1.475878 1_555
O49 S25 1.468743 1_555
O50 S26 1.470584 1_555
O51 S27 1.479621 1_555
O52 S28 1.477077 1_555
O53 S29 1.469763 1_555
O54 S30 1.475412 1_555
O55 S31 1.472023 1_555
O56 S32 1.464868 1_555
O57 S33 1.483693 1_555
O58 S34 1.475968 1_555
O59 S35 1.476583 1_555
O60 S34 1.476070 1_555
O61 S35 1.480106 1_555
O62 S30 1.481240 1_555
O63 S31 1.480533 1_555
O64 S32 1.473279 1_555
O65 S33 1.473238 1_555
O66 S26 1.483838 1_555
O67 S27 1.476759 1_555
O68 S28 1.479266 1_555
O69 S29 1.473156 1_555
O70 S24 1.494906 1_555
O71 S25 1.476617 1_555
O72 S34 1.503840 1_555
O73 S35 1.501971 1_555
O74 S30 1.484019 1_555
O75 S31 1.485442 1_555
O76 S32 1.506401 1_555
O77 S33 1.499643 1_555
O78 S26 1.484572 1_655
O79 S27 1.504454 1_555
O80 S28 1.509572 1_555
O81 S29 1.498676 1_545
O82 S24 1.492096 1_555
O83 S25 1.495960 1_555
O84 S12 1.496277 1_555
O85 S13 1.536534 1_555
O85 Ti0 1.968379 1_655
O86 S14 1.539769 1_555
O86 Ti0 1.979271 1_555
O87 S15 1.495134 1_555
O88 S16 1.488530 1_555
O89 S17 1.518185 1_555
O89 Ti0 2.036430 1_665
O90 S18 1.536039 1_555
O90 Ti2 1.975492 1_555
O91 S19 1.529206 1_555
O91 Ti1 2.009785 1_655
O92 S20 1.535691 1_555
O92 Ti2 1.987144 1_545
O93 S21 1.527697 1_555
O93 Ti1 1.993609 1_645
O94 S22 1.539566 1_555
O94 Ti1 1.984444 1_545
O95 S23 1.525809 1_555
O95 Ti2 2.001607 1_545
O96 S10 1.480135 1_545
O97 S11 1.472131 1_545
O98 S6 1.475160 1_555
O99 S7 1.496721 1_555
O100 S9 1.504923 1_555
O101 S8 1.465224 1_655
O102 S2 1.467849 1_555
O103 S3 1.467805 1_555
O104 S5 1.468099 1_555
O105 S4 1.469005 1_655
O106 S0 1.465383 1_545
O107 S1 1.470210 1_545
O108 S24 1.490935 1_555
O109 S25 1.509289 1_555
O110 S27 1.485824 1_555
O111 S26 1.504115 1_655
O112 S28 1.479924 1_545
O113 S29 1.509969 1_545
O114 S30 1.505344 1_545
O115 S31 1.503674 1_545
O116 S32 1.503930 1_555
O117 S33 1.502454 1_555
O118 S35 1.485098 1_555
O119 S34 1.488323 1_655
O120 S22 1.477333 1_555
O121 S23 1.474841 1_555
O122 S19 1.475171 1_455
O123 S18 1.478652 1_555
O124 S20 1.479197 1_565
O125 S21 1.474453 1_565
O126 S14 1.476431 1_565
O127 S15 1.474998 1_565
O128 S16 1.488087 1_555
O129 S17 1.482273 1_555
O130 S13 1.470666 1_455
O131 S12 1.503282 1_555
O132 S0 1.475497 1_555
O133 S1 1.479292 1_555
O134 S2 1.479289 1_555
O135 S3 1.478626 1_555
O136 S4 1.476476 1_555
O137 S5 1.481011 1_555
O138 S6 1.486603 1_555
O139 S7 1.484268 1_555
O140 S8 1.475129 1_555
O141 S9 1.481767 1_555
O142 S10 1.506558 1_555
O143 S11 1.472258 1_555
