# generated using pymatgen
data_LaNbSi(SO6)2
_symmetry_space_group_name_H-M   'P 1'
_cell_length_a   9.36107644
_cell_length_b   9.37339380
_cell_length_c   23.23320534
_cell_angle_alpha   90.06776001
_cell_angle_beta   90.00000000
_cell_angle_gamma   119.95654019
_symmetry_Int_Tables_number   1
_chemical_formula_structural   LaNbSi(SO6)2
_chemical_formula_sum   'La6 Nb6 Si6 S12 O72'
_cell_volume   1766.24943896
_cell_formula_units_Z   6
loop_
 _symmetry_equiv_pos_site_id
 _symmetry_equiv_pos_as_xyz
  1  'x, y, z'
loop_
 _atom_site_type_symbol
 _atom_site_label
 _atom_site_symmetry_multiplicity
 _atom_site_fract_x
 _atom_site_fract_y
 _atom_site_fract_z
 _atom_site_occupancy
  La  La0  1  0.99516633  0.01080412  0.36679897  1
  La  La1  1  0.01563779  0.01080412  0.86679897  1
  La  La2  1  0.66641449  0.33354786  0.69964659  1
  La  La3  1  0.66713436  0.33354786  0.19964659  1
  La  La4  1  0.32823054  0.66720079  0.03329158  1
  La  La5  1  0.33896926  0.66720079  0.53329158  1
  Nb  Nb0  1  0.00554545  0.01941964  0.64272303  1
  Nb  Nb1  1  0.01387419  0.01941964  0.14272303  1
  Nb  Nb2  1  0.65274342  0.32931112  0.97588127  1
  Nb  Nb3  1  0.67656871  0.32931112  0.47588127  1
  Nb  Nb4  1  0.33908013  0.67165493  0.31021101  1
  Nb  Nb5  1  0.33257380  0.67165493  0.81021101  1
  Si  Si0  1  0.03125971  0.30043534  0.25031743  1
  Si  Si1  1  0.26917562  0.30043534  0.75031743  1
  Si  Si2  1  0.93502716  0.31120113  0.58339108  1
  Si  Si3  1  0.37617497  0.31120113  0.08339108  1
  Si  Si4  1  0.36317580  0.95860087  0.91718424  1
  Si  Si5  1  0.59542407  0.95860087  0.41718424  1
  S  S0  1  0.26583253  0.96346149  0.25013224  1
  S  S1  1  0.69981405  0.73105372  0.25052948  1
  S  S2  1  0.03123966  0.73105372  0.75052948  1
  S  S3  1  0.69762895  0.96346149  0.75013224  1
  S  S4  1  0.36355100  0.06548744  0.58200252  1
  S  S5  1  0.70662539  0.63666796  0.58365534  1
  S  S6  1  0.93004357  0.63666796  0.08365534  1
  S  S7  1  0.70193744  0.06548744  0.08200252  1
  S  S8  1  0.60184264  0.63651334  0.91527270  1
  S  S9  1  0.03111153  0.40417372  0.91475332  1
  S  S10  1  0.37306118  0.40417372  0.41475332  1
  S  S11  1  0.03466971  0.63651334  0.41527270  1
  O  O0  1  0.19944622  0.99254299  0.30199258  1
  O  O1  1  0.79689860  0.79564991  0.30214769  1
  O  O2  1  0.00181135  0.18345282  0.30312709  1
  O  O3  1  0.18164146  0.18345282  0.80312709  1
  O  O4  1  0.99875131  0.79564991  0.80214769  1
  O  O5  1  0.79309677  0.99254299  0.80199258  1
  O  O6  1  0.78155675  0.93953581  0.69855447  1
  O  O7  1  0.13916783  0.19062857  0.69282596  1
  O  O8  1  0.05616592  0.83503630  0.69891876  1
  O  O9  1  0.77887037  0.83503630  0.19891876  1
  O  O10  1  0.05146074  0.19062857  0.19282596  1
  O  O11  1  0.15797907  0.93953581  0.19855447  1
  O  O12  1  0.84941462  0.33072415  0.63868001  1
  O  O13  1  0.45999253  0.13048243  0.63431821  1
  O  O14  1  0.67010320  0.53397249  0.63468731  1
  O  O15  1  0.86387029  0.53397249  0.13468731  1
  O  O16  1  0.67049091  0.13048243  0.13431821  1
  O  O17  1  0.48131053  0.33072415  0.13868001  1
  O  O18  1  0.48148026  0.28997708  0.02636336  1
  O  O19  1  0.82755114  0.55315703  0.03177245  1
  O  O20  1  0.72900363  0.17501974  0.03142207  1
  O  O21  1  0.44601711  0.17501974  0.53142207  1
  O  O22  1  0.72560689  0.55315703  0.53177245  1
  O  O23  1  0.80849781  0.28997708  0.52636336  1
  O  O24  1  0.53589834  0.66429226  0.96785109  1
  O  O25  1  0.13646480  0.46584222  0.96580342  1
  O  O26  1  0.34573498  0.85770842  0.97370995  1
  O  O27  1  0.51197244  0.85770842  0.47370995  1
  O  O28  1  0.32937642  0.46584222  0.46580342  1
  O  O29  1  0.12839291  0.66429226  0.46785109  1
  O  O30  1  0.11696947  0.60777637  0.36465189  1
  O  O31  1  0.47163555  0.85601321  0.36086047  1
  O  O32  1  0.39391636  0.51363394  0.36380657  1
  O  O33  1  0.11971658  0.51363394  0.86380657  1
  O  O34  1  0.38437666  0.85601321  0.86086047  1
  O  O35  1  0.49080590  0.60777637  0.86465189  1
  O  O36  1  0.99799405  0.76695430  0.40387376  1
  O  O37  1  0.78087007  0.00602440  0.40627403  1
  O  O38  1  0.24845991  0.23508638  0.40294218  1
  O  O39  1  0.98662647  0.23508638  0.90294218  1
  O  O40  1  0.22515433  0.00602440  0.90627403  1
  O  O41  1  0.76896025  0.76695430  0.90387376  1
  O  O42  1  0.93835547  0.13052317  0.59452006  1
  O  O43  1  0.19598864  0.05764308  0.59068616  1
  O  O44  1  0.86353293  0.79788484  0.59407748  1
  O  O45  1  0.93435191  0.79788484  0.09407748  1
  O  O46  1  0.86165444  0.05764308  0.09068616  1
  O  O47  1  0.19216770  0.13052317  0.09452006  1
  O  O48  1  0.65567296  0.09145359  0.73990944  1
  O  O49  1  0.45045333  0.34279279  0.73424665  1
  O  O50  1  0.90422135  0.55982405  0.74163283  1
  O  O51  1  0.65560370  0.55982405  0.24163283  1
  O  O52  1  0.89234046  0.34279279  0.23424665  1
  O  O53  1  0.43578163  0.09145359  0.23990944  1
  O  O54  1  0.61180897  0.47742888  0.92310941  1
  O  O55  1  0.87409139  0.40829901  0.92539995  1
  O  O56  1  0.54069803  0.14790914  0.92888499  1
  O  O57  1  0.60721211  0.14790914  0.42888499  1
  O  O58  1  0.53420862  0.40829901  0.42539995  1
  O  O59  1  0.86562091  0.47742888  0.42310941  1
  O  O60  1  0.32446728  0.44337203  0.06822404  1
  O  O61  1  0.10147875  0.67516647  0.07443702  1
  O  O62  1  0.57338113  0.89627203  0.07211365  1
  O  O63  1  0.32288990  0.89627203  0.57211365  1
  O  O64  1  0.57368672  0.67516647  0.57443702  1
  O  O65  1  0.11890375  0.44337203  0.56822404  1
  O  O66  1  0.26938880  0.80142966  0.25786676  1
  O  O67  1  0.53303650  0.72638849  0.25959703  1
  O  O68  1  0.20369245  0.48056853  0.26492042  1
  O  O69  1  0.27687508  0.48056853  0.76492042  1
  O  O70  1  0.19335099  0.72638849  0.75959703  1
  O  O71  1  0.53203986  0.80142966  0.75786676  1
loop_
_geom_bond_atom_site_label_1
_geom_bond_atom_site_label_2
_geom_bond_distance
_geom_bond_site_symmetry_2
La0 O2 2.171691 1_655
La0 O37 2.185793 1_555
La0 O38 2.400938 1_655
La0 O1 2.454139 1_545
La0 O36 2.456046 1_545
La0 O0 2.505875 1_645
La1 O3 2.171691 1_555
La1 O40 2.185793 1_555
La1 O39 2.400938 1_455
La1 O4 2.454139 1_445
La1 O41 2.456046 1_445
La1 O5 2.505875 1_445
La2 O49 2.217091 1_555
La2 O12 2.233128 1_555
La2 O50 2.384425 1_555
La2 O14 2.397956 1_555
La2 O48 2.410760 1_555
La2 O13 2.445514 1_555
La3 O52 2.217091 1_555
La3 O17 2.233127 1_555
La3 O51 2.384425 1_555
La3 O15 2.397956 1_555
La3 O53 2.410760 1_555
La3 O16 2.445514 1_555
La4 O26 2.201232 1_554
La4 O60 2.234254 1_555
La4 O61 2.362861 1_555
La4 O62 2.400987 1_555
La4 O25 2.419224 1_554
La4 O24 2.478766 1_554
La5 O27 2.201232 1_555
La5 O65 2.234254 1_555
La5 O64 2.362861 1_555
La5 O63 2.400987 1_555
La5 O28 2.419224 1_555
La5 O29 2.478766 1_555
Nb0 O42 1.841540 1_455
Nb0 O7 1.867056 1_555
Nb0 O43 2.032572 1_555
Nb0 O44 2.143398 1_445
Nb0 O6 2.252566 1_445
Nb0 O8 2.395705 1_545
Nb1 O47 1.841540 1_555
Nb1 O10 1.867056 1_555
Nb1 O46 2.032572 1_455
Nb1 O45 2.143398 1_445
Nb1 O11 2.252566 1_545
Nb1 O9 2.395705 1_445
Nb2 O56 1.843371 1_555
Nb2 O18 1.868828 1_556
Nb2 O54 2.028042 1_555
Nb2 O55 2.164970 1_555
Nb2 O20 2.302567 1_556
Nb2 O19 2.308892 1_556
Nb3 O57 1.843371 1_555
Nb3 O23 1.868828 1_555
Nb3 O59 2.028042 1_555
Nb3 O58 2.164970 1_555
Nb3 O21 2.302567 1_555
Nb3 O22 2.308892 1_555
Nb4 O68 1.910522 1_555
Nb4 O31 1.940206 1_555
Nb4 O67 2.003426 1_555
Nb4 O66 2.044580 1_555
Nb4 O32 2.184411 1_555
Nb4 O30 2.244964 1_555
Nb5 O69 1.910522 1_555
Nb5 O34 1.940206 1_555
Nb5 O70 2.003426 1_555
Nb5 O71 2.044580 1_555
Nb5 O33 2.184411 1_555
Nb5 O35 2.244964 1_555
O0 S0 1.442445 1_555
O1 S1 1.442049 1_555
O2 Si0 1.576399 1_555
O3 Si1 1.576399 1_555
O4 S2 1.442049 1_655
O5 S3 1.442445 1_555
O6 S3 1.509582 1_555
O7 Si1 1.752254 1_555
O8 S2 1.489249 1_555
O9 S1 1.489249 1_555
O10 Si0 1.752254 1_555
O11 S0 1.509582 1_555
O12 Si2 1.572171 1_555
O13 S4 1.453447 1_555
O14 S5 1.457140 1_555
O15 S6 1.457140 1_555
O16 S7 1.453447 1_555
O17 Si3 1.572171 1_555
O18 Si3 1.721049 1_555
O19 S6 1.494656 1_555
O20 S7 1.497438 1_555
O21 S4 1.497438 1_555
O22 S5 1.494656 1_555
O23 Si2 1.721049 1_555
O24 S8 1.449436 1_555
O25 S9 1.463744 1_555
O26 Si4 1.579380 1_555
O27 Si5 1.579380 1_555
O28 S10 1.463744 1_555
O29 S11 1.449435 1_555
O30 S11 1.501921 1_555
O31 Si5 1.692351 1_555
O32 S10 1.514823 1_555
O33 S9 1.514824 1_555
O34 Si4 1.692351 1_555
O35 S8 1.501921 1_555
O36 S11 1.450148 1_655
O37 Si5 1.582739 1_545
O38 S10 1.449316 1_555
O39 S9 1.449319 1_655
O40 Si4 1.582730 1_545
O41 S8 1.450154 1_555
O42 Si2 1.729081 1_555
O43 S4 1.546401 1_555
O44 S5 1.510657 1_555
O45 S6 1.510662 1_555
O46 S7 1.546391 1_555
O47 Si3 1.729086 1_555
O48 S3 1.456449 1_545
O49 Si1 1.582463 1_555
O50 S2 1.458038 1_655
O51 S1 1.458041 1_555
O52 Si0 1.582454 1_655
O53 S0 1.456455 1_545
O54 S8 1.550804 1_555
O55 S9 1.509954 1_655
O56 Si4 1.743022 1_545
O57 Si5 1.743013 1_545
O58 S10 1.509972 1_555
O59 S11 1.550794 1_655
O60 Si3 1.578996 1_555
O61 S6 1.474231 1_455
O62 S7 1.452470 1_565
O63 S4 1.452465 1_565
O64 S5 1.474249 1_555
O65 Si2 1.578983 1_455
O66 S0 1.546369 1_555
O67 S1 1.554199 1_555
O68 Si0 1.687688 1_555
O69 Si1 1.687692 1_555
O70 S2 1.554190 1_555
O71 S3 1.546374 1_555
